=
 OpenBabel11042420573D

 46 51  0  0  1  0  0  0  0  0999 V2000
  159.3750  212.0580  154.6730 C   0  0  0  0  0  0  0  0  0  0  0  0
  162.4680  211.1470  156.0420 C   0  0  0  0  0  0  0  0  0  0  0  0
  163.3330  211.2250  157.1730 N   0  0  0  0  0  1  0  0  0  0  0  0
  160.9430  210.2310  152.7110 C   0  0  0  0  0  0  0  0  0  0  0  0
  158.9130  212.9440  155.6420 O   0  0  0  0  0  1  0  0  0  0  0  0
  158.3940  211.6780  153.6440 C   0  0  0  0  0  3  0  0  0  0  0  0
  159.9730  210.9600  151.9450 N   0  0  0  0  0  0  0  0  0  0  0  0
  158.6500  211.1930  152.4360 C   0  0  0  0  0  3  0  0  0  0  0  0
  161.3220  211.8480  155.9390 N   0  0  0  0  0  0  0  0  0  0  0  0
  160.6190  211.5570  154.8070 C   0  0  0  0  0  0  0  0  0  0  0  0
  161.2630  210.6130  153.9640 C   0  0  0  0  0  0  0  0  0  0  0  0
  162.6710  210.1010  154.7580 S   0  0  0  0  0  0  0  0  0  0  0  0
  161.9710  211.6780  149.1060 C   0  0  0  0  0  2  0  0  0  0  0  0
  160.3920  211.6350  150.7160 C   0  0  1  0  0  3  0  0  0  0  0  0
  161.7540  213.1450  148.8530 C   0  0  0  0  0  0  0  0  0  0  0  0
  162.4970  213.7490  148.0990 O   0  0  0  0  0  0  0  0  0  0  0  0
  160.1520  213.1510  150.7860 C   0  0  0  0  0  2  0  0  0  0  0  0
  161.7520  211.3780  150.4640 O   0  0  0  0  0  0  0  0  0  0  0  0
  160.5690  213.8340  149.4790 C   0  0  2  0  0  3  0  0  0  0  0  0
  159.3890  213.8560  148.5200 C   0  0  0  0  0  2  0  0  0  0  0  0
  159.8960  214.0080  147.0920 C   0  0  0  0  0  2  0  0  0  0  0  0
  157.8970  212.6720  146.7360 C   0  0  0  0  0  1  0  0  0  0  0  0
  159.9080  211.8650  145.6710 C   0  0  0  0  0  1  0  0  0  0  0  0
  159.1620  213.1430  146.0490 C   0  0  0  0  0  0  0  0  0  0  0  0
  158.7460  213.8810  144.9100 O   0  0  0  0  0  0  0  0  0  0  0  0
  159.0790  214.4530  142.1900 O   0  0  0  0  0  0  0  0  0  0  0  0
  159.7670  212.1630  143.2370 O   0  0  0  0  0  1  0  0  0  0  0  0
  161.3220  214.1610  143.7890 O   0  0  0  0  0  1  0  0  0  0  0  0
  159.7370  213.6400  143.5280 P   0  0  0  0  0  0  0  0  0  0  0  0
  162.5980  206.9290  152.5910 O   0  0  0  0  0  1  0  0  0  0  0  0
  161.7130  209.0750  152.0970 C   0  0  1  0  0  3  0  0  0  0  0  0
  161.4740  207.7380  152.7710 C   0  0  1  0  0  3  0  0  0  0  0  0
  160.7800  208.0720  151.4510 C   0  0  2  0  0  3  0  0  0  0  0  0
  161.4600  207.4920  150.2200 C   0  0  0  0  0  2  0  0  0  0  0  0
  161.1580  206.0380  150.0850 C   0  0  0  0  0  0  0  0  0  0  0  0
  160.2380  204.0050  150.9850 C   0  0  0  0  0  3  0  0  0  0  0  0
  160.5050  205.3670  151.1170 C   0  0  0  0  0  3  0  0  0  0  0  0
  161.3080  204.0310  148.8260 C   0  0  0  0  0  0  0  0  0  0  0  0
  161.5460  205.3580  148.9770 N   0  0  0  0  0  0  0  0  0  0  0  0
  160.6310  203.3310  149.8320 C   0  0  0  0  0  3  0  0  0  0  0  0
  161.7000  203.3660  147.5450 C   0  0  2  0  0  3  0  0  0  0  0  0
  161.0820  203.3810  145.2550 C   0  0  0  0  0  2  0  0  0  0  0  0
  161.4940  204.2950  146.3750 C   0  0  0  0  0  2  0  0  0  0  0  0
  160.7270  201.0340  145.2720 O   0  0  0  0  0  1  0  0  0  0  0  0
  160.9380  202.1410  147.3110 N   0  0  0  0  0  2  0  0  0  0  0  0
  160.4260  202.2110  145.9520 C   0  0  1  0  0  3  0  0  0  0  0  0
  1 10  2  0  0  0  0
  1  5  1  0  0  0  0
  2  3  1  0  0  0  0
  4 11  2  0  0  0  0
  6  1  1  0  0  0  0
  7  8  1  0  0  0  0
  7  4  1  0  0  0  0
  8  6  2  0  0  0  0
  9  2  2  0  0  0  0
 10  9  1  0  0  0  0
 11 12  1  0  0  0  0
 11 10  1  0  0  0  0
 12  2  1  0  0  0  0
 13 18  1  0  0  0  0
 14 17  1  1  0  0  0
 14  7  1  0  0  0  0
 15 13  1  0  0  0  0
 15 19  1  0  0  0  0
 16 15  2  0  0  0  0
 18 14  1  0  0  0  0
 19 20  1  6  0  0  0
 19 17  1  0  0  0  0
 21 20  1  0  0  0  0
 23 24  1  0  0  0  0
 24 22  1  0  0  0  0
 24 21  1  0  0  0  0
 25 24  1  0  0  0  0
 26 29  2  0  0  0  0
 27 29  1  0  0  0  0
 29 28  1  0  0  0  0
 29 25  1  0  0  0  0
 31  4  1  1  0  0  0
 31 32  1  0  0  0  0
 32 30  1  6  0  0  0
 33 34  1  6  0  0  0
 33 31  1  0  0  0  0
 33 32  1  0  0  0  0
 35 34  1  0  0  0  0
 35 37  1  0  0  0  0
 36 37  2  0  0  0  0
 38 39  1  0  0  0  0
 38 40  2  0  0  0  0
 39 35  2  0  0  0  0
 40 36  1  0  0  0  0
 41 38  1  1  0  0  0
 42 46  1  0  0  0  0
 42 43  1  0  0  0  0
 43 41  1  0  0  0  0
 45 41  1  0  0  0  0
 46 44  1  6  0  0  0
 46 45  1  0  0  0  0
M  END
>  <MODEL>
1

>  <REMARK>
 VINA RESULT:      -6.3      0.000      0.000
  Name = 
  10 active torsions:
  status: ('A' for Active; 'I' for Inactive)
    1  A    between atoms: C_6  and  C_15
    2  A    between atoms: C_6  and  C_44
    3  A    between atoms: C_8  and  C_17
    4  A    between atoms: C_10  and  N_31
    5  A    between atoms: C_12  and  C_32
    6  A    between atoms: C_13  and  C_14
    7  A    between atoms: C_15  and  C_46
    8  A    between atoms: C_17  and  C_23
    9  A    between atoms: P_35  and  O_43
   10  A    between atoms: O_43  and  C_44
                            x       y       z     vdW  Elec       q    Type
                         _______ _______ _______ _____ _____    ______ ____

>  <TORSDO>
F 10

$$$$
=
 OpenBabel11042420573D

 46 51  0  0  1  0  0  0  0  0999 V2000
  159.8950  210.5910  155.0780 C   0  0  0  0  0  0  0  0  0  0  0  0
  158.7300  212.5460  152.4140 C   0  0  0  0  0  0  0  0  0  0  0  0
  157.8630  213.6040  152.0110 N   0  0  0  0  0  1  0  0  0  0  0  0
  161.3710  209.8480  152.4490 C   0  0  0  0  0  0  0  0  0  0  0  0
  159.0360  210.9990  156.0950 O   0  0  0  0  0  1  0  0  0  0  0  0
  161.0230  209.7480  155.5040 C   0  0  0  0  0  3  0  0  0  0  0  0
  161.4980  208.7360  153.3480 N   0  0  0  0  0  0  0  0  0  0  0  0
  161.7360  208.9240  154.7450 C   0  0  0  0  0  3  0  0  0  0  0  0
  158.7200  212.0150  153.6540 N   0  0  0  0  0  0  0  0  0  0  0  0
  159.6860  211.0690  153.8360 C   0  0  0  0  0  0  0  0  0  0  0  0
  160.4630  210.8190  152.6740 C   0  0  0  0  0  0  0  0  0  0  0  0
  159.9500  211.9040  151.4760 S   0  0  0  0  0  0  0  0  0  0  0  0
  160.5140  205.3340  153.4970 C   0  0  0  0  0  2  0  0  0  0  0  0
  161.2000  207.3880  152.8650 C   0  0  1  0  0  3  0  0  0  0  0  0
  161.2610  204.6750  152.3680 C   0  0  0  0  0  0  0  0  0  0  0  0
  161.3300  203.4600  152.3110 O   0  0  0  0  0  0  0  0  0  0  0  0
  162.1970  206.9310  151.7890 C   0  0  0  0  0  2  0  0  0  0  0  0
  161.2050  206.4780  153.9380 O   0  0  0  0  0  0  0  0  0  0  0  0
  161.8490  205.5300  151.2760 C   0  0  2  0  0  3  0  0  0  0  0  0
  160.8880  205.6460  150.1030 C   0  0  0  0  0  2  0  0  0  0  0  0
  161.2360  204.5970  149.0540 C   0  0  0  0  0  2  0  0  0  0  0  0
  162.8980  205.3680  147.4560 C   0  0  0  0  0  1  0  0  0  0  0  0
  160.7740  206.5160  147.4070 C   0  0  0  0  0  1  0  0  0  0  0  0
  161.4090  205.1450  147.6240 C   0  0  0  0  0  0  0  0  0  0  0  0
  161.0310  204.2110  146.6230 O   0  0  0  0  0  0  0  0  0  0  0  0
  159.6710  206.1900  145.1860 O   0  0  0  0  0  1  0  0  0  0  0  0
  160.2280  203.8510  144.1700 O   0  0  0  0  0  0  0  0  0  0  0  0
  162.2310  205.4780  144.4030 O   0  0  0  0  0  1  0  0  0  0  0  0
  160.7870  204.9160  145.0760 P   0  0  0  0  0  0  0  0  0  0  0  0
  162.3830  208.9220  149.0180 O   0  0  0  0  0  1  0  0  0  0  0  0
  162.1820  209.9090  151.1670 C   0  0  1  0  0  3  0  0  0  0  0  0
  161.4510  209.4000  149.9410 C   0  0  1  0  0  3  0  0  0  0  0  0
  161.5910  210.9010  150.1870 C   0  0  2  0  0  3  0  0  0  0  0  0
  162.7230  211.5610  149.4130 C   0  0  0  0  0  2  0  0  0  0  0  0
  162.1870  212.3880  148.2950 C   0  0  0  0  0  0  0  0  0  0  0  0
  162.4660  213.4050  146.1320 C   0  0  0  0  0  3  0  0  0  0  0  0
  162.9720  212.6210  147.1670 C   0  0  0  0  0  3  0  0  0  0  0  0
  160.4390  213.7210  147.3970 C   0  0  0  0  0  0  0  0  0  0  0  0
  160.9530  212.9450  148.3850 N   0  0  0  0  0  0  0  0  0  0  0  0
  161.1900  213.9530  146.2380 C   0  0  0  0  0  3  0  0  0  0  0  0
  159.0430  214.2390  147.5360 C   0  0  2  0  0  3  0  0  0  0  0  0
  156.8610  213.4160  147.9730 C   0  0  0  0  0  2  0  0  0  0  0  0
  158.2600  213.4100  148.5230 C   0  0  0  0  0  2  0  0  0  0  0  0
  156.0260  214.3980  145.9810 O   0  0  0  0  0  1  0  0  0  0  0  0
  158.3330  214.2410  146.2580 N   0  0  0  0  0  2  0  0  0  0  0  0
  157.0470  213.5990  146.4840 C   0  0  1  0  0  3  0  0  0  0  0  0
  1  6  1  0  0  0  0
  1  5  1  0  0  0  0
  2  9  2  0  0  0  0
  3  2  1  0  0  0  0
  4 11  2  0  0  0  0
  4  7  1  0  0  0  0
  7  8  1  0  0  0  0
  8  6  2  0  0  0  0
  9 10  1  0  0  0  0
 10  1  2  0  0  0  0
 11 10  1  0  0  0  0
 12  2  1  0  0  0  0
 12 11  1  0  0  0  0
 13 18  1  0  0  0  0
 14 17  1  6  0  0  0
 14  7  1  0  0  0  0
 14 18  1  0  0  0  0
 15 13  1  0  0  0  0
 16 15  2  0  0  0  0
 19 20  1  6  0  0  0
 19 17  1  0  0  0  0
 19 15  1  0  0  0  0
 21 20  1  0  0  0  0
 22 24  1  0  0  0  0
 23 24  1  0  0  0  0
 24 21  1  0  0  0  0
 25 24  1  0  0  0  0
 27 29  2  0  0  0  0
 28 29  1  0  0  0  0
 29 26  1  0  0  0  0
 29 25  1  0  0  0  0
 31  4  1  1  0  0  0
 32 30  1  6  0  0  0
 32 33  1  0  0  0  0
 32 31  1  0  0  0  0
 33 34  1  6  0  0  0
 33 31  1  0  0  0  0
 35 39  1  0  0  0  0
 35 34  1  0  0  0  0
 36 40  2  0  0  0  0
 36 37  1  0  0  0  0
 37 35  2  0  0  0  0
 38 39  2  0  0  0  0
 40 38  1  0  0  0  0
 41 38  1  6  0  0  0
 41 43  1  0  0  0  0
 42 43  1  0  0  0  0
 45 46  1  0  0  0  0
 45 41  1  0  0  0  0
 46 44  1  1  0  0  0
 46 42  1  0  0  0  0
M  END
>  <MODEL>
2

>  <REMARK>
 VINA RESULT:      -6.3      3.224      7.808
  Name = 
  10 active torsions:
  status: ('A' for Active; 'I' for Inactive)
    1  A    between atoms: C_6  and  C_15
    2  A    between atoms: C_6  and  C_44
    3  A    between atoms: C_8  and  C_17
    4  A    between atoms: C_10  and  N_31
    5  A    between atoms: C_12  and  C_32
    6  A    between atoms: C_13  and  C_14
    7  A    between atoms: C_15  and  C_46
    8  A    between atoms: C_17  and  C_23
    9  A    between atoms: P_35  and  O_43
   10  A    between atoms: O_43  and  C_44
                            x       y       z     vdW  Elec       q    Type
                         _______ _______ _______ _____ _____    ______ ____

>  <TORSDO>
F 10

$$$$
=
 OpenBabel11042420573D

 46 51  0  0  1  0  0  0  0  0999 V2000
  160.1080  209.7500  155.4980 C   0  0  0  0  0  0  0  0  0  0  0  0
  158.7590  211.9680  153.1460 C   0  0  0  0  0  0  0  0  0  0  0  0
  157.8650  213.0550  152.9190 N   0  0  0  0  0  1  0  0  0  0  0  0
  161.4020  209.3070  152.7100 C   0  0  0  0  0  0  0  0  0  0  0  0
  159.3200  210.0380  156.6090 O   0  0  0  0  0  1  0  0  0  0  0  0
  161.2640  208.8760  155.7530 C   0  0  0  0  0  3  0  0  0  0  0  0
  161.5920  208.1060  153.4730 N   0  0  0  0  0  0  0  0  0  0  0  0
  161.9250  208.1450  154.8630 C   0  0  0  0  0  3  0  0  0  0  0  0
  158.8350  211.3070  154.3180 N   0  0  0  0  0  0  0  0  0  0  0  0
  159.8130  210.3560  154.3310 C   0  0  0  0  0  0  0  0  0  0  0  0
  160.5100  210.2390  153.0990 C   0  0  0  0  0  0  0  0  0  0  0  0
  159.9130  211.4420  152.0630 S   0  0  0  0  0  0  0  0  0  0  0  0
  160.4350  204.7600  153.2930 C   0  0  0  0  0  2  0  0  0  0  0  0
  161.2640  206.8140  152.8690 C   0  0  1  0  0  3  0  0  0  0  0  0
  161.2270  204.1460  152.1720 C   0  0  0  0  0  0  0  0  0  0  0  0
  161.2410  202.9360  152.0270 O   0  0  0  0  0  0  0  0  0  0  0  0
  162.3130  206.3830  151.8330 C   0  0  0  0  0  2  0  0  0  0  0  0
  161.1470  205.8300  153.8670 O   0  0  0  0  0  0  0  0  0  0  0  0
  161.9350  205.0450  151.1910 C   0  0  2  0  0  3  0  0  0  0  0  0
  161.0680  205.2970  149.9670 C   0  0  0  0  0  2  0  0  0  0  0  0
  161.9270  205.2260  148.7110 C   0  0  0  0  0  2  0  0  0  0  0  0
  160.9310  203.0140  148.5560 C   0  0  0  0  0  1  0  0  0  0  0  0
  162.7040  203.4860  146.9860 C   0  0  0  0  0  1  0  0  0  0  0  0
  161.5230  204.1240  147.7120 C   0  0  0  0  0  0  0  0  0  0  0  0
  160.4980  204.5340  146.8190 O   0  0  0  0  0  0  0  0  0  0  0  0
  162.3620  206.5080  146.1360 O   0  0  0  0  0  1  0  0  0  0  0  0
  159.9080  206.5280  145.2460 O   0  0  0  0  0  1  0  0  0  0  0  0
  161.4740  204.7610  144.1790 O   0  0  0  0  0  0  0  0  0  0  0  0
  161.0410  205.5950  145.5820 P   0  0  0  0  0  0  0  0  0  0  0  0
  162.3400  208.6140  149.2030 O   0  0  0  0  0  1  0  0  0  0  0  0
  162.1220  209.5130  151.3890 C   0  0  1  0  0  3  0  0  0  0  0  0
  161.4030  208.9330  150.1880 C   0  0  1  0  0  3  0  0  0  0  0  0
  161.3440  210.4330  150.4730 C   0  0  2  0  0  3  0  0  0  0  0  0
  162.3260  211.2650  149.6620 C   0  0  0  0  0  2  0  0  0  0  0  0
  161.6040  212.2190  148.7740 C   0  0  0  0  0  0  0  0  0  0  0  0
  160.3500  214.2520  148.4750 C   0  0  0  0  0  3  0  0  0  0  0  0
  161.0330  213.3710  149.3130 C   0  0  0  0  0  3  0  0  0  0  0  0
  160.8010  212.7900  146.6140 C   0  0  0  0  0  0  0  0  0  0  0  0
  161.4690  211.9550  147.4500 N   0  0  0  0  0  0  0  0  0  0  0  0
  160.2380  213.9690  147.1170 C   0  0  0  0  0  3  0  0  0  0  0  0
  160.7590  212.4690  145.1530 C   0  0  2  0  0  3  0  0  0  0  0  0
  161.1120  213.5470  143.0700 C   0  0  0  0  0  2  0  0  0  0  0  0
  161.7720  213.2900  144.3950 C   0  0  0  0  0  2  0  0  0  0  0  0
  158.9510  212.9230  142.3120 O   0  0  0  0  0  1  0  0  0  0  0  0
  159.4360  212.7110  144.5800 N   0  0  0  0  0  2  0  0  0  0  0  0
  159.6330  213.5050  143.3770 C   0  0  1  0  0  3  0  0  0  0  0  0
  1  6  1  0  0  0  0
  1  5  1  0  0  0  0
  2  9  2  0  0  0  0
  3  2  1  0  0  0  0
  4 11  2  0  0  0  0
  4  7  1  0  0  0  0
  7  8  1  0  0  0  0
  8  6  2  0  0  0  0
  9 10  1  0  0  0  0
 10  1  2  0  0  0  0
 11 10  1  0  0  0  0
 12 11  1  0  0  0  0
 12  2  1  0  0  0  0
 13 18  1  0  0  0  0
 14 17  1  6  0  0  0
 14  7  1  0  0  0  0
 14 18  1  0  0  0  0
 15 13  1  0  0  0  0
 16 15  2  0  0  0  0
 19 20  1  6  0  0  0
 19 17  1  0  0  0  0
 19 15  1  0  0  0  0
 21 20  1  0  0  0  0
 23 24  1  0  0  0  0
 24 22  1  0  0  0  0
 24 21  1  0  0  0  0
 25 24  1  0  0  0  0
 27 29  1  0  0  0  0
 28 29  2  0  0  0  0
 29 26  1  0  0  0  0
 29 25  1  0  0  0  0
 31  4  1  1  0  0  0
 32 30  1  6  0  0  0
 32 33  1  0  0  0  0
 32 31  1  0  0  0  0
 33 34  1  6  0  0  0
 33 31  1  0  0  0  0
 35 37  1  0  0  0  0
 35 34  1  0  0  0  0
 36 37  2  0  0  0  0
 38 40  2  0  0  0  0
 38 39  1  0  0  0  0
 39 35  2  0  0  0  0
 40 36  1  0  0  0  0
 41 38  1  1  0  0  0
 42 46  1  0  0  0  0
 42 43  1  0  0  0  0
 43 41  1  0  0  0  0
 45 41  1  0  0  0  0
 46 44  1  6  0  0  0
 46 45  1  0  0  0  0
M  END
>  <MODEL>
3

>  <REMARK>
 VINA RESULT:      -6.2      2.996      7.661
  Name = 
  10 active torsions:
  status: ('A' for Active; 'I' for Inactive)
    1  A    between atoms: C_6  and  C_15
    2  A    between atoms: C_6  and  C_44
    3  A    between atoms: C_8  and  C_17
    4  A    between atoms: C_10  and  N_31
    5  A    between atoms: C_12  and  C_32
    6  A    between atoms: C_13  and  C_14
    7  A    between atoms: C_15  and  C_46
    8  A    between atoms: C_17  and  C_23
    9  A    between atoms: P_35  and  O_43
   10  A    between atoms: O_43  and  C_44
                            x       y       z     vdW  Elec       q    Type
                         _______ _______ _______ _____ _____    ______ ____

>  <TORSDO>
F 10

$$$$
=
 OpenBabel11042420573D

 46 51  0  0  1  0  0  0  0  0999 V2000
  160.9380  207.5660  153.6700 C   0  0  0  0  0  0  0  0  0  0  0  0
  159.3620  210.6850  153.4160 C   0  0  0  0  0  0  0  0  0  0  0  0
  158.4430  211.6000  154.0090 N   0  0  0  0  0  1  0  0  0  0  0  0
  161.9700  209.1140  151.1830 C   0  0  0  0  0  0  0  0  0  0  0  0
  160.2540  207.0170  154.7510 O   0  0  0  0  0  1  0  0  0  0  0  0
  162.1180  206.8130  153.2190 C   0  0  0  0  0  3  0  0  0  0  0  0
  162.2380  207.7200  150.9700 N   0  0  0  0  0  0  0  0  0  0  0  0
  162.6980  206.8740  152.0270 C   0  0  0  0  0  3  0  0  0  0  0  0
  159.5510  209.4300  153.8710 N   0  0  0  0  0  0  0  0  0  0  0  0
  160.5320  208.7620  153.1990 C   0  0  0  0  0  0  0  0  0  0  0  0
  161.1120  209.5140  152.1430 C   0  0  0  0  0  0  0  0  0  0  0  0
  160.4140  211.0590  152.1770 S   0  0  0  0  0  0  0  0  0  0  0  0
  161.2580  207.5460  147.5680 C   0  0  0  0  0  2  0  0  0  0  0  0
  161.8640  207.1060  149.6960 C   0  0  1  0  0  3  0  0  0  0  0  0
  160.4800  206.2620  147.4640 C   0  0  0  0  0  0  0  0  0  0  0  0
  159.7960  206.0430  146.4800 O   0  0  0  0  0  0  0  0  0  0  0  0
  160.9720  205.8710  149.8940 C   0  0  0  0  0  2  0  0  0  0  0  0
  161.2040  208.0460  148.8830 O   0  0  0  0  0  0  0  0  0  0  0  0
  160.6180  205.2270  148.5500 C   0  0  2  0  0  3  0  0  0  0  0  0
  161.6780  204.2000  148.1860 C   0  0  0  0  0  2  0  0  0  0  0  0
  161.5480  202.9880  149.0990 C   0  0  0  0  0  2  0  0  0  0  0  0
  159.8590  201.3150  149.6110 C   0  0  0  0  0  1  0  0  0  0  0  0
  161.6330  200.6060  148.1340 C   0  0  0  0  0  1  0  0  0  0  0  0
  160.7620  201.8060  148.4980 C   0  0  0  0  0  0  0  0  0  0  0  0
  159.9060  202.1930  147.4330 O   0  0  0  0  0  0  0  0  0  0  0  0
  161.8080  202.8510  145.4880 O   0  0  0  0  0  1  0  0  0  0  0  0
  159.4110  202.0140  144.8800 O   0  0  0  0  0  0  0  0  0  0  0  0
  161.0370  200.2060  145.7760 O   0  0  0  0  0  1  0  0  0  0  0  0
  160.5220  201.8120  145.8760 P   0  0  0  0  0  0  0  0  0  0  0  0
  163.3560  210.5170  148.0580 O   0  0  0  0  0  1  0  0  0  0  0  0
  162.5630  210.1710  150.2680 C   0  0  1  0  0  3  0  0  0  0  0  0
  162.3280  209.9220  148.7920 C   0  0  1  0  0  3  0  0  0  0  0  0
  161.4820  210.9460  149.5460 C   0  0  2  0  0  3  0  0  0  0  0  0
  161.9410  212.3870  149.3760 C   0  0  0  0  0  2  0  0  0  0  0  0
  161.0460  213.1190  148.4360 C   0  0  0  0  0  0  0  0  0  0  0  0
  159.0230  214.3530  148.0130 C   0  0  0  0  0  3  0  0  0  0  0  0
  159.8580  213.6790  148.9030 C   0  0  0  0  0  3  0  0  0  0  0  0
  160.5660  213.8560  146.2300 C   0  0  0  0  0  0  0  0  0  0  0  0
  161.3650  213.2140  147.1200 N   0  0  0  0  0  0  0  0  0  0  0  0
  159.3790  214.4520  146.6700 C   0  0  0  0  0  3  0  0  0  0  0  0
  161.0210  213.9840  144.8110 C   0  0  2  0  0  3  0  0  0  0  0  0
  162.0570  212.6630  143.1350 C   0  0  0  0  0  2  0  0  0  0  0  0
  160.8950  212.6660  144.0880 C   0  0  0  0  0  2  0  0  0  0  0  0
  163.7780  214.2720  142.8450 O   0  0  0  0  0  1  0  0  0  0  0  0
  162.4070  214.4370  144.7210 N   0  0  0  0  0  2  0  0  0  0  0  0
  163.0920  213.5360  143.8070 C   0  0  1  0  0  3  0  0  0  0  0  0
  1  5  1  0  0  0  0
  2  9  2  0  0  0  0
  2  3  1  0  0  0  0
  4 11  2  0  0  0  0
  6  1  1  0  0  0  0
  7  4  1  0  0  0  0
  7  8  1  0  0  0  0
  8  6  2  0  0  0  0
 10  1  2  0  0  0  0
 10  9  1  0  0  0  0
 11 12  1  0  0  0  0
 11 10  1  0  0  0  0
 12  2  1  0  0  0  0
 13 18  1  0  0  0  0
 14 17  1  1  0  0  0
 14  7  1  0  0  0  0
 15 13  1  0  0  0  0
 15 19  1  0  0  0  0
 16 15  2  0  0  0  0
 18 14  1  0  0  0  0
 19 20  1  6  0  0  0
 19 17  1  0  0  0  0
 20 21  1  0  0  0  0
 23 24  1  0  0  0  0
 24 21  1  0  0  0  0
 24 22  1  0  0  0  0
 25 24  1  0  0  0  0
 26 29  1  0  0  0  0
 27 29  2  0  0  0  0
 28 29  1  0  0  0  0
 29 25  1  0  0  0  0
 31  4  1  1  0  0  0
 32 30  1  6  0  0  0
 32 33  1  0  0  0  0
 32 31  1  0  0  0  0
 33 34  1  6  0  0  0
 33 31  1  0  0  0  0
 35 37  1  0  0  0  0
 35 34  1  0  0  0  0
 36 37  2  0  0  0  0
 38 40  2  0  0  0  0
 38 39  1  0  0  0  0
 39 35  2  0  0  0  0
 40 36  1  0  0  0  0
 41 38  1  1  0  0  0
 42 46  1  0  0  0  0
 42 43  1  0  0  0  0
 43 41  1  0  0  0  0
 45 41  1  0  0  0  0
 46 44  1  6  0  0  0
 46 45  1  0  0  0  0
M  END
>  <MODEL>
4

>  <REMARK>
 VINA RESULT:      -4.3      3.299      8.557
  Name = 
  10 active torsions:
  status: ('A' for Active; 'I' for Inactive)
    1  A    between atoms: C_6  and  C_15
    2  A    between atoms: C_6  and  C_44
    3  A    between atoms: C_8  and  C_17
    4  A    between atoms: C_10  and  N_31
    5  A    between atoms: C_12  and  C_32
    6  A    between atoms: C_13  and  C_14
    7  A    between atoms: C_15  and  C_46
    8  A    between atoms: C_17  and  C_23
    9  A    between atoms: P_35  and  O_43
   10  A    between atoms: O_43  and  C_44
                            x       y       z     vdW  Elec       q    Type
                         _______ _______ _______ _____ _____    ______ ____

>  <TORSDO>
F 10

$$$$
=
 OpenBabel11042420573D

 46 51  0  0  1  0  0  0  0  0999 V2000
  159.7900  211.7800  154.3940 C   0  0  0  0  0  0  0  0  0  0  0  0
  162.7060  211.1910  156.2450 C   0  0  0  0  0  0  0  0  0  0  0  0
  163.5960  211.6860  157.2420 N   0  0  0  0  0  1  0  0  0  0  0  0
  160.9680  208.9870  153.7190 C   0  0  0  0  0  0  0  0  0  0  0  0
  159.5140  213.0950  154.7560 O   0  0  0  0  0  1  0  0  0  0  0  0
  158.7350  211.1000  153.6270 C   0  0  0  0  0  3  0  0  0  0  0  0
  160.1240  209.3780  152.6260 N   0  0  0  0  0  0  0  0  0  0  0  0
  158.8750  210.0390  152.8430 C   0  0  0  0  0  3  0  0  0  0  0  0
  161.6990  211.9220  155.7270 N   0  0  0  0  0  0  0  0  0  0  0  0
  160.9300  211.2190  154.8450 C   0  0  0  0  0  0  0  0  0  0  0  0
  161.3790  209.8890  154.6330 C   0  0  0  0  0  0  0  0  0  0  0  0
  162.6930  209.6250  155.6720 S   0  0  0  0  0  0  0  0  0  0  0  0
  161.0980  207.8060  149.6020 C   0  0  0  0  0  2  0  0  0  0  0  0
  160.6270  209.2650  151.2570 C   0  0  1  0  0  3  0  0  0  0  0  0
  162.1610  208.7070  149.0330 C   0  0  0  0  0  0  0  0  0  0  0  0
  162.8720  208.3130  148.1260 O   0  0  0  0  0  0  0  0  0  0  0  0
  161.7900  210.2330  150.9920 C   0  0  0  0  0  2  0  0  0  0  0  0
  161.0380  207.9440  151.0020 O   0  0  0  0  0  0  0  0  0  0  0  0
  162.2810  210.1190  149.5450 C   0  0  2  0  0  3  0  0  0  0  0  0
  161.4960  211.0810  148.6670 C   0  0  0  0  0  2  0  0  0  0  0  0
  161.4610  212.4560  149.3220 C   0  0  0  0  0  2  0  0  0  0  0  0
  160.0870  214.4290  149.6800 C   0  0  0  0  0  1  0  0  0  0  0  0
  159.3300  212.9130  147.9590 C   0  0  0  0  0  1  0  0  0  0  0  0
  160.5890  213.4980  148.5950 C   0  0  0  0  0  0  0  0  0  0  0  0
  161.3270  214.3030  147.6880 O   0  0  0  0  0  0  0  0  0  0  0  0
  163.3650  212.5620  146.8820 O   0  0  0  0  0  1  0  0  0  0  0  0
  162.4100  214.4230  145.3210 O   0  0  0  0  0  0  0  0  0  0  0  0
  160.8760  212.3670  145.6830 O   0  0  0  0  0  1  0  0  0  0  0  0
  161.9960  213.4270  146.3710 P   0  0  0  0  0  0  0  0  0  0  0  0
  161.0360  205.4370  154.7430 O   0  0  0  0  0  1  0  0  0  0  0  0
  161.5080  207.5710  153.8190 C   0  0  1  0  0  3  0  0  0  0  0  0
  160.4510  206.5170  154.0780 C   0  0  1  0  0  3  0  0  0  0  0  0
  161.0190  206.7120  152.6720 C   0  0  2  0  0  3  0  0  0  0  0  0
  162.1140  205.7250  152.2960 C   0  0  0  0  0  2  0  0  0  0  0  0
  161.5860  204.6720  151.3830 C   0  0  0  0  0  0  0  0  0  0  0  0
  160.6680  202.4730  151.0430 C   0  0  0  0  0  3  0  0  0  0  0  0
  161.1490  203.4560  151.9070 C   0  0  0  0  0  3  0  0  0  0  0  0
  161.1080  203.9330  149.1780 C   0  0  0  0  0  0  0  0  0  0  0  0
  161.5620  204.8760  150.0420 N   0  0  0  0  0  0  0  0  0  0  0  0
  160.6370  202.7110  149.6720 C   0  0  0  0  0  3  0  0  0  0  0  0
  161.0420  204.2600  147.7190 C   0  0  2  0  0  3  0  0  0  0  0  0
  162.0060  203.5390  145.6760 C   0  0  0  0  0  2  0  0  0  0  0  0
  161.2730  203.0260  146.8840 C   0  0  0  0  0  2  0  0  0  0  0  0
  162.7420  205.7390  145.1760 O   0  0  0  0  0  1  0  0  0  0  0  0
  162.0260  205.2730  147.3430 N   0  0  0  0  0  2  0  0  0  0  0  0
  162.7290  204.7690  146.1740 C   0  0  1  0  0  3  0  0  0  0  0  0
  1  5  1  0  0  0  0
  1 10  2  0  0  0  0
  2  3  1  0  0  0  0
  4 11  2  0  0  0  0
  6  1  1  0  0  0  0
  7  8  1  0  0  0  0
  7  4  1  0  0  0  0
  8  6  2  0  0  0  0
  9  2  2  0  0  0  0
 10  9  1  0  0  0  0
 11 10  1  0  0  0  0
 11 12  1  0  0  0  0
 12  2  1  0  0  0  0
 13 18  1  0  0  0  0
 14 17  1  1  0  0  0
 14  7  1  0  0  0  0
 15 19  1  0  0  0  0
 15 13  1  0  0  0  0
 16 15  2  0  0  0  0
 18 14  1  0  0  0  0
 19 20  1  6  0  0  0
 19 17  1  0  0  0  0
 20 21  1  0  0  0  0
 23 24  1  0  0  0  0
 24 21  1  0  0  0  0
 24 22  1  0  0  0  0
 25 24  1  0  0  0  0
 27 29  2  0  0  0  0
 28 29  1  0  0  0  0
 29 26  1  0  0  0  0
 29 25  1  0  0  0  0
 31  4  1  6  0  0  0
 31 32  1  0  0  0  0
 32 30  1  1  0  0  0
 33 34  1  1  0  0  0
 33 31  1  0  0  0  0
 33 32  1  0  0  0  0
 35 37  1  0  0  0  0
 35 34  1  0  0  0  0
 36 37  2  0  0  0  0
 38 40  2  0  0  0  0
 38 39  1  0  0  0  0
 39 35  2  0  0  0  0
 40 36  1  0  0  0  0
 41 38  1  1  0  0  0
 42 46  1  0  0  0  0
 42 43  1  0  0  0  0
 43 41  1  0  0  0  0
 45 41  1  0  0  0  0
 46 44  1  6  0  0  0
 46 45  1  0  0  0  0
M  END
>  <MODEL>
5

>  <REMARK>
 VINA RESULT:      -4.1      1.903      2.834
  Name = 
  10 active torsions:
  status: ('A' for Active; 'I' for Inactive)
    1  A    between atoms: C_6  and  C_15
    2  A    between atoms: C_6  and  C_44
    3  A    between atoms: C_8  and  C_17
    4  A    between atoms: C_10  and  N_31
    5  A    between atoms: C_12  and  C_32
    6  A    between atoms: C_13  and  C_14
    7  A    between atoms: C_15  and  C_46
    8  A    between atoms: C_17  and  C_23
    9  A    between atoms: P_35  and  O_43
   10  A    between atoms: O_43  and  C_44
                            x       y       z     vdW  Elec       q    Type
                         _______ _______ _______ _____ _____    ______ ____

>  <TORSDO>
F 10

$$$$
=
 OpenBabel11042420573D

 46 51  0  0  1  0  0  0  0  0999 V2000
  161.1500  207.2690  153.2950 C   0  0  0  0  0  0  0  0  0  0  0  0
  159.5400  210.3800  153.3260 C   0  0  0  0  0  0  0  0  0  0  0  0
  158.6290  211.2360  154.0120 N   0  0  0  0  0  1  0  0  0  0  0  0
  162.1020  209.0170  150.9110 C   0  0  0  0  0  0  0  0  0  0  0  0
  160.5010  206.6300  154.3470 O   0  0  0  0  0  1  0  0  0  0  0  0
  162.3250  206.5660  152.7560 C   0  0  0  0  0  3  0  0  0  0  0  0
  162.3770  207.6470  150.5820 N   0  0  0  0  0  0  0  0  0  0  0  0
  162.8720  206.7270  151.5570 C   0  0  0  0  0  3  0  0  0  0  0  0
  159.7520  209.0960  153.6760 N   0  0  0  0  0  0  0  0  0  0  0  0
  160.7210  208.4930  152.9290 C   0  0  0  0  0  0  0  0  0  0  0  0
  161.2660  209.3320  151.9200 C   0  0  0  0  0  0  0  0  0  0  0  0
  160.5550  210.8620  152.0940 S   0  0  0  0  0  0  0  0  0  0  0  0
  161.1930  207.7200  147.2420 C   0  0  0  0  0  2  0  0  0  0  0  0
  161.9740  207.1310  149.2740 C   0  0  1  0  0  3  0  0  0  0  0  0
  160.5240  206.3860  147.0480 C   0  0  0  0  0  0  0  0  0  0  0  0
  159.7990  206.2020  146.0870 O   0  0  0  0  0  0  0  0  0  0  0  0
  161.2090  205.8040  149.3920 C   0  0  0  0  0  2  0  0  0  0  0  0
  161.1820  208.0800  148.6030 O   0  0  0  0  0  0  0  0  0  0  0  0
  160.8240  205.2660  148.0100 C   0  0  2  0  0  3  0  0  0  0  0  0
  161.9450  204.3840  147.4800 C   0  0  0  0  0  2  0  0  0  0  0  0
  161.3810  203.0220  147.0960 C   0  0  0  0  0  2  0  0  0  0  0  0
  161.5720  200.6980  147.7850 C   0  0  0  0  0  1  0  0  0  0  0  0
  159.6690  201.9030  148.6530 C   0  0  0  0  0  1  0  0  0  0  0  0
  161.1400  202.0640  148.2790 C   0  0  0  0  0  0  0  0  0  0  0  0
  161.9540  202.3560  149.4040 O   0  0  0  0  0  0  0  0  0  0  0  0
  160.1840  203.5660  151.2040 O   0  0  0  0  0  1  0  0  0  0  0  0
  162.1860  202.0840  151.9860 O   0  0  0  0  0  1  0  0  0  0  0  0
  160.1780  200.8070  150.9600 O   0  0  0  0  0  0  0  0  0  0  0  0
  161.1410  202.1940  150.9080 P   0  0  0  0  0  0  0  0  0  0  0  0
  163.5200  210.6400  147.9090 O   0  0  0  0  0  1  0  0  0  0  0  0
  162.6610  210.1480  150.0660 C   0  0  1  0  0  3  0  0  0  0  0  0
  162.5040  209.9480  148.5720 C   0  0  1  0  0  3  0  0  0  0  0  0
  161.5610  210.8820  149.3280 C   0  0  2  0  0  3  0  0  0  0  0  0
  161.9290  212.3560  149.2360 C   0  0  0  0  0  2  0  0  0  0  0  0
  160.9350  213.0990  148.4110 C   0  0  0  0  0  0  0  0  0  0  0  0
  158.9360  214.4290  148.2470 C   0  0  0  0  0  3  0  0  0  0  0  0
  159.8660  213.7460  149.0290 C   0  0  0  0  0  3  0  0  0  0  0  0
  160.1500  213.7700  146.2730 C   0  0  0  0  0  0  0  0  0  0  0  0
  161.0470  213.1210  147.0590 N   0  0  0  0  0  0  0  0  0  0  0  0
  159.0790  214.4510  146.8620 C   0  0  0  0  0  3  0  0  0  0  0  0
  160.3810  213.8120  144.7950 C   0  0  2  0  0  3  0  0  0  0  0  0
  159.1850  213.4290  142.7830 C   0  0  0  0  0  2  0  0  0  0  0  0
  159.1200  214.2060  144.0680 C   0  0  0  0  0  2  0  0  0  0  0  0
  160.8080  211.8630  142.0450 O   0  0  0  0  0  1  0  0  0  0  0  0
  160.8380  212.5240  144.2780 N   0  0  0  0  0  2  0  0  0  0  0  0
  160.0050  212.2080  143.1280 C   0  0  1  0  0  3  0  0  0  0  0  0
  1  5  1  0  0  0  0
  2  9  2  0  0  0  0
  2  3  1  0  0  0  0
  4 11  2  0  0  0  0
  6  1  1  0  0  0  0
  7  4  1  0  0  0  0
  7  8  1  0  0  0  0
  8  6  2  0  0  0  0
 10  1  2  0  0  0  0
 10  9  1  0  0  0  0
 11 12  1  0  0  0  0
 11 10  1  0  0  0  0
 12  2  1  0  0  0  0
 13 18  1  0  0  0  0
 14 17  1  1  0  0  0
 14  7  1  0  0  0  0
 15 13  1  0  0  0  0
 15 19  1  0  0  0  0
 16 15  2  0  0  0  0
 18 14  1  0  0  0  0
 19 20  1  6  0  0  0
 19 17  1  0  0  0  0
 21 20  1  0  0  0  0
 21 24  1  0  0  0  0
 22 24  1  0  0  0  0
 24 23  1  0  0  0  0
 24 25  1  0  0  0  0
 25 29  1  0  0  0  0
 29 28  2  0  0  0  0
 29 26  1  0  0  0  0
 29 27  1  0  0  0  0
 31  4  1  1  0  0  0
 32 30  1  6  0  0  0
 32 33  1  0  0  0  0
 32 31  1  0  0  0  0
 33 34  1  6  0  0  0
 33 31  1  0  0  0  0
 35 37  1  0  0  0  0
 35 34  1  0  0  0  0
 36 37  2  0  0  0  0
 38 40  2  0  0  0  0
 38 39  1  0  0  0  0
 39 35  2  0  0  0  0
 40 36  1  0  0  0  0
 41 38  1  1  0  0  0
 42 46  1  0  0  0  0
 42 43  1  0  0  0  0
 43 41  1  0  0  0  0
 45 41  1  0  0  0  0
 46 44  1  6  0  0  0
 46 45  1  0  0  0  0
M  END
>  <MODEL>
6

>  <REMARK>
 VINA RESULT:      -3.6      3.479      8.736
  Name = 
  10 active torsions:
  status: ('A' for Active; 'I' for Inactive)
    1  A    between atoms: C_6  and  C_15
    2  A    between atoms: C_6  and  C_44
    3  A    between atoms: C_8  and  C_17
    4  A    between atoms: C_10  and  N_31
    5  A    between atoms: C_12  and  C_32
    6  A    between atoms: C_13  and  C_14
    7  A    between atoms: C_15  and  C_46
    8  A    between atoms: C_17  and  C_23
    9  A    between atoms: P_35  and  O_43
   10  A    between atoms: O_43  and  C_44
                            x       y       z     vdW  Elec       q    Type
                         _______ _______ _______ _____ _____    ______ ____

>  <TORSDO>
F 10

$$$$
