=
 OpenBabel11052411343D

 66 77  0  0  1  0  0  0  0  0999 V2000
  160.7780  211.9850  144.8860 C   0  0  0  0  0  2  0  0  0  0  0  0
  159.9590  214.0800  150.1940 N   0  0  0  0  0  0  0  0  0  0  0  0
  160.4090  214.3850  145.2330 C   0  0  0  0  0  2  0  0  0  0  0  0
  155.6900  213.9130  150.0090 C   0  0  0  0  0  3  0  0  0  0  0  0
  157.9230  213.8480  146.3980 C   0  0  0  0  0  2  0  0  0  0  0  0
  160.7500  213.7890  148.9980 C   0  0  2  0  0  3  0  0  0  0  0  0
  160.0140  212.3190  143.6670 N   0  0  0  0  0  0  0  0  0  0  0  0
  158.6670  214.0250  147.6970 C   0  0  2  0  0  3  0  0  0  0  0  0
  156.4330  213.7040  148.9230 C   0  0  0  0  0  3  0  0  0  0  0  0
  160.0190  214.1590  147.7350 C   0  0  2  0  0  3  0  0  0  0  0  0
  158.4850  212.6380  145.6450 C   0  0  0  0  0  2  0  0  0  0  0  0
  158.5240  213.9980  150.1640 C   0  0  0  0  0  0  0  0  0  0  0  0
  159.7740  213.0270  144.9410 C   0  0  1  0  0  0  0  0  0  0  0  0
  157.9000  213.8890  148.9680 C   0  0  0  0  0  0  0  0  0  0  0  0
  156.3230  214.4440  151.2630 C   0  0  2  0  0  3  0  0  0  0  0  0
  160.6650  214.2230  151.4560 C   0  0  0  0  0  1  0  0  0  0  0  0
  160.8150  214.4510  146.6030 O   0  0  0  0  0  0  0  0  0  0  0  0
  157.7340  213.8770  151.4450 C   0  0  0  0  0  2  0  0  0  0  0  0
  163.1820  209.4680  148.0580 C   0  0  0  0  0  3  0  0  0  0  0  0
  162.2620  210.4470  148.4010 C   0  0  0  0  0  0  0  0  0  0  0  0
  162.7800  208.3550  148.8160 C   0  0  0  0  0  3  0  0  0  0  0  0
  160.3980  211.1230  149.9530 S   0  0  0  0  0  0  0  0  0  0  0  0
  162.1030  211.7870  148.1250 C   0  0  0  0  0  3  0  0  0  0  0  0
  161.4190  209.9550  149.3080 C   0  0  0  0  0  0  0  0  0  0  0  0
  161.0660  212.3220  148.9200 C   0  0  0  0  0  0  0  0  0  0  0  0
  161.7010  208.6790  149.5830 N   0  0  0  0  0  0  0  0  0  0  0  0
  160.8730  206.4230  149.9550 C   0  0  0  0  0  0  0  0  0  0  0  0
  161.2650  205.3350  150.9070 C   0  0  0  0  0  2  0  0  0  0  0  0
  160.5000  206.1270  148.7160 C   0  0  0  0  0  2  0  0  0  0  0  0
  162.1190  207.2510  152.4770 C   0  0  1  0  0  3  0  0  0  0  0  0
  162.3300  205.8330  151.8940 C   0  0  1  0  0  3  0  0  0  0  0  0
  160.9470  208.0020  151.8260 C   0  0  0  0  0  2  0  0  0  0  0  0
  160.9650  207.7900  150.3820 N   0  0  0  0  0  0  0  0  0  0  0  0
  161.6510  206.0210  153.2390 C   0  0  0  0  0  2  0  0  0  0  0  0
  154.2830  213.8840  152.3160 O   0  0  0  0  0  0  0  0  0  0  0  0
  155.4540  214.2020  152.4520 C   0  0  0  0  0  0  0  0  0  0  0  0
  156.0260  214.4000  153.8160 C   0  0  0  0  0  2  0  0  0  0  0  0
  155.9680  213.1080  154.6080 C   0  0  0  0  0  2  0  0  0  0  0  0
  158.0120  211.7630  155.1980 C   0  0  1  0  0  3  0  0  0  0  0  0
  157.1690  213.0000  155.5300 C   0  0  1  0  0  3  0  0  0  0  0  0
  159.2590  214.1940  155.9930 C   0  0  0  0  0  3  0  0  0  0  0  0
  159.2690  211.7840  155.9650 N   0  0  0  0  0  0  0  0  0  0  0  0
  161.0520  210.6210  156.9380 O   0  0  0  0  0  0  0  0  0  0  0  0
  159.8820  213.0480  156.2730 C   0  0  0  0  0  3  0  0  0  0  0  0
  157.2740  210.6020  155.4750 O   0  0  0  0  0  1  0  0  0  0  0  0
  157.9720  214.1740  155.4540 O   0  0  0  0  0  0  0  0  0  0  0  0
  160.0390  210.5880  156.1840 C   0  0  0  0  0  0  0  0  0  0  0  0
  159.6720  209.3950  155.5520 O   0  0  0  0  0  0  0  0  0  0  0  0
  160.1150  208.1340  156.0140 C   0  0  0  0  0  1  0  0  0  0  0  0
  160.8300  213.1210  142.8390 N   0  0  0  0  0  2  0  0  0  0  0  0
  163.0860  214.3980  140.9110 O   0  0  0  0  0  0  0  0  0  0  0  0
  160.9780  212.0500  139.4240 N   0  0  0  0  0  0  0  0  0  0  0  0
  159.9800  213.7490  141.8350 C   0  0  1  0  0  3  0  0  0  0  0  0
  162.3260  212.3780  139.8810 C   0  0  2  0  0  3  0  0  0  0  0  0
  160.7310  214.1590  140.5520 C   0  0  1  0  0  3  0  0  0  0  0  0
  159.2570  212.6530  141.0580 C   0  0  1  0  0  3  0  0  0  0  0  0
  162.1630  213.7290  140.4730 C   0  0  0  0  0  0  0  0  0  0  0  0
  164.6980  212.8570  138.9090 C   0  0  0  0  0  1  0  0  0  0  0  0
  163.0880  211.4810  137.7140 C   0  0  0  0  0  3  0  0  0  0  0  0
  163.3330  212.2830  138.7560 C   0  0  0  0  0  0  0  0  0  0  0  0
  157.9030  212.9750  140.9440 O   0  0  0  0  0  1  0  0  0  0  0  0
  160.7660  211.1030  138.3650 C   0  0  0  0  0  0  0  0  0  0  0  0
  159.9840  213.0600  139.7890 C   0  0  2  0  0  3  0  0  0  0  0  0
  161.7810  210.8240  137.5370 C   0  0  0  0  0  3  0  0  0  0  0  0
  159.0930  209.7040  139.2710 O   0  0  0  0  0  1  0  0  0  0  0  0
  159.4290  210.4680  138.1550 C   0  0  0  0  0  2  0  0  0  0  0  0
  2 16  1  0  0  0  0
  3 17  1  0  0  0  0
  4 15  1  0  0  0  0
  6 25  1  6  0  0  0
  6  2  1  0  0  0  0
  7  1  1  0  0  0  0
  7 13  1  0  0  0  0
  8  5  1  6  0  0  0
  8 10  1  0  0  0  0
  8 14  1  0  0  0  0
  9 14  1  0  0  0  0
  9  4  2  0  0  0  0
 10 17  1  6  0  0  0
 10  6  1  0  0  0  0
 11  5  1  0  0  0  0
 12  2  1  0  0  0  0
 12 18  1  0  0  0  0
 13  1  1  1  0  0  0
 13  3  1  0  0  0  0
 13 11  1  0  0  0  0
 14 12  2  0  0  0  0
 15 18  1  0  0  0  0
 15 36  1  1  0  0  0
 19 20  1  0  0  0  0
 19 21  2  0  0  0  0
 20 24  2  0  0  0  0
 21 26  1  0  0  0  0
 23 20  1  0  0  0  0
 23 25  2  0  0  0  0
 24 26  1  0  0  0  0
 24 22  1  0  0  0  0
 25 22  1  0  0  0  0
 26 33  1  0  0  0  0
 27 33  1  0  0  0  0
 27 28  1  0  0  0  0
 29 27  2  0  0  0  0
 30 32  1  6  0  0  0
 30 34  1  0  0  0  0
 31 28  1  6  0  0  0
 31 30  1  0  0  0  0
 31 34  1  0  0  0  0
 33 32  1  0  0  0  0
 35 36  2  0  0  0  0
 36 37  1  0  0  0  0
 37 38  1  0  0  0  0
 39 45  1  1  0  0  0
 39 40  1  0  0  0  0
 39 42  1  0  0  0  0
 40 38  1  6  0  0  0
 41 44  2  0  0  0  0
 42 47  1  0  0  0  0
 42 44  1  0  0  0  0
 46 40  1  0  0  0  0
 46 41  1  0  0  0  0
 47 43  2  0  0  0  0
 48 49  1  0  0  0  0
 48 47  1  0  0  0  0
 50  7  1  0  0  0  0
 52 54  1  0  0  0  0
 53 50  1  1  0  0  0
 54 60  1  6  0  0  0
 54 57  1  0  0  0  0
 55 57  1  1  0  0  0
 55 53  1  0  0  0  0
 56 61  1  6  0  0  0
 56 53  1  0  0  0  0
 57 51  2  0  0  0  0
 59 60  2  0  0  0  0
 60 58  1  0  0  0  0
 62 52  1  0  0  0  0
 63 52  1  1  0  0  0
 63 55  1  0  0  0  0
 63 56  1  0  0  0  0
 64 59  1  0  0  0  0
 64 62  2  0  0  0  0
 66 62  1  0  0  0  0
 66 65  1  0  0  0  0
M  END
>  <MODEL>
1

>  <REMARK>
 VINA RESULT:      -4.2      0.000      0.000
  Name = 
  10 active torsions:
  status: ('A' for Active; 'I' for Inactive)
    1  A    between atoms: C_6  and  C_30
    2  A    between atoms: C_6  and  C_51
    3  A    between atoms: O_13  and  C_65
    4  A    between atoms: C_15  and  C_54
    5  A    between atoms: C_17  and  N_60
    6  A    between atoms: N_21  and  N_60
    7  A    between atoms: C_27  and  C_51
    8  A    between atoms: C_30  and  C_56
    9  A    between atoms: N_39  and  N_62
   10  A    between atoms: C_53  and  C_55
                            x       y       z     vdW  Elec       q    Type
                         _______ _______ _______ _____ _____    ______ ____

>  <TORSDO>
F 10

$$$$
