=
 OpenBabel11042421193D

 39 43  0  0  1  0  0  0  0  0999 V2000
  161.7090  206.2230  148.1000 C   0  0  0  0  0  0  0  0  0  0  0  0
  162.4070  205.7800  146.9300 N   0  0  0  0  0  0  0  0  0  0  0  0
  162.4240  204.6360  146.3140 C   0  0  0  0  0  3  0  0  0  0  0  0
  160.7800  201.7640  148.1350 C   0  0  2  0  0  3  0  0  0  0  0  0
  161.5730  208.1850  149.6450 C   0  0  0  0  0  0  0  0  0  0  0  0
  161.4330  203.1740  150.1770 C   0  0  2  0  0  3  0  0  0  0  0  0
  159.2720  201.6870  147.9920 C   0  0  0  0  0  1  0  0  0  0  0  0
  161.7190  203.4580  146.7120 N   0  0  0  0  0  0  0  0  0  0  0  0
  160.4980  206.0590  150.2270 C   0  0  0  0  0  2  0  0  0  0  0  0
  161.5120  207.7140  148.2170 C   0  0  0  0  0  2  0  0  0  0  0  0
  161.2550  201.4080  149.8540 S   0  0  0  0  0  0  0  0  0  0  0  0
  161.2440  203.1500  147.8760 C   0  0  0  0  0  0  0  0  0  0  0  0
  161.2740  205.4200  149.0960 C   0  0  1  0  0  3  0  0  0  0  0  0
  161.0780  207.3940  150.6230 C   0  0  0  0  0  0  0  0  0  0  0  0
  161.4110  203.9440  149.0820 C   0  0  0  0  0  0  0  0  0  0  0  0
  160.6340  208.8560  153.9450 C   0  0  0  0  0  3  0  0  0  0  0  0
  161.0720  207.7660  152.0160 N   0  0  0  0  0  0  0  0  0  0  0  0
  160.6080  208.9930  152.4930 N   0  0  0  0  0  0  0  0  0  0  0  0
  161.2030  207.5570  154.3140 N   0  0  0  0  0  0  0  0  0  0  0  0
  161.4140  206.8440  153.0680 C   0  0  0  0  0  3  0  0  0  0  0  0
  161.6010  203.7200  151.5700 C   0  0  0  0  0  2  0  0  0  0  0  0
  160.5360  203.2390  152.5400 C   0  0  0  0  0  1  0  0  0  0  0  0
  162.1860  209.5260  149.9010 C   0  0  0  0  0  2  0  0  0  0  0  0
  161.9340  210.4740  148.7380 C   0  0  0  0  0  2  0  0  0  0  0  0
  161.8090  211.7850  149.2050 O   0  0  0  0  0  0  0  0  0  0  0  0
  160.6400  211.8770  147.1310 C   0  0  0  0  0  2  0  0  0  0  0  0
  160.3960  212.7530  145.9050 C   0  0  0  0  0  2  0  0  0  0  0  0
  162.9560  212.6760  147.3120 C   0  0  0  0  0  2  0  0  0  0  0  0
  161.6490  213.9780  144.0620 N   0  0  0  0  0  2  0  0  0  0  0  0
  161.6320  212.5580  148.0570 C   0  0  2  0  0  3  0  0  0  0  0  0
  161.6730  213.3210  145.3280 C   0  0  0  0  0  0  0  0  0  0  0  0
  162.7790  213.3320  146.0150 N   0  0  0  0  0  0  0  0  0  0  0  0
  160.2060  214.0540  143.0410 S   0  0  0  0  0  0  0  0  0  0  0  0
  160.2710  211.4340  142.6700 O   0  0  0  0  0  0  0  0  0  0  0  0
  161.4030  212.6010  140.9900 N   0  0  0  0  0  2  0  0  0  0  0  0
  160.6390  212.5420  142.1950 C   0  0  0  0  0  0  0  0  0  0  0  0
  160.7060  211.0880  139.2160 C   0  0  0  0  0  1  0  0  0  0  0  0
  163.0880  211.6650  139.5210 C   0  0  0  0  0  1  0  0  0  0  0  0
  161.7790  211.4130  140.2380 C   0  0  0  0  0  3  0  0  0  0  0  0
  1 10  1  0  0  0  0
  1 13  1  0  0  0  0
  2  1  2  0  0  0  0
  3  8  2  0  0  0  0
  3  2  1  0  0  0  0
  4  7  1  1  0  0  0
  4 11  1  0  0  0  0
  5 23  1  0  0  0  0
  5 14  2  0  0  0  0
  6 21  1  6  0  0  0
  8 12  1  0  0  0  0
  9 14  1  0  0  0  0
 10  5  1  0  0  0  0
 11  6  1  0  0  0  0
 12  4  1  0  0  0  0
 12 15  2  0  0  0  0
 13  9  1  6  0  0  0
 14 17  1  0  0  0  0
 15 13  1  0  0  0  0
 15  6  1  0  0  0  0
 16 19  1  0  0  0  0
 17 18  1  0  0  0  0
 17 20  1  0  0  0  0
 18 16  2  0  0  0  0
 20 19  2  0  0  0  0
 21 22  1  0  0  0  0
 24 25  1  0  0  0  0
 24 23  1  0  0  0  0
 26 30  1  0  0  0  0
 27 26  1  0  0  0  0
 28 30  1  0  0  0  0
 29 31  1  0  0  0  0
 30 25  1  1  0  0  0
 31 27  1  0  0  0  0
 31 32  2  0  0  0  0
 32 28  1  0  0  0  0
 33 29  1  0  0  0  0
 35 36  1  0  0  0  0
 36 34  2  0  0  0  0
 36 33  1  0  0  0  0
 37 39  1  0  0  0  0
 38 39  1  0  0  0  0
 39 35  1  0  0  0  0
M  END
>  <MODEL>
1

>  <REMARK>
 VINA RESULT:      -8.0      0.000      0.000
  Name = 
  9 active torsions:
  status: ('A' for Active; 'I' for Inactive)
    1  A    between atoms: C_2  and  C_15
    2  A    between atoms: C_2  and  O_35
    3  A    between atoms: C_9  and  C_20
    4  A    between atoms: N_11  and  C_34
    5  A    between atoms: C_15  and  C_17
    6  A    between atoms: C_19  and  N_32
    7  A    between atoms: N_29  and  S_38
    8  A    between atoms: C_30  and  O_35
    9  A    between atoms: S_38  and  C_39
                            x       y       z     vdW  Elec       q    Type
                         _______ _______ _______ _____ _____    ______ ____

>  <TORSDO>
F 9

$$$$
=
 OpenBabel11042421193D

 39 43  0  0  1  0  0  0  0  0999 V2000
  161.1520  204.5030  151.0140 C   0  0  0  0  0  0  0  0  0  0  0  0
  160.5680  203.2310  150.7060 N   0  0  0  0  0  2  0  0  0  0  0  0
  160.5840  202.5110  149.6250 C   0  0  0  0  0  3  0  0  0  0  0  0
  161.9460  204.2090  146.5390 C   0  0  2  0  0  3  0  0  0  0  0  0
  161.1790  206.2330  152.8200 C   0  0  0  0  0  0  0  0  0  0  0  0
  161.1230  206.2980  147.7790 C   0  0  2  0  0  3  0  0  0  0  0  0
  163.4590  204.2130  146.4180 C   0  0  0  0  0  1  0  0  0  0  0  0
  161.2100  202.8650  148.3890 N   0  0  0  0  0  0  0  0  0  0  0  0
  162.1270  206.7170  150.6100 C   0  0  0  0  0  2  0  0  0  0  0  0
  161.3770  204.7810  152.4790 C   0  0  0  0  0  2  0  0  0  0  0  0
  161.2840  205.8290  146.0440 S   0  0  0  0  0  0  0  0  0  0  0  0
  161.5510  204.0360  147.9580 C   0  0  0  0  0  0  0  0  0  0  0  0
  161.4570  205.4570  150.1070 C   0  0  0  0  0  0  0  0  0  0  0  0
  161.5460  207.1770  151.9240 C   0  0  0  0  0  0  0  0  0  0  0  0
  161.2810  205.2890  148.6440 C   0  0  0  0  0  0  0  0  0  0  0  0
  161.8490  210.8080  152.2310 C   0  0  0  0  0  3  0  0  0  0  0  0
  161.4170  208.5920  152.1670 N   0  0  0  0  0  0  0  0  0  0  0  0
  162.4740  209.4990  152.0750 N   0  0  0  0  0  0  0  0  0  0  0  0
  160.4180  210.6490  152.5020 N   0  0  0  0  0  0  0  0  0  0  0  0
  160.1450  209.2290  152.3890 C   0  0  0  0  0  3  0  0  0  0  0  0
  160.8240  207.7120  148.2010 C   0  0  0  0  0  2  0  0  0  0  0  0
  162.0560  208.5990  148.2570 C   0  0  0  0  0  1  0  0  0  0  0  0
  160.5800  206.5510  154.1530 C   0  0  0  0  0  2  0  0  0  0  0  0
  161.5500  207.3460  155.0140 C   0  0  0  0  0  2  0  0  0  0  0  0
  161.0640  207.4460  156.3200 O   0  0  0  0  0  0  0  0  0  0  0  0
  159.4320  209.1360  155.9220 C   0  0  0  0  0  2  0  0  0  0  0  0
  159.1110  210.6060  156.1750 C   0  0  0  0  0  2  0  0  0  0  0  0
  161.8320  209.6310  155.7480 C   0  0  0  0  0  2  0  0  0  0  0  0
  160.0850  212.9340  155.8540 N   0  0  0  0  0  2  0  0  0  0  0  0
  160.7970  208.8040  156.4990 C   0  0  2  0  0  3  0  0  0  0  0  0
  160.2790  211.5200  155.8810 C   0  0  0  0  0  0  0  0  0  0  0  0
  161.4900  211.0550  155.7660 N   0  0  0  0  0  0  0  0  0  0  0  0
  158.4960  213.6940  156.0200 S   0  0  0  0  0  0  0  0  0  0  0  0
  157.0730  212.5640  154.0950 O   0  0  0  0  0  0  0  0  0  0  0  0
  158.8350  213.8550  153.2610 N   0  0  0  0  0  2  0  0  0  0  0  0
  158.0590  213.3130  154.3300 C   0  0  0  0  0  0  0  0  0  0  0  0
  157.3520  214.4530  151.4270 C   0  0  0  0  0  1  0  0  0  0  0  0
  159.7340  213.9490  151.0130 C   0  0  0  0  0  1  0  0  0  0  0  0
  158.5290  213.6010  151.8610 C   0  0  0  0  0  3  0  0  0  0  0  0
  1 10  1  0  0  0  0
  2  1  1  0  0  0  0
  3  2  1  0  0  0  0
  4  7  1  1  0  0  0
  4 12  1  0  0  0  0
  5 23  1  0  0  0  0
  6 21  1  6  0  0  0
  6 15  1  0  0  0  0
  8  3  2  0  0  0  0
  9 14  1  0  0  0  0
 10  5  1  0  0  0  0
 11  4  1  0  0  0  0
 11  6  1  0  0  0  0
 12  8  1  0  0  0  0
 12 15  2  0  0  0  0
 13  9  1  0  0  0  0
 13  1  2  0  0  0  0
 14 17  1  0  0  0  0
 14  5  2  0  0  0  0
 15 13  1  0  0  0  0
 16 19  1  0  0  0  0
 17 20  1  0  0  0  0
 18 17  1  0  0  0  0
 18 16  2  0  0  0  0
 20 19  2  0  0  0  0
 21 22  1  0  0  0  0
 23 24  1  0  0  0  0
 24 25  1  0  0  0  0
 26 27  1  0  0  0  0
 26 30  1  0  0  0  0
 28 32  1  0  0  0  0
 28 30  1  0  0  0  0
 29 31  1  0  0  0  0
 29 33  1  0  0  0  0
 30 25  1  6  0  0  0
 31 27  1  0  0  0  0
 32 31  2  0  0  0  0
 34 36  2  0  0  0  0
 35 36  1  0  0  0  0
 36 33  1  0  0  0  0
 37 39  1  0  0  0  0
 38 39  1  0  0  0  0
 39 35  1  0  0  0  0
M  END
>  <MODEL>
2

>  <REMARK>
 VINA RESULT:      -7.0      5.145      7.644
  Name = 
  9 active torsions:
  status: ('A' for Active; 'I' for Inactive)
    1  A    between atoms: C_2  and  C_15
    2  A    between atoms: C_2  and  O_35
    3  A    between atoms: C_9  and  C_20
    4  A    between atoms: N_11  and  C_34
    5  A    between atoms: C_15  and  C_17
    6  A    between atoms: C_19  and  N_32
    7  A    between atoms: N_29  and  S_38
    8  A    between atoms: C_30  and  O_35
    9  A    between atoms: S_38  and  C_39
                            x       y       z     vdW  Elec       q    Type
                         _______ _______ _______ _____ _____    ______ ____

>  <TORSDO>
F 9

$$$$
=
 OpenBabel11042421193D

 39 43  0  0  1  0  0  0  0  0999 V2000
  160.9060  208.0840  154.8250 C   0  0  0  0  0  0  0  0  0  0  0  0
  161.2130  208.0730  156.2240 N   0  0  0  0  0  2  0  0  0  0  0  0
  160.7670  208.7870  157.2140 C   0  0  0  0  0  3  0  0  0  0  0  0
  158.6700  211.7820  156.2650 C   0  0  2  0  0  3  0  0  0  0  0  0
  161.6600  207.0610  152.6710 C   0  0  0  0  0  0  0  0  0  0  0  0
  160.0790  211.6220  154.1270 C   0  0  2  0  0  3  0  0  0  0  0  0
  157.2110  211.4830  155.9740 C   0  0  0  0  0  1  0  0  0  0  0  0
  159.8160  209.8500  157.1200 N   0  0  0  0  0  0  0  0  0  0  0  0
  160.1040  208.9570  152.6780 C   0  0  0  0  0  2  0  0  0  0  0  0
  161.2030  206.8060  154.0810 C   0  0  0  0  0  2  0  0  0  0  0  0
  159.3100  212.9700  155.0460 S   0  0  0  0  0  0  0  0  0  0  0  0
  159.4840  210.5540  156.0860 C   0  0  0  0  0  0  0  0  0  0  0  0
  160.4300  209.1490  154.1430 C   0  0  0  0  0  0  0  0  0  0  0  0
  161.1280  208.0960  151.9820 C   0  0  0  0  0  0  0  0  0  0  0  0
  160.1000  210.4500  154.7730 C   0  0  0  0  0  0  0  0  0  0  0  0
  161.5840  208.3720  148.3640 C   0  0  0  0  0  3  0  0  0  0  0  0
  161.4860  208.4080  150.6200 N   0  0  0  0  0  0  0  0  0  0  0  0
  161.1970  207.5850  149.5300 N   0  0  0  0  0  0  0  0  0  0  0  0
  162.1860  209.6370  148.7930 N   0  0  0  0  0  0  0  0  0  0  0  0
  162.0520  209.6740  150.2370 C   0  0  0  0  0  3  0  0  0  0  0  0
  160.6530  211.8180  152.7490 C   0  0  0  0  0  2  0  0  0  0  0  0
  159.7470  212.6120  151.8240 C   0  0  0  0  0  1  0  0  0  0  0  0
  162.6920  206.1380  152.1050 C   0  0  0  0  0  2  0  0  0  0  0  0
  162.1820  204.7050  152.0650 C   0  0  0  0  0  2  0  0  0  0  0  0
  160.9340  204.6560  151.4400 O   0  0  0  0  0  0  0  0  0  0  0  0
  161.3220  204.1880  149.1360 C   0  0  0  0  0  2  0  0  0  0  0  0
  161.5000  203.0490  148.1360 C   0  0  0  0  0  2  0  0  0  0  0  0
  159.7150  202.8640  150.4420 C   0  0  0  0  0  2  0  0  0  0  0  0
  160.3430  200.9460  147.2950 N   0  0  0  0  0  2  0  0  0  0  0  0
  161.0370  203.6170  150.5150 C   0  0  2  0  0  3  0  0  0  0  0  0
  160.4540  201.9690  148.2850 C   0  0  0  0  0  0  0  0  0  0  0  0
  159.7250  201.8760  149.3600 N   0  0  0  0  0  0  0  0  0  0  0  0
  161.2900  200.9420  145.8020 S   0  0  0  0  0  0  0  0  0  0  0  0
  159.2790  202.3320  144.7860 O   0  0  0  0  0  0  0  0  0  0  0  0
  161.1730  203.6500  145.1650 N   0  0  0  0  0  2  0  0  0  0  0  0
  160.4700  202.4070  145.1930 C   0  0  0  0  0  0  0  0  0  0  0  0
  160.4170  205.8580  145.8530 C   0  0  0  0  0  1  0  0  0  0  0  0
  161.4450  205.5080  143.6350 C   0  0  0  0  0  1  0  0  0  0  0  0
  160.5650  204.8860  144.6980 C   0  0  0  0  0  3  0  0  0  0  0  0
  1  2  1  0  0  0  0
  2  3  1  0  0  0  0
  4  7  1  6  0  0  0
  5 10  1  0  0  0  0
  6 21  1  1  0  0  0
  6 15  1  0  0  0  0
  6 11  1  0  0  0  0
  8  3  2  0  0  0  0
  9 13  1  0  0  0  0
 10  1  1  0  0  0  0
 11  4  1  0  0  0  0
 12  4  1  0  0  0  0
 12  8  1  0  0  0  0
 13 15  1  0  0  0  0
 13  1  2  0  0  0  0
 14  5  2  0  0  0  0
 14  9  1  0  0  0  0
 15 12  2  0  0  0  0
 16 19  1  0  0  0  0
 16 18  2  0  0  0  0
 17 14  1  0  0  0  0
 18 17  1  0  0  0  0
 19 20  2  0  0  0  0
 20 17  1  0  0  0  0
 22 21  1  0  0  0  0
 23  5  1  0  0  0  0
 24 23  1  0  0  0  0
 25 24  1  0  0  0  0
 26 30  1  0  0  0  0
 27 31  1  0  0  0  0
 27 26  1  0  0  0  0
 28 30  1  0  0  0  0
 29 31  1  0  0  0  0
 30 25  1  1  0  0  0
 31 32  2  0  0  0  0
 32 28  1  0  0  0  0
 33 29  1  0  0  0  0
 34 36  2  0  0  0  0
 35 36  1  0  0  0  0
 36 33  1  0  0  0  0
 38 39  1  0  0  0  0
 39 35  1  0  0  0  0
 39 37  1  0  0  0  0
M  END
>  <MODEL>
3

>  <REMARK>
 VINA RESULT:      -6.7      4.563      9.073
  Name = 
  9 active torsions:
  status: ('A' for Active; 'I' for Inactive)
    1  A    between atoms: C_2  and  C_15
    2  A    between atoms: C_2  and  O_35
    3  A    between atoms: C_9  and  C_20
    4  A    between atoms: N_11  and  C_34
    5  A    between atoms: C_15  and  C_17
    6  A    between atoms: C_19  and  N_32
    7  A    between atoms: N_29  and  S_38
    8  A    between atoms: C_30  and  O_35
    9  A    between atoms: S_38  and  C_39
                            x       y       z     vdW  Elec       q    Type
                         _______ _______ _______ _____ _____    ______ ____

>  <TORSDO>
F 9

$$$$
=
 OpenBabel11042421193D

 39 43  0  0  1  0  0  0  0  0999 V2000
  161.5490  210.5110  151.4160 C   0  0  0  0  0  0  0  0  0  0  0  0
  162.0010  209.6760  150.3420 N   0  0  0  0  0  0  0  0  0  0  0  0
  162.2330  209.9280  149.0890 C   0  0  0  0  0  3  0  0  0  0  0  0
  161.0550  213.2940  147.8440 C   0  0  2  0  0  3  0  0  0  0  0  0
  160.8170  210.3660  153.8030 C   0  0  0  0  0  0  0  0  0  0  0  0
  159.3660  212.9910  149.7510 C   0  0  2  0  0  3  0  0  0  0  0  0
  161.9920  214.4530  148.1310 C   0  0  0  0  0  1  0  0  0  0  0  0
  162.0460  211.1870  148.4380 N   0  0  0  0  0  0  0  0  0  0  0  0
  160.4810  212.4250  152.5150 C   0  0  0  0  0  2  0  0  0  0  0  0
  161.8920  210.0320  152.8040 C   0  0  0  0  0  2  0  0  0  0  0  0
  159.3350  213.8040  148.1410 S   0  0  0  0  0  0  0  0  0  0  0  0
  161.3100  212.1880  148.8000 C   0  0  0  0  0  0  0  0  0  0  0  0
  160.8160  211.6360  151.2680 C   0  0  1  0  0  3  0  0  0  0  0  0
  160.1340  211.5250  153.6750 C   0  0  0  0  0  0  0  0  0  0  0  0
  160.4260  212.1980  149.9530 C   0  0  0  0  0  0  0  0  0  0  0  0
  157.9390  213.1380  156.1140 C   0  0  0  0  0  3  0  0  0  0  0  0
  159.1030  211.9430  154.5920 N   0  0  0  0  0  0  0  0  0  0  0  0
  159.2700  212.9460  155.5490 N   0  0  0  0  0  0  0  0  0  0  0  0
  157.0050  212.1700  155.5340 N   0  0  0  0  0  0  0  0  0  0  0  0
  157.7500  211.4590  154.5120 C   0  0  0  0  0  3  0  0  0  0  0  0
  158.2760  213.1930  150.7700 C   0  0  0  0  0  2  0  0  0  0  0  0
  157.4090  214.4090  150.4950 C   0  0  0  0  0  1  0  0  0  0  0  0
  160.5670  209.3780  154.8980 C   0  0  0  0  0  2  0  0  0  0  0  0
  160.2800  207.9950  154.3340 C   0  0  0  0  0  2  0  0  0  0  0  0
  161.4760  207.3430  154.0270 O   0  0  0  0  0  0  0  0  0  0  0  0
  161.1590  205.0570  153.4350 C   0  0  0  0  0  2  0  0  0  0  0  0
  160.7500  204.1390  152.2860 C   0  0  0  0  0  2  0  0  0  0  0  0
  162.2200  206.6310  151.8750 C   0  0  0  0  0  2  0  0  0  0  0  0
  161.3350  203.6020  149.8700 N   0  0  0  0  0  2  0  0  0  0  0  0
  161.1600  206.5000  152.9610 C   0  0  2  0  0  3  0  0  0  0  0  0
  161.4360  204.4880  150.9850 C   0  0  0  0  0  0  0  0  0  0  0  0
  162.0200  205.6390  150.8150 N   0  0  0  0  0  0  0  0  0  0  0  0
  160.5480  202.0210  149.9610 S   0  0  0  0  0  0  0  0  0  0  0  0
  161.3740  200.4870  147.9680 O   0  0  0  0  0  0  0  0  0  0  0  0
  160.8190  202.6460  147.2610 N   0  0  0  0  0  2  0  0  0  0  0  0
  160.9590  201.6390  148.2650 C   0  0  0  0  0  0  0  0  0  0  0  0
  159.9320  201.7430  145.1830 C   0  0  0  0  0  1  0  0  0  0  0  0
  161.4120  203.7210  145.1720 C   0  0  0  0  0  1  0  0  0  0  0  0
  161.1190  202.4030  145.8580 C   0  0  0  0  0  3  0  0  0  0  0  0
  1 10  1  0  0  0  0
  2  1  2  0  0  0  0
  3  2  1  0  0  0  0
  4  7  1  1  0  0  0
  4 11  1  0  0  0  0
  4 12  1  0  0  0  0
  5 23  1  0  0  0  0
  6 15  1  0  0  0  0
  6 21  1  6  0  0  0
  8 12  1  0  0  0  0
  8  3  2  0  0  0  0
  9 14  1  0  0  0  0
 10  5  1  0  0  0  0
 11  6  1  0  0  0  0
 12 15  2  0  0  0  0
 13  1  1  0  0  0  0
 13  9  1  6  0  0  0
 14  5  2  0  0  0  0
 14 17  1  0  0  0  0
 15 13  1  0  0  0  0
 17 18  1  0  0  0  0
 18 16  2  0  0  0  0
 19 16  1  0  0  0  0
 20 17  1  0  0  0  0
 20 19  2  0  0  0  0
 22 21  1  0  0  0  0
 24 23  1  0  0  0  0
 25 24  1  0  0  0  0
 27 26  1  0  0  0  0
 28 30  1  0  0  0  0
 29 33  1  0  0  0  0
 29 31  1  0  0  0  0
 30 26  1  0  0  0  0
 30 25  1  1  0  0  0
 31 27  1  0  0  0  0
 32 31  2  0  0  0  0
 32 28  1  0  0  0  0
 34 36  2  0  0  0  0
 35 36  1  0  0  0  0
 36 33  1  0  0  0  0
 37 39  1  0  0  0  0
 38 39  1  0  0  0  0
 39 35  1  0  0  0  0
M  END
>  <MODEL>
4

>  <REMARK>
 VINA RESULT:      -6.2      4.176      9.026
  Name = 
  9 active torsions:
  status: ('A' for Active; 'I' for Inactive)
    1  A    between atoms: C_2  and  C_15
    2  A    between atoms: C_2  and  O_35
    3  A    between atoms: C_9  and  C_20
    4  A    between atoms: N_11  and  C_34
    5  A    between atoms: C_15  and  C_17
    6  A    between atoms: C_19  and  N_32
    7  A    between atoms: N_29  and  S_38
    8  A    between atoms: C_30  and  O_35
    9  A    between atoms: S_38  and  C_39
                            x       y       z     vdW  Elec       q    Type
                         _______ _______ _______ _____ _____    ______ ____

>  <TORSDO>
F 9

$$$$
=
 OpenBabel11042421193D

 39 43  0  0  1  0  0  0  0  0999 V2000
  160.2890  210.1240  154.4550 C   0  0  0  0  0  0  0  0  0  0  0  0
  160.5830  209.7760  155.8140 N   0  0  0  0  0  2  0  0  0  0  0  0
  159.9190  209.9550  156.9160 C   0  0  0  0  0  3  0  0  0  0  0  0
  156.9140  212.2300  156.6720 C   0  0  2  0  0  3  0  0  0  0  0  0
  161.3480  210.1380  152.1890 C   0  0  0  0  0  0  0  0  0  0  0  0
  158.2880  213.2220  154.7470 C   0  0  2  0  0  3  0  0  0  0  0  0
  155.6480  211.5750  156.1520 C   0  0  0  0  0  1  0  0  0  0  0  0
  158.6580  210.6190  157.0380 N   0  0  0  0  0  0  0  0  0  0  0  0
  159.2320  211.3120  152.5880 C   0  0  0  0  0  2  0  0  0  0  0  0
  161.0090  209.3170  153.4040 C   0  0  0  0  0  2  0  0  0  0  0  0
  157.1010  213.8820  155.9350 S   0  0  0  0  0  0  0  0  0  0  0  0
  158.1020  211.4610  156.2280 C   0  0  0  0  0  0  0  0  0  0  0  0
  159.4730  211.1300  154.0710 C   0  0  0  0  0  0  0  0  0  0  0  0
  160.4900  211.1000  151.7830 C   0  0  0  0  0  0  0  0  0  0  0  0
  158.7140  211.9820  155.0170 C   0  0  0  0  0  0  0  0  0  0  0  0
  161.2620  212.5850  148.5320 C   0  0  0  0  0  3  0  0  0  0  0  0
  160.7150  211.9230  150.6200 N   0  0  0  0  0  0  0  0  0  0  0  0
  161.4440  211.5110  149.5030 N   0  0  0  0  0  0  0  0  0  0  0  0
  160.4860  213.6740  149.1300 N   0  0  0  0  0  0  0  0  0  0  0  0
  160.0860  213.2050  150.4430 C   0  0  0  0  0  3  0  0  0  0  0  0
  158.7570  214.0180  153.5580 C   0  0  0  0  0  2  0  0  0  0  0  0
  157.6280  214.4530  152.6390 C   0  0  0  0  0  1  0  0  0  0  0  0
  162.6350  209.8320  151.4910 C   0  0  0  0  0  2  0  0  0  0  0  0
  162.6920  208.3750  151.0600 C   0  0  0  0  0  2  0  0  0  0  0  0
  161.5890  208.0650  150.2620 O   0  0  0  0  0  0  0  0  0  0  0  0
  160.1520  206.1790  150.0210 C   0  0  0  0  0  2  0  0  0  0  0  0
  160.1460  204.6600  149.8770 C   0  0  0  0  0  2  0  0  0  0  0  0
  162.1180  206.0900  151.4910 C   0  0  0  0  0  2  0  0  0  0  0  0
  160.9950  202.5550  151.0250 N   0  0  0  0  0  2  0  0  0  0  0  0
  161.5790  206.6710  150.1910 C   0  0  2  0  0  3  0  0  0  0  0  0
  161.0490  203.9740  150.8770 C   0  0  0  0  0  0  0  0  0  0  0  0
  161.9650  204.6340  151.5260 N   0  0  0  0  0  0  0  0  0  0  0  0
  159.8150  201.5410  150.1840 S   0  0  0  0  0  0  0  0  0  0  0  0
  161.7630  200.7170  148.5920 O   0  0  0  0  0  0  0  0  0  0  0  0
  160.4740  202.4100  147.6230 N   0  0  0  0  0  2  0  0  0  0  0  0
  160.7940  201.5170  148.6900 C   0  0  0  0  0  0  0  0  0  0  0  0
  160.4380  201.7030  145.2950 C   0  0  0  0  0  1  0  0  0  0  0  0
  161.4250  203.8730  145.9420 C   0  0  0  0  0  1  0  0  0  0  0  0
  161.2160  202.4360  146.3710 C   0  0  0  0  0  3  0  0  0  0  0  0
  1  2  1  0  0  0  0
  2  3  1  0  0  0  0
  3  8  2  0  0  0  0
  4  7  1  6  0  0  0
  5 10  1  0  0  0  0
  6 21  1  1  0  0  0
  6 15  1  0  0  0  0
  6 11  1  0  0  0  0
  9 13  1  0  0  0  0
 10  1  1  0  0  0  0
 11  4  1  0  0  0  0
 12  4  1  0  0  0  0
 12  8  1  0  0  0  0
 13  1  2  0  0  0  0
 13 15  1  0  0  0  0
 14  5  2  0  0  0  0
 14  9  1  0  0  0  0
 15 12  2  0  0  0  0
 16 19  1  0  0  0  0
 16 18  2  0  0  0  0
 17 14  1  0  0  0  0
 18 17  1  0  0  0  0
 19 20  2  0  0  0  0
 20 17  1  0  0  0  0
 22 21  1  0  0  0  0
 23  5  1  0  0  0  0
 24 23  1  0  0  0  0
 25 24  1  0  0  0  0
 26 30  1  0  0  0  0
 27 26  1  0  0  0  0
 27 31  1  0  0  0  0
 28 32  1  0  0  0  0
 30 25  1  1  0  0  0
 30 28  1  0  0  0  0
 31 29  1  0  0  0  0
 31 32  2  0  0  0  0
 33 29  1  0  0  0  0
 34 36  2  0  0  0  0
 35 36  1  0  0  0  0
 36 33  1  0  0  0  0
 37 39  1  0  0  0  0
 38 39  1  0  0  0  0
 39 35  1  0  0  0  0
M  END
>  <MODEL>
5

>  <REMARK>
 VINA RESULT:      -5.7      4.470      9.760
  Name = 
  9 active torsions:
  status: ('A' for Active; 'I' for Inactive)
    1  A    between atoms: C_2  and  C_15
    2  A    between atoms: C_2  and  O_35
    3  A    between atoms: C_9  and  C_20
    4  A    between atoms: N_11  and  C_34
    5  A    between atoms: C_15  and  C_17
    6  A    between atoms: C_19  and  N_32
    7  A    between atoms: N_29  and  S_38
    8  A    between atoms: C_30  and  O_35
    9  A    between atoms: S_38  and  C_39
                            x       y       z     vdW  Elec       q    Type
                         _______ _______ _______ _____ _____    ______ ____

>  <TORSDO>
F 9

$$$$
=
 OpenBabel11042421193D

 39 43  0  0  1  0  0  0  0  0999 V2000
  161.7480  205.8010  147.2470 C   0  0  0  0  0  0  0  0  0  0  0  0
  162.4160  205.9110  145.9840 N   0  0  0  0  0  0  0  0  0  0  0  0
  162.3510  205.1900  144.9060 C   0  0  0  0  0  3  0  0  0  0  0  0
  160.4920  201.9170  145.2260 C   0  0  2  0  0  3  0  0  0  0  0  0
  161.7520  206.8170  149.5320 C   0  0  0  0  0  0  0  0  0  0  0  0
  161.2390  202.1610  147.6680 C   0  0  2  0  0  3  0  0  0  0  0  0
  158.9820  202.0180  145.1110 C   0  0  0  0  0  1  0  0  0  0  0  0
  161.5590  204.0120  144.7300 N   0  0  0  0  0  0  0  0  0  0  0  0
  160.5210  204.7440  149.0880 C   0  0  0  0  0  2  0  0  0  0  0  0
  161.6610  207.0740  148.0530 C   0  0  0  0  0  2  0  0  0  0  0  0
  160.9320  200.7670  146.5650 S   0  0  0  0  0  0  0  0  0  0  0  0
  161.0580  203.2280  145.6290 C   0  0  0  0  0  0  0  0  0  0  0  0
  161.2510  204.6570  147.7660 C   0  0  1  0  0  3  0  0  0  0  0  0
  161.1960  205.6950  150.0430 C   0  0  0  0  0  0  0  0  0  0  0  0
  161.2780  203.3530  147.0600 C   0  0  0  0  0  0  0  0  0  0  0  0
  161.2000  205.5740  153.6980 C   0  0  0  0  0  3  0  0  0  0  0  0
  161.2120  205.3720  151.4490 N   0  0  0  0  0  0  0  0  0  0  0  0
  161.4490  206.3050  152.4600 N   0  0  0  0  0  0  0  0  0  0  0  0
  160.8980  204.1720  153.3980 N   0  0  0  0  0  0  0  0  0  0  0  0
  160.8410  204.0760  151.9510 C   0  0  0  0  0  3  0  0  0  0  0  0
  161.4420  201.9790  149.1490 C   0  0  0  0  0  2  0  0  0  0  0  0
  160.6900  200.7900  149.7210 C   0  0  0  0  0  1  0  0  0  0  0  0
  162.4620  207.8380  150.3650 C   0  0  0  0  0  2  0  0  0  0  0  0
  161.7080  209.1590  150.3720 C   0  0  0  0  0  2  0  0  0  0  0  0
  162.3840  210.0940  151.1590 O   0  0  0  0  0  0  0  0  0  0  0  0
  161.0730  212.0240  151.6470 C   0  0  0  0  0  2  0  0  0  0  0  0
  159.9670  212.5490  152.5580 C   0  0  0  0  0  2  0  0  0  0  0  0
  161.9680  210.6140  153.4500 C   0  0  0  0  0  2  0  0  0  0  0  0
  159.3810  212.8090  155.0200 N   0  0  0  0  0  2  0  0  0  0  0  0
  161.4150  210.5950  152.0300 C   0  0  2  0  0  3  0  0  0  0  0  0
  160.1980  212.2110  154.0140 C   0  0  0  0  0  0  0  0  0  0  0  0
  161.0490  211.2910  154.3680 N   0  0  0  0  0  0  0  0  0  0  0  0
  158.1730  214.0530  154.6690 S   0  0  0  0  0  0  0  0  0  0  0  0
  157.6300  213.9490  157.2580 O   0  0  0  0  0  0  0  0  0  0  0  0
  155.9800  212.9210  155.9580 N   0  0  0  0  0  2  0  0  0  0  0  0
  157.2120  213.6280  156.1130 C   0  0  0  0  0  0  0  0  0  0  0  0
  153.9280  213.4690  157.1440 C   0  0  0  0  0  1  0  0  0  0  0  0
  154.6710  211.1240  156.9210 C   0  0  0  0  0  1  0  0  0  0  0  0
  155.1370  212.5560  157.0860 C   0  0  0  0  0  3  0  0  0  0  0  0
  1 13  1  0  0  0  0
  1 10  1  0  0  0  0
  2  1  2  0  0  0  0
  3  2  1  0  0  0  0
  4  7  1  1  0  0  0
  4 12  1  0  0  0  0
  4 11  1  0  0  0  0
  5 14  2  0  0  0  0
  5 23  1  0  0  0  0
  6 21  1  6  0  0  0
  8  3  2  0  0  0  0
  8 12  1  0  0  0  0
  9 14  1  0  0  0  0
 10  5  1  0  0  0  0
 11  6  1  0  0  0  0
 12 15  2  0  0  0  0
 13  9  1  6  0  0  0
 14 17  1  0  0  0  0
 15  6  1  0  0  0  0
 15 13  1  0  0  0  0
 17 20  1  0  0  0  0
 17 18  1  0  0  0  0
 18 16  2  0  0  0  0
 19 16  1  0  0  0  0
 20 19  2  0  0  0  0
 21 22  1  0  0  0  0
 23 24  1  0  0  0  0
 24 25  1  0  0  0  0
 26 30  1  0  0  0  0
 26 27  1  0  0  0  0
 27 31  1  0  0  0  0
 28 32  1  0  0  0  0
 30 25  1  6  0  0  0
 30 28  1  0  0  0  0
 31 32  2  0  0  0  0
 31 29  1  0  0  0  0
 33 29  1  0  0  0  0
 33 36  1  0  0  0  0
 35 36  1  0  0  0  0
 35 39  1  0  0  0  0
 36 34  2  0  0  0  0
 38 39  1  0  0  0  0
 39 37  1  0  0  0  0
M  END
>  <MODEL>
6

>  <REMARK>
 VINA RESULT:      -5.6      4.755      7.943
  Name = 
  9 active torsions:
  status: ('A' for Active; 'I' for Inactive)
    1  A    between atoms: C_2  and  C_15
    2  A    between atoms: C_2  and  O_35
    3  A    between atoms: C_9  and  C_20
    4  A    between atoms: N_11  and  C_34
    5  A    between atoms: C_15  and  C_17
    6  A    between atoms: C_19  and  N_32
    7  A    between atoms: N_29  and  S_38
    8  A    between atoms: C_30  and  O_35
    9  A    between atoms: S_38  and  C_39
                            x       y       z     vdW  Elec       q    Type
                         _______ _______ _______ _____ _____    ______ ____

>  <TORSDO>
F 9

$$$$
=
 OpenBabel11042421193D

 39 43  0  0  1  0  0  0  0  0999 V2000
  159.5370  211.7700  154.2430 C   0  0  0  0  0  0  0  0  0  0  0  0
  160.2050  211.6750  155.5070 N   0  0  0  0  0  2  0  0  0  0  0  0
  159.7510  211.5870  156.7210 C   0  0  0  0  0  3  0  0  0  0  0  0
  156.0460  212.1920  157.1390 C   0  0  2  0  0  3  0  0  0  0  0  0
  160.0270  212.1460  151.8200 C   0  0  0  0  0  0  0  0  0  0  0  0
  156.4170  213.5980  155.0250 C   0  0  2  0  0  3  0  0  0  0  0  0
  155.1590  210.9970  156.8440 C   0  0  0  0  0  1  0  0  0  0  0  0
  158.3740  211.5960  157.1050 N   0  0  0  0  0  0  0  0  0  0  0  0
  157.7230  212.2260  152.6560 C   0  0  0  0  0  2  0  0  0  0  0  0
  160.3410  211.3310  153.0450 C   0  0  0  0  0  2  0  0  0  0  0  0
  155.3030  213.6990  156.4410 S   0  0  0  0  0  0  0  0  0  0  0  0
  157.3500  212.0380  156.4480 C   0  0  0  0  0  0  0  0  0  0  0  0
  158.2910  212.2600  154.0590 C   0  0  0  0  0  0  0  0  0  0  0  0
  158.7610  212.5770  151.6200 C   0  0  0  0  0  0  0  0  0  0  0  0
  157.4130  212.7150  155.1630 C   0  0  0  0  0  0  0  0  0  0  0  0
  158.3780  214.3630  148.4520 C   0  0  0  0  0  3  0  0  0  0  0  0
  158.3570  213.3440  150.4670 N   0  0  0  0  0  0  0  0  0  0  0  0
  159.2400  213.7980  149.4860 N   0  0  0  0  0  0  0  0  0  0  0  0
  156.9800  214.3110  148.8840 N   0  0  0  0  0  0  0  0  0  0  0  0
  156.9770  213.5930  150.1450 C   0  0  0  0  0  3  0  0  0  0  0  0
  156.2320  214.4530  153.7990 C   0  0  0  0  0  2  0  0  0  0  0  0
  154.8630  214.3000  153.1570 C   0  0  0  0  0  1  0  0  0  0  0  0
  161.1530  212.4330  150.8780 C   0  0  0  0  0  2  0  0  0  0  0  0
  161.6990  211.1510  150.2690 C   0  0  0  0  0  2  0  0  0  0  0  0
  162.1420  210.2900  151.2770 O   0  0  0  0  0  0  0  0  0  0  0  0
  161.9540  209.1760  149.1790 C   0  0  0  0  0  2  0  0  0  0  0  0
  162.1060  207.8170  148.5010 C   0  0  0  0  0  2  0  0  0  0  0  0
  161.1580  208.1170  151.2490 C   0  0  0  0  0  2  0  0  0  0  0  0
  161.2990  205.4110  148.6740 N   0  0  0  0  0  2  0  0  0  0  0  0
  162.2230  209.0370  150.6670 C   0  0  2  0  0  3  0  0  0  0  0  0
  161.4400  206.7000  149.2710 C   0  0  0  0  0  0  0  0  0  0  0  0
  161.0950  206.8490  150.5180 N   0  0  0  0  0  0  0  0  0  0  0  0
  161.7500  205.0700  146.9980 S   0  0  0  0  0  0  0  0  0  0  0  0
  161.2150  202.6290  146.1220 O   0  0  0  0  0  0  0  0  0  0  0  0
  161.0540  202.7970  148.4490 N   0  0  0  0  0  2  0  0  0  0  0  0
  161.3070  203.3470  147.1550 C   0  0  0  0  0  0  0  0  0  0  0  0
  161.6280  200.5120  147.8430 C   0  0  0  0  0  1  0  0  0  0  0  0
  160.8490  201.0580  150.1230 C   0  0  0  0  0  1  0  0  0  0  0  0
  160.7040  201.4000  148.6550 C   0  0  0  0  0  3  0  0  0  0  0  0
  1  2  1  0  0  0  0
  2  3  1  0  0  0  0
  3  8  2  0  0  0  0
  4  7  1  6  0  0  0
  5 10  1  0  0  0  0
  6 21  1  1  0  0  0
  6 15  1  0  0  0  0
  6 11  1  0  0  0  0
  9 13  1  0  0  0  0
 10  1  1  0  0  0  0
 11  4  1  0  0  0  0
 12  8  1  0  0  0  0
 12  4  1  0  0  0  0
 13  1  2  0  0  0  0
 13 15  1  0  0  0  0
 14  5  2  0  0  0  0
 14  9  1  0  0  0  0
 15 12  2  0  0  0  0
 16 19  1  0  0  0  0
 16 18  2  0  0  0  0
 17 14  1  0  0  0  0
 18 17  1  0  0  0  0
 19 20  2  0  0  0  0
 20 17  1  0  0  0  0
 22 21  1  0  0  0  0
 23  5  1  0  0  0  0
 24 23  1  0  0  0  0
 24 25  1  0  0  0  0
 26 30  1  0  0  0  0
 27 26  1  0  0  0  0
 27 31  1  0  0  0  0
 29 31  1  0  0  0  0
 30 28  1  0  0  0  0
 30 25  1  1  0  0  0
 31 32  2  0  0  0  0
 32 28  1  0  0  0  0
 33 36  1  0  0  0  0
 33 29  1  0  0  0  0
 34 36  2  0  0  0  0
 35 39  1  0  0  0  0
 36 35  1  0  0  0  0
 37 39  1  0  0  0  0
 39 38  1  0  0  0  0
M  END
>  <MODEL>
7

>  <REMARK>
 VINA RESULT:      -5.2      4.916      9.919
  Name = 
  9 active torsions:
  status: ('A' for Active; 'I' for Inactive)
    1  A    between atoms: C_2  and  C_15
    2  A    between atoms: C_2  and  O_35
    3  A    between atoms: C_9  and  C_20
    4  A    between atoms: N_11  and  C_34
    5  A    between atoms: C_15  and  C_17
    6  A    between atoms: C_19  and  N_32
    7  A    between atoms: N_29  and  S_38
    8  A    between atoms: C_30  and  O_35
    9  A    between atoms: S_38  and  C_39
                            x       y       z     vdW  Elec       q    Type
                         _______ _______ _______ _____ _____    ______ ____

>  <TORSDO>
F 9

$$$$
