=
 OpenBabel11042420423D

 62 68  0  0  1  0  0  0  0  0999 V2000
  159.1230  213.8260  148.0530 C   0  0  2  0  0  3  0  0  0  0  0  0
  161.9330  211.7900  148.7680 C   0  0  1  0  0  3  0  0  0  0  0  0
  159.7780  212.5820  148.0590 O   0  0  0  0  0  0  0  0  0  0  0  0
  161.3110  211.4570  151.0860 N   0  0  0  0  0  0  0  0  0  0  0  0
  158.2150  214.0030  149.2830 C   0  0  0  0  0  2  0  0  0  0  0  0
  162.4430  211.4230  150.1490 C   0  0  0  0  0  2  0  0  0  0  0  0
  159.0270  214.3040  150.4570 N   0  0  0  0  0  2  0  0  0  0  0  0
  160.7540  212.6670  149.0610 C   0  0  1  0  0  3  0  0  0  0  0  0
  160.2060  212.0800  150.3400 C   0  0  2  0  0  3  0  0  0  0  0  0
  159.3450  213.0660  151.1750 C   0  0  1  0  0  3  0  0  0  0  0  0
  156.9190  214.3520  144.4410 N   0  0  0  0  0  0  0  0  0  0  0  0
  158.3630  213.9990  146.7760 C   0  0  0  0  0  0  0  0  0  0  0  0
  158.2510  214.0850  144.3630 C   0  0  0  0  0  0  0  0  0  0  0  0
  159.0000  213.9170  145.5290 C   0  0  0  0  0  3  0  0  0  0  0  0
  156.9960  214.2770  146.8300 C   0  0  0  0  0  3  0  0  0  0  0  0
  156.2830  214.4530  145.6410 C   0  0  0  0  0  3  0  0  0  0  0  0
  158.9090  213.9540  143.0330 C   0  0  0  0  0  2  0  0  0  0  0  0
  160.0690  213.0780  143.1250 N   0  0  0  0  0  2  0  0  0  0  0  0
  160.9150  212.5180  140.9320 C   0  0  0  0  0  2  0  0  0  0  0  0
  162.0630  212.4230  141.9160 C   0  0  0  0  0  2  0  0  0  0  0  0
  161.0020  213.4900  142.0910 C   0  0  0  0  0  3  0  0  0  0  0  0
  162.9750  212.5130  147.9700 C   0  0  0  0  0  0  0  0  0  0  0  0
  163.9370  211.9170  147.5080 O   0  0  0  0  0  0  0  0  0  0  0  0
  162.8390  213.9810  147.7430 C   0  0  0  0  0  1  0  0  0  0  0  0
  159.9520  213.4100  152.5290 C   0  0  0  0  0  2  0  0  0  0  0  0
  158.8770  213.9850  153.4310 C   0  0  0  0  0  2  0  0  0  0  0  0
  157.9960  212.8740  153.9670 C   0  0  0  0  0  2  0  0  0  0  0  0
  157.6950  213.1500  155.4300 C   0  0  2  0  0  3  0  0  0  0  0  0
  157.2090  214.4530  155.5640 O   0  0  0  0  0  0  0  0  0  0  0  0
  155.8200  214.3230  155.6130 C   0  0  0  0  0  2  0  0  0  0  0  0
  154.5400  214.2610  153.8170 C   0  0  0  0  0  1  0  0  0  0  0  0
  155.3960  213.4780  154.5900 O   0  0  0  0  0  0  0  0  0  0  0  0
  158.8720  212.9970  156.2160 O   0  0  0  0  0  0  0  0  0  0  0  0
  159.6990  209.3890  156.5850 C   0  0  0  0  0  3  0  0  0  0  0  0
  163.2020  210.6990  156.0360 C   0  0  0  0  0  1  0  0  0  0  0  0
  161.7270  210.6540  156.1910 C   0  0  0  0  0  0  0  0  0  0  0  0
  158.9530  210.5670  156.5090 C   0  0  0  0  0  3  0  0  0  0  0  0
  160.9800  211.8320  156.1100 C   0  0  0  0  0  3  0  0  0  0  0  0
  161.0870  209.4340  156.4310 C   0  0  0  0  0  3  0  0  0  0  0  0
  159.5910  211.7990  156.2760 C   0  0  0  0  0  0  0  0  0  0  0  0
  161.0030  210.0570  151.4330 C   0  0  2  0  0  3  0  0  0  0  0  0
  159.6260  208.7280  152.9900 C   0  0  0  0  0  2  0  0  0  0  0  0
  159.9900  209.9270  152.5470 C   0  0  0  0  0  3  0  0  0  0  0  0
  162.3040  209.3130  151.7920 C   0  0  1  0  0  3  0  0  0  0  0  0
  162.2560  207.6030  153.2170 C   0  0  0  0  0  1  0  0  0  0  0  0
  162.3690  208.9960  153.1580 O   0  0  0  0  0  0  0  0  0  0  0  0
  162.5250  208.0750  150.9290 C   0  0  0  0  0  2  0  0  0  0  0  0
  161.9800  208.2370  149.5160 C   0  0  0  0  0  2  0  0  0  0  0  0
  160.4170  205.7570  147.2300 C   0  0  0  0  0  2  0  0  0  0  0  0
  161.1720  207.0840  149.1680 N   0  0  0  0  0  0  0  0  0  0  0  0
  160.9590  206.0630  150.1480 C   0  0  0  0  0  3  0  0  0  0  0  0
  161.5780  204.1530  148.5870 C   0  0  2  0  0  3  0  0  0  0  0  0
  160.7790  203.8120  151.0150 C   0  0  0  0  0  2  0  0  0  0  0  0
  160.6880  201.9170  149.3860 C   0  0  0  0  0  2  0  0  0  0  0  0
  160.4150  207.1170  147.9180 C   0  0  0  0  0  2  0  0  0  0  0  0
  160.8360  202.8540  148.1870 C   0  0  2  0  0  3  0  0  0  0  0  0
  159.9610  202.6190  150.5300 C   0  0  0  0  0  2  0  0  0  0  0  0
  161.0360  204.7510  149.8840 C   0  0  0  0  0  0  0  0  0  0  0  0
  161.6930  205.0900  147.4610 N   0  0  0  0  0  2  0  0  0  0  0  0
  161.4610  200.5920  147.2800 C   0  0  0  0  0  1  0  0  0  0  0  0
  160.9920  202.4150  145.8060 O   0  0  0  0  0  1  0  0  0  0  0  0
  161.5300  202.0880  147.0550 C   0  0  1  0  0  3  0  0  0  0  0  0
  1 12  1  6  0  0  0
  1  3  1  0  0  0  0
  1  5  1  0  0  0  0
  2 22  1  6  0  0  0
  2  8  1  0  0  0  0
  2  6  1  0  0  0  0
  4 41  1  0  0  0  0
  5  7  1  0  0  0  0
  6  4  1  0  0  0  0
  7 10  1  0  0  0  0
  8  3  1  6  0  0  0
  8  9  1  0  0  0  0
  9  4  1  1  0  0  0
  9 10  1  0  0  0  0
 10 25  1  1  0  0  0
 11 16  1  0  0  0  0
 12 15  1  0  0  0  0
 13 11  2  0  0  0  0
 13 14  1  0  0  0  0
 14 12  2  0  0  0  0
 16 15  2  0  0  0  0
 17 18  1  0  0  0  0
 17 13  1  0  0  0  0
 19 20  1  0  0  0  0
 19 21  1  0  0  0  0
 20 21  1  0  0  0  0
 21 18  1  0  0  0  0
 23 22  2  0  0  0  0
 24 22  1  0  0  0  0
 25 26  1  0  0  0  0
 26 27  1  0  0  0  0
 28 27  1  6  0  0  0
 28 29  1  0  0  0  0
 28 33  1  0  0  0  0
 29 30  1  0  0  0  0
 31 32  1  0  0  0  0
 32 30  1  0  0  0  0
 33 40  1  0  0  0  0
 35 36  1  0  0  0  0
 36 39  1  0  0  0  0
 37 34  1  0  0  0  0
 38 36  2  0  0  0  0
 38 40  1  0  0  0  0
 39 34  2  0  0  0  0
 40 37  2  0  0  0  0
 41 44  1  0  0  0  0
 41 43  1  1  0  0  0
 43 42  2  0  0  0  0
 44 47  1  6  0  0  0
 44 46  1  0  0  0  0
 46 45  1  0  0  0  0
 48 47  1  0  0  0  0
 49 59  1  0  0  0  0
 49 55  1  0  0  0  0
 50 48  1  0  0  0  0
 50 51  1  0  0  0  0
 52 59  1  6  0  0  0
 52 58  1  0  0  0  0
 54 57  1  0  0  0  0
 55 50  1  0  0  0  0
 56 62  1  6  0  0  0
 56 52  1  0  0  0  0
 56 54  1  0  0  0  0
 57 53  1  0  0  0  0
 58 51  2  0  0  0  0
 58 53  1  0  0  0  0
 61 62  1  0  0  0  0
 62 60  1  1  0  0  0
M  END
>  <MODEL>
1

>  <REMARK>
 VINA RESULT:      -3.3      0.000      0.000
  Name = 
  22 active torsions:
  status: ('A' for Active; 'I' for Inactive)
    1  A    between atoms: O_1  and  C_17
    2  A    between atoms: O_1  and  C_61
    3  A    between atoms: C_4  and  C_5
    4  A    between atoms: N_8  and  C_18
    5  A    between atoms: C_9  and  C_30
    6  A    between atoms: C_10  and  C_11
    7  A    between atoms: C_16  and  C_59
    8  A    between atoms: C_16  and  C_62
    9  A    between atoms: C_17  and  O_36
   10  A    between atoms: C_17  and  C_62
   11  A    between atoms: C_18  and  C_54
   12  A    between atoms: N_19  and  C_57
   13  A    between atoms: N_21  and  C_30
   14  A    between atoms: N_21  and  C_39
   15  A    between atoms: C_35  and  O_36
   16  A    between atoms: C_35  and  O_42
   17  A    between atoms: C_41  and  C_54
   18  A    between atoms: C_41  and  O_56
   19  A    between atoms: C_41  and  C_57
   20  A    between atoms: C_43  and  C_51
   21  A    between atoms: C_55  and  C_59
   22  A    between atoms: C_57  and  C_60
                            x       y       z     vdW  Elec       q    Type
                         _______ _______ _______ _____ _____    ______ ____

>  <TORSDO>
F 22

$$$$
