=
 OpenBabel11042421033D

 28 31  0  0  1  0  0  0  0  0999 V2000
  161.7910  207.4000  151.4530 C   0  0  2  0  0  3  0  0  0  0  0  0
  161.3090  208.4040  153.7670 C   0  0  0  0  0  3  0  0  0  0  0  0
  160.6250  206.2220  154.3380 C   0  0  0  0  0  3  0  0  0  0  0  0
  160.7320  207.6540  154.7200 C   0  0  2  0  0  3  0  0  0  0  0  0
  161.4950  205.9840  151.0910 C   0  0  0  0  0  0  0  0  0  0  0  0
  161.3000  206.1530  153.2070 C   0  0  0  0  0  0  0  0  0  0  0  0
  161.4920  205.4910  149.7440 N   0  0  0  0  0  2  0  0  0  0  0  0
  161.1660  205.2530  152.1220 N   0  0  0  0  0  0  0  0  0  0  0  0
  161.6950  207.4230  152.7740 C   0  0  0  0  0  0  0  0  0  0  0  0
  161.2060  204.1520  149.3190 C   0  0  0  0  0  0  0  0  0  0  0  0
  160.4070  201.9000  149.7210 C   0  0  0  0  0  3  0  0  0  0  0  0
  160.6650  203.1920  150.1830 C   0  0  0  0  0  3  0  0  0  0  0  0
  161.4810  203.7880  147.9970 C   0  0  0  0  0  3  0  0  0  0  0  0
  161.2230  202.5240  147.5650 N   0  0  0  0  0  0  0  0  0  0  0  0
  160.6960  201.5820  148.3940 C   0  0  0  0  0  3  0  0  0  0  0  0
  161.9650  209.8680  151.0660 C   0  0  0  0  0  3  0  0  0  0  0  0
  162.0700  210.9670  150.2090 C   0  0  0  0  0  3  0  0  0  0  0  0
  162.0470  209.4840  148.3030 C   0  0  0  0  0  3  0  0  0  0  0  0
  161.8960  208.5670  150.5490 C   0  0  0  0  0  0  0  0  0  0  0  0
  161.9410  208.3850  149.1600 C   0  0  0  0  0  3  0  0  0  0  0  0
  162.1120  210.7810  148.8200 C   0  0  0  0  0  0  0  0  0  0  0  0
  159.9430  212.2140  147.4310 O   0  0  0  0  0  0  0  0  0  0  0  0
  162.2190  211.8830  147.9080 N   0  0  0  0  0  2  0  0  0  0  0  0
  161.4420  213.6880  146.3320 C   0  0  0  0  0  1  0  0  0  0  0  0
  161.1410  212.5580  147.2500 C   0  0  0  0  0  0  0  0  0  0  0  0
  160.1100  208.2290  155.9430 C   0  0  0  0  0  2  0  0  0  0  0  0
  160.9120  207.8950  157.1060 N   0  0  0  0  0  2  0  0  0  0  0  0
  161.8900  208.9560  157.2580 C   0  0  0  0  0  1  0  0  0  0  0  0
  1 19  1  6  0  0  0
  1  9  1  0  0  0  0
  2  4  1  0  0  0  0
  3  4  1  0  0  0  0
  4 26  1  6  0  0  0
  5  1  1  0  0  0  0
  5  8  2  0  0  0  0
  6  3  2  0  0  0  0
  7  5  1  0  0  0  0
  8  6  1  0  0  0  0
  9  6  1  0  0  0  0
  9  2  2  0  0  0  0
 10  7  1  0  0  0  0
 10 12  1  0  0  0  0
 11 12  2  0  0  0  0
 13 10  2  0  0  0  0
 14 13  1  0  0  0  0
 14 15  2  0  0  0  0
 15 11  1  0  0  0  0
 17 16  2  0  0  0  0
 18 21  2  0  0  0  0
 18 20  1  0  0  0  0
 19 16  1  0  0  0  0
 20 19  2  0  0  0  0
 21 17  1  0  0  0  0
 23 21  1  0  0  0  0
 24 25  1  0  0  0  0
 25 22  2  0  0  0  0
 25 23  1  0  0  0  0
 26 27  1  0  0  0  0
 27 28  1  0  0  0  0
M  END
>  <MODEL>
1

>  <REMARK>
 VINA RESULT:      -8.4      0.000      0.000
  Name = 
  5 active torsions:
  status: ('A' for Active; 'I' for Inactive)
    1  A    between atoms: C_1  and  N_26
    2  A    between atoms: C_4  and  C_13
    3  A    between atoms: C_4  and  N_15
    4  A    between atoms: C_5  and  C_16
    5  A    between atoms: N_17  and  C_24
                            x       y       z     vdW  Elec       q    Type
                         _______ _______ _______ _____ _____    ______ ____

>  <TORSDO>
F 5

$$$$
=
 OpenBabel11042421033D

 28 31  0  0  1  0  0  0  0  0999 V2000
  161.8650  207.9060  150.7260 C   0  0  2  0  0  3  0  0  0  0  0  0
  162.0620  209.5400  148.7540 C   0  0  0  0  0  3  0  0  0  0  0  0
  161.7570  211.2140  150.3840 C   0  0  0  0  0  3  0  0  0  0  0  0
  161.8710  210.8550  148.9470 C   0  0  0  0  0  0  0  0  0  0  0  0
  161.5780  208.3350  152.1250 C   0  0  0  0  0  0  0  0  0  0  0  0
  162.0460  210.0890  151.0070 C   0  0  0  0  0  0  0  0  0  0  0  0
  161.1890  207.4310  153.1690 N   0  0  0  0  0  2  0  0  0  0  0  0
  161.6450  209.6290  152.2860 N   0  0  0  0  0  0  0  0  0  0  0  0
  162.1880  209.0300  150.1040 C   0  0  1  0  0  3  0  0  0  0  0  0
  160.8850  207.7690  154.5290 C   0  0  0  0  0  0  0  0  0  0  0  0
  159.9260  207.2700  156.6980 C   0  0  0  0  0  3  0  0  0  0  0  0
  160.2010  206.8930  155.3820 C   0  0  0  0  0  3  0  0  0  0  0  0
  161.2800  209.0150  155.0230 C   0  0  0  0  0  3  0  0  0  0  0  0
  161.0030  209.3650  156.3070 N   0  0  0  0  0  0  0  0  0  0  0  0
  160.3400  208.5240  157.1470 C   0  0  0  0  0  3  0  0  0  0  0  0
  161.4220  206.4800  148.7160 C   0  0  0  0  0  3  0  0  0  0  0  0
  161.1720  205.2360  148.1310 C   0  0  0  0  0  3  0  0  0  0  0  0
  161.2660  204.1930  150.3070 C   0  0  0  0  0  3  0  0  0  0  0  0
  161.5930  206.5920  150.1030 C   0  0  0  0  0  0  0  0  0  0  0  0
  161.5150  205.4360  150.8920 C   0  0  0  0  0  3  0  0  0  0  0  0
  161.0910  204.0830  148.9240 C   0  0  0  0  0  0  0  0  0  0  0  0
  161.5350  203.1830  146.1530 O   0  0  0  0  0  0  0  0  0  0  0  0
  160.8350  202.7890  148.3610 N   0  0  0  0  0  2  0  0  0  0  0  0
  160.7390  200.9920  146.5980 C   0  0  0  0  0  1  0  0  0  0  0  0
  161.0640  202.3840  147.0060 C   0  0  0  0  0  0  0  0  0  0  0  0
  161.6240  211.8140  147.8360 C   0  0  0  0  0  2  0  0  0  0  0  0
  162.8430  212.5410  147.5340 N   0  0  0  0  0  2  0  0  0  0  0  0
  162.6000  213.9280  147.8870 C   0  0  0  0  0  1  0  0  0  0  0  0
  1 19  1  6  0  0  0
  1  5  1  0  0  0  0
  2  4  2  0  0  0  0
  3  6  2  0  0  0  0
  4  3  1  0  0  0  0
  5  8  2  0  0  0  0
  5  7  1  0  0  0  0
  6  8  1  0  0  0  0
  7 10  1  0  0  0  0
  9  2  1  6  0  0  0
  9  1  1  0  0  0  0
  9  6  1  0  0  0  0
 10 13  2  0  0  0  0
 10 12  1  0  0  0  0
 11 15  1  0  0  0  0
 12 11  2  0  0  0  0
 13 14  1  0  0  0  0
 14 15  2  0  0  0  0
 16 19  1  0  0  0  0
 17 16  2  0  0  0  0
 17 21  1  0  0  0  0
 18 20  1  0  0  0  0
 19 20  2  0  0  0  0
 21 18  2  0  0  0  0
 22 25  2  0  0  0  0
 23 21  1  0  0  0  0
 24 25  1  0  0  0  0
 25 23  1  0  0  0  0
 26  4  1  0  0  0  0
 27 26  1  0  0  0  0
 27 28  1  0  0  0  0
M  END
>  <MODEL>
2

>  <REMARK>
 VINA RESULT:      -8.2      2.277      7.482
  Name = 
  5 active torsions:
  status: ('A' for Active; 'I' for Inactive)
    1  A    between atoms: C_1  and  N_26
    2  A    between atoms: C_4  and  C_13
    3  A    between atoms: C_4  and  N_15
    4  A    between atoms: C_5  and  C_16
    5  A    between atoms: N_17  and  C_24
                            x       y       z     vdW  Elec       q    Type
                         _______ _______ _______ _____ _____    ______ ____

>  <TORSDO>
F 5

$$$$
=
 OpenBabel11042421033D

 28 31  0  0  1  0  0  0  0  0999 V2000
  161.0150  208.4350  151.4320 C   0  0  2  0  0  3  0  0  0  0  0  0
  161.0160  207.7760  153.9140 C   0  0  0  0  0  3  0  0  0  0  0  0
  161.5300  210.0440  154.2980 C   0  0  0  0  0  3  0  0  0  0  0  0
  161.3680  208.6730  154.8490 C   0  0  2  0  0  3  0  0  0  0  0  0
  161.3570  209.8010  150.9420 C   0  0  0  0  0  0  0  0  0  0  0  0
  161.1060  209.9280  153.0550 C   0  0  0  0  0  0  0  0  0  0  0  0
  161.6350  210.1070  149.5680 N   0  0  0  0  0  2  0  0  0  0  0  0
  161.4510  210.6790  151.9040 N   0  0  0  0  0  0  0  0  0  0  0  0
  160.8310  208.5950  152.7340 C   0  0  0  0  0  0  0  0  0  0  0  0
  161.9820  211.3880  149.0260 C   0  0  0  0  0  0  0  0  0  0  0  0
  161.5490  213.7400  148.6360 C   0  0  0  0  0  3  0  0  0  0  0  0
  161.1670  212.5150  149.1870 C   0  0  0  0  0  3  0  0  0  0  0  0
  163.1740  211.5180  148.3060 C   0  0  0  0  0  3  0  0  0  0  0  0
  163.5290  212.7190  147.7770 N   0  0  0  0  0  0  0  0  0  0  0  0
  162.7470  213.8230  147.9270 C   0  0  0  0  0  3  0  0  0  0  0  0
  161.4560  205.9700  151.3740 C   0  0  0  0  0  3  0  0  0  0  0  0
  161.5480  204.7610  150.6810 C   0  0  0  0  0  3  0  0  0  0  0  0
  160.9650  205.8930  148.6280 C   0  0  0  0  0  3  0  0  0  0  0  0
  161.1200  207.1540  150.7000 C   0  0  0  0  0  0  0  0  0  0  0  0
  160.8730  207.1020  149.3210 C   0  0  0  0  0  3  0  0  0  0  0  0
  161.3030  204.7150  149.3000 C   0  0  0  0  0  0  0  0  0  0  0  0
  160.1640  202.0830  149.9780 O   0  0  0  0  0  0  0  0  0  0  0  0
  161.3880  203.4940  148.5530 N   0  0  0  0  0  2  0  0  0  0  0  0
  161.0100  201.0630  148.0110 C   0  0  0  0  0  1  0  0  0  0  0  0
  160.8200  202.2280  148.9130 C   0  0  0  0  0  0  0  0  0  0  0  0
  161.7290  208.2970  156.2430 C   0  0  0  0  0  2  0  0  0  0  0  0
  160.5430  208.3200  157.0810 N   0  0  0  0  0  2  0  0  0  0  0  0
  160.1320  206.9400  157.2610 C   0  0  0  0  0  1  0  0  0  0  0  0
  1 19  1  1  0  0  0
  1  9  1  0  0  0  0
  2  4  1  0  0  0  0
  3  4  1  0  0  0  0
  4 26  1  6  0  0  0
  5  1  1  0  0  0  0
  5  8  2  0  0  0  0
  6  3  2  0  0  0  0
  7  5  1  0  0  0  0
  8  6  1  0  0  0  0
  9  6  1  0  0  0  0
  9  2  2  0  0  0  0
 10 12  1  0  0  0  0
 10  7  1  0  0  0  0
 11 12  2  0  0  0  0
 13 10  2  0  0  0  0
 14 15  2  0  0  0  0
 14 13  1  0  0  0  0
 15 11  1  0  0  0  0
 17 16  2  0  0  0  0
 18 21  2  0  0  0  0
 18 20  1  0  0  0  0
 19 16  1  0  0  0  0
 20 19  2  0  0  0  0
 21 17  1  0  0  0  0
 23 25  1  0  0  0  0
 23 21  1  0  0  0  0
 24 25  1  0  0  0  0
 25 22  2  0  0  0  0
 26 27  1  0  0  0  0
 27 28  1  0  0  0  0
M  END
>  <MODEL>
3

>  <REMARK>
 VINA RESULT:      -8.1      2.525      6.777
  Name = 
  5 active torsions:
  status: ('A' for Active; 'I' for Inactive)
    1  A    between atoms: C_1  and  N_26
    2  A    between atoms: C_4  and  C_13
    3  A    between atoms: C_4  and  N_15
    4  A    between atoms: C_5  and  C_16
    5  A    between atoms: N_17  and  C_24
                            x       y       z     vdW  Elec       q    Type
                         _______ _______ _______ _____ _____    ______ ____

>  <TORSDO>
F 5

$$$$
=
 OpenBabel11042421033D

 28 31  0  0  1  0  0  0  0  0999 V2000
  161.7810  209.2460  150.8930 C   0  0  2  0  0  3  0  0  0  0  0  0
  161.4140  206.7290  151.2510 C   0  0  0  0  0  3  0  0  0  0  0  0
  161.5540  206.5900  148.9020 C   0  0  0  0  0  3  0  0  0  0  0  0
  161.2720  205.9120  150.1940 C   0  0  0  0  0  0  0  0  0  0  0  0
  161.8850  209.8800  149.5470 C   0  0  0  0  0  0  0  0  0  0  0  0
  162.0120  207.7710  149.2660 C   0  0  0  0  0  0  0  0  0  0  0  0
  161.8050  211.2950  149.3260 N   0  0  0  0  0  2  0  0  0  0  0  0
  161.9820  209.0090  148.5790 N   0  0  0  0  0  0  0  0  0  0  0  0
  161.9110  207.9500  150.6500 C   0  0  1  0  0  3  0  0  0  0  0  0
  161.8830  211.9750  148.0670 C   0  0  0  0  0  0  0  0  0  0  0  0
  163.0970  213.1970  146.3610 C   0  0  0  0  0  3  0  0  0  0  0  0
  163.0740  212.5420  147.5950 C   0  0  0  0  0  3  0  0  0  0  0  0
  160.7320  212.0820  147.2820 C   0  0  0  0  0  3  0  0  0  0  0  0
  160.7730  212.7230  146.0840 N   0  0  0  0  0  0  0  0  0  0  0  0
  161.9230  213.2780  145.6120 C   0  0  0  0  0  3  0  0  0  0  0  0
  162.2580  209.9910  153.2350 C   0  0  0  0  0  3  0  0  0  0  0  0
  161.8590  210.5910  154.4320 C   0  0  0  0  0  3  0  0  0  0  0  0
  159.6610  210.9750  153.5080 C   0  0  0  0  0  3  0  0  0  0  0  0
  161.3610  209.8740  152.1640 C   0  0  0  0  0  0  0  0  0  0  0  0
  160.0590  210.3740  152.3120 C   0  0  0  0  0  3  0  0  0  0  0  0
  160.5550  211.0870  154.5770 C   0  0  0  0  0  0  0  0  0  0  0  0
  159.2930  213.7290  154.9100 O   0  0  0  0  0  0  0  0  0  0  0  0
  160.1080  211.7090  155.7890 N   0  0  0  0  0  2  0  0  0  0  0  0
  159.0930  213.4840  157.2610 C   0  0  0  0  0  1  0  0  0  0  0  0
  159.4960  212.9980  155.9150 C   0  0  0  0  0  0  0  0  0  0  0  0
  160.7200  204.5340  150.3000 C   0  0  0  0  0  2  0  0  0  0  0  0
  160.9190  203.8280  149.0470 N   0  0  0  0  0  2  0  0  0  0  0  0
  160.6070  202.4340  149.2990 C   0  0  0  0  0  1  0  0  0  0  0  0
  1 19  1  6  0  0  0
  3  6  2  0  0  0  0
  3  4  1  0  0  0  0
  4 26  1  0  0  0  0
  4  2  2  0  0  0  0
  5  1  1  0  0  0  0
  6  9  1  0  0  0  0
  7  5  1  0  0  0  0
  8  6  1  0  0  0  0
  8  5  2  0  0  0  0
  9  1  1  0  0  0  0
  9  2  1  6  0  0  0
 10  7  1  0  0  0  0
 11 12  2  0  0  0  0
 12 10  1  0  0  0  0
 13 10  2  0  0  0  0
 14 13  1  0  0  0  0
 15 14  2  0  0  0  0
 15 11  1  0  0  0  0
 16 17  1  0  0  0  0
 17 21  2  0  0  0  0
 18 21  1  0  0  0  0
 19 20  1  0  0  0  0
 19 16  2  0  0  0  0
 20 18  2  0  0  0  0
 21 23  1  0  0  0  0
 22 25  2  0  0  0  0
 23 25  1  0  0  0  0
 25 24  1  0  0  0  0
 27 28  1  0  0  0  0
 27 26  1  0  0  0  0
M  END
>  <MODEL>
4

>  <REMARK>
 VINA RESULT:      -8.0      2.680      7.270
  Name = 
  5 active torsions:
  status: ('A' for Active; 'I' for Inactive)
    1  A    between atoms: C_1  and  N_26
    2  A    between atoms: C_4  and  C_13
    3  A    between atoms: C_4  and  N_15
    4  A    between atoms: C_5  and  C_16
    5  A    between atoms: N_17  and  C_24
                            x       y       z     vdW  Elec       q    Type
                         _______ _______ _______ _____ _____    ______ ____

>  <TORSDO>
F 5

$$$$
=
 OpenBabel11042421033D

 28 31  0  0  1  0  0  0  0  0999 V2000
  160.9580  208.1720  151.3110 C   0  0  2  0  0  3  0  0  0  0  0  0
  160.9060  207.4810  153.7840 C   0  0  0  0  0  3  0  0  0  0  0  0
  161.3900  209.7480  154.2090 C   0  0  0  0  0  3  0  0  0  0  0  0
  161.2270  208.3690  154.7380 C   0  0  2  0  0  3  0  0  0  0  0  0
  161.3000  209.5470  150.8470 C   0  0  0  0  0  0  0  0  0  0  0  0
  160.9970  209.6450  152.9550 C   0  0  0  0  0  0  0  0  0  0  0  0
  161.6080  209.8740  149.4840 N   0  0  0  0  0  2  0  0  0  0  0  0
  161.3620  210.4140  151.8220 N   0  0  0  0  0  0  0  0  0  0  0  0
  160.7420  208.3140  152.6100 C   0  0  0  0  0  0  0  0  0  0  0  0
  161.9560  211.1640  148.9660 C   0  0  0  0  0  0  0  0  0  0  0  0
  163.4480  212.6720  147.7940 C   0  0  0  0  0  3  0  0  0  0  0  0
  163.1530  211.3950  148.2760 C   0  0  0  0  0  3  0  0  0  0  0  0
  161.0750  212.2320  149.1590 C   0  0  0  0  0  3  0  0  0  0  0  0
  161.3800  213.4690  148.6820 N   0  0  0  0  0  0  0  0  0  0  0  0
  162.5380  213.7070  148.0090 C   0  0  0  0  0  3  0  0  0  0  0  0
  160.8150  206.8450  149.1920 C   0  0  0  0  0  3  0  0  0  0  0  0
  160.9490  205.6440  148.4900 C   0  0  0  0  0  3  0  0  0  0  0  0
  161.6480  204.5360  150.5190 C   0  0  0  0  0  3  0  0  0  0  0  0
  161.0930  206.9010  150.5650 C   0  0  0  0  0  0  0  0  0  0  0  0
  161.5130  205.7350  151.2210 C   0  0  0  0  0  3  0  0  0  0  0  0
  161.3660  204.4800  149.1500 C   0  0  0  0  0  0  0  0  0  0  0  0
  159.9520  201.9450  149.6600 O   0  0  0  0  0  0  0  0  0  0  0  0
  161.5160  203.2290  148.4660 N   0  0  0  0  0  2  0  0  0  0  0  0
  161.0950  200.8050  147.9210 C   0  0  0  0  0  1  0  0  0  0  0  0
  160.8090  202.0130  148.7390 C   0  0  0  0  0  0  0  0  0  0  0  0
  161.5580  207.9780  156.1360 C   0  0  0  0  0  2  0  0  0  0  0  0
  161.3720  209.1140  157.0200 N   0  0  0  0  0  2  0  0  0  0  0  0
  162.6880  209.6780  157.2570 C   0  0  0  0  0  1  0  0  0  0  0  0
  1 19  1  1  0  0  0
  1  9  1  0  0  0  0
  2  4  1  0  0  0  0
  3  4  1  0  0  0  0
  4 26  1  6  0  0  0
  5  1  1  0  0  0  0
  5  8  2  0  0  0  0
  6  3  2  0  0  0  0
  7  5  1  0  0  0  0
  8  6  1  0  0  0  0
  9  6  1  0  0  0  0
  9  2  2  0  0  0  0
 10 13  1  0  0  0  0
 10  7  1  0  0  0  0
 11 15  2  0  0  0  0
 11 12  1  0  0  0  0
 12 10  2  0  0  0  0
 14 13  2  0  0  0  0
 15 14  1  0  0  0  0
 16 19  1  0  0  0  0
 17 21  1  0  0  0  0
 17 16  2  0  0  0  0
 18 20  1  0  0  0  0
 19 20  2  0  0  0  0
 21 18  2  0  0  0  0
 23 25  1  0  0  0  0
 23 21  1  0  0  0  0
 24 25  1  0  0  0  0
 25 22  2  0  0  0  0
 26 27  1  0  0  0  0
 27 28  1  0  0  0  0
M  END
>  <MODEL>
5

>  <REMARK>
 VINA RESULT:      -7.9      2.545      6.798
  Name = 
  5 active torsions:
  status: ('A' for Active; 'I' for Inactive)
    1  A    between atoms: C_1  and  N_26
    2  A    between atoms: C_4  and  C_13
    3  A    between atoms: C_4  and  N_15
    4  A    between atoms: C_5  and  C_16
    5  A    between atoms: N_17  and  C_24
                            x       y       z     vdW  Elec       q    Type
                         _______ _______ _______ _____ _____    ______ ____

>  <TORSDO>
F 5

$$$$
=
 OpenBabel11042421033D

 28 31  0  0  1  0  0  0  0  0999 V2000
  161.8990  208.5110  150.1340 C   0  0  2  0  0  3  0  0  0  0  0  0
  161.7220  205.9510  150.0380 C   0  0  0  0  0  3  0  0  0  0  0  0
  161.7790  206.2450  147.7000 C   0  0  0  0  0  3  0  0  0  0  0  0
  161.5950  205.3280  148.8550 C   0  0  0  0  0  0  0  0  0  0  0  0
  161.9050  209.3830  148.9230 C   0  0  0  0  0  0  0  0  0  0  0  0
  162.1680  207.3730  148.2610 C   0  0  0  0  0  0  0  0  0  0  0  0
  161.7190  210.8040  148.9650 N   0  0  0  0  0  2  0  0  0  0  0  0
  162.0250  208.7090  147.8110 N   0  0  0  0  0  0  0  0  0  0  0  0
  162.1080  207.2940  149.6560 C   0  0  1  0  0  3  0  0  0  0  0  0
  161.7000  211.7030  147.8480 C   0  0  0  0  0  0  0  0  0  0  0  0
  160.6280  212.7000  145.9180 C   0  0  0  0  0  3  0  0  0  0  0  0
  160.5960  211.8120  146.9940 C   0  0  0  0  0  3  0  0  0  0  0  0
  162.8230  212.4960  147.5980 C   0  0  0  0  0  3  0  0  0  0  0  0
  162.8360  213.3560  146.5440 N   0  0  0  0  0  0  0  0  0  0  0  0
  161.7700  213.4720  145.7070 C   0  0  0  0  0  3  0  0  0  0  0  0
  160.8110  207.9410  152.3160 C   0  0  0  0  0  3  0  0  0  0  0  0
  160.4280  208.2800  153.6160 C   0  0  0  0  0  3  0  0  0  0  0  0
  161.3930  210.4760  153.3290 C   0  0  0  0  0  3  0  0  0  0  0  0
  161.4860  208.8680  151.5080 C   0  0  0  0  0  0  0  0  0  0  0  0
  161.7750  210.1370  152.0290 C   0  0  0  0  0  3  0  0  0  0  0  0
  160.7160  209.5520  154.1320 C   0  0  0  0  0  0  0  0  0  0  0  0
  158.6710  211.5100  154.9490 O   0  0  0  0  0  0  0  0  0  0  0  0
  160.3400  209.9370  155.4600 N   0  0  0  0  0  2  0  0  0  0  0  0
  159.0800  211.1690  157.2610 C   0  0  0  0  0  1  0  0  0  0  0  0
  159.3380  210.8950  155.8230 C   0  0  0  0  0  0  0  0  0  0  0  0
  161.1450  203.9160  148.7230 C   0  0  0  0  0  2  0  0  0  0  0  0
  161.6030  203.3710  147.4570 N   0  0  0  0  0  2  0  0  0  0  0  0
  160.8150  202.1780  147.2070 C   0  0  0  0  0  1  0  0  0  0  0  0
  1 19  1  6  0  0  0
  3  6  2  0  0  0  0
  3  4  1  0  0  0  0
  4  2  2  0  0  0  0
  5  7  1  0  0  0  0
  5  1  1  0  0  0  0
  6  9  1  0  0  0  0
  8  6  1  0  0  0  0
  8  5  2  0  0  0  0
  9  2  1  6  0  0  0
  9  1  1  0  0  0  0
 10  7  1  0  0  0  0
 11 12  1  0  0  0  0
 12 10  2  0  0  0  0
 13 10  1  0  0  0  0
 14 13  2  0  0  0  0
 15 11  2  0  0  0  0
 15 14  1  0  0  0  0
 16 17  1  0  0  0  0
 17 21  2  0  0  0  0
 18 21  1  0  0  0  0
 19 20  1  0  0  0  0
 19 16  2  0  0  0  0
 20 18  2  0  0  0  0
 21 23  1  0  0  0  0
 22 25  2  0  0  0  0
 23 25  1  0  0  0  0
 25 24  1  0  0  0  0
 26  4  1  0  0  0  0
 27 26  1  0  0  0  0
 28 27  1  0  0  0  0
M  END
>  <MODEL>
6

>  <REMARK>
 VINA RESULT:      -7.2      2.381      7.589
  Name = 
  5 active torsions:
  status: ('A' for Active; 'I' for Inactive)
    1  A    between atoms: C_1  and  N_26
    2  A    between atoms: C_4  and  C_13
    3  A    between atoms: C_4  and  N_15
    4  A    between atoms: C_5  and  C_16
    5  A    between atoms: N_17  and  C_24
                            x       y       z     vdW  Elec       q    Type
                         _______ _______ _______ _____ _____    ______ ____

>  <TORSDO>
F 5

$$$$
=
 OpenBabel11042421033D

 28 31  0  0  1  0  0  0  0  0999 V2000
  161.8410  208.6320  151.0550 C   0  0  2  0  0  3  0  0  0  0  0  0
  162.0130  209.8180  148.7830 C   0  0  0  0  0  3  0  0  0  0  0  0
  161.7210  211.7950  150.0310 C   0  0  0  0  0  3  0  0  0  0  0  0
  161.8210  211.1440  148.6990 C   0  0  0  0  0  0  0  0  0  0  0  0
  161.5660  209.3430  152.3370 C   0  0  0  0  0  0  0  0  0  0  0  0
  162.0180  210.8250  150.8720 C   0  0  0  0  0  0  0  0  0  0  0  0
  161.1900  208.6780  153.5500 N   0  0  0  0  0  2  0  0  0  0  0  0
  161.6320  210.6420  152.2230 N   0  0  0  0  0  0  0  0  0  0  0  0
  162.1550  209.6010  150.2090 C   0  0  1  0  0  3  0  0  0  0  0  0
  160.8990  209.2910  154.8130 C   0  0  0  0  0  0  0  0  0  0  0  0
  159.4360  209.7380  156.6930 C   0  0  0  0  0  3  0  0  0  0  0  0
  159.6720  209.1160  155.4650 C   0  0  0  0  0  3  0  0  0  0  0  0
  161.8700  210.0970  155.4150 C   0  0  0  0  0  3  0  0  0  0  0  0
  161.6220  210.6940  156.6110 N   0  0  0  0  0  0  0  0  0  0  0  0
  160.4350  210.5320  157.2560 C   0  0  0  0  0  3  0  0  0  0  0  0
  161.8820  206.1950  151.6310 C   0  0  0  0  0  3  0  0  0  0  0  0
  161.6150  204.8600  151.3170 C   0  0  0  0  0  3  0  0  0  0  0  0
  160.7070  205.5420  149.1860 C   0  0  0  0  0  3  0  0  0  0  0  0
  161.5660  207.2170  150.7230 C   0  0  0  0  0  0  0  0  0  0  0  0
  160.9740  206.8770  149.4990 C   0  0  0  0  0  3  0  0  0  0  0  0
  161.0250  204.5250  150.0890 C   0  0  0  0  0  0  0  0  0  0  0  0
  161.5540  202.0780  151.6450 O   0  0  0  0  0  0  0  0  0  0  0  0
  160.7370  203.1670  149.7300 N   0  0  0  0  0  2  0  0  0  0  0  0
  160.6350  200.6620  149.9790 C   0  0  0  0  0  1  0  0  0  0  0  0
  161.0070  201.9980  150.5130 C   0  0  0  0  0  0  0  0  0  0  0  0
  161.5600  211.8490  147.4150 C   0  0  0  0  0  2  0  0  0  0  0  0
  162.5680  212.8720  147.2020 N   0  0  0  0  0  2  0  0  0  0  0  0
  161.9360  213.9270  146.4320 C   0  0  0  0  0  1  0  0  0  0  0  0
  1 19  1  6  0  0  0
  1  5  1  0  0  0  0
  3  6  2  0  0  0  0
  4  2  2  0  0  0  0
  4  3  1  0  0  0  0
  5  7  1  0  0  0  0
  6  8  1  0  0  0  0
  7 10  1  0  0  0  0
  8  5  2  0  0  0  0
  9  2  1  6  0  0  0
  9  6  1  0  0  0  0
  9  1  1  0  0  0  0
 10 13  2  0  0  0  0
 10 12  1  0  0  0  0
 11 15  1  0  0  0  0
 12 11  2  0  0  0  0
 13 14  1  0  0  0  0
 14 15  2  0  0  0  0
 17 16  1  0  0  0  0
 18 20  2  0  0  0  0
 18 21  1  0  0  0  0
 19 16  2  0  0  0  0
 20 19  1  0  0  0  0
 21 17  2  0  0  0  0
 23 21  1  0  0  0  0
 23 25  1  0  0  0  0
 24 25  1  0  0  0  0
 25 22  2  0  0  0  0
 26  4  1  0  0  0  0
 27 26  1  0  0  0  0
 28 27  1  0  0  0  0
M  END
>  <MODEL>
7

>  <REMARK>
 VINA RESULT:      -6.7      2.710      8.136
  Name = 
  5 active torsions:
  status: ('A' for Active; 'I' for Inactive)
    1  A    between atoms: C_1  and  N_26
    2  A    between atoms: C_4  and  C_13
    3  A    between atoms: C_4  and  N_15
    4  A    between atoms: C_5  and  C_16
    5  A    between atoms: N_17  and  C_24
                            x       y       z     vdW  Elec       q    Type
                         _______ _______ _______ _____ _____    ______ ____

>  <TORSDO>
F 5

$$$$
=
 OpenBabel11042421033D

 28 31  0  0  1  0  0  0  0  0999 V2000
  161.2970  209.7750  152.2640 C   0  0  2  0  0  3  0  0  0  0  0  0
  160.5580  211.2140  154.2590 C   0  0  0  0  0  3  0  0  0  0  0  0
  160.0640  209.1540  155.2920 C   0  0  0  0  0  3  0  0  0  0  0  0
  159.9970  210.6380  155.3350 C   0  0  2  0  0  3  0  0  0  0  0  0
  161.1730  208.2890  152.2300 C   0  0  0  0  0  0  0  0  0  0  0  0
  160.8180  208.9100  154.2380 C   0  0  0  0  0  0  0  0  0  0  0  0
  161.3120  207.5060  151.0360 N   0  0  0  0  0  2  0  0  0  0  0  0
  160.8510  207.7770  153.3880 N   0  0  0  0  0  0  0  0  0  0  0  0
  161.1090  210.0850  153.5380 C   0  0  0  0  0  0  0  0  0  0  0  0
  161.1950  206.0820  150.9220 C   0  0  0  0  0  0  0  0  0  0  0  0
  160.8300  204.0570  149.6420 C   0  0  0  0  0  3  0  0  0  0  0  0
  160.9390  205.4480  149.7000 C   0  0  0  0  0  3  0  0  0  0  0  0
  161.3360  205.2970  152.0700 C   0  0  0  0  0  3  0  0  0  0  0  0
  161.2260  203.9440  151.9940 N   0  0  0  0  0  0  0  0  0  0  0  0
  160.9790  203.3140  150.8130 C   0  0  0  0  0  3  0  0  0  0  0  0
  160.5440  211.8620  151.1040 C   0  0  0  0  0  3  0  0  0  0  0  0
  160.5960  212.7470  150.0240 C   0  0  0  0  0  3  0  0  0  0  0  0
  162.2500  211.3470  148.9560 C   0  0  0  0  0  3  0  0  0  0  0  0
  161.3430  210.7100  151.1190 C   0  0  0  0  0  0  0  0  0  0  0  0
  162.1980  210.4630  150.0360 C   0  0  0  0  0  3  0  0  0  0  0  0
  161.4500  212.4940  148.9400 C   0  0  0  0  0  0  0  0  0  0  0  0
  160.0660  212.2680  146.3480 O   0  0  0  0  0  0  0  0  0  0  0  0
  161.5310  213.3760  147.8130 N   0  0  0  0  0  2  0  0  0  0  0  0
  161.0470  214.2560  145.5030 C   0  0  0  0  0  1  0  0  0  0  0  0
  160.8420  213.2370  146.5650 C   0  0  0  0  0  0  0  0  0  0  0  0
  159.2370  211.4000  156.3630 C   0  0  0  0  0  2  0  0  0  0  0  0
  158.1850  212.1710  155.7250 N   0  0  0  0  0  2  0  0  0  0  0  0
  157.0510  211.2800  155.5690 C   0  0  0  0  0  1  0  0  0  0  0  0
  1 19  1  6  0  0  0
  1  9  1  0  0  0  0
  2  4  1  0  0  0  0
  3  4  1  0  0  0  0
  4 26  1  6  0  0  0
  5  1  1  0  0  0  0
  5  8  2  0  0  0  0
  6  3  2  0  0  0  0
  7  5  1  0  0  0  0
  8  6  1  0  0  0  0
  9  6  1  0  0  0  0
  9  2  2  0  0  0  0
 10  7  1  0  0  0  0
 10 13  1  0  0  0  0
 11 12  1  0  0  0  0
 11 15  2  0  0  0  0
 12 10  2  0  0  0  0
 14 13  2  0  0  0  0
 15 14  1  0  0  0  0
 16 19  1  0  0  0  0
 17 16  2  0  0  0  0
 18 20  1  0  0  0  0
 20 19  2  0  0  0  0
 21 18  2  0  0  0  0
 21 17  1  0  0  0  0
 22 25  2  0  0  0  0
 23 21  1  0  0  0  0
 24 25  1  0  0  0  0
 25 23  1  0  0  0  0
 27 26  1  0  0  0  0
 28 27  1  0  0  0  0
M  END
>  <MODEL>
8

>  <REMARK>
 VINA RESULT:      -6.7      2.070      2.951
  Name = 
  5 active torsions:
  status: ('A' for Active; 'I' for Inactive)
    1  A    between atoms: C_1  and  N_26
    2  A    between atoms: C_4  and  C_13
    3  A    between atoms: C_4  and  N_15
    4  A    between atoms: C_5  and  C_16
    5  A    between atoms: N_17  and  C_24
                            x       y       z     vdW  Elec       q    Type
                         _______ _______ _______ _____ _____    ______ ____

>  <TORSDO>
F 5

$$$$
=
 OpenBabel11042421033D

 28 31  0  0  1  0  0  0  0  0999 V2000
  161.0450  207.4360  150.6320 C   0  0  2  0  0  3  0  0  0  0  0  0
  161.2040  205.5780  148.8670 C   0  0  0  0  0  3  0  0  0  0  0  0
  161.0630  204.1100  150.7050 C   0  0  0  0  0  3  0  0  0  0  0  0
  161.2830  204.2920  149.2470 C   0  0  0  0  0  0  0  0  0  0  0  0
  160.9990  207.1760  152.1000 C   0  0  0  0  0  0  0  0  0  0  0  0
  160.7010  205.3090  151.1150 C   0  0  0  0  0  0  0  0  0  0  0  0
  161.1950  208.1920  153.0940 N   0  0  0  0  0  2  0  0  0  0  0  0
  160.8350  205.9140  152.3900 N   0  0  0  0  0  0  0  0  0  0  0  0
  160.8110  206.2520  150.0880 C   0  0  1  0  0  3  0  0  0  0  0  0
  161.1780  208.0170  154.5170 C   0  0  0  0  0  0  0  0  0  0  0  0
  161.8220  208.6590  156.7630 C   0  0  0  0  0  3  0  0  0  0  0  0
  161.8680  208.8730  155.3840 C   0  0  0  0  0  3  0  0  0  0  0  0
  160.4510  206.9540  155.0610 C   0  0  0  0  0  3  0  0  0  0  0  0
  160.4190  206.7610  156.4060 N   0  0  0  0  0  0  0  0  0  0  0  0
  161.0840  207.5850  157.2610 C   0  0  0  0  0  3  0  0  0  0  0  0
  161.8950  208.6120  148.5920 C   0  0  0  0  0  3  0  0  0  0  0  0
  162.3280  209.7690  147.9390 C   0  0  0  0  0  3  0  0  0  0  0  0
  161.9930  211.0390  149.9660 C   0  0  0  0  0  3  0  0  0  0  0  0
  161.5100  208.6580  149.9400 C   0  0  0  0  0  0  0  0  0  0  0  0
  161.5620  209.8830  150.6190 C   0  0  0  0  0  3  0  0  0  0  0  0
  162.3810  210.9920  148.6230 C   0  0  0  0  0  0  0  0  0  0  0  0
  160.9400  212.6380  146.6490 O   0  0  0  0  0  0  0  0  0  0  0  0
  162.8190  212.2010  147.9890 N   0  0  0  0  0  2  0  0  0  0  0  0
  162.7060  214.2120  146.4760 C   0  0  0  0  0  1  0  0  0  0  0  0
  162.0910  212.9790  147.0310 C   0  0  0  0  0  0  0  0  0  0  0  0
  161.7200  203.1990  148.3360 C   0  0  0  0  0  2  0  0  0  0  0  0
  160.6680  202.2050  148.2220 N   0  0  0  0  0  2  0  0  0  0  0  0
  161.2030  200.9680  148.7590 C   0  0  0  0  0  1  0  0  0  0  0  0
  1 19  1  6  0  0  0
  1  5  1  0  0  0  0
  2  4  2  0  0  0  0
  3  6  2  0  0  0  0
  4  3  1  0  0  0  0
  5  8  2  0  0  0  0
  5  7  1  0  0  0  0
  6  8  1  0  0  0  0
  7 10  1  0  0  0  0
  9  2  1  6  0  0  0
  9  1  1  0  0  0  0
  9  6  1  0  0  0  0
 10 13  2  0  0  0  0
 10 12  1  0  0  0  0
 11 15  1  0  0  0  0
 12 11  2  0  0  0  0
 13 14  1  0  0  0  0
 14 15  2  0  0  0  0
 16 19  1  0  0  0  0
 17 16  2  0  0  0  0
 17 21  1  0  0  0  0
 18 20  1  0  0  0  0
 19 20  2  0  0  0  0
 21 18  2  0  0  0  0
 22 25  2  0  0  0  0
 23 21  1  0  0  0  0
 24 25  1  0  0  0  0
 25 23  1  0  0  0  0
 26  4  1  0  0  0  0
 27 26  1  0  0  0  0
 27 28  1  0  0  0  0
M  END
>  <MODEL>
9

>  <REMARK>
 VINA RESULT:      -6.6      1.148      5.873
  Name = 
  5 active torsions:
  status: ('A' for Active; 'I' for Inactive)
    1  A    between atoms: C_1  and  N_26
    2  A    between atoms: C_4  and  C_13
    3  A    between atoms: C_4  and  N_15
    4  A    between atoms: C_5  and  C_16
    5  A    between atoms: N_17  and  C_24
                            x       y       z     vdW  Elec       q    Type
                         _______ _______ _______ _____ _____    ______ ____

>  <TORSDO>
F 5

$$$$
