=
 OpenBabel11042420453D

 27 29  0  0  1  0  0  0  0  0999 V2000
  161.9550  206.7490  150.5010 N   0  0  0  0  0  0  0  0  0  0  0  0
  160.9360  208.4100  151.8730 C   0  0  0  0  0  2  0  0  0  0  0  0
  160.4240  209.5030  152.2890 C   0  0  0  0  0  0  0  0  0  0  0  0
  162.0400  205.2190  152.9370 O   0  0  0  0  0  0  0  0  0  0  0  0
  159.6700  209.6970  156.1290 C   0  0  0  0  0  3  0  0  0  0  0  0
  161.4740  206.3420  152.9930 C   0  0  0  0  0  0  0  0  0  0  0  0
  159.9580  210.4140  153.0510 C   0  0  0  0  0  0  0  0  0  0  0  0
  161.4430  207.2090  151.7660 C   0  0  2  0  0  3  0  0  0  0  0  0
  160.8210  206.7160  154.2830 C   0  0  0  0  0  3  0  0  0  0  0  0
  160.7100  207.9800  154.6890 C   0  0  0  0  0  3  0  0  0  0  0  0
  160.1980  210.9090  155.3900 C   0  0  0  0  0  2  0  0  0  0  0  0
  159.5700  211.1570  154.0450 C   0  0  0  0  0  2  0  0  0  0  0  0
  159.9100  208.4080  155.8380 C   0  0  0  0  0  3  0  0  0  0  0  0
  161.5970  205.4880  150.0040 N   0  0  0  0  0  0  0  0  0  0  0  0
  161.5370  204.5450  148.9630 C   0  0  0  0  0  0  0  0  0  0  0  0
  160.4880  203.0290  150.5870 C   0  0  0  0  0  3  0  0  0  0  0  0
  160.9870  202.4790  148.1310 C   0  0  0  0  0  0  0  0  0  0  0  0
  161.0490  204.2080  150.2050 C   0  0  0  0  0  0  0  0  0  0  0  0
  161.5650  203.7690  147.8430 C   0  0  0  0  0  3  0  0  0  0  0  0
  160.4700  202.1320  149.4610 C   0  0  0  0  0  3  0  0  0  0  0  0
  160.5160  201.8030  145.9050 O   0  0  0  0  0  0  0  0  0  0  0  0
  161.2910  200.1610  147.2950 O   0  0  0  0  0  1  0  0  0  0  0  0
  160.9160  201.4780  147.0540 C   0  0  0  0  0  0  0  0  0  0  0  0
  162.7630  207.6260  149.6600 C   0  0  0  0  0  2  0  0  0  0  0  0
  161.1860  207.6740  147.8740 O   0  0  0  0  0  0  0  0  0  0  0  0
  161.9010  208.3340  148.6710 C   0  0  0  0  0  0  0  0  0  0  0  0
  161.9100  209.7200  148.6070 O   0  0  0  0  0  1  0  0  0  0  0  0
  2  3  1  0  0  0  0
  3  7  3  0  0  0  0
  4  6  2  0  0  0  0
  6  9  1  0  0  0  0
  7 12  1  0  0  0  0
  8  1  1  1  0  0  0
  8  2  1  0  0  0  0
  8  6  1  0  0  0  0
  9 10  2  0  0  0  0
 10 13  1  0  0  0  0
 11  5  1  0  0  0  0
 12 11  1  0  0  0  0
 13  5  2  0  0  0  0
 14 18  1  0  0  0  0
 14  1  1  0  0  0  0
 15 14  1  0  0  0  0
 15 18  1  0  0  0  0
 17 20  2  0  0  0  0
 18 16  2  0  0  0  0
 19 17  1  0  0  0  0
 19 15  2  0  0  0  0
 20 16  1  0  0  0  0
 21 23  2  0  0  0  0
 23 22  1  0  0  0  0
 23 17  1  0  0  0  0
 24  1  1  0  0  0  0
 25 26  2  0  0  0  0
 26 24  1  0  0  0  0
 27 26  1  0  0  0  0
M  END
>  <MODEL>
1

>  <REMARK>
 VINA RESULT:      -9.1      0.000      0.000
  Name = 
  5 active torsions:
  status: ('A' for Active; 'I' for Inactive)
    1  A    between atoms: N_1  and  N_2
    2  A    between atoms: N_2  and  C_6
    3  A    between atoms: N_2  and  C_15
    4  A    between atoms: C_6  and  C_13
    5  A    between atoms: C_19  and  C_23
                            x       y       z     vdW  Elec       q    Type
                         _______ _______ _______ _____ _____    ______ ____

>  <TORSDO>
F 5

$$$$
=
 OpenBabel11042420453D

 27 29  0  0  1  0  0  0  0  0999 V2000
  161.9270  207.5140  149.7120 N   0  0  0  0  0  0  0  0  0  0  0  0
  161.2900  205.2240  149.8860 C   0  0  0  0  0  2  0  0  0  0  0  0
  160.9500  204.0840  150.3490 C   0  0  0  0  0  0  0  0  0  0  0  0
  162.2530  206.9000  146.9200 O   0  0  0  0  0  0  0  0  0  0  0  0
  160.8270  201.1440  147.7610 C   0  0  0  0  0  3  0  0  0  0  0  0
  161.8060  205.9790  147.6540 C   0  0  0  0  0  0  0  0  0  0  0  0
  160.6930  202.8380  150.4420 C   0  0  0  0  0  0  0  0  0  0  0  0
  161.6630  206.2230  149.1290 C   0  0  2  0  0  3  0  0  0  0  0  0
  161.4000  204.7070  146.9860 C   0  0  0  0  0  3  0  0  0  0  0  0
  161.4690  203.5240  147.5960 C   0  0  0  0  0  3  0  0  0  0  0  0
  161.3400  200.9070  149.1660 C   0  0  0  0  0  2  0  0  0  0  0  0
  160.5350  201.5610  150.2570 C   0  0  0  0  0  2  0  0  0  0  0  0
  160.9000  202.2870  147.0590 C   0  0  0  0  0  3  0  0  0  0  0  0
  161.5120  207.8040  151.0200 N   0  0  0  0  0  0  0  0  0  0  0  0
  161.3490  207.4440  152.3690 C   0  0  0  0  0  0  0  0  0  0  0  0
  160.4320  209.6980  152.7110 C   0  0  0  0  0  3  0  0  0  0  0  0
  160.7050  207.9020  154.5230 C   0  0  0  0  0  0  0  0  0  0  0  0
  160.9710  208.7010  151.9560 C   0  0  0  0  0  0  0  0  0  0  0  0
  161.2690  206.9230  153.6250 C   0  0  0  0  0  3  0  0  0  0  0  0
  160.3050  209.2410  154.0700 C   0  0  0  0  0  3  0  0  0  0  0  0
  159.4730  206.9750  156.3270 O   0  0  0  0  0  0  0  0  0  0  0  0
  161.5230  207.8330  156.8660 O   0  0  0  0  0  1  0  0  0  0  0  0
  160.5270  207.5450  155.9400 C   0  0  0  0  0  0  0  0  0  0  0  0
  162.7280  208.5040  148.9990 C   0  0  0  0  0  2  0  0  0  0  0  0
  161.1940  209.9650  147.9070 O   0  0  0  0  0  0  0  0  0  0  0  0
  161.9760  209.7860  148.8750 C   0  0  0  0  0  0  0  0  0  0  0  0
  162.1630  210.7950  149.8100 O   0  0  0  0  0  1  0  0  0  0  0  0
  1 14  1  0  0  0  0
  2  3  1  0  0  0  0
  3  7  3  0  0  0  0
  4  6  2  0  0  0  0
  5 11  1  0  0  0  0
  6  8  1  0  0  0  0
  8  1  1  1  0  0  0
  8  2  1  0  0  0  0
  9 10  2  0  0  0  0
  9  6  1  0  0  0  0
 11 12  1  0  0  0  0
 12  7  1  0  0  0  0
 13 10  1  0  0  0  0
 13  5  2  0  0  0  0
 14 18  1  0  0  0  0
 14 15  1  0  0  0  0
 15 19  1  0  0  0  0
 16 20  2  0  0  0  0
 17 23  1  0  0  0  0
 18 15  2  0  0  0  0
 18 16  1  0  0  0  0
 19 17  2  0  0  0  0
 20 17  1  0  0  0  0
 23 21  2  0  0  0  0
 23 22  1  0  0  0  0
 24  1  1  0  0  0  0
 25 26  2  0  0  0  0
 26 24  1  0  0  0  0
 26 27  1  0  0  0  0
M  END
>  <MODEL>
2

>  <REMARK>
 VINA RESULT:      -8.6      2.204      7.512
  Name = 
  5 active torsions:
  status: ('A' for Active; 'I' for Inactive)
    1  A    between atoms: N_1  and  N_2
    2  A    between atoms: N_2  and  C_6
    3  A    between atoms: N_2  and  C_15
    4  A    between atoms: C_6  and  C_13
    5  A    between atoms: C_19  and  C_23
                            x       y       z     vdW  Elec       q    Type
                         _______ _______ _______ _____ _____    ______ ____

>  <TORSDO>
F 5

$$$$
=
 OpenBabel11042420453D

 27 29  0  0  1  0  0  0  0  0999 V2000
  161.5630  208.8200  152.1770 N   0  0  0  0  0  0  0  0  0  0  0  0
  159.8710  210.4090  152.7140 C   0  0  0  0  0  2  0  0  0  0  0  0
  159.0150  211.3540  152.6370 C   0  0  0  0  0  0  0  0  0  0  0  0
  161.4880  208.2360  154.9940 O   0  0  0  0  0  0  0  0  0  0  0  0
  157.3940  212.4850  156.0210 C   0  0  0  0  0  3  0  0  0  0  0  0
  160.6550  209.0790  154.5680 C   0  0  0  0  0  0  0  0  0  0  0  0
  158.1730  212.2590  152.9530 C   0  0  0  0  0  0  0  0  0  0  0  0
  160.6790  209.4630  153.1150 C   0  0  2  0  0  3  0  0  0  0  0  0
  159.6560  209.6070  155.5430 C   0  0  0  0  0  3  0  0  0  0  0  0
  159.1360  210.8310  155.4440 C   0  0  0  0  0  3  0  0  0  0  0  0
  157.7460  213.5080  154.9610 C   0  0  0  0  0  2  0  0  0  0  0  0
  157.3940  213.1100  153.5520 C   0  0  0  0  0  2  0  0  0  0  0  0
  158.0160  211.3170  156.2510 C   0  0  0  0  0  3  0  0  0  0  0  0
  161.3830  207.4710  151.8380 N   0  0  0  0  0  0  0  0  0  0  0  0
  161.2020  206.4540  150.8850 C   0  0  0  0  0  0  0  0  0  0  0  0
  161.2010  204.8810  152.7730 C   0  0  0  0  0  3  0  0  0  0  0  0
  160.9340  204.2510  150.3000 C   0  0  0  0  0  0  0  0  0  0  0  0
  161.2790  206.1220  152.2180 C   0  0  0  0  0  0  0  0  0  0  0  0
  161.0320  205.6110  149.8270 C   0  0  0  0  0  3  0  0  0  0  0  0
  161.0180  203.9100  151.7270 C   0  0  0  0  0  3  0  0  0  0  0  0
  160.1070  202.1310  149.6270 O   0  0  0  0  0  1  0  0  0  0  0  0
  161.2700  203.2900  148.0360 O   0  0  0  0  0  0  0  0  0  0  0  0
  160.7450  203.1710  149.3180 C   0  0  0  0  0  0  0  0  0  0  0  0
  162.5910  209.5830  151.4760 C   0  0  0  0  0  2  0  0  0  0  0  0
  161.7010  211.1800  149.9460 O   0  0  0  0  0  1  0  0  0  0  0  0
  162.0990  210.0010  150.1320 C   0  0  0  0  0  0  0  0  0  0  0  0
  162.0500  209.0820  149.0930 O   0  0  0  0  0  0  0  0  0  0  0  0
  2  8  1  0  0  0  0
  3  2  1  0  0  0  0
  3  7  3  0  0  0  0
  5 13  2  0  0  0  0
  6  4  2  0  0  0  0
  6  9  1  0  0  0  0
  7 12  1  0  0  0  0
  8  1  1  1  0  0  0
  8  6  1  0  0  0  0
 10  9  2  0  0  0  0
 10 13  1  0  0  0  0
 11  5  1  0  0  0  0
 12 11  1  0  0  0  0
 14  1  1  0  0  0  0
 14 18  1  0  0  0  0
 15 14  1  0  0  0  0
 15 18  1  0  0  0  0
 17 20  2  0  0  0  0
 18 16  2  0  0  0  0
 19 17  1  0  0  0  0
 19 15  2  0  0  0  0
 20 16  1  0  0  0  0
 22 23  2  0  0  0  0
 23 21  1  0  0  0  0
 23 17  1  0  0  0  0
 24  1  1  0  0  0  0
 25 26  1  0  0  0  0
 26 24  1  0  0  0  0
 27 26  2  0  0  0  0
M  END
>  <MODEL>
3

>  <REMARK>
 VINA RESULT:      -8.5      2.015      3.005
  Name = 
  5 active torsions:
  status: ('A' for Active; 'I' for Inactive)
    1  A    between atoms: N_1  and  N_2
    2  A    between atoms: N_2  and  C_6
    3  A    between atoms: N_2  and  C_15
    4  A    between atoms: C_6  and  C_13
    5  A    between atoms: C_19  and  C_23
                            x       y       z     vdW  Elec       q    Type
                         _______ _______ _______ _____ _____    ______ ____

>  <TORSDO>
F 5

$$$$
=
 OpenBabel11042420453D

 27 29  0  0  1  0  0  0  0  0999 V2000
  161.4150  209.0790  151.9070 N   0  0  0  0  0  0  0  0  0  0  0  0
  161.3640  207.0150  150.7170 C   0  0  0  0  0  2  0  0  0  0  0  0
  161.3200  206.1460  149.7820 C   0  0  0  0  0  0  0  0  0  0  0  0
  161.2220  207.3970  154.2330 O   0  0  0  0  0  0  0  0  0  0  0  0
  160.8830  202.4210  150.9180 C   0  0  0  0  0  3  0  0  0  0  0  0
  161.3140  206.8160  153.1200 C   0  0  0  0  0  0  0  0  0  0  0  0
  161.2060  205.0400  149.1560 C   0  0  0  0  0  0  0  0  0  0  0  0
  161.3660  207.6400  151.8650 C   0  0  2  0  0  3  0  0  0  0  0  0
  161.4150  205.3260  153.1320 C   0  0  0  0  0  3  0  0  0  0  0  0
  160.9540  204.5690  152.1360 C   0  0  0  0  0  3  0  0  0  0  0  0
  160.1800  202.9310  149.6770 C   0  0  0  0  0  2  0  0  0  0  0  0
  161.0190  203.8080  148.7860 C   0  0  0  0  0  2  0  0  0  0  0  0
  161.2060  203.1320  152.0110 C   0  0  0  0  0  3  0  0  0  0  0  0
  160.5050  209.8000  152.6940 N   0  0  0  0  0  0  0  0  0  0  0  0
  159.4350  210.7030  152.8260 C   0  0  0  0  0  0  0  0  0  0  0  0
  159.5960  210.3170  155.2480 C   0  0  0  0  0  3  0  0  0  0  0  0
  157.9170  211.8730  154.0870 C   0  0  0  0  0  0  0  0  0  0  0  0
  159.9740  210.1260  153.9540 C   0  0  0  0  0  0  0  0  0  0  0  0
  158.4040  211.5900  152.7580 C   0  0  0  0  0  3  0  0  0  0  0  0
  158.5010  211.2500  155.2830 C   0  0  0  0  0  3  0  0  0  0  0  0
  156.5630  213.6840  153.3670 O   0  0  0  0  0  0  0  0  0  0  0  0
  155.9840  212.7520  155.3730 O   0  0  0  0  0  1  0  0  0  0  0  0
  156.7970  212.8140  154.2470 C   0  0  0  0  0  0  0  0  0  0  0  0
  162.4780  209.8090  151.2240 C   0  0  0  0  0  2  0  0  0  0  0  0
  161.5120  211.5800  149.9550 O   0  0  0  0  0  1  0  0  0  0  0  0
  161.9650  210.4070  149.9580 C   0  0  0  0  0  0  0  0  0  0  0  0
  161.9560  209.6580  148.7890 O   0  0  0  0  0  0  0  0  0  0  0  0
  1 14  1  0  0  0  0
  2  8  1  0  0  0  0
  3  2  1  0  0  0  0
  5 13  2  0  0  0  0
  6  9  1  0  0  0  0
  6  4  2  0  0  0  0
  7  3  3  0  0  0  0
  8  1  1  6  0  0  0
  8  6  1  0  0  0  0
 10  9  2  0  0  0  0
 11  5  1  0  0  0  0
 12  7  1  0  0  0  0
 12 11  1  0  0  0  0
 13 10  1  0  0  0  0
 14 15  1  0  0  0  0
 14 18  1  0  0  0  0
 15 18  1  0  0  0  0
 16 20  1  0  0  0  0
 17 23  1  0  0  0  0
 17 20  2  0  0  0  0
 18 16  2  0  0  0  0
 19 15  2  0  0  0  0
 19 17  1  0  0  0  0
 21 23  2  0  0  0  0
 23 22  1  0  0  0  0
 24  1  1  0  0  0  0
 25 26  1  0  0  0  0
 26 24  1  0  0  0  0
 27 26  2  0  0  0  0
M  END
>  <MODEL>
4

>  <REMARK>
 VINA RESULT:      -8.5      3.006      7.852
  Name = 
  5 active torsions:
  status: ('A' for Active; 'I' for Inactive)
    1  A    between atoms: N_1  and  N_2
    2  A    between atoms: N_2  and  C_6
    3  A    between atoms: N_2  and  C_15
    4  A    between atoms: C_6  and  C_13
    5  A    between atoms: C_19  and  C_23
                            x       y       z     vdW  Elec       q    Type
                         _______ _______ _______ _____ _____    ______ ____

>  <TORSDO>
F 5

$$$$
=
 OpenBabel11042420453D

 27 29  0  0  1  0  0  0  0  0999 V2000
  161.3160  207.4860  150.3980 N   0  0  0  0  0  0  0  0  0  0  0  0
  161.0560  207.4100  152.7650 C   0  0  0  0  0  2  0  0  0  0  0  0
  160.7770  207.0250  153.9510 C   0  0  0  0  0  0  0  0  0  0  0  0
  162.0870  210.2170  150.8720 O   0  0  0  0  0  0  0  0  0  0  0  0
  161.1040  209.7380  156.7600 C   0  0  0  0  0  3  0  0  0  0  0  0
  161.8470  209.5120  151.8870 C   0  0  0  0  0  0  0  0  0  0  0  0
  160.5600  207.0230  155.2080 C   0  0  0  0  0  0  0  0  0  0  0  0
  161.3910  208.0930  151.7020 C   0  0  2  0  0  3  0  0  0  0  0  0
  162.0850  210.1340  153.2230 C   0  0  0  0  0  3  0  0  0  0  0  0
  161.3850  209.7940  154.3060 C   0  0  0  0  0  3  0  0  0  0  0  0
  159.9760  208.7280  156.7980 C   0  0  0  0  0  2  0  0  0  0  0  0
  160.3750  207.3160  156.4610 C   0  0  0  0  0  2  0  0  0  0  0  0
  161.7120  210.2260  155.6660 C   0  0  0  0  0  3  0  0  0  0  0  0
  161.1880  206.0960  150.2650 N   0  0  0  0  0  0  0  0  0  0  0  0
  161.1870  204.9270  149.4840 C   0  0  0  0  0  0  0  0  0  0  0  0
  160.7830  203.6990  151.5740 C   0  0  0  0  0  3  0  0  0  0  0  0
  161.0090  202.6520  149.2420 C   0  0  0  0  0  0  0  0  0  0  0  0
  160.9900  204.8290  150.8420 C   0  0  0  0  0  0  0  0  0  0  0  0
  161.2200  203.9130  148.5740 C   0  0  0  0  0  3  0  0  0  0  0  0
  160.8000  202.5610  150.6940 C   0  0  0  0  0  3  0  0  0  0  0  0
  161.3520  200.3210  148.9570 O   0  0  0  0  0  1  0  0  0  0  0  0
  160.6180  201.4480  147.1070 O   0  0  0  0  0  0  0  0  0  0  0  0
  161.0060  201.4170  148.4420 C   0  0  0  0  0  0  0  0  0  0  0  0
  161.2590  208.3090  149.1940 C   0  0  0  0  0  2  0  0  0  0  0  0
  163.1170  207.4360  147.9830 O   0  0  0  0  0  1  0  0  0  0  0  0
  161.8690  207.5850  148.0430 C   0  0  0  0  0  0  0  0  0  0  0  0
  161.0650  207.1030  147.0190 O   0  0  0  0  0  0  0  0  0  0  0  0
  2  3  1  0  0  0  0
  3  7  3  0  0  0  0
  4  6  2  0  0  0  0
  5 11  1  0  0  0  0
  6  9  1  0  0  0  0
  7 12  1  0  0  0  0
  8  1  1  6  0  0  0
  8  6  1  0  0  0  0
  8  2  1  0  0  0  0
  9 10  2  0  0  0  0
 10 13  1  0  0  0  0
 12 11  1  0  0  0  0
 13  5  2  0  0  0  0
 14  1  1  0  0  0  0
 14 18  1  0  0  0  0
 15 14  1  0  0  0  0
 15 18  1  0  0  0  0
 17 20  2  0  0  0  0
 18 16  2  0  0  0  0
 19 17  1  0  0  0  0
 19 15  2  0  0  0  0
 20 16  1  0  0  0  0
 22 23  2  0  0  0  0
 23 21  1  0  0  0  0
 23 17  1  0  0  0  0
 24  1  1  0  0  0  0
 25 26  1  0  0  0  0
 26 24  1  0  0  0  0
 27 26  2  0  0  0  0
M  END
>  <MODEL>
5

>  <REMARK>
 VINA RESULT:      -8.4      1.626      2.482
  Name = 
  5 active torsions:
  status: ('A' for Active; 'I' for Inactive)
    1  A    between atoms: N_1  and  N_2
    2  A    between atoms: N_2  and  C_6
    3  A    between atoms: N_2  and  C_15
    4  A    between atoms: C_6  and  C_13
    5  A    between atoms: C_19  and  C_23
                            x       y       z     vdW  Elec       q    Type
                         _______ _______ _______ _____ _____    ______ ____

>  <TORSDO>
F 5

$$$$
=
 OpenBabel11042420453D

 27 29  0  0  1  0  0  0  0  0999 V2000
  161.1980  209.8530  154.1280 N   0  0  0  0  0  0  0  0  0  0  0  0
  161.4140  208.5770  152.1270 C   0  0  0  0  0  2  0  0  0  0  0  0
  161.5380  208.2420  150.9010 C   0  0  0  0  0  0  0  0  0  0  0  0
  160.8100  207.2850  155.3670 O   0  0  0  0  0  0  0  0  0  0  0  0
  161.1730  204.4190  150.1210 C   0  0  0  0  0  3  0  0  0  0  0  0
  161.0740  207.2860  154.1350 C   0  0  0  0  0  0  0  0  0  0  0  0
  161.5660  207.5540  149.8270 C   0  0  0  0  0  0  0  0  0  0  0  0
  161.2370  208.5980  153.4220 C   0  0  2  0  0  3  0  0  0  0  0  0
  161.2570  205.9600  153.4740 C   0  0  0  0  0  3  0  0  0  0  0  0
  160.9680  205.7550  152.1880 C   0  0  0  0  0  3  0  0  0  0  0  0
  160.6040  205.4520  149.1710 C   0  0  0  0  0  2  0  0  0  0  0  0
  161.4970  206.6350  148.9090 C   0  0  0  0  0  2  0  0  0  0  0  0
  161.3150  204.5390  151.4510 C   0  0  0  0  0  3  0  0  0  0  0  0
  159.9800  210.5160  154.3360 N   0  0  0  0  0  0  0  0  0  0  0  0
  158.8700  210.8310  155.1390 C   0  0  0  0  0  0  0  0  0  0  0  0
  158.1140  212.2580  153.2870 C   0  0  0  0  0  3  0  0  0  0  0  0
  156.8900  211.9260  155.5170 C   0  0  0  0  0  0  0  0  0  0  0  0
  158.9780  211.3940  153.8880 C   0  0  0  0  0  0  0  0  0  0  0  0
  157.8750  211.0180  156.0510 C   0  0  0  0  0  3  0  0  0  0  0  0
  157.0160  212.5210  154.1790 C   0  0  0  0  0  3  0  0  0  0  0  0
  155.2530  211.4380  157.1650 O   0  0  0  0  0  1  0  0  0  0  0  0
  155.1190  213.5170  156.2220 O   0  0  0  0  0  0  0  0  0  0  0  0
  155.7200  212.2690  156.3420 C   0  0  0  0  0  0  0  0  0  0  0  0
  162.4040  210.4030  154.7380 C   0  0  0  0  0  2  0  0  0  0  0  0
  162.5750  209.3400  156.8640 O   0  0  0  0  0  0  0  0  0  0  0  0
  162.2880  210.3840  156.2240 C   0  0  0  0  0  0  0  0  0  0  0  0
  161.8320  211.5080  156.9000 O   0  0  0  0  0  1  0  0  0  0  0  0
  1 14  1  0  0  0  0
  1 24  1  0  0  0  0
  2  8  1  0  0  0  0
  3  2  1  0  0  0  0
  5 13  2  0  0  0  0
  6  4  2  0  0  0  0
  7  3  3  0  0  0  0
  8  1  1  6  0  0  0
  8  6  1  0  0  0  0
  9  6  1  0  0  0  0
 10  9  2  0  0  0  0
 11  5  1  0  0  0  0
 12 11  1  0  0  0  0
 12  7  1  0  0  0  0
 13 10  1  0  0  0  0
 14 15  1  0  0  0  0
 15 19  1  0  0  0  0
 16 18  1  0  0  0  0
 16 20  2  0  0  0  0
 17 19  2  0  0  0  0
 17 23  1  0  0  0  0
 18 14  1  0  0  0  0
 18 15  2  0  0  0  0
 20 17  1  0  0  0  0
 22 23  2  0  0  0  0
 23 21  1  0  0  0  0
 24 26  1  0  0  0  0
 26 25  2  0  0  0  0
 26 27  1  0  0  0  0
M  END
>  <MODEL>
6

>  <REMARK>
 VINA RESULT:      -8.2      4.219      8.742
  Name = 
  5 active torsions:
  status: ('A' for Active; 'I' for Inactive)
    1  A    between atoms: N_1  and  N_2
    2  A    between atoms: N_2  and  C_6
    3  A    between atoms: N_2  and  C_15
    4  A    between atoms: C_6  and  C_13
    5  A    between atoms: C_19  and  C_23
                            x       y       z     vdW  Elec       q    Type
                         _______ _______ _______ _____ _____    ______ ____

>  <TORSDO>
F 5

$$$$
=
 OpenBabel11042420453D

 27 29  0  0  1  0  0  0  0  0999 V2000
  161.2870  207.7750  152.9100 N   0  0  0  0  0  0  0  0  0  0  0  0
  161.0460  206.1880  151.1490 C   0  0  0  0  0  2  0  0  0  0  0  0
  160.8310  205.1110  150.4980 C   0  0  0  0  0  0  0  0  0  0  0  0
  162.2550  209.4990  150.8200 O   0  0  0  0  0  0  0  0  0  0  0  0
  161.7410  205.1950  146.6870 C   0  0  0  0  0  3  0  0  0  0  0  0
  161.8460  208.3600  150.4710 C   0  0  0  0  0  0  0  0  0  0  0  0
  160.7870  204.2460  149.5610 C   0  0  0  0  0  0  0  0  0  0  0  0
  161.3750  207.3960  151.5230 C   0  0  2  0  0  3  0  0  0  0  0  0
  161.8110  208.0640  149.0080 C   0  0  0  0  0  3  0  0  0  0  0  0
  161.9690  206.8330  148.5220 C   0  0  0  0  0  3  0  0  0  0  0  0
  162.0050  203.9510  147.5100 C   0  0  0  0  0  2  0  0  0  0  0  0
  160.8980  203.5690  148.4560 C   0  0  0  0  0  2  0  0  0  0  0  0
  161.7460  206.4660  147.1230 C   0  0  0  0  0  3  0  0  0  0  0  0
  160.8070  209.0410  153.2740 N   0  0  0  0  0  0  0  0  0  0  0  0
  159.9340  210.1270  153.0910 C   0  0  0  0  0  0  0  0  0  0  0  0
  161.0140  211.1440  155.0500 C   0  0  0  0  0  3  0  0  0  0  0  0
  159.1110  212.1860  153.6810 C   0  0  0  0  0  0  0  0  0  0  0  0
  160.8380  210.1580  154.1280 C   0  0  0  0  0  0  0  0  0  0  0  0
  159.0150  211.0780  152.7620 C   0  0  0  0  0  3  0  0  0  0  0  0
  160.0810  212.2060  154.7850 C   0  0  0  0  0  3  0  0  0  0  0  0
  157.2310  213.5010  154.2880 O   0  0  0  0  0  1  0  0  0  0  0  0
  158.4150  214.2430  152.4780 O   0  0  0  0  0  0  0  0  0  0  0  0
  158.2050  213.3330  153.5070 C   0  0  0  0  0  0  0  0  0  0  0  0
  161.5850  206.8130  153.9660 C   0  0  0  0  0  2  0  0  0  0  0  0
  159.6450  206.9840  155.3400 O   0  0  0  0  0  0  0  0  0  0  0  0
  160.8810  207.1900  155.2250 C   0  0  0  0  0  0  0  0  0  0  0  0
  161.5800  207.8000  156.2580 O   0  0  0  0  0  1  0  0  0  0  0  0
  1 14  1  0  0  0  0
  1 24  1  0  0  0  0
  2  8  1  0  0  0  0
  3  2  1  0  0  0  0
  5 13  2  0  0  0  0
  5 11  1  0  0  0  0
  6  4  2  0  0  0  0
  6  8  1  0  0  0  0
  7  3  3  0  0  0  0
  8  1  1  1  0  0  0
  9  6  1  0  0  0  0
 10  9  2  0  0  0  0
 11 12  1  0  0  0  0
 12  7  1  0  0  0  0
 13 10  1  0  0  0  0
 14 18  1  0  0  0  0
 15 14  1  0  0  0  0
 15 18  1  0  0  0  0
 17 20  2  0  0  0  0
 18 16  2  0  0  0  0
 19 15  2  0  0  0  0
 19 17  1  0  0  0  0
 20 16  1  0  0  0  0
 22 23  2  0  0  0  0
 23 17  1  0  0  0  0
 23 21  1  0  0  0  0
 24 26  1  0  0  0  0
 26 25  2  0  0  0  0
 26 27  1  0  0  0  0
M  END
>  <MODEL>
7

>  <REMARK>
 VINA RESULT:      -8.1      3.184      8.552
  Name = 
  5 active torsions:
  status: ('A' for Active; 'I' for Inactive)
    1  A    between atoms: N_1  and  N_2
    2  A    between atoms: N_2  and  C_6
    3  A    between atoms: N_2  and  C_15
    4  A    between atoms: C_6  and  C_13
    5  A    between atoms: C_19  and  C_23
                            x       y       z     vdW  Elec       q    Type
                         _______ _______ _______ _____ _____    ______ ____

>  <TORSDO>
F 5

$$$$
=
 OpenBabel11042420453D

 27 29  0  0  1  0  0  0  0  0999 V2000
  161.7410  205.5540  151.3570 N   0  0  0  0  0  0  0  0  0  0  0  0
  161.0970  206.7540  153.3130 C   0  0  0  0  0  2  0  0  0  0  0  0
  160.6390  207.0500  154.4670 C   0  0  0  0  0  0  0  0  0  0  0  0
  162.3430  208.1680  150.3160 O   0  0  0  0  0  0  0  0  0  0  0  0
  160.4200  210.8720  155.3020 C   0  0  0  0  0  3  0  0  0  0  0  0
  161.9610  208.1100  151.5150 C   0  0  0  0  0  0  0  0  0  0  0  0
  160.2180  207.7100  155.4750 C   0  0  0  0  0  0  0  0  0  0  0  0
  161.5820  206.7780  152.0990 C   0  0  2  0  0  3  0  0  0  0  0  0
  161.9570  209.3830  152.2950 C   0  0  0  0  0  3  0  0  0  0  0  0
  161.0990  209.6110  153.2890 C   0  0  0  0  0  3  0  0  0  0  0  0
  159.3310  209.9250  155.7600 C   0  0  0  0  0  2  0  0  0  0  0  0
  159.8200  208.6160  156.3180 C   0  0  0  0  0  2  0  0  0  0  0  0
  161.1850  210.7500  154.2050 C   0  0  0  0  0  3  0  0  0  0  0  0
  161.5320  205.5290  149.9700 N   0  0  0  0  0  0  0  0  0  0  0  0
  161.4800  204.8440  148.7440 C   0  0  0  0  0  0  0  0  0  0  0  0
  160.8310  206.9890  147.7350 C   0  0  0  0  0  3  0  0  0  0  0  0
  161.1170  204.7690  146.4800 C   0  0  0  0  0  0  0  0  0  0  0  0
  161.1850  206.1880  148.7780 C   0  0  0  0  0  0  0  0  0  0  0  0
  161.4810  204.0200  147.6590 C   0  0  0  0  0  3  0  0  0  0  0  0
  160.8040  206.2040  146.5290 C   0  0  0  0  0  3  0  0  0  0  0  0
  161.2060  204.7040  144.1090 O   0  0  0  0  0  0  0  0  0  0  0  0
  160.8320  202.6980  145.1410 O   0  0  0  0  0  1  0  0  0  0  0  0
  161.0560  204.0690  145.1860 C   0  0  0  0  0  0  0  0  0  0  0  0
  162.2300  204.3440  152.0100 C   0  0  0  0  0  2  0  0  0  0  0  0
  160.2370  203.2730  152.7610 O   0  0  0  0  0  1  0  0  0  0  0  0
  161.1980  203.2700  151.9490 C   0  0  0  0  0  0  0  0  0  0  0  0
  161.3120  202.2470  151.0170 O   0  0  0  0  0  0  0  0  0  0  0  0
  1 24  1  0  0  0  0
  2  3  1  0  0  0  0
  3  7  3  0  0  0  0
  4  6  2  0  0  0  0
  5 11  1  0  0  0  0
  6  8  1  0  0  0  0
  6  9  1  0  0  0  0
  7 12  1  0  0  0  0
  8  1  1  6  0  0  0
  8  2  1  0  0  0  0
  9 10  2  0  0  0  0
 10 13  1  0  0  0  0
 11 12  1  0  0  0  0
 13  5  2  0  0  0  0
 14  1  1  0  0  0  0
 15 18  1  0  0  0  0
 15 14  1  0  0  0  0
 16 18  2  0  0  0  0
 17 20  2  0  0  0  0
 17 19  1  0  0  0  0
 18 14  1  0  0  0  0
 19 15  2  0  0  0  0
 20 16  1  0  0  0  0
 21 23  2  0  0  0  0
 22 23  1  0  0  0  0
 23 17  1  0  0  0  0
 26 24  1  0  0  0  0
 26 25  1  0  0  0  0
 27 26  2  0  0  0  0
M  END
>  <MODEL>
8

>  <REMARK>
 VINA RESULT:      -8.0      1.756      3.613
  Name = 
  5 active torsions:
  status: ('A' for Active; 'I' for Inactive)
    1  A    between atoms: N_1  and  N_2
    2  A    between atoms: N_2  and  C_6
    3  A    between atoms: N_2  and  C_15
    4  A    between atoms: C_6  and  C_13
    5  A    between atoms: C_19  and  C_23
                            x       y       z     vdW  Elec       q    Type
                         _______ _______ _______ _____ _____    ______ ____

>  <TORSDO>
F 5

$$$$
=
 OpenBabel11042420453D

 27 29  0  0  1  0  0  0  0  0999 V2000
  161.0390  205.6320  151.1310 N   0  0  0  0  0  0  0  0  0  0  0  0
  161.2570  204.9010  148.8730 C   0  0  0  0  0  0  0  0  0  0  0  0
  161.3980  204.8840  147.6050 C   0  0  0  0  0  0  0  0  0  0  0  0
  160.5290  202.8510  151.6660 O   0  0  0  0  0  0  0  0  0  0  0  0
  160.9140  201.4040  145.8680 C   0  0  0  0  0  3  0  0  0  0  0  0
  160.8220  203.1550  150.4800 C   0  0  0  0  0  0  0  0  0  0  0  0
  161.4280  204.4920  146.3910 C   0  0  0  0  0  2  0  0  0  0  0  0
  161.0490  204.5980  150.1280 C   0  0  2  0  0  3  0  0  0  0  0  0
  160.9730  202.0350  149.5040 C   0  0  0  0  0  3  0  0  0  0  0  0
  160.7080  202.1770  148.2050 C   0  0  0  0  0  3  0  0  0  0  0  0
  160.4060  202.6680  145.2060 C   0  0  0  0  0  2  0  0  0  0  0  0
  161.3480  203.8410  145.2680 C   0  0  0  0  0  2  0  0  0  0  0  0
  161.0280  201.1760  147.1860 C   0  0  0  0  0  3  0  0  0  0  0  0
  161.3370  206.9590  150.7890 N   0  0  0  0  0  0  0  0  0  0  0  0
  161.5040  207.9780  149.8340 C   0  0  0  0  0  0  0  0  0  0  0  0
  161.9760  209.4760  151.7250 C   0  0  0  0  0  3  0  0  0  0  0  0
  161.9590  210.1490  149.2490 C   0  0  0  0  0  0  0  0  0  0  0  0
  161.6630  208.2720  151.1700 C   0  0  0  0  0  0  0  0  0  0  0  0
  161.6230  208.8270  148.7760 C   0  0  0  0  0  3  0  0  0  0  0  0
  162.1260  210.4510  150.6770 C   0  0  0  0  0  3  0  0  0  0  0  0
  163.2580  211.7860  148.1240 O   0  0  0  0  0  1  0  0  0  0  0  0
  161.0680  211.6460  147.4800 O   0  0  0  0  0  0  0  0  0  0  0  0
  162.1370  211.2290  148.2650 C   0  0  0  0  0  0  0  0  0  0  0  0
  160.6110  205.3430  152.4960 C   0  0  0  0  0  2  0  0  0  0  0  0
  160.9550  206.7810  154.3650 O   0  0  0  0  0  1  0  0  0  0  0  0
  161.4770  206.0630  153.4730 C   0  0  0  0  0  0  0  0  0  0  0  0
  162.8590  205.9690  153.3810 O   0  0  0  0  0  0  0  0  0  0  0  0
  1 24  1  0  0  0  0
  2  8  1  0  0  0  0
  3  2  3  0  0  0  0
  5 13  2  0  0  0  0
  6  4  2  0  0  0  0
  7  3  1  0  0  0  0
  8  6  1  0  0  0  0
  8  1  1  6  0  0  0
  9  6  1  0  0  0  0
 10  9  2  0  0  0  0
 11 12  1  0  0  0  0
 11  5  1  0  0  0  0
 12  7  1  0  0  0  0
 13 10  1  0  0  0  0
 14  1  1  0  0  0  0
 14 18  1  0  0  0  0
 15 14  1  0  0  0  0
 15 18  1  0  0  0  0
 17 20  2  0  0  0  0
 18 16  2  0  0  0  0
 19 17  1  0  0  0  0
 19 15  2  0  0  0  0
 20 16  1  0  0  0  0
 21 23  1  0  0  0  0
 22 23  2  0  0  0  0
 23 17  1  0  0  0  0
 24 26  1  0  0  0  0
 26 25  1  0  0  0  0
 27 26  2  0  0  0  0
M  END
>  <MODEL>
9

>  <REMARK>
 VINA RESULT:      -7.8      2.583      7.756
  Name = 
  5 active torsions:
  status: ('A' for Active; 'I' for Inactive)
    1  A    between atoms: N_1  and  N_2
    2  A    between atoms: N_2  and  C_6
    3  A    between atoms: N_2  and  C_15
    4  A    between atoms: C_6  and  C_13
    5  A    between atoms: C_19  and  C_23
                            x       y       z     vdW  Elec       q    Type
                         _______ _______ _______ _____ _____    ______ ____

>  <TORSDO>
F 5

$$$$
