=
 OpenBabel11042422003D

 46 48  0  0  1  0  0  0  0  0999 V2000
  159.0390  213.3400  145.2950 O   0  0  0  0  0  1  0  0  0  0  0  0
  160.1140  211.8730  146.9380 C   0  0  0  0  0  3  0  0  0  0  0  0
  161.0080  213.1760  148.8460 C   0  0  0  0  0  2  0  0  0  0  0  0
  158.9040  213.5750  149.8280 C   0  0  2  0  0  3  0  0  0  0  0  0
  158.1540  213.3060  147.4750 C   0  0  0  0  0  0  0  0  0  0  0  0
  158.0360  212.7700  148.8660 C   0  0  0  0  0  2  0  0  0  0  0  0
  160.9840  211.9710  147.9490 C   0  0  0  0  0  0  0  0  0  0  0  0
  159.0740  212.8690  146.6020 C   0  0  0  0  0  0  0  0  0  0  0  0
  157.2530  214.2890  147.0810 O   0  0  0  0  0  1  0  0  0  0  0  0
  160.1940  212.9230  150.0240 N   0  0  0  0  0  2  0  0  0  0  0  0
  159.6710  214.4390  152.8870 O   0  0  0  0  0  1  0  0  0  0  0  0
  156.7270  213.4090  153.5380 C   0  0  0  0  0  0  0  0  0  0  0  0
  158.2110  213.7500  151.1460 C   0  0  0  0  0  0  0  0  0  0  0  0
  156.2840  214.4510  152.5430 C   0  0  0  0  0  2  0  0  0  0  0  0
  157.9680  212.8960  153.4720 C   0  0  0  0  0  3  0  0  0  0  0  0
  156.9630  214.2530  151.2120 C   0  0  0  0  0  3  0  0  0  0  0  0
  158.9370  213.3540  152.4100 C   0  0  2  0  0  3  0  0  0  0  0  0
  154.6520  213.7860  154.6050 F   0  0  0  0  0  0  0  0  0  0  0  0
  155.7830  212.9890  154.6200 C   0  0  1  0  0  3  0  0  0  0  0  0
  155.4170  211.6430  154.4500 O   0  0  0  0  0  0  0  0  0  0  0  0
  156.8170  210.5640  155.9260 F   0  0  0  0  0  0  0  0  0  0  0  0
  154.6840  209.8980  155.6960 F   0  0  0  0  0  0  0  0  0  0  0  0
  155.5180  211.0000  155.6990 C   0  0  0  0  0  0  0  0  0  0  0  0
  155.1210  211.8460  156.7240 F   0  0  0  0  0  0  0  0  0  0  0  0
  161.8790  210.9160  148.1550 O   0  0  0  0  0  0  0  0  0  0  0  0
  162.2190  210.4340  149.4510 C   0  0  0  0  0  2  0  0  0  0  0  0
  161.6190  209.0550  149.7230 C   0  0  1  0  0  3  0  0  0  0  0  0
  160.9870  207.3610  147.4090 O   0  0  0  0  0  0  0  0  0  0  0  0
  162.9340  206.0960  147.6430 N   0  0  0  0  0  2  0  0  0  0  0  0
  162.4350  207.9860  149.1460 N   0  0  0  0  0  2  0  0  0  0  0  0
  162.0620  207.1540  148.0380 C   0  0  0  0  0  0  0  0  0  0  0  0
  162.5880  205.1670  146.5790 C   0  0  0  0  0  2  0  0  0  0  0  0
  160.9650  201.7330  148.9330 C   0  0  0  0  0  0  0  0  0  0  0  0
  160.5270  203.1600  149.1040 C   0  0  2  0  0  3  0  0  0  0  0  0
  161.0210  201.1700  147.7240 C   0  0  0  0  0  3  0  0  0  0  0  0
  161.0440  203.1600  146.1600 C   0  0  0  0  0  0  0  0  0  0  0  0
  161.4740  204.0940  148.4300 C   0  0  0  0  0  3  0  0  0  0  0  0
  160.7810  201.8680  146.4470 C   0  0  0  0  0  3  0  0  0  0  0  0
  161.2830  200.9550  150.0420 O   0  0  0  0  0  1  0  0  0  0  0  0
  161.7020  204.0920  147.1150 C   0  0  0  0  0  0  0  0  0  0  0  0
  160.3920  203.5440  150.5670 C   0  0  0  0  0  1  0  0  0  0  0  0
  160.1750  204.9380  144.6530 C   0  0  0  0  0  1  0  0  0  0  0  0
  160.7500  203.6580  144.8830 O   0  0  0  0  0  0  0  0  0  0  0  0
  161.3150  208.8240  151.2000 C   0  0  0  0  0  2  0  0  0  0  0  0
  160.9550  207.3710  151.4610 C   0  0  0  0  0  2  0  0  0  0  0  0
  162.0610  206.6850  151.9300 F   0  0  0  0  0  0  0  0  0  0  0  0
  1  8  1  0  0  0  0
  2  7  2  0  0  0  0
  3 10  1  0  0  0  0
  4 10  1  0  0  0  0
  4 13  1  1  0  0  0
  5  6  1  0  0  0  0
  6  4  1  0  0  0  0
  7 25  1  0  0  0  0
  7  3  1  0  0  0  0
  8  2  1  0  0  0  0
  8  5  2  0  0  0  0
  9  5  1  0  0  0  0
 12 19  1  0  0  0  0
 13 16  2  0  0  0  0
 13 17  1  0  0  0  0
 14 12  1  0  0  0  0
 15 12  2  0  0  0  0
 16 14  1  0  0  0  0
 17 11  1  1  0  0  0
 17 15  1  0  0  0  0
 19 18  1  6  0  0  0
 20 19  1  0  0  0  0
 20 23  1  0  0  0  0
 22 23  1  0  0  0  0
 23 21  1  0  0  0  0
 23 24  1  0  0  0  0
 25 26  1  0  0  0  0
 27 26  1  1  0  0  0
 27 44  1  0  0  0  0
 28 31  2  0  0  0  0
 29 31  1  0  0  0  0
 30 27  1  0  0  0  0
 31 30  1  0  0  0  0
 32 40  1  0  0  0  0
 32 29  1  0  0  0  0
 33 34  1  0  0  0  0
 33 39  1  0  0  0  0
 34 41  1  1  0  0  0
 35 33  2  0  0  0  0
 36 38  2  0  0  0  0
 36 40  1  0  0  0  0
 37 34  1  0  0  0  0
 38 35  1  0  0  0  0
 40 37  2  0  0  0  0
 42 43  1  0  0  0  0
 43 36  1  0  0  0  0
 44 45  1  0  0  0  0
 45 46  1  0  0  0  0
M  END
>  <MODEL>
1

>  <REMARK>
 VINA RESULT:      -6.8      0.000      0.000
  Name = 
  13 active torsions:
  status: ('A' for Active; 'I' for Inactive)
    1  A    between atoms: C_2  and  C_5
    2  A    between atoms: C_2  and  C_8
    3  A    between atoms: C_5  and  N_31
    4  A    between atoms: C_5  and  C_37
    5  A    between atoms: C_6  and  C_17
    6  A    between atoms: O_11  and  C_28
    7  A    between atoms: C_16  and  C_45
    8  A    between atoms: C_18  and  O_43
    9  A    between atoms: O_21  and  C_36
   10  A    between atoms: O_21  and  C_37
   11  A    between atoms: C_25  and  N_27
   12  A    between atoms: C_25  and  C_40
   13  A    between atoms: O_43  and  C_45
                            x       y       z     vdW  Elec       q    Type
                         _______ _______ _______ _____ _____    ______ ____

>  <TORSDO>
F 13

$$$$
=
 OpenBabel11042422003D

 46 48  0  0  1  0  0  0  0  0999 V2000
  161.9720  210.0300  154.4540 O   0  0  0  0  0  1  0  0  0  0  0  0
  161.2900  210.5990  152.1700 C   0  0  0  0  0  3  0  0  0  0  0  0
  162.6750  209.4020  150.5010 C   0  0  0  0  0  2  0  0  0  0  0  0
  161.6360  207.3130  150.8310 C   0  0  2  0  0  3  0  0  0  0  0  0
  161.2020  208.2850  153.0750 C   0  0  0  0  0  0  0  0  0  0  0  0
  160.5700  207.7340  151.8370 C   0  0  0  0  0  2  0  0  0  0  0  0
  161.7900  210.5380  150.9310 C   0  0  0  0  0  0  0  0  0  0  0  0
  161.4910  209.5870  153.2280 C   0  0  0  0  0  0  0  0  0  0  0  0
  161.4830  207.3990  154.1090 O   0  0  0  0  0  1  0  0  0  0  0  0
  161.8710  208.3750  149.8580 N   0  0  0  0  0  2  0  0  0  0  0  0
  159.7860  204.6810  151.4220 O   0  0  0  0  0  1  0  0  0  0  0  0
  161.1580  203.5630  148.7720 C   0  0  0  0  0  0  0  0  0  0  0  0
  161.2310  206.0520  150.1280 C   0  0  0  0  0  0  0  0  0  0  0  0
  160.5620  204.7770  148.1080 C   0  0  0  0  0  2  0  0  0  0  0  0
  161.4070  203.5690  150.0940 C   0  0  0  0  0  3  0  0  0  0  0  0
  160.9950  206.0420  148.8020 C   0  0  0  0  0  3  0  0  0  0  0  0
  161.0890  204.7820  150.9330 C   0  0  2  0  0  3  0  0  0  0  0  0
  161.8950  201.3180  148.7540 F   0  0  0  0  0  0  0  0  0  0  0  0
  161.4300  202.3430  147.9490 C   0  0  1  0  0  3  0  0  0  0  0  0
  160.2600  201.9330  147.2870 O   0  0  0  0  0  0  0  0  0  0  0  0
  161.1500  200.4200  145.7970 F   0  0  0  0  0  0  0  0  0  0  0  0
  161.5100  202.6200  145.5260 F   0  0  0  0  0  0  0  0  0  0  0  0
  160.5850  201.6800  145.9400 C   0  0  0  0  0  0  0  0  0  0  0  0
  159.4630  201.7860  145.1310 F   0  0  0  0  0  0  0  0  0  0  0  0
  161.4670  211.5630  150.0360 O   0  0  0  0  0  0  0  0  0  0  0  0
  161.7160  211.4730  148.6370 C   0  0  0  0  0  2  0  0  0  0  0  0
  162.1820  212.8050  148.0530 C   0  0  1  0  0  3  0  0  0  0  0  0
  159.7580  212.5620  146.4120 O   0  0  0  0  0  0  0  0  0  0  0  0
  160.9550  212.6130  144.4100 N   0  0  0  0  0  2  0  0  0  0  0  0
  162.0820  212.8220  146.5920 N   0  0  0  0  0  2  0  0  0  0  0  0
  160.8760  212.6560  145.8340 C   0  0  0  0  0  0  0  0  0  0  0  0
  159.7850  212.3720  143.5790 C   0  0  0  0  0  2  0  0  0  0  0  0
  162.1270  212.2080  139.7770 C   0  0  0  0  0  0  0  0  0  0  0  0
  161.1960  211.1260  140.2460 C   0  0  2  0  0  3  0  0  0  0  0  0
  161.7410  213.4850  139.7470 C   0  0  0  0  0  3  0  0  0  0  0  0
  159.7280  213.5150  141.2820 C   0  0  0  0  0  0  0  0  0  0  0  0
  160.8340  211.3180  141.6800 C   0  0  0  0  0  3  0  0  0  0  0  0
  160.4510  213.9970  140.2510 C   0  0  0  0  0  3  0  0  0  0  0  0
  163.4040  211.8920  139.3230 O   0  0  0  0  0  1  0  0  0  0  0  0
  160.1780  212.3850  142.1400 C   0  0  0  0  0  0  0  0  0  0  0  0
  161.7880  209.7410  140.0530 C   0  0  0  0  0  1  0  0  0  0  0  0
  157.3760  214.1490  140.7750 C   0  0  0  0  0  1  0  0  0  0  0  0
  158.5170  214.1320  141.6250 O   0  0  0  0  0  0  0  0  0  0  0  0
  161.4960  214.0060  148.6980 C   0  0  0  0  0  2  0  0  0  0  0  0
  160.2180  213.5880  149.4070 C   0  0  0  0  0  2  0  0  0  0  0  0
  160.1740  214.1440  150.6720 F   0  0  0  0  0  0  0  0  0  0  0  0
  2  8  1  0  0  0  0
  3  7  1  0  0  0  0
  4 13  1  6  0  0  0
  4  6  1  0  0  0  0
  5  8  2  0  0  0  0
  5  9  1  0  0  0  0
  6  5  1  0  0  0  0
  7  2  2  0  0  0  0
  8  1  1  0  0  0  0
 10  3  1  0  0  0  0
 10  4  1  0  0  0  0
 12 15  2  0  0  0  0
 13 17  1  0  0  0  0
 14 12  1  0  0  0  0
 14 16  1  0  0  0  0
 15 17  1  0  0  0  0
 16 13  2  0  0  0  0
 17 11  1  6  0  0  0
 19 18  1  1  0  0  0
 19 12  1  0  0  0  0
 20 19  1  0  0  0  0
 21 23  1  0  0  0  0
 22 23  1  0  0  0  0
 23 20  1  0  0  0  0
 24 23  1  0  0  0  0
 25  7  1  0  0  0  0
 26 25  1  0  0  0  0
 27 26  1  1  0  0  0
 27 44  1  0  0  0  0
 29 31  1  0  0  0  0
 30 27  1  0  0  0  0
 31 28  2  0  0  0  0
 31 30  1  0  0  0  0
 32 29  1  0  0  0  0
 33 34  1  0  0  0  0
 34 41  1  1  0  0  0
 34 37  1  0  0  0  0
 35 33  2  0  0  0  0
 35 38  1  0  0  0  0
 36 43  1  0  0  0  0
 36 40  1  0  0  0  0
 37 40  2  0  0  0  0
 38 36  2  0  0  0  0
 39 33  1  0  0  0  0
 40 32  1  0  0  0  0
 42 43  1  0  0  0  0
 44 45  1  0  0  0  0
 45 46  1  0  0  0  0
M  END
>  <MODEL>
2

>  <REMARK>
 VINA RESULT:      -6.5      4.512     10.212
  Name = 
  13 active torsions:
  status: ('A' for Active; 'I' for Inactive)
    1  A    between atoms: C_2  and  C_5
    2  A    between atoms: C_2  and  C_8
    3  A    between atoms: C_5  and  N_31
    4  A    between atoms: C_5  and  C_37
    5  A    between atoms: C_6  and  C_17
    6  A    between atoms: O_11  and  C_28
    7  A    between atoms: C_16  and  C_45
    8  A    between atoms: C_18  and  O_43
    9  A    between atoms: O_21  and  C_36
   10  A    between atoms: O_21  and  C_37
   11  A    between atoms: C_25  and  N_27
   12  A    between atoms: C_25  and  C_40
   13  A    between atoms: O_43  and  C_45
                            x       y       z     vdW  Elec       q    Type
                         _______ _______ _______ _____ _____    ______ ____

>  <TORSDO>
F 13

$$$$
=
 OpenBabel11042422003D

 46 48  0  0  1  0  0  0  0  0999 V2000
  161.3240  207.9600  156.3640 O   0  0  0  0  0  1  0  0  0  0  0  0
  160.1570  209.2930  154.6700 C   0  0  0  0  0  3  0  0  0  0  0  0
  161.6680  209.8770  152.7970 C   0  0  0  0  0  2  0  0  0  0  0  0
  161.6550  207.7230  151.8410 C   0  0  2  0  0  3  0  0  0  0  0  0
  161.1710  207.0730  154.1890 C   0  0  0  0  0  0  0  0  0  0  0  0
  160.6610  207.0510  152.7830 C   0  0  0  0  0  2  0  0  0  0  0  0
  160.4590  210.1110  153.6570 C   0  0  0  0  0  0  0  0  0  0  0  0
  160.9070  208.0750  155.0430 C   0  0  0  0  0  0  0  0  0  0  0  0
  161.9370  205.9960  154.6190 O   0  0  0  0  0  1  0  0  0  0  0  0
  161.2870  209.1170  151.6170 N   0  0  0  0  0  2  0  0  0  0  0  0
  162.3230  208.3890  148.7100 O   0  0  0  0  0  1  0  0  0  0  0  0
  161.1790  205.4570  148.2120 C   0  0  0  0  0  0  0  0  0  0  0  0
  161.7210  206.9920  150.5330 C   0  0  0  0  0  0  0  0  0  0  0  0
  162.2770  205.0120  149.1450 C   0  0  0  0  0  2  0  0  0  0  0  0
  160.7010  206.7120  148.2790 C   0  0  0  0  0  3  0  0  0  0  0  0
  162.1880  205.7300  150.4670 C   0  0  0  0  0  3  0  0  0  0  0  0
  161.2550  207.6960  149.2810 C   0  0  2  0  0  3  0  0  0  0  0  0
  160.5650  205.1190  145.9550 F   0  0  0  0  0  0  0  0  0  0  0  0
  160.6620  204.4960  147.1870 C   0  0  1  0  0  3  0  0  0  0  0  0
  161.5140  203.3830  147.0910 O   0  0  0  0  0  0  0  0  0  0  0  0
  161.8210  201.4290  148.2700 F   0  0  0  0  0  0  0  0  0  0  0  0
  160.1530  201.5990  146.7770 F   0  0  0  0  0  0  0  0  0  0  0  0
  160.8830  202.2930  147.7230 C   0  0  0  0  0  0  0  0  0  0  0  0
  160.0130  202.7310  148.7120 F   0  0  0  0  0  0  0  0  0  0  0  0
  159.6170  211.2010  153.4130 O   0  0  0  0  0  0  0  0  0  0  0  0
  159.1260  212.0440  154.4510 C   0  0  0  0  0  2  0  0  0  0  0  0
  157.8910  212.8290  154.0130 C   0  0  1  0  0  3  0  0  0  0  0  0
  159.1420  214.4520  151.9080 O   0  0  0  0  0  0  0  0  0  0  0  0
  157.9070  213.4310  150.2120 N   0  0  0  0  0  2  0  0  0  0  0  0
  157.6780  212.7420  152.5670 N   0  0  0  0  0  2  0  0  0  0  0  0
  158.2820  213.5890  151.5790 C   0  0  0  0  0  0  0  0  0  0  0  0
  158.4210  214.3030  149.1660 C   0  0  0  0  0  2  0  0  0  0  0  0
  161.7420  212.8210  146.5690 C   0  0  0  0  0  0  0  0  0  0  0  0
  161.2940  212.1510  147.8370 C   0  0  2  0  0  3  0  0  0  0  0  0
  160.8630  213.1750  145.6290 C   0  0  0  0  0  3  0  0  0  0  0  0
  158.6580  213.1770  146.8720 C   0  0  0  0  0  0  0  0  0  0  0  0
  160.4140  213.0520  148.6350 C   0  0  0  0  0  3  0  0  0  0  0  0
  159.3960  213.0640  145.7490 C   0  0  0  0  0  3  0  0  0  0  0  0
  163.0930  213.0500  146.3310 O   0  0  0  0  0  1  0  0  0  0  0  0
  159.2370  213.5080  148.2020 C   0  0  0  0  0  0  0  0  0  0  0  0
  162.4670  211.7020  148.6900 C   0  0  0  0  0  1  0  0  0  0  0  0
  156.4670  213.6730  145.8020 C   0  0  0  0  0  1  0  0  0  0  0  0
  157.2640  213.0440  146.7980 O   0  0  0  0  0  0  0  0  0  0  0  0
  156.6430  212.4610  154.8100 C   0  0  0  0  0  2  0  0  0  0  0  0
  156.7050  211.0200  155.2860 C   0  0  0  0  0  2  0  0  0  0  0  0
  155.5200  210.6750  155.9100 F   0  0  0  0  0  0  0  0  0  0  0  0
  2  8  1  0  0  0  0
  3  7  1  0  0  0  0
  4 13  1  6  0  0  0
  4  6  1  0  0  0  0
  5  9  1  0  0  0  0
  5  8  2  0  0  0  0
  6  5  1  0  0  0  0
  7  2  2  0  0  0  0
  8  1  1  0  0  0  0
 10  4  1  0  0  0  0
 10  3  1  0  0  0  0
 12 15  2  0  0  0  0
 12 14  1  0  0  0  0
 14 16  1  0  0  0  0
 15 17  1  0  0  0  0
 16 13  2  0  0  0  0
 17 11  1  6  0  0  0
 17 13  1  0  0  0  0
 19 18  1  6  0  0  0
 19 12  1  0  0  0  0
 20 19  1  0  0  0  0
 20 23  1  0  0  0  0
 22 23  1  0  0  0  0
 23 21  1  0  0  0  0
 23 24  1  0  0  0  0
 25  7  1  0  0  0  0
 25 26  1  0  0  0  0
 27 26  1  1  0  0  0
 27 44  1  0  0  0  0
 29 31  1  0  0  0  0
 30 27  1  0  0  0  0
 31 28  2  0  0  0  0
 31 30  1  0  0  0  0
 32 29  1  0  0  0  0
 33 34  1  0  0  0  0
 34 37  1  0  0  0  0
 34 41  1  1  0  0  0
 35 38  1  0  0  0  0
 35 33  2  0  0  0  0
 36 40  1  0  0  0  0
 38 36  2  0  0  0  0
 39 33  1  0  0  0  0
 40 37  2  0  0  0  0
 40 32  1  0  0  0  0
 42 43  1  0  0  0  0
 43 36  1  0  0  0  0
 44 45  1  0  0  0  0
 45 46  1  0  0  0  0
M  END
>  <MODEL>
3

>  <REMARK>
 VINA RESULT:      -6.5      3.026      9.774
  Name = 
  13 active torsions:
  status: ('A' for Active; 'I' for Inactive)
    1  A    between atoms: C_2  and  C_5
    2  A    between atoms: C_2  and  C_8
    3  A    between atoms: C_5  and  N_31
    4  A    between atoms: C_5  and  C_37
    5  A    between atoms: C_6  and  C_17
    6  A    between atoms: O_11  and  C_28
    7  A    between atoms: C_16  and  C_45
    8  A    between atoms: C_18  and  O_43
    9  A    between atoms: O_21  and  C_36
   10  A    between atoms: O_21  and  C_37
   11  A    between atoms: C_25  and  N_27
   12  A    between atoms: C_25  and  C_40
   13  A    between atoms: O_43  and  C_45
                            x       y       z     vdW  Elec       q    Type
                         _______ _______ _______ _____ _____    ______ ____

>  <TORSDO>
F 13

$$$$
=
 OpenBabel11042422003D

 46 48  0  0  1  0  0  0  0  0999 V2000
  160.2770  202.1630  149.7530 O   0  0  0  0  0  1  0  0  0  0  0  0
  161.5720  203.9350  148.6630 C   0  0  0  0  0  3  0  0  0  0  0  0
  160.3910  206.1090  148.7880 C   0  0  0  0  0  2  0  0  0  0  0  0
  160.8620  206.4700  151.0690 C   0  0  2  0  0  3  0  0  0  0  0  0
  160.9590  203.9880  151.0740 C   0  0  0  0  0  0  0  0  0  0  0  0
  161.7310  205.2430  151.3290 C   0  0  0  0  0  2  0  0  0  0  0  0
  161.3700  205.1580  148.1620 C   0  0  0  0  0  0  0  0  0  0  0  0
  160.9230  203.3870  149.8740 C   0  0  0  0  0  0  0  0  0  0  0  0
  160.2680  203.4230  152.1390 O   0  0  0  0  0  1  0  0  0  0  0  0
  161.0870  206.9810  149.7210 N   0  0  0  0  0  2  0  0  0  0  0  0
  162.0060  206.6970  154.1240 O   0  0  0  0  0  1  0  0  0  0  0  0
  160.9960  209.7110  153.8990 C   0  0  0  0  0  0  0  0  0  0  0  0
  161.1440  207.5420  152.0790 C   0  0  0  0  0  0  0  0  0  0  0  0
  161.9390  209.8010  152.7260 C   0  0  0  0  0  2  0  0  0  0  0  0
  160.4960  208.5200  154.2750 C   0  0  0  0  0  3  0  0  0  0  0  0
  161.6320  208.7380  151.7020 C   0  0  0  0  0  3  0  0  0  0  0  0
  160.8710  207.2580  153.5380 C   0  0  2  0  0  3  0  0  0  0  0  0
  161.7610  211.3860  155.3800 F   0  0  0  0  0  0  0  0  0  0  0  0
  160.6610  210.9550  154.6600 C   0  0  1  0  0  3  0  0  0  0  0  0
  160.2440  211.9660  153.7780 O   0  0  0  0  0  0  0  0  0  0  0  0
  158.5900  211.0960  152.4320 F   0  0  0  0  0  0  0  0  0  0  0  0
  158.3070  213.0890  153.4280 F   0  0  0  0  0  0  0  0  0  0  0  0
  158.8550  211.8300  153.5800 C   0  0  0  0  0  0  0  0  0  0  0  0
  158.2570  211.2220  154.6750 F   0  0  0  0  0  0  0  0  0  0  0  0
  162.0990  205.5360  147.0290 O   0  0  0  0  0  0  0  0  0  0  0  0
  161.4850  206.0570  145.8540 C   0  0  0  0  0  2  0  0  0  0  0  0
  160.8820  204.9520  144.9880 C   0  0  1  0  0  3  0  0  0  0  0  0
  162.9810  205.9570  143.1970 O   0  0  0  0  0  0  0  0  0  0  0  0
  161.4830  206.3410  141.4500 N   0  0  0  0  0  2  0  0  0  0  0  0
  160.7440  205.3720  143.5920 N   0  0  0  0  0  2  0  0  0  0  0  0
  161.7950  205.8980  142.7690 C   0  0  0  0  0  0  0  0  0  0  0  0
  162.4800  206.9550  140.5860 C   0  0  0  0  0  2  0  0  0  0  0  0
  160.2330  210.7160  139.7080 C   0  0  0  0  0  0  0  0  0  0  0  0
  161.7300  210.6270  139.8060 C   0  0  2  0  0  3  0  0  0  0  0  0
  159.5390  209.8600  138.9560 C   0  0  0  0  0  3  0  0  0  0  0  0
  161.1580  207.9430  138.6210 C   0  0  0  0  0  0  0  0  0  0  0  0
  162.1470  209.3390  140.4320 C   0  0  0  0  0  3  0  0  0  0  0  0
  160.1060  208.6980  138.2440 C   0  0  0  0  0  3  0  0  0  0  0  0
  159.5420  211.7260  140.3710 O   0  0  0  0  0  1  0  0  0  0  0  0
  161.8920  208.1420  139.9000 C   0  0  0  0  0  0  0  0  0  0  0  0
  162.3200  211.7860  140.5880 C   0  0  0  0  0  1  0  0  0  0  0  0
  162.7630  206.8630  137.0570 C   0  0  0  0  0  1  0  0  0  0  0  0
  161.5600  206.8680  137.8150 O   0  0  0  0  0  0  0  0  0  0  0  0
  161.6170  203.6230  145.1280 C   0  0  0  0  0  2  0  0  0  0  0  0
  160.6570  202.5040  145.4930 C   0  0  0  0  0  2  0  0  0  0  0  0
  159.7120  202.3450  144.4960 F   0  0  0  0  0  0  0  0  0  0  0  0
  1  8  1  0  0  0  0
  2  8  1  0  0  0  0
  3 10  1  0  0  0  0
  4  6  1  0  0  0  0
  4 13  1  1  0  0  0
  5  6  1  0  0  0  0
  5  9  1  0  0  0  0
  7  2  2  0  0  0  0
  7  3  1  0  0  0  0
  8  5  2  0  0  0  0
 10  4  1  0  0  0  0
 12 15  2  0  0  0  0
 12 19  1  0  0  0  0
 13 17  1  0  0  0  0
 14 12  1  0  0  0  0
 16 13  2  0  0  0  0
 16 14  1  0  0  0  0
 17 11  1  1  0  0  0
 17 15  1  0  0  0  0
 19 18  1  6  0  0  0
 20 19  1  0  0  0  0
 21 23  1  0  0  0  0
 22 23  1  0  0  0  0
 23 20  1  0  0  0  0
 23 24  1  0  0  0  0
 25  7  1  0  0  0  0
 26 25  1  0  0  0  0
 27 44  1  6  0  0  0
 27 26  1  0  0  0  0
 29 31  1  0  0  0  0
 30 27  1  0  0  0  0
 31 28  2  0  0  0  0
 31 30  1  0  0  0  0
 32 29  1  0  0  0  0
 33 34  1  0  0  0  0
 33 39  1  0  0  0  0
 34 37  1  0  0  0  0
 34 41  1  1  0  0  0
 35 33  2  0  0  0  0
 36 40  1  0  0  0  0
 38 36  2  0  0  0  0
 38 35  1  0  0  0  0
 40 37  2  0  0  0  0
 40 32  1  0  0  0  0
 42 43  1  0  0  0  0
 43 36  1  0  0  0  0
 44 45  1  0  0  0  0
 46 45  1  0  0  0  0
M  END
>  <MODEL>
4

>  <REMARK>
 VINA RESULT:      -6.3      4.494      8.288
  Name = 
  13 active torsions:
  status: ('A' for Active; 'I' for Inactive)
    1  A    between atoms: C_2  and  C_5
    2  A    between atoms: C_2  and  C_8
    3  A    between atoms: C_5  and  N_31
    4  A    between atoms: C_5  and  C_37
    5  A    between atoms: C_6  and  C_17
    6  A    between atoms: O_11  and  C_28
    7  A    between atoms: C_16  and  C_45
    8  A    between atoms: C_18  and  O_43
    9  A    between atoms: O_21  and  C_36
   10  A    between atoms: O_21  and  C_37
   11  A    between atoms: C_25  and  N_27
   12  A    between atoms: C_25  and  C_40
   13  A    between atoms: O_43  and  C_45
                            x       y       z     vdW  Elec       q    Type
                         _______ _______ _______ _____ _____    ______ ____

>  <TORSDO>
F 13

$$$$
=
 OpenBabel11042422003D

 46 48  0  0  1  0  0  0  0  0999 V2000
  161.0360  208.0410  154.4830 O   0  0  0  0  0  1  0  0  0  0  0  0
  160.7640  209.4000  152.4610 C   0  0  0  0  0  3  0  0  0  0  0  0
  162.6450  209.0460  150.8890 C   0  0  0  0  0  2  0  0  0  0  0  0
  161.9190  206.9220  150.1720 C   0  0  2  0  0  3  0  0  0  0  0  0
  160.8700  206.9150  152.4230 C   0  0  0  0  0  0  0  0  0  0  0  0
  160.6110  206.8420  150.9520 C   0  0  0  0  0  2  0  0  0  0  0  0
  161.5160  209.8580  151.4550 C   0  0  0  0  0  0  0  0  0  0  0  0
  160.9030  208.0730  153.1010 C   0  0  0  0  0  0  0  0  0  0  0  0
  161.0690  205.7210  153.1070 O   0  0  0  0  0  1  0  0  0  0  0  0
  162.1740  208.2920  149.7380 N   0  0  0  0  0  2  0  0  0  0  0  0
  163.5660  206.4870  147.3800 O   0  0  0  0  0  1  0  0  0  0  0  0
  161.1610  204.5160  146.6830 C   0  0  0  0  0  0  0  0  0  0  0  0
  161.8830  206.0060  148.9850 C   0  0  0  0  0  0  0  0  0  0  0  0
  161.5750  203.7800  147.9320 C   0  0  0  0  0  2  0  0  0  0  0  0
  161.4500  205.8220  146.5400 C   0  0  0  0  0  3  0  0  0  0  0  0
  161.5820  204.7010  149.1250 C   0  0  0  0  0  3  0  0  0  0  0  0
  162.1950  206.5700  147.6190 C   0  0  2  0  0  3  0  0  0  0  0  0
  160.3570  204.5530  144.4610 F   0  0  0  0  0  0  0  0  0  0  0  0
  160.4650  203.7640  145.5930 C   0  0  1  0  0  3  0  0  0  0  0  0
  161.1710  202.5880  145.2860 O   0  0  0  0  0  0  0  0  0  0  0  0
  158.9990  201.9180  145.6540 F   0  0  0  0  0  0  0  0  0  0  0  0
  160.6980  200.8530  146.6650 F   0  0  0  0  0  0  0  0  0  0  0  0
  160.3110  201.4930  145.5030 C   0  0  0  0  0  0  0  0  0  0  0  0
  160.3940  200.5850  144.4560 F   0  0  0  0  0  0  0  0  0  0  0  0
  161.2230  211.1240  150.9360 O   0  0  0  0  0  0  0  0  0  0  0  0
  161.0360  211.3630  149.5440 C   0  0  0  0  0  2  0  0  0  0  0  0
  160.8180  212.8440  149.2440 C   0  0  1  0  0  3  0  0  0  0  0  0
  158.3520  212.7270  150.8350 O   0  0  0  0  0  0  0  0  0  0  0  0
  159.0620  214.4050  152.2920 N   0  0  0  0  0  2  0  0  0  0  0  0
  160.4950  213.6020  150.4550 N   0  0  0  0  0  2  0  0  0  0  0  0
  159.2550  213.5410  151.1740 C   0  0  0  0  0  0  0  0  0  0  0  0
  157.8050  214.4530  153.0220 C   0  0  0  0  0  2  0  0  0  0  0  0
  159.0800  211.3100  155.9310 C   0  0  0  0  0  0  0  0  0  0  0  0
  159.0770  212.7830  156.2230 C   0  0  2  0  0  3  0  0  0  0  0  0
  158.0100  210.7090  155.4060 C   0  0  0  0  0  3  0  0  0  0  0  0
  156.6800  212.6360  154.4430 C   0  0  0  0  0  0  0  0  0  0  0  0
  158.9270  213.5760  154.9690 C   0  0  0  0  0  3  0  0  0  0  0  0
  156.7810  211.3940  154.9600 C   0  0  0  0  0  3  0  0  0  0  0  0
  160.1900  210.5310  156.2420 O   0  0  0  0  0  1  0  0  0  0  0  0
  157.8550  213.5090  154.1770 C   0  0  0  0  0  0  0  0  0  0  0  0
  160.3340  213.2220  156.9530 C   0  0  0  0  0  1  0  0  0  0  0  0
  154.7810  214.2180  154.7200 C   0  0  0  0  0  1  0  0  0  0  0  0
  155.4220  213.1280  154.0690 O   0  0  0  0  0  0  0  0  0  0  0  0
  161.9690  213.4650  148.4580 C   0  0  0  0  0  2  0  0  0  0  0  0
  161.9810  212.9650  147.0230 C   0  0  0  0  0  2  0  0  0  0  0  0
  160.7840  213.2720  146.4030 F   0  0  0  0  0  0  0  0  0  0  0  0
  2  8  1  0  0  0  0
  3  7  1  0  0  0  0
  4 13  1  6  0  0  0
  4  6  1  0  0  0  0
  5  8  2  0  0  0  0
  5  9  1  0  0  0  0
  6  5  1  0  0  0  0
  7  2  2  0  0  0  0
  8  1  1  0  0  0  0
 10  4  1  0  0  0  0
 10  3  1  0  0  0  0
 12 14  1  0  0  0  0
 13 16  2  0  0  0  0
 14 16  1  0  0  0  0
 15 12  2  0  0  0  0
 15 17  1  0  0  0  0
 17 11  1  6  0  0  0
 17 13  1  0  0  0  0
 19 18  1  6  0  0  0
 19 12  1  0  0  0  0
 20 23  1  0  0  0  0
 20 19  1  0  0  0  0
 23 21  1  0  0  0  0
 23 22  1  0  0  0  0
 24 23  1  0  0  0  0
 25  7  1  0  0  0  0
 26 25  1  0  0  0  0
 27 44  1  1  0  0  0
 27 26  1  0  0  0  0
 27 30  1  0  0  0  0
 28 31  2  0  0  0  0
 29 32  1  0  0  0  0
 30 31  1  0  0  0  0
 31 29  1  0  0  0  0
 32 40  1  0  0  0  0
 33 34  1  0  0  0  0
 33 39  1  0  0  0  0
 34 41  1  6  0  0  0
 35 33  2  0  0  0  0
 36 38  2  0  0  0  0
 37 34  1  0  0  0  0
 38 35  1  0  0  0  0
 40 36  1  0  0  0  0
 40 37  2  0  0  0  0
 43 36  1  0  0  0  0
 43 42  1  0  0  0  0
 45 44  1  0  0  0  0
 46 45  1  0  0  0  0
M  END
>  <MODEL>
5

>  <REMARK>
 VINA RESULT:      -5.9      4.053     10.701
  Name = 
  13 active torsions:
  status: ('A' for Active; 'I' for Inactive)
    1  A    between atoms: C_2  and  C_5
    2  A    between atoms: C_2  and  C_8
    3  A    between atoms: C_5  and  N_31
    4  A    between atoms: C_5  and  C_37
    5  A    between atoms: C_6  and  C_17
    6  A    between atoms: O_11  and  C_28
    7  A    between atoms: C_16  and  C_45
    8  A    between atoms: C_18  and  O_43
    9  A    between atoms: O_21  and  C_36
   10  A    between atoms: O_21  and  C_37
   11  A    between atoms: C_25  and  N_27
   12  A    between atoms: C_25  and  C_40
   13  A    between atoms: O_43  and  C_45
                            x       y       z     vdW  Elec       q    Type
                         _______ _______ _______ _____ _____    ______ ____

>  <TORSDO>
F 13

$$$$
=
 OpenBabel11042422003D

 46 48  0  0  1  0  0  0  0  0999 V2000
  162.6930  210.2980  152.9260 O   0  0  0  0  0  1  0  0  0  0  0  0
  161.4670  211.0510  150.9410 C   0  0  0  0  0  3  0  0  0  0  0  0
  162.5700  210.2770  148.8640 C   0  0  0  0  0  2  0  0  0  0  0  0
  161.8620  208.0390  149.0750 C   0  0  2  0  0  3  0  0  0  0  0  0
  161.8320  208.6510  151.4810 C   0  0  0  0  0  0  0  0  0  0  0  0
  161.0050  208.1780  150.3280 C   0  0  0  0  0  2  0  0  0  0  0  0
  161.6840  211.2160  149.6330 C   0  0  0  0  0  0  0  0  0  0  0  0
  162.0050  209.9500  151.7700 C   0  0  0  0  0  0  0  0  0  0  0  0
  162.4270  207.6890  152.2890 O   0  0  0  0  0  1  0  0  0  0  0  0
  161.7600  209.2370  148.2480 N   0  0  0  0  0  2  0  0  0  0  0  0
  160.2480  205.2380  149.5680 O   0  0  0  0  0  1  0  0  0  0  0  0
  161.3630  204.5000  146.6750 C   0  0  0  0  0  0  0  0  0  0  0  0
  161.4510  206.8330  148.2840 C   0  0  0  0  0  0  0  0  0  0  0  0
  160.6240  205.7320  146.2200 C   0  0  0  0  0  2  0  0  0  0  0  0
  161.7630  204.3850  147.9540 C   0  0  0  0  0  3  0  0  0  0  0  0
  161.0620  206.9450  147.0000 C   0  0  0  0  0  3  0  0  0  0  0  0
  161.4770  205.4790  148.9530 C   0  0  2  0  0  3  0  0  0  0  0  0
  162.6190  203.7440  144.8220 F   0  0  0  0  0  0  0  0  0  0  0  0
  161.6060  203.3940  145.6970 C   0  0  1  0  0  3  0  0  0  0  0  0
  161.9510  202.2130  146.3750 O   0  0  0  0  0  0  0  0  0  0  0  0
  159.8750  201.8020  145.4680 F   0  0  0  0  0  0  0  0  0  0  0  0
  160.2580  201.4030  147.6450 F   0  0  0  0  0  0  0  0  0  0  0  0
  160.8230  201.3680  146.3840 C   0  0  0  0  0  0  0  0  0  0  0  0
  161.1840  200.0580  146.1030 F   0  0  0  0  0  0  0  0  0  0  0  0
  161.0630  212.2910  148.9890 O   0  0  0  0  0  0  0  0  0  0  0  0
  161.0920  212.4660  147.5760 C   0  0  0  0  0  2  0  0  0  0  0  0
  160.5500  213.8320  147.1590 C   0  0  1  0  0  3  0  0  0  0  0  0
  162.4540  212.6390  145.2670 O   0  0  0  0  0  0  0  0  0  0  0  0
  161.5590  213.7910  143.4450 N   0  0  0  0  0  2  0  0  0  0  0  0
  160.6080  214.0190  145.7080 N   0  0  0  0  0  2  0  0  0  0  0  0
  161.5870  213.4460  144.8300 C   0  0  0  0  0  0  0  0  0  0  0  0
  162.5640  213.3090  142.5100 C   0  0  0  0  0  2  0  0  0  0  0  0
  160.1040  211.1490  139.4690 C   0  0  0  0  0  0  0  0  0  0  0  0
  159.7650  212.5030  140.0250 C   0  0  2  0  0  3  0  0  0  0  0  0
  161.3240  210.8810  139.0010 C   0  0  0  0  0  3  0  0  0  0  0  0
  162.7480  212.7090  140.0210 C   0  0  0  0  0  0  0  0  0  0  0  0
  160.5770  212.7980  141.2410 C   0  0  0  0  0  3  0  0  0  0  0  0
  162.4810  211.7960  139.0650 C   0  0  0  0  0  3  0  0  0  0  0  0
  159.1330  210.1550  139.3920 O   0  0  0  0  0  1  0  0  0  0  0  0
  161.9080  212.8900  141.2370 C   0  0  0  0  0  0  0  0  0  0  0  0
  158.2900  212.6300  140.3570 C   0  0  0  0  0  1  0  0  0  0  0  0
  164.5220  213.8280  138.6840 C   0  0  0  0  0  1  0  0  0  0  0  0
  163.9030  213.4970  139.9210 O   0  0  0  0  0  0  0  0  0  0  0  0
  159.1640  214.1180  147.7280 C   0  0  0  0  0  2  0  0  0  0  0  0
  158.0840  213.4370  146.9030 C   0  0  0  0  0  2  0  0  0  0  0  0
  158.3280  212.0780  146.8300 F   0  0  0  0  0  0  0  0  0  0  0  0
  2  8  1  0  0  0  0
  3  7  1  0  0  0  0
  4 13  1  6  0  0  0
  4  6  1  0  0  0  0
  5  8  2  0  0  0  0
  5  9  1  0  0  0  0
  6  5  1  0  0  0  0
  7  2  2  0  0  0  0
  8  1  1  0  0  0  0
 10  3  1  0  0  0  0
 10  4  1  0  0  0  0
 12 15  2  0  0  0  0
 13 17  1  0  0  0  0
 14 12  1  0  0  0  0
 14 16  1  0  0  0  0
 15 17  1  0  0  0  0
 16 13  2  0  0  0  0
 17 11  1  6  0  0  0
 19 18  1  6  0  0  0
 19 20  1  0  0  0  0
 19 12  1  0  0  0  0
 20 23  1  0  0  0  0
 21 23  1  0  0  0  0
 23 22  1  0  0  0  0
 24 23  1  0  0  0  0
 25  7  1  0  0  0  0
 26 25  1  0  0  0  0
 27 26  1  6  0  0  0
 27 44  1  0  0  0  0
 29 31  1  0  0  0  0
 30 27  1  0  0  0  0
 31 28  2  0  0  0  0
 31 30  1  0  0  0  0
 32 29  1  0  0  0  0
 33 34  1  0  0  0  0
 34 41  1  1  0  0  0
 34 37  1  0  0  0  0
 35 38  1  0  0  0  0
 35 33  2  0  0  0  0
 36 40  1  0  0  0  0
 38 36  2  0  0  0  0
 39 33  1  0  0  0  0
 40 37  2  0  0  0  0
 40 32  1  0  0  0  0
 42 43  1  0  0  0  0
 43 36  1  0  0  0  0
 45 44  1  0  0  0  0
 46 45  1  0  0  0  0
M  END
>  <MODEL>
6

>  <REMARK>
 VINA RESULT:      -5.7      4.939     10.297
  Name = 
  13 active torsions:
  status: ('A' for Active; 'I' for Inactive)
    1  A    between atoms: C_2  and  C_5
    2  A    between atoms: C_2  and  C_8
    3  A    between atoms: C_5  and  N_31
    4  A    between atoms: C_5  and  C_37
    5  A    between atoms: C_6  and  C_17
    6  A    between atoms: O_11  and  C_28
    7  A    between atoms: C_16  and  C_45
    8  A    between atoms: C_18  and  O_43
    9  A    between atoms: O_21  and  C_36
   10  A    between atoms: O_21  and  C_37
   11  A    between atoms: C_25  and  N_27
   12  A    between atoms: C_25  and  C_40
   13  A    between atoms: O_43  and  C_45
                            x       y       z     vdW  Elec       q    Type
                         _______ _______ _______ _____ _____    ______ ____

>  <TORSDO>
F 13

$$$$
=
 OpenBabel11042422003D

 46 48  0  0  1  0  0  0  0  0999 V2000
  161.6030  210.6760  150.5690 O   0  0  0  0  0  1  0  0  0  0  0  0
  162.2150  208.7190  151.9130 C   0  0  0  0  0  3  0  0  0  0  0  0
  160.5610  206.8960  151.6390 C   0  0  0  0  0  2  0  0  0  0  0  0
  161.2910  206.2770  149.4850 C   0  0  2  0  0  3  0  0  0  0  0  0
  162.0100  208.6540  149.4350 C   0  0  0  0  0  0  0  0  0  0  0  0
  162.4710  207.2330  149.3500 C   0  0  0  0  0  2  0  0  0  0  0  0
  161.6330  207.6200  152.4030 C   0  0  0  0  0  0  0  0  0  0  0  0
  161.9310  209.3260  150.5950 C   0  0  0  0  0  0  0  0  0  0  0  0
  161.6660  209.2960  148.2510 O   0  0  0  0  0  1  0  0  0  0  0  0
  161.1570  205.8190  150.8640 N   0  0  0  0  0  2  0  0  0  0  0  0
  163.2840  205.3320  147.0700 O   0  0  0  0  0  1  0  0  0  0  0  0
  161.1060  203.0440  146.6490 C   0  0  0  0  0  0  0  0  0  0  0  0
  161.4540  205.1020  148.5670 C   0  0  0  0  0  0  0  0  0  0  0  0
  161.4130  202.6710  148.0760 C   0  0  0  0  0  2  0  0  0  0  0  0
  161.3280  204.2970  146.2150 C   0  0  0  0  0  3  0  0  0  0  0  0
  161.2200  203.8480  148.9970 C   0  0  0  0  0  3  0  0  0  0  0  0
  161.8910  205.3470  147.1420 C   0  0  2  0  0  3  0  0  0  0  0  0
  160.3410  202.5400  144.4710 F   0  0  0  0  0  0  0  0  0  0  0  0
  160.5930  201.9920  145.7160 C   0  0  1  0  0  3  0  0  0  0  0  0
  161.5290  200.9510  145.5960 O   0  0  0  0  0  0  0  0  0  0  0  0
  161.6100  198.6510  145.5130 F   0  0  0  0  0  0  0  0  0  0  0  0
  159.6370  199.7180  145.4060 F   0  0  0  0  0  0  0  0  0  0  0  0
  160.8970  199.7490  145.9740 C   0  0  0  0  0  0  0  0  0  0  0  0
  160.7580  199.6750  147.3520 F   0  0  0  0  0  0  0  0  0  0  0  0
  162.0490  207.1530  153.6540 O   0  0  0  0  0  0  0  0  0  0  0  0
  161.1930  207.1300  154.7930 C   0  0  0  0  0  2  0  0  0  0  0  0
  161.0740  208.5060  155.4460 C   0  0  1  0  0  3  0  0  0  0  0  0
  159.9880  210.9790  156.6010 O   0  0  0  0  0  0  0  0  0  0  0  0
  157.9380  210.7350  155.5140 N   0  0  0  0  0  2  0  0  0  0  0  0
  159.7700  209.1190  155.1870 N   0  0  0  0  0  2  0  0  0  0  0  0
  159.2670  210.3090  155.8110 C   0  0  0  0  0  0  0  0  0  0  0  0
  157.3340  211.8880  156.1650 C   0  0  0  0  0  2  0  0  0  0  0  0
  156.2990  214.2640  152.5250 C   0  0  0  0  0  0  0  0  0  0  0  0
  155.5880  214.3810  153.8430 C   0  0  2  0  0  3  0  0  0  0  0  0
  157.6310  214.3130  152.4530 C   0  0  0  0  0  3  0  0  0  0  0  0
  158.3550  213.8270  154.8300 C   0  0  0  0  0  0  0  0  0  0  0  0
  155.9350  213.2410  154.7390 C   0  0  0  0  0  3  0  0  0  0  0  0
  158.5450  214.3720  153.6100 C   0  0  0  0  0  3  0  0  0  0  0  0
  155.5760  214.1450  151.3420 O   0  0  0  0  0  1  0  0  0  0  0  0
  157.1710  212.9960  155.1790 C   0  0  0  0  0  0  0  0  0  0  0  0
  154.0810  214.4530  153.6740 C   0  0  0  0  0  1  0  0  0  0  0  0
  159.0470  214.0990  157.2040 C   0  0  0  0  0  1  0  0  0  0  0  0
  159.3390  213.9830  155.8160 O   0  0  0  0  0  0  0  0  0  0  0  0
  161.4260  208.4890  156.9300 C   0  0  0  0  0  2  0  0  0  0  0  0
  162.7030  209.2690  157.1970 C   0  0  0  0  0  2  0  0  0  0  0  0
  162.8010  210.3330  156.3200 F   0  0  0  0  0  0  0  0  0  0  0  0
  1  8  1  0  0  0  0
  2  7  2  0  0  0  0
  3  7  1  0  0  0  0
  4 13  1  6  0  0  0
  4 10  1  0  0  0  0
  5  8  2  0  0  0  0
  6  5  1  0  0  0  0
  6  4  1  0  0  0  0
  7 25  1  0  0  0  0
  8  2  1  0  0  0  0
  9  5  1  0  0  0  0
 10  3  1  0  0  0  0
 12 14  1  0  0  0  0
 13 16  2  0  0  0  0
 14 16  1  0  0  0  0
 15 12  2  0  0  0  0
 15 17  1  0  0  0  0
 17 11  1  1  0  0  0
 17 13  1  0  0  0  0
 19 18  1  6  0  0  0
 19 12  1  0  0  0  0
 20 19  1  0  0  0  0
 20 23  1  0  0  0  0
 21 23  1  0  0  0  0
 22 23  1  0  0  0  0
 23 24  1  0  0  0  0
 25 26  1  0  0  0  0
 27 26  1  1  0  0  0
 27 44  1  0  0  0  0
 29 31  1  0  0  0  0
 29 32  1  0  0  0  0
 30 27  1  0  0  0  0
 30 31  1  0  0  0  0
 31 28  2  0  0  0  0
 33 34  1  0  0  0  0
 34 41  1  6  0  0  0
 34 37  1  0  0  0  0
 35 33  2  0  0  0  0
 35 38  1  0  0  0  0
 36 40  1  0  0  0  0
 36 43  1  0  0  0  0
 37 40  2  0  0  0  0
 38 36  2  0  0  0  0
 39 33  1  0  0  0  0
 40 32  1  0  0  0  0
 43 42  1  0  0  0  0
 44 45  1  0  0  0  0
 46 45  1  0  0  0  0
M  END
>  <MODEL>
7

>  <REMARK>
 VINA RESULT:      -5.5      4.071     11.428
  Name = 
  13 active torsions:
  status: ('A' for Active; 'I' for Inactive)
    1  A    between atoms: C_2  and  C_5
    2  A    between atoms: C_2  and  C_8
    3  A    between atoms: C_5  and  N_31
    4  A    between atoms: C_5  and  C_37
    5  A    between atoms: C_6  and  C_17
    6  A    between atoms: O_11  and  C_28
    7  A    between atoms: C_16  and  C_45
    8  A    between atoms: C_18  and  O_43
    9  A    between atoms: O_21  and  C_36
   10  A    between atoms: O_21  and  C_37
   11  A    between atoms: C_25  and  N_27
   12  A    between atoms: C_25  and  C_40
   13  A    between atoms: O_43  and  C_45
                            x       y       z     vdW  Elec       q    Type
                         _______ _______ _______ _____ _____    ______ ____

>  <TORSDO>
F 13

$$$$
=
 OpenBabel11042422003D

 46 48  0  0  1  0  0  0  0  0999 V2000
  160.2580  201.1980  150.4850 O   0  0  0  0  0  1  0  0  0  0  0  0
  161.5880  202.8660  149.2790 C   0  0  0  0  0  3  0  0  0  0  0  0
  160.4010  205.0370  149.1590 C   0  0  0  0  0  2  0  0  0  0  0  0
  160.7930  205.6110  151.4110 C   0  0  2  0  0  3  0  0  0  0  0  0
  160.8930  203.1420  151.6510 C   0  0  0  0  0  0  0  0  0  0  0  0
  161.6540  204.4190  151.8140 C   0  0  0  0  0  2  0  0  0  0  0  0
  161.4030  204.0360  148.6580 C   0  0  0  0  0  0  0  0  0  0  0  0
  160.8990  202.4310  150.5120 C   0  0  0  0  0  0  0  0  0  0  0  0
  160.1660  202.6760  152.7410 O   0  0  0  0  0  1  0  0  0  0  0  0
  161.0640  205.9960  150.0300 N   0  0  0  0  0  2  0  0  0  0  0  0
  162.3330  206.2070  154.2340 O   0  0  0  0  0  1  0  0  0  0  0  0
  160.8040  208.9980  154.0690 C   0  0  0  0  0  0  0  0  0  0  0  0
  161.0390  206.7740  152.3250 C   0  0  0  0  0  0  0  0  0  0  0  0
  161.5290  209.1680  152.7580 C   0  0  0  0  0  2  0  0  0  0  0  0
  160.5770  207.7670  154.5610 C   0  0  0  0  0  3  0  0  0  0  0  0
  161.2550  208.0090  151.8340 C   0  0  0  0  0  3  0  0  0  0  0  0
  161.0440  206.5400  153.8180 C   0  0  2  0  0  3  0  0  0  0  0  0
  161.3510  211.1980  154.7360 F   0  0  0  0  0  0  0  0  0  0  0  0
  160.3820  210.2150  154.8300 C   0  0  1  0  0  3  0  0  0  0  0  0
  159.1620  210.7010  154.3310 O   0  0  0  0  0  0  0  0  0  0  0  0
  157.0710  210.6410  155.2940 F   0  0  0  0  0  0  0  0  0  0  0  0
  158.3380  212.4900  155.4510 F   0  0  0  0  0  0  0  0  0  0  0  0
  158.3720  211.1080  155.4240 C   0  0  0  0  0  0  0  0  0  0  0  0
  158.9150  210.6610  156.6200 F   0  0  0  0  0  0  0  0  0  0  0  0
  162.1700  204.3090  147.5210 O   0  0  0  0  0  0  0  0  0  0  0  0
  162.3450  205.6260  147.0060 C   0  0  0  0  0  2  0  0  0  0  0  0
  161.0390  206.2070  146.4680 C   0  0  1  0  0  3  0  0  0  0  0  0
  162.7680  207.8040  148.2260 O   0  0  0  0  0  0  0  0  0  0  0  0
  161.2980  209.6150  148.2380 N   0  0  0  0  0  2  0  0  0  0  0  0
  160.8290  207.5820  146.9250 N   0  0  0  0  0  2  0  0  0  0  0  0
  161.6840  208.3060  147.8210 C   0  0  0  0  0  0  0  0  0  0  0  0
  162.0750  210.3780  149.2020 C   0  0  0  0  0  2  0  0  0  0  0  0
  159.1850  213.7050  149.9410 C   0  0  0  0  0  0  0  0  0  0  0  0
  160.2380  213.2650  150.9180 C   0  0  2  0  0  3  0  0  0  0  0  0
  159.4880  213.9510  148.6640 C   0  0  0  0  0  3  0  0  0  0  0  0
  161.7100  212.7760  148.3630 C   0  0  0  0  0  0  0  0  0  0  0  0
  160.8060  211.9420  150.5300 C   0  0  0  0  0  3  0  0  0  0  0  0
  160.8090  213.7270  148.0440 C   0  0  0  0  0  3  0  0  0  0  0  0
  157.8730  213.9060  150.3590 O   0  0  0  0  0  1  0  0  0  0  0  0
  161.4640  211.7270  149.3890 C   0  0  0  0  0  0  0  0  0  0  0  0
  159.7040  213.1910  152.3370 C   0  0  0  0  0  1  0  0  0  0  0  0
  163.0630  213.1000  146.3000 C   0  0  0  0  0  1  0  0  0  0  0  0
  162.9220  212.7100  147.6610 O   0  0  0  0  0  0  0  0  0  0  0  0
  160.9090  206.0690  144.9550 C   0  0  0  0  0  2  0  0  0  0  0  0
  161.2380  204.6550  144.5050 C   0  0  0  0  0  2  0  0  0  0  0  0
  160.2020  203.8000  144.8340 F   0  0  0  0  0  0  0  0  0  0  0  0
  1  8  1  0  0  0  0
  2  8  1  0  0  0  0
  3 10  1  0  0  0  0
  4  6  1  0  0  0  0
  4 13  1  1  0  0  0
  5  6  1  0  0  0  0
  5  9  1  0  0  0  0
  7  3  1  0  0  0  0
  7  2  2  0  0  0  0
  8  5  2  0  0  0  0
 10  4  1  0  0  0  0
 12 15  2  0  0  0  0
 12 19  1  0  0  0  0
 13 17  1  0  0  0  0
 14 12  1  0  0  0  0
 16 13  2  0  0  0  0
 16 14  1  0  0  0  0
 17 11  1  1  0  0  0
 17 15  1  0  0  0  0
 19 18  1  6  0  0  0
 20 19  1  0  0  0  0
 20 23  1  0  0  0  0
 21 23  1  0  0  0  0
 23 22  1  0  0  0  0
 23 24  1  0  0  0  0
 25  7  1  0  0  0  0
 26 25  1  0  0  0  0
 27 44  1  6  0  0  0
 27 30  1  0  0  0  0
 27 26  1  0  0  0  0
 29 32  1  0  0  0  0
 30 31  1  0  0  0  0
 31 28  2  0  0  0  0
 31 29  1  0  0  0  0
 32 40  1  0  0  0  0
 33 39  1  0  0  0  0
 33 34  1  0  0  0  0
 34 41  1  1  0  0  0
 35 33  2  0  0  0  0
 36 40  1  0  0  0  0
 37 34  1  0  0  0  0
 38 36  2  0  0  0  0
 38 35  1  0  0  0  0
 40 37  2  0  0  0  0
 42 43  1  0  0  0  0
 43 36  1  0  0  0  0
 45 46  1  0  0  0  0
 45 44  1  0  0  0  0
M  END
>  <MODEL>
8

>  <REMARK>
 VINA RESULT:      -5.5      2.607      8.217
  Name = 
  13 active torsions:
  status: ('A' for Active; 'I' for Inactive)
    1  A    between atoms: C_2  and  C_5
    2  A    between atoms: C_2  and  C_8
    3  A    between atoms: C_5  and  N_31
    4  A    between atoms: C_5  and  C_37
    5  A    between atoms: C_6  and  C_17
    6  A    between atoms: O_11  and  C_28
    7  A    between atoms: C_16  and  C_45
    8  A    between atoms: C_18  and  O_43
    9  A    between atoms: O_21  and  C_36
   10  A    between atoms: O_21  and  C_37
   11  A    between atoms: C_25  and  N_27
   12  A    between atoms: C_25  and  C_40
   13  A    between atoms: O_43  and  C_45
                            x       y       z     vdW  Elec       q    Type
                         _______ _______ _______ _____ _____    ______ ____

>  <TORSDO>
F 13

$$$$
=
 OpenBabel11042422003D

 46 48  0  0  1  0  0  0  0  0999 V2000
  161.3830  207.4050  152.7180 O   0  0  0  0  0  1  0  0  0  0  0  0
  161.0780  208.2510  150.4370 C   0  0  0  0  0  3  0  0  0  0  0  0
  162.8420  207.3960  148.9250 C   0  0  0  0  0  2  0  0  0  0  0  0
  161.9520  205.2190  148.7780 C   0  0  2  0  0  3  0  0  0  0  0  0
  161.0350  205.8300  151.0040 C   0  0  0  0  0  0  0  0  0  0  0  0
  160.6880  205.4230  149.6070 C   0  0  0  0  0  2  0  0  0  0  0  0
  161.7960  208.3990  149.3200 C   0  0  0  0  0  0  0  0  0  0  0  0
  161.1740  207.1120  151.3750 C   0  0  0  0  0  0  0  0  0  0  0  0
  161.2020  204.8240  151.9490 O   0  0  0  0  0  1  0  0  0  0  0  0
  162.2630  206.4220  148.0130 N   0  0  0  0  0  2  0  0  0  0  0  0
  163.2140  204.1620  145.9520 O   0  0  0  0  0  1  0  0  0  0  0  0
  160.8320  202.0490  146.0900 C   0  0  0  0  0  0  0  0  0  0  0  0
  161.7960  204.0490  147.8540 C   0  0  0  0  0  0  0  0  0  0  0  0
  161.4510  201.6340  147.4000 C   0  0  0  0  0  2  0  0  0  0  0  0
  161.0360  203.2880  145.6080 C   0  0  0  0  0  3  0  0  0  0  0  0
  161.5800  202.8100  148.3340 C   0  0  0  0  0  3  0  0  0  0  0  0
  161.8860  204.2800  146.3630 C   0  0  2  0  0  3  0  0  0  0  0  0
  159.1400  201.7010  144.4780 F   0  0  0  0  0  0  0  0  0  0  0  0
  160.0280  201.0510  145.3170 C   0  0  1  0  0  3  0  0  0  0  0  0
  160.8760  200.2230  144.5620 O   0  0  0  0  0  0  0  0  0  0  0  0
  161.5010  198.0210  144.3210 F   0  0  0  0  0  0  0  0  0  0  0  0
  159.5510  198.5420  145.3060 F   0  0  0  0  0  0  0  0  0  0  0  0
  160.8650  198.9400  145.1440 C   0  0  0  0  0  0  0  0  0  0  0  0
  161.4740  198.9570  146.3900 F   0  0  0  0  0  0  0  0  0  0  0  0
  161.5500  209.5200  148.5200 O   0  0  0  0  0  0  0  0  0  0  0  0
  162.2760  210.7380  148.6540 C   0  0  0  0  0  2  0  0  0  0  0  0
  161.3490  211.9510  148.7160 C   0  0  1  0  0  3  0  0  0  0  0  0
  162.3370  210.9730  151.3040 O   0  0  0  0  0  0  0  0  0  0  0  0
  160.4260  211.6770  152.4420 N   0  0  0  0  0  2  0  0  0  0  0  0
  160.7080  212.0760  150.0260 N   0  0  0  0  0  2  0  0  0  0  0  0
  161.2110  211.5420  151.2590 C   0  0  0  0  0  0  0  0  0  0  0  0
  160.8360  211.0960  153.7110 C   0  0  0  0  0  2  0  0  0  0  0  0
  157.5620  213.0850  156.0100 C   0  0  0  0  0  0  0  0  0  0  0  0
  157.4700  211.7020  155.4300 C   0  0  2  0  0  3  0  0  0  0  0  0
  158.6100  213.4550  156.7490 C   0  0  0  0  0  3  0  0  0  0  0  0
  160.3710  211.7360  156.1520 C   0  0  0  0  0  0  0  0  0  0  0  0
  158.5700  211.4600  154.4520 C   0  0  0  0  0  3  0  0  0  0  0  0
  159.8140  212.6360  156.9890 C   0  0  0  0  0  3  0  0  0  0  0  0
  156.5290  213.9990  155.8230 O   0  0  0  0  0  1  0  0  0  0  0  0
  159.8640  211.4750  154.7780 C   0  0  0  0  0  0  0  0  0  0  0  0
  156.1310  211.4530  154.7590 C   0  0  0  0  0  1  0  0  0  0  0  0
  161.4960  209.7860  157.2100 C   0  0  0  0  0  1  0  0  0  0  0  0
  161.5240  211.0450  156.5490 O   0  0  0  0  0  0  0  0  0  0  0  0
  162.0330  213.2420  148.2760 C   0  0  0  0  0  2  0  0  0  0  0  0
  162.7170  213.0650  146.9300 C   0  0  0  0  0  2  0  0  0  0  0  0
  161.8010  212.6470  145.9830 F   0  0  0  0  0  0  0  0  0  0  0  0
  2  8  1  0  0  0  0
  3  7  1  0  0  0  0
  4 13  1  6  0  0  0
  4  6  1  0  0  0  0
  5  8  2  0  0  0  0
  5  9  1  0  0  0  0
  6  5  1  0  0  0  0
  7  2  2  0  0  0  0
  8  1  1  0  0  0  0
 10  4  1  0  0  0  0
 10  3  1  0  0  0  0
 12 14  1  0  0  0  0
 13 16  2  0  0  0  0
 14 16  1  0  0  0  0
 15 12  2  0  0  0  0
 15 17  1  0  0  0  0
 17 11  1  6  0  0  0
 17 13  1  0  0  0  0
 19 18  1  6  0  0  0
 19 12  1  0  0  0  0
 20 23  1  0  0  0  0
 20 19  1  0  0  0  0
 21 23  1  0  0  0  0
 23 22  1  0  0  0  0
 23 24  1  0  0  0  0
 25 26  1  0  0  0  0
 25  7  1  0  0  0  0
 26 27  1  0  0  0  0
 27 44  1  1  0  0  0
 27 30  1  0  0  0  0
 29 32  1  0  0  0  0
 30 31  1  0  0  0  0
 31 28  2  0  0  0  0
 31 29  1  0  0  0  0
 32 40  1  0  0  0  0
 33 35  2  0  0  0  0
 34 41  1  6  0  0  0
 34 33  1  0  0  0  0
 35 38  1  0  0  0  0
 36 43  1  0  0  0  0
 36 38  2  0  0  0  0
 37 40  2  0  0  0  0
 37 34  1  0  0  0  0
 39 33  1  0  0  0  0
 40 36  1  0  0  0  0
 43 42  1  0  0  0  0
 45 44  1  0  0  0  0
 46 45  1  0  0  0  0
M  END
>  <MODEL>
9

>  <REMARK>
 VINA RESULT:      -5.0      4.478     11.420
  Name = 
  13 active torsions:
  status: ('A' for Active; 'I' for Inactive)
    1  A    between atoms: C_2  and  C_5
    2  A    between atoms: C_2  and  C_8
    3  A    between atoms: C_5  and  N_31
    4  A    between atoms: C_5  and  C_37
    5  A    between atoms: C_6  and  C_17
    6  A    between atoms: O_11  and  C_28
    7  A    between atoms: C_16  and  C_45
    8  A    between atoms: C_18  and  O_43
    9  A    between atoms: O_21  and  C_36
   10  A    between atoms: O_21  and  C_37
   11  A    between atoms: C_25  and  N_27
   12  A    between atoms: C_25  and  C_40
   13  A    between atoms: O_43  and  C_45
                            x       y       z     vdW  Elec       q    Type
                         _______ _______ _______ _____ _____    ______ ____

>  <TORSDO>
F 13

$$$$
