=
 OpenBabel11042422423D

 66 72  0  0  1  0  0  0  0  0999 V2000
  156.8630  212.6490  153.9320 C   0  0  0  0  0  0  0  0  0  0  0  0
  160.5670  212.9720  150.9700 C   0  0  0  0  0  2  0  0  0  0  0  0
  158.1330  212.9820  153.6320 N   0  0  0  0  0  0  0  0  0  0  0  0
  160.9900  211.5840  150.6140 N   0  0  0  0  0  0  0  0  0  0  0  0
  156.8950  211.3550  154.4430 C   0  0  0  0  0  0  0  0  0  0  0  0
  158.9060  211.9560  153.9690 C   0  0  0  0  0  0  0  0  0  0  0  0
  160.8290  210.4920  151.5120 N   0  0  0  0  0  2  0  0  0  0  0  0
  155.6550  213.4420  153.5600 C   0  0  0  0  0  1  0  0  0  0  0  0
  158.1930  210.9130  154.4610 N   0  0  0  0  0  0  0  0  0  0  0  0
  159.9030  213.0300  152.3170 C   0  0  0  0  0  0  0  0  0  0  0  0
  160.0910  211.9990  153.2320 C   0  0  0  0  0  0  0  0  0  0  0  0
  158.6250  209.5170  154.5580 C   0  0  0  0  0  1  0  0  0  0  0  0
  158.7050  213.6550  152.6180 C   0  0  0  0  0  0  0  0  0  0  0  0
  161.1040  210.9690  152.8600 C   0  0  1  0  0  3  0  0  0  0  0  0
  155.5830  209.4550  153.9380 F   0  0  0  0  0  0  0  0  0  0  0  0
  155.8030  210.0610  156.0970 F   0  0  0  0  0  0  0  0  0  0  0  0
  155.6820  210.5320  154.8020 C   0  0  0  0  0  0  0  0  0  0  0  0
  154.5180  211.2750  154.7180 F   0  0  0  0  0  0  0  0  0  0  0  0
  157.9730  214.4510  151.6880 N   0  0  0  0  0  2  0  0  0  0  0  0
  156.8620  213.9610  151.0960 O   0  0  0  0  0  1  0  0  0  0  0  0
  161.4310  211.2960  149.2740 C   0  0  0  0  0  0  0  0  0  0  0  0
  162.4950  210.5100  149.0930 C   0  0  0  0  0  2  0  0  0  0  0  0
  160.8500  211.2880  146.9690 O   0  0  0  0  0  0  0  0  0  0  0  0
  160.7130  211.8340  148.0880 C   0  0  0  0  0  0  0  0  0  0  0  0
  159.7080  213.3200  148.1820 S   0  0  0  0  0  0  0  0  0  0  0  0
  160.1210  213.8180  146.4750 C   0  0  0  0  0  2  0  0  0  0  0  0
  161.1280  211.5330  142.7860 O   0  0  0  0  0  1  0  0  0  0  0  0
  159.4310  213.2730  142.4320 C   0  0  1  0  0  3  0  0  0  0  0  0
  158.2970  213.8790  143.1450 N   0  0  0  0  0  2  0  0  0  0  0  0
  160.4280  212.5850  143.3890 C   0  0  1  0  0  3  0  0  0  0  0  0
  159.1080  213.3230  145.4250 C   0  0  2  0  0  0  0  0  0  0  0  0
  158.8830  212.3140  141.3870 C   0  0  0  0  0  1  0  0  0  0  0  0
  159.7500  212.1320  144.6810 C   0  0  0  0  0  2  0  0  0  0  0  0
  158.7330  214.4520  144.4320 C   0  0  0  0  0  2  0  0  0  0  0  0
  157.8290  212.8510  146.0940 C   0  0  0  0  0  0  0  0  0  0  0  0
  157.5920  211.6110  146.1500 O   0  0  0  0  0  0  0  0  0  0  0  0
  155.8640  214.4530  145.6480 C   0  0  0  0  0  1  0  0  0  0  0  0
  156.7060  214.0400  147.8310 O   0  0  0  0  0  0  0  0  0  0  0  0
  156.7980  213.7870  146.5980 C   0  0  0  0  0  0  0  0  0  0  0  0
  161.4420  209.8800  153.8740 C   0  0  2  0  0  3  0  0  0  0  0  0
  160.8770  208.5980  153.5410 O   0  0  0  0  0  0  0  0  0  0  0  0
  161.4400  207.3550  153.8710 C   0  0  0  0  0  0  0  0  0  0  0  0
  161.9190  207.1460  155.0230 O   0  0  0  0  0  0  0  0  0  0  0  0
  161.4050  205.7740  148.1950 C   0  0  2  0  0  3  0  0  0  0  0  0
  161.3840  206.2120  152.9010 C   0  0  1  0  0  3  0  0  0  0  0  0
  160.2020  204.1260  152.1970 C   0  0  0  0  0  3  0  0  0  0  0  0
  162.4060  203.2260  149.2330 O   0  0  0  0  0  1  0  0  0  0  0  0
  161.0630  203.2810  148.8070 C   0  0  2  0  0  0  0  0  0  0  0  0
  160.8860  204.3990  147.7780 C   0  0  0  0  0  2  0  0  0  0  0  0
  160.3240  205.1680  153.2830 C   0  0  0  0  0  2  0  0  0  0  0  0
  161.1290  206.6970  151.4910 C   0  0  0  0  0  3  0  0  0  0  0  0
  160.2040  203.4570  149.9390 O   0  0  0  0  0  0  0  0  0  0  0  0
  160.6940  205.8560  150.5550 C   0  0  0  0  0  0  0  0  0  0  0  0
  160.4190  206.3860  149.1930 C   0  0  0  0  0  2  0  0  0  0  0  0
  160.3590  204.4560  150.9080 C   0  0  0  0  0  0  0  0  0  0  0  0
  160.6790  201.9680  148.1100 C   0  0  2  0  0  3  0  0  0  0  0  0
  161.5290  200.7920  148.5380 C   0  0  0  0  0  2  0  0  0  0  0  0
  161.9030  200.0370  147.4090 O   0  0  0  0  0  0  0  0  0  0  0  0
  160.8310  202.0090  146.6170 C   0  0  0  0  0  2  0  0  0  0  0  0
  161.2670  200.6070  146.2850 C   0  0  0  0  0  2  0  0  0  0  0  0
  160.4010  206.2670  146.0620 C   0  0  0  0  0  1  0  0  0  0  0  0
  161.4950  206.5930  146.9840 N   0  0  0  0  0  2  0  0  0  0  0  0
  161.1840  210.2510  155.2100 O   0  0  0  0  0  0  0  0  0  0  0  0
  163.0640  210.0550  156.4600 C   0  0  0  0  0  1  0  0  0  0  0  0
  162.2590  210.9570  155.6500 N   0  0  0  0  0  0  0  0  0  0  0  0
  161.7420  211.9730  156.5520 C   0  0  0  0  0  1  0  0  0  0  0  0
  1  5  2  0  0  0  0
  2 10  1  0  0  0  0
  3  1  1  0  0  0  0
  3  6  1  0  0  0  0
  4  2  1  0  0  0  0
  4  7  1  0  0  0  0
  5  9  1  0  0  0  0
  5 17  1  0  0  0  0
  6  9  1  0  0  0  0
  7 14  1  0  0  0  0
  8  1  1  0  0  0  0
  9 12  1  0  0  0  0
 10 13  2  0  0  0  0
 10 11  1  0  0  0  0
 11  6  2  0  0  0  0
 13  3  1  0  0  0  0
 14 11  1  0  0  0  0
 14 40  1  1  0  0  0
 15 17  1  0  0  0  0
 17 16  1  0  0  0  0
 18 17  1  0  0  0  0
 19 13  1  0  0  0  0
 20 19  1  0  0  0  0
 21  4  1  0  0  0  0
 22 21  2  0  0  0  0
 23 24  2  0  0  0  0
 24 25  1  0  0  0  0
 24 21  1  0  0  0  0
 26 25  1  0  0  0  0
 28 32  1  6  0  0  0
 28 29  1  0  0  0  0
 28 30  1  0  0  0  0
 29 34  1  0  0  0  0
 30 27  1  6  0  0  0
 30 33  1  0  0  0  0
 31 35  1  0  0  0  0
 31 26  1  1  0  0  0
 33 31  1  0  0  0  0
 34 31  1  0  0  0  0
 35 36  2  0  0  0  0
 35 39  1  0  0  0  0
 37 39  1  0  0  0  0
 39 38  2  0  0  0  0
 40 41  1  6  0  0  0
 40 63  1  0  0  0  0
 41 42  1  0  0  0  0
 42 43  2  0  0  0  0
 44 62  1  6  0  0  0
 44 54  1  0  0  0  0
 45 50  1  0  0  0  0
 45 42  1  1  0  0  0
 46 50  1  0  0  0  0
 48 47  1  1  0  0  0
 48 52  1  0  0  0  0
 49 44  1  0  0  0  0
 49 48  1  0  0  0  0
 51 45  1  0  0  0  0
 52 55  1  0  0  0  0
 53 55  1  0  0  0  0
 53 51  2  0  0  0  0
 54 53  1  0  0  0  0
 55 46  2  0  0  0  0
 56 59  1  6  0  0  0
 56 57  1  0  0  0  0
 56 48  1  0  0  0  0
 58 57  1  0  0  0  0
 60 59  1  0  0  0  0
 60 58  1  0  0  0  0
 61 62  1  0  0  0  0
 63 65  1  0  0  0  0
 65 64  1  0  0  0  0
 65 66  1  0  0  0  0
M  END
>  <MODEL>
1

>  <REMARK>
 VINA RESULT:      -3.0      0.000      0.000
  Name = 
  17 active torsions:
  status: ('A' for Active; 'I' for Inactive)
    1  A    between atoms: C_1  and  N_46
    2  A    between atoms: C_5  and  N_22
    3  A    between atoms: C_5  and  C_66
    4  A    between atoms: C_6  and  O_35
    5  A    between atoms: C_6  and  C_62
    6  A    between atoms: C_6  and  O_65
    7  A    between atoms: C_7  and  C_27
    8  A    between atoms: N_9  and  C_61
    9  A    between atoms: C_10  and  C_43
   10  A    between atoms: C_10  and  C_47
   11  A    between atoms: C_11  and  C_43
   12  A    between atoms: C_11  and  S_58
   13  A    between atoms: C_13  and  C_25
   14  A    between atoms: C_24  and  C_32
   15  A    between atoms: C_25  and  O_35
   16  A    between atoms: N_41  and  O_65
   17  A    between atoms: S_58  and  C_66
                            x       y       z     vdW  Elec       q    Type
                         _______ _______ _______ _____ _____    ______ ____

>  <TORSDO>
F 17

$$$$
