=
 OpenBabel11042420303D

 31 35  0  0  1  0  0  0  0  0999 V2000
  161.5810  207.2970  150.6930 C   0  0  0  0  0  0  0  0  0  0  0  0
  161.8680  208.7020  150.3090 C   0  0  0  0  0  3  0  0  0  0  0  0
  161.2070  205.8000  152.6130 N   0  0  0  0  0  0  0  0  0  0  0  0
  161.8740  209.7010  151.2030 C   0  0  0  0  0  3  0  0  0  0  0  0
  161.3220  207.5360  154.2600 N   0  0  0  0  0  0  0  0  0  0  0  0
  161.1570  206.0790  154.0500 C   0  0  0  0  0  3  0  0  0  0  0  0
  161.5380  209.4830  152.6590 C   0  0  0  0  0  0  0  0  0  0  0  0
  161.4350  207.0460  152.0060 C   0  0  0  0  0  0  0  0  0  0  0  0
  161.5250  208.0550  152.9740 N   0  0  0  0  0  0  0  0  0  0  0  0
  160.6100  202.6630  149.3340 C   0  0  0  0  0  3  0  0  0  0  0  0
  161.5040  206.2520  149.6330 C   0  0  0  0  0  0  0  0  0  0  0  0
  161.8420  206.5260  148.2950 C   0  0  0  0  0  3  0  0  0  0  0  0
  161.0190  203.9530  148.9960 C   0  0  0  0  0  0  0  0  0  0  0  0
  160.8850  201.9970  147.0260 C   0  0  0  0  0  0  0  0  0  0  0  0
  161.0940  204.9510  149.9690 C   0  0  0  0  0  3  0  0  0  0  0  0
  160.5410  201.6780  148.3480 C   0  0  0  0  0  3  0  0  0  0  0  0
  162.1110  205.8410  146.0020 O   0  0  0  0  0  1  0  0  0  0  0  0
  161.7710  205.5330  147.3130 C   0  0  0  0  0  0  0  0  0  0  0  0
  161.3580  204.2420  147.6580 C   0  0  0  0  0  0  0  0  0  0  0  0
  161.2820  203.2610  146.7160 N   0  0  0  0  0  0  0  0  0  0  0  0
  160.0220  201.1120  144.9560 N   0  0  0  0  0  2  0  0  0  0  0  0
  160.8240  200.9880  145.9630 C   0  0  0  0  0  3  0  0  0  0  0  0
  160.1690  210.0870  152.9720 C   0  0  0  0  0  2  0  0  0  0  0  0
  162.2740  210.4570  155.3960 Cl  0  0  0  0  0  0  0  0  0  0  0  0
  160.5140  212.3180  156.0790 N   0  0  0  0  0  0  0  0  0  0  0  0
  159.6760  214.4520  156.6150 N   0  0  0  0  0  1  0  0  0  0  0  0
  158.9220  212.1310  153.7590 C   0  0  0  0  0  2  0  0  0  0  0  0
  159.7350  213.3120  155.7680 C   0  0  0  0  0  0  0  0  0  0  0  0
  160.6170  211.1020  155.2720 C   0  0  1  0  0  3  0  0  0  0  0  0
  158.9920  213.2920  154.5830 O   0  0  0  0  0  0  0  0  0  0  0  0
  160.2430  211.3690  153.8080 C   0  0  1  0  0  3  0  0  0  0  0  0
  1  8  1  0  0  0  0
  2  1  2  0  0  0  0
  2  4  1  0  0  0  0
  3  6  1  0  0  0  0
  4  7  2  0  0  0  0
  6  5  2  0  0  0  0
  7 23  1  0  0  0  0
  7  9  1  0  0  0  0
  8  3  2  0  0  0  0
  8  9  1  0  0  0  0
  9  5  1  0  0  0  0
 11 15  1  0  0  0  0
 11  1  1  0  0  0  0
 12 11  2  0  0  0  0
 13 10  1  0  0  0  0
 13 15  2  0  0  0  0
 14 16  1  0  0  0  0
 16 10  2  0  0  0  0
 17 18  1  0  0  0  0
 18 19  2  0  0  0  0
 18 12  1  0  0  0  0
 19 13  1  0  0  0  0
 20 14  2  0  0  0  0
 20 19  1  0  0  0  0
 21 22  2  0  0  0  0
 22 14  1  0  0  0  0
 27 31  1  0  0  0  0
 27 30  1  0  0  0  0
 28 25  2  0  0  0  0
 28 26  1  0  0  0  0
 29 24  1  6  0  0  0
 29 25  1  0  0  0  0
 30 28  1  0  0  0  0
 31 23  1  6  0  0  0
 31 29  1  0  0  0  0
M  END
>  <MODEL>
1

>  <REMARK>
 VINA RESULT:     -10.0      0.000      0.000
  Name = 
  4 active torsions:
  status: ('A' for Active; 'I' for Inactive)
    1  A    between atoms: C_3  and  C_5
    2  A    between atoms: C_9  and  C_24
    3  A    between atoms: C_16  and  C_23
    4  A    between atoms: C_16  and  C_30
                            x       y       z     vdW  Elec       q    Type
                         _______ _______ _______ _____ _____    ______ ____

>  <TORSDO>
F 4

$$$$
=
 OpenBabel11042420303D

 31 35  0  0  1  0  0  0  0  0999 V2000
  161.1960  208.0210  152.9260 C   0  0  0  0  0  0  0  0  0  0  0  0
  161.2390  206.6830  153.5660 C   0  0  0  0  0  3  0  0  0  0  0  0
  161.7350  209.2530  150.8620 N   0  0  0  0  0  0  0  0  0  0  0  0
  161.5910  205.5780  152.8930 C   0  0  0  0  0  3  0  0  0  0  0  0
  162.4820  207.3240  149.6530 N   0  0  0  0  0  0  0  0  0  0  0  0
  162.2950  208.7920  149.5900 C   0  0  0  0  0  3  0  0  0  0  0  0
  161.9190  205.6020  151.4190 C   0  0  0  0  0  0  0  0  0  0  0  0
  161.6350  208.0990  151.6570 C   0  0  0  0  0  0  0  0  0  0  0  0
  162.0940  206.9780  150.9550 N   0  0  0  0  0  0  0  0  0  0  0  0
  158.2270  211.9260  153.3680 C   0  0  0  0  0  3  0  0  0  0  0  0
  160.7100  209.1910  153.7110 C   0  0  0  0  0  0  0  0  0  0  0  0
  161.2440  209.5100  154.9730 C   0  0  0  0  0  3  0  0  0  0  0  0
  159.2310  211.1160  153.8960 C   0  0  0  0  0  0  0  0  0  0  0  0
  158.3300  213.3060  155.3520 C   0  0  0  0  0  0  0  0  0  0  0  0
  159.6990  210.0110  153.1830 C   0  0  0  0  0  3  0  0  0  0  0  0
  157.7720  213.0270  154.0960 C   0  0  0  0  0  3  0  0  0  0  0  0
  161.3310  210.8980  156.9400 O   0  0  0  0  0  1  0  0  0  0  0  0
  160.7820  210.6140  155.6960 C   0  0  0  0  0  0  0  0  0  0  0  0
  159.7730  211.4230  155.1610 C   0  0  0  0  0  0  0  0  0  0  0  0
  159.3100  212.5030  155.8500 N   0  0  0  0  0  0  0  0  0  0  0  0
  156.8220  214.3860  156.8900 N   0  0  0  0  0  2  0  0  0  0  0  0
  157.8770  214.4530  156.1450 C   0  0  0  0  0  3  0  0  0  0  0  0
  160.7950  204.9350  150.6260 C   0  0  0  0  0  2  0  0  0  0  0  0
  161.6530  204.9840  147.5110 Cl  0  0  0  0  0  0  0  0  0  0  0  0
  161.1080  202.4010  147.7560 N   0  0  0  0  0  0  0  0  0  0  0  0
  161.4550  200.0740  147.7110 N   0  0  0  0  0  1  0  0  0  0  0  0
  160.6940  202.4180  150.5460 C   0  0  0  0  0  2  0  0  0  0  0  0
  161.1910  201.2820  148.4120 C   0  0  0  0  0  0  0  0  0  0  0  0
  160.8200  203.6830  148.4000 C   0  0  1  0  0  3  0  0  0  0  0  0
  161.0740  201.2600  149.8060 O   0  0  0  0  0  0  0  0  0  0  0  0
  161.2400  203.6750  149.8760 C   0  0  1  0  0  3  0  0  0  0  0  0
  1  2  2  0  0  0  0
  1 11  1  0  0  0  0
  3  8  2  0  0  0  0
  4  2  1  0  0  0  0
  5  9  1  0  0  0  0
  6  5  2  0  0  0  0
  6  3  1  0  0  0  0
  7  4  2  0  0  0  0
  8  1  1  0  0  0  0
  9  7  1  0  0  0  0
  9  8  1  0  0  0  0
 10 13  2  0  0  0  0
 10 16  1  0  0  0  0
 11 12  1  0  0  0  0
 12 18  2  0  0  0  0
 13 19  1  0  0  0  0
 14 20  1  0  0  0  0
 14 22  1  0  0  0  0
 15 11  2  0  0  0  0
 15 13  1  0  0  0  0
 16 14  2  0  0  0  0
 18 17  1  0  0  0  0
 19 18  1  0  0  0  0
 19 20  2  0  0  0  0
 22 21  2  0  0  0  0
 23  7  1  0  0  0  0
 25 29  1  0  0  0  0
 25 28  2  0  0  0  0
 26 28  1  0  0  0  0
 28 30  1  0  0  0  0
 29 24  1  6  0  0  0
 29 31  1  0  0  0  0
 30 27  1  0  0  0  0
 31 27  1  0  0  0  0
 31 23  1  1  0  0  0
M  END
>  <MODEL>
2

>  <REMARK>
 VINA RESULT:      -9.6      2.718     10.155
  Name = 
  4 active torsions:
  status: ('A' for Active; 'I' for Inactive)
    1  A    between atoms: C_3  and  C_5
    2  A    between atoms: C_9  and  C_24
    3  A    between atoms: C_16  and  C_23
    4  A    between atoms: C_16  and  C_30
                            x       y       z     vdW  Elec       q    Type
                         _______ _______ _______ _____ _____    ______ ____

>  <TORSDO>
F 4

$$$$
=
 OpenBabel11042420303D

 31 35  0  0  1  0  0  0  0  0999 V2000
  161.1990  208.4480  153.5180 C   0  0  0  0  0  0  0  0  0  0  0  0
  161.7040  209.8310  153.3320 C   0  0  0  0  0  3  0  0  0  0  0  0
  160.3590  206.8490  155.1920 N   0  0  0  0  0  0  0  0  0  0  0  0
  161.6880  210.7370  154.3190 C   0  0  0  0  0  3  0  0  0  0  0  0
  160.4180  208.4020  157.0160 N   0  0  0  0  0  0  0  0  0  0  0  0
  160.1180  207.0040  156.6290 C   0  0  0  0  0  3  0  0  0  0  0  0
  161.1060  210.4380  155.6810 C   0  0  0  0  0  0  0  0  0  0  0  0
  160.8210  208.1030  154.7620 C   0  0  0  0  0  0  0  0  0  0  0  0
  160.8780  209.0010  155.8350 N   0  0  0  0  0  0  0  0  0  0  0  0
  161.0950  203.8650  151.7140 C   0  0  0  0  0  3  0  0  0  0  0  0
  161.1660  207.5200  152.3520 C   0  0  0  0  0  0  0  0  0  0  0  0
  161.1660  207.9930  151.0270 C   0  0  0  0  0  3  0  0  0  0  0  0
  161.1180  205.2420  151.4940 C   0  0  0  0  0  0  0  0  0  0  0  0
  161.0690  203.5070  149.3220 C   0  0  0  0  0  0  0  0  0  0  0  0
  161.1440  206.1320  152.5690 C   0  0  0  0  0  3  0  0  0  0  0  0
  161.0700  202.9910  150.6270 C   0  0  0  0  0  3  0  0  0  0  0  0
  161.1410  207.6140  148.6480 O   0  0  0  0  0  1  0  0  0  0  0  0
  161.1410  207.1110  149.9430 C   0  0  0  0  0  0  0  0  0  0  0  0
  161.1160  205.7300  150.1710 C   0  0  0  0  0  0  0  0  0  0  0  0
  161.0920  204.8540  149.1280 N   0  0  0  0  0  0  0  0  0  0  0  0
  160.7000  201.3760  148.2600 N   0  0  0  0  0  2  0  0  0  0  0  0
  161.0430  202.6180  148.1560 C   0  0  0  0  0  3  0  0  0  0  0  0
  159.7860  211.1870  155.8580 C   0  0  0  0  0  2  0  0  0  0  0  0
  159.8280  214.4080  156.1060 Cl  0  0  0  0  0  0  0  0  0  0  0  0
  158.2740  214.1710  153.9710 N   0  0  0  0  0  0  0  0  0  0  0  0
  157.5390  214.4530  151.7530 N   0  0  0  0  0  1  0  0  0  0  0  0
  158.5700  211.3840  153.6590 C   0  0  0  0  0  2  0  0  0  0  0  0
  158.0050  213.6340  152.8180 C   0  0  0  0  0  0  0  0  0  0  0  0
  158.7380  213.3970  155.1220 C   0  0  1  0  0  3  0  0  0  0  0  0
  158.2180  212.2690  152.5990 O   0  0  0  0  0  0  0  0  0  0  0  0
  159.4420  212.1060  154.6820 C   0  0  1  0  0  3  0  0  0  0  0  0
  1  8  1  0  0  0  0
  2  1  2  0  0  0  0
  2  4  1  0  0  0  0
  3  6  1  0  0  0  0
  4  7  2  0  0  0  0
  6  5  2  0  0  0  0
  7  9  1  0  0  0  0
  7 23  1  0  0  0  0
  8  3  2  0  0  0  0
  8  9  1  0  0  0  0
  9  5  1  0  0  0  0
 11 15  1  0  0  0  0
 11  1  1  0  0  0  0
 12 11  2  0  0  0  0
 13 10  1  0  0  0  0
 13 15  2  0  0  0  0
 14 16  1  0  0  0  0
 16 10  2  0  0  0  0
 17 18  1  0  0  0  0
 18 19  2  0  0  0  0
 18 12  1  0  0  0  0
 19 13  1  0  0  0  0
 20 14  2  0  0  0  0
 20 19  1  0  0  0  0
 22 21  2  0  0  0  0
 22 14  1  0  0  0  0
 25 29  1  0  0  0  0
 26 28  1  0  0  0  0
 27 31  1  0  0  0  0
 28 25  2  0  0  0  0
 29 24  1  6  0  0  0
 30 28  1  0  0  0  0
 30 27  1  0  0  0  0
 31 29  1  0  0  0  0
 31 23  1  1  0  0  0
M  END
>  <MODEL>
3

>  <REMARK>
 VINA RESULT:      -9.5      2.185      3.119
  Name = 
  4 active torsions:
  status: ('A' for Active; 'I' for Inactive)
    1  A    between atoms: C_3  and  C_5
    2  A    between atoms: C_9  and  C_24
    3  A    between atoms: C_16  and  C_23
    4  A    between atoms: C_16  and  C_30
                            x       y       z     vdW  Elec       q    Type
                         _______ _______ _______ _____ _____    ______ ____

>  <TORSDO>
F 4

$$$$
=
 OpenBabel11042420303D

 31 35  0  0  1  0  0  0  0  0999 V2000
  161.4880  206.4360  150.7610 C   0  0  0  0  0  0  0  0  0  0  0  0
  161.8960  207.6950  150.0890 C   0  0  0  0  0  3  0  0  0  0  0  0
  161.0140  205.4200  152.9550 N   0  0  0  0  0  0  0  0  0  0  0  0
  162.0120  208.8540  150.7510 C   0  0  0  0  0  3  0  0  0  0  0  0
  161.3220  207.4450  154.1970 N   0  0  0  0  0  0  0  0  0  0  0  0
  161.0180  205.9990  154.3000 C   0  0  0  0  0  3  0  0  0  0  0  0
  161.6850  208.9810  152.2210 C   0  0  0  0  0  0  0  0  0  0  0  0
  161.3440  206.4830  152.0980 C   0  0  0  0  0  0  0  0  0  0  0  0
  161.5460  207.6590  152.8300 N   0  0  0  0  0  0  0  0  0  0  0  0
  161.4220  204.1840  146.3810 C   0  0  0  0  0  3  0  0  0  0  0  0
  161.2930  205.2030  149.9470 C   0  0  0  0  0  0  0  0  0  0  0  0
  160.9460  203.9730  150.5340 C   0  0  0  0  0  3  0  0  0  0  0  0
  161.2660  204.1220  147.7660 C   0  0  0  0  0  0  0  0  0  0  0  0
  160.8930  201.8280  146.2400 C   0  0  0  0  0  0  0  0  0  0  0  0
  161.4480  205.2610  148.5520 C   0  0  0  0  0  3  0  0  0  0  0  0
  161.2360  203.0350  145.6120 C   0  0  0  0  0  3  0  0  0  0  0  0
  160.4210  201.6280  150.3710 O   0  0  0  0  0  1  0  0  0  0  0  0
  160.7620  202.8260  149.7560 C   0  0  0  0  0  0  0  0  0  0  0  0
  160.9210  202.8940  148.3670 C   0  0  0  0  0  0  0  0  0  0  0  0
  160.7450  201.7880  147.5920 N   0  0  0  0  0  0  0  0  0  0  0  0
  161.1380  199.4590  145.8730 N   0  0  0  0  0  2  0  0  0  0  0  0
  160.6900  200.6010  145.4640 C   0  0  0  0  0  3  0  0  0  0  0  0
  160.3850  209.7650  152.3980 C   0  0  0  0  0  2  0  0  0  0  0  0
  157.7790  211.4710  153.2560 Cl  0  0  0  0  0  0  0  0  0  0  0  0
  159.5140  212.4430  155.0100 N   0  0  0  0  0  0  0  0  0  0  0  0
  160.4400  212.9950  157.1020 N   0  0  0  0  0  1  0  0  0  0  0  0
  161.6250  210.6770  154.3930 C   0  0  0  0  0  2  0  0  0  0  0  0
  160.4650  212.2700  155.8790 C   0  0  0  0  0  0  0  0  0  0  0  0
  159.4770  211.7520  153.7210 C   0  0  1  0  0  3  0  0  0  0  0  0
  161.4860  211.3430  155.6460 O   0  0  0  0  0  0  0  0  0  0  0  0
  160.2540  210.4290  153.7720 C   0  0  1  0  0  3  0  0  0  0  0  0
  1  8  1  0  0  0  0
  2  4  1  0  0  0  0
  2  1  2  0  0  0  0
  3  6  1  0  0  0  0
  4  7  2  0  0  0  0
  5  6  2  0  0  0  0
  7 23  1  0  0  0  0
  7  9  1  0  0  0  0
  8  9  1  0  0  0  0
  8  3  2  0  0  0  0
  9  5  1  0  0  0  0
 10 13  1  0  0  0  0
 11 12  1  0  0  0  0
 11  1  1  0  0  0  0
 13 19  2  0  0  0  0
 13 15  1  0  0  0  0
 14 20  2  0  0  0  0
 15 11  2  0  0  0  0
 16 14  1  0  0  0  0
 16 10  2  0  0  0  0
 18 17  1  0  0  0  0
 18 12  2  0  0  0  0
 19 18  1  0  0  0  0
 20 19  1  0  0  0  0
 22 21  2  0  0  0  0
 22 14  1  0  0  0  0
 25 28  2  0  0  0  0
 27 30  1  0  0  0  0
 28 26  1  0  0  0  0
 29 24  1  1  0  0  0
 29 31  1  0  0  0  0
 29 25  1  0  0  0  0
 30 28  1  0  0  0  0
 31 23  1  6  0  0  0
 31 27  1  0  0  0  0
M  END
>  <MODEL>
4

>  <REMARK>
 VINA RESULT:      -9.5      1.858      2.326
  Name = 
  4 active torsions:
  status: ('A' for Active; 'I' for Inactive)
    1  A    between atoms: C_3  and  C_5
    2  A    between atoms: C_9  and  C_24
    3  A    between atoms: C_16  and  C_23
    4  A    between atoms: C_16  and  C_30
                            x       y       z     vdW  Elec       q    Type
                         _______ _______ _______ _____ _____    ______ ____

>  <TORSDO>
F 4

$$$$
=
 OpenBabel11042420303D

 31 35  0  0  1  0  0  0  0  0999 V2000
  161.1810  208.3040  153.2940 C   0  0  0  0  0  0  0  0  0  0  0  0
  161.6260  209.6860  152.9870 C   0  0  0  0  0  3  0  0  0  0  0  0
  160.3790  206.8310  155.0980 N   0  0  0  0  0  0  0  0  0  0  0  0
  161.5470  210.6790  153.8840 C   0  0  0  0  0  3  0  0  0  0  0  0
  160.3280  208.5490  156.7670 N   0  0  0  0  0  0  0  0  0  0  0  0
  160.1010  207.1080  156.5090 C   0  0  0  0  0  3  0  0  0  0  0  0
  160.9500  210.4810  155.2570 C   0  0  0  0  0  0  0  0  0  0  0  0
  160.7930  208.0600  154.5590 C   0  0  0  0  0  0  0  0  0  0  0  0
  160.7850  209.0560  155.5430 N   0  0  0  0  0  0  0  0  0  0  0  0
  161.2120  207.1180  148.5130 C   0  0  0  0  0  3  0  0  0  0  0  0
  161.2160  207.2700  152.2210 C   0  0  0  0  0  0  0  0  0  0  0  0
  161.2550  205.8950  152.5160 C   0  0  0  0  0  3  0  0  0  0  0  0
  161.2270  206.7190  149.8490 C   0  0  0  0  0  0  0  0  0  0  0  0
  161.2790  204.7960  147.8430 C   0  0  0  0  0  0  0  0  0  0  0  0
  161.2000  207.6680  150.8740 C   0  0  0  0  0  3  0  0  0  0  0  0
  161.2380  206.1560  147.5030 C   0  0  0  0  0  3  0  0  0  0  0  0
  161.3210  203.5880  151.8270 O   0  0  0  0  0  1  0  0  0  0  0  0
  161.2810  204.9370  151.4980 C   0  0  0  0  0  0  0  0  0  0  0  0
  161.2680  205.3440  150.1590 C   0  0  0  0  0  0  0  0  0  0  0  0
  161.2930  204.4260  149.1530 N   0  0  0  0  0  0  0  0  0  0  0  0
  161.9130  203.9420  145.6810 N   0  0  0  0  0  2  0  0  0  0  0  0
  161.3080  203.7570  146.8090 C   0  0  0  0  0  3  0  0  0  0  0  0
  159.5930  211.1800  155.3400 C   0  0  0  0  0  2  0  0  0  0  0  0
  159.4060  214.3900  155.6540 Cl  0  0  0  0  0  0  0  0  0  0  0  0
  158.0890  214.1140  153.3710 N   0  0  0  0  0  0  0  0  0  0  0  0
  157.5600  214.4070  151.0960 N   0  0  0  0  0  1  0  0  0  0  0  0
  158.5910  211.3590  153.0350 C   0  0  0  0  0  2  0  0  0  0  0  0
  157.9700  213.5920  152.1860 C   0  0  0  0  0  0  0  0  0  0  0  0
  158.4860  213.3400  154.5470 C   0  0  1  0  0  3  0  0  0  0  0  0
  158.2890  212.2480  151.9620 O   0  0  0  0  0  0  0  0  0  0  0  0
  159.3100  212.1060  154.1540 C   0  0  1  0  0  3  0  0  0  0  0  0
  1  8  1  0  0  0  0
  2  1  2  0  0  0  0
  2  4  1  0  0  0  0
  3  6  1  0  0  0  0
  4  7  2  0  0  0  0
  6  5  2  0  0  0  0
  7 23  1  0  0  0  0
  7  9  1  0  0  0  0
  8  3  2  0  0  0  0
  8  9  1  0  0  0  0
  9  5  1  0  0  0  0
 10 13  1  0  0  0  0
 11 12  1  0  0  0  0
 11  1  1  0  0  0  0
 13 19  2  0  0  0  0
 13 15  1  0  0  0  0
 14 20  2  0  0  0  0
 15 11  2  0  0  0  0
 16 14  1  0  0  0  0
 16 10  2  0  0  0  0
 18 17  1  0  0  0  0
 18 12  2  0  0  0  0
 19 18  1  0  0  0  0
 20 19  1  0  0  0  0
 21 22  2  0  0  0  0
 22 14  1  0  0  0  0
 25 29  1  0  0  0  0
 26 28  1  0  0  0  0
 27 31  1  0  0  0  0
 28 25  2  0  0  0  0
 29 24  1  1  0  0  0
 30 28  1  0  0  0  0
 30 27  1  0  0  0  0
 31 29  1  0  0  0  0
 31 23  1  1  0  0  0
M  END
>  <MODEL>
5

>  <REMARK>
 VINA RESULT:      -9.2      2.405      3.499
  Name = 
  4 active torsions:
  status: ('A' for Active; 'I' for Inactive)
    1  A    between atoms: C_3  and  C_5
    2  A    between atoms: C_9  and  C_24
    3  A    between atoms: C_16  and  C_23
    4  A    between atoms: C_16  and  C_30
                            x       y       z     vdW  Elec       q    Type
                         _______ _______ _______ _____ _____    ______ ____

>  <TORSDO>
F 4

$$$$
=
 OpenBabel11042420303D

 31 35  0  0  1  0  0  0  0  0999 V2000
  161.2420  206.2380  151.6950 C   0  0  0  0  0  0  0  0  0  0  0  0
  161.4150  204.8530  152.2000 C   0  0  0  0  0  3  0  0  0  0  0  0
  161.2210  207.6210  149.6570 N   0  0  0  0  0  0  0  0  0  0  0  0
  161.5200  203.8000  151.3770 C   0  0  0  0  0  3  0  0  0  0  0  0
  161.5210  205.7820  148.1510 N   0  0  0  0  0  0  0  0  0  0  0  0
  161.3800  207.2530  148.2480 C   0  0  0  0  0  3  0  0  0  0  0  0
  161.4180  203.9350  149.8760 C   0  0  0  0  0  0  0  0  0  0  0  0
  161.3060  206.4090  150.3630 C   0  0  0  0  0  0  0  0  0  0  0  0
  161.5060  205.3400  149.4810 N   0  0  0  0  0  0  0  0  0  0  0  0
  160.2610  210.9770  152.6160 C   0  0  0  0  0  3  0  0  0  0  0  0
  161.0430  207.3500  152.6680 C   0  0  0  0  0  0  0  0  0  0  0  0
  161.1550  207.1500  154.0560 C   0  0  0  0  0  3  0  0  0  0  0  0
  160.5580  209.6990  153.0870 C   0  0  0  0  0  0  0  0  0  0  0  0
  160.1980  211.7780  154.8970 C   0  0  0  0  0  0  0  0  0  0  0  0
  160.7440  208.6390  152.1970 C   0  0  0  0  0  3  0  0  0  0  0  0
  160.0790  212.0230  153.5210 C   0  0  0  0  0  3  0  0  0  0  0  0
  161.0890  207.9690  156.3200 O   0  0  0  0  0  1  0  0  0  0  0  0
  160.9720  208.2040  154.9560 C   0  0  0  0  0  0  0  0  0  0  0  0
  160.6720  209.4840  154.4760 C   0  0  0  0  0  0  0  0  0  0  0  0
  160.4890  210.5240  155.3370 N   0  0  0  0  0  0  0  0  0  0  0  0
  159.3170  213.9070  155.6010 N   0  0  0  0  0  2  0  0  0  0  0  0
  160.0130  212.8530  155.8760 C   0  0  0  0  0  3  0  0  0  0  0  0
  160.0910  203.3500  149.3910 C   0  0  0  0  0  2  0  0  0  0  0  0
  160.7490  200.4230  150.5930 Cl  0  0  0  0  0  0  0  0  0  0  0  0
  161.5510  200.0420  148.0950 N   0  0  0  0  0  0  0  0  0  0  0  0
  161.6620  199.0760  145.9520 N   0  0  0  0  0  1  0  0  0  0  0  0
  160.6420  202.5110  147.0800 C   0  0  0  0  0  2  0  0  0  0  0  0
  161.3690  200.1680  146.8140 C   0  0  0  0  0  0  0  0  0  0  0  0
  161.2940  201.1230  149.0470 C   0  0  1  0  0  3  0  0  0  0  0  0
  160.8420  201.3480  146.2800 O   0  0  0  0  0  0  0  0  0  0  0  0
  160.2570  202.1140  148.5010 C   0  0  1  0  0  3  0  0  0  0  0  0
  1  2  2  0  0  0  0
  1 11  1  0  0  0  0
  3  8  2  0  0  0  0
  4  2  1  0  0  0  0
  5  6  2  0  0  0  0
  5  9  1  0  0  0  0
  6  3  1  0  0  0  0
  7  4  2  0  0  0  0
  8  1  1  0  0  0  0
  9  7  1  0  0  0  0
  9  8  1  0  0  0  0
 10 13  2  0  0  0  0
 10 16  1  0  0  0  0
 11 12  1  0  0  0  0
 12 18  2  0  0  0  0
 13 19  1  0  0  0  0
 14 20  1  0  0  0  0
 14 22  1  0  0  0  0
 15 11  2  0  0  0  0
 15 13  1  0  0  0  0
 16 14  2  0  0  0  0
 18 17  1  0  0  0  0
 19 18  1  0  0  0  0
 19 20  2  0  0  0  0
 21 22  2  0  0  0  0
 23  7  1  0  0  0  0
 25 29  1  0  0  0  0
 26 28  1  0  0  0  0
 27 31  1  0  0  0  0
 28 25  2  0  0  0  0
 29 24  1  1  0  0  0
 30 28  1  0  0  0  0
 30 27  1  0  0  0  0
 31 29  1  0  0  0  0
 31 23  1  1  0  0  0
M  END
>  <MODEL>
6

>  <REMARK>
 VINA RESULT:      -9.0      2.947     10.168
  Name = 
  4 active torsions:
  status: ('A' for Active; 'I' for Inactive)
    1  A    between atoms: C_3  and  C_5
    2  A    between atoms: C_9  and  C_24
    3  A    between atoms: C_16  and  C_23
    4  A    between atoms: C_16  and  C_30
                            x       y       z     vdW  Elec       q    Type
                         _______ _______ _______ _____ _____    ______ ____

>  <TORSDO>
F 4

$$$$
=
 OpenBabel11042420303D

 31 35  0  0  1  0  0  0  0  0999 V2000
  161.4620  208.5270  153.4910 C   0  0  0  0  0  0  0  0  0  0  0  0
  162.2840  209.7330  153.2220 C   0  0  0  0  0  3  0  0  0  0  0  0
  160.1650  207.3530  155.2250 N   0  0  0  0  0  0  0  0  0  0  0  0
  162.4120  210.7240  154.1150 C   0  0  0  0  0  3  0  0  0  0  0  0
  160.4610  209.0470  156.8930 N   0  0  0  0  0  0  0  0  0  0  0  0
  159.8730  207.7170  156.6140 C   0  0  0  0  0  3  0  0  0  0  0  0
  161.6880  210.7160  155.4410 C   0  0  0  0  0  0  0  0  0  0  0  0
  160.9330  208.4160  154.7230 C   0  0  0  0  0  0  0  0  0  0  0  0
  161.1240  209.3930  155.7070 N   0  0  0  0  0  0  0  0  0  0  0  0
  161.1390  203.8110  152.1040 C   0  0  0  0  0  3  0  0  0  0  0  0
  161.2930  207.5050  152.4180 C   0  0  0  0  0  0  0  0  0  0  0  0
  161.1420  207.8660  151.0670 C   0  0  0  0  0  3  0  0  0  0  0  0
  161.1410  205.1640  151.7670 C   0  0  0  0  0  0  0  0  0  0  0  0
  160.8380  203.2550  149.7700 C   0  0  0  0  0  0  0  0  0  0  0  0
  161.2920  206.1410  152.7530 C   0  0  0  0  0  3  0  0  0  0  0  0
  160.9880  202.8490  151.1040 C   0  0  0  0  0  3  0  0  0  0  0  0
  160.8430  207.2900  148.7480 O   0  0  0  0  0  1  0  0  0  0  0  0
  160.9900  206.8960  150.0720 C   0  0  0  0  0  0  0  0  0  0  0  0
  160.9880  205.5400  150.4160 C   0  0  0  0  0  0  0  0  0  0  0  0
  160.8420  204.5800  149.4610 N   0  0  0  0  0  0  0  0  0  0  0  0
  161.1500  201.0730  148.7940 N   0  0  0  0  0  2  0  0  0  0  0  0
  160.6760  202.2720  148.6930 C   0  0  0  0  0  3  0  0  0  0  0  0
  160.5670  211.7560  155.4270 C   0  0  0  0  0  2  0  0  0  0  0  0
  159.1380  211.0470  152.6170 Cl  0  0  0  0  0  0  0  0  0  0  0  0
  156.9900  211.1530  154.1670 N   0  0  0  0  0  0  0  0  0  0  0  0
  155.0200  210.4320  155.2350 N   0  0  0  0  0  1  0  0  0  0  0  0
  158.3650  211.4480  156.6110 C   0  0  0  0  0  2  0  0  0  0  0  0
  156.3750  210.8610  155.2750 C   0  0  0  0  0  0  0  0  0  0  0  0
  158.3760  211.6190  154.1230 C   0  0  1  0  0  3  0  0  0  0  0  0
  157.0470  210.9150  156.5000 O   0  0  0  0  0  0  0  0  0  0  0  0
  159.1660  211.1430  155.3490 C   0  0  1  0  0  3  0  0  0  0  0  0
  1  8  1  0  0  0  0
  2  1  2  0  0  0  0
  2  4  1  0  0  0  0
  3  6  1  0  0  0  0
  4  7  2  0  0  0  0
  6  5  2  0  0  0  0
  7  9  1  0  0  0  0
  8  3  2  0  0  0  0
  8  9  1  0  0  0  0
  9  5  1  0  0  0  0
 11 15  1  0  0  0  0
 11  1  1  0  0  0  0
 12 11  2  0  0  0  0
 13 10  1  0  0  0  0
 13 15  2  0  0  0  0
 14 16  1  0  0  0  0
 16 10  2  0  0  0  0
 17 18  1  0  0  0  0
 18 19  2  0  0  0  0
 18 12  1  0  0  0  0
 19 13  1  0  0  0  0
 20 14  2  0  0  0  0
 20 19  1  0  0  0  0
 22 21  2  0  0  0  0
 22 14  1  0  0  0  0
 23  7  1  0  0  0  0
 25 28  2  0  0  0  0
 26 28  1  0  0  0  0
 28 30  1  0  0  0  0
 29 24  1  6  0  0  0
 29 25  1  0  0  0  0
 29 31  1  0  0  0  0
 30 27  1  0  0  0  0
 31 23  1  1  0  0  0
 31 27  1  0  0  0  0
M  END
>  <MODEL>
7

>  <REMARK>
 VINA RESULT:      -8.8      2.493      3.373
  Name = 
  4 active torsions:
  status: ('A' for Active; 'I' for Inactive)
    1  A    between atoms: C_3  and  C_5
    2  A    between atoms: C_9  and  C_24
    3  A    between atoms: C_16  and  C_23
    4  A    between atoms: C_16  and  C_30
                            x       y       z     vdW  Elec       q    Type
                         _______ _______ _______ _____ _____    ______ ____

>  <TORSDO>
F 4

$$$$
=
 OpenBabel11042420303D

 31 35  0  0  1  0  0  0  0  0999 V2000
  161.2160  206.4400  151.5840 C   0  0  0  0  0  0  0  0  0  0  0  0
  161.3690  205.0890  152.1810 C   0  0  0  0  0  3  0  0  0  0  0  0
  161.2410  207.6870  149.4600 N   0  0  0  0  0  0  0  0  0  0  0  0
  161.4800  203.9840  151.4300 C   0  0  0  0  0  3  0  0  0  0  0  0
  161.5520  205.7520  148.0820 N   0  0  0  0  0  0  0  0  0  0  0  0
  161.4210  207.2270  148.0810 C   0  0  0  0  0  3  0  0  0  0  0  0
  161.4050  204.0210  149.9220 C   0  0  0  0  0  0  0  0  0  0  0  0
  161.3050  206.5230  150.2450 C   0  0  0  0  0  0  0  0  0  0  0  0
  161.5110  205.3980  149.4380 N   0  0  0  0  0  0  0  0  0  0  0  0
  160.7430  208.3220  156.1120 C   0  0  0  0  0  3  0  0  0  0  0  0
  161.0100  207.6140  152.4790 C   0  0  0  0  0  0  0  0  0  0  0  0
  160.8380  208.9140  151.9690 C   0  0  0  0  0  3  0  0  0  0  0  0
  160.7770  208.5100  154.7300 C   0  0  0  0  0  0  0  0  0  0  0  0
  160.3800  210.6950  156.4030 C   0  0  0  0  0  0  0  0  0  0  0  0
  160.9740  207.4280  153.8710 C   0  0  0  0  0  3  0  0  0  0  0  0
  160.5440  209.4160  156.9550 C   0  0  0  0  0  3  0  0  0  0  0  0
  160.4750  211.2740  152.2820 O   0  0  0  0  0  1  0  0  0  0  0  0
  160.6400  210.0040  152.8210 C   0  0  0  0  0  0  0  0  0  0  0  0
  160.6080  209.8090  154.2060 C   0  0  0  0  0  0  0  0  0  0  0  0
  160.4160  210.8590  155.0530 N   0  0  0  0  0  0  0  0  0  0  0  0
  159.5140  212.9010  156.8400 N   0  0  0  0  0  2  0  0  0  0  0  0
  160.1690  211.8670  157.2590 C   0  0  0  0  0  3  0  0  0  0  0  0
  160.0820  203.4160  149.4530 C   0  0  0  0  0  2  0  0  0  0  0  0
  160.7380  200.5000  150.6800 Cl  0  0  0  0  0  0  0  0  0  0  0  0
  161.5570  200.1020  148.1910 N   0  0  0  0  0  0  0  0  0  0  0  0
  161.6840  199.1210  146.0550 N   0  0  0  0  0  1  0  0  0  0  0  0
  160.6490  202.5620  147.1510 C   0  0  0  0  0  2  0  0  0  0  0  0
  161.3840  200.2180  146.9070 C   0  0  0  0  0  0  0  0  0  0  0  0
  161.2910  201.1900  149.1320 C   0  0  1  0  0  3  0  0  0  0  0  0
  160.8570  201.3930  146.3610 O   0  0  0  0  0  0  0  0  0  0  0  0
  160.2560  202.1740  148.5730 C   0  0  1  0  0  3  0  0  0  0  0  0
  1  2  2  0  0  0  0
  1 11  1  0  0  0  0
  3  8  2  0  0  0  0
  4  2  1  0  0  0  0
  5  9  1  0  0  0  0
  6  5  2  0  0  0  0
  6  3  1  0  0  0  0
  7  4  2  0  0  0  0
  8  1  1  0  0  0  0
  9  7  1  0  0  0  0
  9  8  1  0  0  0  0
 10 16  1  0  0  0  0
 11 15  2  0  0  0  0
 12 11  1  0  0  0  0
 12 18  2  0  0  0  0
 13 10  2  0  0  0  0
 14 16  2  0  0  0  0
 14 22  1  0  0  0  0
 15 13  1  0  0  0  0
 17 18  1  0  0  0  0
 18 19  1  0  0  0  0
 19 13  1  0  0  0  0
 19 20  2  0  0  0  0
 20 14  1  0  0  0  0
 21 22  2  0  0  0  0
 23  7  1  0  0  0  0
 25 29  1  0  0  0  0
 26 28  1  0  0  0  0
 27 31  1  0  0  0  0
 28 25  2  0  0  0  0
 29 24  1  1  0  0  0
 30 28  1  0  0  0  0
 30 27  1  0  0  0  0
 31 29  1  0  0  0  0
 31 23  1  1  0  0  0
M  END
>  <MODEL>
8

>  <REMARK>
 VINA RESULT:      -8.7      2.894     10.053
  Name = 
  4 active torsions:
  status: ('A' for Active; 'I' for Inactive)
    1  A    between atoms: C_3  and  C_5
    2  A    between atoms: C_9  and  C_24
    3  A    between atoms: C_16  and  C_23
    4  A    between atoms: C_16  and  C_30
                            x       y       z     vdW  Elec       q    Type
                         _______ _______ _______ _____ _____    ______ ____

>  <TORSDO>
F 4

$$$$
=
 OpenBabel11042420303D

 31 35  0  0  1  0  0  0  0  0999 V2000
  161.0140  206.4180  150.8310 C   0  0  0  0  0  0  0  0  0  0  0  0
  160.6790  206.8250  149.4430 C   0  0  0  0  0  3  0  0  0  0  0  0
  161.2620  204.4760  152.3250 N   0  0  0  0  0  0  0  0  0  0  0  0
  160.5000  205.9330  148.4590 C   0  0  0  0  0  3  0  0  0  0  0  0
  160.8380  202.8440  150.6230 N   0  0  0  0  0  0  0  0  0  0  0  0
  161.1260  203.0410  152.0620 C   0  0  0  0  0  3  0  0  0  0  0  0
  160.6790  204.4480  148.6730 C   0  0  0  0  0  0  0  0  0  0  0  0
  161.0230  205.0980  151.0890 C   0  0  0  0  0  0  0  0  0  0  0  0
  160.7520  204.1430  150.1020 N   0  0  0  0  0  0  0  0  0  0  0  0
  160.5220  208.1240  155.4260 C   0  0  0  0  0  3  0  0  0  0  0  0
  161.2850  207.4670  151.8540 C   0  0  0  0  0  0  0  0  0  0  0  0
  162.0240  208.6250  151.5520 C   0  0  0  0  0  3  0  0  0  0  0  0
  161.0200  208.2830  154.1330 C   0  0  0  0  0  0  0  0  0  0  0  0
  161.5120  210.2420  156.0420 C   0  0  0  0  0  0  0  0  0  0  0  0
  160.7840  207.3120  153.1580 C   0  0  0  0  0  3  0  0  0  0  0  0
  160.7660  209.1050  156.3870 C   0  0  0  0  0  3  0  0  0  0  0  0
  163.0020  210.7330  152.1860 O   0  0  0  0  0  1  0  0  0  0  0  0
  162.2660  209.6030  152.5210 C   0  0  0  0  0  0  0  0  0  0  0  0
  161.7650  209.4370  153.8170 C   0  0  0  0  0  0  0  0  0  0  0  0
  161.9890  210.3800  154.7750 N   0  0  0  0  0  0  0  0  0  0  0  0
  160.9490  212.2520  157.2480 N   0  0  0  0  0  2  0  0  0  0  0  0
  161.7890  211.2930  157.0260 C   0  0  0  0  0  3  0  0  0  0  0  0
  161.9580  203.9740  147.9830 C   0  0  0  0  0  2  0  0  0  0  0  0
  161.6060  204.6300  144.8390 Cl  0  0  0  0  0  0  0  0  0  0  0  0
  160.4690  202.2360  144.8980 N   0  0  0  0  0  0  0  0  0  0  0  0
  160.0910  199.9750  144.3660 N   0  0  0  0  0  1  0  0  0  0  0  0
  161.1150  201.6340  147.5770 C   0  0  0  0  0  2  0  0  0  0  0  0
  160.4580  200.9950  145.2850 C   0  0  0  0  0  0  0  0  0  0  0  0
  160.8150  203.3450  145.7880 C   0  0  1  0  0  3  0  0  0  0  0  0
  160.8520  200.6480  146.5820 O   0  0  0  0  0  0  0  0  0  0  0  0
  161.7190  202.8810  146.9370 C   0  0  1  0  0  3  0  0  0  0  0  0
  1  8  1  0  0  0  0
  1 11  1  0  0  0  0
  2  1  2  0  0  0  0
  4  7  2  0  0  0  0
  4  2  1  0  0  0  0
  5  6  2  0  0  0  0
  6  3  1  0  0  0  0
  7  9  1  0  0  0  0
  8  3  2  0  0  0  0
  9  5  1  0  0  0  0
  9  8  1  0  0  0  0
 10 16  1  0  0  0  0
 11 15  2  0  0  0  0
 12 11  1  0  0  0  0
 12 18  2  0  0  0  0
 13 10  2  0  0  0  0
 14 16  2  0  0  0  0
 14 22  1  0  0  0  0
 15 13  1  0  0  0  0
 17 18  1  0  0  0  0
 18 19  1  0  0  0  0
 19 13  1  0  0  0  0
 19 20  2  0  0  0  0
 20 14  1  0  0  0  0
 22 21  2  0  0  0  0
 23  7  1  0  0  0  0
 25 28  2  0  0  0  0
 25 29  1  0  0  0  0
 26 28  1  0  0  0  0
 28 30  1  0  0  0  0
 29 24  1  6  0  0  0
 29 31  1  0  0  0  0
 30 27  1  0  0  0  0
 31 27  1  0  0  0  0
 31 23  1  1  0  0  0
M  END
>  <MODEL>
9

>  <REMARK>
 VINA RESULT:      -8.1      3.089      9.962
  Name = 
  4 active torsions:
  status: ('A' for Active; 'I' for Inactive)
    1  A    between atoms: C_3  and  C_5
    2  A    between atoms: C_9  and  C_24
    3  A    between atoms: C_16  and  C_23
    4  A    between atoms: C_16  and  C_30
                            x       y       z     vdW  Elec       q    Type
                         _______ _______ _______ _____ _____    ______ ____

>  <TORSDO>
F 4

$$$$
