=
 OpenBabel11042420283D

 31 36  0  0  1  0  0  0  0  0999 V2000
  160.5210  205.8370  150.7950 O   0  0  0  0  0  0  0  0  0  0  0  0
  160.6180  207.8200  152.2980 C   0  0  1  0  0  3  0  0  0  0  0  0
  160.9660  207.1830  150.9450 C   0  0  2  0  0  0  0  0  0  0  0  0
  162.2470  207.5610  150.2320 C   0  0  2  0  0  0  0  0  0  0  0  0
  161.9670  207.4160  152.8150 C   0  0  0  0  0  2  0  0  0  0  0  0
  162.2760  206.7280  151.4850 C   0  0  1  0  0  0  0  0  0  0  0  0
  162.2090  204.1880  151.6200 O   0  0  0  0  0  0  0  0  0  0  0  0
  162.6640  208.8860  150.3850 O   0  0  0  0  0  1  0  0  0  0  0  0
  161.7570  205.3330  151.3530 C   0  0  0  0  0  0  0  0  0  0  0  0
  162.5280  206.8840  148.8980 C   0  0  0  0  0  2  0  0  0  0  0  0
  161.2080  206.3430  146.8150 C   0  0  0  0  0  0  0  0  0  0  0  0
  160.1870  206.5980  146.0630 N   0  0  0  0  0  2  0  0  0  0  0  0
  161.4460  207.1580  147.9640 N   0  0  0  0  0  2  0  0  0  0  0  0
  161.6190  203.9670  147.1810 C   0  0  0  0  0  0  0  0  0  0  0  0
  161.4330  203.4200  145.9030 C   0  0  1  0  0  0  0  0  0  0  0  0
  161.3490  203.2810  148.3500 C   0  0  0  0  0  3  0  0  0  0  0  0
  162.0920  205.1530  146.5290 C   0  0  1  0  0  0  0  0  0  0  0  0
  160.9560  202.1420  145.6770 C   0  0  0  0  0  3  0  0  0  0  0  0
  160.8580  201.9640  148.1600 C   0  0  0  0  0  2  0  0  0  0  0  0
  161.8710  204.6400  145.2230 N   0  0  0  0  0  2  0  0  0  0  0  0
  160.6650  201.4090  146.8550 C   0  0  0  0  0  3  0  0  0  0  0  0
  160.4850  209.3360  152.2170 C   0  0  0  0  0  2  0  0  0  0  0  0
  161.2790  209.9490  153.2680 N   0  0  0  0  0  2  0  0  0  0  0  0
  160.6520  211.2190  153.5850 C   0  0  0  0  0  2  0  0  0  0  0  0
  160.5010  211.3500  155.0880 C   0  0  1  0  0  3  0  0  0  0  0  0
  160.1790  212.6690  155.4040 O   0  0  0  0  0  1  0  0  0  0  0  0
  159.3990  210.4170  155.5740 C   0  0  0  0  0  2  0  0  0  0  0  0
  159.9560  209.3450  156.4990 C   0  0  1  0  0  3  0  0  0  0  0  0
  159.9650  208.1110  155.8440 O   0  0  0  0  0  1  0  0  0  0  0  0
  162.2030  208.5830  156.7860 O   0  0  0  0  0  1  0  0  0  0  0  0
  161.3760  209.7010  156.9040 C   0  0  0  0  0  2  0  0  0  0  0  0
  1  9  1  0  0  0  0
  2 22  1  6  0  0  0
  2  5  1  0  0  0  0
  3  1  1  6  0  0  0
  3  6  1  0  0  0  0
  3  2  1  0  0  0  0
  4  8  1  1  0  0  0
  4  3  1  0  0  0  0
  4  6  1  0  0  0  0
  6  5  1  1  0  0  0
  9  6  1  0  0  0  0
  9  7  2  0  0  0  0
 10  4  1  0  0  0  0
 11 13  1  0  0  0  0
 12 11  2  0  0  0  0
 13 10  1  0  0  0  0
 14 16  2  0  0  0  0
 15 18  1  6  0  0  0
 15 17  1  0  0  0  0
 15 14  1  0  0  0  0
 17 11  1  6  0  0  0
 17 14  1  0  0  0  0
 18 21  2  0  0  0  0
 19 16  1  0  0  0  0
 20 15  1  0  0  0  0
 20 17  1  0  0  0  0
 21 19  1  0  0  0  0
 22 23  1  0  0  0  0
 23 24  1  0  0  0  0
 24 25  1  0  0  0  0
 25 26  1  6  0  0  0
 25 27  1  0  0  0  0
 27 28  1  0  0  0  0
 28 29  1  6  0  0  0
 28 31  1  0  0  0  0
 30 31  1  0  0  0  0
M  END
>  <MODEL>
1

>  <REMARK>
 VINA RESULT:      -7.3      0.000      0.000
  Name = 
  10 active torsions:
  status: ('A' for Active; 'I' for Inactive)
    1  A    between atoms: C_2  and  C_14
    2  A    between atoms: C_3  and  C_18
    3  A    between atoms: C_3  and  C_30
    4  A    between atoms: C_4  and  C_27
    5  A    between atoms: C_9  and  C_10
    6  A    between atoms: C_10  and  N_25
    7  A    between atoms: C_13  and  C_18
    8  A    between atoms: C_13  and  C_26
    9  A    between atoms: N_19  and  C_27
   10  A    between atoms: N_19  and  C_30
                            x       y       z     vdW  Elec       q    Type
                         _______ _______ _______ _____ _____    ______ ____

>  <TORSDO>
F 10

$$$$
=
 OpenBabel11042420283D

 31 36  0  0  1  0  0  0  0  0999 V2000
  163.1840  208.4510  150.8200 O   0  0  0  0  0  0  0  0  0  0  0  0
  161.6910  207.4750  152.5580 C   0  0  1  0  0  3  0  0  0  0  0  0
  162.2820  207.3950  151.1430 C   0  0  2  0  0  0  0  0  0  0  0  0
  161.4610  206.8270  150.0040 C   0  0  2  0  0  0  0  0  0  0  0  0
  160.4990  208.1940  151.9990 C   0  0  0  0  0  2  0  0  0  0  0  0
  161.1280  208.1660  150.6060 C   0  0  1  0  0  0  0  0  0  0  0  0
  162.0070  210.4310  149.8470 O   0  0  0  0  0  0  0  0  0  0  0  0
  160.5880  205.7880  150.3390 O   0  0  0  0  0  1  0  0  0  0  0  0
  162.0980  209.2680  150.3230 C   0  0  0  0  0  0  0  0  0  0  0  0
  162.1110  206.7850  148.6290 C   0  0  0  0  0  2  0  0  0  0  0  0
  160.9890  206.1290  146.4650 C   0  0  0  0  0  0  0  0  0  0  0  0
  160.0290  206.3270  145.6210 N   0  0  0  0  0  2  0  0  0  0  0  0
  161.1060  206.9930  147.5980 N   0  0  0  0  0  2  0  0  0  0  0  0
  161.5130  203.8310  147.0890 C   0  0  0  0  0  0  0  0  0  0  0  0
  161.3420  203.1360  145.8820 C   0  0  1  0  0  0  0  0  0  0  0  0
  161.2860  203.2690  148.3300 C   0  0  0  0  0  3  0  0  0  0  0  0
  161.9250  204.9560  146.3010 C   0  0  1  0  0  0  0  0  0  0  0  0
  160.9230  201.8210  145.8070 C   0  0  0  0  0  3  0  0  0  0  0  0
  160.8550  201.9170  148.2960 C   0  0  0  0  0  2  0  0  0  0  0  0
  161.7170  204.2910  145.0640 N   0  0  0  0  0  2  0  0  0  0  0  0
  160.6770  201.2120  147.0630 C   0  0  0  0  0  3  0  0  0  0  0  0
  161.3060  206.1090  153.1120 C   0  0  0  0  0  2  0  0  0  0  0  0
  160.5170  206.2790  154.3190 N   0  0  0  0  0  2  0  0  0  0  0  0
  161.1150  207.3720  155.0650 C   0  0  0  0  0  2  0  0  0  0  0  0
  160.0970  207.9440  156.0320 C   0  0  1  0  0  3  0  0  0  0  0  0
  160.1790  207.2570  157.2430 O   0  0  0  0  0  1  0  0  0  0  0  0
  160.3800  209.4230  156.2560 C   0  0  0  0  0  2  0  0  0  0  0  0
  159.7650  210.2730  155.1530 C   0  0  1  0  0  3  0  0  0  0  0  0
  158.6600  210.9680  155.6500 O   0  0  0  0  0  1  0  0  0  0  0  0
  162.0790  210.7670  154.8170 O   0  0  0  0  0  1  0  0  0  0  0  0
  160.7890  211.2700  154.6400 C   0  0  0  0  0  2  0  0  0  0  0  0
  2 22  1  6  0  0  0
  3  1  1  6  0  0  0
  3  2  1  0  0  0  0
  4  8  1  1  0  0  0
  4  6  1  0  0  0  0
  4  3  1  0  0  0  0
  5  2  1  0  0  0  0
  6  3  1  0  0  0  0
  6  5  1  1  0  0  0
  7  9  2  0  0  0  0
  9  6  1  0  0  0  0
  9  1  1  0  0  0  0
 10  4  1  0  0  0  0
 11 13  1  0  0  0  0
 12 11  2  0  0  0  0
 13 10  1  0  0  0  0
 14 16  2  0  0  0  0
 15 18  1  1  0  0  0
 15 17  1  0  0  0  0
 15 14  1  0  0  0  0
 17 11  1  6  0  0  0
 17 14  1  0  0  0  0
 18 21  2  0  0  0  0
 19 16  1  0  0  0  0
 20 15  1  0  0  0  0
 20 17  1  0  0  0  0
 21 19  1  0  0  0  0
 22 23  1  0  0  0  0
 23 24  1  0  0  0  0
 24 25  1  0  0  0  0
 25 27  1  0  0  0  0
 25 26  1  1  0  0  0
 28 29  1  1  0  0  0
 28 27  1  0  0  0  0
 31 30  1  0  0  0  0
 31 28  1  0  0  0  0
M  END
>  <MODEL>
2

>  <REMARK>
 VINA RESULT:      -7.1      1.316      2.673
  Name = 
  10 active torsions:
  status: ('A' for Active; 'I' for Inactive)
    1  A    between atoms: C_2  and  C_14
    2  A    between atoms: C_3  and  C_18
    3  A    between atoms: C_3  and  C_30
    4  A    between atoms: C_4  and  C_27
    5  A    between atoms: C_9  and  C_10
    6  A    between atoms: C_10  and  N_25
    7  A    between atoms: C_13  and  C_18
    8  A    between atoms: C_13  and  C_26
    9  A    between atoms: N_19  and  C_27
   10  A    between atoms: N_19  and  C_30
                            x       y       z     vdW  Elec       q    Type
                         _______ _______ _______ _____ _____    ______ ____

>  <TORSDO>
F 10

$$$$
=
 OpenBabel11042420283D

 31 36  0  0  1  0  0  0  0  0999 V2000
  162.7140  206.7700  151.4220 O   0  0  0  0  0  0  0  0  0  0  0  0
  161.9970  206.3280  149.0780 C   0  0  1  0  0  3  0  0  0  0  0  0
  162.4220  207.3430  150.1490 C   0  0  2  0  0  0  0  0  0  0  0  0
  161.8400  208.7410  150.1490 C   0  0  2  0  0  0  0  0  0  0  0  0
  160.5610  206.5950  149.4220 C   0  0  0  0  0  2  0  0  0  0  0  0
  160.9990  207.5530  150.5300 C   0  0  1  0  0  0  0  0  0  0  0  0
  160.6840  206.6050  152.8700 O   0  0  0  0  0  0  0  0  0  0  0  0
  161.5660  209.2890  148.8920 O   0  0  0  0  0  1  0  0  0  0  0  0
  161.3350  206.9070  151.8350 C   0  0  0  0  0  0  0  0  0  0  0  0
  162.3040  209.6890  151.2450 C   0  0  0  0  0  2  0  0  0  0  0  0
  160.5530  211.3150  152.0580 C   0  0  0  0  0  0  0  0  0  0  0  0
  160.0060  212.4830  151.9560 N   0  0  0  0  0  2  0  0  0  0  0  0
  161.5900  210.9530  151.1440 N   0  0  0  0  0  2  0  0  0  0  0  0
  160.9480  210.5900  154.3510 C   0  0  0  0  0  0  0  0  0  0  0  0
  159.7580  210.9540  155.0000 C   0  0  1  0  0  0  0  0  0  0  0  0
  162.1790  210.5590  154.9790 C   0  0  0  0  0  3  0  0  0  0  0  0
  160.1590  210.3790  153.1730 C   0  0  1  0  0  0  0  0  0  0  0  0
  159.6920  211.3240  156.3310 C   0  0  0  0  0  3  0  0  0  0  0  0
  162.1520  210.9320  156.3470 C   0  0  0  0  0  2  0  0  0  0  0  0
  158.9470  210.7850  153.7930 N   0  0  0  0  0  2  0  0  0  0  0  0
  160.9380  211.3070  157.0060 C   0  0  0  0  0  3  0  0  0  0  0  0
  162.3250  206.7940  147.6650 C   0  0  0  0  0  2  0  0  0  0  0  0
  161.5020  206.0700  146.7120 N   0  0  0  0  0  2  0  0  0  0  0  0
  162.1690  204.8070  146.4500 C   0  0  0  0  0  2  0  0  0  0  0  0
  161.1880  203.6670  146.6350 C   0  0  1  0  0  3  0  0  0  0  0  0
  161.2900  202.7950  145.5510 O   0  0  0  0  0  1  0  0  0  0  0  0
  161.5040  202.9250  147.9270 C   0  0  0  0  0  2  0  0  0  0  0  0
  160.6540  201.6690  148.0600 C   0  0  1  0  0  3  0  0  0  0  0  0
  161.4600  200.5350  147.9400 O   0  0  0  0  0  1  0  0  0  0  0  0
  160.4140  202.7270  150.1890 O   0  0  0  0  0  1  0  0  0  0  0  0
  159.9720  201.6520  149.4170 C   0  0  0  0  0  2  0  0  0  0  0  0
  1  9  1  0  0  0  0
  2 22  1  6  0  0  0
  2  5  1  0  0  0  0
  2  3  1  0  0  0  0
  3  4  1  0  0  0  0
  3  6  1  0  0  0  0
  3  1  1  1  0  0  0
  4  8  1  6  0  0  0
  4  6  1  0  0  0  0
  4 10  1  0  0  0  0
  6  5  1  6  0  0  0
  6  9  1  0  0  0  0
  9  7  2  0  0  0  0
 12 11  2  0  0  0  0
 13 10  1  0  0  0  0
 13 11  1  0  0  0  0
 14 16  2  0  0  0  0
 14 15  1  0  0  0  0
 15 18  1  1  0  0  0
 16 19  1  0  0  0  0
 17 11  1  6  0  0  0
 17 20  1  0  0  0  0
 17 14  1  0  0  0  0
 17 15  1  0  0  0  0
 18 21  2  0  0  0  0
 19 21  1  0  0  0  0
 20 15  1  0  0  0  0
 23 22  1  0  0  0  0
 24 25  1  0  0  0  0
 24 23  1  0  0  0  0
 25 26  1  6  0  0  0
 25 27  1  0  0  0  0
 27 28  1  0  0  0  0
 28 29  1  1  0  0  0
 28 31  1  0  0  0  0
 31 30  1  0  0  0  0
M  END
>  <MODEL>
3

>  <REMARK>
 VINA RESULT:      -7.0      2.139      8.770
  Name = 
  10 active torsions:
  status: ('A' for Active; 'I' for Inactive)
    1  A    between atoms: C_2  and  C_14
    2  A    between atoms: C_3  and  C_18
    3  A    between atoms: C_3  and  C_30
    4  A    between atoms: C_4  and  C_27
    5  A    between atoms: C_9  and  C_10
    6  A    between atoms: C_10  and  N_25
    7  A    between atoms: C_13  and  C_18
    8  A    between atoms: C_13  and  C_26
    9  A    between atoms: N_19  and  C_27
   10  A    between atoms: N_19  and  C_30
                            x       y       z     vdW  Elec       q    Type
                         _______ _______ _______ _____ _____    ______ ____

>  <TORSDO>
F 10

$$$$
=
 OpenBabel11042420283D

 31 36  0  0  1  0  0  0  0  0999 V2000
  160.4690  205.7120  150.8140 O   0  0  0  0  0  0  0  0  0  0  0  0
  160.6420  207.7130  152.2860 C   0  0  1  0  0  3  0  0  0  0  0  0
  160.9530  207.0480  150.9370 C   0  0  2  0  0  0  0  0  0  0  0  0
  162.2320  207.3810  150.1990 C   0  0  2  0  0  0  0  0  0  0  0  0
  161.9890  207.2810  152.7880 C   0  0  0  0  0  2  0  0  0  0  0  0
  162.2580  206.5660  151.4630 C   0  0  1  0  0  0  0  0  0  0  0  0
  162.1250  204.0300  151.6370 O   0  0  0  0  0  0  0  0  0  0  0  0
  162.6870  208.6970  150.3260 O   0  0  0  0  0  1  0  0  0  0  0  0
  161.7000  205.1840  151.3600 C   0  0  0  0  0  0  0  0  0  0  0  0
  162.4740  206.6780  148.8710 C   0  0  0  0  0  2  0  0  0  0  0  0
  161.1880  206.2600  146.7390 C   0  0  0  0  0  0  0  0  0  0  0  0
  160.1870  206.5700  145.9800 N   0  0  0  0  0  2  0  0  0  0  0  0
  161.4160  207.0160  147.9300 N   0  0  0  0  0  2  0  0  0  0  0  0
  161.5990  203.8800  147.0700 C   0  0  0  0  0  0  0  0  0  0  0  0
  161.3690  203.3460  145.7920 C   0  0  1  0  0  0  0  0  0  0  0  0
  161.3620  203.1840  148.2400 C   0  0  0  0  0  3  0  0  0  0  0  0
  162.0560  205.0700  146.4140 C   0  0  1  0  0  0  0  0  0  0  0  0
  160.8790  202.0720  145.5700 C   0  0  0  0  0  3  0  0  0  0  0  0
  160.8590  201.8710  148.0530 C   0  0  0  0  0  2  0  0  0  0  0  0
  161.7920  204.5710  145.1110 N   0  0  0  0  0  2  0  0  0  0  0  0
  160.6220  201.3290  146.7490 C   0  0  0  0  0  3  0  0  0  0  0  0
  160.5500  209.2310  152.1850 C   0  0  0  0  0  2  0  0  0  0  0  0
  161.5110  209.8370  153.0890 N   0  0  0  0  0  2  0  0  0  0  0  0
  160.8430  210.9570  153.7290 C   0  0  0  0  0  2  0  0  0  0  0  0
  159.8200  210.4380  154.7200 C   0  0  1  0  0  3  0  0  0  0  0  0
  160.4770  209.9870  155.8640 O   0  0  0  0  0  1  0  0  0  0  0  0
  158.8520  211.5550  155.0870 C   0  0  0  0  0  2  0  0  0  0  0  0
  157.7550  211.6960  154.0420 C   0  0  1  0  0  3  0  0  0  0  0  0
  156.5240  211.3330  154.5940 O   0  0  0  0  0  1  0  0  0  0  0  0
  158.5580  213.9320  154.3040 O   0  0  0  0  0  1  0  0  0  0  0  0
  157.6790  213.1370  153.5660 C   0  0  0  0  0  2  0  0  0  0  0  0
  1  9  1  0  0  0  0
  2 22  1  6  0  0  0
  2  5  1  0  0  0  0
  3  1  1  6  0  0  0
  3  6  1  0  0  0  0
  3  2  1  0  0  0  0
  4  8  1  1  0  0  0
  4  3  1  0  0  0  0
  4  6  1  0  0  0  0
  6  5  1  1  0  0  0
  9  6  1  0  0  0  0
  9  7  2  0  0  0  0
 10  4  1  0  0  0  0
 11 13  1  0  0  0  0
 12 11  2  0  0  0  0
 13 10  1  0  0  0  0
 14 16  2  0  0  0  0
 15 18  1  6  0  0  0
 15 17  1  0  0  0  0
 15 14  1  0  0  0  0
 17 11  1  1  0  0  0
 17 14  1  0  0  0  0
 18 21  2  0  0  0  0
 19 16  1  0  0  0  0
 20 15  1  0  0  0  0
 20 17  1  0  0  0  0
 21 19  1  0  0  0  0
 22 23  1  0  0  0  0
 23 24  1  0  0  0  0
 24 25  1  0  0  0  0
 25 27  1  0  0  0  0
 25 26  1  1  0  0  0
 28 29  1  1  0  0  0
 28 27  1  0  0  0  0
 31 28  1  0  0  0  0
 31 30  1  0  0  0  0
M  END
>  <MODEL>
4

>  <REMARK>
 VINA RESULT:      -6.9      1.240      2.097
  Name = 
  10 active torsions:
  status: ('A' for Active; 'I' for Inactive)
    1  A    between atoms: C_2  and  C_14
    2  A    between atoms: C_3  and  C_18
    3  A    between atoms: C_3  and  C_30
    4  A    between atoms: C_4  and  C_27
    5  A    between atoms: C_9  and  C_10
    6  A    between atoms: C_10  and  N_25
    7  A    between atoms: C_13  and  C_18
    8  A    between atoms: C_13  and  C_26
    9  A    between atoms: N_19  and  C_27
   10  A    between atoms: N_19  and  C_30
                            x       y       z     vdW  Elec       q    Type
                         _______ _______ _______ _____ _____    ______ ____

>  <TORSDO>
F 10

$$$$
=
 OpenBabel11042420283D

 31 36  0  0  1  0  0  0  0  0999 V2000
  162.5480  204.5680  151.4670 O   0  0  0  0  0  0  0  0  0  0  0  0
  161.5940  205.8100  149.5310 C   0  0  1  0  0  3  0  0  0  0  0  0
  162.0330  205.8140  151.0020 C   0  0  2  0  0  0  0  0  0  0  0  0
  161.3010  206.6700  152.0150 C   0  0  2  0  0  0  0  0  0  0  0  0
  160.1920  205.5030  149.9700 C   0  0  0  0  0  2  0  0  0  0  0  0
  160.6560  205.4440  151.4260 C   0  0  1  0  0  0  0  0  0  0  0  0
  160.7510  203.0800  152.3630 O   0  0  0  0  0  0  0  0  0  0  0  0
  160.8090  207.8900  151.5430 O   0  0  0  0  0  1  0  0  0  0  0  0
  161.2260  204.1330  151.8600 C   0  0  0  0  0  0  0  0  0  0  0  0
  161.7900  206.6170  153.4550 C   0  0  0  0  0  2  0  0  0  0  0  0
  160.4430  207.4140  155.4350 C   0  0  0  0  0  0  0  0  0  0  0  0
  159.3780  207.2940  156.1600 N   0  0  0  0  0  2  0  0  0  0  0  0
  160.6570  206.4970  154.3600 N   0  0  0  0  0  2  0  0  0  0  0  0
  160.9390  209.7750  155.0790 C   0  0  0  0  0  0  0  0  0  0  0  0
  160.8860  210.3010  156.3790 C   0  0  1  0  0  0  0  0  0  0  0  0
  160.6080  210.4990  153.9500 C   0  0  0  0  0  3  0  0  0  0  0  0
  161.4040  208.5530  155.6680 C   0  0  1  0  0  0  0  0  0  0  0  0
  160.4930  211.5950  156.6670 C   0  0  0  0  0  3  0  0  0  0  0  0
  160.2000  211.8340  154.2040 C   0  0  0  0  0  2  0  0  0  0  0  0
  161.3180  209.0470  156.9970 N   0  0  0  0  0  2  0  0  0  0  0  0
  160.1430  212.3680  155.5310 C   0  0  0  0  0  3  0  0  0  0  0  0
  161.6840  207.1890  148.8870 C   0  0  0  0  0  2  0  0  0  0  0  0
  161.2330  207.1110  147.5090 N   0  0  0  0  0  2  0  0  0  0  0  0
  162.1410  206.2140  146.8160 C   0  0  0  0  0  2  0  0  0  0  0  0
  161.3450  205.1640  146.0670 C   0  0  1  0  0  3  0  0  0  0  0  0
  161.3860  205.4460  144.7020 O   0  0  0  0  0  1  0  0  0  0  0  0
  161.9410  203.7870  146.3290 C   0  0  0  0  0  2  0  0  0  0  0  0
  160.8770  202.8120  146.8110 C   0  0  1  0  0  3  0  0  0  0  0  0
  160.8810  201.6700  146.0060 O   0  0  0  0  0  1  0  0  0  0  0  0
  160.0480  201.7650  148.7930 O   0  0  0  0  0  1  0  0  0  0  0  0
  161.1610  202.4080  148.2470 C   0  0  0  0  0  2  0  0  0  0  0  0
  1  9  1  0  0  0  0
  2 22  1  1  0  0  0
  2  5  1  0  0  0  0
  2  3  1  0  0  0  0
  3  6  1  0  0  0  0
  3  1  1  1  0  0  0
  3  4  1  0  0  0  0
  4  8  1  6  0  0  0
  4 10  1  0  0  0  0
  6  5  1  6  0  0  0
  6  9  1  0  0  0  0
  6  4  1  0  0  0  0
  9  7  2  0  0  0  0
 10 13  1  0  0  0  0
 11 12  2  0  0  0  0
 13 11  1  0  0  0  0
 14 17  1  0  0  0  0
 14 15  1  0  0  0  0
 15 18  1  6  0  0  0
 15 20  1  0  0  0  0
 16 19  1  0  0  0  0
 16 14  2  0  0  0  0
 17 11  1  1  0  0  0
 17 15  1  0  0  0  0
 17 20  1  0  0  0  0
 19 21  1  0  0  0  0
 21 18  2  0  0  0  0
 23 22  1  0  0  0  0
 24 23  1  0  0  0  0
 25 26  1  6  0  0  0
 25 27  1  0  0  0  0
 25 24  1  0  0  0  0
 27 28  1  0  0  0  0
 28 29  1  6  0  0  0
 28 31  1  0  0  0  0
 31 30  1  0  0  0  0
M  END
>  <MODEL>
5

>  <REMARK>
 VINA RESULT:      -6.9      2.458      8.994
  Name = 
  10 active torsions:
  status: ('A' for Active; 'I' for Inactive)
    1  A    between atoms: C_2  and  C_14
    2  A    between atoms: C_3  and  C_18
    3  A    between atoms: C_3  and  C_30
    4  A    between atoms: C_4  and  C_27
    5  A    between atoms: C_9  and  C_10
    6  A    between atoms: C_10  and  N_25
    7  A    between atoms: C_13  and  C_18
    8  A    between atoms: C_13  and  C_26
    9  A    between atoms: N_19  and  C_27
   10  A    between atoms: N_19  and  C_30
                            x       y       z     vdW  Elec       q    Type
                         _______ _______ _______ _____ _____    ______ ____

>  <TORSDO>
F 10

$$$$
=
 OpenBabel11042420283D

 31 36  0  0  1  0  0  0  0  0999 V2000
  160.4910  207.6900  151.0340 O   0  0  0  0  0  0  0  0  0  0  0  0
  161.5640  205.4530  150.8170 C   0  0  1  0  0  3  0  0  0  0  0  0
  160.8500  206.4830  151.7030 C   0  0  2  0  0  0  0  0  0  0  0  0
  161.1960  206.5960  153.1730 C   0  0  2  0  0  0  0  0  0  0  0  0
  162.8830  205.9930  151.2860 C   0  0  0  0  0  2  0  0  0  0  0  0
  162.1600  207.0560  152.1130 C   0  0  1  0  0  0  0  0  0  0  0  0
  162.3180  209.3930  151.1170 O   0  0  0  0  0  0  0  0  0  0  0  0
  161.5390  205.4020  153.8150 O   0  0  0  0  0  1  0  0  0  0  0  0
  161.7660  208.2870  151.3630 C   0  0  0  0  0  0  0  0  0  0  0  0
  160.4500  207.6440  153.9870 C   0  0  0  0  0  2  0  0  0  0  0  0
  161.2610  209.9630  154.5680 C   0  0  0  0  0  0  0  0  0  0  0  0
  162.0980  210.7040  155.2200 N   0  0  0  0  0  2  0  0  0  0  0  0
  161.3980  208.5420  154.6290 N   0  0  0  0  0  2  0  0  0  0  0  0
  159.1220  211.1250  154.7110 C   0  0  0  0  0  0  0  0  0  0  0  0
  159.4170  212.3830  154.1660 C   0  0  1  0  0  0  0  0  0  0  0  0
  158.1680  210.9230  155.6900 C   0  0  0  0  0  3  0  0  0  0  0  0
  160.1070  210.5860  153.8210 C   0  0  1  0  0  0  0  0  0  0  0  0
  158.7890  213.5530  154.5530 C   0  0  0  0  0  3  0  0  0  0  0  0
  157.4990  212.1000  156.1140 C   0  0  0  0  0  2  0  0  0  0  0  0
  160.4560  211.8530  153.2830 N   0  0  0  0  0  2  0  0  0  0  0  0
  157.8040  213.3840  155.5590 C   0  0  0  0  0  3  0  0  0  0  0  0
  161.3510  204.0210  151.2920 C   0  0  0  0  0  2  0  0  0  0  0  0
  160.9760  203.1860  150.1640 N   0  0  0  0  0  2  0  0  0  0  0  0
  160.8330  204.0640  149.0170 C   0  0  0  0  0  2  0  0  0  0  0  0
  161.6270  203.5090  147.8510 C   0  0  1  0  0  3  0  0  0  0  0  0
  160.8310  202.6120  147.1390 O   0  0  0  0  0  1  0  0  0  0  0  0
  162.0620  204.6500  146.9400 C   0  0  0  0  0  2  0  0  0  0  0  0
  161.1780  205.8740  147.1330 C   0  0  1  0  0  3  0  0  0  0  0  0
  161.9600  206.9690  147.5070 O   0  0  0  0  0  1  0  0  0  0  0  0
  161.2080  205.7500  144.7460 O   0  0  0  0  0  1  0  0  0  0  0  0
  160.4580  206.1980  145.8350 C   0  0  0  0  0  2  0  0  0  0  0  0
  1  9  1  0  0  0  0
  2  5  1  0  0  0  0
  2 22  1  1  0  0  0
  2  3  1  0  0  0  0
  3  1  1  6  0  0  0
  3  6  1  0  0  0  0
  3  4  1  0  0  0  0
  4  8  1  1  0  0  0
  4 10  1  0  0  0  0
  6  5  1  6  0  0  0
  6  4  1  0  0  0  0
  7  9  2  0  0  0  0
  9  6  1  0  0  0  0
 10 13  1  0  0  0  0
 11 13  1  0  0  0  0
 11 12  2  0  0  0  0
 14 16  2  0  0  0  0
 15 18  1  6  0  0  0
 15 14  1  0  0  0  0
 16 19  1  0  0  0  0
 17 15  1  0  0  0  0
 17 11  1  1  0  0  0
 17 14  1  0  0  0  0
 18 21  2  0  0  0  0
 20 17  1  0  0  0  0
 20 15  1  0  0  0  0
 21 19  1  0  0  0  0
 23 22  1  0  0  0  0
 24 23  1  0  0  0  0
 25 26  1  6  0  0  0
 25 24  1  0  0  0  0
 27 28  1  0  0  0  0
 27 25  1  0  0  0  0
 28 29  1  6  0  0  0
 30 31  1  0  0  0  0
 31 28  1  0  0  0  0
M  END
>  <MODEL>
6

>  <REMARK>
 VINA RESULT:      -6.6      2.617      9.126
  Name = 
  10 active torsions:
  status: ('A' for Active; 'I' for Inactive)
    1  A    between atoms: C_2  and  C_14
    2  A    between atoms: C_3  and  C_18
    3  A    between atoms: C_3  and  C_30
    4  A    between atoms: C_4  and  C_27
    5  A    between atoms: C_9  and  C_10
    6  A    between atoms: C_10  and  N_25
    7  A    between atoms: C_13  and  C_18
    8  A    between atoms: C_13  and  C_26
    9  A    between atoms: N_19  and  C_27
   10  A    between atoms: N_19  and  C_30
                            x       y       z     vdW  Elec       q    Type
                         _______ _______ _______ _____ _____    ______ ____

>  <TORSDO>
F 10

$$$$
=
 OpenBabel11042420283D

 31 36  0  0  1  0  0  0  0  0999 V2000
  162.8740  206.1680  152.0580 O   0  0  0  0  0  0  0  0  0  0  0  0
  161.8240  206.5950  149.8410 C   0  0  1  0  0  3  0  0  0  0  0  0
  162.2540  207.1340  151.2130 C   0  0  2  0  0  0  0  0  0  0  0  0
  161.4440  208.2170  151.8950 C   0  0  2  0  0  0  0  0  0  0  0  0
  160.4530  206.3380  150.3930 C   0  0  0  0  0  2  0  0  0  0  0  0
  160.9120  206.8150  151.7710 C   0  0  1  0  0  0  0  0  0  0  0  0
  161.2110  204.9250  153.4480 O   0  0  0  0  0  0  0  0  0  0  0  0
  160.8490  209.1590  151.0510 O   0  0  0  0  0  1  0  0  0  0  0  0
  161.5940  205.7820  152.6080 C   0  0  0  0  0  0  0  0  0  0  0  0
  161.9280  208.6970  153.2550 C   0  0  0  0  0  2  0  0  0  0  0  0
  160.3140  209.6260  154.9590 C   0  0  0  0  0  0  0  0  0  0  0  0
  159.3330  209.4120  155.7760 N   0  0  0  0  0  2  0  0  0  0  0  0
  160.8770  208.5230  154.2460 N   0  0  0  0  0  2  0  0  0  0  0  0
  159.9330  211.7470  153.8180 C   0  0  0  0  0  0  0  0  0  0  0  0
  159.6950  212.6320  154.8810 C   0  0  1  0  0  0  0  0  0  0  0  0
  159.3640  211.8900  152.5670 C   0  0  0  0  0  3  0  0  0  0  0  0
  160.8040  211.0300  154.7020 C   0  0  1  0  0  0  0  0  0  0  0  0
  158.8650  213.7340  154.7910 C   0  0  0  0  0  3  0  0  0  0  0  0
  158.5050  213.0110  152.4340 C   0  0  0  0  0  2  0  0  0  0  0  0
  160.5480  211.8840  155.8070 N   0  0  0  0  0  2  0  0  0  0  0  0
  158.2610  213.9110  153.5210 C   0  0  0  0  0  3  0  0  0  0  0  0
  161.7950  207.6770  148.7670 C   0  0  0  0  0  2  0  0  0  0  0  0
  161.5090  207.0730  147.4780 N   0  0  0  0  0  2  0  0  0  0  0  0
  162.6920  206.3280  147.0870 C   0  0  0  0  0  2  0  0  0  0  0  0
  162.3450  205.3830  145.9530 C   0  0  1  0  0  3  0  0  0  0  0  0
  163.4420  204.5640  145.6870 O   0  0  0  0  0  1  0  0  0  0  0  0
  161.1460  204.5300  146.3470 C   0  0  0  0  0  2  0  0  0  0  0  0
  161.5790  203.3200  147.1620 C   0  0  1  0  0  3  0  0  0  0  0  0
  161.0150  203.3820  148.4390 O   0  0  0  0  0  1  0  0  0  0  0  0
  160.4850  202.3530  145.2700 O   0  0  0  0  0  1  0  0  0  0  0  0
  161.1160  202.0450  146.4770 C   0  0  0  0  0  2  0  0  0  0  0  0
  1  9  1  0  0  0  0
  2 22  1  6  0  0  0
  2  5  1  0  0  0  0
  2  3  1  0  0  0  0
  3  6  1  0  0  0  0
  3  4  1  0  0  0  0
  3  1  1  1  0  0  0
  4  8  1  6  0  0  0
  4 10  1  0  0  0  0
  6  5  1  6  0  0  0
  6  4  1  0  0  0  0
  6  9  1  0  0  0  0
  9  7  2  0  0  0  0
 10 13  1  0  0  0  0
 11 12  2  0  0  0  0
 13 11  1  0  0  0  0
 14 17  1  0  0  0  0
 14 15  1  0  0  0  0
 15 18  1  6  0  0  0
 15 20  1  0  0  0  0
 16 14  2  0  0  0  0
 17 15  1  0  0  0  0
 17 11  1  1  0  0  0
 17 20  1  0  0  0  0
 19 16  1  0  0  0  0
 19 21  1  0  0  0  0
 21 18  2  0  0  0  0
 23 22  1  0  0  0  0
 24 23  1  0  0  0  0
 25 26  1  1  0  0  0
 25 27  1  0  0  0  0
 25 24  1  0  0  0  0
 27 28  1  0  0  0  0
 28 29  1  1  0  0  0
 30 31  1  0  0  0  0
 31 28  1  0  0  0  0
M  END
>  <MODEL>
7

>  <REMARK>
 VINA RESULT:      -6.2      2.422      9.149
  Name = 
  10 active torsions:
  status: ('A' for Active; 'I' for Inactive)
    1  A    between atoms: C_2  and  C_14
    2  A    between atoms: C_3  and  C_18
    3  A    between atoms: C_3  and  C_30
    4  A    between atoms: C_4  and  C_27
    5  A    between atoms: C_9  and  C_10
    6  A    between atoms: C_10  and  N_25
    7  A    between atoms: C_13  and  C_18
    8  A    between atoms: C_13  and  C_26
    9  A    between atoms: N_19  and  C_27
   10  A    between atoms: N_19  and  C_30
                            x       y       z     vdW  Elec       q    Type
                         _______ _______ _______ _____ _____    ______ ____

>  <TORSDO>
F 10

$$$$
=
 OpenBabel11042420283D

 31 36  0  0  1  0  0  0  0  0999 V2000
  160.6800  208.9020  151.3680 O   0  0  0  0  0  0  0  0  0  0  0  0
  160.8780  207.2450  149.5190 C   0  0  1  0  0  3  0  0  0  0  0  0
  160.9610  207.5480  151.0220 C   0  0  2  0  0  0  0  0  0  0  0  0
  161.9580  206.8140  151.8940 C   0  0  2  0  0  0  0  0  0  0  0  0
  162.3560  207.4790  149.4100 C   0  0  0  0  0  2  0  0  0  0  0  0
  162.4130  207.8430  150.8940 C   0  0  1  0  0  0  0  0  0  0  0  0
  162.7290  210.3320  151.3160 O   0  0  0  0  0  0  0  0  0  0  0  0
  162.2150  205.4850  151.5440 O   0  0  0  0  0  1  0  0  0  0  0  0
  162.0730  209.2610  151.2170 C   0  0  0  0  0  0  0  0  0  0  0  0
  161.9850  207.1710  153.3730 C   0  0  0  0  0  2  0  0  0  0  0  0
  160.3000  207.2760  155.2500 C   0  0  0  0  0  0  0  0  0  0  0  0
  159.1660  206.8820  155.7320 N   0  0  0  0  0  2  0  0  0  0  0  0
  160.7590  206.7220  154.0160 N   0  0  0  0  0  2  0  0  0  0  0  0
  160.7180  209.6670  155.4780 C   0  0  0  0  0  0  0  0  0  0  0  0
  160.2900  209.9330  156.7870 C   0  0  1  0  0  0  0  0  0  0  0  0
  160.6500  210.5910  154.4520 C   0  0  0  0  0  3  0  0  0  0  0  0
  161.0900  208.3620  155.9390 C   0  0  1  0  0  0  0  0  0  0  0  0
  159.7520  211.1420  157.1880 C   0  0  0  0  0  3  0  0  0  0  0  0
  160.1040  211.8460  154.8240 C   0  0  0  0  0  2  0  0  0  0  0  0
  160.6250  208.5890  157.2610 N   0  0  0  0  0  2  0  0  0  0  0  0
  159.6650  212.1140  156.1600 C   0  0  0  0  0  3  0  0  0  0  0  0
  160.5240  205.7910  149.2300 C   0  0  0  0  0  2  0  0  0  0  0  0
  161.6100  205.1640  148.4980 N   0  0  0  0  0  2  0  0  0  0  0  0
  161.2020  205.1010  147.1060 C   0  0  0  0  0  2  0  0  0  0  0  0
  160.9920  203.6540  146.7040 C   0  0  1  0  0  3  0  0  0  0  0  0
  161.5390  203.4470  145.4380 O   0  0  0  0  0  1  0  0  0  0  0  0
  161.6690  202.7390  147.7160 C   0  0  0  0  0  2  0  0  0  0  0  0
  160.7270  201.6330  148.1710 C   0  0  1  0  0  3  0  0  0  0  0  0
  161.3920  200.4050  148.1500 O   0  0  0  0  0  1  0  0  0  0  0  0
  161.1910  201.4580  150.5090 O   0  0  0  0  0  1  0  0  0  0  0  0
  160.2480  201.9140  149.5850 C   0  0  0  0  0  2  0  0  0  0  0  0
  2 22  1  1  0  0  0
  2  3  1  0  0  0  0
  3  1  1  1  0  0  0
  3  4  1  0  0  0  0
  4  8  1  6  0  0  0
  4 10  1  0  0  0  0
  5  2  1  0  0  0  0
  6  5  1  6  0  0  0
  6  3  1  0  0  0  0
  6  9  1  0  0  0  0
  6  4  1  0  0  0  0
  9  7  2  0  0  0  0
  9  1  1  0  0  0  0
 10 13  1  0  0  0  0
 11 12  2  0  0  0  0
 13 11  1  0  0  0  0
 14 17  1  0  0  0  0
 14 15  1  0  0  0  0
 15 18  1  1  0  0  0
 15 20  1  0  0  0  0
 16 19  1  0  0  0  0
 16 14  2  0  0  0  0
 17 11  1  6  0  0  0
 17 15  1  0  0  0  0
 17 20  1  0  0  0  0
 19 21  1  0  0  0  0
 21 18  2  0  0  0  0
 23 22  1  0  0  0  0
 24 23  1  0  0  0  0
 25 26  1  6  0  0  0
 25 24  1  0  0  0  0
 25 27  1  0  0  0  0
 27 28  1  0  0  0  0
 28 29  1  1  0  0  0
 28 31  1  0  0  0  0
 31 30  1  0  0  0  0
M  END
>  <MODEL>
8

>  <REMARK>
 VINA RESULT:      -6.2      2.350      9.068
  Name = 
  10 active torsions:
  status: ('A' for Active; 'I' for Inactive)
    1  A    between atoms: C_2  and  C_14
    2  A    between atoms: C_3  and  C_18
    3  A    between atoms: C_3  and  C_30
    4  A    between atoms: C_4  and  C_27
    5  A    between atoms: C_9  and  C_10
    6  A    between atoms: C_10  and  N_25
    7  A    between atoms: C_13  and  C_18
    8  A    between atoms: C_13  and  C_26
    9  A    between atoms: N_19  and  C_27
   10  A    between atoms: N_19  and  C_30
                            x       y       z     vdW  Elec       q    Type
                         _______ _______ _______ _____ _____    ______ ____

>  <TORSDO>
F 10

$$$$
=
 OpenBabel11042420283D

 31 36  0  0  1  0  0  0  0  0999 V2000
  160.5030  207.5190  150.7090 O   0  0  0  0  0  0  0  0  0  0  0  0
  161.3500  205.1900  150.9550 C   0  0  1  0  0  3  0  0  0  0  0  0
  160.8110  206.4650  151.6190 C   0  0  2  0  0  0  0  0  0  0  0  0
  161.2940  206.8710  152.9950 C   0  0  2  0  0  0  0  0  0  0  0  0
  162.7480  205.6770  151.1970 C   0  0  0  0  0  2  0  0  0  0  0  0
  162.1980  206.9720  151.7960 C   0  0  1  0  0  0  0  0  0  0  0  0
  162.4750  208.9910  150.2720 O   0  0  0  0  0  0  0  0  0  0  0  0
  161.5840  205.8240  153.8750 O   0  0  0  0  0  1  0  0  0  0  0  0
  161.8510  208.0360  150.8060 C   0  0  0  0  0  0  0  0  0  0  0  0
  160.7190  208.1500  153.5870 C   0  0  0  0  0  2  0  0  0  0  0  0
  160.7230  209.0560  155.9430 C   0  0  0  0  0  0  0  0  0  0  0  0
  160.4550  208.8660  157.1940 N   0  0  0  0  0  2  0  0  0  0  0  0
  160.5140  207.9870  155.0180 N   0  0  0  0  0  2  0  0  0  0  0  0
  160.0680  211.2190  155.0290 C   0  0  0  0  0  0  0  0  0  0  0  0
  160.4110  212.1070  156.0590 C   0  0  1  0  0  0  0  0  0  0  0  0
  159.0170  211.4330  154.1580 C   0  0  0  0  0  3  0  0  0  0  0  0
  161.1730  210.4100  155.4530 C   0  0  1  0  0  0  0  0  0  0  0  0
  159.7330  213.2850  156.3150 C   0  0  0  0  0  3  0  0  0  0  0  0
  158.2950  212.6330  154.3870 C   0  0  0  0  0  2  0  0  0  0  0  0
  161.5150  211.2690  156.5300 N   0  0  0  0  0  2  0  0  0  0  0  0
  158.6450  213.5360  155.4420 C   0  0  0  0  0  3  0  0  0  0  0  0
  161.0520  203.9340  151.7650 C   0  0  0  0  0  2  0  0  0  0  0  0
  160.3320  202.9820  150.9390 N   0  0  0  0  0  2  0  0  0  0  0  0
  161.2790  201.9490  150.5590 C   0  0  0  0  0  2  0  0  0  0  0  0
  160.6240  200.9930  149.5820 C   0  0  1  0  0  3  0  0  0  0  0  0
  159.2980  201.3760  149.3850 O   0  0  0  0  0  1  0  0  0  0  0  0
  161.3740  201.0230  148.2570 C   0  0  0  0  0  2  0  0  0  0  0  0
  160.8260  202.1090  147.3420 C   0  0  1  0  0  3  0  0  0  0  0  0
  161.5820  203.2750  147.4860 O   0  0  0  0  0  1  0  0  0  0  0  0
  159.6250  201.6870  145.3200 O   0  0  0  0  0  1  0  0  0  0  0  0
  160.8960  201.6480  145.8960 C   0  0  0  0  0  2  0  0  0  0  0  0
  1  9  1  0  0  0  0
  2  5  1  0  0  0  0
  2  3  1  0  0  0  0
  2 22  1  1  0  0  0
  3  1  1  6  0  0  0
  3  6  1  0  0  0  0
  3  4  1  0  0  0  0
  4 10  1  0  0  0  0
  4  8  1  1  0  0  0
  6  5  1  6  0  0  0
  6  4  1  0  0  0  0
  7  9  2  0  0  0  0
  9  6  1  0  0  0  0
 10 13  1  0  0  0  0
 11 12  2  0  0  0  0
 13 11  1  0  0  0  0
 14 17  1  0  0  0  0
 14 15  1  0  0  0  0
 15 18  1  6  0  0  0
 15 20  1  0  0  0  0
 16 19  1  0  0  0  0
 16 14  2  0  0  0  0
 17 11  1  1  0  0  0
 17 15  1  0  0  0  0
 17 20  1  0  0  0  0
 19 21  1  0  0  0  0
 21 18  2  0  0  0  0
 23 22  1  0  0  0  0
 24 23  1  0  0  0  0
 25 26  1  6  0  0  0
 25 24  1  0  0  0  0
 27 25  1  0  0  0  0
 28 29  1  6  0  0  0
 28 27  1  0  0  0  0
 30 31  1  0  0  0  0
 31 28  1  0  0  0  0
M  END
>  <MODEL>
9

>  <REMARK>
 VINA RESULT:      -5.9      2.875      9.704
  Name = 
  10 active torsions:
  status: ('A' for Active; 'I' for Inactive)
    1  A    between atoms: C_2  and  C_14
    2  A    between atoms: C_3  and  C_18
    3  A    between atoms: C_3  and  C_30
    4  A    between atoms: C_4  and  C_27
    5  A    between atoms: C_9  and  C_10
    6  A    between atoms: C_10  and  N_25
    7  A    between atoms: C_13  and  C_18
    8  A    between atoms: C_13  and  C_26
    9  A    between atoms: N_19  and  C_27
   10  A    between atoms: N_19  and  C_30
                            x       y       z     vdW  Elec       q    Type
                         _______ _______ _______ _____ _____    ______ ____

>  <TORSDO>
F 10

$$$$
