=
 OpenBabel11052411133D

 26 28  0  0  1  0  0  0  0  0999 V2000
  160.5950  205.0590  148.6440 C   0  0  0  0  0  0  0  0  0  0  0  0
  163.1060  206.5430  151.6950 C   0  0  0  0  0  3  0  0  0  0  0  0
  160.7910  203.7660  150.6880 C   0  0  0  0  0  0  0  0  0  0  0  0
  161.2050  203.8810  146.5220 C   0  0  0  0  0  2  0  0  0  0  0  0
  160.8530  203.8000  149.3840 C   0  0  0  0  0  0  0  0  0  0  0  0
  160.4860  206.2570  146.6020 O   0  0  0  0  0  1  0  0  0  0  0  0
  160.9790  207.1820  149.7460 C   0  0  0  0  0  0  0  0  0  0  0  0
  160.6180  207.9230  153.0990 C   0  0  0  0  0  2  0  0  0  0  0  0
  161.9080  208.6100  152.6350 C   0  0  0  0  0  2  0  0  0  0  0  0
  161.2440  202.5950  148.6510 C   0  0  0  0  0  3  0  0  0  0  0  0
  162.2840  205.6650  152.1900 C   0  0  0  0  0  0  0  0  0  0  0  0
  160.7270  203.8260  151.9930 C   0  0  0  0  0  3  0  0  0  0  0  0
  160.5610  205.5060  153.8940 C   0  0  0  0  0  2  0  0  0  0  0  0
  160.1330  206.2630  149.3630 C   0  0  0  0  0  3  0  0  0  0  0  0
  161.3430  204.9370  152.7360 C   0  0  0  0  0  0  0  0  0  0  0  0
  161.3990  202.6210  147.3290 C   0  0  0  0  0  0  0  0  0  0  0  0
  161.8420  208.0980  150.1270 C   0  0  0  0  0  0  0  0  0  0  0  0
  161.7640  201.4550  146.6710 O   0  0  0  0  0  1  0  0  0  0  0  0
  160.7470  205.0870  147.3080 C   0  0  0  0  0  0  0  0  0  0  0  0
  162.5960  207.9350  151.4300 C   0  0  2  0  0  3  0  0  0  0  0  0
  160.9060  206.9610  154.2550 C   0  0  2  0  0  3  0  0  0  0  0  0
  160.1050  207.3810  155.4690 C   0  0  0  0  0  1  0  0  0  0  0  0
  162.4950  209.0950  147.8950 C   0  0  0  0  0  1  0  0  0  0  0  0
  162.0930  209.2460  149.2870 N   0  0  0  0  0  0  0  0  0  0  0  0
  162.0830  210.5980  149.8300 C   0  0  0  0  0  2  0  0  0  0  0  0
  162.1020  211.6150  148.7060 C   0  0  0  0  0  1  0  0  0  0  0  0
  1 14  1  0  0  0  0
  1  5  1  0  0  0  0
  2 11  2  0  0  0  0
  3 12  2  0  0  0  0
  4 19  1  0  0  0  0
  4 16  1  0  0  0  0
  5  3  2  0  0  0  0
  6 19  1  0  0  0  0
  7 17  2  0  0  0  0
  8 21  1  0  0  0  0
  9  8  1  0  0  0  0
 10  5  1  0  0  0  0
 11 15  2  0  0  0  0
 12 15  1  0  0  0  0
 13 21  1  0  0  0  0
 14  7  2  0  0  0  0
 15 13  1  0  0  0  0
 16 10  2  0  0  0  0
 17 20  1  0  0  0  0
 18 16  1  0  0  0  0
 19  1  2  0  0  0  0
 20  2  1  1  0  0  0
 20  9  1  0  0  0  0
 21 22  1  1  0  0  0
 23 24  1  0  0  0  0
 24 25  1  0  0  0  0
 24 17  1  0  0  0  0
 26 25  1  0  0  0  0
M  END
>  <MODEL>
1

>  <REMARK>
 VINA RESULT:      -7.3      0.000      0.000
  Name = 
  2 active torsions:
  status: ('A' for Active; 'I' for Inactive)
    1  A    between atoms: C_18  and  N_22
    2  A    between atoms: C_19  and  N_22
                            x       y       z     vdW  Elec       q    Type
                         _______ _______ _______ _____ _____    ______ ____

>  <TORSDO>
F 2

$$$$
=
 OpenBabel11052411133D

 26 28  0  0  1  0  0  0  0  0999 V2000
  160.5700  204.0870  149.3290 C   0  0  0  0  0  0  0  0  0  0  0  0
  163.1210  206.4880  151.6830 C   0  0  0  0  0  3  0  0  0  0  0  0
  160.8390  203.5090  151.6700 C   0  0  0  0  0  0  0  0  0  0  0  0
  161.1530  202.3060  147.6710 C   0  0  0  0  0  2  0  0  0  0  0  0
  160.8690  203.1300  150.4210 C   0  0  0  0  0  0  0  0  0  0  0  0
  160.3890  204.5780  147.0170 O   0  0  0  0  0  1  0  0  0  0  0  0
  160.9370  206.4540  149.6930 C   0  0  0  0  0  0  0  0  0  0  0  0
  160.6400  208.2130  152.6500 C   0  0  0  0  0  2  0  0  0  0  0  0
  161.9060  208.7330  151.9570 C   0  0  0  0  0  2  0  0  0  0  0  0
  161.2660  201.7590  150.0950 C   0  0  0  0  0  3  0  0  0  0  0  0
  162.3290  205.8020  152.4540 C   0  0  0  0  0  0  0  0  0  0  0  0
  160.8040  203.9780  152.8900 C   0  0  0  0  0  3  0  0  0  0  0  0
  160.6490  206.1700  154.1680 C   0  0  0  0  0  2  0  0  0  0  0  0
  160.1000  205.4520  149.6450 C   0  0  0  0  0  3  0  0  0  0  0  0
  161.4150  205.2740  153.2280 C   0  0  0  0  0  0  0  0  0  0  0  0
  161.3900  201.3680  148.8280 C   0  0  0  0  0  0  0  0  0  0  0  0
  161.7900  207.4530  149.7410 C   0  0  0  0  0  0  0  0  0  0  0  0
  161.7620  200.0580  148.5620 O   0  0  0  0  0  1  0  0  0  0  0  0
  160.6900  203.6940  148.0490 C   0  0  0  0  0  0  0  0  0  0  0  0
  162.5780  207.7190  151.0070 C   0  0  2  0  0  3  0  0  0  0  0  0
  160.9740  207.6690  154.0420 C   0  0  2  0  0  3  0  0  0  0  0  0
  160.1930  208.4420  155.0830 C   0  0  0  0  0  1  0  0  0  0  0  0
  162.1910  209.7190  148.6900 C   0  0  0  0  0  1  0  0  0  0  0  0
  162.0000  208.2800  148.5750 N   0  0  0  0  0  0  0  0  0  0  0  0
  161.8960  207.7310  147.2300 C   0  0  0  0  0  2  0  0  0  0  0  0
  162.7560  206.4890  147.1020 C   0  0  0  0  0  1  0  0  0  0  0  0
  1 14  1  0  0  0  0
  1  5  1  0  0  0  0
  2 11  2  0  0  0  0
  3 12  2  0  0  0  0
  4 19  1  0  0  0  0
  4 16  1  0  0  0  0
  5  3  2  0  0  0  0
  6 19  1  0  0  0  0
  7 17  2  0  0  0  0
  8 21  1  0  0  0  0
  9  8  1  0  0  0  0
 10  5  1  0  0  0  0
 11 15  2  0  0  0  0
 12 15  1  0  0  0  0
 14  7  2  0  0  0  0
 15 13  1  0  0  0  0
 16 10  2  0  0  0  0
 17 20  1  0  0  0  0
 18 16  1  0  0  0  0
 19  1  2  0  0  0  0
 20  2  1  1  0  0  0
 20  9  1  0  0  0  0
 21 13  1  0  0  0  0
 21 22  1  1  0  0  0
 24 23  1  0  0  0  0
 24 17  1  0  0  0  0
 25 24  1  0  0  0  0
 26 25  1  0  0  0  0
M  END
>  <MODEL>
2

>  <REMARK>
 VINA RESULT:      -6.7      1.136      1.740
  Name = 
  2 active torsions:
  status: ('A' for Active; 'I' for Inactive)
    1  A    between atoms: C_18  and  N_22
    2  A    between atoms: C_19  and  N_22
                            x       y       z     vdW  Elec       q    Type
                         _______ _______ _______ _____ _____    ______ ____

>  <TORSDO>
F 2

$$$$
=
 OpenBabel11052411133D

 26 28  0  0  1  0  0  0  0  0999 V2000
  161.9450  207.3690  152.3770 C   0  0  0  0  0  0  0  0  0  0  0  0
  159.8850  206.6330  148.7680 C   0  0  0  0  0  3  0  0  0  0  0  0
  161.2710  205.0890  151.8950 C   0  0  0  0  0  0  0  0  0  0  0  0
  161.0950  208.3500  154.5160 C   0  0  0  0  0  2  0  0  0  0  0  0
  161.2800  206.0920  152.7300 C   0  0  0  0  0  0  0  0  0  0  0  0
  162.5090  209.6090  152.9080 O   0  0  0  0  0  1  0  0  0  0  0  0
  162.1880  207.9740  150.0430 C   0  0  0  0  0  0  0  0  0  0  0  0
  162.6130  205.8650  147.3430 C   0  0  0  0  0  2  0  0  0  0  0  0
  161.6200  206.9470  146.9010 C   0  0  0  0  0  2  0  0  0  0  0  0
  160.5690  205.9730  154.0040 C   0  0  0  0  0  3  0  0  0  0  0  0
  160.3730  205.5190  149.2300 C   0  0  0  0  0  0  0  0  0  0  0  0
  161.2940  204.1430  150.9920 C   0  0  0  0  0  3  0  0  0  0  0  0
  161.8860  203.7460  148.5520 C   0  0  0  0  0  2  0  0  0  0  0  0
  162.7250  207.4800  151.1270 C   0  0  0  0  0  3  0  0  0  0  0  0
  161.0190  204.4340  149.5750 C   0  0  0  0  0  0  0  0  0  0  0  0
  160.4870  207.0080  154.8390 C   0  0  0  0  0  0  0  0  0  0  0  0
  161.6350  208.4710  148.9590 C   0  0  0  0  0  0  0  0  0  0  0  0
  159.8090  206.8520  156.0400 O   0  0  0  0  0  1  0  0  0  0  0  0
  161.8680  208.4140  153.2190 C   0  0  0  0  0  0  0  0  0  0  0  0
  160.8110  207.5810  148.0520 C   0  0  2  0  0  3  0  0  0  0  0  0
  161.9930  204.4730  147.1990 C   0  0  2  0  0  3  0  0  0  0  0  0
  162.8310  203.6450  146.2480 C   0  0  0  0  0  1  0  0  0  0  0  0
  162.4260  210.7910  149.5820 C   0  0  0  0  0  1  0  0  0  0  0  0
  161.7870  209.8730  148.6490 N   0  0  0  0  0  0  0  0  0  0  0  0
  161.1930  210.4520  147.4520 C   0  0  0  0  0  2  0  0  0  0  0  0
  161.2090  211.9660  147.5380 C   0  0  0  0  0  1  0  0  0  0  0  0
  1  5  1  0  0  0  0
  1 19  2  0  0  0  0
  2 11  2  0  0  0  0
  3  5  2  0  0  0  0
  4 16  1  0  0  0  0
  5 10  1  0  0  0  0
  6 19  1  0  0  0  0
  7 14  2  0  0  0  0
  9  8  1  0  0  0  0
 10 16  2  0  0  0  0
 11 15  2  0  0  0  0
 12  3  2  0  0  0  0
 13 15  1  0  0  0  0
 14  1  1  0  0  0  0
 15 12  1  0  0  0  0
 16 18  1  0  0  0  0
 17  7  2  0  0  0  0
 19  4  1  0  0  0  0
 20  9  1  1  0  0  0
 20  2  1  0  0  0  0
 20 17  1  0  0  0  0
 21 22  1  6  0  0  0
 21  8  1  0  0  0  0
 21 13  1  0  0  0  0
 24 17  1  0  0  0  0
 24 23  1  0  0  0  0
 25 26  1  0  0  0  0
 25 24  1  0  0  0  0
M  END
>  <MODEL>
3

>  <REMARK>
 VINA RESULT:      -5.0      2.685      5.642
  Name = 
  2 active torsions:
  status: ('A' for Active; 'I' for Inactive)
    1  A    between atoms: C_18  and  N_22
    2  A    between atoms: C_19  and  N_22
                            x       y       z     vdW  Elec       q    Type
                         _______ _______ _______ _____ _____    ______ ____

>  <TORSDO>
F 2

$$$$
=
 OpenBabel11052411133D

 26 28  0  0  1  0  0  0  0  0999 V2000
  160.0580  211.8560  151.5140 C   0  0  0  0  0  0  0  0  0  0  0  0
  162.0350  210.9320  155.1260 C   0  0  0  0  0  3  0  0  0  0  0  0
  161.2390  209.7410  151.6580 C   0  0  0  0  0  0  0  0  0  0  0  0
  160.7610  213.3970  149.6720 C   0  0  0  0  0  2  0  0  0  0  0  0
  161.0320  210.8570  151.0130 C   0  0  0  0  0  0  0  0  0  0  0  0
  158.9980  213.9680  151.3260 O   0  0  0  0  0  1  0  0  0  0  0  0
  159.5490  211.9300  153.8820 C   0  0  0  0  0  0  0  0  0  0  0  0
  159.5010  209.3020  156.1210 C   0  0  0  0  0  2  0  0  0  0  0  0
  160.1770  210.4770  156.8390 C   0  0  0  0  0  2  0  0  0  0  0  0
  161.8190  211.1500  149.8140 C   0  0  0  0  0  3  0  0  0  0  0  0
  161.8580  209.8460  154.4320 C   0  0  0  0  0  0  0  0  0  0  0  0
  161.3960  208.6600  152.3770 C   0  0  0  0  0  3  0  0  0  0  0  0
  160.7850  207.6780  154.6410 C   0  0  0  0  0  2  0  0  0  0  0  0
  159.2070  211.5450  152.6810 C   0  0  0  0  0  3  0  0  0  0  0  0
  161.5150  208.7290  153.8430 C   0  0  0  0  0  0  0  0  0  0  0  0
  161.6930  212.3160  149.1830 C   0  0  0  0  0  0  0  0  0  0  0  0
  159.9050  212.3230  155.0850 C   0  0  0  0  0  0  0  0  0  0  0  0
  162.4530  212.5520  148.0460 O   0  0  0  0  0  1  0  0  0  0  0  0
  159.9250  213.0330  150.8770 C   0  0  0  0  0  0  0  0  0  0  0  0
  160.8700  211.4880  155.9010 C   0  0  2  0  0  3  0  0  0  0  0  0
  160.4330  208.0880  156.0810 C   0  0  2  0  0  3  0  0  0  0  0  0
  159.7700  206.9240  156.7870 C   0  0  0  0  0  1  0  0  0  0  0  0
  160.0530  214.2340  156.7350 C   0  0  0  0  0  1  0  0  0  0  0  0
  159.4010  213.5670  155.6170 N   0  0  0  0  0  0  0  0  0  0  0  0
  158.1460  214.1390  155.1450 C   0  0  0  0  0  2  0  0  0  0  0  0
  156.9790  213.5460  155.9090 C   0  0  0  0  0  1  0  0  0  0  0  0
  1 14  1  0  0  0  0
  3 12  2  0  0  0  0
  4 19  1  0  0  0  0
  5  1  1  0  0  0  0
  5  3  2  0  0  0  0
  7 17  2  0  0  0  0
  8  9  1  0  0  0  0
 10  5  1  0  0  0  0
 11  2  2  0  0  0  0
 12 15  1  0  0  0  0
 13 21  1  0  0  0  0
 14  7  2  0  0  0  0
 15 11  2  0  0  0  0
 15 13  1  0  0  0  0
 16  4  1  0  0  0  0
 16 10  2  0  0  0  0
 17 24  1  0  0  0  0
 17 20  1  0  0  0  0
 18 16  1  0  0  0  0
 19  6  1  0  0  0  0
 19  1  2  0  0  0  0
 20  2  1  6  0  0  0
 20  9  1  0  0  0  0
 21  8  1  0  0  0  0
 21 22  1  6  0  0  0
 24 23  1  0  0  0  0
 25 24  1  0  0  0  0
 25 26  1  0  0  0  0
M  END
>  <MODEL>
4

>  <REMARK>
 VINA RESULT:      -4.9      4.949      7.137
  Name = 
  2 active torsions:
  status: ('A' for Active; 'I' for Inactive)
    1  A    between atoms: C_18  and  N_22
    2  A    between atoms: C_19  and  N_22
                            x       y       z     vdW  Elec       q    Type
                         _______ _______ _______ _____ _____    ______ ____

>  <TORSDO>
F 2

$$$$
