=
 OpenBabel11042421463D

 63 64  0  0  1  0  0  0  0  0999 V2000
  161.2770  209.9460  149.1010 C   0  0  2  0  0  3  0  0  0  0  0  0
  162.3200  210.6820  148.3940 N   0  0  0  0  0  2  0  0  0  0  0  0
  162.0520  211.9040  147.7040 C   0  0  0  0  0  0  0  0  0  0  0  0
  160.7040  212.3420  147.5110 N   0  0  0  0  0  2  0  0  0  0  0  0
  163.0130  212.5830  147.2590 O   0  0  0  0  0  0  0  0  0  0  0  0
  160.3690  213.5590  146.7900 C   0  0  2  0  0  3  0  0  0  0  0  0
  158.7830  212.2810  145.2720 N   0  0  0  0  0  2  0  0  0  0  0  0
  159.0400  213.3990  146.1200 C   0  0  0  0  0  0  0  0  0  0  0  0
  158.1320  214.3030  146.2760 N   0  0  0  0  0  1  0  0  0  0  0  0
  161.4150  213.8400  145.8160 N   0  0  0  0  0  2  0  0  0  0  0  0
  161.6470  213.7970  143.4990 C   0  0  0  0  0  3  0  0  0  0  0  0
  161.4960  213.1470  144.6040 N   0  0  0  0  0  0  0  0  0  0  0  0
  161.1700  213.5840  141.0460 N   0  0  0  0  0  2  0  0  0  0  0  0
  161.8110  213.0930  142.2280 C   0  0  0  0  0  0  0  0  0  0  0  0
  162.4630  212.0180  142.2000 O   0  0  0  0  0  0  0  0  0  0  0  0
  160.5940  210.7680  138.6830 N   0  0  0  0  0  0  0  0  0  0  0  0
  160.5380  213.6740  138.6870 C   0  0  0  0  0  2  0  0  0  0  0  0
  161.2200  212.8620  139.7850 C   0  0  2  0  0  3  0  0  0  0  0  0
  160.4460  212.8570  137.3980 C   0  0  0  0  0  2  0  0  0  0  0  0
  160.5030  211.5230  139.9380 C   0  0  0  0  0  2  0  0  0  0  0  0
  159.7960  211.5020  137.6910 C   0  0  0  0  0  2  0  0  0  0  0  0
  159.9970  209.4370  138.8840 C   0  0  1  0  0  3  0  0  0  0  0  0
  158.8030  209.2280  137.9480 C   0  0  0  0  0  1  0  0  0  0  0  0
  161.7060  208.4410  137.3240 C   0  0  0  0  0  1  0  0  0  0  0  0
  161.0320  208.3130  138.6790 C   0  0  1  0  0  3  0  0  0  0  0  0
  161.9940  208.3110  139.6960 O   0  0  0  0  0  0  0  0  0  0  0  0
  161.9090  207.0420  140.2760 C   0  0  0  0  0  2  0  0  0  0  0  0
  162.9910  206.2640  139.8620 O   0  0  0  0  0  1  0  0  0  0  0  0
  162.8050  208.7930  150.6900 O   0  0  0  0  0  1  0  0  0  0  0  0
  161.0630  210.1690  151.5450 C   0  0  0  0  0  3  0  0  0  0  0  0
  161.7210  209.6470  150.5050 C   0  0  0  0  0  0  0  0  0  0  0  0
  161.0250  210.7890  153.9170 C   0  0  0  0  0  0  0  0  0  0  0  0
  161.3400  209.8810  152.9680 C   0  0  0  0  0  0  0  0  0  0  0  0
  159.9660  208.8800  156.8200 C   0  0  0  0  0  3  0  0  0  0  0  0
  160.6550  209.7000  156.0780 C   0  0  0  0  0  0  0  0  0  0  0  0
  160.3140  207.4340  156.8480 C   0  0  0  0  0  1  0  0  0  0  0  0
  161.3510  210.5200  155.3340 C   0  0  0  0  0  3  0  0  0  0  0  0
  161.8950  208.6060  153.3290 N   0  0  0  0  0  2  0  0  0  0  0  0
  161.2140  207.3690  153.0950 C   0  0  0  0  0  0  0  0  0  0  0  0
  160.1200  207.3500  152.4670 O   0  0  0  0  0  0  0  0  0  0  0  0
  161.8470  206.0920  153.5410 C   0  0  1  0  0  3  0  0  0  0  0  0
  160.8080  205.1800  154.1700 C   0  0  0  0  0  1  0  0  0  0  0  0
  162.5350  205.4140  152.3630 C   0  0  0  0  0  2  0  0  0  0  0  0
  161.7880  204.1550  151.9600 C   0  0  0  0  0  1  0  0  0  0  0  0
  160.4060  212.1100  153.5440 C   0  0  0  0  0  2  0  0  0  0  0  0
  159.0590  212.2710  154.2260 C   0  0  0  0  0  2  0  0  0  0  0  0
  159.2150  213.0980  155.4070 N   0  0  0  0  0  1  0  0  0  0  0  0
  160.9700  208.7190  148.3780 N   0  0  0  0  0  2  0  0  0  0  0  0
  161.1230  205.3200  148.3280 N   0  0  0  0  0  0  0  0  0  0  0  0
  163.0820  206.4070  145.5250 F   0  0  0  0  0  0  0  0  0  0  0  0
  161.3580  205.4700  146.8880 C   0  0  0  0  0  2  0  0  0  0  0  0
  162.8940  207.3570  147.6970 C   0  0  0  0  0  2  0  0  0  0  0  0
  162.1660  206.7270  146.5110 C   0  0  1  0  0  3  0  0  0  0  0  0
  161.1610  206.4590  149.2120 C   0  0  0  0  0  0  0  0  0  0  0  0
  161.9090  207.6910  148.8170 C   0  0  2  0  0  3  0  0  0  0  0  0
  160.4950  206.4580  150.2790 O   0  0  0  0  0  0  0  0  0  0  0  0
  161.3380  202.8330  148.3770 C   0  0  0  0  0  0  0  0  0  0  0  0
  162.1500  202.8200  147.4130 O   0  0  0  0  0  0  0  0  0  0  0  0
  160.7180  204.0570  148.7880 N   0  0  0  0  0  2  0  0  0  0  0  0
  160.9640  201.5400  149.0240 C   0  0  1  0  0  3  0  0  0  0  0  0
  159.5630  201.5900  149.6180 C   0  0  0  0  0  1  0  0  0  0  0  0
  161.1580  200.3450  148.0900 C   0  0  0  0  0  2  0  0  0  0  0  0
  161.0310  200.7130  146.6200 C   0  0  0  0  0  1  0  0  0  0  0  0
  1 48  1  6  0  0  0
  1 31  1  0  0  0  0
  2  1  1  0  0  0  0
  3  2  1  0  0  0  0
  4  3  1  0  0  0  0
  5  3  2  0  0  0  0
  6 10  1  6  0  0  0
  6  4  1  0  0  0  0
  7  8  2  0  0  0  0
  8  9  1  0  0  0  0
  8  6  1  0  0  0  0
 11 12  2  0  0  0  0
 12 10  1  0  0  0  0
 13 14  1  0  0  0  0
 14 11  1  0  0  0  0
 15 14  2  0  0  0  0
 16 22  1  0  0  0  0
 16 20  1  0  0  0  0
 17 18  1  0  0  0  0
 18 20  1  0  0  0  0
 18 13  1  1  0  0  0
 19 21  1  0  0  0  0
 19 17  1  0  0  0  0
 21 16  1  0  0  0  0
 22 23  1  6  0  0  0
 25 24  1  6  0  0  0
 25 22  1  0  0  0  0
 25 26  1  0  0  0  0
 26 27  1  0  0  0  0
 28 27  1  0  0  0  0
 30 33  1  0  0  0  0
 31 29  1  0  0  0  0
 31 30  2  0  0  0  0
 32 37  1  0  0  0  0
 33 38  1  0  0  0  0
 33 32  2  0  0  0  0
 34 36  1  0  0  0  0
 35 34  2  0  0  0  0
 37 35  2  0  0  0  0
 39 38  1  0  0  0  0
 39 41  1  0  0  0  0
 40 39  2  0  0  0  0
 41 42  1  6  0  0  0
 43 41  1  0  0  0  0
 44 43  1  0  0  0  0
 45 32  1  0  0  0  0
 45 46  1  0  0  0  0
 46 47  1  0  0  0  0
 49 59  1  0  0  0  0
 49 54  1  0  0  0  0
 51 49  1  0  0  0  0
 52 55  1  0  0  0  0
 53 50  1  6  0  0  0
 53 51  1  0  0  0  0
 53 52  1  0  0  0  0
 54 56  2  0  0  0  0
 55 48  1  6  0  0  0
 55 54  1  0  0  0  0
 57 59  1  0  0  0  0
 57 60  1  0  0  0  0
 58 57  2  0  0  0  0
 60 61  1  6  0  0  0
 62 60  1  0  0  0  0
 63 62  1  0  0  0  0
M  END
>  <MODEL>
1

>  <REMARK>
 VINA RESULT:      -4.7      0.000      0.000
  Name = 
  24 active torsions:
  status: ('A' for Active; 'I' for Inactive)
    1  A    between atoms: N_2  and  C_57
    2  A    between atoms: C_4  and  O_42
    3  A    between atoms: C_5  and  C_32
    4  A    between atoms: C_6  and  N_20
    5  A    between atoms: C_6  and  C_30
    6  A    between atoms: N_7  and  N_58
    7  A    between atoms: N_8  and  C_38
    8  A    between atoms: C_9  and  C_32
    9  A    between atoms: C_9  and  C_63
   10  A    between atoms: C_10  and  C_34
   11  A    between atoms: C_10  and  C_47
   12  A    between atoms: C_11  and  C_18
   13  A    between atoms: C_13  and  C_16
   14  A    between atoms: C_15  and  C_23
   15  A    between atoms: C_18  and  N_31
   16  A    between atoms: C_18  and  N_40
   17  A    between atoms: C_23  and  C_43
   18  A    between atoms: N_25  and  C_60
   19  A    between atoms: C_30  and  O_42
   20  A    between atoms: C_36  and  N_37
   21  A    between atoms: N_37  and  C_57
   22  A    between atoms: N_40  and  N_46
   23  A    between atoms: C_44  and  C_60
   24  A    between atoms: C_57  and  C_61
                            x       y       z     vdW  Elec       q    Type
                         _______ _______ _______ _____ _____    ______ ____

>  <TORSDO>
F 24

$$$$
=
 OpenBabel11042421463D

 63 64  0  0  1  0  0  0  0  0999 V2000
  161.5800  208.6120  148.8740 C   0  0  2  0  0  3  0  0  0  0  0  0
  160.8840  209.4800  147.9300 N   0  0  0  0  0  2  0  0  0  0  0  0
  161.1910  210.8700  147.8080 C   0  0  0  0  0  0  0  0  0  0  0  0
  162.0550  211.5040  148.7560 N   0  0  0  0  0  2  0  0  0  0  0  0
  160.6840  211.5310  146.8650 O   0  0  0  0  0  0  0  0  0  0  0  0
  162.3760  212.9200  148.7010 C   0  0  2  0  0  3  0  0  0  0  0  0
  160.7870  214.4530  147.4470 N   0  0  0  0  0  2  0  0  0  0  0  0
  161.1140  213.7220  148.6260 C   0  0  0  0  0  0  0  0  0  0  0  0
  160.3370  213.7870  149.6540 N   0  0  0  0  0  1  0  0  0  0  0  0
  163.2260  213.1730  147.5450 N   0  0  0  0  0  2  0  0  0  0  0  0
  162.9660  212.9120  145.2450 C   0  0  0  0  0  3  0  0  0  0  0  0
  162.6940  213.5780  146.3170 N   0  0  0  0  0  0  0  0  0  0  0  0
  161.0670  212.7680  143.6130 N   0  0  0  0  0  2  0  0  0  0  0  0
  162.3620  213.2700  143.9630 C   0  0  0  0  0  0  0  0  0  0  0  0
  163.0180  213.9640  143.1450 O   0  0  0  0  0  0  0  0  0  0  0  0
  159.8750  211.9560  140.1830 N   0  0  0  0  0  0  0  0  0  0  0  0
  159.0520  213.5480  142.4720 C   0  0  0  0  0  2  0  0  0  0  0  0
  160.4730  213.0110  142.3090 C   0  0  2  0  0  3  0  0  0  0  0  0
  158.3650  213.6580  141.1110 C   0  0  0  0  0  2  0  0  0  0  0  0
  160.4280  211.7060  141.5190 C   0  0  0  0  0  2  0  0  0  0  0  0
  158.4640  212.3200  140.3730 C   0  0  0  0  0  2  0  0  0  0  0  0
  159.9440  210.7110  139.3990 C   0  0  1  0  0  3  0  0  0  0  0  0
  158.8990  210.7130  138.2810 C   0  0  0  0  0  1  0  0  0  0  0  0
  162.4230  210.7460  139.8530 C   0  0  0  0  0  1  0  0  0  0  0  0
  161.3510  210.4910  138.8070 C   0  0  1  0  0  3  0  0  0  0  0  0
  161.4880  209.2000  138.2820 O   0  0  0  0  0  0  0  0  0  0  0  0
  161.2380  208.3410  139.3550 C   0  0  0  0  0  2  0  0  0  0  0  0
  162.3840  208.2320  140.1460 O   0  0  0  0  0  1  0  0  0  0  0  0
  160.2090  206.5460  148.6750 O   0  0  0  0  0  1  0  0  0  0  0  0
  162.4660  206.5190  147.9240 C   0  0  0  0  0  3  0  0  0  0  0  0
  161.4320  207.1760  148.4590 C   0  0  0  0  0  0  0  0  0  0  0  0
  162.5020  204.7170  146.2610 C   0  0  0  0  0  0  0  0  0  0  0  0
  162.4780  205.0870  147.5600 C   0  0  0  0  0  0  0  0  0  0  0  0
  160.2430  201.9130  145.7890 C   0  0  0  0  0  3  0  0  0  0  0  0
  161.3500  202.5980  145.8460 C   0  0  0  0  0  0  0  0  0  0  0  0
  159.4580  201.8760  144.5250 C   0  0  0  0  0  1  0  0  0  0  0  0
  162.4620  203.2840  145.8990 C   0  0  0  0  0  3  0  0  0  0  0  0
  162.5180  204.1000  148.6030 N   0  0  0  0  0  2  0  0  0  0  0  0
  161.3380  203.5060  149.1550 C   0  0  0  0  0  0  0  0  0  0  0  0
  160.2040  203.7660  148.6680 O   0  0  0  0  0  0  0  0  0  0  0  0
  161.4700  202.5190  150.2670 C   0  0  1  0  0  3  0  0  0  0  0  0
  161.2310  203.1990  151.6050 C   0  0  0  0  0  1  0  0  0  0  0  0
  160.5020  201.3630  150.0550 C   0  0  0  0  0  2  0  0  0  0  0  0
  161.0330  200.4070  149.0010 C   0  0  0  0  0  1  0  0  0  0  0  0
  162.5010  205.7520  145.1670 C   0  0  0  0  0  2  0  0  0  0  0  0
  161.0830  206.0100  144.6880 C   0  0  0  0  0  2  0  0  0  0  0  0
  160.7870  205.1330  143.5710 N   0  0  0  0  0  1  0  0  0  0  0  0
  161.0500  208.8250  150.2150 N   0  0  0  0  0  2  0  0  0  0  0  0
  161.4890  209.2670  153.5600 N   0  0  0  0  0  0  0  0  0  0  0  0
  161.5110  205.7150  153.0540 F   0  0  0  0  0  0  0  0  0  0  0  0
  160.8960  207.9320  153.6940 C   0  0  0  0  0  2  0  0  0  0  0  0
  162.4290  207.4400  151.6990 C   0  0  0  0  0  2  0  0  0  0  0  0
  161.2440  206.9720  152.5410 C   0  0  1  0  0  3  0  0  0  0  0  0
  161.8830  209.7820  152.2710 C   0  0  0  0  0  0  0  0  0  0  0  0
  162.1740  208.8420  151.1460 C   0  0  2  0  0  3  0  0  0  0  0  0
  161.9000  211.0210  152.0590 O   0  0  0  0  0  0  0  0  0  0  0  0
  160.3670  210.7300  155.2430 C   0  0  0  0  0  0  0  0  0  0  0  0
  159.2940  210.7740  154.5840 O   0  0  0  0  0  0  0  0  0  0  0  0
  161.5230  210.0770  154.7070 N   0  0  0  0  0  2  0  0  0  0  0  0
  160.4420  211.4460  156.5520 C   0  0  1  0  0  3  0  0  0  0  0  0
  161.8160  211.3100  157.1930 C   0  0  0  0  0  1  0  0  0  0  0  0
  159.9920  212.9040  156.4430 C   0  0  0  0  0  2  0  0  0  0  0  0
  159.5040  213.2720  155.0510 C   0  0  0  0  0  1  0  0  0  0  0  0
  1  2  1  6  0  0  0
  1 48  1  0  0  0  0
  3  2  1  0  0  0  0
  3  4  1  0  0  0  0
  5  3  2  0  0  0  0
  6 10  1  6  0  0  0
  6  4  1  0  0  0  0
  7  8  2  0  0  0  0
  8  6  1  0  0  0  0
  8  9  1  0  0  0  0
 11 12  2  0  0  0  0
 12 10  1  0  0  0  0
 13 14  1  0  0  0  0
 14 11  1  0  0  0  0
 15 14  2  0  0  0  0
 16 21  1  0  0  0  0
 16 20  1  0  0  0  0
 18 17  1  0  0  0  0
 18 13  1  1  0  0  0
 19 17  1  0  0  0  0
 20 18  1  0  0  0  0
 21 19  1  0  0  0  0
 22 23  1  6  0  0  0
 22 16  1  0  0  0  0
 25 22  1  0  0  0  0
 25 24  1  1  0  0  0
 26 25  1  0  0  0  0
 26 27  1  0  0  0  0
 27 28  1  0  0  0  0
 30 31  2  0  0  0  0
 31 29  1  0  0  0  0
 31  1  1  0  0  0  0
 32 33  2  0  0  0  0
 33 30  1  0  0  0  0
 33 38  1  0  0  0  0
 34 35  2  0  0  0  0
 35 37  2  0  0  0  0
 36 34  1  0  0  0  0
 37 32  1  0  0  0  0
 38 39  1  0  0  0  0
 39 41  1  0  0  0  0
 40 39  2  0  0  0  0
 41 42  1  1  0  0  0
 43 41  1  0  0  0  0
 44 43  1  0  0  0  0
 45 32  1  0  0  0  0
 46 45  1  0  0  0  0
 47 46  1  0  0  0  0
 49 51  1  0  0  0  0
 49 59  1  0  0  0  0
 52 53  1  0  0  0  0
 53 50  1  1  0  0  0
 53 51  1  0  0  0  0
 54 49  1  0  0  0  0
 55 48  1  6  0  0  0
 55 52  1  0  0  0  0
 55 54  1  0  0  0  0
 56 54  2  0  0  0  0
 57 60  1  0  0  0  0
 58 57  2  0  0  0  0
 59 57  1  0  0  0  0
 60 61  1  6  0  0  0
 62 60  1  0  0  0  0
 63 62  1  0  0  0  0
M  END
>  <MODEL>
2

>  <REMARK>
 VINA RESULT:      -4.6      2.140      6.935
  Name = 
  24 active torsions:
  status: ('A' for Active; 'I' for Inactive)
    1  A    between atoms: N_2  and  C_57
    2  A    between atoms: C_4  and  O_42
    3  A    between atoms: C_5  and  C_32
    4  A    between atoms: C_6  and  N_20
    5  A    between atoms: C_6  and  C_30
    6  A    between atoms: N_7  and  N_58
    7  A    between atoms: N_8  and  C_38
    8  A    between atoms: C_9  and  C_32
    9  A    between atoms: C_9  and  C_63
   10  A    between atoms: C_10  and  C_34
   11  A    between atoms: C_10  and  C_47
   12  A    between atoms: C_11  and  C_18
   13  A    between atoms: C_13  and  C_16
   14  A    between atoms: C_15  and  C_23
   15  A    between atoms: C_18  and  N_31
   16  A    between atoms: C_18  and  N_40
   17  A    between atoms: C_23  and  C_43
   18  A    between atoms: N_25  and  C_60
   19  A    between atoms: C_30  and  O_42
   20  A    between atoms: C_36  and  N_37
   21  A    between atoms: N_37  and  C_57
   22  A    between atoms: N_40  and  N_46
   23  A    between atoms: C_44  and  C_60
   24  A    between atoms: C_57  and  C_61
                            x       y       z     vdW  Elec       q    Type
                         _______ _______ _______ _____ _____    ______ ____

>  <TORSDO>
F 24

$$$$
=
 OpenBabel11042421463D

 63 64  0  0  1  0  0  0  0  0999 V2000
  161.0230  209.3810  150.2030 C   0  0  2  0  0  3  0  0  0  0  0  0
  162.1610  209.7860  149.3830 N   0  0  0  0  0  2  0  0  0  0  0  0
  162.3180  211.1250  148.9110 C   0  0  0  0  0  0  0  0  0  0  0  0
  161.2540  212.0710  149.0580 N   0  0  0  0  0  2  0  0  0  0  0  0
  163.3960  211.4590  148.3570 O   0  0  0  0  0  0  0  0  0  0  0  0
  161.3440  213.4360  148.5690 C   0  0  2  0  0  3  0  0  0  0  0  0
  158.8900  214.0480  148.7980 N   0  0  0  0  0  1  0  0  0  0  0  0
  160.0340  213.8460  147.9720 C   0  0  0  0  0  0  0  0  0  0  0  0
  159.9280  213.9760  146.6920 N   0  0  0  0  0  2  0  0  0  0  0  0
  162.4160  213.5220  147.5870 N   0  0  0  0  0  2  0  0  0  0  0  0
  162.9140  213.2910  145.3240 C   0  0  0  0  0  3  0  0  0  0  0  0
  162.1590  213.7970  146.2400 N   0  0  0  0  0  0  0  0  0  0  0  0
  161.5240  212.8160  143.2900 N   0  0  0  0  0  2  0  0  0  0  0  0
  162.6200  213.5000  143.9060 C   0  0  0  0  0  0  0  0  0  0  0  0
  163.3810  214.2320  143.2220 O   0  0  0  0  0  0  0  0  0  0  0  0
  160.1630  211.8000  139.9800 N   0  0  0  0  0  0  0  0  0  0  0  0
  160.5270  214.2170  141.5530 C   0  0  0  0  0  2  0  0  0  0  0  0
  161.2590  212.9130  141.8640 C   0  0  2  0  0  3  0  0  0  0  0  0
  160.1050  214.2540  140.0840 C   0  0  0  0  0  2  0  0  0  0  0  0
  160.3920  211.7350  141.4280 C   0  0  0  0  0  2  0  0  0  0  0  0
  159.3250  212.9830  139.7390 C   0  0  0  0  0  2  0  0  0  0  0  0
  159.4220  210.5980  139.5600 C   0  0  1  0  0  3  0  0  0  0  0  0
  157.9890  210.9540  139.1570 C   0  0  0  0  0  1  0  0  0  0  0  0
  161.5770  210.3210  138.2840 C   0  0  0  0  0  1  0  0  0  0  0  0
  160.1320  209.8690  138.4020 C   0  0  1  0  0  3  0  0  0  0  0  0
  160.0750  208.4790  138.5610 O   0  0  0  0  0  0  0  0  0  0  0  0
  161.2320  208.1450  139.2690 C   0  0  0  0  0  2  0  0  0  0  0  0
  161.9120  207.1230  138.6030 O   0  0  0  0  0  1  0  0  0  0  0  0
  162.4030  208.6670  152.1470 O   0  0  0  0  0  1  0  0  0  0  0  0
  160.7000  210.2980  152.4660 C   0  0  0  0  0  3  0  0  0  0  0  0
  161.3790  209.4760  151.6590 C   0  0  0  0  0  0  0  0  0  0  0  0
  160.5740  211.5660  154.5610 C   0  0  0  0  0  0  0  0  0  0  0  0
  160.8890  210.4160  153.9270 C   0  0  0  0  0  0  0  0  0  0  0  0
  163.0880  211.0880  157.1380 C   0  0  0  0  0  3  0  0  0  0  0  0
  161.9510  211.3900  156.5770 C   0  0  0  0  0  0  0  0  0  0  0  0
  164.1610  212.1130  157.2410 C   0  0  0  0  0  1  0  0  0  0  0  0
  160.8130  211.6990  156.0140 C   0  0  0  0  0  3  0  0  0  0  0  0
  161.3600  209.2780  154.6660 N   0  0  0  0  0  2  0  0  0  0  0  0
  160.4860  208.4150  155.4020 C   0  0  0  0  0  0  0  0  0  0  0  0
  159.2360  208.5750  155.3490 O   0  0  0  0  0  0  0  0  0  0  0  0
  161.0670  207.2780  156.1770 C   0  0  1  0  0  3  0  0  0  0  0  0
  160.0840  206.8060  157.2360 C   0  0  0  0  0  1  0  0  0  0  0  0
  161.4450  206.1450  155.2320 C   0  0  0  0  0  2  0  0  0  0  0  0
  160.8280  206.3620  153.8620 C   0  0  0  0  0  1  0  0  0  0  0  0
  160.0430  212.7480  153.7930 C   0  0  0  0  0  2  0  0  0  0  0  0
  158.5400  212.6220  153.6080 C   0  0  0  0  0  2  0  0  0  0  0  0
  158.0040  213.8940  153.1610 N   0  0  0  0  0  1  0  0  0  0  0  0
  160.6260  208.0240  149.8500 N   0  0  0  0  0  2  0  0  0  0  0  0
  161.3540  204.9160  148.6720 N   0  0  0  0  0  0  0  0  0  0  0  0
  160.5990  206.8860  145.7700 F   0  0  0  0  0  0  0  0  0  0  0  0
  160.5030  205.2780  147.5330 C   0  0  0  0  0  2  0  0  0  0  0  0
  161.7730  207.4950  147.7460 C   0  0  0  0  0  2  0  0  0  0  0  0
  160.5710  206.7670  147.1480 C   0  0  1  0  0  3  0  0  0  0  0  0
  161.7670  205.9050  149.6380 C   0  0  0  0  0  0  0  0  0  0  0  0
  161.7840  207.3530  149.2680 C   0  0  2  0  0  3  0  0  0  0  0  0
  162.0310  205.5670  150.8210 O   0  0  0  0  0  0  0  0  0  0  0  0
  160.7440  202.6620  149.5570 C   0  0  0  0  0  0  0  0  0  0  0  0
  159.7640  203.1130  150.2080 O   0  0  0  0  0  0  0  0  0  0  0  0
  161.6290  203.5520  148.8670 N   0  0  0  0  0  2  0  0  0  0  0  0
  161.0210  201.1950  149.5900 C   0  0  1  0  0  3  0  0  0  0  0  0
  159.7890  200.3960  149.9920 C   0  0  0  0  0  1  0  0  0  0  0  0
  161.6410  200.6920  148.2850 C   0  0  0  0  0  2  0  0  0  0  0  0
  160.9490  201.2420  147.0480 C   0  0  0  0  0  1  0  0  0  0  0  0
  1  2  1  6  0  0  0
  1 31  1  0  0  0  0
  3  4  1  0  0  0  0
  3  2  1  0  0  0  0
  5  3  2  0  0  0  0
  6 10  1  6  0  0  0
  6  4  1  0  0  0  0
  8  6  1  0  0  0  0
  8  7  1  0  0  0  0
  9  8  2  0  0  0  0
 11 12  2  0  0  0  0
 12 10  1  0  0  0  0
 13 14  1  0  0  0  0
 14 11  1  0  0  0  0
 15 14  2  0  0  0  0
 16 20  1  0  0  0  0
 17 18  1  0  0  0  0
 18 13  1  1  0  0  0
 19 17  1  0  0  0  0
 20 18  1  0  0  0  0
 21 16  1  0  0  0  0
 21 19  1  0  0  0  0
 22 23  1  6  0  0  0
 22 16  1  0  0  0  0
 25 24  1  1  0  0  0
 25 26  1  0  0  0  0
 25 22  1  0  0  0  0
 26 27  1  0  0  0  0
 28 27  1  0  0  0  0
 30 33  1  0  0  0  0
 31 29  1  0  0  0  0
 31 30  2  0  0  0  0
 32 37  1  0  0  0  0
 33 32  2  0  0  0  0
 33 38  1  0  0  0  0
 34 36  1  0  0  0  0
 35 34  2  0  0  0  0
 37 35  2  0  0  0  0
 38 39  1  0  0  0  0
 39 41  1  0  0  0  0
 40 39  2  0  0  0  0
 41 42  1  1  0  0  0
 43 41  1  0  0  0  0
 44 43  1  0  0  0  0
 45 32  1  0  0  0  0
 46 45  1  0  0  0  0
 47 46  1  0  0  0  0
 48  1  1  0  0  0  0
 49 59  1  0  0  0  0
 49 54  1  0  0  0  0
 51 49  1  0  0  0  0
 52 55  1  0  0  0  0
 53 50  1  6  0  0  0
 53 51  1  0  0  0  0
 53 52  1  0  0  0  0
 54 56  2  0  0  0  0
 55 54  1  0  0  0  0
 55 48  1  1  0  0  0
 57 60  1  0  0  0  0
 57 58  2  0  0  0  0
 59 57  1  0  0  0  0
 60 61  1  6  0  0  0
 62 60  1  0  0  0  0
 63 62  1  0  0  0  0
M  END
>  <MODEL>
3

>  <REMARK>
 VINA RESULT:      -4.5      1.667      2.191
  Name = 
  24 active torsions:
  status: ('A' for Active; 'I' for Inactive)
    1  A    between atoms: N_2  and  C_57
    2  A    between atoms: C_4  and  O_42
    3  A    between atoms: C_5  and  C_32
    4  A    between atoms: C_6  and  N_20
    5  A    between atoms: C_6  and  C_30
    6  A    between atoms: N_7  and  N_58
    7  A    between atoms: N_8  and  C_38
    8  A    between atoms: C_9  and  C_32
    9  A    between atoms: C_9  and  C_63
   10  A    between atoms: C_10  and  C_34
   11  A    between atoms: C_10  and  C_47
   12  A    between atoms: C_11  and  C_18
   13  A    between atoms: C_13  and  C_16
   14  A    between atoms: C_15  and  C_23
   15  A    between atoms: C_18  and  N_31
   16  A    between atoms: C_18  and  N_40
   17  A    between atoms: C_23  and  C_43
   18  A    between atoms: N_25  and  C_60
   19  A    between atoms: C_30  and  O_42
   20  A    between atoms: C_36  and  N_37
   21  A    between atoms: N_37  and  C_57
   22  A    between atoms: N_40  and  N_46
   23  A    between atoms: C_44  and  C_60
   24  A    between atoms: C_57  and  C_61
                            x       y       z     vdW  Elec       q    Type
                         _______ _______ _______ _____ _____    ______ ____

>  <TORSDO>
F 24

$$$$
=
 OpenBabel11042421463D

 63 64  0  0  1  0  0  0  0  0999 V2000
  161.1430  208.3680  151.7870 C   0  0  2  0  0  3  0  0  0  0  0  0
  162.3360  209.0940  151.3640 N   0  0  0  0  0  2  0  0  0  0  0  0
  162.2820  210.4540  150.9300 C   0  0  0  0  0  0  0  0  0  0  0  0
  161.0210  211.0890  150.7010 N   0  0  0  0  0  2  0  0  0  0  0  0
  163.3560  211.0820  150.7410 O   0  0  0  0  0  0  0  0  0  0  0  0
  160.9050  212.4590  150.2290 C   0  0  2  0  0  3  0  0  0  0  0  0
  158.9910  212.3440  148.5630 N   0  0  0  0  0  2  0  0  0  0  0  0
  159.4870  212.7410  149.8400 C   0  0  0  0  0  0  0  0  0  0  0  0
  158.7180  213.3870  150.6510 N   0  0  0  0  0  1  0  0  0  0  0  0
  161.8050  212.6530  149.1000 N   0  0  0  0  0  2  0  0  0  0  0  0
  161.2300  212.5600  146.8460 C   0  0  0  0  0  3  0  0  0  0  0  0
  161.3790  213.2640  147.9170 N   0  0  0  0  0  0  0  0  0  0  0  0
  160.6820  212.4020  144.4030 N   0  0  0  0  0  2  0  0  0  0  0  0
  160.7130  213.1600  145.6170 C   0  0  0  0  0  0  0  0  0  0  0  0
  160.3600  214.3680  145.6230 O   0  0  0  0  0  0  0  0  0  0  0  0
  160.0850  212.5650  140.7340 N   0  0  0  0  0  0  0  0  0  0  0  0
  158.8100  213.4160  143.2040 C   0  0  0  0  0  2  0  0  0  0  0  0
  160.2750  212.9880  143.1370 C   0  0  2  0  0  3  0  0  0  0  0  0
  158.3300  213.8880  141.8310 C   0  0  0  0  0  2  0  0  0  0  0  0
  160.4480  211.9610  142.0220 C   0  0  0  0  0  2  0  0  0  0  0  0
  158.6380  212.8190  140.7800 C   0  0  0  0  0  2  0  0  0  0  0  0
  160.3650  211.5970  139.6590 C   0  0  1  0  0  3  0  0  0  0  0  0
  159.2330  211.5860  138.6280 C   0  0  0  0  0  1  0  0  0  0  0  0
  161.5270  212.0090  137.4620 C   0  0  0  0  0  1  0  0  0  0  0  0
  161.7090  211.8920  138.9660 C   0  0  1  0  0  3  0  0  0  0  0  0
  162.3010  213.0560  139.4710 O   0  0  0  0  0  0  0  0  0  0  0  0
  163.6020  213.0550  138.9590 C   0  0  0  0  0  2  0  0  0  0  0  0
  164.2180  214.2760  139.2400 O   0  0  0  0  0  1  0  0  0  0  0  0
  160.5670  207.9090  154.1630 O   0  0  0  0  0  1  0  0  0  0  0  0
  160.4200  210.1370  153.3410 C   0  0  0  0  0  3  0  0  0  0  0  0
  160.7030  208.8450  153.1410 C   0  0  0  0  0  0  0  0  0  0  0  0
  160.7410  211.1620  155.5450 C   0  0  0  0  0  0  0  0  0  0  0  0
  159.8920  210.7160  154.5940 C   0  0  0  0  0  0  0  0  0  0  0  0
  159.1870  214.0840  157.0410 C   0  0  0  0  0  3  0  0  0  0  0  0
  159.7010  212.8920  156.9300 C   0  0  0  0  0  0  0  0  0  0  0  0
  157.7390  214.2960  156.7760 C   0  0  0  0  0  1  0  0  0  0  0  0
  160.2110  211.6930  156.8190 C   0  0  0  0  0  3  0  0  0  0  0  0
  158.4710  210.8460  154.7610 N   0  0  0  0  0  2  0  0  0  0  0  0
  157.6830  211.7710  154.0040 C   0  0  0  0  0  0  0  0  0  0  0  0
  158.2070  212.4510  153.0810 O   0  0  0  0  0  0  0  0  0  0  0  0
  156.2170  211.8700  154.2730 C   0  0  1  0  0  3  0  0  0  0  0  0
  155.8830  211.2280  155.6090 C   0  0  0  0  0  1  0  0  0  0  0  0
  155.7790  213.3280  154.2370 C   0  0  0  0  0  2  0  0  0  0  0  0
  154.9420  213.6060  153.0010 C   0  0  0  0  0  1  0  0  0  0  0  0
  162.2320  211.0620  155.3540 C   0  0  0  0  0  2  0  0  0  0  0  0
  162.8670  210.3490  156.5350 C   0  0  0  0  0  2  0  0  0  0  0  0
  164.1210  210.9970  156.8690 N   0  0  0  0  0  1  0  0  0  0  0  0
  161.4220  206.9370  151.8030 N   0  0  0  0  0  2  0  0  0  0  0  0
  161.4300  204.6770  149.2600 N   0  0  0  0  0  0  0  0  0  0  0  0
  160.7160  202.7820  152.2210 F   0  0  0  0  0  0  0  0  0  0  0  0
  161.7850  203.6960  150.2910 C   0  0  0  0  0  2  0  0  0  0  0  0
  159.9840  204.9590  151.6080 C   0  0  0  0  0  2  0  0  0  0  0  0
  161.1490  203.9730  151.6660 C   0  0  1  0  0  3  0  0  0  0  0  0
  160.9990  206.0080  149.6140 C   0  0  0  0  0  0  0  0  0  0  0  0
  160.4250  206.2750  150.9680 C   0  0  2  0  0  3  0  0  0  0  0  0
  161.1820  206.9670  148.8210 O   0  0  0  0  0  0  0  0  0  0  0  0
  161.3210  203.0430  147.3750 C   0  0  0  0  0  0  0  0  0  0  0  0
  160.9770  202.0960  148.1310 O   0  0  0  0  0  0  0  0  0  0  0  0
  161.6650  204.3220  147.9220 N   0  0  0  0  0  2  0  0  0  0  0  0
  161.4520  202.7870  145.9090 C   0  0  1  0  0  3  0  0  0  0  0  0
  160.1550  202.2620  145.3090 C   0  0  0  0  0  1  0  0  0  0  0  0
  161.9930  204.0020  145.1540 C   0  0  0  0  0  2  0  0  0  0  0  0
  163.1480  204.6820  145.8730 C   0  0  0  0  0  1  0  0  0  0  0  0
  1  2  1  1  0  0  0
  1 48  1  0  0  0  0
  1 31  1  0  0  0  0
  3  2  1  0  0  0  0
  4  3  1  0  0  0  0
  5  3  2  0  0  0  0
  6 10  1  6  0  0  0
  6  4  1  0  0  0  0
  7  8  2  0  0  0  0
  8  6  1  0  0  0  0
  8  9  1  0  0  0  0
 11 12  2  0  0  0  0
 12 10  1  0  0  0  0
 13 14  1  0  0  0  0
 14 15  2  0  0  0  0
 14 11  1  0  0  0  0
 16 21  1  0  0  0  0
 16 20  1  0  0  0  0
 18 17  1  0  0  0  0
 18 13  1  1  0  0  0
 19 17  1  0  0  0  0
 20 18  1  0  0  0  0
 21 19  1  0  0  0  0
 22 23  1  6  0  0  0
 22 16  1  0  0  0  0
 25 24  1  6  0  0  0
 25 26  1  0  0  0  0
 25 22  1  0  0  0  0
 27 28  1  0  0  0  0
 27 26  1  0  0  0  0
 30 33  1  0  0  0  0
 31 30  2  0  0  0  0
 31 29  1  0  0  0  0
 32 37  1  0  0  0  0
 33 38  1  0  0  0  0
 33 32  2  0  0  0  0
 35 34  2  0  0  0  0
 36 34  1  0  0  0  0
 37 35  2  0  0  0  0
 39 41  1  0  0  0  0
 39 38  1  0  0  0  0
 40 39  2  0  0  0  0
 41 42  1  1  0  0  0
 43 41  1  0  0  0  0
 44 43  1  0  0  0  0
 45 32  1  0  0  0  0
 45 46  1  0  0  0  0
 46 47  1  0  0  0  0
 49 54  1  0  0  0  0
 49 51  1  0  0  0  0
 51 53  1  0  0  0  0
 52 53  1  0  0  0  0
 53 50  1  6  0  0  0
 54 55  1  0  0  0  0
 55 52  1  0  0  0  0
 55 48  1  1  0  0  0
 56 54  2  0  0  0  0
 57 59  1  0  0  0  0
 57 58  2  0  0  0  0
 59 49  1  0  0  0  0
 60 61  1  6  0  0  0
 60 57  1  0  0  0  0
 62 63  1  0  0  0  0
 62 60  1  0  0  0  0
M  END
>  <MODEL>
4

>  <REMARK>
 VINA RESULT:      -4.4      2.606      4.653
  Name = 
  24 active torsions:
  status: ('A' for Active; 'I' for Inactive)
    1  A    between atoms: N_2  and  C_57
    2  A    between atoms: C_4  and  O_42
    3  A    between atoms: C_5  and  C_32
    4  A    between atoms: C_6  and  N_20
    5  A    between atoms: C_6  and  C_30
    6  A    between atoms: N_7  and  N_58
    7  A    between atoms: N_8  and  C_38
    8  A    between atoms: C_9  and  C_32
    9  A    between atoms: C_9  and  C_63
   10  A    between atoms: C_10  and  C_34
   11  A    between atoms: C_10  and  C_47
   12  A    between atoms: C_11  and  C_18
   13  A    between atoms: C_13  and  C_16
   14  A    between atoms: C_15  and  C_23
   15  A    between atoms: C_18  and  N_31
   16  A    between atoms: C_18  and  N_40
   17  A    between atoms: C_23  and  C_43
   18  A    between atoms: N_25  and  C_60
   19  A    between atoms: C_30  and  O_42
   20  A    between atoms: C_36  and  N_37
   21  A    between atoms: N_37  and  C_57
   22  A    between atoms: N_40  and  N_46
   23  A    between atoms: C_44  and  C_60
   24  A    between atoms: C_57  and  C_61
                            x       y       z     vdW  Elec       q    Type
                         _______ _______ _______ _____ _____    ______ ____

>  <TORSDO>
F 24

$$$$
=
 OpenBabel11042421463D

 63 64  0  0  1  0  0  0  0  0999 V2000
  162.0500  209.8190  151.2580 C   0  0  2  0  0  3  0  0  0  0  0  0
  160.8980  210.6220  150.8570 N   0  0  0  0  0  2  0  0  0  0  0  0
  160.8980  211.4050  149.6630 C   0  0  0  0  0  0  0  0  0  0  0  0
  162.1070  211.5890  148.9200 N   0  0  0  0  0  2  0  0  0  0  0  0
  159.8250  211.9380  149.2780 O   0  0  0  0  0  0  0  0  0  0  0  0
  162.1730  212.4010  147.7170 C   0  0  2  0  0  3  0  0  0  0  0  0
  163.6610  214.4520  147.5480 N   0  0  0  0  0  2  0  0  0  0  0  0
  162.5010  213.8160  148.0800 C   0  0  0  0  0  0  0  0  0  0  0  0
  161.7510  214.4510  148.9170 N   0  0  0  0  0  1  0  0  0  0  0  0
  160.8980  212.3230  147.0170 N   0  0  0  0  0  2  0  0  0  0  0  0
  160.8040  213.0580  144.8090 C   0  0  0  0  0  3  0  0  0  0  0  0
  160.8280  212.0730  145.6430 N   0  0  0  0  0  0  0  0  0  0  0  0
  161.9240  212.1720  142.7470 N   0  0  0  0  0  2  0  0  0  0  0  0
  160.8090  212.8230  143.3660 C   0  0  0  0  0  0  0  0  0  0  0  0
  159.8580  213.2590  142.6680 O   0  0  0  0  0  0  0  0  0  0  0  0
  160.8100  211.2440  139.3200 N   0  0  0  0  0  0  0  0  0  0  0  0
  162.3050  213.3560  140.6440 C   0  0  0  0  0  2  0  0  0  0  0  0
  162.0190  212.0100  141.3060 C   0  0  2  0  0  3  0  0  0  0  0  0
  162.2500  213.2240  139.1220 C   0  0  0  0  0  2  0  0  0  0  0  0
  160.7020  211.4560  140.7680 C   0  0  0  0  0  2  0  0  0  0  0  0
  160.9280  212.5740  138.7070 C   0  0  0  0  0  2  0  0  0  0  0  0
  159.5730  210.6050  138.8390 C   0  0  1  0  0  3  0  0  0  0  0  0
  158.7160  211.6010  138.0540 C   0  0  0  0  0  1  0  0  0  0  0  0
  158.6110  208.8680  137.2880 C   0  0  0  0  0  1  0  0  0  0  0  0
  159.8730  209.3670  137.9720 C   0  0  1  0  0  3  0  0  0  0  0  0
  160.8620  209.6370  137.0180 O   0  0  0  0  0  0  0  0  0  0  0  0
  161.9510  208.8440  137.3880 C   0  0  0  0  0  2  0  0  0  0  0  0
  161.4950  207.6120  137.8610 O   0  0  0  0  0  1  0  0  0  0  0  0
  162.9530  208.7930  149.1790 O   0  0  0  0  0  1  0  0  0  0  0  0
  161.5890  207.4840  150.6230 C   0  0  0  0  0  3  0  0  0  0  0  0
  162.1990  208.6400  150.3390 C   0  0  0  0  0  0  0  0  0  0  0  0
  161.2100  205.0880  150.2660 C   0  0  0  0  0  0  0  0  0  0  0  0
  161.5800  206.2840  149.7600 C   0  0  0  0  0  0  0  0  0  0  0  0
  159.8210  201.7520  149.9030 C   0  0  0  0  0  3  0  0  0  0  0  0
  160.5370  202.8140  149.6610 C   0  0  0  0  0  0  0  0  0  0  0  0
  158.4440  201.6440  149.3510 C   0  0  0  0  0  1  0  0  0  0  0  0
  161.2520  203.8800  149.4140 C   0  0  0  0  0  3  0  0  0  0  0  0
  161.9180  206.4190  148.3710 N   0  0  0  0  0  2  0  0  0  0  0  0
  160.9470  206.3240  147.3230 C   0  0  0  0  0  0  0  0  0  0  0  0
  159.7210  206.2090  147.5970 O   0  0  0  0  0  0  0  0  0  0  0  0
  161.3930  206.4350  145.9020 C   0  0  1  0  0  3  0  0  0  0  0  0
  162.7230  205.7230  145.7110 C   0  0  0  0  0  1  0  0  0  0  0  0
  160.3260  205.8670  144.9760 C   0  0  0  0  0  2  0  0  0  0  0  0
  160.6990  204.4660  144.5260 C   0  0  0  0  0  1  0  0  0  0  0  0
  160.8170  204.9530  151.7140 C   0  0  0  0  0  2  0  0  0  0  0  0
  160.9560  203.5090  152.1640 C   0  0  0  0  0  2  0  0  0  0  0  0
  162.3630  203.1840  152.3060 N   0  0  0  0  0  1  0  0  0  0  0  0
  161.8870  209.3870  152.6400 N   0  0  0  0  0  2  0  0  0  0  0  0
  159.7620  209.9890  155.2280 N   0  0  0  0  0  0  0  0  0  0  0  0
  163.0170  209.7080  156.7100 F   0  0  0  0  0  0  0  0  0  0  0  0
  160.7580  209.2960  156.0520 C   0  0  0  0  0  2  0  0  0  0  0  0
  162.3750  210.7070  154.6500 C   0  0  0  0  0  2  0  0  0  0  0  0
  162.2130  209.5220  155.6000 C   0  0  1  0  0  3  0  0  0  0  0  0
  160.0550  210.3730  153.8680 C   0  0  0  0  0  0  0  0  0  0  0  0
  161.4730  210.5440  153.4280 C   0  0  2  0  0  3  0  0  0  0  0  0
  159.1290  210.4800  153.0240 O   0  0  0  0  0  0  0  0  0  0  0  0
  157.8160  211.3970  155.9100 C   0  0  0  0  0  0  0  0  0  0  0  0
  158.4590  212.4710  155.7620 O   0  0  0  0  0  0  0  0  0  0  0  0
  158.4700  210.1310  155.7600 N   0  0  0  0  0  2  0  0  0  0  0  0
  156.3860  211.4640  156.3330 C   0  0  1  0  0  3  0  0  0  0  0  0
  155.9470  212.8930  156.6210 C   0  0  0  0  0  1  0  0  0  0  0  0
  155.4550  210.7560  155.3470 C   0  0  0  0  0  2  0  0  0  0  0  0
  154.3310  209.9950  156.0330 C   0  0  0  0  0  1  0  0  0  0  0  0
  1 31  1  6  0  0  0
  1 48  1  0  0  0  0
  2  1  1  0  0  0  0
  3  2  1  0  0  0  0
  4  3  1  0  0  0  0
  5  3  2  0  0  0  0
  6 10  1  1  0  0  0
  6  8  1  0  0  0  0
  6  4  1  0  0  0  0
  7  8  2  0  0  0  0
  8  9  1  0  0  0  0
 11 12  2  0  0  0  0
 12 10  1  0  0  0  0
 13 14  1  0  0  0  0
 14 11  1  0  0  0  0
 15 14  2  0  0  0  0
 16 20  1  0  0  0  0
 17 18  1  0  0  0  0
 18 13  1  1  0  0  0
 19 17  1  0  0  0  0
 20 18  1  0  0  0  0
 21 19  1  0  0  0  0
 21 16  1  0  0  0  0
 22 23  1  6  0  0  0
 22 16  1  0  0  0  0
 25 24  1  6  0  0  0
 25 22  1  0  0  0  0
 26 27  1  0  0  0  0
 26 25  1  0  0  0  0
 27 28  1  0  0  0  0
 29 31  1  0  0  0  0
 31 30  2  0  0  0  0
 32 45  1  0  0  0  0
 33 32  2  0  0  0  0
 33 30  1  0  0  0  0
 35 34  2  0  0  0  0
 36 34  1  0  0  0  0
 37 35  2  0  0  0  0
 37 32  1  0  0  0  0
 38 33  1  0  0  0  0
 39 40  2  0  0  0  0
 39 38  1  0  0  0  0
 41 42  1  1  0  0  0
 41 39  1  0  0  0  0
 43 41  1  0  0  0  0
 44 43  1  0  0  0  0
 45 46  1  0  0  0  0
 46 47  1  0  0  0  0
 49 59  1  0  0  0  0
 49 51  1  0  0  0  0
 52 53  1  0  0  0  0
 53 51  1  0  0  0  0
 53 50  1  1  0  0  0
 54 49  1  0  0  0  0
 55 48  1  1  0  0  0
 55 54  1  0  0  0  0
 55 52  1  0  0  0  0
 56 54  2  0  0  0  0
 57 60  1  0  0  0  0
 58 57  2  0  0  0  0
 59 57  1  0  0  0  0
 60 61  1  6  0  0  0
 62 63  1  0  0  0  0
 62 60  1  0  0  0  0
M  END
>  <MODEL>
5

>  <REMARK>
 VINA RESULT:      -4.1      2.670      6.904
  Name = 
  24 active torsions:
  status: ('A' for Active; 'I' for Inactive)
    1  A    between atoms: N_2  and  C_57
    2  A    between atoms: C_4  and  O_42
    3  A    between atoms: C_5  and  C_32
    4  A    between atoms: C_6  and  N_20
    5  A    between atoms: C_6  and  C_30
    6  A    between atoms: N_7  and  N_58
    7  A    between atoms: N_8  and  C_38
    8  A    between atoms: C_9  and  C_32
    9  A    between atoms: C_9  and  C_63
   10  A    between atoms: C_10  and  C_34
   11  A    between atoms: C_10  and  C_47
   12  A    between atoms: C_11  and  C_18
   13  A    between atoms: C_13  and  C_16
   14  A    between atoms: C_15  and  C_23
   15  A    between atoms: C_18  and  N_31
   16  A    between atoms: C_18  and  N_40
   17  A    between atoms: C_23  and  C_43
   18  A    between atoms: N_25  and  C_60
   19  A    between atoms: C_30  and  O_42
   20  A    between atoms: C_36  and  N_37
   21  A    between atoms: N_37  and  C_57
   22  A    between atoms: N_40  and  N_46
   23  A    between atoms: C_44  and  C_60
   24  A    between atoms: C_57  and  C_61
                            x       y       z     vdW  Elec       q    Type
                         _______ _______ _______ _____ _____    ______ ____

>  <TORSDO>
F 24

$$$$
=
 OpenBabel11042421463D

 63 64  0  0  1  0  0  0  0  0999 V2000
  161.7500  209.6830  151.3570 C   0  0  2  0  0  3  0  0  0  0  0  0
  160.5530  210.3830  150.9010 N   0  0  0  0  0  2  0  0  0  0  0  0
  160.5450  211.1830  149.7180 C   0  0  0  0  0  0  0  0  0  0  0  0
  161.7710  211.4920  149.0480 N   0  0  0  0  0  2  0  0  0  0  0  0
  159.4510  211.6220  149.2790 O   0  0  0  0  0  0  0  0  0  0  0  0
  161.8290  212.3270  147.8600 C   0  0  2  0  0  3  0  0  0  0  0  0
  163.3300  214.3510  147.5450 N   0  0  0  0  0  2  0  0  0  0  0  0
  162.2600  213.7100  148.2360 C   0  0  0  0  0  0  0  0  0  0  0  0
  161.6870  214.3120  149.2240 N   0  0  0  0  0  1  0  0  0  0  0  0
  160.5190  212.3430  147.2230 N   0  0  0  0  0  2  0  0  0  0  0  0
  160.6300  212.9640  144.9820 C   0  0  0  0  0  3  0  0  0  0  0  0
  160.3590  212.0610  145.8630 N   0  0  0  0  0  0  0  0  0  0  0  0
  160.2550  211.3400  143.1070 N   0  0  0  0  0  2  0  0  0  0  0  0
  160.5460  212.6700  143.5520 C   0  0  0  0  0  0  0  0  0  0  0  0
  160.7990  213.5790  142.7200 O   0  0  0  0  0  0  0  0  0  0  0  0
  159.0390  211.2140  139.5930 N   0  0  0  0  0  0  0  0  0  0  0  0
  161.5480  211.4740  141.0380 C   0  0  0  0  0  2  0  0  0  0  0  0
  160.2630  210.9790  141.6990 C   0  0  2  0  0  3  0  0  0  0  0  0
  161.4950  211.2380  139.5280 C   0  0  0  0  0  2  0  0  0  0  0  0
  159.0630  211.6160  141.0040 C   0  0  0  0  0  2  0  0  0  0  0  0
  160.2080  211.8380  138.9570 C   0  0  0  0  0  2  0  0  0  0  0  0
  157.8160  211.7450  138.9670 C   0  0  1  0  0  3  0  0  0  0  0  0
  158.1580  212.8060  137.9180 C   0  0  0  0  0  1  0  0  0  0  0  0
  157.1250  209.3260  139.1040 C   0  0  0  0  0  1  0  0  0  0  0  0
  156.9710  210.6240  138.3300 C   0  0  1  0  0  3  0  0  0  0  0  0
  155.6190  210.9820  138.2560 O   0  0  0  0  0  0  0  0  0  0  0  0
  154.9270  209.9100  138.8270 C   0  0  0  0  0  2  0  0  0  0  0  0
  153.5520  210.1250  138.7120 O   0  0  0  0  0  1  0  0  0  0  0  0
  162.7690  208.6630  149.3300 O   0  0  0  0  0  1  0  0  0  0  0  0
  161.4930  207.2970  150.8020 C   0  0  0  0  0  3  0  0  0  0  0  0
  162.0110  208.4890  150.4840 C   0  0  0  0  0  0  0  0  0  0  0  0
  161.2540  204.8740  150.5080 C   0  0  0  0  0  0  0  0  0  0  0  0
  161.5980  206.0700  149.9840 C   0  0  0  0  0  0  0  0  0  0  0  0
  161.0700  201.2520  150.6970 C   0  0  0  0  0  3  0  0  0  0  0  0
  161.2410  202.4460  150.2030 C   0  0  0  0  0  0  0  0  0  0  0  0
  159.7150  200.6390  150.7020 C   0  0  0  0  0  1  0  0  0  0  0  0
  161.4080  203.6430  149.7050 C   0  0  0  0  0  3  0  0  0  0  0  0
  162.0170  206.1770  148.6140 N   0  0  0  0  0  2  0  0  0  0  0  0
  161.1170  206.0160  147.5130 C   0  0  0  0  0  0  0  0  0  0  0  0
  159.8810  205.8640  147.7140 O   0  0  0  0  0  0  0  0  0  0  0  0
  161.6470  206.1010  146.1190 C   0  0  1  0  0  3  0  0  0  0  0  0
  162.5450  204.9110  145.8240 C   0  0  0  0  0  1  0  0  0  0  0  0
  160.4940  206.1810  145.1280 C   0  0  0  0  0  2  0  0  0  0  0  0
  161.0130  206.1710  143.7010 C   0  0  0  0  0  1  0  0  0  0  0  0
  160.7760  204.7670  151.9330 C   0  0  0  0  0  2  0  0  0  0  0  0
  160.8490  206.1220  152.6150 C   0  0  0  0  0  2  0  0  0  0  0  0
  161.6980  206.0240  153.7870 N   0  0  0  0  0  1  0  0  0  0  0  0
  161.5840  209.2870  152.7490 N   0  0  0  0  0  2  0  0  0  0  0  0
  159.9420  210.3780  155.5220 N   0  0  0  0  0  0  0  0  0  0  0  0
  163.1360  209.2350  156.6900 F   0  0  0  0  0  0  0  0  0  0  0  0
  160.7970  209.4360  156.2530 C   0  0  0  0  0  2  0  0  0  0  0  0
  162.5860  210.4010  154.6920 C   0  0  0  0  0  2  0  0  0  0  0  0
  162.2110  209.2830  155.6620 C   0  0  1  0  0  3  0  0  0  0  0  0
  160.1960  210.6950  154.1380 C   0  0  0  0  0  0  0  0  0  0  0  0
  161.5610  210.4990  153.5620 C   0  0  2  0  0  3  0  0  0  0  0  0
  159.2550  211.0540  153.3850 O   0  0  0  0  0  0  0  0  0  0  0  0
  158.4100  212.2250  156.2130 C   0  0  0  0  0  0  0  0  0  0  0  0
  159.2140  213.1190  155.8370 O   0  0  0  0  0  0  0  0  0  0  0  0
  158.7880  210.8430  156.1740 N   0  0  0  0  0  2  0  0  0  0  0  0
  157.0920  212.6310  156.7850 C   0  0  1  0  0  3  0  0  0  0  0  0
  157.0960  214.0840  157.2390 C   0  0  0  0  0  1  0  0  0  0  0  0
  155.9290  212.3190  155.8410 C   0  0  0  0  0  2  0  0  0  0  0  0
  155.7090  213.3990  154.7930 C   0  0  0  0  0  1  0  0  0  0  0  0
  1 31  1  6  0  0  0
  1 48  1  0  0  0  0
  2  1  1  0  0  0  0
  3  2  1  0  0  0  0
  4  3  1  0  0  0  0
  5  3  2  0  0  0  0
  6 10  1  1  0  0  0
  6  8  1  0  0  0  0
  6  4  1  0  0  0  0
  7  8  2  0  0  0  0
  8  9  1  0  0  0  0
 11 12  2  0  0  0  0
 12 10  1  0  0  0  0
 13 14  1  0  0  0  0
 14 11  1  0  0  0  0
 15 14  2  0  0  0  0
 16 20  1  0  0  0  0
 17 18  1  0  0  0  0
 18 13  1  1  0  0  0
 19 17  1  0  0  0  0
 20 18  1  0  0  0  0
 21 19  1  0  0  0  0
 21 16  1  0  0  0  0
 22 23  1  6  0  0  0
 22 16  1  0  0  0  0
 25 22  1  0  0  0  0
 25 24  1  1  0  0  0
 26 25  1  0  0  0  0
 26 27  1  0  0  0  0
 28 27  1  0  0  0  0
 29 31  1  0  0  0  0
 31 30  2  0  0  0  0
 32 45  1  0  0  0  0
 33 32  2  0  0  0  0
 33 30  1  0  0  0  0
 34 36  1  0  0  0  0
 35 34  2  0  0  0  0
 37 35  2  0  0  0  0
 37 32  1  0  0  0  0
 38 33  1  0  0  0  0
 39 40  2  0  0  0  0
 39 38  1  0  0  0  0
 41 42  1  6  0  0  0
 41 39  1  0  0  0  0
 43 41  1  0  0  0  0
 44 43  1  0  0  0  0
 45 46  1  0  0  0  0
 46 47  1  0  0  0  0
 49 59  1  0  0  0  0
 49 51  1  0  0  0  0
 52 53  1  0  0  0  0
 53 51  1  0  0  0  0
 53 50  1  1  0  0  0
 54 49  1  0  0  0  0
 55 48  1  1  0  0  0
 55 54  1  0  0  0  0
 55 52  1  0  0  0  0
 56 54  2  0  0  0  0
 57 60  1  0  0  0  0
 58 57  2  0  0  0  0
 59 57  1  0  0  0  0
 60 61  1  6  0  0  0
 62 60  1  0  0  0  0
 63 62  1  0  0  0  0
M  END
>  <MODEL>
6

>  <REMARK>
 VINA RESULT:      -2.0      3.023      7.285
  Name = 
  24 active torsions:
  status: ('A' for Active; 'I' for Inactive)
    1  A    between atoms: N_2  and  C_57
    2  A    between atoms: C_4  and  O_42
    3  A    between atoms: C_5  and  C_32
    4  A    between atoms: C_6  and  N_20
    5  A    between atoms: C_6  and  C_30
    6  A    between atoms: N_7  and  N_58
    7  A    between atoms: N_8  and  C_38
    8  A    between atoms: C_9  and  C_32
    9  A    between atoms: C_9  and  C_63
   10  A    between atoms: C_10  and  C_34
   11  A    between atoms: C_10  and  C_47
   12  A    between atoms: C_11  and  C_18
   13  A    between atoms: C_13  and  C_16
   14  A    between atoms: C_15  and  C_23
   15  A    between atoms: C_18  and  N_31
   16  A    between atoms: C_18  and  N_40
   17  A    between atoms: C_23  and  C_43
   18  A    between atoms: N_25  and  C_60
   19  A    between atoms: C_30  and  O_42
   20  A    between atoms: C_36  and  N_37
   21  A    between atoms: N_37  and  C_57
   22  A    between atoms: N_40  and  N_46
   23  A    between atoms: C_44  and  C_60
   24  A    between atoms: C_57  and  C_61
                            x       y       z     vdW  Elec       q    Type
                         _______ _______ _______ _____ _____    ______ ____

>  <TORSDO>
F 24

$$$$
=
 OpenBabel11042421463D

 63 64  0  0  1  0  0  0  0  0999 V2000
  161.6660  207.5420  151.6000 C   0  0  2  0  0  3  0  0  0  0  0  0
  161.0120  206.2500  151.7830 N   0  0  0  0  0  2  0  0  0  0  0  0
  160.8130  205.3400  150.7000 C   0  0  0  0  0  0  0  0  0  0  0  0
  161.0680  205.7530  149.3540 N   0  0  0  0  0  2  0  0  0  0  0  0
  160.4020  204.1760  150.9420 O   0  0  0  0  0  0  0  0  0  0  0  0
  160.8530  204.8820  148.2100 C   0  0  2  0  0  3  0  0  0  0  0  0
  160.1310  202.7140  149.3180 N   0  0  0  0  0  1  0  0  0  0  0  0
  161.1130  203.4610  148.6030 C   0  0  0  0  0  0  0  0  0  0  0  0
  162.2520  202.9200  148.3290 N   0  0  0  0  0  2  0  0  0  0  0  0
  161.7320  205.2940  147.1240 N   0  0  0  0  0  2  0  0  0  0  0  0
  161.9680  205.8780  144.8830 C   0  0  0  0  0  3  0  0  0  0  0  0
  161.3370  205.2050  145.7860 N   0  0  0  0  0  0  0  0  0  0  0  0
  162.2720  206.5640  142.4890 N   0  0  0  0  0  2  0  0  0  0  0  0
  161.6250  205.7440  143.4680 C   0  0  0  0  0  0  0  0  0  0  0  0
  160.7080  204.9510  143.1290 O   0  0  0  0  0  0  0  0  0  0  0  0
  161.0840  207.9200  139.2340 N   0  0  0  0  0  0  0  0  0  0  0  0
  163.0510  206.0290  140.2360 C   0  0  0  0  0  2  0  0  0  0  0  0
  161.8900  206.5390  141.0870 C   0  0  2  0  0  3  0  0  0  0  0  0
  162.7140  206.1480  138.7490 C   0  0  0  0  0  2  0  0  0  0  0  0
  161.5180  207.9480  140.6360 C   0  0  0  0  0  2  0  0  0  0  0  0
  162.2670  207.5770  138.4330 C   0  0  0  0  0  2  0  0  0  0  0  0
  160.6230  209.2650  138.8520 C   0  0  1  0  0  3  0  0  0  0  0  0
  159.1040  209.2860  138.6560 C   0  0  0  0  0  1  0  0  0  0  0  0
  162.1580  211.1980  139.3580 C   0  0  0  0  0  1  0  0  0  0  0  0
  161.0360  210.3250  139.8920 C   0  0  1  0  0  3  0  0  0  0  0  0
  159.9480  211.1200  140.2730 O   0  0  0  0  0  0  0  0  0  0  0  0
  159.9010  212.1490  139.3290 C   0  0  0  0  0  2  0  0  0  0  0  0
  159.1470  213.2120  139.8310 O   0  0  0  0  0  1  0  0  0  0  0  0
  162.4580  208.5200  153.7460 O   0  0  0  0  0  1  0  0  0  0  0  0
  160.2640  209.0270  152.9770 C   0  0  0  0  0  3  0  0  0  0  0  0
  161.4370  208.4080  152.8050 C   0  0  0  0  0  0  0  0  0  0  0  0
  159.7270  209.2330  155.3610 C   0  0  0  0  0  0  0  0  0  0  0  0
  159.8810  209.8290  154.1590 C   0  0  0  0  0  0  0  0  0  0  0  0
  160.4790  212.2380  157.2570 C   0  0  0  0  0  3  0  0  0  0  0  0
  159.8890  211.1340  156.8950 C   0  0  0  0  0  0  0  0  0  0  0  0
  160.0430  213.5370  156.6760 C   0  0  0  0  0  1  0  0  0  0  0  0
  159.2940  210.0290  156.5300 C   0  0  0  0  0  3  0  0  0  0  0  0
  159.7310  211.2500  154.0200 N   0  0  0  0  0  2  0  0  0  0  0  0
  158.6100  211.8510  153.3610 C   0  0  0  0  0  0  0  0  0  0  0  0
  157.6520  211.1400  152.9540 O   0  0  0  0  0  0  0  0  0  0  0  0
  158.5560  213.3370  153.2250 C   0  0  1  0  0  3  0  0  0  0  0  0
  158.8070  213.7440  151.7830 C   0  0  0  0  0  1  0  0  0  0  0  0
  157.2110  213.8560  153.7180 C   0  0  0  0  0  2  0  0  0  0  0  0
  157.0270  213.5470  155.1930 C   0  0  0  0  0  1  0  0  0  0  0  0
  159.9240  207.7480  155.5160 C   0  0  0  0  0  2  0  0  0  0  0  0
  160.5750  207.4400  156.8530 C   0  0  0  0  0  2  0  0  0  0  0  0
  161.8620  208.1050  156.9250 N   0  0  0  0  0  1  0  0  0  0  0  0
  161.1570  208.1810  150.3930 N   0  0  0  0  0  2  0  0  0  0  0  0
  161.3570  210.9290  148.3980 N   0  0  0  0  0  0  0  0  0  0  0  0
  161.6240  212.1650  151.7550 F   0  0  0  0  0  0  0  0  0  0  0  0
  160.8370  211.6620  149.5570 C   0  0  0  0  0  2  0  0  0  0  0  0
  162.5200  210.1800  150.7990 C   0  0  0  0  0  2  0  0  0  0  0  0
  161.3150  211.1110  150.9130 C   0  0  1  0  0  3  0  0  0  0  0  0
  161.8000  209.5610  148.5180 C   0  0  0  0  0  0  0  0  0  0  0  0
  162.2170  209.0230  149.8480 C   0  0  2  0  0  3  0  0  0  0  0  0
  161.7550  208.7890  147.5260 O   0  0  0  0  0  0  0  0  0  0  0  0
  162.1400  212.6180  146.7330 C   0  0  0  0  0  0  0  0  0  0  0  0
  162.8980  213.1820  147.5670 O   0  0  0  0  0  0  0  0  0  0  0  0
  161.2700  211.5560  147.1440 N   0  0  0  0  0  2  0  0  0  0  0  0
  162.0970  213.1310  145.3310 C   0  0  1  0  0  3  0  0  0  0  0  0
  163.4930  213.3130  144.7520 C   0  0  0  0  0  1  0  0  0  0  0  0
  161.1990  212.2820  144.4300 C   0  0  0  0  0  2  0  0  0  0  0  0
  161.0620  212.8490  143.0250 C   0  0  0  0  0  1  0  0  0  0  0  0
  1 48  1  6  0  0  0
  1  2  1  0  0  0  0
  1 31  1  0  0  0  0
  3  5  2  0  0  0  0
  3  2  1  0  0  0  0
  4  3  1  0  0  0  0
  6 10  1  6  0  0  0
  6  8  1  0  0  0  0
  6  4  1  0  0  0  0
  8  7  1  0  0  0  0
  9  8  2  0  0  0  0
 11 12  2  0  0  0  0
 12 10  1  0  0  0  0
 13 14  1  0  0  0  0
 14 11  1  0  0  0  0
 15 14  2  0  0  0  0
 16 20  1  0  0  0  0
 17 18  1  0  0  0  0
 18 13  1  1  0  0  0
 19 17  1  0  0  0  0
 20 18  1  0  0  0  0
 21 19  1  0  0  0  0
 21 16  1  0  0  0  0
 22 23  1  1  0  0  0
 22 16  1  0  0  0  0
 22 25  1  0  0  0  0
 25 24  1  6  0  0  0
 25 26  1  0  0  0  0
 27 28  1  0  0  0  0
 27 26  1  0  0  0  0
 30 33  1  0  0  0  0
 31 30  2  0  0  0  0
 31 29  1  0  0  0  0
 32 45  1  0  0  0  0
 32 37  1  0  0  0  0
 33 32  2  0  0  0  0
 35 34  2  0  0  0  0
 36 34  1  0  0  0  0
 37 35  2  0  0  0  0
 38 33  1  0  0  0  0
 39 38  1  0  0  0  0
 40 39  2  0  0  0  0
 41 42  1  6  0  0  0
 41 39  1  0  0  0  0
 41 43  1  0  0  0  0
 43 44  1  0  0  0  0
 45 46  1  0  0  0  0
 46 47  1  0  0  0  0
 49 54  1  0  0  0  0
 49 51  1  0  0  0  0
 51 53  1  0  0  0  0
 52 53  1  0  0  0  0
 53 50  1  1  0  0  0
 54 55  1  0  0  0  0
 55 48  1  1  0  0  0
 55 52  1  0  0  0  0
 56 54  2  0  0  0  0
 57 59  1  0  0  0  0
 57 58  2  0  0  0  0
 59 49  1  0  0  0  0
 60 61  1  6  0  0  0
 60 57  1  0  0  0  0
 62 60  1  0  0  0  0
 63 62  1  0  0  0  0
M  END
>  <MODEL>
7

>  <REMARK>
 VINA RESULT:      -1.9      2.529      7.057
  Name = 
  24 active torsions:
  status: ('A' for Active; 'I' for Inactive)
    1  A    between atoms: N_2  and  C_57
    2  A    between atoms: C_4  and  O_42
    3  A    between atoms: C_5  and  C_32
    4  A    between atoms: C_6  and  N_20
    5  A    between atoms: C_6  and  C_30
    6  A    between atoms: N_7  and  N_58
    7  A    between atoms: N_8  and  C_38
    8  A    between atoms: C_9  and  C_32
    9  A    between atoms: C_9  and  C_63
   10  A    between atoms: C_10  and  C_34
   11  A    between atoms: C_10  and  C_47
   12  A    between atoms: C_11  and  C_18
   13  A    between atoms: C_13  and  C_16
   14  A    between atoms: C_15  and  C_23
   15  A    between atoms: C_18  and  N_31
   16  A    between atoms: C_18  and  N_40
   17  A    between atoms: C_23  and  C_43
   18  A    between atoms: N_25  and  C_60
   19  A    between atoms: C_30  and  O_42
   20  A    between atoms: C_36  and  N_37
   21  A    between atoms: N_37  and  C_57
   22  A    between atoms: N_40  and  N_46
   23  A    between atoms: C_44  and  C_60
   24  A    between atoms: C_57  and  C_61
                            x       y       z     vdW  Elec       q    Type
                         _______ _______ _______ _____ _____    ______ ____

>  <TORSDO>
F 24

$$$$
