=
 OpenBabel11052410573D

 37 38  0  0  1  0  0  0  0  0999 V2000
  160.6810  208.3500  151.5240 C   0  0  0  0  0  2  0  0  0  0  0  0
  162.3570  209.8650  152.4980 C   0  0  0  0  0  1  0  0  0  0  0  0
  161.2010  208.2670  153.9560 C   0  0  0  0  0  1  0  0  0  0  0  0
  161.0220  209.1890  152.7580 C   0  0  0  0  0  0  0  0  0  0  0  0
  159.7440  210.5540  154.5390 C   0  0  0  0  0  1  0  0  0  0  0  0
  159.9130  210.2260  153.0590 C   0  0  1  0  0  3  0  0  0  0  0  0
  158.9950  212.4480  152.1240 C   0  0  0  0  0  0  0  0  0  0  0  0
  160.0070  211.4410  152.2440 N   0  0  0  0  0  2  0  0  0  0  0  0
  157.8800  212.3150  152.6930 O   0  0  0  0  0  0  0  0  0  0  0  0
  159.2420  213.6450  151.2700 C   0  0  0  0  0  2  0  0  0  0  0  0
  158.1830  213.7730  150.1790 C   0  0  0  0  0  2  0  0  0  0  0  0
  158.7390  214.4500  148.9340 C   0  0  0  0  0  2  0  0  0  0  0  0
  159.4700  212.2390  146.1110 O   0  0  0  0  0  0  0  0  0  0  0  0
  159.6750  212.9500  147.1300 C   0  0  0  0  0  0  0  0  0  0  0  0
  158.5710  213.5890  147.7730 N   0  0  0  0  0  2  0  0  0  0  0  0
  161.0700  213.1270  147.6360 C   0  0  0  0  0  2  0  0  0  0  0  0
  163.0770  211.9270  148.0330 O   0  0  0  0  0  0  0  0  0  0  0  0
  161.7140  211.7790  147.9110 C   0  0  0  0  0  3  0  0  0  0  0  0
  162.3290  211.8160  149.1410 O   0  0  0  0  0  0  0  0  0  0  0  0
  162.1510  207.8980  150.5380 S   0  0  0  0  0  0  0  0  0  0  0  0
  161.1570  206.9190  149.3570 C   0  0  2  0  0  3  0  0  0  0  0  0
  161.3480  203.4190  151.0000 C   0  0  0  0  0  0  0  0  0  0  0  0
  160.6830  204.4620  148.9870 C   0  0  0  0  0  2  0  0  0  0  0  0
  161.7160  205.1180  151.3880 S   0  0  0  0  0  0  0  0  0  0  0  0
  161.5070  202.3600  152.0380 C   0  0  0  0  0  1  0  0  0  0  0  0
  160.8510  203.2180  149.7810 C   0  0  0  0  0  0  0  0  0  0  0  0
  160.6600  205.6150  149.9850 C   0  0  1  0  0  3  0  0  0  0  0  0
  159.2710  201.4990  149.2750 O   0  0  0  0  0  0  0  0  0  0  0  0
  160.4630  201.9080  149.2110 C   0  0  0  0  0  0  0  0  0  0  0  0
  161.4420  201.1160  148.6060 O   0  0  0  0  0  0  0  0  0  0  0  0
  160.8050  201.7450  146.3830 C   0  0  0  0  0  1  0  0  0  0  0  0
  161.2990  200.6300  147.2810 C   0  0  0  0  0  2  0  0  0  0  0  0
  161.9700  206.6460  148.0940 C   0  0  0  0  0  2  0  0  0  0  0  0
  161.1850  206.8220  146.9520 O   0  0  0  0  0  0  0  0  0  0  0  0
  161.0750  205.4820  144.5210 O   0  0  0  0  0  0  0  0  0  0  0  0
  163.0450  204.9230  146.1510 O   0  0  0  0  0  0  0  0  0  0  0  0
  161.7900  205.7030  145.8350 P   0  0  0  0  0  0  0  0  0  0  0  0
  1  4  1  0  0  0  0
  2  4  1  0  0  0  0
  4  6  1  0  0  0  0
  4  3  1  0  0  0  0
  6  5  1  1  0  0  0
  7  8  1  0  0  0  0
  7  9  2  0  0  0  0
  8  6  1  0  0  0  0
 10  7  1  0  0  0  0
 11 10  1  0  0  0  0
 12 11  1  0  0  0  0
 13 14  2  0  0  0  0
 14 16  1  0  0  0  0
 14 15  1  0  0  0  0
 15 12  1  0  0  0  0
 16 18  1  0  0  0  0
 17 19  1  0  0  0  0
 18 17  1  0  0  0  0
 18 19  1  0  0  0  0
 20  1  1  0  0  0  0
 21 33  1  6  0  0  0
 21 20  1  0  0  0  0
 22 24  1  0  0  0  0
 22 25  1  0  0  0  0
 23 26  1  0  0  0  0
 23 27  1  0  0  0  0
 26 22  2  0  0  0  0
 27 21  1  6  0  0  0
 27 24  1  0  0  0  0
 29 28  2  0  0  0  0
 29 26  1  0  0  0  0
 30 29  1  0  0  0  0
 31 32  1  0  0  0  0
 32 30  1  0  0  0  0
 34 33  1  0  0  0  0
 35 37  2  0  0  0  0
 37 36  2  0  0  0  0
 37 34  1  0  0  0  0
M  END
>  <MODEL>
1

>  <REMARK>
 VINA RESULT:      -6.3      0.000      0.000
  Name = 
  18 active torsions:
  status: ('A' for Active; 'I' for Inactive)
    1  A    between atoms: C_1  and  C_28
    2  A    between atoms: S_4  and  C_13
    3  A    between atoms: S_4  and  C_34
    4  A    between atoms: C_6  and  C_10
    5  A    between atoms: C_6  and  C_22
    6  A    between atoms: N_7  and  C_32
    7  A    between atoms: C_9  and  C_21
    8  A    between atoms: C_9  and  N_31
    9  A    between atoms: O_11  and  C_36
   10  A    between atoms: O_11  and  C_37
   11  A    between atoms: C_13  and  C_30
   12  A    between atoms: C_21  and  C_28
   13  A    between atoms: C_24  and  C_36
   14  A    between atoms: C_25  and  C_34
   15  A    between atoms: P_26  and  O_33
   16  A    between atoms: C_30  and  C_32
   17  A    between atoms: O_33  and  C_35
   18  A    between atoms: C_34  and  C_35
                            x       y       z     vdW  Elec       q    Type
                         _______ _______ _______ _____ _____    ______ ____

>  <TORSDO>
F 18

$$$$
=
 OpenBabel11052410573D

 37 38  0  0  1  0  0  0  0  0999 V2000
  160.8360  208.0080  151.8860 C   0  0  0  0  0  2  0  0  0  0  0  0
  162.8830  207.4940  150.6220 C   0  0  0  0  0  1  0  0  0  0  0  0
  160.7020  207.0280  149.6030 C   0  0  0  0  0  1  0  0  0  0  0  0
  161.4740  207.0110  150.9150 C   0  0  0  0  0  0  0  0  0  0  0  0
  161.0590  205.4960  152.9650 C   0  0  0  0  0  1  0  0  0  0  0  0
  161.4770  205.5790  151.5000 C   0  0  1  0  0  3  0  0  0  0  0  0
  160.8510  203.1800  150.7880 C   0  0  0  0  0  0  0  0  0  0  0  0
  160.7540  204.6050  150.6770 N   0  0  0  0  0  2  0  0  0  0  0  0
  161.6510  202.6470  151.6000 O   0  0  0  0  0  0  0  0  0  0  0  0
  160.0340  202.3120  149.8900 C   0  0  0  0  0  2  0  0  0  0  0  0
  160.8890  201.2250  149.2450 C   0  0  0  0  0  2  0  0  0  0  0  0
  161.5450  201.7160  147.9620 C   0  0  0  0  0  2  0  0  0  0  0  0
  159.8770  201.8150  144.7060 O   0  0  0  0  0  0  0  0  0  0  0  0
  160.6090  202.1820  145.6620 C   0  0  0  0  0  0  0  0  0  0  0  0
  160.7420  201.3400  146.8080 N   0  0  0  0  0  2  0  0  0  0  0  0
  161.3110  203.5000  145.5880 C   0  0  0  0  0  2  0  0  0  0  0  0
  160.9800  205.7320  144.8580 O   0  0  0  0  0  0  0  0  0  0  0  0
  160.6000  204.4300  144.6220 C   0  0  0  0  0  3  0  0  0  0  0  0
  161.5350  205.0640  143.8350 O   0  0  0  0  0  0  0  0  0  0  0  0
  161.8370  209.5180  152.1190 S   0  0  0  0  0  0  0  0  0  0  0  0
  160.8320  210.0610  153.5460 C   0  0  2  0  0  3  0  0  0  0  0  0
  158.4120  212.9300  152.6000 C   0  0  0  0  0  0  0  0  0  0  0  0
  160.4590  211.9630  151.9220 C   0  0  0  0  0  2  0  0  0  0  0  0
  158.5650  211.6320  153.8110 S   0  0  0  0  0  0  0  0  0  0  0  0
  157.2920  213.9110  152.6880 C   0  0  0  0  0  1  0  0  0  0  0  0
  159.4040  212.9890  151.7140 C   0  0  0  0  0  0  0  0  0  0  0  0
  160.3300  211.4950  153.3680 C   0  0  1  0  0  3  0  0  0  0  0  0
  160.6380  214.4530  150.2860 O   0  0  0  0  0  0  0  0  0  0  0  0
  159.5190  213.9670  150.6100 C   0  0  0  0  0  0  0  0  0  0  0  0
  158.3640  214.3610  149.9300 O   0  0  0  0  0  0  0  0  0  0  0  0
  156.5700  213.6800  148.4930 C   0  0  0  0  0  1  0  0  0  0  0  0
  158.0640  213.8890  148.6250 C   0  0  0  0  0  2  0  0  0  0  0  0
  161.6370  209.9150  154.8360 C   0  0  0  0  0  2  0  0  0  0  0  0
  161.6500  208.5850  155.2650 O   0  0  0  0  0  0  0  0  0  0  0  0
  159.9590  209.5760  157.2340 O   0  0  0  0  0  0  0  0  0  0  0  0
  159.4580  207.2000  156.2570 O   0  0  0  0  0  0  0  0  0  0  0  0
  160.3070  208.4490  156.2870 P   0  0  0  0  0  0  0  0  0  0  0  0
  1 20  1  0  0  0  0
  2  4  1  0  0  0  0
  3  4  1  0  0  0  0
  4  6  1  0  0  0  0
  4  1  1  0  0  0  0
  6  5  1  1  0  0  0
  7  9  2  0  0  0  0
  8  7  1  0  0  0  0
  8  6  1  0  0  0  0
 10  7  1  0  0  0  0
 11 10  1  0  0  0  0
 12 11  1  0  0  0  0
 13 14  2  0  0  0  0
 14 15  1  0  0  0  0
 15 12  1  0  0  0  0
 16 14  1  0  0  0  0
 18 17  1  0  0  0  0
 18 16  1  0  0  0  0
 19 18  1  0  0  0  0
 19 17  1  0  0  0  0
 20 21  1  0  0  0  0
 21 33  1  1  0  0  0
 22 25  1  0  0  0  0
 22 24  1  0  0  0  0
 23 27  1  0  0  0  0
 26 23  1  0  0  0  0
 26 22  2  0  0  0  0
 27 21  1  6  0  0  0
 27 24  1  0  0  0  0
 28 29  2  0  0  0  0
 29 26  1  0  0  0  0
 30 29  1  0  0  0  0
 31 32  1  0  0  0  0
 32 30  1  0  0  0  0
 33 34  1  0  0  0  0
 34 37  1  0  0  0  0
 36 37  2  0  0  0  0
 37 35  2  0  0  0  0
M  END
>  <MODEL>
2

>  <REMARK>
 VINA RESULT:      -6.2      3.901      9.657
  Name = 
  18 active torsions:
  status: ('A' for Active; 'I' for Inactive)
    1  A    between atoms: C_1  and  C_28
    2  A    between atoms: S_4  and  C_13
    3  A    between atoms: S_4  and  C_34
    4  A    between atoms: C_6  and  C_10
    5  A    between atoms: C_6  and  C_22
    6  A    between atoms: N_7  and  C_32
    7  A    between atoms: C_9  and  C_21
    8  A    between atoms: C_9  and  N_31
    9  A    between atoms: O_11  and  C_36
   10  A    between atoms: O_11  and  C_37
   11  A    between atoms: C_13  and  C_30
   12  A    between atoms: C_21  and  C_28
   13  A    between atoms: C_24  and  C_36
   14  A    between atoms: C_25  and  C_34
   15  A    between atoms: P_26  and  O_33
   16  A    between atoms: C_30  and  C_32
   17  A    between atoms: O_33  and  C_35
   18  A    between atoms: C_34  and  C_35
                            x       y       z     vdW  Elec       q    Type
                         _______ _______ _______ _____ _____    ______ ____

>  <TORSDO>
F 18

$$$$
=
 OpenBabel11052410573D

 37 38  0  0  1  0  0  0  0  0999 V2000
  160.8070  207.3840  151.9340 C   0  0  0  0  0  2  0  0  0  0  0  0
  161.2280  205.3720  153.2850 C   0  0  0  0  0  1  0  0  0  0  0  0
  162.9050  206.0800  151.6420 C   0  0  0  0  0  1  0  0  0  0  0  0
  161.4100  205.9780  151.9040 C   0  0  0  0  0  0  0  0  0  0  0  0
  160.6230  205.7830  149.4520 C   0  0  0  0  0  1  0  0  0  0  0  0
  160.7470  205.1040  150.8130 C   0  0  1  0  0  3  0  0  0  0  0  0
  160.6690  202.6050  150.1770 C   0  0  0  0  0  0  0  0  0  0  0  0
  161.3310  203.7650  150.6950 N   0  0  0  0  0  2  0  0  0  0  0  0
  159.4600  202.6530  149.8290 O   0  0  0  0  0  0  0  0  0  0  0  0
  161.4020  201.3080  150.1000 C   0  0  0  0  0  2  0  0  0  0  0  0
  161.1890  200.6330  148.7480 C   0  0  0  0  0  2  0  0  0  0  0  0
  161.6160  201.5340  147.5980 C   0  0  0  0  0  2  0  0  0  0  0  0
  159.8290  202.0580  144.4480 O   0  0  0  0  0  0  0  0  0  0  0  0
  160.6040  202.2930  145.4110 C   0  0  0  0  0  0  0  0  0  0  0  0
  160.7620  201.3150  146.4400 N   0  0  0  0  0  2  0  0  0  0  0  0
  161.3310  203.5980  145.4700 C   0  0  0  0  0  2  0  0  0  0  0  0
  161.0800  205.9130  145.0190 O   0  0  0  0  0  0  0  0  0  0  0  0
  160.5600  204.6740  144.7250 C   0  0  0  0  0  3  0  0  0  0  0  0
  161.4110  205.3230  143.8610 O   0  0  0  0  0  0  0  0  0  0  0  0
  160.9790  208.2010  153.5590 S   0  0  0  0  0  0  0  0  0  0  0  0
  161.6990  209.7080  152.8160 C   0  0  2  0  0  3  0  0  0  0  0  0
  159.8250  211.9270  155.3740 C   0  0  0  0  0  0  0  0  0  0  0  0
  159.5980  211.0660  153.1860 C   0  0  0  0  0  2  0  0  0  0  0  0
  161.3490  211.0160  155.2340 S   0  0  0  0  0  0  0  0  0  0  0  0
  159.5560  212.7580  156.5840 C   0  0  0  0  0  1  0  0  0  0  0  0
  159.0370  211.8710  154.3030 C   0  0  0  0  0  0  0  0  0  0  0  0
  161.1010  210.9780  153.4260 C   0  0  1  0  0  3  0  0  0  0  0  0
  157.6420  213.7670  153.8980 O   0  0  0  0  0  0  0  0  0  0  0  0
  157.7230  212.5350  154.1600 C   0  0  0  0  0  0  0  0  0  0  0  0
  156.5590  211.7800  154.3330 O   0  0  0  0  0  0  0  0  0  0  0  0
  155.7630  211.8610  156.5920 C   0  0  0  0  0  1  0  0  0  0  0  0
  156.3420  210.9940  155.4940 C   0  0  0  0  0  2  0  0  0  0  0  0
  161.5080  209.6830  151.3010 C   0  0  0  0  0  2  0  0  0  0  0  0
  162.1300  210.7840  150.7060 O   0  0  0  0  0  0  0  0  0  0  0  0
  162.2280  211.5890  148.0490 O   0  0  0  0  0  0  0  0  0  0  0  0
  161.8930  209.0430  148.5560 O   0  0  0  0  0  0  0  0  0  0  0  0
  162.0830  210.4600  149.0450 P   0  0  0  0  0  0  0  0  0  0  0  0
  1 20  1  0  0  0  0
  3  4  1  0  0  0  0
  4  1  1  0  0  0  0
  4  2  1  0  0  0  0
  6  5  1  6  0  0  0
  6  4  1  0  0  0  0
  7  8  1  0  0  0  0
  8  6  1  0  0  0  0
  9  7  2  0  0  0  0
 10  7  1  0  0  0  0
 11 10  1  0  0  0  0
 12 11  1  0  0  0  0
 13 14  2  0  0  0  0
 14 16  1  0  0  0  0
 14 15  1  0  0  0  0
 15 12  1  0  0  0  0
 18 17  1  0  0  0  0
 18 16  1  0  0  0  0
 19 18  1  0  0  0  0
 19 17  1  0  0  0  0
 21 33  1  6  0  0  0
 21 20  1  0  0  0  0
 22 25  1  0  0  0  0
 23 27  1  0  0  0  0
 23 26  1  0  0  0  0
 24 22  1  0  0  0  0
 26 22  2  0  0  0  0
 27 21  1  1  0  0  0
 27 24  1  0  0  0  0
 28 29  2  0  0  0  0
 29 26  1  0  0  0  0
 29 30  1  0  0  0  0
 30 32  1  0  0  0  0
 32 31  1  0  0  0  0
 34 33  1  0  0  0  0
 35 37  2  0  0  0  0
 36 37  2  0  0  0  0
 37 34  1  0  0  0  0
M  END
>  <MODEL>
3

>  <REMARK>
 VINA RESULT:      -6.2      3.426      9.250
  Name = 
  18 active torsions:
  status: ('A' for Active; 'I' for Inactive)
    1  A    between atoms: C_1  and  C_28
    2  A    between atoms: S_4  and  C_13
    3  A    between atoms: S_4  and  C_34
    4  A    between atoms: C_6  and  C_10
    5  A    between atoms: C_6  and  C_22
    6  A    between atoms: N_7  and  C_32
    7  A    between atoms: C_9  and  C_21
    8  A    between atoms: C_9  and  N_31
    9  A    between atoms: O_11  and  C_36
   10  A    between atoms: O_11  and  C_37
   11  A    between atoms: C_13  and  C_30
   12  A    between atoms: C_21  and  C_28
   13  A    between atoms: C_24  and  C_36
   14  A    between atoms: C_25  and  C_34
   15  A    between atoms: P_26  and  O_33
   16  A    between atoms: C_30  and  C_32
   17  A    between atoms: O_33  and  C_35
   18  A    between atoms: C_34  and  C_35
                            x       y       z     vdW  Elec       q    Type
                         _______ _______ _______ _____ _____    ______ ____

>  <TORSDO>
F 18

$$$$
=
 OpenBabel11052410573D

 37 38  0  0  1  0  0  0  0  0999 V2000
  160.9380  207.1590  151.4520 C   0  0  0  0  0  2  0  0  0  0  0  0
  161.1620  205.1080  152.7910 C   0  0  0  0  0  1  0  0  0  0  0  0
  163.1280  205.9890  151.6190 C   0  0  0  0  0  1  0  0  0  0  0  0
  161.6220  205.7910  151.5160 C   0  0  0  0  0  0  0  0  0  0  0  0
  160.4580  203.6940  150.5580 C   0  0  0  0  0  1  0  0  0  0  0  0
  161.2930  204.9380  150.2680 C   0  0  1  0  0  3  0  0  0  0  0  0
  161.3660  205.9270  147.8870 C   0  0  0  0  0  0  0  0  0  0  0  0
  160.7360  205.7120  149.1550 N   0  0  0  0  0  2  0  0  0  0  0  0
  162.5250  205.4920  147.6590 O   0  0  0  0  0  0  0  0  0  0  0  0
  160.6650  206.7250  146.8390 C   0  0  0  0  0  2  0  0  0  0  0  0
  160.2670  205.8500  145.6540 C   0  0  0  0  0  2  0  0  0  0  0  0
  161.3530  204.8410  145.3120 C   0  0  0  0  0  2  0  0  0  0  0  0
  160.1710  201.3900  145.0150 O   0  0  0  0  0  0  0  0  0  0  0  0
  160.6660  202.4200  145.5410 C   0  0  0  0  0  0  0  0  0  0  0  0
  160.7610  203.6230  144.7770 N   0  0  0  0  0  2  0  0  0  0  0  0
  161.1640  202.3610  146.9500 C   0  0  0  0  0  2  0  0  0  0  0  0
  161.6020  200.8870  148.7560 O   0  0  0  0  0  0  0  0  0  0  0  0
  161.0410  200.9510  147.5010 C   0  0  0  0  0  3  0  0  0  0  0  0
  160.2680  200.9770  148.6390 O   0  0  0  0  0  0  0  0  0  0  0  0
  160.7200  207.9270  153.0950 S   0  0  0  0  0  0  0  0  0  0  0  0
  161.8160  209.3280  152.6750 C   0  0  2  0  0  3  0  0  0  0  0  0
  160.1940  211.7460  155.2260 C   0  0  0  0  0  0  0  0  0  0  0  0
  159.7720  210.7470  153.1270 C   0  0  0  0  0  2  0  0  0  0  0  0
  161.6890  210.7980  155.0210 S   0  0  0  0  0  0  0  0  0  0  0  0
  160.0390  212.6590  156.3950 C   0  0  0  0  0  1  0  0  0  0  0  0
  159.3180  211.6340  154.2300 C   0  0  0  0  0  0  0  0  0  0  0  0
  161.2890  210.6460  153.2470 C   0  0  1  0  0  3  0  0  0  0  0  0
  156.9330  211.6770  154.3450 O   0  0  0  0  0  0  0  0  0  0  0  0
  158.0060  212.3130  154.1520 C   0  0  0  0  0  0  0  0  0  0  0  0
  157.9650  213.6760  153.8480 O   0  0  0  0  0  0  0  0  0  0  0  0
  157.6560  213.6870  151.4710 C   0  0  0  0  0  1  0  0  0  0  0  0
  158.4880  214.1890  152.6330 C   0  0  0  0  0  2  0  0  0  0  0  0
  161.9920  209.4160  151.1610 C   0  0  0  0  0  2  0  0  0  0  0  0
  162.1070  210.7470  150.7520 O   0  0  0  0  0  0  0  0  0  0  0  0
  162.1720  209.3420  148.3570 O   0  0  0  0  0  0  0  0  0  0  0  0
  162.0760  211.9560  148.2530 O   0  0  0  0  0  0  0  0  0  0  0  0
  162.1170  210.6800  149.0610 P   0  0  0  0  0  0  0  0  0  0  0  0
  1  4  1  0  0  0  0
  1 20  1  0  0  0  0
  4  3  1  0  0  0  0
  4  2  1  0  0  0  0
  6  5  1  1  0  0  0
  6  4  1  0  0  0  0
  7  8  1  0  0  0  0
  8  6  1  0  0  0  0
  9  7  2  0  0  0  0
 10  7  1  0  0  0  0
 11 10  1  0  0  0  0
 12 11  1  0  0  0  0
 13 14  2  0  0  0  0
 14 16  1  0  0  0  0
 15 12  1  0  0  0  0
 15 14  1  0  0  0  0
 16 18  1  0  0  0  0
 18 19  1  0  0  0  0
 18 17  1  0  0  0  0
 19 17  1  0  0  0  0
 21 33  1  6  0  0  0
 21 20  1  0  0  0  0
 22 25  1  0  0  0  0
 23 27  1  0  0  0  0
 23 26  1  0  0  0  0
 24 22  1  0  0  0  0
 26 22  2  0  0  0  0
 27 21  1  1  0  0  0
 27 24  1  0  0  0  0
 29 26  1  0  0  0  0
 29 28  2  0  0  0  0
 30 29  1  0  0  0  0
 31 32  1  0  0  0  0
 32 30  1  0  0  0  0
 34 33  1  0  0  0  0
 35 37  2  0  0  0  0
 36 37  2  0  0  0  0
 37 34  1  0  0  0  0
M  END
>  <MODEL>
4

>  <REMARK>
 VINA RESULT:      -6.1      3.037      8.954
  Name = 
  18 active torsions:
  status: ('A' for Active; 'I' for Inactive)
    1  A    between atoms: C_1  and  C_28
    2  A    between atoms: S_4  and  C_13
    3  A    between atoms: S_4  and  C_34
    4  A    between atoms: C_6  and  C_10
    5  A    between atoms: C_6  and  C_22
    6  A    between atoms: N_7  and  C_32
    7  A    between atoms: C_9  and  C_21
    8  A    between atoms: C_9  and  N_31
    9  A    between atoms: O_11  and  C_36
   10  A    between atoms: O_11  and  C_37
   11  A    between atoms: C_13  and  C_30
   12  A    between atoms: C_21  and  C_28
   13  A    between atoms: C_24  and  C_36
   14  A    between atoms: C_25  and  C_34
   15  A    between atoms: P_26  and  O_33
   16  A    between atoms: C_30  and  C_32
   17  A    between atoms: O_33  and  C_35
   18  A    between atoms: C_34  and  C_35
                            x       y       z     vdW  Elec       q    Type
                         _______ _______ _______ _____ _____    ______ ____

>  <TORSDO>
F 18

$$$$
=
 OpenBabel11052410573D

 37 38  0  0  1  0  0  0  0  0999 V2000
  160.8470  207.1810  151.9050 C   0  0  0  0  0  2  0  0  0  0  0  0
  161.1760  205.0830  153.1470 C   0  0  0  0  0  1  0  0  0  0  0  0
  162.9650  205.8950  151.6810 C   0  0  0  0  0  1  0  0  0  0  0  0
  161.4550  205.7780  151.8260 C   0  0  0  0  0  0  0  0  0  0  0  0
  160.9510  205.7050  149.2940 C   0  0  0  0  0  1  0  0  0  0  0  0
  160.8760  204.9790  150.6340 C   0  0  1  0  0  3  0  0  0  0  0  0
  160.6410  202.4590  150.1390 C   0  0  0  0  0  0  0  0  0  0  0  0
  161.3930  203.6110  150.5360 N   0  0  0  0  0  2  0  0  0  0  0  0
  159.4090  202.5430  149.8960 O   0  0  0  0  0  0  0  0  0  0  0  0
  161.3120  201.1280  150.0650 C   0  0  0  0  0  2  0  0  0  0  0  0
  161.4340  200.6510  148.6220 C   0  0  0  0  0  2  0  0  0  0  0  0
  161.5010  201.8190  147.6480 C   0  0  0  0  0  2  0  0  0  0  0  0
  159.7860  202.2090  144.4390 O   0  0  0  0  0  0  0  0  0  0  0  0
  160.5810  202.4550  145.3830 C   0  0  0  0  0  0  0  0  0  0  0  0
  160.6300  201.5760  146.5070 N   0  0  0  0  0  2  0  0  0  0  0  0
  161.4440  203.6750  145.3190 C   0  0  0  0  0  2  0  0  0  0  0  0
  160.3280  205.7660  145.2220 O   0  0  0  0  0  0  0  0  0  0  0  0
  160.8050  204.7370  144.4420 C   0  0  0  0  0  3  0  0  0  0  0  0
  161.4990  205.9160  144.5840 O   0  0  0  0  0  0  0  0  0  0  0  0
  161.0570  207.9600  153.5440 S   0  0  0  0  0  0  0  0  0  0  0  0
  161.7830  209.4730  152.8200 C   0  0  2  0  0  3  0  0  0  0  0  0
  160.0720  211.7430  155.4480 C   0  0  0  0  0  0  0  0  0  0  0  0
  159.6340  210.6820  153.3830 C   0  0  0  0  0  2  0  0  0  0  0  0
  161.6410  210.9500  155.1610 S   0  0  0  0  0  0  0  0  0  0  0  0
  159.8920  212.6490  156.6190 C   0  0  0  0  0  1  0  0  0  0  0  0
  159.1560  211.5310  154.5050 C   0  0  0  0  0  0  0  0  0  0  0  0
  161.1580  210.7380  153.4140 C   0  0  1  0  0  3  0  0  0  0  0  0
  156.7780  211.3020  154.5180 O   0  0  0  0  0  0  0  0  0  0  0  0
  157.7780  212.0710  154.5010 C   0  0  0  0  0  0  0  0  0  0  0  0
  157.5940  213.4560  154.4660 O   0  0  0  0  0  0  0  0  0  0  0  0
  156.9310  214.4510  152.3890 C   0  0  0  0  0  1  0  0  0  0  0  0
  158.0560  214.2470  153.3830 C   0  0  0  0  0  2  0  0  0  0  0  0
  161.6350  209.4470  151.3010 C   0  0  0  0  0  2  0  0  0  0  0  0
  161.6710  210.7430  150.7780 O   0  0  0  0  0  0  0  0  0  0  0  0
  162.6680  211.7130  148.3740 O   0  0  0  0  0  0  0  0  0  0  0  0
  161.9680  209.1930  148.4930 O   0  0  0  0  0  0  0  0  0  0  0  0
  162.1190  210.5410  149.1580 P   0  0  0  0  0  0  0  0  0  0  0  0
  1 20  1  0  0  0  0
  3  4  1  0  0  0  0
  4  1  1  0  0  0  0
  4  2  1  0  0  0  0
  6  5  1  6  0  0  0
  6  4  1  0  0  0  0
  7  8  1  0  0  0  0
  8  6  1  0  0  0  0
  9  7  2  0  0  0  0
 10  7  1  0  0  0  0
 11 10  1  0  0  0  0
 12 11  1  0  0  0  0
 13 14  2  0  0  0  0
 14 15  1  0  0  0  0
 15 12  1  0  0  0  0
 16 14  1  0  0  0  0
 18 19  1  0  0  0  0
 18 17  1  0  0  0  0
 18 16  1  0  0  0  0
 19 17  1  0  0  0  0
 21 33  1  6  0  0  0
 21 20  1  0  0  0  0
 22 25  1  0  0  0  0
 23 27  1  0  0  0  0
 23 26  1  0  0  0  0
 24 22  1  0  0  0  0
 26 22  2  0  0  0  0
 27 21  1  1  0  0  0
 27 24  1  0  0  0  0
 29 26  1  0  0  0  0
 29 28  2  0  0  0  0
 30 29  1  0  0  0  0
 31 32  1  0  0  0  0
 32 30  1  0  0  0  0
 34 33  1  0  0  0  0
 35 37  2  0  0  0  0
 36 37  2  0  0  0  0
 37 34  1  0  0  0  0
M  END
>  <MODEL>
5

>  <REMARK>
 VINA RESULT:      -6.0      3.362      9.209
  Name = 
  18 active torsions:
  status: ('A' for Active; 'I' for Inactive)
    1  A    between atoms: C_1  and  C_28
    2  A    between atoms: S_4  and  C_13
    3  A    between atoms: S_4  and  C_34
    4  A    between atoms: C_6  and  C_10
    5  A    between atoms: C_6  and  C_22
    6  A    between atoms: N_7  and  C_32
    7  A    between atoms: C_9  and  C_21
    8  A    between atoms: C_9  and  N_31
    9  A    between atoms: O_11  and  C_36
   10  A    between atoms: O_11  and  C_37
   11  A    between atoms: C_13  and  C_30
   12  A    between atoms: C_21  and  C_28
   13  A    between atoms: C_24  and  C_36
   14  A    between atoms: C_25  and  C_34
   15  A    between atoms: P_26  and  O_33
   16  A    between atoms: C_30  and  C_32
   17  A    between atoms: O_33  and  C_35
   18  A    between atoms: C_34  and  C_35
                            x       y       z     vdW  Elec       q    Type
                         _______ _______ _______ _____ _____    ______ ____

>  <TORSDO>
F 18

$$$$
=
 OpenBabel11052410573D

 37 38  0  0  1  0  0  0  0  0999 V2000
  160.3880  207.5460  153.8800 C   0  0  0  0  0  2  0  0  0  0  0  0
  162.0910  209.3210  153.8720 C   0  0  0  0  0  1  0  0  0  0  0  0
  161.5150  208.2290  155.9900 C   0  0  0  0  0  1  0  0  0  0  0  0
  160.9440  208.7310  154.6720 C   0  0  0  0  0  0  0  0  0  0  0  0
  159.6780  210.1510  156.4210 C   0  0  0  0  0  1  0  0  0  0  0  0
  159.8460  209.7870  154.9480 C   0  0  1  0  0  3  0  0  0  0  0  0
  158.8610  211.7790  153.6400 C   0  0  0  0  0  0  0  0  0  0  0  0
  159.9550  210.9830  154.1070 N   0  0  0  0  0  2  0  0  0  0  0  0
  157.6700  211.4500  153.8840 O   0  0  0  0  0  0  0  0  0  0  0  0
  159.1280  212.9860  152.8040 C   0  0  0  0  0  2  0  0  0  0  0  0
  157.9190  213.3430  151.9450 C   0  0  0  0  0  2  0  0  0  0  0  0
  158.3370  213.8510  150.5730 C   0  0  0  0  0  2  0  0  0  0  0  0
  157.1560  212.7050  147.3030 O   0  0  0  0  0  0  0  0  0  0  0  0
  157.9110  213.2360  148.1590 C   0  0  0  0  0  0  0  0  0  0  0  0
  157.5280  213.2270  149.5350 N   0  0  0  0  0  2  0  0  0  0  0  0
  159.1840  213.8840  147.7170 C   0  0  0  0  0  2  0  0  0  0  0  0
  160.6820  214.0120  145.8820 O   0  0  0  0  0  0  0  0  0  0  0  0
  159.7090  213.2240  146.4540 C   0  0  0  0  0  3  0  0  0  0  0  0
  161.0480  212.9470  146.6130 O   0  0  0  0  0  0  0  0  0  0  0  0
  161.6950  206.4480  153.2280 S   0  0  0  0  0  0  0  0  0  0  0  0
  161.1880  206.7400  151.4960 C   0  0  2  0  0  3  0  0  0  0  0  0
  161.0390  203.0530  150.3260 C   0  0  0  0  0  0  0  0  0  0  0  0
  161.1700  205.2460  149.4560 C   0  0  0  0  0  2  0  0  0  0  0  0
  161.0320  203.9940  151.8390 S   0  0  0  0  0  0  0  0  0  0  0  0
  160.8600  201.5730  150.3620 C   0  0  0  0  0  1  0  0  0  0  0  0
  161.1200  203.7800  149.2140 C   0  0  0  0  0  0  0  0  0  0  0  0
  160.6120  205.4740  150.8560 C   0  0  1  0  0  3  0  0  0  0  0  0
  161.2590  202.0100  147.6150 O   0  0  0  0  0  0  0  0  0  0  0  0
  161.1440  203.2480  147.8330 C   0  0  0  0  0  0  0  0  0  0  0  0
  161.0480  204.1400  146.7620 O   0  0  0  0  0  0  0  0  0  0  0  0
  163.2850  204.7050  146.1130 C   0  0  0  0  0  1  0  0  0  0  0  0
  161.9630  204.1090  145.6770 C   0  0  0  0  0  2  0  0  0  0  0  0
  162.3700  207.2750  150.6910 C   0  0  0  0  0  2  0  0  0  0  0  0
  162.3450  208.6710  150.6440 O   0  0  0  0  0  0  0  0  0  0  0  0
  162.0970  210.4720  148.5440 O   0  0  0  0  0  0  0  0  0  0  0  0
  161.5820  207.9490  148.0750 O   0  0  0  0  0  0  0  0  0  0  0  0
  161.9970  209.0430  149.0300 P   0  0  0  0  0  0  0  0  0  0  0  0
  1  4  1  0  0  0  0
  2  4  1  0  0  0  0
  4  6  1  0  0  0  0
  4  3  1  0  0  0  0
  6  5  1  1  0  0  0
  7  9  2  0  0  0  0
  7  8  1  0  0  0  0
  8  6  1  0  0  0  0
 10  7  1  0  0  0  0
 11 10  1  0  0  0  0
 12 11  1  0  0  0  0
 13 14  2  0  0  0  0
 14 15  1  0  0  0  0
 15 12  1  0  0  0  0
 16 14  1  0  0  0  0
 17 18  1  0  0  0  0
 17 19  1  0  0  0  0
 18 19  1  0  0  0  0
 18 16  1  0  0  0  0
 20  1  1  0  0  0  0
 21 33  1  6  0  0  0
 21 20  1  0  0  0  0
 22 25  1  0  0  0  0
 22 24  1  0  0  0  0
 23 27  1  0  0  0  0
 26 23  1  0  0  0  0
 26 22  2  0  0  0  0
 27 21  1  1  0  0  0
 27 24  1  0  0  0  0
 28 29  2  0  0  0  0
 29 26  1  0  0  0  0
 30 29  1  0  0  0  0
 32 31  1  0  0  0  0
 32 30  1  0  0  0  0
 34 33  1  0  0  0  0
 35 37  2  0  0  0  0
 36 37  2  0  0  0  0
 37 34  1  0  0  0  0
M  END
>  <MODEL>
6

>  <REMARK>
 VINA RESULT:      -5.8      1.881      2.729
  Name = 
  18 active torsions:
  status: ('A' for Active; 'I' for Inactive)
    1  A    between atoms: C_1  and  C_28
    2  A    between atoms: S_4  and  C_13
    3  A    between atoms: S_4  and  C_34
    4  A    between atoms: C_6  and  C_10
    5  A    between atoms: C_6  and  C_22
    6  A    between atoms: N_7  and  C_32
    7  A    between atoms: C_9  and  C_21
    8  A    between atoms: C_9  and  N_31
    9  A    between atoms: O_11  and  C_36
   10  A    between atoms: O_11  and  C_37
   11  A    between atoms: C_13  and  C_30
   12  A    between atoms: C_21  and  C_28
   13  A    between atoms: C_24  and  C_36
   14  A    between atoms: C_25  and  C_34
   15  A    between atoms: P_26  and  O_33
   16  A    between atoms: C_30  and  C_32
   17  A    between atoms: O_33  and  C_35
   18  A    between atoms: C_34  and  C_35
                            x       y       z     vdW  Elec       q    Type
                         _______ _______ _______ _____ _____    ______ ____

>  <TORSDO>
F 18

$$$$
=
 OpenBabel11052410573D

 37 38  0  0  1  0  0  0  0  0999 V2000
  160.8390  208.0970  151.2770 C   0  0  0  0  0  2  0  0  0  0  0  0
  160.8360  205.8230  150.3400 C   0  0  0  0  0  1  0  0  0  0  0  0
  162.9790  206.9490  150.7340 C   0  0  0  0  0  1  0  0  0  0  0  0
  161.5410  207.1670  150.2850 C   0  0  0  0  0  0  0  0  0  0  0  0
  161.9560  209.2150  148.7670 C   0  0  0  0  0  1  0  0  0  0  0  0
  161.5250  207.7540  148.8530 C   0  0  1  0  0  3  0  0  0  0  0  0
  161.7010  206.4980  146.6070 C   0  0  0  0  0  0  0  0  0  0  0  0
  162.2270  206.9260  147.8690 N   0  0  0  0  0  2  0  0  0  0  0  0
  160.5180  206.7710  146.2740 O   0  0  0  0  0  0  0  0  0  0  0  0
  162.5450  205.6710  145.6970 C   0  0  0  0  0  2  0  0  0  0  0  0
  162.4480  204.1890  146.0480 C   0  0  0  0  0  2  0  0  0  0  0  0
  161.1010  203.6050  145.6500 C   0  0  0  0  0  2  0  0  0  0  0  0
  161.2080  200.2420  147.0900 O   0  0  0  0  0  0  0  0  0  0  0  0
  161.1630  201.4990  147.0450 C   0  0  0  0  0  0  0  0  0  0  0  0
  161.1210  202.1550  145.7770 N   0  0  0  0  0  2  0  0  0  0  0  0
  161.1720  202.2830  148.3180 C   0  0  0  0  0  2  0  0  0  0  0  0
  161.2180  201.2870  150.4700 O   0  0  0  0  0  0  0  0  0  0  0  0
  160.3940  201.5540  149.4000 C   0  0  0  0  0  3  0  0  0  0  0  0
  160.3730  202.3260  150.5380 O   0  0  0  0  0  0  0  0  0  0  0  0
  161.9530  209.3660  151.9760 S   0  0  0  0  0  0  0  0  0  0  0  0
  160.8300  209.6920  153.3820 C   0  0  2  0  0  3  0  0  0  0  0  0
  159.1950  212.9120  154.7760 C   0  0  0  0  0  0  0  0  0  0  0  0
  158.9650  211.3590  153.0100 C   0  0  0  0  0  2  0  0  0  0  0  0
  160.5520  211.8160  155.1400 S   0  0  0  0  0  0  0  0  0  0  0  0
  158.9930  214.1500  155.5840 C   0  0  0  0  0  1  0  0  0  0  0  0
  158.4770  212.5790  153.7050 C   0  0  0  0  0  0  0  0  0  0  0  0
  160.4150  211.1640  153.4410 C   0  0  1  0  0  3  0  0  0  0  0  0
  157.4180  214.1330  152.2330 O   0  0  0  0  0  0  0  0  0  0  0  0
  157.3030  213.3170  153.1880 C   0  0  0  0  0  0  0  0  0  0  0  0
  156.0560  213.1070  153.7810 O   0  0  0  0  0  0  0  0  0  0  0  0
  155.1050  214.1660  155.7100 C   0  0  0  0  0  1  0  0  0  0  0  0
  155.2350  214.1850  154.2010 C   0  0  0  0  0  2  0  0  0  0  0  0
  161.4890  209.2530  154.6870 C   0  0  0  0  0  2  0  0  0  0  0  0
  161.3730  207.8710  154.8600 O   0  0  0  0  0  0  0  0  0  0  0  0
  159.1210  206.6160  155.8920 O   0  0  0  0  0  0  0  0  0  0  0  0
  160.1760  208.5820  157.2610 O   0  0  0  0  0  0  0  0  0  0  0  0
  160.1820  207.6830  156.0470 P   0  0  0  0  0  0  0  0  0  0  0  0
  1 20  1  0  0  0  0
  4  2  1  0  0  0  0
  4  3  1  0  0  0  0
  4  1  1  0  0  0  0
  6  5  1  1  0  0  0
  6  4  1  0  0  0  0
  7  8  1  0  0  0  0
  8  6  1  0  0  0  0
  9  7  2  0  0  0  0
 10 11  1  0  0  0  0
 10  7  1  0  0  0  0
 12 15  1  0  0  0  0
 12 11  1  0  0  0  0
 14 13  2  0  0  0  0
 14 16  1  0  0  0  0
 15 14  1  0  0  0  0
 16 18  1  0  0  0  0
 17 19  1  0  0  0  0
 18 17  1  0  0  0  0
 18 19  1  0  0  0  0
 20 21  1  0  0  0  0
 21 33  1  1  0  0  0
 22 24  1  0  0  0  0
 22 25  1  0  0  0  0
 23 27  1  0  0  0  0
 23 26  1  0  0  0  0
 26 22  2  0  0  0  0
 27 21  1  1  0  0  0
 27 24  1  0  0  0  0
 28 29  2  0  0  0  0
 29 26  1  0  0  0  0
 29 30  1  0  0  0  0
 30 32  1  0  0  0  0
 32 31  1  0  0  0  0
 33 34  1  0  0  0  0
 34 37  1  0  0  0  0
 35 37  2  0  0  0  0
 37 36  2  0  0  0  0
M  END
>  <MODEL>
7

>  <REMARK>
 VINA RESULT:      -5.7      4.004      9.992
  Name = 
  18 active torsions:
  status: ('A' for Active; 'I' for Inactive)
    1  A    between atoms: C_1  and  C_28
    2  A    between atoms: S_4  and  C_13
    3  A    between atoms: S_4  and  C_34
    4  A    between atoms: C_6  and  C_10
    5  A    between atoms: C_6  and  C_22
    6  A    between atoms: N_7  and  C_32
    7  A    between atoms: C_9  and  C_21
    8  A    between atoms: C_9  and  N_31
    9  A    between atoms: O_11  and  C_36
   10  A    between atoms: O_11  and  C_37
   11  A    between atoms: C_13  and  C_30
   12  A    between atoms: C_21  and  C_28
   13  A    between atoms: C_24  and  C_36
   14  A    between atoms: C_25  and  C_34
   15  A    between atoms: P_26  and  O_33
   16  A    between atoms: C_30  and  C_32
   17  A    between atoms: O_33  and  C_35
   18  A    between atoms: C_34  and  C_35
                            x       y       z     vdW  Elec       q    Type
                         _______ _______ _______ _____ _____    ______ ____

>  <TORSDO>
F 18

$$$$
=
 OpenBabel11052410573D

 37 38  0  0  1  0  0  0  0  0999 V2000
  161.8630  207.7420  151.5070 C   0  0  0  0  0  2  0  0  0  0  0  0
  161.1800  205.9870  153.0900 C   0  0  0  0  0  1  0  0  0  0  0  0
  163.1250  205.6020  151.6480 C   0  0  0  0  0  1  0  0  0  0  0  0
  161.7390  206.2280  151.6990 C   0  0  0  0  0  0  0  0  0  0  0  0
  160.6960  206.4330  149.3450 C   0  0  0  0  0  1  0  0  0  0  0  0
  160.8390  205.5940  150.6120 C   0  0  1  0  0  3  0  0  0  0  0  0
  160.7980  203.0550  151.0650 C   0  0  0  0  0  0  0  0  0  0  0  0
  161.1830  204.2040  150.3010 N   0  0  0  0  0  2  0  0  0  0  0  0
  160.1570  203.1800  152.1420 O   0  0  0  0  0  0  0  0  0  0  0  0
  161.2060  201.6940  150.6110 C   0  0  0  0  0  2  0  0  0  0  0  0
  160.5360  201.3270  149.2910 C   0  0  0  0  0  2  0  0  0  0  0  0
  161.5380  201.2880  148.1450 C   0  0  0  0  0  2  0  0  0  0  0  0
  160.1270  202.1300  144.8750 O   0  0  0  0  0  0  0  0  0  0  0  0
  160.7670  202.2720  145.9500 C   0  0  0  0  0  0  0  0  0  0  0  0
  160.8430  201.1830  146.8700 N   0  0  0  0  0  2  0  0  0  0  0  0
  161.4180  203.5840  146.2510 C   0  0  0  0  0  2  0  0  0  0  0  0
  160.9640  205.5280  144.9710 O   0  0  0  0  0  0  0  0  0  0  0  0
  161.6840  204.3560  144.9710 C   0  0  0  0  0  3  0  0  0  0  0  0
  162.2680  205.5620  145.2840 O   0  0  0  0  0  0  0  0  0  0  0  0
  160.7360  208.6930  152.5860 S   0  0  0  0  0  0  0  0  0  0  0  0
  161.4210  210.2930  152.0260 C   0  0  2  0  0  3  0  0  0  0  0  0
  159.2790  212.1270  154.6780 C   0  0  0  0  0  0  0  0  0  0  0  0
  159.3830  211.7550  152.3470 C   0  0  0  0  0  2  0  0  0  0  0  0
  160.7400  211.1110  154.5850 S   0  0  0  0  0  0  0  0  0  0  0  0
  158.8570  212.7180  155.9810 C   0  0  0  0  0  1  0  0  0  0  0  0
  158.6890  212.3700  153.5090 C   0  0  0  0  0  0  0  0  0  0  0  0
  160.8110  211.4660  152.7960 C   0  0  1  0  0  3  0  0  0  0  0  0
  156.4020  212.9140  153.9290 O   0  0  0  0  0  0  0  0  0  0  0  0
  157.4680  213.1810  153.3090 C   0  0  0  0  0  0  0  0  0  0  0  0
  157.5040  214.2490  152.4090 O   0  0  0  0  0  0  0  0  0  0  0  0
  157.2530  213.9140  150.0490 C   0  0  0  0  0  1  0  0  0  0  0  0
  156.5840  214.3550  151.3340 C   0  0  0  0  0  2  0  0  0  0  0  0
  161.2100  210.4520  150.5220 C   0  0  0  0  0  2  0  0  0  0  0  0
  162.3330  211.0280  149.9230 O   0  0  0  0  0  0  0  0  0  0  0  0
  162.2370  212.2310  147.4220 O   0  0  0  0  0  0  0  0  0  0  0  0
  160.6230  213.1180  149.2820 O   0  0  0  0  0  0  0  0  0  0  0  0
  161.7080  212.1650  148.8370 P   0  0  0  0  0  0  0  0  0  0  0  0
  1  4  1  0  0  0  0
  1 20  1  0  0  0  0
  3  4  1  0  0  0  0
  4  2  1  0  0  0  0
  6  5  1  6  0  0  0
  6  4  1  0  0  0  0
  7  9  2  0  0  0  0
  8  6  1  0  0  0  0
  8  7  1  0  0  0  0
 10  7  1  0  0  0  0
 11 10  1  0  0  0  0
 12 11  1  0  0  0  0
 13 14  2  0  0  0  0
 14 16  1  0  0  0  0
 14 15  1  0  0  0  0
 15 12  1  0  0  0  0
 17 19  1  0  0  0  0
 18 17  1  0  0  0  0
 18 19  1  0  0  0  0
 18 16  1  0  0  0  0
 21 33  1  6  0  0  0
 21 20  1  0  0  0  0
 22 25  1  0  0  0  0
 23 27  1  0  0  0  0
 23 26  1  0  0  0  0
 24 22  1  0  0  0  0
 26 22  2  0  0  0  0
 27 21  1  6  0  0  0
 27 24  1  0  0  0  0
 29 26  1  0  0  0  0
 29 28  2  0  0  0  0
 30 29  1  0  0  0  0
 31 32  1  0  0  0  0
 32 30  1  0  0  0  0
 34 33  1  0  0  0  0
 35 37  2  0  0  0  0
 37 36  2  0  0  0  0
 37 34  1  0  0  0  0
M  END
>  <MODEL>
8

>  <REMARK>
 VINA RESULT:      -5.7      3.252      9.234
  Name = 
  18 active torsions:
  status: ('A' for Active; 'I' for Inactive)
    1  A    between atoms: C_1  and  C_28
    2  A    between atoms: S_4  and  C_13
    3  A    between atoms: S_4  and  C_34
    4  A    between atoms: C_6  and  C_10
    5  A    between atoms: C_6  and  C_22
    6  A    between atoms: N_7  and  C_32
    7  A    between atoms: C_9  and  C_21
    8  A    between atoms: C_9  and  N_31
    9  A    between atoms: O_11  and  C_36
   10  A    between atoms: O_11  and  C_37
   11  A    between atoms: C_13  and  C_30
   12  A    between atoms: C_21  and  C_28
   13  A    between atoms: C_24  and  C_36
   14  A    between atoms: C_25  and  C_34
   15  A    between atoms: P_26  and  O_33
   16  A    between atoms: C_30  and  C_32
   17  A    between atoms: O_33  and  C_35
   18  A    between atoms: C_34  and  C_35
                            x       y       z     vdW  Elec       q    Type
                         _______ _______ _______ _____ _____    ______ ____

>  <TORSDO>
F 18

$$$$
=
 OpenBabel11052410573D

 37 38  0  0  1  0  0  0  0  0999 V2000
  162.3420  207.1350  151.3130 C   0  0  0  0  0  2  0  0  0  0  0  0
  162.3460  206.1980  149.0390 C   0  0  0  0  0  1  0  0  0  0  0  0
  160.2020  206.6750  150.1300 C   0  0  0  0  0  1  0  0  0  0  0  0
  161.6180  206.1710  150.3710 C   0  0  0  0  0  0  0  0  0  0  0  0
  161.1410  204.6740  152.4210 C   0  0  0  0  0  1  0  0  0  0  0  0
  161.5690  204.7400  150.9580 C   0  0  1  0  0  3  0  0  0  0  0  0
  160.8300  202.3650  150.2730 C   0  0  0  0  0  0  0  0  0  0  0  0
  160.8160  203.7910  150.1330 N   0  0  0  0  0  2  0  0  0  0  0  0
  161.5770  201.8060  151.1180 O   0  0  0  0  0  0  0  0  0  0  0  0
  159.9920  201.5250  149.3690 C   0  0  0  0  0  2  0  0  0  0  0  0
  160.8500  200.5480  148.5700 C   0  0  0  0  0  2  0  0  0  0  0  0
  161.6310  201.2560  147.4730 C   0  0  0  0  0  2  0  0  0  0  0  0
  159.8970  202.6450  144.5650 O   0  0  0  0  0  0  0  0  0  0  0  0
  160.6310  202.6070  145.5870 C   0  0  0  0  0  0  0  0  0  0  0  0
  160.8230  201.3660  146.2670 N   0  0  0  0  0  2  0  0  0  0  0  0
  161.2720  203.8640  146.0800 C   0  0  0  0  0  2  0  0  0  0  0  0
  161.0190  206.1460  145.4840 O   0  0  0  0  0  0  0  0  0  0  0  0
  161.3270  204.9050  144.9750 C   0  0  0  0  0  3  0  0  0  0  0  0
  162.3040  205.8270  145.2730 O   0  0  0  0  0  0  0  0  0  0  0  0
  161.9390  208.8870  150.9900 S   0  0  0  0  0  0  0  0  0  0  0  0
  160.8420  208.9880  152.4490 C   0  0  2  0  0  3  0  0  0  0  0  0
  159.9140  211.9670  154.7400 C   0  0  0  0  0  0  0  0  0  0  0  0
  159.0830  210.7500  152.8930 C   0  0  0  0  0  2  0  0  0  0  0  0
  161.2290  210.7840  154.5230 S   0  0  0  0  0  0  0  0  0  0  0  0
  160.0410  213.0520  155.7550 C   0  0  0  0  0  1  0  0  0  0  0  0
  158.9040  211.8450  153.8810 C   0  0  0  0  0  0  0  0  0  0  0  0
  160.5760  210.4390  152.8550 C   0  0  1  0  0  3  0  0  0  0  0  0
  157.7210  213.8420  153.3150 O   0  0  0  0  0  0  0  0  0  0  0  0
  157.6940  212.6960  153.8440 C   0  0  0  0  0  0  0  0  0  0  0  0
  156.5120  212.2190  154.4160 O   0  0  0  0  0  0  0  0  0  0  0  0
  155.3230  211.0410  156.1320 C   0  0  0  0  0  1  0  0  0  0  0  0
  156.3510  212.1090  155.8220 C   0  0  0  0  0  2  0  0  0  0  0  0
  161.4420  208.1940  153.6070 C   0  0  0  0  0  2  0  0  0  0  0  0
  160.4820  207.3600  154.1860 O   0  0  0  0  0  0  0  0  0  0  0  0
  161.8690  208.3390  156.3840 O   0  0  0  0  0  0  0  0  0  0  0  0
  159.6900  206.9530  156.8150 O   0  0  0  0  0  0  0  0  0  0  0  0
  160.6870  207.5580  155.8540 P   0  0  0  0  0  0  0  0  0  0  0  0
  2  4  1  0  0  0  0
  3  4  1  0  0  0  0
  4  6  1  0  0  0  0
  4  1  1  0  0  0  0
  6  5  1  1  0  0  0
  7  9  2  0  0  0  0
  8  7  1  0  0  0  0
  8  6  1  0  0  0  0
 10  7  1  0  0  0  0
 11 10  1  0  0  0  0
 12 11  1  0  0  0  0
 13 14  2  0  0  0  0
 14 16  1  0  0  0  0
 14 15  1  0  0  0  0
 15 12  1  0  0  0  0
 18 19  1  0  0  0  0
 18 17  1  0  0  0  0
 18 16  1  0  0  0  0
 19 17  1  0  0  0  0
 20  1  1  0  0  0  0
 20 21  1  0  0  0  0
 21 33  1  1  0  0  0
 22 25  1  0  0  0  0
 23 26  1  0  0  0  0
 24 22  1  0  0  0  0
 26 22  2  0  0  0  0
 27 21  1  1  0  0  0
 27 23  1  0  0  0  0
 27 24  1  0  0  0  0
 28 29  2  0  0  0  0
 29 26  1  0  0  0  0
 29 30  1  0  0  0  0
 30 32  1  0  0  0  0
 32 31  1  0  0  0  0
 33 34  1  0  0  0  0
 34 37  1  0  0  0  0
 37 35  2  0  0  0  0
 37 36  2  0  0  0  0
M  END
>  <MODEL>
9

>  <REMARK>
 VINA RESULT:      -5.6      4.107      9.629
  Name = 
  18 active torsions:
  status: ('A' for Active; 'I' for Inactive)
    1  A    between atoms: C_1  and  C_28
    2  A    between atoms: S_4  and  C_13
    3  A    between atoms: S_4  and  C_34
    4  A    between atoms: C_6  and  C_10
    5  A    between atoms: C_6  and  C_22
    6  A    between atoms: N_7  and  C_32
    7  A    between atoms: C_9  and  C_21
    8  A    between atoms: C_9  and  N_31
    9  A    between atoms: O_11  and  C_36
   10  A    between atoms: O_11  and  C_37
   11  A    between atoms: C_13  and  C_30
   12  A    between atoms: C_21  and  C_28
   13  A    between atoms: C_24  and  C_36
   14  A    between atoms: C_25  and  C_34
   15  A    between atoms: P_26  and  O_33
   16  A    between atoms: C_30  and  C_32
   17  A    between atoms: O_33  and  C_35
   18  A    between atoms: C_34  and  C_35
                            x       y       z     vdW  Elec       q    Type
                         _______ _______ _______ _____ _____    ______ ____

>  <TORSDO>
F 18

$$$$
