=
 OpenBabel11042420293D

 31 34  0  0  0  0  0  0  0  0999 V2000
  161.1990  201.6130  150.2180 C   0  0  0  0  0  0  0  0  0  0  0  0
  161.1850  205.3150  149.4930 C   0  0  0  0  0  0  0  0  0  0  0  0
  161.2010  205.4500  148.0580 C   0  0  0  0  0  0  0  0  0  0  0  0
  162.0190  204.2730  145.9610 C   0  0  0  0  0  2  0  0  0  0  0  0
  161.1750  204.0590  150.1840 C   0  0  0  0  0  0  0  0  0  0  0  0
  161.1790  201.6150  151.6100 C   0  0  0  0  0  3  0  0  0  0  0  0
  161.0770  204.2390  147.1570 C   0  0  0  0  0  2  0  0  0  0  0  0
  161.1790  206.4530  151.6960 C   0  0  0  0  0  0  0  0  0  0  0  0
  161.2260  200.3800  149.5120 N   0  0  0  0  0  1  0  0  0  0  0  0
  161.2410  207.8800  148.2970 C   0  0  0  0  0  3  0  0  0  0  0  0
  161.3580  204.9890  144.7790 C   0  0  0  0  0  2  0  0  0  0  0  0
  161.1660  205.2160  152.3340 C   0  0  0  0  0  3  0  0  0  0  0  0
  161.1920  206.5070  150.2870 C   0  0  0  0  0  0  0  0  0  0  0  0
  161.1960  202.8190  149.5180 C   0  0  0  0  0  3  0  0  0  0  0  0
  160.5450  206.1280  145.2050 N   0  0  0  0  0  2  0  0  0  0  0  0
  161.1640  204.0370  151.6050 C   0  0  0  0  0  0  0  0  0  0  0  0
  161.1600  202.8240  152.3010 C   0  0  0  0  0  3  0  0  0  0  0  0
  161.2160  207.7590  149.6740 C   0  0  0  0  0  3  0  0  0  0  0  0
  161.2250  206.7540  147.4800 C   0  0  0  0  0  0  0  0  0  0  0  0
  161.3740  207.0220  146.0040 C   0  0  0  0  0  2  0  0  0  0  0  0
  162.5510  210.9200  156.4520 C   0  0  0  0  0  0  0  0  0  0  0  0
  161.5890  210.1310  153.7000 O   0  0  0  0  0  1  0  0  0  0  0  0
  159.5670  208.8490  156.2420 O   0  0  0  0  0  0  0  0  0  0  0  0
  160.1490  206.9720  154.4220 O   0  0  0  0  0  0  0  0  0  0  0  0
  162.9910  212.0890  157.2610 C   0  0  0  0  0  1  0  0  0  0  0  0
  160.7620  207.8850  153.8020 C   0  0  0  0  0  0  0  0  0  0  0  0
  163.3820  210.3390  155.7060 O   0  0  0  0  0  0  0  0  0  0  0  0
  160.5750  209.4420  155.7750 C   0  0  0  0  0  0  0  0  0  0  0  0
  161.0300  209.1450  154.4420 N   0  0  0  0  0  0  0  0  0  0  0  0
  161.2170  207.6750  152.4590 N   0  0  0  0  0  2  0  0  0  0  0  0
  161.2060  210.4470  156.5810 N   0  0  0  0  0  2  0  0  0  0  0  0
  1  6  1  0  0  0  0
  2  5  2  0  0  0  0
  2 13  1  0  0  0  0
  3  2  1  0  0  0  0
  4  7  1  0  0  0  0
  5 16  1  0  0  0  0
  6 17  2  0  0  0  0
  7  3  1  0  0  0  0
  8 12  1  0  0  0  0
  8 30  1  0  0  0  0
  9  1  1  0  0  0  0
 10 18  2  0  0  0  0
 11 15  1  0  0  0  0
 11  4  1  0  0  0  0
 13  8  2  0  0  0  0
 14  5  1  0  0  0  0
 14  1  2  0  0  0  0
 15 20  1  0  0  0  0
 16 17  1  0  0  0  0
 16 12  2  0  0  0  0
 18 13  1  0  0  0  0
 19  3  2  0  0  0  0
 19 10  1  0  0  0  0
 20 19  1  0  0  0  0
 21 31  1  0  0  0  0
 21 25  1  0  0  0  0
 22 29  1  0  0  0  0
 26 24  2  0  0  0  0
 26 29  1  0  0  0  0
 27 21  2  0  0  0  0
 28 23  2  0  0  0  0
 28 31  1  0  0  0  0
 29 28  1  0  0  0  0
 30 26  1  0  0  0  0
M  END
>  <MODEL>
1

>  <REMARK>
 VINA RESULT:      -8.9      0.000      0.000
  Name = 
  1 active torsions:
  status: ('A' for Active; 'I' for Inactive)
    1  A    between atoms: C_15  and  N_23
                            x       y       z     vdW  Elec       q    Type
                         _______ _______ _______ _____ _____    ______ ____

>  <TORSDO>
F 1

$$$$
=
 OpenBabel11042420293D

 31 34  0  0  0  0  0  0  0  0999 V2000
  161.3310  200.9880  148.9670 C   0  0  0  0  0  0  0  0  0  0  0  0
  161.0400  204.7480  148.8440 C   0  0  0  0  0  0  0  0  0  0  0  0
  161.1080  205.1160  147.4520 C   0  0  0  0  0  0  0  0  0  0  0  0
  162.1110  204.3640  145.2440 C   0  0  0  0  0  2  0  0  0  0  0  0
  161.1050  203.3980  149.3240 C   0  0  0  0  0  0  0  0  0  0  0  0
  161.2500  200.7610  150.3390 C   0  0  0  0  0  3  0  0  0  0  0  0
  161.1240  204.0640  146.3640 C   0  0  0  0  0  2  0  0  0  0  0  0
  160.8420  205.5050  151.1980 C   0  0  0  0  0  0  0  0  0  0  0  0
  161.4930  199.8930  148.0750 N   0  0  0  0  0  1  0  0  0  0  0  0
  160.9330  207.4700  148.0790 C   0  0  0  0  0  3  0  0  0  0  0  0
  161.4440  205.2130  144.1570 C   0  0  0  0  0  2  0  0  0  0  0  0
  160.9050  204.1830  151.6270 C   0  0  0  0  0  3  0  0  0  0  0  0
  160.9120  205.7900  149.8180 C   0  0  0  0  0  0  0  0  0  0  0  0
  161.2580  202.2890  148.4700 C   0  0  0  0  0  3  0  0  0  0  0  0
  160.5210  206.2020  144.7120 N   0  0  0  0  0  2  0  0  0  0  0  0
  161.0330  203.1420  150.7200 C   0  0  0  0  0  0  0  0  0  0  0  0
  161.1010  201.8350  151.2120 C   0  0  0  0  0  3  0  0  0  0  0  0
  160.8580  207.1240  149.4150 C   0  0  0  0  0  3  0  0  0  0  0  0
  161.0470  206.4960  147.0930 C   0  0  0  0  0  0  0  0  0  0  0  0
  161.2370  207.0130  145.6900 C   0  0  0  0  0  2  0  0  0  0  0  0
  159.8320  211.5310  153.8660 C   0  0  0  0  0  0  0  0  0  0  0  0
  160.1940  208.5380  154.0420 O   0  0  0  0  0  1  0  0  0  0  0  0
  163.0290  210.1570  152.8030 O   0  0  0  0  0  0  0  0  0  0  0  0
  162.4080  208.0130  151.3210 O   0  0  0  0  0  0  0  0  0  0  0  0
  159.3790  212.7150  154.6440 C   0  0  0  0  0  1  0  0  0  0  0  0
  161.4760  207.8170  152.1510 C   0  0  0  0  0  0  0  0  0  0  0  0
  158.9790  210.8210  153.2720 O   0  0  0  0  0  0  0  0  0  0  0  0
  161.8330  210.0860  153.1890 C   0  0  0  0  0  0  0  0  0  0  0  0
  161.1220  208.8370  153.1010 N   0  0  0  0  0  0  0  0  0  0  0  0
  160.7450  206.5840  152.1460 N   0  0  0  0  0  2  0  0  0  0  0  0
  161.2330  211.2560  153.7630 N   0  0  0  0  0  2  0  0  0  0  0  0
  1  6  1  0  0  0  0
  2  5  2  0  0  0  0
  2 13  1  0  0  0  0
  3  2  1  0  0  0  0
  4  7  1  0  0  0  0
  5 16  1  0  0  0  0
  6 17  2  0  0  0  0
  7  3  1  0  0  0  0
  8 12  1  0  0  0  0
  8 30  1  0  0  0  0
  9  1  1  0  0  0  0
 10 18  2  0  0  0  0
 11 15  1  0  0  0  0
 11  4  1  0  0  0  0
 13  8  2  0  0  0  0
 14  1  2  0  0  0  0
 14  5  1  0  0  0  0
 15 20  1  0  0  0  0
 16 17  1  0  0  0  0
 16 12  2  0  0  0  0
 18 13  1  0  0  0  0
 19  3  2  0  0  0  0
 19 10  1  0  0  0  0
 20 19  1  0  0  0  0
 21 25  1  0  0  0  0
 23 28  2  0  0  0  0
 24 26  2  0  0  0  0
 26 29  1  0  0  0  0
 27 21  2  0  0  0  0
 28 31  1  0  0  0  0
 29 28  1  0  0  0  0
 29 22  1  0  0  0  0
 30 26  1  0  0  0  0
 31 21  1  0  0  0  0
M  END
>  <MODEL>
2

>  <REMARK>
 VINA RESULT:      -8.4      1.704      2.209
  Name = 
  1 active torsions:
  status: ('A' for Active; 'I' for Inactive)
    1  A    between atoms: C_15  and  N_23
                            x       y       z     vdW  Elec       q    Type
                         _______ _______ _______ _____ _____    ______ ____

>  <TORSDO>
F 1

$$$$
=
 OpenBabel11042420293D

 31 34  0  0  0  0  0  0  0  0999 V2000
  161.6090  206.0790  146.1950 C   0  0  0  0  0  0  0  0  0  0  0  0
  161.1630  204.8180  149.7230 C   0  0  0  0  0  0  0  0  0  0  0  0
  161.1270  203.3790  149.6400 C   0  0  0  0  0  0  0  0  0  0  0  0
  160.4560  201.4960  148.0740 C   0  0  0  0  0  2  0  0  0  0  0  0
  161.3300  205.6860  148.5940 C   0  0  0  0  0  0  0  0  0  0  0  0
  161.6330  207.4560  146.4070 C   0  0  0  0  0  3  0  0  0  0  0  0
  161.3980  202.6640  148.3330 C   0  0  0  0  0  2  0  0  0  0  0  0
  161.0350  206.8300  151.1670 C   0  0  0  0  0  0  0  0  0  0  0  0
  161.7330  205.5630  144.8770 N   0  0  0  0  0  1  0  0  0  0  0  0
  160.7890  203.2590  152.0550 C   0  0  0  0  0  3  0  0  0  0  0  0
  161.0210  200.2080  148.6820 C   0  0  0  0  0  2  0  0  0  0  0  0
  161.2020  207.6420  150.0500 C   0  0  0  0  0  3  0  0  0  0  0  0
  161.0120  205.4280  151.0100 C   0  0  0  0  0  0  0  0  0  0  0  0
  161.4610  205.2100  147.2760 C   0  0  0  0  0  3  0  0  0  0  0  0
  161.6880  200.4450  149.9620 N   0  0  0  0  0  2  0  0  0  0  0  0
  161.3480  207.0940  148.7840 C   0  0  0  0  0  0  0  0  0  0  0  0
  161.5030  207.9610  147.6980 C   0  0  0  0  0  3  0  0  0  0  0  0
  160.8310  204.6380  152.1450 C   0  0  0  0  0  3  0  0  0  0  0  0
  160.9420  202.6160  150.8310 C   0  0  0  0  0  0  0  0  0  0  0  0
  160.7570  201.1210  150.8580 C   0  0  0  0  0  2  0  0  0  0  0  0
  159.3730  211.0360  156.0660 C   0  0  0  0  0  0  0  0  0  0  0  0
  160.1500  208.3180  155.0030 O   0  0  0  0  0  1  0  0  0  0  0  0
  162.6580  210.7030  154.5380 O   0  0  0  0  0  0  0  0  0  0  0  0
  162.2480  209.2760  152.3080 O   0  0  0  0  0  0  0  0  0  0  0  0
  158.8100  211.7210  157.2610 C   0  0  0  0  0  1  0  0  0  0  0  0
  161.4030  208.6250  152.9840 C   0  0  0  0  0  0  0  0  0  0  0  0
  158.5910  210.5080  155.2330 O   0  0  0  0  0  0  0  0  0  0  0  0
  161.5080  210.3040  154.8600 C   0  0  0  0  0  0  0  0  0  0  0  0
  160.9700  209.1070  154.2680 N   0  0  0  0  0  0  0  0  0  0  0  0
  160.8480  207.4050  152.4750 N   0  0  0  0  0  2  0  0  0  0  0  0
  160.7900  211.0380  155.8620 N   0  0  0  0  0  2  0  0  0  0  0  0
  1  6  2  0  0  0  0
  1 14  1  0  0  0  0
  2 13  1  0  0  0  0
  3  2  2  0  0  0  0
  3 19  1  0  0  0  0
  4  7  1  0  0  0  0
  4 11  1  0  0  0  0
  5 16  1  0  0  0  0
  5  2  1  0  0  0  0
  6 17  1  0  0  0  0
  7  3  1  0  0  0  0
  8 30  1  0  0  0  0
  9  1  1  0  0  0  0
 10 18  1  0  0  0  0
 11 15  1  0  0  0  0
 12  8  2  0  0  0  0
 13  8  1  0  0  0  0
 13 18  2  0  0  0  0
 14  5  2  0  0  0  0
 15 20  1  0  0  0  0
 16 12  1  0  0  0  0
 17 16  2  0  0  0  0
 19 20  1  0  0  0  0
 19 10  2  0  0  0  0
 21 25  1  0  0  0  0
 23 28  2  0  0  0  0
 24 26  2  0  0  0  0
 26 29  1  0  0  0  0
 27 21  2  0  0  0  0
 28 31  1  0  0  0  0
 29 28  1  0  0  0  0
 29 22  1  0  0  0  0
 30 26  1  0  0  0  0
 31 21  1  0  0  0  0
M  END
>  <MODEL>
3

>  <REMARK>
 VINA RESULT:      -7.8      1.322      4.374
  Name = 
  1 active torsions:
  status: ('A' for Active; 'I' for Inactive)
    1  A    between atoms: C_15  and  N_23
                            x       y       z     vdW  Elec       q    Type
                         _______ _______ _______ _____ _____    ______ ____

>  <TORSDO>
F 1

$$$$
=
 OpenBabel11042420293D

 31 34  0  0  0  0  0  0  0  0999 V2000
  160.7820  209.5750  154.5410 C   0  0  0  0  0  0  0  0  0  0  0  0
  161.4710  208.9400  150.8860 C   0  0  0  0  0  0  0  0  0  0  0  0
  161.5060  210.2320  150.2480 C   0  0  0  0  0  0  0  0  0  0  0  0
  160.5330  212.5690  150.4370 C   0  0  0  0  0  2  0  0  0  0  0  0
  161.2430  208.7400  152.2880 C   0  0  0  0  0  0  0  0  0  0  0  0
  160.7750  208.2750  155.0400 C   0  0  0  0  0  3  0  0  0  0  0  0
  161.4300  211.5080  151.0590 C   0  0  0  0  0  2  0  0  0  0  0  0
  161.6380  206.4790  150.6300 C   0  0  0  0  0  0  0  0  0  0  0  0
  160.5480  210.6710  155.4160 N   0  0  0  0  0  1  0  0  0  0  0  0
  161.8970  209.1440  148.0960 C   0  0  0  0  0  3  0  0  0  0  0  0
  161.3340  213.4490  149.4730 C   0  0  0  0  0  2  0  0  0  0  0  0
  161.4170  206.3230  151.9960 C   0  0  0  0  0  3  0  0  0  0  0  0
  161.6620  207.7750  150.0750 C   0  0  0  0  0  0  0  0  0  0  0  0
  161.0140  209.8010  153.1840 C   0  0  0  0  0  3  0  0  0  0  0  0
  162.3290  212.6850  148.7200 N   0  0  0  0  0  2  0  0  0  0  0  0
  161.2230  207.4220  152.8180 C   0  0  0  0  0  0  0  0  0  0  0  0
  160.9960  207.2020  154.1800 C   0  0  0  0  0  3  0  0  0  0  0  0
  161.8740  207.9020  148.7030 C   0  0  0  0  0  3  0  0  0  0  0  0
  161.7280  210.3070  148.8400 C   0  0  0  0  0  0  0  0  0  0  0  0
  161.6580  211.5830  148.0410 C   0  0  0  0  0  2  0  0  0  0  0  0
  160.4470  201.6710  146.1660 C   0  0  0  0  0  0  0  0  0  0  0  0
  162.2760  203.3690  147.8670 O   0  0  0  0  0  1  0  0  0  0  0  0
  160.1400  201.3770  149.7790 O   0  0  0  0  0  0  0  0  0  0  0  0
  160.1960  203.8940  150.6920 O   0  0  0  0  0  0  0  0  0  0  0  0
  160.4390  200.7370  145.0090 C   0  0  0  0  0  1  0  0  0  0  0  0
  161.0510  204.1110  149.7880 C   0  0  0  0  0  0  0  0  0  0  0  0
  160.4260  202.9120  145.9560 O   0  0  0  0  0  0  0  0  0  0  0  0
  160.5800  201.8810  148.7130 C   0  0  0  0  0  0  0  0  0  0  0  0
  161.2710  203.1430  148.7470 N   0  0  0  0  0  0  0  0  0  0  0  0
  161.8040  205.3320  149.7750 N   0  0  0  0  0  2  0  0  0  0  0  0
  160.4220  201.1400  147.4950 N   0  0  0  0  0  2  0  0  0  0  0  0
  1  6  1  0  0  0  0
  1  9  1  0  0  0  0
  2  5  1  0  0  0  0
  3  2  1  0  0  0  0
  3  7  1  0  0  0  0
  4  7  1  0  0  0  0
  5 16  2  0  0  0  0
  5 14  1  0  0  0  0
  8 12  2  0  0  0  0
 10 18  2  0  0  0  0
 10 19  1  0  0  0  0
 11  4  1  0  0  0  0
 12 16  1  0  0  0  0
 13  8  1  0  0  0  0
 13  2  2  0  0  0  0
 14  1  2  0  0  0  0
 15 11  1  0  0  0  0
 16 17  1  0  0  0  0
 17  6  2  0  0  0  0
 18 13  1  0  0  0  0
 19  3  2  0  0  0  0
 20 15  1  0  0  0  0
 20 19  1  0  0  0  0
 21 31  1  0  0  0  0
 22 29  1  0  0  0  0
 25 21  1  0  0  0  0
 26 24  2  0  0  0  0
 27 21  2  0  0  0  0
 28 29  1  0  0  0  0
 28 23  2  0  0  0  0
 29 26  1  0  0  0  0
 30 26  1  0  0  0  0
 30  8  1  0  0  0  0
 31 28  1  0  0  0  0
M  END
>  <MODEL>
4

>  <REMARK>
 VINA RESULT:      -7.5      3.760      8.106
  Name = 
  1 active torsions:
  status: ('A' for Active; 'I' for Inactive)
    1  A    between atoms: C_15  and  N_23
                            x       y       z     vdW  Elec       q    Type
                         _______ _______ _______ _____ _____    ______ ____

>  <TORSDO>
F 1

$$$$
=
 OpenBabel11042420293D

 31 34  0  0  0  0  0  0  0  0999 V2000
  161.4460  205.5810  146.2210 C   0  0  0  0  0  0  0  0  0  0  0  0
  161.2770  205.2420  149.9750 C   0  0  0  0  0  0  0  0  0  0  0  0
  161.0940  203.8390  150.2500 C   0  0  0  0  0  0  0  0  0  0  0  0
  160.0750  201.7370  149.2550 C   0  0  0  0  0  2  0  0  0  0  0  0
  161.4000  205.7960  148.6580 C   0  0  0  0  0  0  0  0  0  0  0  0
  161.6250  206.9560  146.0870 C   0  0  0  0  0  3  0  0  0  0  0  0
  161.1470  202.8110  149.1390 C   0  0  0  0  0  2  0  0  0  0  0  0
  161.5040  207.5370  150.8890 C   0  0  0  0  0  0  0  0  0  0  0  0
  161.3720  204.7600  145.0630 N   0  0  0  0  0  1  0  0  0  0  0  0
  161.0170  204.3290  152.6410 C   0  0  0  0  0  3  0  0  0  0  0  0
  160.5770  200.5690  150.1090 C   0  0  0  0  0  2  0  0  0  0  0  0
  161.6240  208.0390  149.5960 C   0  0  0  0  0  3  0  0  0  0  0  0
  161.3290  206.1510  151.0810 C   0  0  0  0  0  0  0  0  0  0  0  0
  161.3370  205.0130  147.4900 C   0  0  0  0  0  3  0  0  0  0  0  0
  161.4020  201.0160  151.2310 N   0  0  0  0  0  2  0  0  0  0  0  0
  161.5740  207.1970  148.4960 C   0  0  0  0  0  0  0  0  0  0  0  0
  161.6890  207.7600  147.2210 C   0  0  0  0  0  3  0  0  0  0  0  0
  161.2020  205.6750  152.3860 C   0  0  0  0  0  3  0  0  0  0  0  0
  160.9700  203.4040  151.6020 C   0  0  0  0  0  0  0  0  0  0  0  0
  160.6460  201.9900  152.0100 C   0  0  0  0  0  2  0  0  0  0  0  0
  159.5180  211.3990  155.9480 C   0  0  0  0  0  0  0  0  0  0  0  0
  161.5860  209.7990  154.4370 O   0  0  0  0  0  1  0  0  0  0  0  0
  160.3980  212.5210  152.6010 O   0  0  0  0  0  0  0  0  0  0  0  0
  160.4550  210.2950  151.1120 O   0  0  0  0  0  0  0  0  0  0  0  0
  159.2510  212.0460  157.2600 C   0  0  0  0  0  1  0  0  0  0  0  0
  160.9530  209.7320  152.1270 C   0  0  0  0  0  0  0  0  0  0  0  0
  159.2930  210.1680  155.8100 O   0  0  0  0  0  0  0  0  0  0  0  0
  160.4210  211.7250  153.5760 C   0  0  0  0  0  0  0  0  0  0  0  0
  160.9410  210.3930  153.4050 N   0  0  0  0  0  0  0  0  0  0  0  0
  161.5210  208.4200  152.0270 N   0  0  0  0  0  2  0  0  0  0  0  0
  159.9720  212.2010  154.8530 N   0  0  0  0  0  2  0  0  0  0  0  0
  1 14  1  0  0  0  0
  2  3  2  0  0  0  0
  2 13  1  0  0  0  0
  3 19  1  0  0  0  0
  4 11  1  0  0  0  0
  5  2  1  0  0  0  0
  6  1  2  0  0  0  0
  6 17  1  0  0  0  0
  7  4  1  0  0  0  0
  7  3  1  0  0  0  0
  8 13  1  0  0  0  0
  8 30  1  0  0  0  0
  9  1  1  0  0  0  0
 11 15  1  0  0  0  0
 12  8  2  0  0  0  0
 13 18  2  0  0  0  0
 14  5  2  0  0  0  0
 15 20  1  0  0  0  0
 16  5  1  0  0  0  0
 16 12  1  0  0  0  0
 17 16  2  0  0  0  0
 18 10  1  0  0  0  0
 19 20  1  0  0  0  0
 19 10  2  0  0  0  0
 21 25  1  0  0  0  0
 23 28  2  0  0  0  0
 24 26  2  0  0  0  0
 26 29  1  0  0  0  0
 27 21  2  0  0  0  0
 28 31  1  0  0  0  0
 29 28  1  0  0  0  0
 29 22  1  0  0  0  0
 30 26  1  0  0  0  0
 31 21  1  0  0  0  0
M  END
>  <MODEL>
5

>  <REMARK>
 VINA RESULT:      -6.8      1.638      4.511
  Name = 
  1 active torsions:
  status: ('A' for Active; 'I' for Inactive)
    1  A    between atoms: C_15  and  N_23
                            x       y       z     vdW  Elec       q    Type
                         _______ _______ _______ _____ _____    ______ ____

>  <TORSDO>
F 1

$$$$
=
 OpenBabel11042420293D

 31 34  0  0  0  0  0  0  0  0999 V2000
  160.7670  207.5490  156.0170 C   0  0  0  0  0  0  0  0  0  0  0  0
  160.9160  207.6990  152.2500 C   0  0  0  0  0  0  0  0  0  0  0  0
  160.9870  206.3350  151.7900 C   0  0  0  0  0  0  0  0  0  0  0  0
  161.8340  204.0450  152.4890 C   0  0  0  0  0  2  0  0  0  0  0  0
  160.8350  208.0810  153.6290 C   0  0  0  0  0  0  0  0  0  0  0  0
  160.6990  208.9040  156.3340 C   0  0  0  0  0  3  0  0  0  0  0  0
  160.8500  205.1760  152.7550 C   0  0  0  0  0  2  0  0  0  0  0  0
  160.8730  210.1050  151.6500 C   0  0  0  0  0  0  0  0  0  0  0  0
  160.7740  206.5780  157.0550 N   0  0  0  0  0  1  0  0  0  0  0  0
  161.1070  207.1300  149.4840 C   0  0  0  0  0  3  0  0  0  0  0  0
  161.2410  203.0440  151.4920 C   0  0  0  0  0  2  0  0  0  0  0  0
  160.7920  210.4390  152.9980 C   0  0  0  0  0  3  0  0  0  0  0  0
  160.9380  208.7470  151.2740 C   0  0  0  0  0  0  0  0  0  0  0  0
  160.8330  207.1470  154.6830 C   0  0  0  0  0  3  0  0  0  0  0  0
  160.4560  203.7000  150.4460 N   0  0  0  0  0  2  0  0  0  0  0  0
  160.7730  209.4570  153.9770 C   0  0  0  0  0  0  0  0  0  0  0  0
  160.7000  209.8540  155.3160 C   0  0  0  0  0  3  0  0  0  0  0  0
  161.0300  208.4400  149.9160 C   0  0  0  0  0  3  0  0  0  0  0  0
  161.0780  206.0750  150.3910 C   0  0  0  0  0  0  0  0  0  0  0  0
  161.2890  204.7050  149.7970 C   0  0  0  0  0  2  0  0  0  0  0  0
  161.1340  213.1690  145.7340 C   0  0  0  0  0  0  0  0  0  0  0  0
  160.6480  213.1120  148.7140 O   0  0  0  0  0  1  0  0  0  0  0  0
  163.9650  212.4010  147.8860 O   0  0  0  0  0  0  0  0  0  0  0  0
  163.0190  210.6600  149.6880 O   0  0  0  0  0  0  0  0  0  0  0  0
  160.9050  213.9900  144.5150 C   0  0  0  0  0  1  0  0  0  0  0  0
  161.9560  211.3420  149.6610 C   0  0  0  0  0  0  0  0  0  0  0  0
  160.2200  212.4080  146.1450 O   0  0  0  0  0  0  0  0  0  0  0  0
  162.7500  212.6230  147.6410 C   0  0  0  0  0  0  0  0  0  0  0  0
  161.7510  212.3300  148.6350 N   0  0  0  0  0  0  0  0  0  0  0  0
  160.9300  211.1300  150.6390 N   0  0  0  0  0  2  0  0  0  0  0  0
  162.4090  213.2220  146.3830 N   0  0  0  0  0  2  0  0  0  0  0  0
  1  6  1  0  0  0  0
  1  9  1  0  0  0  0
  2  5  1  0  0  0  0
  3  2  1  0  0  0  0
  3  7  1  0  0  0  0
  4  7  1  0  0  0  0
  5 16  2  0  0  0  0
  5 14  1  0  0  0  0
  8 12  2  0  0  0  0
 10 18  2  0  0  0  0
 10 19  1  0  0  0  0
 11  4  1  0  0  0  0
 12 16  1  0  0  0  0
 13  8  1  0  0  0  0
 13  2  2  0  0  0  0
 14  1  2  0  0  0  0
 15 11  1  0  0  0  0
 16 17  1  0  0  0  0
 17  6  2  0  0  0  0
 18 13  1  0  0  0  0
 19  3  2  0  0  0  0
 20 19  1  0  0  0  0
 20 15  1  0  0  0  0
 21 27  2  0  0  0  0
 21 31  1  0  0  0  0
 25 21  1  0  0  0  0
 26 24  2  0  0  0  0
 26 30  1  0  0  0  0
 28 23  2  0  0  0  0
 28 29  1  0  0  0  0
 29 22  1  0  0  0  0
 29 26  1  0  0  0  0
 30  8  1  0  0  0  0
 31 28  1  0  0  0  0
M  END
>  <MODEL>
6

>  <REMARK>
 VINA RESULT:      -6.7      3.826      7.037
  Name = 
  1 active torsions:
  status: ('A' for Active; 'I' for Inactive)
    1  A    between atoms: C_15  and  N_23
                            x       y       z     vdW  Elec       q    Type
                         _______ _______ _______ _____ _____    ______ ____

>  <TORSDO>
F 1

$$$$
=
 OpenBabel11042420293D

 31 34  0  0  0  0  0  0  0  0999 V2000
  161.3610  212.4600  149.7740 C   0  0  0  0  0  0  0  0  0  0  0  0
  161.3420  208.9970  151.2720 C   0  0  0  0  0  0  0  0  0  0  0  0
  161.1320  209.1660  152.6880 C   0  0  0  0  0  0  0  0  0  0  0  0
  161.5680  210.8040  154.5790 C   0  0  0  0  0  2  0  0  0  0  0  0
  161.4050  210.0780  150.3320 C   0  0  0  0  0  0  0  0  0  0  0  0
  161.5640  212.1660  148.4280 C   0  0  0  0  0  3  0  0  0  0  0  0
  160.8290  210.5280  153.2760 C   0  0  0  0  0  2  0  0  0  0  0  0
  161.7220  207.4260  149.3900 C   0  0  0  0  0  0  0  0  0  0  0  0
  161.2380  213.8120  150.1930 N   0  0  0  0  0  1  0  0  0  0  0  0
  161.2810  206.7470  152.9880 C   0  0  0  0  0  3  0  0  0  0  0  0
  160.7470  210.3100  155.7740 C   0  0  0  0  0  2  0  0  0  0  0  0
  161.7740  208.5000  148.5060 C   0  0  0  0  0  3  0  0  0  0  0  0
  161.5100  207.6680  150.7630 C   0  0  0  0  0  0  0  0  0  0  0  0
  161.2820  211.4280  150.7100 C   0  0  0  0  0  3  0  0  0  0  0  0
  160.0470  209.0570  155.4880 N   0  0  0  0  0  2  0  0  0  0  0  0
  161.6200  209.8030  148.9550 C   0  0  0  0  0  0  0  0  0  0  0  0
  161.6920  210.8410  148.0200 C   0  0  0  0  0  3  0  0  0  0  0  0
  161.4730  206.5760  151.6300 C   0  0  0  0  0  3  0  0  0  0  0  0
  161.1010  208.0160  153.5300 C   0  0  0  0  0  0  0  0  0  0  0  0
  161.0200  208.0710  155.0340 C   0  0  0  0  0  2  0  0  0  0  0  0
  160.7820  201.5690  146.3460 C   0  0  0  0  0  0  0  0  0  0  0  0
  162.4940  203.6370  147.7300 O   0  0  0  0  0  1  0  0  0  0  0  0
  160.0150  202.3370  149.8190 O   0  0  0  0  0  0  0  0  0  0  0  0
  160.1210  205.0080  149.9820 O   0  0  0  0  0  0  0  0  0  0  0  0
  160.8560  200.3410  145.5100 C   0  0  0  0  0  1  0  0  0  0  0  0
  161.0930  204.9330  149.1790 C   0  0  0  0  0  0  0  0  0  0  0  0
  160.8670  202.6970  145.7930 O   0  0  0  0  0  0  0  0  0  0  0  0
  160.6140  202.5000  148.7230 C   0  0  0  0  0  0  0  0  0  0  0  0
  161.3760  203.7000  148.4930 N   0  0  0  0  0  0  0  0  0  0  0  0
  161.9180  206.0780  148.9240 N   0  0  0  0  0  2  0  0  0  0  0  0
  160.5610  201.4440  147.7550 N   0  0  0  0  0  2  0  0  0  0  0  0
  1  9  1  0  0  0  0
  1 14  1  0  0  0  0
  2  3  1  0  0  0  0
  3  7  1  0  0  0  0
  3 19  2  0  0  0  0
  4 11  1  0  0  0  0
  5 14  2  0  0  0  0
  5  2  1  0  0  0  0
  6  1  2  0  0  0  0
  7  4  1  0  0  0  0
  8 13  1  0  0  0  0
 10 19  1  0  0  0  0
 12 16  1  0  0  0  0
 12  8  2  0  0  0  0
 13  2  2  0  0  0  0
 13 18  1  0  0  0  0
 15 11  1  0  0  0  0
 16  5  1  0  0  0  0
 17  6  1  0  0  0  0
 17 16  2  0  0  0  0
 18 10  2  0  0  0  0
 19 20  1  0  0  0  0
 20 15  1  0  0  0  0
 21 31  1  0  0  0  0
 22 29  1  0  0  0  0
 25 21  1  0  0  0  0
 26 24  2  0  0  0  0
 27 21  2  0  0  0  0
 28 23  2  0  0  0  0
 29 28  1  0  0  0  0
 29 26  1  0  0  0  0
 30 26  1  0  0  0  0
 30  8  1  0  0  0  0
 31 28  1  0  0  0  0
M  END
>  <MODEL>
7

>  <REMARK>
 VINA RESULT:      -6.3      3.686      9.052
  Name = 
  1 active torsions:
  status: ('A' for Active; 'I' for Inactive)
    1  A    between atoms: C_15  and  N_23
                            x       y       z     vdW  Elec       q    Type
                         _______ _______ _______ _____ _____    ______ ____

>  <TORSDO>
F 1

$$$$
