=
 OpenBabel11042423113D

 29 35  0  0  1  0  0  0  0  0999 V2000
  162.0670  209.4450  152.1090 C   0  0  1  0  0  3  0  0  0  0  0  0
  161.3470  210.0180  150.0420 C   0  0  1  0  0  3  0  0  0  0  0  0
  162.6410  207.3180  148.1780 O   0  0  0  0  0  0  0  0  0  0  0  0
  161.1240  206.3600  149.8110 C   0  0  2  0  0  3  0  0  0  0  0  0
  160.6350  207.2610  153.2310 C   0  0  0  0  0  2  0  0  0  0  0  0
  161.6020  206.6900  151.2220 C   0  0  2  0  0  0  0  0  0  0  0  0
  162.0410  205.6450  152.2310 C   0  0  0  0  0  2  0  0  0  0  0  0
  160.6580  207.6070  151.8020 N   0  0  2  0  0  0  0  0  0  0  0  0
  162.0360  208.6610  149.9520 C   0  0  1  0  0  3  0  0  0  0  0  0
  161.6080  205.0390  149.1970 C   0  0  0  0  0  2  0  0  0  0  0  0
  162.0190  208.1260  151.3770 C   0  0  1  0  0  0  0  0  0  0  0  0
  161.4250  207.5860  147.5390 C   0  0  1  0  0  3  0  0  0  0  0  0
  161.3700  204.9710  147.6730 C   0  0  1  0  0  3  0  0  0  0  0  0
  160.7920  206.2620  147.0400 C   0  0  0  0  0  2  0  0  0  0  0  0
  161.5340  207.5930  149.0190 C   0  0  1  0  0  0  0  0  0  0  0  0
  161.6520  210.4280  151.3910 N   0  0  0  0  0  2  0  0  0  0  0  0
  161.1820  205.8640  153.4340 C   0  0  0  0  0  2  0  0  0  0  0  0
  162.5700  204.6500  147.0380 O   0  0  0  0  0  1  0  0  0  0  0  0
  161.7880  209.9410  155.9710 C   0  0  0  0  0  1  0  0  0  0  0  0
  162.4080  210.9790  153.8980 O   0  0  0  0  0  0  0  0  0  0  0  0
  162.5380  209.6250  153.5290 C   0  0  1  0  0  3  0  0  0  0  0  0
  160.0670  210.3960  154.0580 C   0  0  0  0  0  1  0  0  0  0  0  0
  161.4960  210.0900  154.4890 C   0  0  0  0  0  0  0  0  0  0  0  0
  163.0550  210.7440  148.5310 O   0  0  0  0  0  0  0  0  0  0  0  0
  161.2960  212.6610  147.3120 C   0  0  0  0  0  1  0  0  0  0  0  0
  161.9260  210.9770  149.0480 C   0  0  0  0  0  0  0  0  0  0  0  0
  161.1960  212.1540  148.6730 N   0  0  0  0  0  0  0  0  0  0  0  0
  160.6380  213.0320  149.6870 C   0  0  0  0  0  2  0  0  0  0  0  0
  161.1820  214.2980  149.5790 F   0  0  0  0  0  0  0  0  0  0  0  0
  1 16  1  1  0  0  0
  1 21  1  0  0  0  0
  2 26  1  6  0  0  0
  2 16  1  0  0  0  0
  3 15  1  0  0  0  0
  4 10  1  6  0  0  0
  4  6  1  0  0  0  0
  5 17  1  0  0  0  0
  6 11  1  0  0  0  0
  6  8  1  0  0  0  0
  6  7  1  1  0  0  0
  7 17  1  0  0  0  0
  8  5  1  1  0  0  0
  9  2  1  0  0  0  0
  9 11  1  0  0  0  0
 11  8  1  0  0  0  0
 11  1  1  0  0  0  0
 12  3  1  0  0  0  0
 12 15  1  0  0  0  0
 13 10  1  0  0  0  0
 14 12  1  0  0  0  0
 14 13  1  0  0  0  0
 15  4  1  0  0  0  0
 15  9  1  0  0  0  0
 18 13  1  0  0  0  0
 20 23  1  0  0  0  0
 21 20  1  0  0  0  0
 21 23  1  0  0  0  0
 22 23  1  0  0  0  0
 23 19  1  0  0  0  0
 24 26  2  0  0  0  0
 25 27  1  0  0  0  0
 27 26  1  0  0  0  0
 27 28  1  0  0  0  0
 29 28  1  0  0  0  0
M  END
>  <MODEL>
1

>  <REMARK>
 VINA RESULT:      -6.2      0.000      0.000
  Name = 
  3 active torsions:
  status: ('A' for Active; 'I' for Inactive)
    1  A    between atoms: C_1  and  C_21
    2  A    between atoms: C_2  and  C_13
    3  A    between atoms: C_8  and  N_25
                            x       y       z     vdW  Elec       q    Type
                         _______ _______ _______ _____ _____    ______ ____

>  <TORSDO>
F 3

$$$$
=
 OpenBabel11042423113D

 29 35  0  0  1  0  0  0  0  0999 V2000
  161.7670  208.8440  151.9220 C   0  0  1  0  0  3  0  0  0  0  0  0
  161.9730  210.5800  150.4850 C   0  0  1  0  0  3  0  0  0  0  0  0
  158.8740  212.1790  151.0170 O   0  0  0  0  0  0  0  0  0  0  0  0
  160.0230  212.1800  153.1540 C   0  0  2  0  0  3  0  0  0  0  0  0
  162.0010  209.6110  154.6480 C   0  0  0  0  0  2  0  0  0  0  0  0
  160.2970  210.7460  153.5990 C   0  0  2  0  0  0  0  0  0  0  0  0
  159.7020  210.1220  154.8470 C   0  0  0  0  0  2  0  0  0  0  0  0
  161.7170  210.5310  153.5380 N   0  0  2  0  0  0  0  0  0  0  0  0
  160.6580  210.7350  151.2420 C   0  0  1  0  0  3  0  0  0  0  0  0
  158.7170  212.8270  153.6360 C   0  0  0  0  0  2  0  0  0  0  0  0
  160.8310  209.8820  152.4900 C   0  0  1  0  0  0  0  0  0  0  0  0
  159.7480  213.2520  150.8020 C   0  0  1  0  0  3  0  0  0  0  0  0
  158.3710  214.1140  152.8560 C   0  0  1  0  0  3  0  0  0  0  0  0
  159.3310  214.4530  151.6870 C   0  0  0  0  0  2  0  0  0  0  0  0
  160.1440  212.0920  151.6400 C   0  0  1  0  0  0  0  0  0  0  0  0
  162.4030  209.2630  150.8840 N   0  0  0  0  0  2  0  0  0  0  0  0
  160.8680  209.6450  155.6520 C   0  0  0  0  0  2  0  0  0  0  0  0
  157.0700  214.0120  152.3620 O   0  0  0  0  0  1  0  0  0  0  0  0
  161.8920  204.9430  151.9570 C   0  0  0  0  0  1  0  0  0  0  0  0
  160.7070  206.8770  152.7430 O   0  0  0  0  0  0  0  0  0  0  0  0
  161.9640  207.4610  152.4860 C   0  0  1  0  0  3  0  0  0  0  0  0
  160.6830  206.6030  150.3410 C   0  0  0  0  0  1  0  0  0  0  0  0
  161.4180  206.3530  151.6510 C   0  0  0  0  0  0  0  0  0  0  0  0
  161.6310  209.5740  148.3390 O   0  0  0  0  0  0  0  0  0  0  0  0
  160.7560  212.0650  147.2050 C   0  0  0  0  0  1  0  0  0  0  0  0
  161.7470  210.6420  149.0060 C   0  0  0  0  0  0  0  0  0  0  0  0
  161.6490  211.9110  148.3450 N   0  0  0  0  0  0  0  0  0  0  0  0
  162.6530  212.9380  148.5660 C   0  0  0  0  0  2  0  0  0  0  0  0
  163.8990  212.4850  148.1750 F   0  0  0  0  0  0  0  0  0  0  0  0
  1 16  1  1  0  0  0
  1 21  1  0  0  0  0
  1 11  1  0  0  0  0
  2 26  1  6  0  0  0
  2 16  1  0  0  0  0
  2  9  1  0  0  0  0
  3 15  1  0  0  0  0
  4  6  1  0  0  0  0
  4 10  1  6  0  0  0
  5 17  1  0  0  0  0
  6  7  1  1  0  0  0
  7 17  1  0  0  0  0
  8  6  1  0  0  0  0
  8  5  1  1  0  0  0
  9 15  1  0  0  0  0
  9 11  1  0  0  0  0
 11  8  1  0  0  0  0
 11  6  1  0  0  0  0
 12  3  1  0  0  0  0
 12 15  1  0  0  0  0
 12 14  1  0  0  0  0
 13 10  1  0  0  0  0
 14 13  1  0  0  0  0
 15  4  1  0  0  0  0
 18 13  1  0  0  0  0
 21 20  1  0  0  0  0
 22 23  1  0  0  0  0
 23 19  1  0  0  0  0
 23 21  1  0  0  0  0
 23 20  1  0  0  0  0
 24 26  2  0  0  0  0
 25 27  1  0  0  0  0
 27 28  1  0  0  0  0
 27 26  1  0  0  0  0
 29 28  1  0  0  0  0
M  END
>  <MODEL>
2

>  <REMARK>
 VINA RESULT:      -5.9      2.389      5.471
  Name = 
  3 active torsions:
  status: ('A' for Active; 'I' for Inactive)
    1  A    between atoms: C_1  and  C_21
    2  A    between atoms: C_2  and  C_13
    3  A    between atoms: C_8  and  N_25
                            x       y       z     vdW  Elec       q    Type
                         _______ _______ _______ _____ _____    ______ ____

>  <TORSDO>
F 3

$$$$
=
 OpenBabel11042423113D

 29 35  0  0  1  0  0  0  0  0999 V2000
  160.8180  210.7340  152.6430 C   0  0  1  0  0  3  0  0  0  0  0  0
  161.2920  209.1600  154.1990 C   0  0  1  0  0  3  0  0  0  0  0  0
  160.2200  206.2700  152.4840 O   0  0  0  0  0  0  0  0  0  0  0  0
  161.9730  207.2600  151.1310 C   0  0  2  0  0  3  0  0  0  0  0  0
  162.6070  210.7050  150.4360 C   0  0  0  0  0  2  0  0  0  0  0  0
  161.5690  208.6680  150.7040 C   0  0  2  0  0  0  0  0  0  0  0  0
  161.3510  209.0830  149.2610 C   0  0  0  0  0  2  0  0  0  0  0  0
  162.4270  209.5980  151.3870 N   0  0  2  0  0  0  0  0  0  0  0  0
  160.7810  208.4580  152.9450 C   0  0  1  0  0  3  0  0  0  0  0  0
  161.6200  206.1100  150.1780 C   0  0  0  0  0  2  0  0  0  0  0  0
  160.9810  209.4740  151.8290 C   0  0  1  0  0  0  0  0  0  0  0  0
  161.3370  205.8160  153.1960 C   0  0  1  0  0  3  0  0  0  0  0  0
  161.7450  204.7250  150.8510 C   0  0  1  0  0  3  0  0  0  0  0  0
  162.0960  204.7560  152.3600 C   0  0  0  0  0  2  0  0  0  0  0  0
  161.3440  207.1330  152.5110 C   0  0  1  0  0  0  0  0  0  0  0  0
  161.0430  210.5480  153.8970 N   0  0  0  0  0  2  0  0  0  0  0  0
  162.2660  210.2430  149.0350 C   0  0  0  0  0  2  0  0  0  0  0  0
  160.5510  204.0240  150.6760 O   0  0  0  0  0  1  0  0  0  0  0  0
  158.8070  214.0600  152.2820 C   0  0  0  0  0  1  0  0  0  0  0  0
  159.2990  211.9420  151.2640 O   0  0  0  0  0  0  0  0  0  0  0  0
  160.4400  212.0800  152.0820 C   0  0  1  0  0  3  0  0  0  0  0  0
  158.1650  211.7840  153.3940 C   0  0  0  0  0  1  0  0  0  0  0  0
  159.0990  212.5850  152.4960 C   0  0  0  0  0  0  0  0  0  0  0  0
  159.2670  208.9190  155.4530 O   0  0  0  0  0  0  0  0  0  0  0  0
  160.4960  207.0540  157.2610 C   0  0  0  0  0  1  0  0  0  0  0  0
  160.5160  208.7280  155.4050 C   0  0  0  0  0  0  0  0  0  0  0  0
  161.1840  208.0880  156.5000 N   0  0  0  0  0  0  0  0  0  0  0  0
  162.3840  208.6700  157.0750 C   0  0  0  0  0  2  0  0  0  0  0  0
  162.2300  210.0350  157.2290 F   0  0  0  0  0  0  0  0  0  0  0  0
  1 16  1  6  0  0  0
  2 26  1  1  0  0  0
  3 15  1  0  0  0  0
  3 12  1  0  0  0  0
  4 10  1  6  0  0  0
  4 15  1  0  0  0  0
  6  7  1  6  0  0  0
  6  4  1  0  0  0  0
  6  8  1  0  0  0  0
  6 11  1  0  0  0  0
  8  5  1  6  0  0  0
  8 11  1  0  0  0  0
  9  2  1  0  0  0  0
 10 13  1  0  0  0  0
 11  1  1  0  0  0  0
 11  9  1  0  0  0  0
 13 14  1  0  0  0  0
 14 12  1  0  0  0  0
 15  9  1  0  0  0  0
 15 12  1  0  0  0  0
 16  2  1  0  0  0  0
 17  7  1  0  0  0  0
 17  5  1  0  0  0  0
 18 13  1  0  0  0  0
 19 23  1  0  0  0  0
 20 21  1  0  0  0  0
 20 23  1  0  0  0  0
 21 23  1  0  0  0  0
 21  1  1  0  0  0  0
 23 22  1  0  0  0  0
 26 24  2  0  0  0  0
 26 27  1  0  0  0  0
 27 28  1  0  0  0  0
 27 25  1  0  0  0  0
 28 29  1  0  0  0  0
M  END
>  <MODEL>
3

>  <REMARK>
 VINA RESULT:      -5.5      2.952      5.395
  Name = 
  3 active torsions:
  status: ('A' for Active; 'I' for Inactive)
    1  A    between atoms: C_1  and  C_21
    2  A    between atoms: C_2  and  C_13
    3  A    between atoms: C_8  and  N_25
                            x       y       z     vdW  Elec       q    Type
                         _______ _______ _______ _____ _____    ______ ____

>  <TORSDO>
F 3

$$$$
=
 OpenBabel11042423113D

 29 35  0  0  1  0  0  0  0  0999 V2000
  161.6130  208.1180  152.7700 C   0  0  1  0  0  3  0  0  0  0  0  0
  161.6790  210.2730  152.0840 C   0  0  1  0  0  3  0  0  0  0  0  0
  158.4440  211.3120  153.0300 O   0  0  0  0  0  0  0  0  0  0  0  0
  159.5630  210.6110  155.0660 C   0  0  2  0  0  3  0  0  0  0  0  0
  161.7450  207.8350  155.5940 C   0  0  0  0  0  2  0  0  0  0  0  0
  159.9580  209.1410  154.9630 C   0  0  2  0  0  0  0  0  0  0  0  0
  159.4070  208.0530  155.8650 C   0  0  0  0  0  2  0  0  0  0  0  0
  161.3930  209.0760  154.8890 N   0  0  2  0  0  0  0  0  0  0  0  0
  160.3470  210.0330  152.7860 C   0  0  1  0  0  3  0  0  0  0  0  0
  158.1990  210.9280  155.6940 C   0  0  0  0  0  2  0  0  0  0  0  0
  160.5810  208.7940  153.6390 C   0  0  1  0  0  0  0  0  0  0  0  0
  159.2210  212.4530  153.2650 C   0  0  1  0  0  3  0  0  0  0  0  0
  157.7480  212.3810  155.4290 C   0  0  1  0  0  3  0  0  0  0  0  0
  158.6880  213.2030  154.5110 C   0  0  0  0  0  2  0  0  0  0  0  0
  159.7090  211.1010  153.6330 C   0  0  1  0  0  0  0  0  0  0  0  0
  162.2210  208.9400  151.9880 N   0  0  0  0  0  2  0  0  0  0  0  0
  160.6010  207.4050  156.4880 C   0  0  0  0  0  2  0  0  0  0  0  0
  156.4680  212.3680  154.8750 O   0  0  0  0  0  1  0  0  0  0  0  0
  161.8770  204.4620  151.4290 C   0  0  0  0  0  1  0  0  0  0  0  0
  160.7310  205.9140  152.9580 O   0  0  0  0  0  0  0  0  0  0  0  0
  161.9260  206.6450  152.7930 C   0  0  1  0  0  3  0  0  0  0  0  0
  160.4210  206.4780  150.6270 C   0  0  0  0  0  1  0  0  0  0  0  0
  161.3200  205.8510  151.6850 C   0  0  0  0  0  0  0  0  0  0  0  0
  160.7320  211.8820  150.5860 O   0  0  0  0  0  0  0  0  0  0  0  0
  162.5420  211.1320  148.4830 C   0  0  0  0  0  1  0  0  0  0  0  0
  161.4660  210.8620  150.7230 C   0  0  0  0  0  0  0  0  0  0  0  0
  162.1010  210.2780  149.5780 N   0  0  0  0  0  0  0  0  0  0  0  0
  162.0140  208.8490  149.3330 C   0  0  0  0  0  2  0  0  0  0  0  0
  162.7810  208.5010  148.2370 F   0  0  0  0  0  0  0  0  0  0  0  0
  1 16  1  1  0  0  0
  1 21  1  0  0  0  0
  1 11  1  0  0  0  0
  2 26  1  6  0  0  0
  2  9  1  0  0  0  0
  3 12  1  0  0  0  0
  3 15  1  0  0  0  0
  4 10  1  6  0  0  0
  5 17  1  0  0  0  0
  6  4  1  0  0  0  0
  6  7  1  1  0  0  0
  7 17  1  0  0  0  0
  8  6  1  0  0  0  0
  8  5  1  1  0  0  0
  9 15  1  0  0  0  0
  9 11  1  0  0  0  0
 11  8  1  0  0  0  0
 11  6  1  0  0  0  0
 12 15  1  0  0  0  0
 12 14  1  0  0  0  0
 13 10  1  0  0  0  0
 14 13  1  0  0  0  0
 15  4  1  0  0  0  0
 16  2  1  0  0  0  0
 18 13  1  0  0  0  0
 19 23  1  0  0  0  0
 21 20  1  0  0  0  0
 22 23  1  0  0  0  0
 23 21  1  0  0  0  0
 23 20  1  0  0  0  0
 24 26  2  0  0  0  0
 25 27  1  0  0  0  0
 27 26  1  0  0  0  0
 28 27  1  0  0  0  0
 29 28  1  0  0  0  0
M  END
>  <MODEL>
4

>  <REMARK>
 VINA RESULT:      -5.4      2.786      5.936
  Name = 
  3 active torsions:
  status: ('A' for Active; 'I' for Inactive)
    1  A    between atoms: C_1  and  C_21
    2  A    between atoms: C_2  and  C_13
    3  A    between atoms: C_8  and  N_25
                            x       y       z     vdW  Elec       q    Type
                         _______ _______ _______ _____ _____    ______ ____

>  <TORSDO>
F 3

$$$$
=
 OpenBabel11042423113D

 29 35  0  0  1  0  0  0  0  0999 V2000
  161.1190  207.4050  149.9170 C   0  0  1  0  0  3  0  0  0  0  0  0
  161.9690  209.3520  150.6940 C   0  0  1  0  0  3  0  0  0  0  0  0
  160.2820  209.5620  153.7840 O   0  0  0  0  0  0  0  0  0  0  0  0
  161.5810  207.5140  153.8490 C   0  0  2  0  0  3  0  0  0  0  0  0
  162.1400  205.1190  151.2610 C   0  0  0  0  0  2  0  0  0  0  0  0
  161.1350  206.5780  152.7290 C   0  0  2  0  0  0  0  0  0  0  0  0
  160.5060  205.2190  152.9660 C   0  0  0  0  0  2  0  0  0  0  0  0
  162.2060  206.4950  151.7740 N   0  0  2  0  0  0  0  0  0  0  0  0
  161.0650  208.7600  151.7690 C   0  0  1  0  0  3  0  0  0  0  0  0
  160.8960  207.3520  155.2130 C   0  0  0  0  0  2  0  0  0  0  0  0
  160.9610  207.2840  151.4130 C   0  0  1  0  0  0  0  0  0  0  0  0
  161.5390  210.1030  154.0760 C   0  0  1  0  0  3  0  0  0  0  0  0
  161.1530  208.5520  156.1510 C   0  0  1  0  0  3  0  0  0  0  0  0
  161.9520  209.7200  155.5200 C   0  0  0  0  0  2  0  0  0  0  0  0
  161.4010  208.8920  153.2290 C   0  0  1  0  0  0  0  0  0  0  0  0
  161.7090  208.4940  149.5650 N   0  0  0  0  0  2  0  0  0  0  0  0
  161.3630  204.2450  152.2230 C   0  0  0  0  0  2  0  0  0  0  0  0
  159.9300  209.0360  156.6170 O   0  0  0  0  0  1  0  0  0  0  0  0
  161.4110  204.6900  147.1270 C   0  0  0  0  0  1  0  0  0  0  0  0
  160.7080  206.9310  147.6200 O   0  0  0  0  0  0  0  0  0  0  0  0
  160.6540  206.3790  148.9160 C   0  0  1  0  0  3  0  0  0  0  0  0
  163.0810  206.5510  147.8860 C   0  0  0  0  0  1  0  0  0  0  0  0
  161.6770  205.9600  147.9160 C   0  0  0  0  0  0  0  0  0  0  0  0
  160.9770  211.4550  151.2610 O   0  0  0  0  0  0  0  0  0  0  0  0
  162.2360  212.7600  149.0320 C   0  0  0  0  0  1  0  0  0  0  0  0
  161.5810  210.7670  150.3900 C   0  0  0  0  0  0  0  0  0  0  0  0
  161.9030  211.3450  149.1180 N   0  0  0  0  0  0  0  0  0  0  0  0
  161.5810  210.6460  147.8860 C   0  0  0  0  0  2  0  0  0  0  0  0
  160.8220  211.4530  147.0590 F   0  0  0  0  0  0  0  0  0  0  0  0
  1 16  1  1  0  0  0
  1 11  1  0  0  0  0
  2 26  1  6  0  0  0
  2  9  1  0  0  0  0
  3 12  1  0  0  0  0
  4 10  1  1  0  0  0
  5 17  1  0  0  0  0
  6  7  1  1  0  0  0
  6  4  1  0  0  0  0
  8  5  1  6  0  0  0
  8  6  1  0  0  0  0
  9 15  1  0  0  0  0
 10 13  1  0  0  0  0
 11  9  1  0  0  0  0
 11  8  1  0  0  0  0
 11  6  1  0  0  0  0
 12 14  1  0  0  0  0
 13 18  1  0  0  0  0
 14 13  1  0  0  0  0
 15  3  1  0  0  0  0
 15  4  1  0  0  0  0
 15 12  1  0  0  0  0
 16  2  1  0  0  0  0
 17  7  1  0  0  0  0
 19 23  1  0  0  0  0
 20 23  1  0  0  0  0
 20 21  1  0  0  0  0
 21  1  1  0  0  0  0
 22 23  1  0  0  0  0
 23 21  1  0  0  0  0
 25 27  1  0  0  0  0
 26 24  2  0  0  0  0
 27 26  1  0  0  0  0
 28 27  1  0  0  0  0
 29 28  1  0  0  0  0
M  END
>  <MODEL>
5

>  <REMARK>
 VINA RESULT:      -5.4      1.816      5.486
  Name = 
  3 active torsions:
  status: ('A' for Active; 'I' for Inactive)
    1  A    between atoms: C_1  and  C_21
    2  A    between atoms: C_2  and  C_13
    3  A    between atoms: C_8  and  N_25
                            x       y       z     vdW  Elec       q    Type
                         _______ _______ _______ _____ _____    ______ ____

>  <TORSDO>
F 3

$$$$
=
 OpenBabel11042423113D

 29 35  0  0  1  0  0  0  0  0999 V2000
  161.2730  206.2080  150.0030 C   0  0  1  0  0  3  0  0  0  0  0  0
  160.6010  205.8290  147.8760 C   0  0  1  0  0  3  0  0  0  0  0  0
  162.1810  202.7310  147.2820 O   0  0  0  0  0  0  0  0  0  0  0  0
  160.6740  202.3860  149.1520 C   0  0  2  0  0  3  0  0  0  0  0  0
  159.9690  204.5480  151.9050 C   0  0  0  0  0  2  0  0  0  0  0  0
  161.0630  203.3000  150.3100 C   0  0  2  0  0  0  0  0  0  0  0  0
  161.5380  202.7970  151.6600 C   0  0  0  0  0  2  0  0  0  0  0  0
  160.0270  204.2850  150.4600 N   0  0  2  0  0  0  0  0  0  0  0  0
  161.3970  204.6180  148.3510 C   0  0  1  0  0  3  0  0  0  0  0  0
  161.2850  200.9780  149.1340 C   0  0  0  0  0  2  0  0  0  0  0  0
  161.3600  204.7070  149.8700 C   0  0  1  0  0  0  0  0  0  0  0  0
  160.9760  202.6080  146.5800 C   0  0  1  0  0  3  0  0  0  0  0  0
  161.1190  200.2780  147.7670 C   0  0  1  0  0  3  0  0  0  0  0  0
  160.4710  201.1460  146.6590 C   0  0  0  0  0  2  0  0  0  0  0  0
  161.0210  203.2240  147.9300 C   0  0  1  0  0  0  0  0  0  0  0  0
  160.8150  206.7750  148.9430 N   0  0  0  0  0  2  0  0  0  0  0  0
  160.6140  203.4070  152.6640 C   0  0  0  0  0  2  0  0  0  0  0  0
  162.3670  199.8350  147.3270 O   0  0  0  0  0  1  0  0  0  0  0  0
  162.1010  209.3420  152.1770 C   0  0  0  0  0  1  0  0  0  0  0  0
  163.0140  207.3930  151.1150 O   0  0  0  0  0  0  0  0  0  0  0  0
  161.6680  206.9880  151.2300 C   0  0  1  0  0  3  0  0  0  0  0  0
  162.0780  209.0150  149.5850 C   0  0  0  0  0  1  0  0  0  0  0  0
  162.0520  208.4070  150.9810 C   0  0  0  0  0  0  0  0  0  0  0  0
  161.9390  207.3350  146.5820 O   0  0  0  0  0  0  0  0  0  0  0  0
  161.7470  205.6600  144.2560 C   0  0  0  0  0  1  0  0  0  0  0  0
  161.1460  206.3500  146.5820 C   0  0  0  0  0  0  0  0  0  0  0  0
  160.7800  205.7280  145.3430 N   0  0  0  0  0  0  0  0  0  0  0  0
  159.3850  205.4690  145.0300 C   0  0  0  0  0  2  0  0  0  0  0  0
  159.2620  204.2890  144.3220 F   0  0  0  0  0  0  0  0  0  0  0  0
  1 16  1  1  0  0  0
  1 21  1  0  0  0  0
  2 26  1  6  0  0  0
  2  9  1  0  0  0  0
  2 16  1  0  0  0  0
  3 15  1  0  0  0  0
  4 10  1  6  0  0  0
  4  6  1  0  0  0  0
  5 17  1  0  0  0  0
  6  8  1  0  0  0  0
  6  7  1  1  0  0  0
  7 17  1  0  0  0  0
  8  5  1  1  0  0  0
  9 11  1  0  0  0  0
 11  1  1  0  0  0  0
 11  6  1  0  0  0  0
 11  8  1  0  0  0  0
 12 14  1  0  0  0  0
 12  3  1  0  0  0  0
 12 15  1  0  0  0  0
 13 10  1  0  0  0  0
 14 13  1  0  0  0  0
 15  9  1  0  0  0  0
 15  4  1  0  0  0  0
 18 13  1  0  0  0  0
 20 21  1  0  0  0  0
 22 23  1  0  0  0  0
 23 20  1  0  0  0  0
 23 21  1  0  0  0  0
 23 19  1  0  0  0  0
 25 27  1  0  0  0  0
 26 24  2  0  0  0  0
 27 26  1  0  0  0  0
 28 27  1  0  0  0  0
 29 28  1  0  0  0  0
M  END
>  <MODEL>
6

>  <REMARK>
 VINA RESULT:      -5.3      3.502      5.168
  Name = 
  3 active torsions:
  status: ('A' for Active; 'I' for Inactive)
    1  A    between atoms: C_1  and  C_21
    2  A    between atoms: C_2  and  C_13
    3  A    between atoms: C_8  and  N_25
                            x       y       z     vdW  Elec       q    Type
                         _______ _______ _______ _____ _____    ______ ____

>  <TORSDO>
F 3

$$$$
=
 OpenBabel11042423113D

 29 35  0  0  1  0  0  0  0  0999 V2000
  161.5670  206.6020  151.5410 C   0  0  1  0  0  3  0  0  0  0  0  0
  161.2240  207.8810  149.7070 C   0  0  1  0  0  3  0  0  0  0  0  0
  162.7730  205.8640  147.2620 O   0  0  0  0  0  0  0  0  0  0  0  0
  160.9810  204.5340  148.2140 C   0  0  2  0  0  3  0  0  0  0  0  0
  159.9260  204.2830  151.6160 C   0  0  0  0  0  2  0  0  0  0  0  0
  161.2140  204.3410  149.7090 C   0  0  2  0  0  0  0  0  0  0  0  0
  161.4540  202.9900  150.3580 C   0  0  0  0  0  2  0  0  0  0  0  0
  160.2000  205.0800  150.4120 N   0  0  2  0  0  0  0  0  0  0  0  0
  161.8950  206.5830  149.2690 C   0  0  1  0  0  3  0  0  0  0  0  0
  161.5400  203.4600  147.2720 C   0  0  0  0  0  2  0  0  0  0  0  0
  161.6230  205.6090  150.4060 C   0  0  1  0  0  0  0  0  0  0  0  0
  161.6890  206.4190  146.5700 C   0  0  1  0  0  3  0  0  0  0  0  0
  161.5670  203.9200  145.7970 C   0  0  1  0  0  3  0  0  0  0  0  0
  161.1290  205.3870  145.5600 C   0  0  0  0  0  2  0  0  0  0  0  0
  161.5420  205.9260  147.9630 C   0  0  1  0  0  0  0  0  0  0  0  0
  161.2990  207.7960  151.1440 N   0  0  0  0  0  2  0  0  0  0  0  0
  160.4050  202.8610  151.4150 C   0  0  0  0  0  2  0  0  0  0  0  0
  162.8520  203.7390  145.2870 O   0  0  0  0  0  1  0  0  0  0  0  0
  160.9480  206.6450  155.3950 C   0  0  0  0  0  1  0  0  0  0  0  0
  162.4190  207.3500  153.6350 O   0  0  0  0  0  0  0  0  0  0  0  0
  161.7900  206.2640  152.9920 C   0  0  1  0  0  3  0  0  0  0  0  0
  160.2020  208.3080  153.5230 C   0  0  0  0  0  1  0  0  0  0  0  0
  161.0710  207.1370  153.9640 C   0  0  0  0  0  0  0  0  0  0  0  0
  162.8010  208.9360  148.2480 O   0  0  0  0  0  0  0  0  0  0  0  0
  161.8520  211.5540  148.9570 C   0  0  0  0  0  1  0  0  0  0  0  0
  161.9820  209.0690  149.2010 C   0  0  0  0  0  0  0  0  0  0  0  0
  161.7730  210.3610  149.7890 N   0  0  0  0  0  0  0  0  0  0  0  0
  161.8190  210.5330  151.2310 C   0  0  0  0  0  2  0  0  0  0  0  0
  163.0690  210.1950  151.7150 F   0  0  0  0  0  0  0  0  0  0  0  0
  1 16  1  1  0  0  0
  1 21  1  0  0  0  0
  2 26  1  6  0  0  0
  2 16  1  0  0  0  0
  3 15  1  0  0  0  0
  4 10  1  6  0  0  0
  4  6  1  0  0  0  0
  6  7  1  1  0  0  0
  6 11  1  0  0  0  0
  6  8  1  0  0  0  0
  7 17  1  0  0  0  0
  8  5  1  1  0  0  0
  9  2  1  0  0  0  0
  9 11  1  0  0  0  0
 11  8  1  0  0  0  0
 11  1  1  0  0  0  0
 12  3  1  0  0  0  0
 12 15  1  0  0  0  0
 13 10  1  0  0  0  0
 14 13  1  0  0  0  0
 14 12  1  0  0  0  0
 15  4  1  0  0  0  0
 15  9  1  0  0  0  0
 17  5  1  0  0  0  0
 18 13  1  0  0  0  0
 20 23  1  0  0  0  0
 21 20  1  0  0  0  0
 21 23  1  0  0  0  0
 22 23  1  0  0  0  0
 23 19  1  0  0  0  0
 24 26  2  0  0  0  0
 25 27  1  0  0  0  0
 26 27  1  0  0  0  0
 27 28  1  0  0  0  0
 28 29  1  0  0  0  0
M  END
>  <MODEL>
7

>  <REMARK>
 VINA RESULT:      -5.3      1.937      2.761
  Name = 
  3 active torsions:
  status: ('A' for Active; 'I' for Inactive)
    1  A    between atoms: C_1  and  C_21
    2  A    between atoms: C_2  and  C_13
    3  A    between atoms: C_8  and  N_25
                            x       y       z     vdW  Elec       q    Type
                         _______ _______ _______ _____ _____    ______ ____

>  <TORSDO>
F 3

$$$$
=
 OpenBabel11042423113D

 29 35  0  0  1  0  0  0  0  0999 V2000
  162.1160  207.9020  151.0110 C   0  0  1  0  0  3  0  0  0  0  0  0
  161.3420  207.1060  149.0400 C   0  0  1  0  0  3  0  0  0  0  0  0
  162.1110  203.6840  149.4220 O   0  0  0  0  0  0  0  0  0  0  0  0
  160.5920  204.2530  151.2270 C   0  0  2  0  0  3  0  0  0  0  0  0
  160.4730  207.2100  153.2240 C   0  0  0  0  0  2  0  0  0  0  0  0
  161.2080  205.3380  152.1040 C   0  0  2  0  0  0  0  0  0  0  0  0
  161.5650  205.1410  153.5650 C   0  0  0  0  0  2  0  0  0  0  0  0
  160.4450  206.5420  151.9140 N   0  0  2  0  0  0  0  0  0  0  0  0
  161.8260  205.9270  149.8780 C   0  0  1  0  0  3  0  0  0  0  0  0
  160.8410  202.7940  151.6360 C   0  0  0  0  0  2  0  0  0  0  0  0
  161.8320  206.4500  151.3070 C   0  0  1  0  0  0  0  0  0  0  0  0
  160.9030  203.6570  148.7160 C   0  0  1  0  0  3  0  0  0  0  0  0
  160.4910  201.7960  150.5110 C   0  0  1  0  0  3  0  0  0  0  0  0
  160.0580  202.4410  149.1700 C   0  0  0  0  0  2  0  0  0  0  0  0
  161.1150  204.6020  149.8410 C   0  0  1  0  0  0  0  0  0  0  0  0
  161.7940  208.2370  149.8110 N   0  0  0  0  0  2  0  0  0  0  0  0
  160.8310  206.2130  154.3050 C   0  0  0  0  0  2  0  0  0  0  0  0
  161.5860  200.9630  150.2830 O   0  0  0  0  0  1  0  0  0  0  0  0
  162.1660  210.7030  153.7300 C   0  0  0  0  0  1  0  0  0  0  0  0
  162.6650  210.1790  151.4410 O   0  0  0  0  0  0  0  0  0  0  0  0
  162.7060  208.8810  151.9920 C   0  0  1  0  0  3  0  0  0  0  0  0
  160.3200  210.0180  152.0110 C   0  0  0  0  0  1  0  0  0  0  0  0
  161.7640  209.9260  152.4880 C   0  0  0  0  0  0  0  0  0  0  0  0
  162.9740  207.8370  147.4480 O   0  0  0  0  0  0  0  0  0  0  0  0
  162.3890  205.6390  145.6930 C   0  0  0  0  0  1  0  0  0  0  0  0
  161.9800  207.0930  147.6840 C   0  0  0  0  0  0  0  0  0  0  0  0
  161.4720  206.2310  146.6570 N   0  0  0  0  0  0  0  0  0  0  0  0
  160.0520  206.2040  146.3510 C   0  0  0  0  0  2  0  0  0  0  0  0
  159.8560  206.1790  144.9830 F   0  0  0  0  0  0  0  0  0  0  0  0
  1 16  1  1  0  0  0
  1 11  1  0  0  0  0
  1 21  1  0  0  0  0
  2 26  1  6  0  0  0
  2 16  1  0  0  0  0
  2  9  1  0  0  0  0
  3 15  1  0  0  0  0
  4 10  1  1  0  0  0
  4  6  1  0  0  0  0
  5 17  1  0  0  0  0
  6  7  1  1  0  0  0
  7 17  1  0  0  0  0
  8  6  1  0  0  0  0
  8  5  1  1  0  0  0
  9 11  1  0  0  0  0
 11  8  1  0  0  0  0
 11  6  1  0  0  0  0
 12 14  1  0  0  0  0
 12  3  1  0  0  0  0
 12 15  1  0  0  0  0
 13 10  1  0  0  0  0
 14 13  1  0  0  0  0
 15  9  1  0  0  0  0
 15  4  1  0  0  0  0
 18 13  1  0  0  0  0
 20 21  1  0  0  0  0
 20 23  1  0  0  0  0
 21 23  1  0  0  0  0
 22 23  1  0  0  0  0
 23 19  1  0  0  0  0
 24 26  2  0  0  0  0
 25 27  1  0  0  0  0
 27 26  1  0  0  0  0
 28 27  1  0  0  0  0
 29 28  1  0  0  0  0
M  END
>  <MODEL>
8

>  <REMARK>
 VINA RESULT:      -5.0      2.772      3.946
  Name = 
  3 active torsions:
  status: ('A' for Active; 'I' for Inactive)
    1  A    between atoms: C_1  and  C_21
    2  A    between atoms: C_2  and  C_13
    3  A    between atoms: C_8  and  N_25
                            x       y       z     vdW  Elec       q    Type
                         _______ _______ _______ _____ _____    ______ ____

>  <TORSDO>
F 3

$$$$
=
 OpenBabel11042423113D

 29 35  0  0  1  0  0  0  0  0999 V2000
  160.9150  206.4680  147.7920 C   0  0  1  0  0  3  0  0  0  0  0  0
  162.0390  207.9990  149.0210 C   0  0  1  0  0  3  0  0  0  0  0  0
  160.4560  207.5550  152.1420 O   0  0  0  0  0  0  0  0  0  0  0  0
  161.4630  205.4210  151.5720 C   0  0  2  0  0  3  0  0  0  0  0  0
  161.6390  203.7890  148.4020 C   0  0  0  0  0  2  0  0  0  0  0  0
  160.8720  204.8980  150.2670 C   0  0  2  0  0  0  0  0  0  0  0  0
  160.0670  203.6170  150.1590 C   0  0  0  0  0  2  0  0  0  0  0  0
  161.9030  204.9490  149.2660 N   0  0  2  0  0  0  0  0  0  0  0  0
  161.0830  207.2510  149.9430 C   0  0  1  0  0  3  0  0  0  0  0  0
  160.7890  204.9750  152.8770 C   0  0  0  0  0  2  0  0  0  0  0  0
  160.7710  205.9570  149.2050 C   0  0  1  0  0  0  0  0  0  0  0  0
  161.7810  207.8300  152.4990 C   0  0  1  0  0  3  0  0  0  0  0  0
  161.2260  205.8260  154.0900 C   0  0  1  0  0  3  0  0  0  0  0  0
  162.1660  207.0120  153.7570 C   0  0  0  0  0  2  0  0  0  0  0  0
  161.4620  206.9290  151.3630 C   0  0  1  0  0  0  0  0  0  0  0  0
  161.6410  207.5280  147.7180 N   0  0  0  0  0  2  0  0  0  0  0  0
  160.7680  202.7880  149.1320 C   0  0  0  0  0  2  0  0  0  0  0  0
  160.0910  206.3120  154.7390 O   0  0  0  0  0  1  0  0  0  0  0  0
  160.7430  204.3600  144.5110 C   0  0  0  0  0  1  0  0  0  0  0  0
  160.6310  206.5750  145.4300 O   0  0  0  0  0  0  0  0  0  0  0  0
  160.2940  205.8280  146.5780 C   0  0  1  0  0  3  0  0  0  0  0  0
  162.7690  205.4830  145.7200 C   0  0  0  0  0  1  0  0  0  0  0  0
  161.2630  205.3270  145.5600 C   0  0  0  0  0  0  0  0  0  0  0  0
  161.5790  210.1630  148.1070 O   0  0  0  0  0  0  0  0  0  0  0  0
  161.0940  211.2680  150.7140 C   0  0  0  0  0  1  0  0  0  0  0  0
  161.8420  209.4800  149.1370 C   0  0  0  0  0  0  0  0  0  0  0  0
  161.9400  210.1220  150.4150 N   0  0  0  0  0  0  0  0  0  0  0  0
  163.0810  209.8750  151.2800 C   0  0  0  0  0  2  0  0  0  0  0  0
  162.8870  210.4690  152.5130 F   0  0  0  0  0  0  0  0  0  0  0  0
  1 16  1  6  0  0  0
  1 11  1  0  0  0  0
  2 26  1  6  0  0  0
  2  9  1  0  0  0  0
  3 12  1  0  0  0  0
  4 10  1  1  0  0  0
  5 17  1  0  0  0  0
  6  7  1  1  0  0  0
  6  4  1  0  0  0  0
  8  5  1  6  0  0  0
  8  6  1  0  0  0  0
  9 15  1  0  0  0  0
 10 13  1  0  0  0  0
 11  8  1  0  0  0  0
 11  9  1  0  0  0  0
 11  6  1  0  0  0  0
 12 14  1  0  0  0  0
 13 18  1  0  0  0  0
 14 13  1  0  0  0  0
 15  4  1  0  0  0  0
 15  3  1  0  0  0  0
 15 12  1  0  0  0  0
 16  2  1  0  0  0  0
 17  7  1  0  0  0  0
 19 23  1  0  0  0  0
 20 23  1  0  0  0  0
 20 21  1  0  0  0  0
 21  1  1  0  0  0  0
 23 22  1  0  0  0  0
 23 21  1  0  0  0  0
 24 26  2  0  0  0  0
 26 27  1  0  0  0  0
 27 25  1  0  0  0  0
 27 28  1  0  0  0  0
 28 29  1  0  0  0  0
M  END
>  <MODEL>
9

>  <REMARK>
 VINA RESULT:      -4.9      2.409      5.854
  Name = 
  3 active torsions:
  status: ('A' for Active; 'I' for Inactive)
    1  A    between atoms: C_1  and  C_21
    2  A    between atoms: C_2  and  C_13
    3  A    between atoms: C_8  and  N_25
                            x       y       z     vdW  Elec       q    Type
                         _______ _______ _______ _____ _____    ______ ____

>  <TORSDO>
F 3

$$$$
