=
 OpenBabel11042420163D

 25 27  0  0  1  0  0  0  0  0999 V2000
  161.3910  209.8380  152.1550 C   0  0  1  0  0  3  0  0  0  0  0  0
  162.6190  210.5670  151.3790 S   0  0  0  0  0  0  0  0  0  0  0  0
  161.1770  210.8280  154.4890 C   0  0  0  0  0  0  0  0  0  0  0  0
  162.5110  210.4400  154.8200 N   0  0  0  0  0  1  0  0  0  0  0  0
  160.6400  210.5770  153.2050 C   0  0  0  0  0  0  0  0  0  0  0  0
  159.3450  211.0350  152.9200 C   0  0  0  0  0  3  0  0  0  0  0  0
  159.1470  211.9340  155.1180 N   0  0  0  0  0  0  0  0  0  0  0  0
  160.3990  211.5140  155.4380 C   0  0  0  0  0  0  0  0  0  0  0  0
  158.6100  211.7140  153.8910 C   0  0  0  0  0  3  0  0  0  0  0  0
  160.9290  211.8030  156.8010 C   0  0  0  0  0  1  0  0  0  0  0  0
  160.5690  207.5950  152.9660 C   0  0  0  0  0  2  0  0  0  0  0  0
  161.3910  206.6400  150.0000 C   0  0  0  0  0  2  0  0  0  0  0  0
  161.6740  206.8740  153.4370 O   0  0  0  0  0  0  0  0  0  0  0  0
  161.9720  207.7890  150.8260 C   0  0  0  0  0  2  0  0  0  0  0  0
  161.7910  205.0070  151.9090 C   0  0  0  0  0  2  0  0  0  0  0  0
  160.9510  208.4550  151.7540 C   0  0  2  0  0  3  0  0  0  0  0  0
  160.8280  205.4850  150.8280 C   0  0  0  0  0  2  0  0  0  0  0  0
  161.3380  205.5250  153.2720 C   0  0  0  0  0  2  0  0  0  0  0  0
  162.4940  209.3750  148.3110 O   0  0  0  0  0  0  0  0  0  0  0  0
  161.9260  211.1470  149.8520 C   0  0  0  0  0  0  0  0  0  0  0  0
  161.9620  210.4850  148.5730 C   0  0  0  0  0  0  0  0  0  0  0  0
  161.3030  211.3050  147.6260 N   0  0  0  0  0  0  0  0  0  0  0  0
  161.3150  212.2750  149.7180 N   0  0  0  0  0  0  0  0  0  0  0  0
  160.2020  213.4800  147.7490 C   0  0  0  0  0  1  0  0  0  0  0  0
  160.9420  212.3320  148.3340 C   0  0  0  0  0  0  0  0  0  0  0  0
  1  2  1  6  0  0  0
  1  5  1  0  0  0  0
  3  4  1  0  0  0  0
  3  8  1  0  0  0  0
  5  3  2  0  0  0  0
  6  5  1  0  0  0  0
  6  9  2  0  0  0  0
  7  8  2  0  0  0  0
  8 10  1  0  0  0  0
  9  7  1  0  0  0  0
 11 13  1  0  0  0  0
 12 14  1  0  0  0  0
 12 17  1  0  0  0  0
 14 16  1  0  0  0  0
 15 18  1  0  0  0  0
 16  1  1  1  0  0  0
 16 11  1  0  0  0  0
 17 15  1  0  0  0  0
 18 13  1  0  0  0  0
 19 21  2  0  0  0  0
 20  2  1  0  0  0  0
 21 20  1  0  0  0  0
 22 25  2  0  0  0  0
 22 21  1  0  0  0  0
 23 20  2  0  0  0  0
 24 25  1  0  0  0  0
 25 23  1  0  0  0  0
M  END
>  <MODEL>
1

>  <REMARK>
 VINA RESULT:      -5.5      0.000      0.000
  Name = 
  3 active torsions:
  status: ('A' for Active; 'I' for Inactive)
    1  A    between atoms: C_6  and  S_20
    2  A    between atoms: C_7  and  C_19
    3  A    between atoms: C_16  and  C_19
                            x       y       z     vdW  Elec       q    Type
                         _______ _______ _______ _____ _____    ______ ____

>  <TORSDO>
F 3

$$$$
=
 OpenBabel11042420163D

 25 27  0  0  1  0  0  0  0  0999 V2000
  161.7200  209.6680  152.2830 C   0  0  1  0  0  3  0  0  0  0  0  0
  162.8740  210.3770  151.3840 S   0  0  0  0  0  0  0  0  0  0  0  0
  159.9600  211.0670  153.4750 C   0  0  0  0  0  0  0  0  0  0  0  0
  159.1260  211.0780  152.3160 N   0  0  0  0  0  1  0  0  0  0  0  0
  161.1890  210.3660  153.4840 C   0  0  0  0  0  0  0  0  0  0  0  0
  161.9360  210.3420  154.6710 C   0  0  0  0  0  3  0  0  0  0  0  0
  160.2930  211.6740  155.7680 N   0  0  0  0  0  0  0  0  0  0  0  0
  159.5320  211.7220  154.6430 C   0  0  0  0  0  0  0  0  0  0  0  0
  161.4720  211.0040  155.8070 C   0  0  0  0  0  3  0  0  0  0  0  0
  158.2420  212.4670  154.6760 C   0  0  0  0  0  1  0  0  0  0  0  0
  160.7120  207.4870  153.0520 C   0  0  0  0  0  2  0  0  0  0  0  0
  161.2850  206.5800  150.0140 C   0  0  0  0  0  2  0  0  0  0  0  0
  161.7600  206.6390  153.4370 O   0  0  0  0  0  0  0  0  0  0  0  0
  162.0200  207.6290  150.8500 C   0  0  0  0  0  2  0  0  0  0  0  0
  161.6080  204.8360  151.8370 C   0  0  0  0  0  2  0  0  0  0  0  0
  161.1210  208.3540  151.8550 C   0  0  2  0  0  3  0  0  0  0  0  0
  160.6470  205.4540  150.8270 C   0  0  0  0  0  2  0  0  0  0  0  0
  161.2790  205.3390  153.2400 C   0  0  0  0  0  2  0  0  0  0  0  0
  162.3280  209.5130  148.2520 O   0  0  0  0  0  0  0  0  0  0  0  0
  162.0120  211.1240  150.0250 C   0  0  0  0  0  0  0  0  0  0  0  0
  161.8670  210.5990  148.6920 C   0  0  0  0  0  0  0  0  0  0  0  0
  161.1190  211.5240  147.9250 N   0  0  0  0  0  0  0  0  0  0  0  0
  161.4240  212.2700  150.0860 N   0  0  0  0  0  0  0  0  0  0  0  0
  160.1090  213.6940  148.4080 C   0  0  0  0  0  1  0  0  0  0  0  0
  160.8820  212.4780  148.7740 C   0  0  0  0  0  0  0  0  0  0  0  0
  1  2  1  6  0  0  0
  1  5  1  0  0  0  0
  3  5  2  0  0  0  0
  3  8  1  0  0  0  0
  4  3  1  0  0  0  0
  5  6  1  0  0  0  0
  6  9  2  0  0  0  0
  7  9  1  0  0  0  0
  8 10  1  0  0  0  0
  8  7  2  0  0  0  0
 11 13  1  0  0  0  0
 12 17  1  0  0  0  0
 12 14  1  0  0  0  0
 14 16  1  0  0  0  0
 15 18  1  0  0  0  0
 16  1  1  1  0  0  0
 16 11  1  0  0  0  0
 17 15  1  0  0  0  0
 18 13  1  0  0  0  0
 19 21  2  0  0  0  0
 20 23  2  0  0  0  0
 20  2  1  0  0  0  0
 21 20  1  0  0  0  0
 22 21  1  0  0  0  0
 22 25  2  0  0  0  0
 24 25  1  0  0  0  0
 25 23  1  0  0  0  0
M  END
>  <MODEL>
2

>  <REMARK>
 VINA RESULT:      -5.4      0.857      1.561
  Name = 
  3 active torsions:
  status: ('A' for Active; 'I' for Inactive)
    1  A    between atoms: C_6  and  S_20
    2  A    between atoms: C_7  and  C_19
    3  A    between atoms: C_16  and  C_19
                            x       y       z     vdW  Elec       q    Type
                         _______ _______ _______ _____ _____    ______ ____

>  <TORSDO>
F 3

$$$$
=
 OpenBabel11042420163D

 25 27  0  0  1  0  0  0  0  0999 V2000
  161.0810  209.9160  152.4590 C   0  0  1  0  0  3  0  0  0  0  0  0
  162.3300  210.3210  153.4190 S   0  0  0  0  0  0  0  0  0  0  0  0
  161.6940  208.8930  150.2120 C   0  0  0  0  0  0  0  0  0  0  0  0
  162.1590  210.1500  149.7210 N   0  0  0  0  0  1  0  0  0  0  0  0
  161.2080  208.7590  151.5340 C   0  0  0  0  0  0  0  0  0  0  0  0
  160.8210  207.4870  151.9780 C   0  0  0  0  0  3  0  0  0  0  0  0
  161.3730  206.5450  149.8600 N   0  0  0  0  0  0  0  0  0  0  0  0
  161.7650  207.7570  149.3870 C   0  0  0  0  0  0  0  0  0  0  0  0
  160.9100  206.3870  151.1260 C   0  0  0  0  0  3  0  0  0  0  0  0
  162.2750  207.8540  147.9890 C   0  0  0  0  0  1  0  0  0  0  0  0
  159.6570  211.7890  151.5500 C   0  0  0  0  0  2  0  0  0  0  0  0
  158.0100  211.3650  154.2870 C   0  0  0  0  0  2  0  0  0  0  0  0
  160.1270  212.9930  152.0930 O   0  0  0  0  0  0  0  0  0  0  0  0
  159.4870  211.0810  154.0100 C   0  0  0  0  0  2  0  0  0  0  0  0
  158.2610  213.7460  153.4290 C   0  0  0  0  0  2  0  0  0  0  0  0
  159.7690  210.6480  152.5690 C   0  0  2  0  0  3  0  0  0  0  0  0
  157.4080  212.4830  153.4350 C   0  0  0  0  0  2  0  0  0  0  0  0
  159.0210  213.8520  152.1100 C   0  0  0  0  0  2  0  0  0  0  0  0
  163.2920  210.9130  156.5130 O   0  0  0  0  0  0  0  0  0  0  0  0
  161.9630  209.5870  154.9920 C   0  0  0  0  0  0  0  0  0  0  0  0
  162.4820  209.9780  156.2780 C   0  0  0  0  0  0  0  0  0  0  0  0
  161.9400  209.1160  157.2610 N   0  0  0  0  0  0  0  0  0  0  0  0
  161.1820  208.5730  155.1520 N   0  0  0  0  0  0  0  0  0  0  0  0
  160.4040  207.2200  157.1850 C   0  0  0  0  0  1  0  0  0  0  0  0
  161.1910  208.3180  156.5640 C   0  0  0  0  0  0  0  0  0  0  0  0
  1  2  1  1  0  0  0
  2 20  1  0  0  0  0
  3  5  1  0  0  0  0
  4  3  1  0  0  0  0
  5  6  2  0  0  0  0
  5  1  1  0  0  0  0
  7  9  2  0  0  0  0
  8  7  1  0  0  0  0
  8  3  2  0  0  0  0
  9  6  1  0  0  0  0
 10  8  1  0  0  0  0
 11 13  1  0  0  0  0
 11 16  1  0  0  0  0
 13 18  1  0  0  0  0
 14 12  1  0  0  0  0
 15 17  1  0  0  0  0
 16  1  1  1  0  0  0
 16 14  1  0  0  0  0
 17 12  1  0  0  0  0
 18 15  1  0  0  0  0
 20 23  2  0  0  0  0
 20 21  1  0  0  0  0
 21 19  2  0  0  0  0
 21 22  1  0  0  0  0
 23 25  1  0  0  0  0
 25 24  1  0  0  0  0
 25 22  2  0  0  0  0
M  END
>  <MODEL>
3

>  <REMARK>
 VINA RESULT:      -5.1      2.684      6.989
  Name = 
  3 active torsions:
  status: ('A' for Active; 'I' for Inactive)
    1  A    between atoms: C_6  and  S_20
    2  A    between atoms: C_7  and  C_19
    3  A    between atoms: C_16  and  C_19
                            x       y       z     vdW  Elec       q    Type
                         _______ _______ _______ _____ _____    ______ ____

>  <TORSDO>
F 3

$$$$
=
 OpenBabel11042420163D

 25 27  0  0  1  0  0  0  0  0999 V2000
  161.3300  210.0180  151.8630 C   0  0  1  0  0  3  0  0  0  0  0  0
  162.4730  210.8630  151.0760 S   0  0  0  0  0  0  0  0  0  0  0  0
  161.3410  210.7500  154.3000 C   0  0  0  0  0  0  0  0  0  0  0  0
  162.7180  210.4000  154.4400 N   0  0  0  0  0  1  0  0  0  0  0  0
  160.6730  210.6050  153.0620 C   0  0  0  0  0  0  0  0  0  0  0  0
  159.3370  211.0210  152.9700 C   0  0  0  0  0  3  0  0  0  0  0  0
  159.3530  211.6780  155.2600 N   0  0  0  0  0  0  0  0  0  0  0  0
  160.6490  211.2930  155.3960 C   0  0  0  0  0  0  0  0  0  0  0  0
  158.6900  211.5560  154.0830 C   0  0  0  0  0  3  0  0  0  0  0  0
  161.3180  211.4670  156.7170 C   0  0  0  0  0  1  0  0  0  0  0  0
  160.6830  207.6510  152.4510 C   0  0  0  0  0  2  0  0  0  0  0  0
  161.0910  207.1510  149.2940 C   0  0  0  0  0  2  0  0  0  0  0  0
  161.8600  206.9190  152.6560 O   0  0  0  0  0  0  0  0  0  0  0  0
  161.7590  208.1980  150.1870 C   0  0  0  0  0  2  0  0  0  0  0  0
  161.7980  205.2880  150.8750 C   0  0  0  0  0  2  0  0  0  0  0  0
  160.8680  208.6860  151.3330 C   0  0  2  0  0  3  0  0  0  0  0  0
  160.6790  205.8700  150.0180 C   0  0  0  0  0  2  0  0  0  0  0  0
  161.5340  205.5930  152.3470 C   0  0  0  0  0  2  0  0  0  0  0  0
  160.2770  213.3010  150.7750 O   0  0  0  0  0  0  0  0  0  0  0  0
  161.6340  211.6130  149.7040 C   0  0  0  0  0  0  0  0  0  0  0  0
  160.6840  212.6930  149.7490 C   0  0  0  0  0  0  0  0  0  0  0  0
  160.2520  212.9660  148.4290 N   0  0  0  0  0  0  0  0  0  0  0  0
  161.7760  211.2370  148.4780 N   0  0  0  0  0  0  0  0  0  0  0  0
  160.7770  212.0070  146.2470 C   0  0  0  0  0  1  0  0  0  0  0  0
  160.9120  212.0990  147.7240 C   0  0  0  0  0  0  0  0  0  0  0  0
  1  2  1  6  0  0  0
  1  5  1  0  0  0  0
  3  4  1  0  0  0  0
  3  8  1  0  0  0  0
  5  3  2  0  0  0  0
  6  5  1  0  0  0  0
  6  9  2  0  0  0  0
  7  8  2  0  0  0  0
  8 10  1  0  0  0  0
  9  7  1  0  0  0  0
 11 13  1  0  0  0  0
 12 17  1  0  0  0  0
 12 14  1  0  0  0  0
 14 16  1  0  0  0  0
 15 18  1  0  0  0  0
 16  1  1  1  0  0  0
 16 11  1  0  0  0  0
 17 15  1  0  0  0  0
 18 13  1  0  0  0  0
 20 21  1  0  0  0  0
 20  2  1  0  0  0  0
 21 19  2  0  0  0  0
 22 21  1  0  0  0  0
 23 20  2  0  0  0  0
 24 25  1  0  0  0  0
 25 22  2  0  0  0  0
 25 23  1  0  0  0  0
M  END
>  <MODEL>
4

>  <REMARK>
 VINA RESULT:      -4.8      1.331      1.467
  Name = 
  3 active torsions:
  status: ('A' for Active; 'I' for Inactive)
    1  A    between atoms: C_6  and  S_20
    2  A    between atoms: C_7  and  C_19
    3  A    between atoms: C_16  and  C_19
                            x       y       z     vdW  Elec       q    Type
                         _______ _______ _______ _____ _____    ______ ____

>  <TORSDO>
F 3

$$$$
=
 OpenBabel11042420163D

 25 27  0  0  1  0  0  0  0  0999 V2000
  161.6690  209.7860  151.8440 C   0  0  1  0  0  3  0  0  0  0  0  0
  162.7200  210.6200  150.9270 S   0  0  0  0  0  0  0  0  0  0  0  0
  159.9620  210.8510  153.4010 C   0  0  0  0  0  0  0  0  0  0  0  0
  158.9580  210.8230  152.3860 N   0  0  0  0  0  1  0  0  0  0  0  0
  161.2540  210.3260  153.1660 C   0  0  0  0  0  0  0  0  0  0  0  0
  162.1780  210.3280  154.2210 C   0  0  0  0  0  3  0  0  0  0  0  0
  160.5790  211.3500  155.6610 N   0  0  0  0  0  0  0  0  0  0  0  0
  159.6480  211.3650  154.6720 C   0  0  0  0  0  0  0  0  0  0  0  0
  161.8240  210.8460  155.4660 C   0  0  0  0  0  3  0  0  0  0  0  0
  158.2970  211.9240  154.9620 C   0  0  0  0  0  1  0  0  0  0  0  0
  160.8310  207.4810  152.4320 C   0  0  0  0  0  2  0  0  0  0  0  0
  160.9770  207.0210  149.2460 C   0  0  0  0  0  2  0  0  0  0  0  0
  161.9410  206.6320  152.5420 O   0  0  0  0  0  0  0  0  0  0  0  0
  161.8030  207.9760  150.1100 C   0  0  0  0  0  2  0  0  0  0  0  0
  161.5980  205.0600  150.7410 C   0  0  0  0  0  2  0  0  0  0  0  0
  161.0430  208.5190  151.3230 C   0  0  2  0  0  3  0  0  0  0  0  0
  160.4880  205.7690  149.9740 C   0  0  0  0  0  2  0  0  0  0  0  0
  161.4650  205.3520  152.2330 C   0  0  0  0  0  2  0  0  0  0  0  0
  160.6070  213.1380  151.1470 O   0  0  0  0  0  0  0  0  0  0  0  0
  161.7190  211.5040  149.7580 C   0  0  0  0  0  0  0  0  0  0  0  0
  160.8310  212.6050  150.0290 C   0  0  0  0  0  0  0  0  0  0  0  0
  160.2200  212.9970  148.8140 N   0  0  0  0  0  0  0  0  0  0  0  0
  161.6620  211.2240  148.5000 N   0  0  0  0  0  0  0  0  0  0  0  0
  160.3760  212.2030  146.5110 C   0  0  0  0  0  1  0  0  0  0  0  0
  160.7320  212.1700  147.9530 C   0  0  0  0  0  0  0  0  0  0  0  0
  1  2  1  6  0  0  0
  1  5  1  0  0  0  0
  3  8  1  0  0  0  0
  4  3  1  0  0  0  0
  5  3  2  0  0  0  0
  5  6  1  0  0  0  0
  6  9  2  0  0  0  0
  8 10  1  0  0  0  0
  8  7  2  0  0  0  0
  9  7  1  0  0  0  0
 11 13  1  0  0  0  0
 12 17  1  0  0  0  0
 12 14  1  0  0  0  0
 14 16  1  0  0  0  0
 15 18  1  0  0  0  0
 16  1  1  1  0  0  0
 16 11  1  0  0  0  0
 17 15  1  0  0  0  0
 18 13  1  0  0  0  0
 20 21  1  0  0  0  0
 20  2  1  0  0  0  0
 21 19  2  0  0  0  0
 22 21  1  0  0  0  0
 23 20  2  0  0  0  0
 24 25  1  0  0  0  0
 25 23  1  0  0  0  0
 25 22  2  0  0  0  0
M  END
>  <MODEL>
5

>  <REMARK>
 VINA RESULT:      -4.8      1.533      2.116
  Name = 
  3 active torsions:
  status: ('A' for Active; 'I' for Inactive)
    1  A    between atoms: C_6  and  S_20
    2  A    between atoms: C_7  and  C_19
    3  A    between atoms: C_16  and  C_19
                            x       y       z     vdW  Elec       q    Type
                         _______ _______ _______ _____ _____    ______ ____

>  <TORSDO>
F 3

$$$$
=
 OpenBabel11042420163D

 25 27  0  0  1  0  0  0  0  0999 V2000
  161.0680  209.9640  152.4740 C   0  0  1  0  0  3  0  0  0  0  0  0
  162.3510  209.3870  151.6590 S   0  0  0  0  0  0  0  0  0  0  0  0
  160.7770  211.8890  150.8360 C   0  0  0  0  0  0  0  0  0  0  0  0
  161.9700  211.5290  150.1390 N   0  0  0  0  0  1  0  0  0  0  0  0
  160.3150  211.1280  151.9350 C   0  0  0  0  0  0  0  0  0  0  0  0
  159.1060  211.4970  152.5420 C   0  0  0  0  0  3  0  0  0  0  0  0
  158.8590  213.3120  151.0190 N   0  0  0  0  0  0  0  0  0  0  0  0
  160.0230  212.9910  150.3960 C   0  0  0  0  0  0  0  0  0  0  0  0
  158.3880  212.5950  152.0700 C   0  0  0  0  0  3  0  0  0  0  0  0
  160.4730  213.8160  149.2390 C   0  0  0  0  0  1  0  0  0  0  0  0
  160.6630  210.1780  154.9550 C   0  0  0  0  0  2  0  0  0  0  0  0
  160.4990  206.9620  154.8270 C   0  0  0  0  0  2  0  0  0  0  0  0
  161.8930  210.0260  155.6080 O   0  0  0  0  0  0  0  0  0  0  0  0
  161.2670  207.9140  153.9100 C   0  0  0  0  0  2  0  0  0  0  0  0
  161.5810  207.9980  156.8820 C   0  0  0  0  0  2  0  0  0  0  0  0
  160.5830  209.2710  153.7200 C   0  0  2  0  0  3  0  0  0  0  0  0
  160.2940  207.4810  156.2510 C   0  0  0  0  0  2  0  0  0  0  0  0
  161.5830  209.5240  156.8780 C   0  0  0  0  0  2  0  0  0  0  0  0
  161.6270  208.8670  148.4880 O   0  0  0  0  0  0  0  0  0  0  0  0
  161.7330  208.0000  150.7410 C   0  0  0  0  0  0  0  0  0  0  0  0
  161.4670  207.9410  149.3270 C   0  0  0  0  0  0  0  0  0  0  0  0
  160.9700  206.6520  149.0180 N   0  0  0  0  0  0  0  0  0  0  0  0
  161.4220  206.8650  151.2690 N   0  0  0  0  0  0  0  0  0  0  0  0
  160.5060  204.6570  150.3450 C   0  0  0  0  0  1  0  0  0  0  0  0
  160.9620  206.0610  150.1730 C   0  0  0  0  0  0  0  0  0  0  0  0
  1  2  1  6  0  0  0
  3  5  1  0  0  0  0
  4  3  1  0  0  0  0
  5  1  1  0  0  0  0
  5  6  2  0  0  0  0
  7  9  2  0  0  0  0
  8  3  2  0  0  0  0
  8  7  1  0  0  0  0
  9  6  1  0  0  0  0
 10  8  1  0  0  0  0
 11 13  1  0  0  0  0
 12 17  1  0  0  0  0
 13 18  1  0  0  0  0
 14 12  1  0  0  0  0
 16  1  1  6  0  0  0
 16 14  1  0  0  0  0
 16 11  1  0  0  0  0
 17 15  1  0  0  0  0
 18 15  1  0  0  0  0
 19 21  2  0  0  0  0
 20 23  2  0  0  0  0
 20  2  1  0  0  0  0
 21 20  1  0  0  0  0
 22 21  1  0  0  0  0
 22 25  2  0  0  0  0
 25 24  1  0  0  0  0
 25 23  1  0  0  0  0
M  END
>  <MODEL>
6

>  <REMARK>
 VINA RESULT:      -4.4      2.344      4.547
  Name = 
  3 active torsions:
  status: ('A' for Active; 'I' for Inactive)
    1  A    between atoms: C_6  and  S_20
    2  A    between atoms: C_7  and  C_19
    3  A    between atoms: C_16  and  C_19
                            x       y       z     vdW  Elec       q    Type
                         _______ _______ _______ _____ _____    ______ ____

>  <TORSDO>
F 3

$$$$
=
 OpenBabel11042420163D

 25 27  0  0  1  0  0  0  0  0999 V2000
  161.3390  213.0050  141.7950 C   0  0  1  0  0  3  0  0  0  0  0  0
  161.0210  214.4000  141.0220 S   0  0  0  0  0  0  0  0  0  0  0  0
  161.9490  213.1300  144.2620 C   0  0  0  0  0  0  0  0  0  0  0  0
  163.2590  213.6060  143.9550 N   0  0  0  0  0  1  0  0  0  0  0  0
  161.0070  212.8710  143.2390 C   0  0  0  0  0  0  0  0  0  0  0  0
  159.7170  212.4610  143.6060 C   0  0  0  0  0  3  0  0  0  0  0  0
  160.3090  212.5560  145.9110 N   0  0  0  0  0  0  0  0  0  0  0  0
  161.5700  212.9590  145.6050 C   0  0  0  0  0  0  0  0  0  0  0  0
  159.3840  212.3080  144.9500 C   0  0  0  0  0  3  0  0  0  0  0  0
  162.5310  213.2260  146.7140 C   0  0  0  0  0  1  0  0  0  0  0  0
  163.0160  212.2140  140.0850 C   0  0  0  0  0  2  0  0  0  0  0  0
  161.1470  209.5900  140.0140 C   0  0  0  0  0  2  0  0  0  0  0  0
  162.5180  212.5270  138.8140 O   0  0  0  0  0  0  0  0  0  0  0  0
  160.7580  211.0280  140.3610 C   0  0  0  0  0  2  0  0  0  0  0  0
  162.1780  210.3530  137.8180 C   0  0  0  0  0  2  0  0  0  0  0  0
  161.8800  211.8210  141.0380 C   0  0  2  0  0  3  0  0  0  0  0  0
  162.3270  209.4680  139.0490 C   0  0  0  0  0  2  0  0  0  0  0  0
  163.0780  211.5790  137.9490 C   0  0  0  0  0  2  0  0  0  0  0  0
  160.0830  214.3820  137.8640 O   0  0  0  0  0  0  0  0  0  0  0  0
  159.4780  214.1280  140.1890 C   0  0  0  0  0  0  0  0  0  0  0  0
  159.2380  214.1580  138.7700 C   0  0  0  0  0  0  0  0  0  0  0  0
  157.8640  213.9040  138.5420 N   0  0  0  0  0  0  0  0  0  0  0  0
  158.3630  213.8910  140.7940 N   0  0  0  0  0  0  0  0  0  0  0  0
  155.9610  213.4650  140.0070 C   0  0  0  0  0  1  0  0  0  0  0  0
  157.3950  213.7540  139.7440 C   0  0  0  0  0  0  0  0  0  0  0  0
  1  2  1  6  0  0  0
  1  5  1  0  0  0  0
  3  8  1  0  0  0  0
  4  3  1  0  0  0  0
  5  6  1  0  0  0  0
  5  3  2  0  0  0  0
  6  9  2  0  0  0  0
  8  7  2  0  0  0  0
  8 10  1  0  0  0  0
  9  7  1  0  0  0  0
 11 16  1  0  0  0  0
 12 14  1  0  0  0  0
 13 11  1  0  0  0  0
 14 16  1  0  0  0  0
 15 18  1  0  0  0  0
 15 17  1  0  0  0  0
 16  1  1  6  0  0  0
 17 12  1  0  0  0  0
 18 13  1  0  0  0  0
 19 21  2  0  0  0  0
 20 23  2  0  0  0  0
 20  2  1  0  0  0  0
 21 20  1  0  0  0  0
 22 21  1  0  0  0  0
 22 25  2  0  0  0  0
 25 24  1  0  0  0  0
 25 23  1  0  0  0  0
M  END
>  <MODEL>
7

>  <REMARK>
 VINA RESULT:      -4.2      8.216     11.362
  Name = 
  3 active torsions:
  status: ('A' for Active; 'I' for Inactive)
    1  A    between atoms: C_6  and  S_20
    2  A    between atoms: C_7  and  C_19
    3  A    between atoms: C_16  and  C_19
                            x       y       z     vdW  Elec       q    Type
                         _______ _______ _______ _____ _____    ______ ____

>  <TORSDO>
F 3

$$$$
=
 OpenBabel11042420163D

 25 27  0  0  1  0  0  0  0  0999 V2000
  160.6580  211.2770  139.4970 C   0  0  1  0  0  3  0  0  0  0  0  0
  161.3120  210.5380  140.7890 S   0  0  0  0  0  0  0  0  0  0  0  0
  158.5190  210.2180  138.6160 C   0  0  0  0  0  0  0  0  0  0  0  0
  159.2350  209.0850  138.1250 N   0  0  0  0  0  1  0  0  0  0  0  0
  159.1830  211.2600  139.3060 C   0  0  0  0  0  0  0  0  0  0  0  0
  158.4180  212.3180  139.8160 C   0  0  0  0  0  3  0  0  0  0  0  0
  156.4250  211.3290  138.9630 N   0  0  0  0  0  0  0  0  0  0  0  0
  157.1240  210.2800  138.4550 C   0  0  0  0  0  0  0  0  0  0  0  0
  157.0360  212.3380  139.6350 C   0  0  0  0  0  3  0  0  0  0  0  0
  156.3850  209.2020  137.7380 C   0  0  0  0  0  1  0  0  0  0  0  0
  162.9050  211.4090  138.3570 C   0  0  0  0  0  2  0  0  0  0  0  0
  162.0170  214.4530  137.7810 C   0  0  0  0  0  2  0  0  0  0  0  0
  163.8280  211.9190  139.2790 O   0  0  0  0  0  0  0  0  0  0  0  0
  161.5930  213.5380  138.9310 C   0  0  0  0  0  2  0  0  0  0  0  0
  164.4720  214.0260  138.2890 C   0  0  0  0  0  2  0  0  0  0  0  0
  161.5270  212.0570  138.5450 C   0  0  2  0  0  3  0  0  0  0  0  0
  163.4030  214.1530  137.2100 C   0  0  0  0  0  2  0  0  0  0  0  0
  164.8120  212.5550  138.5110 C   0  0  0  0  0  2  0  0  0  0  0  0
  159.4230  212.0430  143.0290 O   0  0  0  0  0  0  0  0  0  0  0  0
  161.5860  211.8290  141.9740 C   0  0  0  0  0  0  0  0  0  0  0  0
  160.6290  212.3810  142.8980 C   0  0  0  0  0  0  0  0  0  0  0  0
  161.2640  213.4000  143.6470 N   0  0  0  0  0  0  0  0  0  0  0  0
  162.7080  212.4490  142.1200 N   0  0  0  0  0  0  0  0  0  0  0  0
  163.5190  214.3340  143.6560 C   0  0  0  0  0  1  0  0  0  0  0  0
  162.4690  213.4050  143.1640 C   0  0  0  0  0  0  0  0  0  0  0  0
  1  2  1  1  0  0  0
  2 20  1  0  0  0  0
  3  5  1  0  0  0  0
  4  3  1  0  0  0  0
  5  1  1  0  0  0  0
  5  6  2  0  0  0  0
  7  9  2  0  0  0  0
  8  3  2  0  0  0  0
  8  7  1  0  0  0  0
  9  6  1  0  0  0  0
 10  8  1  0  0  0  0
 11 16  1  0  0  0  0
 11 13  1  0  0  0  0
 12 14  1  0  0  0  0
 15 18  1  0  0  0  0
 16 14  1  0  0  0  0
 16  1  1  1  0  0  0
 17 12  1  0  0  0  0
 17 15  1  0  0  0  0
 18 13  1  0  0  0  0
 20 23  2  0  0  0  0
 20 21  1  0  0  0  0
 21 19  2  0  0  0  0
 21 22  1  0  0  0  0
 23 25  1  0  0  0  0
 25 22  2  0  0  0  0
 25 24  1  0  0  0  0
M  END
>  <MODEL>
8

>  <REMARK>
 VINA RESULT:      -4.2      9.944     13.424
  Name = 
  3 active torsions:
  status: ('A' for Active; 'I' for Inactive)
    1  A    between atoms: C_6  and  S_20
    2  A    between atoms: C_7  and  C_19
    3  A    between atoms: C_16  and  C_19
                            x       y       z     vdW  Elec       q    Type
                         _______ _______ _______ _____ _____    ______ ____

>  <TORSDO>
F 3

$$$$
=
 OpenBabel11042420163D

 25 27  0  0  1  0  0  0  0  0999 V2000
  160.8300  209.2110  152.5790 C   0  0  1  0  0  3  0  0  0  0  0  0
  160.0410  209.4460  153.9800 S   0  0  0  0  0  0  0  0  0  0  0  0
  160.2580  211.5410  151.7290 C   0  0  0  0  0  0  0  0  0  0  0  0
  159.3240  211.7410  152.7900 N   0  0  0  0  0  1  0  0  0  0  0  0
  161.0120  210.3470  151.6350 C   0  0  0  0  0  0  0  0  0  0  0  0
  161.9560  210.2320  150.6050 C   0  0  0  0  0  3  0  0  0  0  0  0
  161.3920  212.4040  149.8040 N   0  0  0  0  0  0  0  0  0  0  0  0
  160.4690  212.5630  150.7880 C   0  0  0  0  0  0  0  0  0  0  0  0
  162.1340  211.2730  149.6950 C   0  0  0  0  0  3  0  0  0  0  0  0
  159.6980  213.8380  150.8540 C   0  0  0  0  0  1  0  0  0  0  0  0
  161.5880  207.6320  150.7640 C   0  0  0  0  0  2  0  0  0  0  0  0
  161.6050  205.4780  153.1610 C   0  0  0  0  0  2  0  0  0  0  0  0
  160.4560  206.9730  150.2640 O   0  0  0  0  0  0  0  0  0  0  0  0
  160.7530  206.7410  153.0200 C   0  0  0  0  0  2  0  0  0  0  0  0
  160.8630  204.6690  150.8670 C   0  0  0  0  0  2  0  0  0  0  0  0
  161.4580  207.8770  152.2720 C   0  0  2  0  0  3  0  0  0  0  0  0
  162.0280  204.8470  151.8340 C   0  0  0  0  0  2  0  0  0  0  0  0
  160.9220  205.7430  149.7830 C   0  0  0  0  0  2  0  0  0  0  0  0
  161.0730  207.7160  156.5860 O   0  0  0  0  0  0  0  0  0  0  0  0
  161.3130  209.6770  155.1960 C   0  0  0  0  0  0  0  0  0  0  0  0
  161.6370  208.8030  156.2940 C   0  0  0  0  0  0  0  0  0  0  0  0
  162.7060  209.3770  157.0230 N   0  0  0  0  0  0  0  0  0  0  0  0
  162.0920  210.7040  155.2390 N   0  0  0  0  0  0  0  0  0  0  0  0
  164.0030  211.4310  156.7860 C   0  0  0  0  0  1  0  0  0  0  0  0
  162.9390  210.4780  156.3760 C   0  0  0  0  0  0  0  0  0  0  0  0
  1  2  1  1  0  0  0
  2 20  1  0  0  0  0
  3  4  1  0  0  0  0
  5  3  1  0  0  0  0
  5  1  1  0  0  0  0
  6  5  2  0  0  0  0
  7  8  1  0  0  0  0
  8 10  1  0  0  0  0
  8  3  2  0  0  0  0
  9  7  2  0  0  0  0
  9  6  1  0  0  0  0
 11 16  1  0  0  0  0
 13 11  1  0  0  0  0
 14 12  1  0  0  0  0
 15 17  1  0  0  0  0
 16  1  1  6  0  0  0
 16 14  1  0  0  0  0
 17 12  1  0  0  0  0
 18 13  1  0  0  0  0
 18 15  1  0  0  0  0
 20 23  2  0  0  0  0
 20 21  1  0  0  0  0
 21 19  2  0  0  0  0
 21 22  1  0  0  0  0
 23 25  1  0  0  0  0
 25 24  1  0  0  0  0
 25 22  2  0  0  0  0
M  END
>  <MODEL>
9

>  <REMARK>
 VINA RESULT:      -4.2      1.984      5.309
  Name = 
  3 active torsions:
  status: ('A' for Active; 'I' for Inactive)
    1  A    between atoms: C_6  and  S_20
    2  A    between atoms: C_7  and  C_19
    3  A    between atoms: C_16  and  C_19
                            x       y       z     vdW  Elec       q    Type
                         _______ _______ _______ _____ _____    ______ ____

>  <TORSDO>
F 3

$$$$
