=
 OpenBabel11052411203D

 68 72  0  0  1  0  0  0  0  0999 V2000
  161.0340  211.6640  148.0460 C   0  0  2  0  0  3  0  0  0  0  0  0
  162.4600  212.7090  146.2360 C   0  0  0  0  0  3  0  0  0  0  0  0
  162.6290  213.6160  145.1830 C   0  0  0  0  0  3  0  0  0  0  0  0
  160.1630  213.4360  146.4960 C   0  0  0  0  0  3  0  0  0  0  0  0
  160.3370  214.3480  145.4480 C   0  0  0  0  0  3  0  0  0  0  0  0
  161.5710  214.4430  144.7960 C   0  0  0  0  0  3  0  0  0  0  0  0
  161.2260  212.6240  146.9040 C   0  0  0  0  0  0  0  0  0  0  0  0
  161.1340  210.1750  147.7860 C   0  0  0  0  0  0  0  0  0  0  0  0
  161.2670  207.5160  147.0200 C   0  0  0  0  0  3  0  0  0  0  0  0
  160.6550  209.7410  146.5920 N   0  0  0  0  0  0  0  0  0  0  0  0
  161.7830  207.8850  148.2570 C   0  0  0  0  0  3  0  0  0  0  0  0
  161.7440  209.2230  148.6530 C   0  0  0  0  0  0  0  0  0  0  0  0
  160.7250  208.4660  146.2120 N   0  0  0  0  0  0  0  0  0  0  0  0
  162.3280  209.5630  149.9860 C   0  0  0  0  0  2  0  0  0  0  0  0
  163.0570  208.4110  150.5110 N   0  0  0  0  0  2  0  0  0  0  0  0
  162.7290  208.2650  151.8670 N   0  0  0  0  0  0  0  0  0  0  0  0
  162.4930  209.6200  152.3980 C   0  0  0  0  0  2  0  0  0  0  0  0
  162.2570  209.6010  153.7720 O   0  0  0  0  0  1  0  0  0  0  0  0
  161.5100  207.4470  151.9070 C   0  0  0  0  0  2  0  0  0  0  0  0
  161.7800  205.9470  151.7230 C   0  0  2  0  0  3  0  0  0  0  0  0
  162.8720  206.1250  149.5810 O   0  0  0  0  0  0  0  0  0  0  0  0
  162.0300  205.5200  150.3010 C   0  0  0  0  0  0  0  0  0  0  0  0
  161.3500  204.3690  149.7960 N   0  0  0  0  0  2  0  0  0  0  0  0
  161.6850  203.7300  148.5330 C   0  0  1  0  0  3  0  0  0  0  0  0
  160.1580  201.5330  150.1110 C   0  0  0  0  0  1  0  0  0  0  0  0
  159.6700  201.8750  148.7020 C   0  0  1  0  0  3  0  0  0  0  0  0
  160.4320  203.0040  147.9630 C   0  0  2  0  0  3  0  0  0  0  0  0
  160.6510  201.5340  147.5800 C   0  0  2  0  0  0  0  0  0  0  0  0
  159.9580  201.1170  146.2880 C   0  0  0  0  0  2  0  0  0  0  0  0
  160.1940  202.1380  145.1950 C   0  0  0  0  0  1  0  0  0  0  0  0
  161.9650  200.8310  147.9480 C   0  0  0  0  0  2  0  0  0  0  0  0
  161.8250  200.1480  149.1570 O   0  0  0  0  0  1  0  0  0  0  0  0
  162.2710  204.6670  147.6790 O   0  0  0  0  0  0  0  0  0  0  0  0
  162.1760  204.0940  146.4050 C   0  0  0  0  0  2  0  0  0  0  0  0
  163.4740  204.3200  145.6570 C   0  0  0  0  0  1  0  0  0  0  0  0
  160.6990  205.1170  152.4170 C   0  0  0  0  0  2  0  0  0  0  0  0
  161.1420  203.6770  152.6630 C   0  0  0  0  0  1  0  0  0  0  0  0
  159.9060  212.0320  149.0190 C   0  0  0  0  0  2  0  0  0  0  0  0
  160.4350  212.6590  150.3120 C   0  0  1  0  0  3  0  0  0  0  0  0
  162.4980  213.5230  149.5810 O   0  0  0  0  0  0  0  0  0  0  0  0
  161.9250  212.7310  150.3190 C   0  0  0  0  0  3  0  0  0  0  0  0
  159.8400  214.0410  150.5510 C   0  0  0  0  0  2  0  0  0  0  0  0
  158.2410  212.1940  153.0030 C   0  0  2  0  0  3  0  0  0  0  0  0
  159.3670  213.1120  152.6440 C   0  0  2  0  0  3  0  0  0  0  0  0
  158.7320  211.1200  153.7480 O   0  0  0  0  0  0  0  0  0  0  0  0
  158.9010  211.6870  155.0310 C   0  0  2  0  0  3  0  0  0  0  0  0
  159.7450  213.8320  153.9340 C   0  0  0  0  0  2  0  0  0  0  0  0
  157.6180  211.8890  151.6820 C   0  0  0  0  0  2  0  0  0  0  0  0
  157.6600  213.2820  151.0520 C   0  0  2  0  0  3  0  0  0  0  0  0
  160.0040  212.8000  155.0720 C   0  0  1  0  0  0  0  0  0  0  0  0
  158.8390  213.9920  151.6050 N   0  0  0  0  0  0  0  0  0  0  0  0
  159.9050  213.5260  156.4110 C   0  0  0  0  0  1  0  0  0  0  0  0
  161.6330  211.7380  156.1130 O   0  0  0  0  0  1  0  0  0  0  0  0
  161.2760  212.1980  154.9260 O   0  0  0  0  0  0  0  0  0  0  0  0
  156.3600  214.0200  151.4110 C   0  0  2  0  0  3  0  0  0  0  0  0
  155.8530  213.6520  152.8020 C   0  0  0  0  0  2  0  0  0  0  0  0
  154.5990  214.4280  153.1780 C   0  0  0  0  0  1  0  0  0  0  0  0
  154.2080  214.3840  151.0380 C   0  0  0  0  0  1  0  0  0  0  0  0
  155.3520  213.8300  150.4590 O   0  0  0  0  0  0  0  0  0  0  0  0
  159.0090  210.6120  156.1150 C   0  0  0  0  0  2  0  0  0  0  0  0
  158.7750  209.3220  155.5900 O   0  0  0  0  0  0  0  0  0  0  0  0
  159.7900  208.4160  156.0090 C   0  0  2  0  0  0  0  0  0  0  0  0
  160.5000  208.9720  157.2400 C   0  0  0  0  0  1  0  0  0  0  0  0
  161.3340  206.8200  154.9900 O   0  0  0  0  0  1  0  0  0  0  0  0
  160.2780  208.3170  153.6270 O   0  0  0  0  0  1  0  0  0  0  0  0
  160.8260  208.1190  154.8940 C   0  0  0  0  0  3  0  0  0  0  0  0
  159.1190  207.1390  156.4460 C   0  0  0  0  0  3  0  0  0  0  0  0
  158.0980  206.6060  155.7800 C   0  0  0  0  0  2  0  0  0  0  0  0
  1 38  1  6  0  0  0
  2  7  1  0  0  0  0
  3  2  2  0  0  0  0
  4  7  2  0  0  0  0
  5  4  1  0  0  0  0
  6  3  1  0  0  0  0
  6  5  2  0  0  0  0
  7  1  1  0  0  0  0
  8  1  1  0  0  0  0
  8 12  1  0  0  0  0
  9 11  1  0  0  0  0
 10  8  2  0  0  0  0
 11 12  2  0  0  0  0
 12 14  1  0  0  0  0
 13 10  1  0  0  0  0
 13  9  2  0  0  0  0
 14 15  1  0  0  0  0
 15 16  1  0  0  0  0
 16 19  1  0  0  0  0
 16 17  1  0  0  0  0
 17 18  1  0  0  0  0
 20 19  1  6  0  0  0
 20 36  1  0  0  0  0
 21 22  2  0  0  0  0
 22 20  1  0  0  0  0
 23 22  1  0  0  0  0
 24 33  1  6  0  0  0
 24 23  1  0  0  0  0
 26 25  1  1  0  0  0
 27 24  1  1  0  0  0
 27 26  1  0  0  0  0
 28 29  1  6  0  0  0
 28 31  1  0  0  0  0
 28 27  1  0  0  0  0
 28 26  1  0  0  0  0
 30 29  1  0  0  0  0
 31 32  1  0  0  0  0
 34 33  1  0  0  0  0
 35 34  1  0  0  0  0
 36 37  1  0  0  0  0
 39 38  1  6  0  0  0
 39 41  1  0  0  0  0
 39 42  1  0  0  0  0
 40 41  2  0  0  0  0
 42 51  1  0  0  0  0
 43 48  1  6  0  0  0
 43 45  1  0  0  0  0
 44 43  1  0  0  0  0
 44 47  1  1  0  0  0
 45 46  1  0  0  0  0
 46 50  1  0  0  0  0
 46 60  1  1  0  0  0
 47 50  1  0  0  0  0
 49 55  1  1  0  0  0
 49 51  1  0  0  0  0
 49 48  1  0  0  0  0
 50 52  1  1  0  0  0
 51 44  1  0  0  0  0
 54 50  1  0  0  0  0
 54 53  1  0  0  0  0
 55 56  1  1  0  0  0
 56 57  1  0  0  0  0
 59 58  1  0  0  0  0
 59 55  1  0  0  0  0
 61 62  1  0  0  0  0
 61 60  1  0  0  0  0
 62 67  1  0  0  0  0
 62 63  1  1  0  0  0
 65 66  1  0  0  0  0
 66 64  1  0  0  0  0
 66 62  1  0  0  0  0
 68 67  2  0  0  0  0
M  END
>  <MODEL>
1

>  <REMARK>
 VINA RESULT:       5.2      0.000      0.000
  Name = 
  30 active torsions:
  status: ('A' for Active; 'I' for Inactive)
    1  A    between atoms: C_2  and  C_21
    2  A    between atoms: C_2  and  O_34
    3  A    between atoms: C_2  and  C_60
    4  A    between atoms: N_4  and  C_56
    5  A    between atoms: N_4  and  N_65
    6  A    between atoms: C_8  and  C_57
    7  A    between atoms: C_10  and  O_34
    8  A    between atoms: C_10  and  C_44
    9  A    between atoms: C_17  and  C_50
   10  A    between atoms: O_19  and  C_61
   11  A    between atoms: C_20  and  C_39
   12  A    between atoms: C_23  and  C_45
   13  A    between atoms: C_23  and  O_54
   14  A    between atoms: C_23  and  N_67
   15  A    between atoms: C_25  and  N_65
   16  A    between atoms: C_26  and  C_33
   17  A    between atoms: C_26  and  C_57
   18  A    between atoms: C_27  and  C_58
   19  A    between atoms: C_30  and  C_50
   20  A    between atoms: C_30  and  N_65
   21  A    between atoms: C_33  and  C_52
   22  A    between atoms: C_33  and  C_55
   23  A    between atoms: C_36  and  C_58
   24  A    between atoms: C_38  and  C_57
   25  A    between atoms: C_39  and  O_53
   26  A    between atoms: C_39  and  C_59
   27  A    between atoms: C_47  and  C_56
   28  A    between atoms: C_50  and  C_64
   29  A    between atoms: C_51  and  O_54
   30  A    between atoms: C_52  and  N_62
                            x       y       z     vdW  Elec       q    Type
                         _______ _______ _______ _____ _____    ______ ____

>  <TORSDO>
F 30

$$$$
=
 OpenBabel11052411203D

 68 72  0  0  1  0  0  0  0  0999 V2000
  158.7180  210.5130  154.5710 C   0  0  2  0  0  3  0  0  0  0  0  0
  156.3450  209.6780  154.8520 C   0  0  0  0  0  3  0  0  0  0  0  0
  155.0530  209.8180  155.3700 C   0  0  0  0  0  3  0  0  0  0  0  0
  157.0120  211.7310  155.9520 C   0  0  0  0  0  3  0  0  0  0  0  0
  155.7160  211.8740  156.4630 C   0  0  0  0  0  3  0  0  0  0  0  0
  154.7350  210.9210  156.1680 C   0  0  0  0  0  3  0  0  0  0  0  0
  157.3280  210.6420  155.1330 C   0  0  0  0  0  0  0  0  0  0  0  0
  159.7200  209.6220  155.2760 C   0  0  0  0  0  0  0  0  0  0  0  0
  161.4840  208.1420  156.8170 C   0  0  0  0  0  3  0  0  0  0  0  0
  160.1260  210.0310  156.5060 N   0  0  0  0  0  0  0  0  0  0  0  0
  161.1110  207.6560  155.5680 C   0  0  0  0  0  3  0  0  0  0  0  0
  160.2090  208.3770  154.7850 C   0  0  0  0  0  0  0  0  0  0  0  0
  160.9660  209.3200  157.2570 N   0  0  0  0  0  0  0  0  0  0  0  0
  159.8320  207.7970  153.4600 C   0  0  0  0  0  2  0  0  0  0  0  0
  160.5970  206.5750  153.2230 N   0  0  0  0  0  2  0  0  0  0  0  0
  160.0240  205.9020  152.1350 N   0  0  0  0  0  0  0  0  0  0  0  0
  160.7880  206.2980  150.9370 C   0  0  0  0  0  2  0  0  0  0  0  0
  160.0520  206.1080  149.7690 O   0  0  0  0  0  1  0  0  0  0  0  0
  160.1680  204.4680  152.4180 C   0  0  0  0  0  2  0  0  0  0  0  0
  161.1720  203.7650  151.4940 C   0  0  2  0  0  3  0  0  0  0  0  0
  160.3930  201.4840  151.4710 O   0  0  0  0  0  0  0  0  0  0  0  0
  160.6450  202.5300  150.8120 C   0  0  0  0  0  0  0  0  0  0  0  0
  160.3650  202.5810  149.4120 N   0  0  0  0  0  2  0  0  0  0  0  0
  159.6390  201.5400  148.7010 C   0  0  1  0  0  3  0  0  0  0  0  0
  162.3560  202.4900  147.5340 C   0  0  0  0  0  1  0  0  0  0  0  0
  161.9900  201.0120  147.3900 C   0  0  1  0  0  3  0  0  0  0  0  0
  160.6470  200.5690  148.0210 C   0  0  2  0  0  3  0  0  0  0  0  0
  160.7790  200.7310  146.5010 C   0  0  2  0  0  0  0  0  0  0  0  0
  160.8900  199.4130  145.7400 C   0  0  0  0  0  2  0  0  0  0  0  0
  162.1090  198.6340  146.1880 C   0  0  0  0  0  1  0  0  0  0  0  0
  160.1060  201.9130  145.7910 C   0  0  0  0  0  2  0  0  0  0  0  0
  159.3260  201.4580  144.7270 O   0  0  0  0  0  1  0  0  0  0  0  0
  158.7220  200.9390  149.5660 O   0  0  0  0  0  0  0  0  0  0  0  0
  157.4850  201.4920  149.2130 C   0  0  0  0  0  2  0  0  0  0  0  0
  157.0620  200.9500  147.8630 C   0  0  0  0  0  1  0  0  0  0  0  0
  162.4970  203.5290  152.2210 C   0  0  0  0  0  2  0  0  0  0  0  0
  163.1270  202.1880  151.8550 C   0  0  0  0  0  1  0  0  0  0  0  0
  159.3320  211.8200  154.0520 C   0  0  0  0  0  2  0  0  0  0  0  0
  159.0300  212.0550  152.5690 C   0  0  1  0  0  3  0  0  0  0  0  0
  157.1330  212.5880  151.2830 O   0  0  0  0  0  0  0  0  0  0  0  0
  157.6860  212.6720  152.3720 C   0  0  0  0  0  3  0  0  0  0  0  0
  160.1030  212.9100  151.9060 C   0  0  0  0  0  2  0  0  0  0  0  0
  161.6820  210.0650  150.7260 C   0  0  2  0  0  3  0  0  0  0  0  0
  161.2550  211.4750  150.4640 C   0  0  2  0  0  3  0  0  0  0  0  0
  161.3360  209.2610  149.6380 O   0  0  0  0  0  0  0  0  0  0  0  0
  162.3450  209.5670  148.6970 C   0  0  2  0  0  3  0  0  0  0  0  0
  162.2230  212.0140  149.4160 C   0  0  0  0  0  2  0  0  0  0  0  0
  161.0440  209.7570  152.0400 C   0  0  0  0  0  2  0  0  0  0  0  0
  161.3120  211.0740  152.7690 C   0  0  2  0  0  3  0  0  0  0  0  0
  162.2860  211.0510  148.1930 C   0  0  1  0  0  0  0  0  0  0  0  0
  161.3370  212.1550  151.7540 N   0  0  0  0  0  0  0  0  0  0  0  0
  163.5650  211.3460  147.4150 C   0  0  0  0  0  1  0  0  0  0  0  0
  160.4920  212.2740  147.8050 O   0  0  0  0  0  1  0  0  0  0  0  0
  161.1510  211.2160  147.3650 O   0  0  0  0  0  0  0  0  0  0  0  0
  162.6680  210.9680  153.4860 C   0  0  2  0  0  3  0  0  0  0  0  0
  163.7620  210.4190  152.5750 C   0  0  0  0  0  2  0  0  0  0  0  0
  165.1380  210.9530  152.9470 C   0  0  0  0  0  1  0  0  0  0  0  0
  163.4030  210.9090  155.5740 C   0  0  0  0  0  1  0  0  0  0  0  0
  162.5960  210.2190  154.6670 O   0  0  0  0  0  0  0  0  0  0  0  0
  162.4380  208.5030  147.6020 C   0  0  0  0  0  2  0  0  0  0  0  0
  162.8310  207.2530  148.1270 O   0  0  0  0  0  0  0  0  0  0  0  0
  162.1740  206.1910  147.4430 C   0  0  2  0  0  0  0  0  0  0  0  0
  162.1030  204.9630  148.3450 C   0  0  0  0  0  1  0  0  0  0  0  0
  163.9800  205.0030  146.3050 O   0  0  0  0  0  1  0  0  0  0  0  0
  161.9750  205.1980  145.2310 O   0  0  0  0  0  1  0  0  0  0  0  0
  162.8650  205.8210  146.1050 C   0  0  0  0  0  3  0  0  0  0  0  0
  160.7490  206.6150  147.1900 C   0  0  0  0  0  3  0  0  0  0  0  0
  160.4070  207.3920  146.1650 C   0  0  0  0  0  2  0  0  0  0  0  0
  1 38  1  1  0  0  0
  1  7  1  0  0  0  0
  1  8  1  0  0  0  0
  2  7  2  0  0  0  0
  2  3  1  0  0  0  0
  3  6  2  0  0  0  0
  4  5  2  0  0  0  0
  6  5  1  0  0  0  0
  7  4  1  0  0  0  0
  8 10  1  0  0  0  0
  9 13  1  0  0  0  0
 10 13  2  0  0  0  0
 11  9  2  0  0  0  0
 12  8  2  0  0  0  0
 12 11  1  0  0  0  0
 14 12  1  0  0  0  0
 15 14  1  0  0  0  0
 16 19  1  0  0  0  0
 16 15  1  0  0  0  0
 17 16  1  0  0  0  0
 18 17  1  0  0  0  0
 20 36  1  1  0  0  0
 20 19  1  0  0  0  0
 22 21  2  0  0  0  0
 22 20  1  0  0  0  0
 23 22  1  0  0  0  0
 24 23  1  1  0  0  0
 24 33  1  0  0  0  0
 26 25  1  1  0  0  0
 26 27  1  0  0  0  0
 27 24  1  1  0  0  0
 28 29  1  6  0  0  0
 28 26  1  0  0  0  0
 28 27  1  0  0  0  0
 29 30  1  0  0  0  0
 31 28  1  0  0  0  0
 32 31  1  0  0  0  0
 34 33  1  0  0  0  0
 35 34  1  0  0  0  0
 37 36  1  0  0  0  0
 39 42  1  1  0  0  0
 39 38  1  0  0  0  0
 40 41  2  0  0  0  0
 41 39  1  0  0  0  0
 43 48  1  1  0  0  0
 44 47  1  6  0  0  0
 44 43  1  0  0  0  0
 44 51  1  0  0  0  0
 45 43  1  0  0  0  0
 46 60  1  6  0  0  0
 46 45  1  0  0  0  0
 48 49  1  0  0  0  0
 49 55  1  6  0  0  0
 50 52  1  6  0  0  0
 50 46  1  0  0  0  0
 50 47  1  0  0  0  0
 51 42  1  0  0  0  0
 51 49  1  0  0  0  0
 54 53  1  0  0  0  0
 54 50  1  0  0  0  0
 55 56  1  6  0  0  0
 55 59  1  0  0  0  0
 56 57  1  0  0  0  0
 59 58  1  0  0  0  0
 60 61  1  0  0  0  0
 62 61  1  0  0  0  0
 62 63  1  1  0  0  0
 65 66  1  0  0  0  0
 66 64  1  0  0  0  0
 66 62  1  0  0  0  0
 67 62  1  0  0  0  0
 68 67  2  0  0  0  0
M  END
>  <MODEL>
2

>  <REMARK>
 VINA RESULT:       5.7      2.465      7.220
  Name = 
  30 active torsions:
  status: ('A' for Active; 'I' for Inactive)
    1  A    between atoms: C_2  and  C_21
    2  A    between atoms: C_2  and  O_34
    3  A    between atoms: C_2  and  C_60
    4  A    between atoms: N_4  and  C_56
    5  A    between atoms: N_4  and  N_65
    6  A    between atoms: C_8  and  C_57
    7  A    between atoms: C_10  and  O_34
    8  A    between atoms: C_10  and  C_44
    9  A    between atoms: C_17  and  C_50
   10  A    between atoms: O_19  and  C_61
   11  A    between atoms: C_20  and  C_39
   12  A    between atoms: C_23  and  C_45
   13  A    between atoms: C_23  and  O_54
   14  A    between atoms: C_23  and  N_67
   15  A    between atoms: C_25  and  N_65
   16  A    between atoms: C_26  and  C_33
   17  A    between atoms: C_26  and  C_57
   18  A    between atoms: C_27  and  C_58
   19  A    between atoms: C_30  and  C_50
   20  A    between atoms: C_30  and  N_65
   21  A    between atoms: C_33  and  C_52
   22  A    between atoms: C_33  and  C_55
   23  A    between atoms: C_36  and  C_58
   24  A    between atoms: C_38  and  C_57
   25  A    between atoms: C_39  and  O_53
   26  A    between atoms: C_39  and  C_59
   27  A    between atoms: C_47  and  C_56
   28  A    between atoms: C_50  and  C_64
   29  A    between atoms: C_51  and  O_54
   30  A    between atoms: C_52  and  N_62
                            x       y       z     vdW  Elec       q    Type
                         _______ _______ _______ _____ _____    ______ ____

>  <TORSDO>
F 30

$$$$
