=
 OpenBabel11042421573D

 39 43  0  0  1  0  0  0  0  0999 V2000
  161.3240  209.3140  152.3790 C   0  0  0  0  0  0  0  0  0  0  0  0
  162.1660  206.2430  146.5630 C   0  0  0  0  0  2  0  0  0  0  0  0
  161.3320  207.3450  151.1710 C   0  0  0  0  0  0  0  0  0  0  0  0
  161.2950  205.0450  149.9710 C   0  0  0  0  0  3  0  0  0  0  0  0
  161.5310  208.7170  151.0570 C   0  0  2  0  0  3  0  0  0  0  0  0
  161.1560  210.9460  154.1330 C   0  0  0  0  0  3  0  0  0  0  0  0
  160.8300  209.9230  155.0460 C   0  0  0  0  0  3  0  0  0  0  0  0
  161.0040  208.3060  153.2770 C   0  0  0  0  0  0  0  0  0  0  0  0
  161.8730  206.0440  147.8490 C   0  0  0  0  0  0  0  0  0  0  0  0
  160.4310  207.5780  155.5190 O   0  0  0  0  0  1  0  0  0  0  0  0
  160.7520  208.5870  154.6210 C   0  0  0  0  0  0  0  0  0  0  0  0
  160.9970  207.0340  152.5570 C   0  0  0  0  0  0  0  0  0  0  0  0
  162.0020  208.4710  148.6950 C   0  0  0  0  0  3  0  0  0  0  0  0
  161.4650  206.5230  150.0560 C   0  0  0  0  0  0  0  0  0  0  0  0
  161.8700  209.3100  149.8270 C   0  0  0  0  0  0  0  0  0  0  0  0
  161.5650  204.7200  148.4880 C   0  0  0  0  0  3  0  0  0  0  0  0
  161.4060  210.6470  152.7820 C   0  0  0  0  0  3  0  0  0  0  0  0
  161.7940  207.0870  148.8450 C   0  0  0  0  0  0  0  0  0  0  0  0
  160.7490  205.8960  153.0370 O   0  0  0  0  0  0  0  0  0  0  0  0
  162.2460  205.1330  145.5660 C   0  0  0  0  0  2  0  0  0  0  0  0
  160.0590  205.7360  144.8430 O   0  0  0  0  0  0  0  0  0  0  0  0
  160.8940  204.8090  145.0290 C   0  0  0  0  0  0  0  0  0  0  0  0
  160.8730  202.4160  145.5970 C   0  0  0  0  0  1  0  0  0  0  0  0
  160.5760  203.4880  144.7150 O   0  0  0  0  0  0  0  0  0  0  0  0
  162.0660  210.7250  149.7340 N   0  0  0  0  0  2  0  0  0  0  0  0
  162.0960  211.4510  148.4700 C   0  0  2  0  0  3  0  0  0  0  0  0
  163.5290  211.8560  148.1590 C   0  0  0  0  0  1  0  0  0  0  0  0
  161.2060  212.6890  148.5620 C   0  0  2  0  0  3  0  0  0  0  0  0
  160.5930  212.7440  149.8160 O   0  0  0  0  0  1  0  0  0  0  0  0
  160.1330  212.6500  147.4860 C   0  0  0  0  0  2  0  0  0  0  0  0
  160.4180  213.6200  146.4850 O   0  0  0  0  0  0  0  0  0  0  0  0
  161.3080  212.4110  143.0840 C   0  0  0  0  0  0  0  0  0  0  0  0
  162.6640  212.7470  143.0450 C   0  0  0  0  0  3  0  0  0  0  0  0
  160.5510  212.6970  144.2240 C   0  0  0  0  0  3  0  0  0  0  0  0
  162.5050  213.6540  145.2840 C   0  0  0  0  0  3  0  0  0  0  0  0
  161.1470  213.3210  145.3320 C   0  0  0  0  0  0  0  0  0  0  0  0
  163.2630  213.3680  144.1440 C   0  0  0  0  0  3  0  0  0  0  0  0
  160.1960  211.2590  141.0450 N   0  0  0  0  0  0  0  0  0  0  0  0
  160.6920  211.7730  141.9550 C   0  0  0  0  0  0  0  0  0  0  0  0
  1 17  2  0  0  0  0
  1  8  1  0  0  0  0
  2  9  1  0  0  0  0
  3 12  1  0  0  0  0
  4 14  1  0  0  0  0
  5 15  1  1  0  0  0
  5  3  1  0  0  0  0
  5  1  1  0  0  0  0
  6  7  2  0  0  0  0
  8 11  2  0  0  0  0
  9 16  1  0  0  0  0
  9 18  2  0  0  0  0
 11  7  1  0  0  0  0
 11 10  1  0  0  0  0
 12 19  2  0  0  0  0
 12  8  1  0  0  0  0
 13 18  1  0  0  0  0
 13 15  2  0  0  0  0
 14  3  2  0  0  0  0
 16  4  2  0  0  0  0
 17  6  1  0  0  0  0
 18 14  1  0  0  0  0
 20  2  1  0  0  0  0
 21 22  2  0  0  0  0
 22 20  1  0  0  0  0
 24 22  1  0  0  0  0
 24 23  1  0  0  0  0
 25 15  1  0  0  0  0
 26 27  1  1  0  0  0
 26 28  1  0  0  0  0
 26 25  1  0  0  0  0
 28 29  1  1  0  0  0
 30 28  1  0  0  0  0
 31 30  1  0  0  0  0
 32 34  1  0  0  0  0
 33 32  2  0  0  0  0
 33 37  1  0  0  0  0
 34 36  2  0  0  0  0
 35 36  1  0  0  0  0
 36 31  1  0  0  0  0
 37 35  2  0  0  0  0
 38 39  3  0  0  0  0
 39 32  1  0  0  0  0
M  END
>  <MODEL>
1

>  <REMARK>
 VINA RESULT:      -9.3      0.000      0.000
  Name = 
  10 active torsions:
  status: ('A' for Active; 'I' for Inactive)
    1  A    between atoms: C_1  and  C_8
    2  A    between atoms: C_6  and  C_26
    3  A    between atoms: C_6  and  C_30
    4  A    between atoms: C_9  and  C_12
    5  A    between atoms: C_12  and  C_33
    6  A    between atoms: O_14  and  C_20
    7  A    between atoms: O_14  and  C_30
    8  A    between atoms: C_26  and  N_34
    9  A    between atoms: C_31  and  N_34
   10  A    between atoms: C_33  and  O_37
                            x       y       z     vdW  Elec       q    Type
                         _______ _______ _______ _____ _____    ______ ____

>  <TORSDO>
F 10

$$$$
=
 OpenBabel11042421573D

 39 43  0  0  1  0  0  0  0  0999 V2000
  161.3040  209.1760  152.3000 C   0  0  0  0  0  0  0  0  0  0  0  0
  162.1960  205.8560  146.6310 C   0  0  0  0  0  2  0  0  0  0  0  0
  161.3020  207.1590  151.1740 C   0  0  0  0  0  0  0  0  0  0  0  0
  161.2480  204.8130  150.0680 C   0  0  0  0  0  3  0  0  0  0  0  0
  161.5240  208.5220  151.0070 C   0  0  2  0  0  3  0  0  0  0  0  0
  161.1330  210.8810  153.9820 C   0  0  0  0  0  3  0  0  0  0  0  0
  160.7760  209.9030  154.9310 C   0  0  0  0  0  3  0  0  0  0  0  0
  160.9530  208.2110  153.2320 C   0  0  0  0  0  0  0  0  0  0  0  0
  161.8780  205.7140  147.9180 C   0  0  0  0  0  0  0  0  0  0  0  0
  160.3310  207.5850  155.4920 O   0  0  0  0  0  1  0  0  0  0  0  0
  160.6830  208.5510  154.5590 C   0  0  0  0  0  0  0  0  0  0  0  0
  160.9380  206.9110  152.5650 C   0  0  0  0  0  0  0  0  0  0  0  0
  162.0320  208.1720  148.6660 C   0  0  0  0  0  3  0  0  0  0  0  0
  161.4400  206.2900  150.0960 C   0  0  0  0  0  0  0  0  0  0  0  0
  161.8940  209.0590  149.7600 C   0  0  0  0  0  0  0  0  0  0  0  0
  161.5380  204.4230  148.6050 C   0  0  0  0  0  3  0  0  0  0  0  0
  161.4020  210.5230  152.6500 C   0  0  0  0  0  3  0  0  0  0  0  0
  161.7990  206.7980  148.8690 C   0  0  0  0  0  0  0  0  0  0  0  0
  160.6640  205.7980  153.0870 O   0  0  0  0  0  0  0  0  0  0  0  0
  162.2760  204.7040  145.6810 C   0  0  0  0  0  2  0  0  0  0  0  0
  160.4780  205.5870  144.3930 O   0  0  0  0  0  0  0  0  0  0  0  0
  161.0050  204.5660  144.9140 C   0  0  0  0  0  0  0  0  0  0  0  0
  160.7750  202.2150  145.5960 C   0  0  0  0  0  1  0  0  0  0  0  0
  160.4270  203.3070  144.7600 O   0  0  0  0  0  0  0  0  0  0  0  0
  162.1140  210.4650  149.6130 N   0  0  0  0  0  2  0  0  0  0  0  0
  162.0920  211.1520  148.3270 C   0  0  2  0  0  3  0  0  0  0  0  0
  163.3010  212.0720  148.2290 C   0  0  0  0  0  1  0  0  0  0  0  0
  160.8030  211.9590  148.1910 C   0  0  2  0  0  3  0  0  0  0  0  0
  160.6110  212.3290  146.8570 O   0  0  0  0  0  1  0  0  0  0  0  0
  160.8700  213.2120  149.0490 C   0  0  0  0  0  2  0  0  0  0  0  0
  159.8750  214.1380  148.6280 O   0  0  0  0  0  0  0  0  0  0  0  0
  157.0330  214.2080  151.0240 C   0  0  0  0  0  0  0  0  0  0  0  0
  155.9550  214.1440  150.1370 C   0  0  0  0  0  3  0  0  0  0  0  0
  158.3420  214.2070  150.5330 C   0  0  0  0  0  3  0  0  0  0  0  0
  157.4950  214.0780  148.2700 C   0  0  0  0  0  3  0  0  0  0  0  0
  158.5800  214.1410  149.1500 C   0  0  0  0  0  0  0  0  0  0  0  0
  156.1850  214.0790  148.7600 C   0  0  0  0  0  3  0  0  0  0  0  0
  156.6060  214.3310  153.5790 N   0  0  0  0  0  0  0  0  0  0  0  0
  156.7970  214.2760  152.4390 C   0  0  0  0  0  0  0  0  0  0  0  0
  1 17  2  0  0  0  0
  1  8  1  0  0  0  0
  2  9  1  0  0  0  0
  3 12  1  0  0  0  0
  4 14  1  0  0  0  0
  5 15  1  1  0  0  0
  5  3  1  0  0  0  0
  5  1  1  0  0  0  0
  6  7  2  0  0  0  0
  8 11  2  0  0  0  0
  9 16  1  0  0  0  0
  9 18  2  0  0  0  0
 11  7  1  0  0  0  0
 11 10  1  0  0  0  0
 12 19  2  0  0  0  0
 12  8  1  0  0  0  0
 13 18  1  0  0  0  0
 13 15  2  0  0  0  0
 14  3  2  0  0  0  0
 16  4  2  0  0  0  0
 17  6  1  0  0  0  0
 18 14  1  0  0  0  0
 20  2  1  0  0  0  0
 21 22  2  0  0  0  0
 22 20  1  0  0  0  0
 24 22  1  0  0  0  0
 24 23  1  0  0  0  0
 25 15  1  0  0  0  0
 26 27  1  1  0  0  0
 26 25  1  0  0  0  0
 28 29  1  6  0  0  0
 28 26  1  0  0  0  0
 28 30  1  0  0  0  0
 31 30  1  0  0  0  0
 31 36  1  0  0  0  0
 32 39  1  0  0  0  0
 33 32  2  0  0  0  0
 34 32  1  0  0  0  0
 35 37  2  0  0  0  0
 35 36  1  0  0  0  0
 36 34  2  0  0  0  0
 37 33  1  0  0  0  0
 39 38  3  0  0  0  0
M  END
>  <MODEL>
2

>  <REMARK>
 VINA RESULT:      -8.7      2.468      4.199
  Name = 
  10 active torsions:
  status: ('A' for Active; 'I' for Inactive)
    1  A    between atoms: C_1  and  C_8
    2  A    between atoms: C_6  and  C_26
    3  A    between atoms: C_6  and  C_30
    4  A    between atoms: C_9  and  C_12
    5  A    between atoms: C_12  and  C_33
    6  A    between atoms: O_14  and  C_20
    7  A    between atoms: O_14  and  C_30
    8  A    between atoms: C_26  and  N_34
    9  A    between atoms: C_31  and  N_34
   10  A    between atoms: C_33  and  O_37
                            x       y       z     vdW  Elec       q    Type
                         _______ _______ _______ _____ _____    ______ ____

>  <TORSDO>
F 10

$$$$
=
 OpenBabel11042421573D

 39 43  0  0  1  0  0  0  0  0999 V2000
  161.3280  209.3680  152.9360 C   0  0  0  0  0  0  0  0  0  0  0  0
  162.0860  206.4100  147.0510 C   0  0  0  0  0  2  0  0  0  0  0  0
  161.3140  207.4240  151.6890 C   0  0  0  0  0  0  0  0  0  0  0  0
  161.2520  205.1480  150.4440 C   0  0  0  0  0  3  0  0  0  0  0  0
  161.5160  208.7970  151.6000 C   0  0  2  0  0  3  0  0  0  0  0  0
  161.1890  210.9650  154.7240 C   0  0  0  0  0  3  0  0  0  0  0  0
  160.8700  209.9260  155.6210 C   0  0  0  0  0  3  0  0  0  0  0  0
  161.0150  208.3440  153.8170 C   0  0  0  0  0  0  0  0  0  0  0  0
  161.8080  206.1870  148.3360 C   0  0  0  0  0  0  0  0  0  0  0  0
  160.4680  207.5730  156.0520 O   0  0  0  0  0  1  0  0  0  0  0  0
  160.7810  208.5990  155.1700 C   0  0  0  0  0  0  0  0  0  0  0  0
  160.9940  207.0860  153.0730 C   0  0  0  0  0  0  0  0  0  0  0  0
  161.9580  208.5960  149.2280 C   0  0  0  0  0  3  0  0  0  0  0  0
  161.4290  206.6240  150.5570 C   0  0  0  0  0  0  0  0  0  0  0  0
  161.8430  209.4130  150.3780 C   0  0  0  0  0  0  0  0  0  0  0  0
  161.5030  204.8520  148.9520 C   0  0  0  0  0  3  0  0  0  0  0  0
  161.4210  210.6920  153.3650 C   0  0  0  0  0  3  0  0  0  0  0  0
  161.7450  207.2090  149.3530 C   0  0  0  0  0  0  0  0  0  0  0  0
  160.7480  205.9400  153.5330 O   0  0  0  0  0  0  0  0  0  0  0  0
  162.1500  205.3200  146.0300 C   0  0  0  0  0  2  0  0  0  0  0  0
  160.1570  206.2920  145.1610 O   0  0  0  0  0  0  0  0  0  0  0  0
  160.8880  205.2670  145.2380 C   0  0  0  0  0  0  0  0  0  0  0  0
  160.6690  202.8180  145.1800 C   0  0  0  0  0  1  0  0  0  0  0  0
  160.5440  204.0930  144.5690 O   0  0  0  0  0  0  0  0  0  0  0  0
  162.0430  210.8280  150.3110 N   0  0  0  0  0  2  0  0  0  0  0  0
  161.6520  211.6430  149.1660 C   0  0  2  0  0  3  0  0  0  0  0  0
  162.8310  211.7680  148.2130 C   0  0  0  0  0  1  0  0  0  0  0  0
  161.2070  213.0240  149.6400 C   0  0  2  0  0  3  0  0  0  0  0  0
  159.8290  213.0270  149.8730 O   0  0  0  0  0  1  0  0  0  0  0  0
  161.5350  214.0750  148.5920 C   0  0  0  0  0  2  0  0  0  0  0  0
  160.3700  214.3840  147.8370 O   0  0  0  0  0  0  0  0  0  0  0  0
  160.6360  212.8440  144.4640 C   0  0  0  0  0  0  0  0  0  0  0  0
  159.3270  212.3880  144.2920 C   0  0  0  0  0  3  0  0  0  0  0  0
  160.9940  213.5100  145.6400 C   0  0  0  0  0  3  0  0  0  0  0  0
  158.7350  213.2620  146.4700 C   0  0  0  0  0  3  0  0  0  0  0  0
  160.0430  213.7230  146.6510 C   0  0  0  0  0  0  0  0  0  0  0  0
  158.3760  212.5960  145.2940 C   0  0  0  0  0  3  0  0  0  0  0  0
  162.4010  212.4580  142.6040 N   0  0  0  0  0  0  0  0  0  0  0  0
  161.6130  212.6300  143.4340 C   0  0  0  0  0  0  0  0  0  0  0  0
  1 17  2  0  0  0  0
  1  8  1  0  0  0  0
  2  9  1  0  0  0  0
  3 12  1  0  0  0  0
  4 14  1  0  0  0  0
  5 15  1  1  0  0  0
  5  3  1  0  0  0  0
  5  1  1  0  0  0  0
  6  7  2  0  0  0  0
  8 11  2  0  0  0  0
  9 16  1  0  0  0  0
  9 18  2  0  0  0  0
 11  7  1  0  0  0  0
 11 10  1  0  0  0  0
 12 19  2  0  0  0  0
 12  8  1  0  0  0  0
 13 18  1  0  0  0  0
 13 15  2  0  0  0  0
 14  3  2  0  0  0  0
 16  4  2  0  0  0  0
 17  6  1  0  0  0  0
 18 14  1  0  0  0  0
 20  2  1  0  0  0  0
 21 22  2  0  0  0  0
 22 20  1  0  0  0  0
 24 23  1  0  0  0  0
 24 22  1  0  0  0  0
 25 15  1  0  0  0  0
 26 27  1  6  0  0  0
 26 28  1  0  0  0  0
 26 25  1  0  0  0  0
 28 29  1  6  0  0  0
 30 28  1  0  0  0  0
 31 30  1  0  0  0  0
 32 34  1  0  0  0  0
 33 32  2  0  0  0  0
 33 37  1  0  0  0  0
 34 36  2  0  0  0  0
 35 36  1  0  0  0  0
 36 31  1  0  0  0  0
 37 35  2  0  0  0  0
 38 39  3  0  0  0  0
 39 32  1  0  0  0  0
M  END
>  <MODEL>
3

>  <REMARK>
 VINA RESULT:      -8.7      0.975      1.550
  Name = 
  10 active torsions:
  status: ('A' for Active; 'I' for Inactive)
    1  A    between atoms: C_1  and  C_8
    2  A    between atoms: C_6  and  C_26
    3  A    between atoms: C_6  and  C_30
    4  A    between atoms: C_9  and  C_12
    5  A    between atoms: C_12  and  C_33
    6  A    between atoms: O_14  and  C_20
    7  A    between atoms: O_14  and  C_30
    8  A    between atoms: C_26  and  N_34
    9  A    between atoms: C_31  and  N_34
   10  A    between atoms: C_33  and  O_37
                            x       y       z     vdW  Elec       q    Type
                         _______ _______ _______ _____ _____    ______ ____

>  <TORSDO>
F 10

$$$$
=
 OpenBabel11042421573D

 39 43  0  0  1  0  0  0  0  0999 V2000
  161.5120  205.8660  147.7970 C   0  0  0  0  0  0  0  0  0  0  0  0
  161.1260  207.6330  154.1760 C   0  0  0  0  0  2  0  0  0  0  0  0
  161.2380  205.2410  150.0040 C   0  0  0  0  0  0  0  0  0  0  0  0
  160.9190  204.3630  152.4240 C   0  0  0  0  0  3  0  0  0  0  0  0
  161.4360  206.3440  149.1800 C   0  0  0  0  0  0  0  0  0  0  0  0
  161.7330  205.8590  145.4060 C   0  0  0  0  0  3  0  0  0  0  0  0
  161.5790  204.4580  145.4010 C   0  0  0  0  0  3  0  0  0  0  0  0
  161.3600  204.4880  147.7940 C   0  0  0  0  0  0  0  0  0  0  0  0
  161.0810  206.5890  153.3470 C   0  0  0  0  0  0  0  0  0  0  0  0
  161.2380  202.3780  146.6020 O   0  0  0  0  0  1  0  0  0  0  0  0
  161.3900  203.7590  146.6040 C   0  0  0  0  0  0  0  0  0  0  0  0
  161.1820  204.0410  149.1740 C   0  0  0  0  0  0  0  0  0  0  0  0
  161.4220  207.8090  151.1070 C   0  0  0  0  0  3  0  0  0  0  0  0
  161.1300  205.4060  151.3810 C   0  0  0  0  0  0  0  0  0  0  0  0
  161.5300  207.6460  149.7050 C   0  0  0  0  0  0  0  0  0  0  0  0
  160.8880  205.1540  153.7470 C   0  0  0  0  0  2  0  0  0  0  0  0
  161.7010  206.5790  146.6120 C   0  0  0  0  0  3  0  0  0  0  0  0
  161.2220  206.6720  151.9130 C   0  0  0  0  0  0  0  0  0  0  0  0
  161.0150  202.8580  149.5700 O   0  0  0  0  0  0  0  0  0  0  0  0
  160.9670  207.5040  155.6570 C   0  0  0  0  0  2  0  0  0  0  0  0
  160.1240  209.4940  156.6560 O   0  0  0  0  0  0  0  0  0  0  0  0
  161.1410  208.8270  156.3220 C   0  0  0  0  0  0  0  0  0  0  0  0
  162.7690  210.6670  156.4310 C   0  0  0  0  0  1  0  0  0  0  0  0
  162.4250  209.3000  156.5890 O   0  0  0  0  0  0  0  0  0  0  0  0
  161.7380  208.7650  148.8380 N   0  0  0  0  0  2  0  0  0  0  0  0
  162.3420  210.0190  149.2730 C   0  0  2  0  0  3  0  0  0  0  0  0
  161.7170  210.4450  150.5930 C   0  0  0  0  0  1  0  0  0  0  0  0
  162.1230  211.0960  148.2130 C   0  0  2  0  0  3  0  0  0  0  0  0
  163.3470  211.6640  147.8510 O   0  0  0  0  0  1  0  0  0  0  0  0
  161.2090  212.1860  148.7470 C   0  0  0  0  0  2  0  0  0  0  0  0
  161.0610  213.2120  147.7730 O   0  0  0  0  0  0  0  0  0  0  0  0
  160.6790  212.7040  144.1100 C   0  0  0  0  0  0  0  0  0  0  0  0
  159.2970  212.5160  144.0250 C   0  0  0  0  0  3  0  0  0  0  0  0
  161.2760  212.9360  145.3520 C   0  0  0  0  0  3  0  0  0  0  0  0
  159.1110  212.7930  146.4230 C   0  0  0  0  0  3  0  0  0  0  0  0
  160.4930  212.9820  146.5170 C   0  0  0  0  0  0  0  0  0  0  0  0
  158.5120  212.5610  145.1800 C   0  0  0  0  0  3  0  0  0  0  0  0
  162.1350  212.6200  141.9660 N   0  0  0  0  0  0  0  0  0  0  0  0
  161.4850  212.6580  142.9220 C   0  0  0  0  0  0  0  0  0  0  0  0
  1  5  1  0  0  0  0
  2 20  1  0  0  0  0
  3 14  1  0  0  0  0
  4 16  1  0  0  0  0
  5 15  1  0  0  0  0
  5  3  2  0  0  0  0
  6 17  1  0  0  0  0
  7  6  2  0  0  0  0
  7 11  1  0  0  0  0
  8  1  1  0  0  0  0
  8 12  1  0  0  0  0
  9 16  1  0  0  0  0
  9  2  1  0  0  0  0
 10 11  1  0  0  0  0
 11  8  2  0  0  0  0
 12 19  2  0  0  0  0
 12  3  1  0  0  0  0
 13 18  1  0  0  0  0
 14 18  1  0  0  0  0
 14  4  2  0  0  0  0
 15 13  2  0  0  0  0
 17  1  2  0  0  0  0
 18  9  2  0  0  0  0
 20 22  1  0  0  0  0
 22 24  1  0  0  0  0
 22 21  2  0  0  0  0
 23 24  1  0  0  0  0
 25 26  1  0  0  0  0
 25 15  1  0  0  0  0
 26 27  1  1  0  0  0
 28 29  1  1  0  0  0
 28 30  1  0  0  0  0
 28 26  1  0  0  0  0
 31 30  1  0  0  0  0
 32 34  1  0  0  0  0
 33 32  2  0  0  0  0
 33 37  1  0  0  0  0
 34 36  2  0  0  0  0
 35 36  1  0  0  0  0
 36 31  1  0  0  0  0
 37 35  2  0  0  0  0
 38 39  3  0  0  0  0
 39 32  1  0  0  0  0
M  END
>  <MODEL>
4

>  <REMARK>
 VINA RESULT:      -8.4      1.728      6.480
  Name = 
  10 active torsions:
  status: ('A' for Active; 'I' for Inactive)
    1  A    between atoms: C_1  and  C_8
    2  A    between atoms: C_6  and  C_26
    3  A    between atoms: C_6  and  C_30
    4  A    between atoms: C_9  and  C_12
    5  A    between atoms: C_12  and  C_33
    6  A    between atoms: O_14  and  C_20
    7  A    between atoms: O_14  and  C_30
    8  A    between atoms: C_26  and  N_34
    9  A    between atoms: C_31  and  N_34
   10  A    between atoms: C_33  and  O_37
                            x       y       z     vdW  Elec       q    Type
                         _______ _______ _______ _____ _____    ______ ____

>  <TORSDO>
F 10

$$$$
=
 OpenBabel11042421573D

 39 43  0  0  1  0  0  0  0  0999 V2000
  161.4870  205.8090  147.6730 C   0  0  0  0  0  0  0  0  0  0  0  0
  161.0980  207.5090  154.0700 C   0  0  0  0  0  2  0  0  0  0  0  0
  161.2110  205.1620  149.8730 C   0  0  0  0  0  0  0  0  0  0  0  0
  160.8890  204.2580  152.2830 C   0  0  0  0  0  3  0  0  0  0  0  0
  161.4110  206.2730  149.0610 C   0  0  0  0  0  0  0  0  0  0  0  0
  161.7100  205.8280  145.2820 C   0  0  0  0  0  3  0  0  0  0  0  0
  161.5550  204.4270  145.2620 C   0  0  0  0  0  3  0  0  0  0  0  0
  161.3340  204.4310  147.6550 C   0  0  0  0  0  0  0  0  0  0  0  0
  161.0520  206.4740  153.2300 C   0  0  0  0  0  0  0  0  0  0  0  0
  161.2110  202.3350  146.4410 O   0  0  0  0  0  1  0  0  0  0  0  0
  161.3640  203.7150  146.4580 C   0  0  0  0  0  0  0  0  0  0  0  0
  161.1540  203.9710  149.0310 C   0  0  0  0  0  0  0  0  0  0  0  0
  161.3960  207.7170  151.0040 C   0  0  0  0  0  3  0  0  0  0  0  0
  161.1020  205.3120  151.2520 C   0  0  0  0  0  0  0  0  0  0  0  0
  161.5050  207.5690  149.6000 C   0  0  0  0  0  0  0  0  0  0  0  0
  160.8580  205.0350  153.6150 C   0  0  0  0  0  2  0  0  0  0  0  0
  161.6770  206.5350  146.4960 C   0  0  0  0  0  3  0  0  0  0  0  0
  161.1940  206.5720  151.7970 C   0  0  0  0  0  0  0  0  0  0  0  0
  160.9860  202.7830  149.4130 O   0  0  0  0  0  0  0  0  0  0  0  0
  160.9380  207.3650  155.5490 C   0  0  0  0  0  2  0  0  0  0  0  0
  162.0860  209.2240  156.4950 O   0  0  0  0  0  0  0  0  0  0  0  0
  160.9740  208.6980  156.2150 C   0  0  0  0  0  0  0  0  0  0  0  0
  159.3550  210.4900  155.7510 C   0  0  0  0  0  1  0  0  0  0  0  0
  159.7800  209.3600  156.4960 O   0  0  0  0  0  0  0  0  0  0  0  0
  161.7150  208.6970  148.7450 N   0  0  0  0  0  2  0  0  0  0  0  0
  162.3650  209.9270  149.1800 C   0  0  2  0  0  3  0  0  0  0  0  0
  161.9550  210.2300  150.6140 C   0  0  0  0  0  1  0  0  0  0  0  0
  161.9630  211.0800  148.2620 C   0  0  2  0  0  3  0  0  0  0  0  0
  163.1060  211.7150  147.7680 O   0  0  0  0  0  1  0  0  0  0  0  0
  161.1210  212.0920  149.0210 C   0  0  0  0  0  2  0  0  0  0  0  0
  160.7070  213.1310  148.1420 O   0  0  0  0  0  0  0  0  0  0  0  0
  157.0440  213.7250  148.3660 C   0  0  0  0  0  0  0  0  0  0  0  0
  156.7050  213.7210  147.0100 C   0  0  0  0  0  3  0  0  0  0  0  0
  158.3730  213.5300  148.7540 C   0  0  0  0  0  3  0  0  0  0  0  0
  159.0230  213.3260  146.4310 C   0  0  0  0  0  3  0  0  0  0  0  0
  159.3710  213.3280  147.7860 C   0  0  0  0  0  0  0  0  0  0  0  0
  157.6940  213.5220  146.0430 C   0  0  0  0  0  3  0  0  0  0  0  0
  155.2090  214.0950  150.1600 N   0  0  0  0  0  0  0  0  0  0  0  0
  156.0280  213.9300  149.3600 C   0  0  0  0  0  0  0  0  0  0  0  0
  1  5  1  0  0  0  0
  2 20  1  0  0  0  0
  3 14  1  0  0  0  0
  4 16  1  0  0  0  0
  5 15  1  0  0  0  0
  5  3  2  0  0  0  0
  6 17  1  0  0  0  0
  7  6  2  0  0  0  0
  7 11  1  0  0  0  0
  8  1  1  0  0  0  0
  8 12  1  0  0  0  0
  9 16  1  0  0  0  0
  9  2  1  0  0  0  0
 10 11  1  0  0  0  0
 11  8  2  0  0  0  0
 12 19  2  0  0  0  0
 12  3  1  0  0  0  0
 13 18  1  0  0  0  0
 14 18  1  0  0  0  0
 14  4  2  0  0  0  0
 15 13  2  0  0  0  0
 17  1  2  0  0  0  0
 18  9  2  0  0  0  0
 20 22  1  0  0  0  0
 22 21  2  0  0  0  0
 22 24  1  0  0  0  0
 23 24  1  0  0  0  0
 25 26  1  0  0  0  0
 25 15  1  0  0  0  0
 26 27  1  1  0  0  0
 28 29  1  1  0  0  0
 28 30  1  0  0  0  0
 28 26  1  0  0  0  0
 31 30  1  0  0  0  0
 32 34  1  0  0  0  0
 32 39  1  0  0  0  0
 33 32  2  0  0  0  0
 35 36  1  0  0  0  0
 36 31  1  0  0  0  0
 36 34  2  0  0  0  0
 37 35  2  0  0  0  0
 37 33  1  0  0  0  0
 39 38  3  0  0  0  0
M  END
>  <MODEL>
5

>  <REMARK>
 VINA RESULT:      -8.3      2.695      7.052
  Name = 
  10 active torsions:
  status: ('A' for Active; 'I' for Inactive)
    1  A    between atoms: C_1  and  C_8
    2  A    between atoms: C_6  and  C_26
    3  A    between atoms: C_6  and  C_30
    4  A    between atoms: C_9  and  C_12
    5  A    between atoms: C_12  and  C_33
    6  A    between atoms: O_14  and  C_20
    7  A    between atoms: O_14  and  C_30
    8  A    between atoms: C_26  and  N_34
    9  A    between atoms: C_31  and  N_34
   10  A    between atoms: C_33  and  O_37
                            x       y       z     vdW  Elec       q    Type
                         _______ _______ _______ _____ _____    ______ ____

>  <TORSDO>
F 10

$$$$
=
 OpenBabel11042421573D

 39 43  0  0  1  0  0  0  0  0999 V2000
  160.8230  209.1290  153.5550 C   0  0  0  0  0  0  0  0  0  0  0  0
  162.1600  212.1640  147.8130 C   0  0  0  0  0  2  0  0  0  0  0  0
  160.6380  211.0110  152.2280 C   0  0  0  0  0  0  0  0  0  0  0  0
  160.3360  213.2050  150.8780 C   0  0  0  0  0  3  0  0  0  0  0  0
  161.1600  209.7220  152.2580 C   0  0  2  0  0  3  0  0  0  0  0  0
  160.6680  207.5500  155.3580 C   0  0  0  0  0  3  0  0  0  0  0  0
  159.9370  208.4910  156.1110 C   0  0  0  0  0  3  0  0  0  0  0  0
  160.1050  210.0560  154.2940 C   0  0  0  0  0  0  0  0  0  0  0  0
  161.5570  212.3170  148.9930 C   0  0  0  0  0  0  0  0  0  0  0  0
  158.9300  210.6880  156.3210 O   0  0  0  0  0  1  0  0  0  0  0  0
  159.6490  209.7590  155.5800 C   0  0  0  0  0  0  0  0  0  0  0  0
  159.9600  211.2700  153.4940 C   0  0  0  0  0  0  0  0  0  0  0  0
  162.0490  210.0110  150.0240 C   0  0  0  0  0  3  0  0  0  0  0  0
  160.8130  211.8120  151.1040 C   0  0  0  0  0  0  0  0  0  0  0  0
  161.8710  209.1920  151.1650 C   0  0  0  0  0  0  0  0  0  0  0  0
  160.8380  213.5490  149.4610 C   0  0  0  0  0  3  0  0  0  0  0  0
  161.1200  207.8640  154.0640 C   0  0  0  0  0  3  0  0  0  0  0  0
  161.5080  211.3110  150.0280 C   0  0  0  0  0  0  0  0  0  0  0  0
  159.3680  212.3300  153.8310 O   0  0  0  0  0  0  0  0  0  0  0  0
  162.1810  213.2290  146.7650 C   0  0  0  0  0  2  0  0  0  0  0  0
  159.9130  213.1370  146.0430 O   0  0  0  0  0  0  0  0  0  0  0  0
  161.1270  212.9790  145.7400 C   0  0  0  0  0  0  0  0  0  0  0  0
  162.7200  213.0210  143.8670 C   0  0  0  0  0  1  0  0  0  0  0  0
  161.4980  212.5980  144.4510 O   0  0  0  0  0  0  0  0  0  0  0  0
  162.4030  207.8650  151.2210 N   0  0  0  0  0  2  0  0  0  0  0  0
  161.9210  206.7690  150.3880 C   0  0  2  0  0  3  0  0  0  0  0  0
  160.9690  207.3200  149.3360 C   0  0  0  0  0  1  0  0  0  0  0  0
  161.2070  205.7340  151.2550 C   0  0  2  0  0  3  0  0  0  0  0  0
  162.1350  205.0540  152.0460 O   0  0  0  0  0  1  0  0  0  0  0  0
  160.4690  204.7320  150.3830 C   0  0  0  0  0  2  0  0  0  0  0  0
  161.4000  203.8490  149.7680 O   0  0  0  0  0  0  0  0  0  0  0  0
  161.2860  203.8260  146.0530 C   0  0  0  0  0  0  0  0  0  0  0  0
  160.9890  202.4800  145.8190 C   0  0  0  0  0  3  0  0  0  0  0  0
  161.4250  204.2920  147.3630 C   0  0  0  0  0  3  0  0  0  0  0  0
  160.9700  202.0690  148.2050 C   0  0  0  0  0  3  0  0  0  0  0  0
  161.2670  203.4140  148.4480 C   0  0  0  0  0  0  0  0  0  0  0  0
  160.8310  201.6020  146.8940 C   0  0  0  0  0  3  0  0  0  0  0  0
  161.5810  205.4560  144.0580 N   0  0  0  0  0  0  0  0  0  0  0  0
  161.4490  204.7280  144.9480 C   0  0  0  0  0  0  0  0  0  0  0  0
  1 17  2  0  0  0  0
  1  8  1  0  0  0  0
  2  9  1  0  0  0  0
  3  5  1  0  0  0  0
  3 12  1  0  0  0  0
  4 14  1  0  0  0  0
  5 15  1  6  0  0  0
  5  1  1  0  0  0  0
  6  7  2  0  0  0  0
  8 11  2  0  0  0  0
  9 16  1  0  0  0  0
  9 18  2  0  0  0  0
 11  7  1  0  0  0  0
 11 10  1  0  0  0  0
 12 19  2  0  0  0  0
 12  8  1  0  0  0  0
 13 18  1  0  0  0  0
 13 15  2  0  0  0  0
 14  3  2  0  0  0  0
 15 25  1  0  0  0  0
 16  4  2  0  0  0  0
 17  6  1  0  0  0  0
 18 14  1  0  0  0  0
 20  2  1  0  0  0  0
 22 21  2  0  0  0  0
 22 20  1  0  0  0  0
 23 24  1  0  0  0  0
 24 22  1  0  0  0  0
 26 27  1  6  0  0  0
 26 25  1  0  0  0  0
 26 28  1  0  0  0  0
 28 29  1  6  0  0  0
 30 28  1  0  0  0  0
 31 30  1  0  0  0  0
 32 34  1  0  0  0  0
 33 32  2  0  0  0  0
 33 37  1  0  0  0  0
 34 36  2  0  0  0  0
 35 36  1  0  0  0  0
 36 31  1  0  0  0  0
 37 35  2  0  0  0  0
 38 39  3  0  0  0  0
 39 32  1  0  0  0  0
M  END
>  <MODEL>
6

>  <REMARK>
 VINA RESULT:      -8.2      2.249      7.085
  Name = 
  10 active torsions:
  status: ('A' for Active; 'I' for Inactive)
    1  A    between atoms: C_1  and  C_8
    2  A    between atoms: C_6  and  C_26
    3  A    between atoms: C_6  and  C_30
    4  A    between atoms: C_9  and  C_12
    5  A    between atoms: C_12  and  C_33
    6  A    between atoms: O_14  and  C_20
    7  A    between atoms: O_14  and  C_30
    8  A    between atoms: C_26  and  N_34
    9  A    between atoms: C_31  and  N_34
   10  A    between atoms: C_33  and  O_37
                            x       y       z     vdW  Elec       q    Type
                         _______ _______ _______ _____ _____    ______ ____

>  <TORSDO>
F 10

$$$$
=
 OpenBabel11042421573D

 39 43  0  0  1  0  0  0  0  0999 V2000
  161.3430  209.3200  153.3740 C   0  0  0  0  0  0  0  0  0  0  0  0
  161.4840  205.6040  147.8850 C   0  0  0  0  0  2  0  0  0  0  0  0
  161.2010  207.2290  152.4030 C   0  0  0  0  0  0  0  0  0  0  0  0
  161.0130  204.8110  151.4840 C   0  0  0  0  0  3  0  0  0  0  0  0
  161.3910  208.5760  152.1130 C   0  0  2  0  0  3  0  0  0  0  0  0
  161.3890  211.1410  154.9390 C   0  0  0  0  0  3  0  0  0  0  0  0
  161.1690  210.2330  155.9940 C   0  0  0  0  0  3  0  0  0  0  0  0
  161.1260  208.4250  154.4100 C   0  0  0  0  0  0  0  0  0  0  0  0
  161.3430  205.5550  149.2100 C   0  0  0  0  0  0  0  0  0  0  0  0
  160.8170  207.9630  156.7720 O   0  0  0  0  0  1  0  0  0  0  0  0
  161.0350  208.8590  155.7340 C   0  0  0  0  0  0  0  0  0  0  0  0
  161.0290  207.0810  153.8450 C   0  0  0  0  0  0  0  0  0  0  0  0
  161.5810  208.0590  149.7550 C   0  0  0  0  0  3  0  0  0  0  0  0
  161.1980  206.2860  151.3810 C   0  0  0  0  0  0  0  0  0  0  0  0
  161.5870  209.0220  150.7930 C   0  0  0  0  0  0  0  0  0  0  0  0
  161.1060  204.3170  150.0260 C   0  0  0  0  0  3  0  0  0  0  0  0
  161.4790  210.6890  153.6110 C   0  0  0  0  0  3  0  0  0  0  0  0
  161.3860  206.7040  150.0840 C   0  0  0  0  0  0  0  0  0  0  0  0
  160.8340  206.0090  154.4760 O   0  0  0  0  0  0  0  0  0  0  0  0
  161.4420  204.3880  147.0160 C   0  0  0  0  0  2  0  0  0  0  0  0
  163.5850  204.7200  146.0330 O   0  0  0  0  0  0  0  0  0  0  0  0
  162.3500  204.5460  145.8450 C   0  0  0  0  0  0  0  0  0  0  0  0
  161.2050  205.5880  143.9340 C   0  0  0  0  0  1  0  0  0  0  0  0
  161.8280  204.4730  144.5540 O   0  0  0  0  0  0  0  0  0  0  0  0
  161.7760  210.4130  150.5180 N   0  0  0  0  0  2  0  0  0  0  0  0
  161.6600  210.9940  149.1850 C   0  0  2  0  0  3  0  0  0  0  0  0
  163.0510  211.1940  148.6020 C   0  0  0  0  0  1  0  0  0  0  0  0
  160.9230  212.3290  149.2630 C   0  0  2  0  0  3  0  0  0  0  0  0
  161.7680  213.3640  148.8550 O   0  0  0  0  0  1  0  0  0  0  0  0
  160.4610  212.5970  150.6860 C   0  0  0  0  0  2  0  0  0  0  0  0
  159.2660  213.3680  150.6690 O   0  0  0  0  0  0  0  0  0  0  0  0
  157.5010  212.4260  153.8020 C   0  0  0  0  0  0  0  0  0  0  0  0
  156.4430  213.3390  153.7790 C   0  0  0  0  0  3  0  0  0  0  0  0
  158.4460  212.4270  152.7730 C   0  0  0  0  0  3  0  0  0  0  0  0
  157.2750  214.2520  151.6970 C   0  0  0  0  0  3  0  0  0  0  0  0
  158.3380  213.3420  151.7120 C   0  0  0  0  0  0  0  0  0  0  0  0
  156.3290  214.2510  152.7270 C   0  0  0  0  0  3  0  0  0  0  0  0
  157.7110  210.7330  155.7550 N   0  0  0  0  0  0  0  0  0  0  0  0
  157.6180  211.4880  154.8840 C   0  0  0  0  0  0  0  0  0  0  0  0
  1 17  2  0  0  0  0
  1  8  1  0  0  0  0
  2  9  1  0  0  0  0
  3 12  1  0  0  0  0
  5 15  1  1  0  0  0
  5  3  1  0  0  0  0
  5  1  1  0  0  0  0
  6  7  2  0  0  0  0
  8 11  2  0  0  0  0
  9 16  1  0  0  0  0
  9 18  2  0  0  0  0
 11  7  1  0  0  0  0
 11 10  1  0  0  0  0
 12  8  1  0  0  0  0
 12 19  2  0  0  0  0
 13 18  1  0  0  0  0
 13 15  2  0  0  0  0
 14  4  1  0  0  0  0
 14  3  2  0  0  0  0
 16  4  2  0  0  0  0
 17  6  1  0  0  0  0
 18 14  1  0  0  0  0
 20  2  1  0  0  0  0
 22 21  2  0  0  0  0
 22 20  1  0  0  0  0
 23 24  1  0  0  0  0
 24 22  1  0  0  0  0
 25 15  1  0  0  0  0
 26 27  1  1  0  0  0
 26 28  1  0  0  0  0
 26 25  1  0  0  0  0
 28 29  1  1  0  0  0
 28 30  1  0  0  0  0
 31 30  1  0  0  0  0
 31 36  1  0  0  0  0
 32 39  1  0  0  0  0
 33 32  1  0  0  0  0
 34 32  2  0  0  0  0
 35 36  2  0  0  0  0
 35 37  1  0  0  0  0
 36 34  1  0  0  0  0
 37 33  2  0  0  0  0
 39 38  3  0  0  0  0
M  END
>  <MODEL>
7

>  <REMARK>
 VINA RESULT:      -8.0      2.953      5.319
  Name = 
  10 active torsions:
  status: ('A' for Active; 'I' for Inactive)
    1  A    between atoms: C_1  and  C_8
    2  A    between atoms: C_6  and  C_26
    3  A    between atoms: C_6  and  C_30
    4  A    between atoms: C_9  and  C_12
    5  A    between atoms: C_12  and  C_33
    6  A    between atoms: O_14  and  C_20
    7  A    between atoms: O_14  and  C_30
    8  A    between atoms: C_26  and  N_34
    9  A    between atoms: C_31  and  N_34
   10  A    between atoms: C_33  and  O_37
                            x       y       z     vdW  Elec       q    Type
                         _______ _______ _______ _____ _____    ______ ____

>  <TORSDO>
F 10

$$$$
=
 OpenBabel11042421573D

 39 43  0  0  1  0  0  0  0  0999 V2000
  160.6270  209.7820  153.5610 C   0  0  0  0  0  0  0  0  0  0  0  0
  161.9520  212.6830  147.7480 C   0  0  0  0  0  2  0  0  0  0  0  0
  160.3530  211.5910  152.1510 C   0  0  0  0  0  0  0  0  0  0  0  0
  159.9390  213.7020  150.7000 C   0  0  0  0  0  3  0  0  0  0  0  0
  160.9680  210.3480  152.2540 C   0  0  2  0  0  3  0  0  0  0  0  0
  160.5210  208.2690  155.4220 C   0  0  0  0  0  3  0  0  0  0  0  0
  159.6940  209.1800  156.1090 C   0  0  0  0  0  3  0  0  0  0  0  0
  159.8140  210.6800  154.2360 C   0  0  0  0  0  0  0  0  0  0  0  0
  161.2950  212.8360  148.8980 C   0  0  0  0  0  0  0  0  0  0  0  0
  158.5180  211.3000  156.1910 O   0  0  0  0  0  1  0  0  0  0  0  0
  159.3330  210.4000  155.5160 C   0  0  0  0  0  0  0  0  0  0  0  0
  159.6090  211.8480  153.3810 C   0  0  0  0  0  0  0  0  0  0  0  0
  161.9180  210.6170  150.0420 C   0  0  0  0  0  3  0  0  0  0  0  0
  160.5100  212.3590  151.0020 C   0  0  0  0  0  0  0  0  0  0  0  0
  161.7580  209.8320  151.2100 C   0  0  0  0  0  0  0  0  0  0  0  0
  160.4670  214.0270  149.2880 C   0  0  0  0  0  3  0  0  0  0  0  0
  160.9980  208.5650  154.1340 C   0  0  0  0  0  3  0  0  0  0  0  0
  161.2810  211.8710  149.9720 C   0  0  0  0  0  0  0  0  0  0  0  0
  158.9270  212.8710  153.6510 O   0  0  0  0  0  0  0  0  0  0  0  0
  161.9330  213.7050  146.6570 C   0  0  0  0  0  2  0  0  0  0  0  0
  159.9530  212.9530  145.5680 O   0  0  0  0  0  0  0  0  0  0  0  0
  161.1870  213.1940  145.4710 C   0  0  0  0  0  0  0  0  0  0  0  0
  163.2380  213.3120  144.1180 C   0  0  0  0  0  1  0  0  0  0  0  0
  161.8570  213.0150  144.2620 O   0  0  0  0  0  0  0  0  0  0  0  0
  162.3850  208.5520  151.3400 N   0  0  0  0  0  2  0  0  0  0  0  0
  161.7080  207.2920  151.0600 C   0  0  2  0  0  3  0  0  0  0  0  0
  162.1920  206.2340  152.0410 C   0  0  0  0  0  1  0  0  0  0  0  0
  161.9970  206.8540  149.6260 C   0  0  2  0  0  3  0  0  0  0  0  0
  162.3620  207.9600  148.8540 O   0  0  0  0  0  1  0  0  0  0  0  0
  160.7670  206.2050  149.0120 C   0  0  0  0  0  2  0  0  0  0  0  0
  161.1580  205.1160  148.1850 O   0  0  0  0  0  0  0  0  0  0  0  0
  161.1750  201.3990  148.1580 C   0  0  0  0  0  0  0  0  0  0  0  0
  160.9230  201.1360  149.5070 C   0  0  0  0  0  3  0  0  0  0  0  0
  161.2560  202.7190  147.7070 C   0  0  0  0  0  3  0  0  0  0  0  0
  160.8310  203.5140  149.9530 C   0  0  0  0  0  3  0  0  0  0  0  0
  161.0830  203.7860  148.6040 C   0  0  0  0  0  0  0  0  0  0  0  0
  160.7500  202.1930  150.4050 C   0  0  0  0  0  3  0  0  0  0  0  0
  161.4950  199.4380  146.4910 N   0  0  0  0  0  0  0  0  0  0  0  0
  161.3530  200.3130  147.2350 C   0  0  0  0  0  0  0  0  0  0  0  0
  1 17  2  0  0  0  0
  1  8  1  0  0  0  0
  2  9  1  0  0  0  0
  3  5  1  0  0  0  0
  3 12  1  0  0  0  0
  4 14  1  0  0  0  0
  5 15  1  6  0  0  0
  5  1  1  0  0  0  0
  6  7  2  0  0  0  0
  8 11  2  0  0  0  0
  9 16  1  0  0  0  0
  9 18  2  0  0  0  0
 11  7  1  0  0  0  0
 11 10  1  0  0  0  0
 12 19  2  0  0  0  0
 12  8  1  0  0  0  0
 13 15  2  0  0  0  0
 14  3  2  0  0  0  0
 15 25  1  0  0  0  0
 16  4  2  0  0  0  0
 17  6  1  0  0  0  0
 18 13  1  0  0  0  0
 18 14  1  0  0  0  0
 20  2  1  0  0  0  0
 22 21  2  0  0  0  0
 22 20  1  0  0  0  0
 23 24  1  0  0  0  0
 24 22  1  0  0  0  0
 26 25  1  0  0  0  0
 26 27  1  1  0  0  0
 28 29  1  6  0  0  0
 28 26  1  0  0  0  0
 30 28  1  0  0  0  0
 31 36  1  0  0  0  0
 31 30  1  0  0  0  0
 32 33  1  0  0  0  0
 33 37  2  0  0  0  0
 34 32  2  0  0  0  0
 34 36  1  0  0  0  0
 35 37  1  0  0  0  0
 36 35  2  0  0  0  0
 38 39  3  0  0  0  0
 39 32  1  0  0  0  0
M  END
>  <MODEL>
8

>  <REMARK>
 VINA RESULT:      -8.0      2.871      7.728
  Name = 
  10 active torsions:
  status: ('A' for Active; 'I' for Inactive)
    1  A    between atoms: C_1  and  C_8
    2  A    between atoms: C_6  and  C_26
    3  A    between atoms: C_6  and  C_30
    4  A    between atoms: C_9  and  C_12
    5  A    between atoms: C_12  and  C_33
    6  A    between atoms: O_14  and  C_20
    7  A    between atoms: O_14  and  C_30
    8  A    between atoms: C_26  and  N_34
    9  A    between atoms: C_31  and  N_34
   10  A    between atoms: C_33  and  O_37
                            x       y       z     vdW  Elec       q    Type
                         _______ _______ _______ _____ _____    ______ ____

>  <TORSDO>
F 10

$$$$
=
 OpenBabel11042421573D

 39 43  0  0  1  0  0  0  0  0999 V2000
  160.5800  210.3680  153.1070 C   0  0  0  0  0  0  0  0  0  0  0  0
  162.2000  212.9320  147.2110 C   0  0  0  0  0  2  0  0  0  0  0  0
  160.4280  212.1190  151.6080 C   0  0  0  0  0  0  0  0  0  0  0  0
  160.1530  214.1750  150.0510 C   0  0  0  0  0  3  0  0  0  0  0  0
  160.9840  210.8560  151.7860 C   0  0  2  0  0  3  0  0  0  0  0  0
  160.3530  208.9490  155.0310 C   0  0  0  0  0  3  0  0  0  0  0  0
  159.5490  209.9270  155.6500 C   0  0  0  0  0  3  0  0  0  0  0  0
  159.7890  211.3310  153.7150 C   0  0  0  0  0  0  0  0  0  0  0  0
  161.5170  213.1670  148.3320 C   0  0  0  0  0  0  0  0  0  0  0  0
  158.4680  212.0980  155.6000 O   0  0  0  0  0  1  0  0  0  0  0  0
  159.2600  211.1330  154.9910 C   0  0  0  0  0  0  0  0  0  0  0  0
  159.6620  212.4650  152.8020 C   0  0  0  0  0  0  0  0  0  0  0  0
  162.0060  210.9790  149.5950 C   0  0  0  0  0  3  0  0  0  0  0  0
  160.6530  212.8240  150.4300 C   0  0  0  0  0  0  0  0  0  0  0  0
  161.7780  210.2570  150.7910 C   0  0  0  0  0  0  0  0  0  0  0  0
  160.7350  214.4110  148.6420 C   0  0  0  0  0  3  0  0  0  0  0  0
  160.8780  209.1640  153.7450 C   0  0  0  0  0  3  0  0  0  0  0  0
  161.4300  212.2550  149.4480 C   0  0  0  0  0  0  0  0  0  0  0  0
  159.0210  213.5300  153.0040 O   0  0  0  0  0  0  0  0  0  0  0  0
  162.2580  213.9010  146.0740 C   0  0  0  0  0  2  0  0  0  0  0  0
  162.7450  212.9490  143.9470 O   0  0  0  0  0  0  0  0  0  0  0  0
  161.8610  213.2400  144.7980 C   0  0  0  0  0  0  0  0  0  0  0  0
  160.1270  211.9660  143.6070 C   0  0  0  0  0  1  0  0  0  0  0  0
  160.5210  212.9290  144.5720 O   0  0  0  0  0  0  0  0  0  0  0  0
  162.3430  208.9590  150.9980 N   0  0  0  0  0  2  0  0  0  0  0  0
  161.5690  207.7250  150.9310 C   0  0  2  0  0  3  0  0  0  0  0  0
  162.4050  206.5780  151.4780 C   0  0  0  0  0  1  0  0  0  0  0  0
  161.1670  207.4430  149.4850 C   0  0  2  0  0  3  0  0  0  0  0  0
  160.1270  206.5090  149.4530 O   0  0  0  0  0  1  0  0  0  0  0  0
  162.3500  206.8940  148.7040 C   0  0  0  0  0  2  0  0  0  0  0  0
  161.9740  206.6750  147.3490 O   0  0  0  0  0  0  0  0  0  0  0  0
  161.2840  203.0280  147.1450 C   0  0  0  0  0  0  0  0  0  0  0  0
  161.1090  202.8820  145.7670 C   0  0  0  0  0  3  0  0  0  0  0  0
  161.5720  204.2860  147.6830 C   0  0  0  0  0  3  0  0  0  0  0  0
  161.5110  205.2500  145.4640 C   0  0  0  0  0  3  0  0  0  0  0  0
  161.6880  205.4060  146.8430 C   0  0  0  0  0  0  0  0  0  0  0  0
  161.2230  203.9920  144.9260 C   0  0  0  0  0  3  0  0  0  0  0  0
  161.0720  200.9690  148.7070 N   0  0  0  0  0  0  0  0  0  0  0  0
  161.1670  201.8870  148.0100 C   0  0  0  0  0  0  0  0  0  0  0  0
  1  8  2  0  0  0  0
  1 17  1  0  0  0  0
  2  9  1  0  0  0  0
  3  5  1  0  0  0  0
  3 12  1  0  0  0  0
  4 14  1  0  0  0  0
  5 15  1  6  0  0  0
  5  1  1  0  0  0  0
  6  7  1  0  0  0  0
  8 11  1  0  0  0  0
  9 16  1  0  0  0  0
  9 18  2  0  0  0  0
 11 10  1  0  0  0  0
 11  7  2  0  0  0  0
 12 19  2  0  0  0  0
 12  8  1  0  0  0  0
 13 15  2  0  0  0  0
 14  3  2  0  0  0  0
 15 25  1  0  0  0  0
 16  4  2  0  0  0  0
 17  6  2  0  0  0  0
 18 13  1  0  0  0  0
 18 14  1  0  0  0  0
 20  2  1  0  0  0  0
 21 22  2  0  0  0  0
 22 20  1  0  0  0  0
 23 24  1  0  0  0  0
 24 22  1  0  0  0  0
 26 25  1  0  0  0  0
 26 27  1  6  0  0  0
 28 29  1  1  0  0  0
 28 26  1  0  0  0  0
 30 28  1  0  0  0  0
 31 30  1  0  0  0  0
 32 34  1  0  0  0  0
 32 39  1  0  0  0  0
 33 32  2  0  0  0  0
 35 36  1  0  0  0  0
 36 31  1  0  0  0  0
 36 34  2  0  0  0  0
 37 35  2  0  0  0  0
 37 33  1  0  0  0  0
 39 38  3  0  0  0  0
M  END
>  <MODEL>
9

>  <REMARK>
 VINA RESULT:      -7.6      2.532      7.114
  Name = 
  10 active torsions:
  status: ('A' for Active; 'I' for Inactive)
    1  A    between atoms: C_1  and  C_8
    2  A    between atoms: C_6  and  C_26
    3  A    between atoms: C_6  and  C_30
    4  A    between atoms: C_9  and  C_12
    5  A    between atoms: C_12  and  C_33
    6  A    between atoms: O_14  and  C_20
    7  A    between atoms: O_14  and  C_30
    8  A    between atoms: C_26  and  N_34
    9  A    between atoms: C_31  and  N_34
   10  A    between atoms: C_33  and  O_37
                            x       y       z     vdW  Elec       q    Type
                         _______ _______ _______ _____ _____    ______ ____

>  <TORSDO>
F 10

$$$$
