=
 OpenBabel11042420493D

 48 51  0  0  1  0  0  0  0  0999 V2000
  161.1950  206.4410  153.7540 C   0  0  0  0  0  0  0  0  0  0  0  0
  161.0860  206.1690  150.9750 C   0  0  0  0  0  3  0  0  0  0  0  0
  161.4030  207.4190  151.5330 C   0  0  0  0  0  0  0  0  0  0  0  0
  160.8290  205.0660  151.7950 C   0  0  0  0  0  0  0  0  0  0  0  0
  160.8730  205.2060  153.1840 C   0  0  0  0  0  3  0  0  0  0  0  0
  161.4590  207.5420  152.9300 C   0  0  0  0  0  3  0  0  0  0  0  0
  161.6680  208.5880  150.6590 C   0  0  0  0  0  0  0  0  0  0  0  0
  162.1390  210.8170  148.9880 C   0  0  0  0  0  0  0  0  0  0  0  0
  161.7720  208.4310  149.2690 C   0  0  0  0  0  3  0  0  0  0  0  0
  161.8110  209.8720  151.2050 C   0  0  0  0  0  3  0  0  0  0  0  0
  162.0080  209.5320  148.4450 C   0  0  0  0  0  3  0  0  0  0  0  0
  162.0470  210.9730  150.3780 C   0  0  0  0  0  3  0  0  0  0  0  0
  162.4140  211.9660  148.0920 C   0  0  0  0  0  0  0  0  0  0  0  0
  163.6160  212.2430  147.8260 O   0  0  0  0  0  0  0  0  0  0  0  0
  161.3490  212.8040  147.4910 C   0  0  0  0  0  0  0  0  0  0  0  0
  161.1820  212.8200  146.0970 C   0  0  0  0  0  3  0  0  0  0  0  0
  160.4700  213.5590  148.2850 C   0  0  0  0  0  3  0  0  0  0  0  0
  159.4580  214.3240  147.6990 C   0  0  0  0  0  3  0  0  0  0  0  0
  159.3100  214.3380  146.3100 C   0  0  0  0  0  3  0  0  0  0  0  0
  160.1700  213.5840  145.5090 C   0  0  0  0  0  3  0  0  0  0  0  0
  160.4640  203.7580  151.1880 C   0  0  0  0  0  2  0  0  0  0  0  0
  161.6220  202.8800  151.1850 N   0  0  0  0  0  2  0  0  0  0  0  0
  161.3380  201.8020  150.2540 C   0  0  1  0  0  3  0  0  0  0  0  0
  160.2630  201.0600  150.7080 F   0  0  0  0  0  0  0  0  0  0  0  0
  160.2140  201.7760  148.1590 O   0  0  0  0  0  0  0  0  0  0  0  0
  161.0340  202.3690  148.9100 C   0  0  0  0  0  0  0  0  0  0  0  0
  161.6990  203.5540  148.4680 N   0  0  0  0  0  2  0  0  0  0  0  0
  162.7680  204.4900  146.4860 C   0  0  0  0  0  2  0  0  0  0  0  0
  160.5700  205.4150  147.3340 C   0  0  0  0  0  2  0  0  0  0  0  0
  161.2210  205.8260  144.9290 C   0  0  0  0  0  2  0  0  0  0  0  0
  162.5440  205.0600  145.0770 C   0  0  0  0  0  2  0  0  0  0  0  0
  161.4440  204.1600  147.1700 C   0  0  0  0  0  3  0  0  0  0  0  0
  160.8080  206.4720  146.2460 C   0  0  0  0  0  2  0  0  0  0  0  0
  161.2420  206.5830  155.2350 C   0  0  0  0  0  2  0  0  0  0  0  0
  159.9510  207.1930  155.7470 C   0  0  0  0  0  2  0  0  0  0  0  0
  160.2320  209.6800  156.0220 C   0  0  0  0  0  0  0  0  0  0  0  0
  160.2520  208.3580  156.5580 N   0  0  0  0  0  2  0  0  0  0  0  0
  159.9970  209.8690  154.7980 O   0  0  0  0  0  0  0  0  0  0  0  0
  161.9900  211.2210  156.8570 C   0  0  0  0  0  1  0  0  0  0  0  0
  160.5230  210.8360  156.9250 C   0  0  1  0  0  3  0  0  0  0  0  0
  160.0910  213.0350  156.1520 O   0  0  0  0  0  0  0  0  0  0  0  0
  159.6350  212.0100  156.6370 C   0  0  0  0  0  0  0  0  0  0  0  0
  158.1810  211.9250  156.9650 C   0  0  0  0  0  2  0  0  0  0  0  0
  157.4510  212.9640  156.2600 N   0  0  0  0  0  2  0  0  0  0  0  0
  155.5290  213.1090  154.4030 O   0  0  0  0  0  1  0  0  0  0  0  0
  155.9830  210.7220  155.3800 O   0  0  0  0  0  1  0  0  0  0  0  0
  157.7510  211.9530  153.6590 O   0  0  0  0  0  0  0  0  0  0  0  0
  156.6360  212.2090  154.9030 P   0  0  0  0  0  0  0  0  0  0  0  0
  1 34  1  0  0  0  0
  2  3  2  0  0  0  0
  2  4  1  0  0  0  0
  3  6  1  0  0  0  0
  4  5  2  0  0  0  0
  5  1  1  0  0  0  0
  6  1  2  0  0  0  0
  7 10  1  0  0  0  0
  7  3  1  0  0  0  0
  8 12  1  0  0  0  0
  9  7  2  0  0  0  0
 11  8  2  0  0  0  0
 11  9  1  0  0  0  0
 12 10  2  0  0  0  0
 13  8  1  0  0  0  0
 14 13  2  0  0  0  0
 15 13  1  0  0  0  0
 15 17  1  0  0  0  0
 16 15  2  0  0  0  0
 18 17  2  0  0  0  0
 19 18  1  0  0  0  0
 20 16  1  0  0  0  0
 20 19  2  0  0  0  0
 21  4  1  0  0  0  0
 22 21  1  0  0  0  0
 23 24  1  1  0  0  0
 23 22  1  0  0  0  0
 25 26  2  0  0  0  0
 26 23  1  0  0  0  0
 27 26  1  0  0  0  0
 28 32  1  0  0  0  0
 30 31  1  0  0  0  0
 30 33  1  0  0  0  0
 31 28  1  0  0  0  0
 32 29  1  0  0  0  0
 32 27  1  0  0  0  0
 33 29  1  0  0  0  0
 34 35  1  0  0  0  0
 35 37  1  0  0  0  0
 36 37  1  0  0  0  0
 36 40  1  0  0  0  0
 38 36  2  0  0  0  0
 40 39  1  6  0  0  0
 41 42  2  0  0  0  0
 42 40  1  0  0  0  0
 42 43  1  0  0  0  0
 44 43  1  0  0  0  0
 45 48  1  0  0  0  0
 47 48  2  0  0  0  0
 48 46  1  0  0  0  0
 48 44  1  0  0  0  0
M  END
>  <MODEL>
1

>  <REMARK>
 VINA RESULT:      -7.7      0.000      0.000
  Name = 
  16 active torsions:
  status: ('A' for Active; 'I' for Inactive)
    1  A    between atoms: N_1  and  C_8
    2  A    between atoms: N_1  and  C_16
    3  A    between atoms: C_2  and  C_30
    4  A    between atoms: C_3  and  C_31
    5  A    between atoms: C_5  and  C_6
    6  A    between atoms: C_6  and  C_25
    7  A    between atoms: C_8  and  C_43
    8  A    between atoms: C_9  and  C_13
    9  A    between atoms: C_13  and  C_22
   10  A    between atoms: C_16  and  C_32
   11  A    between atoms: N_19  and  C_22
   12  A    between atoms: C_28  and  C_35
   13  A    between atoms: C_28  and  N_41
   14  A    between atoms: C_30  and  C_35
   15  A    between atoms: C_33  and  N_48
   16  A    between atoms: P_39  and  N_41
                            x       y       z     vdW  Elec       q    Type
                         _______ _______ _______ _____ _____    ______ ____

>  <TORSDO>
F 16

$$$$
=
 OpenBabel11042420493D

 48 51  0  0  1  0  0  0  0  0999 V2000
  160.9430  206.9850  154.3180 C   0  0  0  0  0  0  0  0  0  0  0  0
  161.2000  206.3520  151.6080 C   0  0  0  0  0  3  0  0  0  0  0  0
  161.3290  207.6900  152.0190 C   0  0  0  0  0  0  0  0  0  0  0  0
  160.9480  205.3410  152.5400 C   0  0  0  0  0  0  0  0  0  0  0  0
  160.8090  205.6600  153.8930 C   0  0  0  0  0  3  0  0  0  0  0  0
  161.2030  207.9940  153.3830 C   0  0  0  0  0  3  0  0  0  0  0  0
  161.5890  208.7600  151.0250 C   0  0  0  0  0  0  0  0  0  0  0  0
  162.0500  210.8010  149.1270 C   0  0  0  0  0  0  0  0  0  0  0  0
  161.7000  208.4560  149.6610 C   0  0  0  0  0  3  0  0  0  0  0  0
  161.7200  210.0970  151.4310 C   0  0  0  0  0  3  0  0  0  0  0  0
  161.9310  209.4650  148.7240 C   0  0  0  0  0  3  0  0  0  0  0  0
  161.9510  211.1050  150.4920 C   0  0  0  0  0  3  0  0  0  0  0  0
  162.3210  211.8490  148.1130 C   0  0  0  0  0  0  0  0  0  0  0  0
  163.5100  212.2430  147.9620 O   0  0  0  0  0  0  0  0  0  0  0  0
  161.2650  212.4570  147.2670 C   0  0  0  0  0  0  0  0  0  0  0  0
  161.5480  212.7810  145.9310 C   0  0  0  0  0  3  0  0  0  0  0  0
  159.9680  212.6820  147.7570 C   0  0  0  0  0  3  0  0  0  0  0  0
  158.9820  213.2350  146.9350 C   0  0  0  0  0  3  0  0  0  0  0  0
  159.2810  213.5630  145.6110 C   0  0  0  0  0  3  0  0  0  0  0  0
  160.5630  213.3330  145.1080 C   0  0  0  0  0  3  0  0  0  0  0  0
  160.7830  203.9340  152.0840 C   0  0  0  0  0  2  0  0  0  0  0  0
  161.9090  203.5550  151.2480 N   0  0  0  0  0  2  0  0  0  0  0  0
  161.5190  202.3580  150.5230 C   0  0  1  0  0  3  0  0  0  0  0  0
  160.4820  201.7260  151.1850 F   0  0  0  0  0  0  0  0  0  0  0  0
  160.4860  201.8770  148.4370 O   0  0  0  0  0  0  0  0  0  0  0  0
  161.0950  202.7250  149.1430 C   0  0  0  0  0  0  0  0  0  0  0  0
  161.4110  204.0160  148.6180 N   0  0  0  0  0  2  0  0  0  0  0  0
  162.2140  204.3160  146.3340 C   0  0  0  0  0  2  0  0  0  0  0  0
  160.4780  205.8750  147.3160 C   0  0  0  0  0  2  0  0  0  0  0  0
  160.6850  205.7030  144.8050 C   0  0  0  0  0  2  0  0  0  0  0  0
  161.8240  204.6760  144.8930 C   0  0  0  0  0  2  0  0  0  0  0  0
  161.0220  204.4370  147.2800 C   0  0  0  0  0  3  0  0  0  0  0  0
  160.6970  206.6430  146.0040 C   0  0  0  0  0  2  0  0  0  0  0  0
  160.7960  207.3170  155.7610 C   0  0  0  0  0  2  0  0  0  0  0  0
  161.5170  208.6140  156.0790 C   0  0  0  0  0  2  0  0  0  0  0  0
  160.9310  211.0060  156.6060 C   0  0  0  0  0  0  0  0  0  0  0  0
  160.5430  209.6590  156.3410 N   0  0  0  0  0  2  0  0  0  0  0  0
  162.1500  211.3170  156.6720 O   0  0  0  0  0  0  0  0  0  0  0  0
  160.4850  213.3590  157.2600 C   0  0  0  0  0  1  0  0  0  0  0  0
  159.8710  212.0350  156.8370 C   0  0  1  0  0  3  0  0  0  0  0  0
  158.0630  211.4230  155.4330 O   0  0  0  0  0  0  0  0  0  0  0  0
  158.9810  212.2020  155.6420 C   0  0  0  0  0  0  0  0  0  0  0  0
  159.2350  213.3250  154.6920 C   0  0  0  0  0  2  0  0  0  0  0  0
  158.0150  213.6550  153.9750 N   0  0  0  0  0  2  0  0  0  0  0  0
  158.4340  211.8390  152.0540 O   0  0  0  0  0  1  0  0  0  0  0  0
  159.7100  214.1070  151.7660 O   0  0  0  0  0  1  0  0  0  0  0  0
  156.9880  213.9060  151.3750 O   0  0  0  0  0  0  0  0  0  0  0  0
  158.2970  213.3280  152.2750 P   0  0  0  0  0  0  0  0  0  0  0  0
  1 34  1  0  0  0  0
  2  3  2  0  0  0  0
  2  4  1  0  0  0  0
  3  6  1  0  0  0  0
  4  5  2  0  0  0  0
  5  1  1  0  0  0  0
  6  1  2  0  0  0  0
  7 10  1  0  0  0  0
  7  3  1  0  0  0  0
  8 12  1  0  0  0  0
  9  7  2  0  0  0  0
 11  8  2  0  0  0  0
 11  9  1  0  0  0  0
 12 10  2  0  0  0  0
 13  8  1  0  0  0  0
 14 13  2  0  0  0  0
 15 17  1  0  0  0  0
 15 13  1  0  0  0  0
 16 15  2  0  0  0  0
 18 17  2  0  0  0  0
 19 18  1  0  0  0  0
 20 19  2  0  0  0  0
 20 16  1  0  0  0  0
 21  4  1  0  0  0  0
 22 21  1  0  0  0  0
 23 24  1  1  0  0  0
 23 22  1  0  0  0  0
 25 26  2  0  0  0  0
 26 23  1  0  0  0  0
 27 26  1  0  0  0  0
 28 32  1  0  0  0  0
 30 31  1  0  0  0  0
 30 33  1  0  0  0  0
 31 28  1  0  0  0  0
 32 29  1  0  0  0  0
 32 27  1  0  0  0  0
 33 29  1  0  0  0  0
 34 35  1  0  0  0  0
 35 37  1  0  0  0  0
 36 38  2  0  0  0  0
 36 40  1  0  0  0  0
 37 36  1  0  0  0  0
 40 39  1  6  0  0  0
 41 42  2  0  0  0  0
 42 40  1  0  0  0  0
 43 42  1  0  0  0  0
 44 43  1  0  0  0  0
 45 48  1  0  0  0  0
 46 48  1  0  0  0  0
 47 48  2  0  0  0  0
 48 44  1  0  0  0  0
M  END
>  <MODEL>
2

>  <REMARK>
 VINA RESULT:      -7.5      1.306      1.713
  Name = 
  16 active torsions:
  status: ('A' for Active; 'I' for Inactive)
    1  A    between atoms: N_1  and  C_8
    2  A    between atoms: N_1  and  C_16
    3  A    between atoms: C_2  and  C_30
    4  A    between atoms: C_3  and  C_31
    5  A    between atoms: C_5  and  C_6
    6  A    between atoms: C_6  and  C_25
    7  A    between atoms: C_8  and  C_43
    8  A    between atoms: C_9  and  C_13
    9  A    between atoms: C_13  and  C_22
   10  A    between atoms: C_16  and  C_32
   11  A    between atoms: N_19  and  C_22
   12  A    between atoms: C_28  and  C_35
   13  A    between atoms: C_28  and  N_41
   14  A    between atoms: C_30  and  C_35
   15  A    between atoms: C_33  and  N_48
   16  A    between atoms: P_39  and  N_41
                            x       y       z     vdW  Elec       q    Type
                         _______ _______ _______ _____ _____    ______ ____

>  <TORSDO>
F 16

$$$$
=
 OpenBabel11042420493D

 48 51  0  0  1  0  0  0  0  0999 V2000
  160.7530  213.3860  149.8190 C   0  0  0  0  0  0  0  0  0  0  0  0
  162.3500  211.3940  148.6820 C   0  0  0  0  0  3  0  0  0  0  0  0
  161.5620  211.0880  149.8050 C   0  0  0  0  0  0  0  0  0  0  0  0
  162.3390  212.6780  148.1300 C   0  0  0  0  0  0  0  0  0  0  0  0
  161.5480  213.6760  148.7060 C   0  0  0  0  0  3  0  0  0  0  0  0
  160.7610  212.0960  150.3640 C   0  0  0  0  0  3  0  0  0  0  0  0
  161.5840  209.7250  150.3910 C   0  0  0  0  0  0  0  0  0  0  0  0
  161.6560  207.1350  151.5160 C   0  0  0  0  0  0  0  0  0  0  0  0
  162.0660  208.6380  149.6490 C   0  0  0  0  0  3  0  0  0  0  0  0
  161.1300  209.5020  151.6990 C   0  0  0  0  0  3  0  0  0  0  0  0
  162.0980  207.3570  150.2050 C   0  0  0  0  0  3  0  0  0  0  0  0
  161.1630  208.2200  152.2530 C   0  0  0  0  0  3  0  0  0  0  0  0
  161.6780  205.7600  152.0720 C   0  0  0  0  0  0  0  0  0  0  0  0
  161.9880  205.6110  153.2850 O   0  0  0  0  0  0  0  0  0  0  0  0
  161.3530  204.5530  151.2740 C   0  0  0  0  0  0  0  0  0  0  0  0
  161.1280  204.6730  149.8940 C   0  0  0  0  0  3  0  0  0  0  0  0
  161.3020  203.2770  151.8590 C   0  0  0  0  0  3  0  0  0  0  0  0
  161.0170  202.1490  151.0840 C   0  0  0  0  0  3  0  0  0  0  0  0
  160.7840  202.2850  149.7130 C   0  0  0  0  0  3  0  0  0  0  0  0
  160.8430  203.5470  149.1180 C   0  0  0  0  0  3  0  0  0  0  0  0
  163.2020  212.9930  146.9610 C   0  0  0  0  0  2  0  0  0  0  0  0
  162.4820  213.8550  146.0390 N   0  0  0  0  0  2  0  0  0  0  0  0
  161.7770  212.9900  145.1080 C   0  0  1  0  0  3  0  0  0  0  0  0
  160.4260  213.2870  145.1240 F   0  0  0  0  0  0  0  0  0  0  0  0
  163.2140  214.0510  143.5390 O   0  0  0  0  0  0  0  0  0  0  0  0
  162.3250  213.1810  143.7360 C   0  0  0  0  0  0  0  0  0  0  0  0
  161.8140  212.4060  142.6490 N   0  0  0  0  0  2  0  0  0  0  0  0
  161.3530  213.4140  140.4760 C   0  0  0  0  0  2  0  0  0  0  0  0
  162.4810  211.1540  140.6460 C   0  0  0  0  0  2  0  0  0  0  0  0
  162.7400  212.4910  138.5200 C   0  0  0  0  0  2  0  0  0  0  0  0
  161.8790  213.6470  139.0520 C   0  0  0  0  0  2  0  0  0  0  0  0
  162.3080  212.5410  141.2870 C   0  0  0  0  0  3  0  0  0  0  0  0
  162.3060  211.1590  139.1210 C   0  0  0  0  0  2  0  0  0  0  0  0
  159.9120  214.4530  150.4260 C   0  0  0  0  0  2  0  0  0  0  0  0
  158.5300  213.9160  150.7450 C   0  0  0  0  0  2  0  0  0  0  0  0
  157.0780  213.9720  152.8030 C   0  0  0  0  0  0  0  0  0  0  0  0
  158.3580  213.8430  152.1860 N   0  0  0  0  0  2  0  0  0  0  0  0
  156.0540  214.2060  152.1050 O   0  0  0  0  0  0  0  0  0  0  0  0
  155.5330  214.0170  154.7450 C   0  0  0  0  0  1  0  0  0  0  0  0
  156.9720  213.8560  154.2890 C   0  0  1  0  0  3  0  0  0  0  0  0
  157.0090  211.5070  154.6010 O   0  0  0  0  0  0  0  0  0  0  0  0
  157.5670  212.5770  154.7960 C   0  0  0  0  0  0  0  0  0  0  0  0
  158.8480  212.6190  155.5620 C   0  0  0  0  0  2  0  0  0  0  0  0
  159.9410  212.1450  154.7300 N   0  0  0  0  0  2  0  0  0  0  0  0
  160.7940  211.2240  157.0930 O   0  0  0  0  0  1  0  0  0  0  0  0
  162.3650  210.7410  155.0550 O   0  0  0  0  0  0  0  0  0  0  0  0
  159.9690  209.4190  155.3950 O   0  0  0  0  0  1  0  0  0  0  0  0
  160.7760  210.8870  155.6200 P   0  0  0  0  0  0  0  0  0  0  0  0
  1  6  1  0  0  0  0
  1 34  1  0  0  0  0
  2  3  1  0  0  0  0
  3  6  2  0  0  0  0
  3  7  1  0  0  0  0
  4  2  2  0  0  0  0
  4  5  1  0  0  0  0
  5  1  2  0  0  0  0
  7 10  1  0  0  0  0
  8 13  1  0  0  0  0
  8 12  1  0  0  0  0
  9 11  1  0  0  0  0
  9  7  2  0  0  0  0
 10 12  2  0  0  0  0
 11  8  2  0  0  0  0
 13 14  2  0  0  0  0
 15 17  1  0  0  0  0
 15 13  1  0  0  0  0
 16 15  2  0  0  0  0
 18 17  2  0  0  0  0
 19 18  1  0  0  0  0
 20 19  2  0  0  0  0
 20 16  1  0  0  0  0
 21  4  1  0  0  0  0
 22 21  1  0  0  0  0
 23 24  1  6  0  0  0
 23 22  1  0  0  0  0
 25 26  2  0  0  0  0
 26 23  1  0  0  0  0
 27 26  1  0  0  0  0
 28 32  1  0  0  0  0
 29 32  1  0  0  0  0
 30 31  1  0  0  0  0
 30 33  1  0  0  0  0
 31 28  1  0  0  0  0
 32 27  1  0  0  0  0
 33 29  1  0  0  0  0
 34 35  1  0  0  0  0
 35 37  1  0  0  0  0
 36 40  1  0  0  0  0
 37 36  1  0  0  0  0
 38 36  2  0  0  0  0
 40 39  1  6  0  0  0
 40 42  1  0  0  0  0
 41 42  2  0  0  0  0
 42 43  1  0  0  0  0
 44 43  1  0  0  0  0
 44 48  1  0  0  0  0
 46 48  2  0  0  0  0
 47 48  1  0  0  0  0
 48 45  1  0  0  0  0
M  END
>  <MODEL>
3

>  <REMARK>
 VINA RESULT:      -6.7      4.243      8.328
  Name = 
  16 active torsions:
  status: ('A' for Active; 'I' for Inactive)
    1  A    between atoms: N_1  and  C_8
    2  A    between atoms: N_1  and  C_16
    3  A    between atoms: C_2  and  C_30
    4  A    between atoms: C_3  and  C_31
    5  A    between atoms: C_5  and  C_6
    6  A    between atoms: C_6  and  C_25
    7  A    between atoms: C_8  and  C_43
    8  A    between atoms: C_9  and  C_13
    9  A    between atoms: C_13  and  C_22
   10  A    between atoms: C_16  and  C_32
   11  A    between atoms: N_19  and  C_22
   12  A    between atoms: C_28  and  C_35
   13  A    between atoms: C_28  and  N_41
   14  A    between atoms: C_30  and  C_35
   15  A    between atoms: C_33  and  N_48
   16  A    between atoms: P_39  and  N_41
                            x       y       z     vdW  Elec       q    Type
                         _______ _______ _______ _____ _____    ______ ____

>  <TORSDO>
F 16

$$$$
=
 OpenBabel11042420493D

 48 51  0  0  1  0  0  0  0  0999 V2000
  162.0160  209.6620  150.8660 C   0  0  0  0  0  0  0  0  0  0  0  0
  161.0610  207.7560  152.6730 C   0  0  0  0  0  3  0  0  0  0  0  0
  161.3990  207.3600  151.3680 C   0  0  0  0  0  0  0  0  0  0  0  0
  161.2000  209.0890  153.0730 C   0  0  0  0  0  0  0  0  0  0  0  0
  161.6680  210.0430  152.1650 C   0  0  0  0  0  3  0  0  0  0  0  0
  161.8820  208.3260  150.4710 C   0  0  0  0  0  3  0  0  0  0  0  0
  161.2420  205.9460  150.9470 C   0  0  0  0  0  0  0  0  0  0  0  0
  160.9750  203.2520  150.1380 C   0  0  0  0  0  0  0  0  0  0  0  0
  161.0330  205.6220  149.5990 C   0  0  0  0  0  3  0  0  0  0  0  0
  161.3080  204.9080  151.8880 C   0  0  0  0  0  3  0  0  0  0  0  0
  160.8970  204.2900  149.2010 C   0  0  0  0  0  3  0  0  0  0  0  0
  161.1720  203.5760  151.4880 C   0  0  0  0  0  3  0  0  0  0  0  0
  160.8030  201.8490  149.6910 C   0  0  0  0  0  0  0  0  0  0  0  0
  160.5850  200.9650  150.5650 O   0  0  0  0  0  0  0  0  0  0  0  0
  160.8710  201.4320  148.2700 C   0  0  0  0  0  0  0  0  0  0  0  0
  160.4450  202.3170  147.2660 C   0  0  0  0  0  3  0  0  0  0  0  0
  161.3910  200.1830  147.8930 C   0  0  0  0  0  3  0  0  0  0  0  0
  161.4680  199.8190  146.5450 C   0  0  0  0  0  3  0  0  0  0  0  0
  161.0300  200.7060  145.5580 C   0  0  0  0  0  3  0  0  0  0  0  0
  160.5220  201.9550  145.9180 C   0  0  0  0  0  3  0  0  0  0  0  0
  160.8080  209.4970  154.4480 C   0  0  0  0  0  2  0  0  0  0  0  0
  161.6660  210.5790  154.9010 N   0  0  0  0  0  2  0  0  0  0  0  0
  161.1630  211.0110  156.1940 C   0  0  1  0  0  3  0  0  0  0  0  0
  162.2140  211.4340  156.9880 F   0  0  0  0  0  0  0  0  0  0  0  0
  160.4780  213.2760  156.4180 O   0  0  0  0  0  0  0  0  0  0  0  0
  160.1880  212.1210  156.0060 C   0  0  0  0  0  0  0  0  0  0  0  0
  158.9220  211.8640  155.3960 N   0  0  0  0  0  2  0  0  0  0  0  0
  157.1880  213.1890  156.4840 C   0  0  0  0  0  2  0  0  0  0  0  0
  156.9560  212.4850  154.0630 C   0  0  0  0  0  2  0  0  0  0  0  0
  155.6110  214.4530  154.8970 C   0  0  0  0  0  2  0  0  0  0  0  0
  156.1820  214.3390  156.3180 C   0  0  0  0  0  2  0  0  0  0  0  0
  157.9280  212.9050  155.1790 C   0  0  0  0  0  3  0  0  0  0  0  0
  155.5540  213.0910  154.2150 C   0  0  0  0  0  2  0  0  0  0  0  0
  162.5150  210.6830  149.9050 C   0  0  0  0  0  2  0  0  0  0  0  0
  161.6040  210.7560  148.6950 C   0  0  0  0  0  2  0  0  0  0  0  0
  161.0990  212.3820  146.8390 C   0  0  0  0  0  0  0  0  0  0  0  0
  161.9180  211.9450  147.9220 N   0  0  0  0  0  2  0  0  0  0  0  0
  160.0920  211.7090  146.4880 O   0  0  0  0  0  0  0  0  0  0  0  0
  162.4660  214.4530  146.9040 C   0  0  0  0  0  1  0  0  0  0  0  0
  161.4670  213.6330  146.1070 C   0  0  1  0  0  3  0  0  0  0  0  0
  163.1250  212.9760  144.5460 O   0  0  0  0  0  0  0  0  0  0  0  0
  161.9740  213.3450  144.7250 C   0  0  0  0  0  0  0  0  0  0  0  0
  161.0610  213.5300  143.5590 C   0  0  0  0  0  2  0  0  0  0  0  0
  161.6580  212.9570  142.3640 N   0  0  0  0  0  2  0  0  0  0  0  0
  160.3490  211.1580  140.8770 O   0  0  0  0  0  1  0  0  0  0  0  0
  160.5800  213.5450  139.8250 O   0  0  0  0  0  0  0  0  0  0  0  0
  158.8850  213.0410  141.9410 O   0  0  0  0  0  1  0  0  0  0  0  0
  160.3620  212.6270  141.2310 P   0  0  0  0  0  0  0  0  0  0  0  0
  1  5  1  0  0  0  0
  2  4  1  0  0  0  0
  3  2  2  0  0  0  0
  4 21  1  0  0  0  0
  5  4  2  0  0  0  0
  6  1  2  0  0  0  0
  6  3  1  0  0  0  0
  7  3  1  0  0  0  0
  7 10  1  0  0  0  0
  8 12  1  0  0  0  0
  9  7  2  0  0  0  0
 11  9  1  0  0  0  0
 11  8  2  0  0  0  0
 12 10  2  0  0  0  0
 13  8  1  0  0  0  0
 13 14  2  0  0  0  0
 15 13  1  0  0  0  0
 16 15  2  0  0  0  0
 17 15  1  0  0  0  0
 18 17  2  0  0  0  0
 19 20  2  0  0  0  0
 19 18  1  0  0  0  0
 20 16  1  0  0  0  0
 21 22  1  0  0  0  0
 22 23  1  0  0  0  0
 23 24  1  1  0  0  0
 26 23  1  0  0  0  0
 26 25  2  0  0  0  0
 27 26  1  0  0  0  0
 29 33  1  0  0  0  0
 29 32  1  0  0  0  0
 30 31  1  0  0  0  0
 31 28  1  0  0  0  0
 32 27  1  0  0  0  0
 32 28  1  0  0  0  0
 33 30  1  0  0  0  0
 34  1  1  0  0  0  0
 35 34  1  0  0  0  0
 36 37  1  0  0  0  0
 37 35  1  0  0  0  0
 38 36  2  0  0  0  0
 40 36  1  0  0  0  0
 40 39  1  1  0  0  0
 41 42  2  0  0  0  0
 42 40  1  0  0  0  0
 43 42  1  0  0  0  0
 44 43  1  0  0  0  0
 45 48  1  0  0  0  0
 46 48  2  0  0  0  0
 48 47  1  0  0  0  0
 48 44  1  0  0  0  0
M  END
>  <MODEL>
4

>  <REMARK>
 VINA RESULT:      -6.6      4.387     10.719
  Name = 
  16 active torsions:
  status: ('A' for Active; 'I' for Inactive)
    1  A    between atoms: N_1  and  C_8
    2  A    between atoms: N_1  and  C_16
    3  A    between atoms: C_2  and  C_30
    4  A    between atoms: C_3  and  C_31
    5  A    between atoms: C_5  and  C_6
    6  A    between atoms: C_6  and  C_25
    7  A    between atoms: C_8  and  C_43
    8  A    between atoms: C_9  and  C_13
    9  A    between atoms: C_13  and  C_22
   10  A    between atoms: C_16  and  C_32
   11  A    between atoms: N_19  and  C_22
   12  A    between atoms: C_28  and  C_35
   13  A    between atoms: C_28  and  N_41
   14  A    between atoms: C_30  and  C_35
   15  A    between atoms: C_33  and  N_48
   16  A    between atoms: P_39  and  N_41
                            x       y       z     vdW  Elec       q    Type
                         _______ _______ _______ _____ _____    ______ ____

>  <TORSDO>
F 16

$$$$
=
 OpenBabel11042420493D

 48 51  0  0  1  0  0  0  0  0999 V2000
  161.8710  209.6210  151.5520 C   0  0  0  0  0  0  0  0  0  0  0  0
  161.8160  208.6000  148.9500 C   0  0  0  0  0  3  0  0  0  0  0  0
  161.6200  207.7300  150.0370 C   0  0  0  0  0  0  0  0  0  0  0  0
  162.0340  209.9650  149.1600 C   0  0  0  0  0  0  0  0  0  0  0  0
  162.0720  210.4720  150.4610 C   0  0  0  0  0  3  0  0  0  0  0  0
  161.6450  208.2560  151.3380 C   0  0  0  0  0  3  0  0  0  0  0  0
  161.3960  206.2810  149.8090 C   0  0  0  0  0  0  0  0  0  0  0  0
  161.0010  203.5160  149.3860 C   0  0  0  0  0  0  0  0  0  0  0  0
  161.7440  205.6890  148.5870 C   0  0  0  0  0  3  0  0  0  0  0  0
  160.8400  205.4770  150.8150 C   0  0  0  0  0  3  0  0  0  0  0  0
  161.5450  204.3230  148.3770 C   0  0  0  0  0  3  0  0  0  0  0  0
  160.6420  204.1100  150.6030 C   0  0  0  0  0  3  0  0  0  0  0  0
  160.7780  202.0730  149.1270 C   0  0  0  0  0  0  0  0  0  0  0  0
  160.5930  201.3100  150.1140 O   0  0  0  0  0  0  0  0  0  0  0  0
  160.7590  201.4820  147.7670 C   0  0  0  0  0  0  0  0  0  0  0  0
  160.2460  202.2280  146.6940 C   0  0  0  0  0  3  0  0  0  0  0  0
  161.2810  200.2030  147.5130 C   0  0  0  0  0  3  0  0  0  0  0  0
  161.2740  199.6750  146.2190 C   0  0  0  0  0  3  0  0  0  0  0  0
  160.7500  200.4240  145.1620 C   0  0  0  0  0  3  0  0  0  0  0  0
  160.2390  201.7010  145.3990 C   0  0  0  0  0  3  0  0  0  0  0  0
  162.2710  210.8660  148.0010 C   0  0  0  0  0  2  0  0  0  0  0  0
  161.1870  211.8290  147.9000 N   0  0  0  0  0  2  0  0  0  0  0  0
  161.7820  213.1080  147.5510 C   0  0  1  0  0  3  0  0  0  0  0  0
  163.0710  213.1760  148.0470 F   0  0  0  0  0  0  0  0  0  0  0  0
  162.8860  213.5170  145.4850 O   0  0  0  0  0  0  0  0  0  0  0  0
  161.7980  213.2640  146.0690 C   0  0  0  0  0  0  0  0  0  0  0  0
  160.5810  213.1650  145.3280 N   0  0  0  0  0  2  0  0  0  0  0  0
  159.2280  213.9900  143.4740 C   0  0  0  0  0  2  0  0  0  0  0  0
  160.6690  211.9260  143.2110 C   0  0  0  0  0  2  0  0  0  0  0  0
  159.9460  213.1820  141.1430 C   0  0  0  0  0  2  0  0  0  0  0  0
  159.1690  214.2270  141.9570 C   0  0  0  0  0  2  0  0  0  0  0  0
  160.5300  213.3040  143.8800 C   0  0  0  0  0  3  0  0  0  0  0  0
  159.9620  211.8330  141.8510 C   0  0  0  0  0  2  0  0  0  0  0  0
  161.9110  210.1680  152.9350 C   0  0  0  0  0  2  0  0  0  0  0  0
  160.9600  209.4000  153.8330 C   0  0  0  0  0  2  0  0  0  0  0  0
  160.0770  211.1470  155.4170 C   0  0  0  0  0  0  0  0  0  0  0  0
  159.9050  210.2850  154.2940 N   0  0  0  0  0  2  0  0  0  0  0  0
  161.1490  211.1250  156.0800 O   0  0  0  0  0  0  0  0  0  0  0  0
  158.4520  211.7120  157.2070 C   0  0  0  0  0  1  0  0  0  0  0  0
  158.9570  212.0540  155.8160 C   0  0  1  0  0  3  0  0  0  0  0  0
  160.0300  214.0260  156.5750 O   0  0  0  0  0  0  0  0  0  0  0  0
  159.3420  213.4990  155.7130 C   0  0  0  0  0  0  0  0  0  0  0  0
  158.8610  214.3030  154.5500 C   0  0  0  0  0  2  0  0  0  0  0  0
  157.4160  214.4470  154.6090 N   0  0  0  0  0  2  0  0  0  0  0  0
  156.7100  214.4520  152.0280 O   0  0  0  0  0  0  0  0  0  0  0  0
  155.1710  213.0550  153.6210 O   0  0  0  0  0  1  0  0  0  0  0  0
  157.7050  212.2130  152.9340 O   0  0  0  0  0  1  0  0  0  0  0  0
  156.7420  213.5660  153.2520 P   0  0  0  0  0  0  0  0  0  0  0  0
  1 34  1  0  0  0  0
  2  4  2  0  0  0  0
  2  3  1  0  0  0  0
  3  6  2  0  0  0  0
  4  5  1  0  0  0  0
  5  1  2  0  0  0  0
  6  1  1  0  0  0  0
  7  3  1  0  0  0  0
  7 10  1  0  0  0  0
  8 12  1  0  0  0  0
  9  7  2  0  0  0  0
 11  9  1  0  0  0  0
 11  8  2  0  0  0  0
 12 10  2  0  0  0  0
 13  8  1  0  0  0  0
 13 14  2  0  0  0  0
 15 13  1  0  0  0  0
 16 15  2  0  0  0  0
 17 15  1  0  0  0  0
 18 17  2  0  0  0  0
 19 20  2  0  0  0  0
 19 18  1  0  0  0  0
 20 16  1  0  0  0  0
 21  4  1  0  0  0  0
 22 21  1  0  0  0  0
 23 22  1  0  0  0  0
 23 24  1  6  0  0  0
 25 26  2  0  0  0  0
 26 23  1  0  0  0  0
 27 26  1  0  0  0  0
 28 32  1  0  0  0  0
 29 32  1  0  0  0  0
 30 33  1  0  0  0  0
 30 31  1  0  0  0  0
 31 28  1  0  0  0  0
 32 27  1  0  0  0  0
 33 29  1  0  0  0  0
 34 35  1  0  0  0  0
 35 37  1  0  0  0  0
 36 40  1  0  0  0  0
 36 38  2  0  0  0  0
 37 36  1  0  0  0  0
 40 39  1  1  0  0  0
 42 40  1  0  0  0  0
 42 41  2  0  0  0  0
 43 44  1  0  0  0  0
 43 42  1  0  0  0  0
 45 48  2  0  0  0  0
 47 48  1  0  0  0  0
 48 46  1  0  0  0  0
 48 44  1  0  0  0  0
M  END
>  <MODEL>
5

>  <REMARK>
 VINA RESULT:      -6.4      3.361      7.791
  Name = 
  16 active torsions:
  status: ('A' for Active; 'I' for Inactive)
    1  A    between atoms: N_1  and  C_8
    2  A    between atoms: N_1  and  C_16
    3  A    between atoms: C_2  and  C_30
    4  A    between atoms: C_3  and  C_31
    5  A    between atoms: C_5  and  C_6
    6  A    between atoms: C_6  and  C_25
    7  A    between atoms: C_8  and  C_43
    8  A    between atoms: C_9  and  C_13
    9  A    between atoms: C_13  and  C_22
   10  A    between atoms: C_16  and  C_32
   11  A    between atoms: N_19  and  C_22
   12  A    between atoms: C_28  and  C_35
   13  A    between atoms: C_28  and  N_41
   14  A    between atoms: C_30  and  C_35
   15  A    between atoms: C_33  and  N_48
   16  A    between atoms: P_39  and  N_41
                            x       y       z     vdW  Elec       q    Type
                         _______ _______ _______ _____ _____    ______ ____

>  <TORSDO>
F 16

$$$$
=
 OpenBabel11042420493D

 48 51  0  0  1  0  0  0  0  0999 V2000
  161.5540  210.9680  149.9240 C   0  0  0  0  0  0  0  0  0  0  0  0
  160.1740  213.1620  148.8790 C   0  0  0  0  0  3  0  0  0  0  0  0
  160.8850  212.3170  148.0090 C   0  0  0  0  0  0  0  0  0  0  0  0
  160.1500  212.9140  150.2540 C   0  0  0  0  0  0  0  0  0  0  0  0
  160.8490  211.8220  150.7770 C   0  0  0  0  0  3  0  0  0  0  0  0
  161.5710  211.2160  148.5470 C   0  0  0  0  0  3  0  0  0  0  0  0
  160.9140  212.5900  146.5520 C   0  0  0  0  0  0  0  0  0  0  0  0
  160.9780  213.0780  143.7700 C   0  0  0  0  0  0  0  0  0  0  0  0
  162.1090  212.9580  145.9180 C   0  0  0  0  0  3  0  0  0  0  0  0
  159.7480  212.4780  145.7800 C   0  0  0  0  0  3  0  0  0  0  0  0
  162.1390  213.2030  144.5430 C   0  0  0  0  0  3  0  0  0  0  0  0
  159.7800  212.7230  144.4050 C   0  0  0  0  0  3  0  0  0  0  0  0
  161.0320  213.3690  142.3170 C   0  0  0  0  0  0  0  0  0  0  0  0
  160.5370  214.4530  141.9040 O   0  0  0  0  0  0  0  0  0  0  0  0
  161.6420  212.4500  141.3240 C   0  0  0  0  0  0  0  0  0  0  0  0
  161.1420  211.1450  141.1890 C   0  0  0  0  0  3  0  0  0  0  0  0
  162.6860  212.8650  140.4820 C   0  0  0  0  0  3  0  0  0  0  0  0
  163.2300  211.9890  139.5370 C   0  0  0  0  0  3  0  0  0  0  0  0
  162.7300  210.6900  139.4210 C   0  0  0  0  0  3  0  0  0  0  0  0
  161.6840  210.2690  140.2450 C   0  0  0  0  0  3  0  0  0  0  0  0
  159.4180  213.8350  151.1640 C   0  0  0  0  0  2  0  0  0  0  0  0
  159.7960  213.5670  152.5410 N   0  0  0  0  0  2  0  0  0  0  0  0
  158.6310  213.0050  153.2020 C   0  0  1  0  0  3  0  0  0  0  0  0
  157.9180  212.2230  152.3120 F   0  0  0  0  0  0  0  0  0  0  0  0
  158.4870  212.3300  155.4770 O   0  0  0  0  0  0  0  0  0  0  0  0
  159.0650  212.1840  154.3680 C   0  0  0  0  0  0  0  0  0  0  0  0
  160.1540  211.2690  154.2300 N   0  0  0  0  0  2  0  0  0  0  0  0
  162.1070  210.6970  155.5740 C   0  0  0  0  0  2  0  0  0  0  0  0
  160.3590  208.9530  155.0170 C   0  0  0  0  0  2  0  0  0  0  0  0
  161.8780  208.5700  156.9970 C   0  0  0  0  0  2  0  0  0  0  0  0
  162.6240  209.8940  156.7780 C   0  0  0  0  0  2  0  0  0  0  0  0
  160.6230  210.4360  155.3280 C   0  0  0  0  0  3  0  0  0  0  0  0
  161.3650  208.0020  155.6790 C   0  0  0  0  0  2  0  0  0  0  0  0
  162.2960  209.8070  150.4880 C   0  0  0  0  0  2  0  0  0  0  0  0
  161.3710  208.9530  151.3330 C   0  0  0  0  0  2  0  0  0  0  0  0
  161.7270  206.4620  151.4350 C   0  0  0  0  0  0  0  0  0  0  0  0
  161.2680  207.6260  150.7510 N   0  0  0  0  0  2  0  0  0  0  0  0
  162.2900  206.5620  152.5590 O   0  0  0  0  0  0  0  0  0  0  0  0
  160.6090  204.2500  151.5850 C   0  0  0  0  0  1  0  0  0  0  0  0
  161.5610  205.1250  150.7870 C   0  0  1  0  0  3  0  0  0  0  0  0
  160.2750  206.0580  149.0290 O   0  0  0  0  0  0  0  0  0  0  0  0
  161.1250  205.2450  149.3570 C   0  0  0  0  0  0  0  0  0  0  0  0
  161.7300  204.3440  148.3310 C   0  0  0  0  0  2  0  0  0  0  0  0
  160.8800  204.2930  147.1530 N   0  0  0  0  0  2  0  0  0  0  0  0
  162.1700  206.4950  146.3480 O   0  0  0  0  0  1  0  0  0  0  0  0
  160.6790  205.3300  144.5380 O   0  0  0  0  0  0  0  0  0  0  0  0
  163.0630  204.2350  145.3890 O   0  0  0  0  0  1  0  0  0  0  0  0
  161.7140  205.1380  145.8630 P   0  0  0  0  0  0  0  0  0  0  0  0
  1 34  1  0  0  0  0
  1  5  1  0  0  0  0
  2  4  1  0  0  0  0
  3  6  1  0  0  0  0
  3  2  2  0  0  0  0
  4  5  2  0  0  0  0
  4 21  1  0  0  0  0
  6  1  2  0  0  0  0
  7  3  1  0  0  0  0
  8 12  2  0  0  0  0
  8 11  1  0  0  0  0
  9  7  1  0  0  0  0
 10  7  2  0  0  0  0
 11  9  2  0  0  0  0
 12 10  1  0  0  0  0
 13  8  1  0  0  0  0
 14 13  2  0  0  0  0
 15 13  1  0  0  0  0
 16 15  1  0  0  0  0
 17 15  2  0  0  0  0
 18 17  1  0  0  0  0
 19 18  2  0  0  0  0
 19 20  1  0  0  0  0
 20 16  2  0  0  0  0
 21 22  1  0  0  0  0
 22 23  1  0  0  0  0
 23 24  1  6  0  0  0
 23 26  1  0  0  0  0
 26 25  2  0  0  0  0
 27 26  1  0  0  0  0
 27 32  1  0  0  0  0
 28 31  1  0  0  0  0
 29 32  1  0  0  0  0
 29 33  1  0  0  0  0
 31 30  1  0  0  0  0
 32 28  1  0  0  0  0
 33 30  1  0  0  0  0
 34 35  1  0  0  0  0
 36 38  2  0  0  0  0
 37 35  1  0  0  0  0
 37 36  1  0  0  0  0
 40 36  1  0  0  0  0
 40 39  1  1  0  0  0
 41 42  2  0  0  0  0
 42 40  1  0  0  0  0
 43 42  1  0  0  0  0
 44 43  1  0  0  0  0
 46 48  2  0  0  0  0
 47 48  1  0  0  0  0
 48 45  1  0  0  0  0
 48 44  1  0  0  0  0
M  END
>  <MODEL>
6

>  <REMARK>
 VINA RESULT:      -5.7      4.138      9.067
  Name = 
  16 active torsions:
  status: ('A' for Active; 'I' for Inactive)
    1  A    between atoms: N_1  and  C_8
    2  A    between atoms: N_1  and  C_16
    3  A    between atoms: C_2  and  C_30
    4  A    between atoms: C_3  and  C_31
    5  A    between atoms: C_5  and  C_6
    6  A    between atoms: C_6  and  C_25
    7  A    between atoms: C_8  and  C_43
    8  A    between atoms: C_9  and  C_13
    9  A    between atoms: C_13  and  C_22
   10  A    between atoms: C_16  and  C_32
   11  A    between atoms: N_19  and  C_22
   12  A    between atoms: C_28  and  C_35
   13  A    between atoms: C_28  and  N_41
   14  A    between atoms: C_30  and  C_35
   15  A    between atoms: C_33  and  N_48
   16  A    between atoms: P_39  and  N_41
                            x       y       z     vdW  Elec       q    Type
                         _______ _______ _______ _____ _____    ______ ____

>  <TORSDO>
F 16

$$$$
=
 OpenBabel11042420493D

 48 51  0  0  1  0  0  0  0  0999 V2000
  161.5500  209.9100  151.1100 C   0  0  0  0  0  0  0  0  0  0  0  0
  161.2620  207.1610  151.5290 C   0  0  0  0  0  3  0  0  0  0  0  0
  161.4660  207.6430  150.2240 C   0  0  0  0  0  0  0  0  0  0  0  0
  161.2060  208.0420  152.6130 C   0  0  0  0  0  0  0  0  0  0  0  0
  161.3390  209.4170  152.4010 C   0  0  0  0  0  3  0  0  0  0  0  0
  161.6130  209.0250  150.0280 C   0  0  0  0  0  3  0  0  0  0  0  0
  161.5170  206.7040  149.0760 C   0  0  0  0  0  0  0  0  0  0  0  0
  161.5870  204.9310  146.8770 C   0  0  0  0  0  0  0  0  0  0  0  0
  160.7970  205.5020  149.1040 C   0  0  0  0  0  3  0  0  0  0  0  0
  162.2810  207.0070  147.9390 C   0  0  0  0  0  3  0  0  0  0  0  0
  160.8350  204.6240  148.0190 C   0  0  0  0  0  3  0  0  0  0  0  0
  162.3180  206.1280  146.8540 C   0  0  0  0  0  3  0  0  0  0  0  0
  161.6300  203.9700  145.7490 C   0  0  0  0  0  0  0  0  0  0  0  0
  162.0800  204.3680  144.6400 O   0  0  0  0  0  0  0  0  0  0  0  0
  161.1720  202.5640  145.8590 C   0  0  0  0  0  0  0  0  0  0  0  0
  160.2920  202.0430  144.8970 C   0  0  0  0  0  3  0  0  0  0  0  0
  161.6290  201.7190  146.8840 C   0  0  0  0  0  3  0  0  0  0  0  0
  161.2030  200.3890  146.9550 C   0  0  0  0  0  3  0  0  0  0  0  0
  160.3190  199.8880  145.9970 C   0  0  0  0  0  3  0  0  0  0  0  0
  159.8650  200.7140  144.9670 C   0  0  0  0  0  3  0  0  0  0  0  0
  160.9580  207.5190  153.9830 C   0  0  0  0  0  2  0  0  0  0  0  0
  161.3690  208.5080  154.9660 N   0  0  0  0  0  2  0  0  0  0  0  0
  160.3260  208.5660  155.9760 C   0  0  1  0  0  3  0  0  0  0  0  0
  160.8380  208.1800  157.2010 F   0  0  0  0  0  0  0  0  0  0  0  0
  160.0530  210.6570  157.0740 O   0  0  0  0  0  0  0  0  0  0  0  0
  159.7910  209.9540  156.0610 C   0  0  0  0  0  0  0  0  0  0  0  0
  158.9560  210.4630  155.0190 N   0  0  0  0  0  2  0  0  0  0  0  0
  156.9780  211.7920  154.5000 C   0  0  0  0  0  2  0  0  0  0  0  0
  159.3010  212.7610  154.2290 C   0  0  0  0  0  2  0  0  0  0  0  0
  157.3400  214.3350  154.4640 C   0  0  0  0  0  2  0  0  0  0  0  0
  156.3310  213.1830  154.5800 C   0  0  0  0  0  2  0  0  0  0  0  0
  158.4050  211.8100  155.0420 C   0  0  0  0  0  3  0  0  0  0  0  0
  158.5350  213.9370  153.6060 C   0  0  0  0  0  2  0  0  0  0  0  0
  161.6930  211.3750  150.8920 C   0  0  0  0  0  2  0  0  0  0  0  0
  162.4810  211.6440  149.6240 C   0  0  0  0  0  2  0  0  0  0  0  0
  161.0030  212.1770  147.6560 C   0  0  0  0  0  0  0  0  0  0  0  0
  161.7570  212.5900  148.7940 N   0  0  0  0  0  2  0  0  0  0  0  0
  160.9870  210.9660  147.3070 O   0  0  0  0  0  0  0  0  0  0  0  0
  161.1100  214.4410  146.6440 C   0  0  0  0  0  1  0  0  0  0  0  0
  160.2580  213.2040  146.8650 C   0  0  1  0  0  3  0  0  0  0  0  0
  158.6090  212.2170  145.4770 O   0  0  0  0  0  0  0  0  0  0  0  0
  159.7480  212.6510  145.5680 C   0  0  0  0  0  0  0  0  0  0  0  0
  160.6540  212.6190  144.3810 C   0  0  0  0  0  2  0  0  0  0  0  0
  160.0180  211.8980  143.2900 N   0  0  0  0  0  2  0  0  0  0  0  0
  161.0380  213.7750  141.6790 O   0  0  0  0  0  1  0  0  0  0  0  0
  158.5570  214.1510  142.4290 O   0  0  0  0  0  1  0  0  0  0  0  0
  159.2510  212.2000  140.6080 O   0  0  0  0  0  0  0  0  0  0  0  0
  159.7540  213.0390  141.9860 P   0  0  0  0  0  0  0  0  0  0  0  0
  1  5  1  0  0  0  0
  2  4  1  0  0  0  0
  3  2  2  0  0  0  0
  4 21  1  0  0  0  0
  5  4  2  0  0  0  0
  6  3  1  0  0  0  0
  6  1  2  0  0  0  0
  7  9  1  0  0  0  0
  7  3  1  0  0  0  0
  8 11  1  0  0  0  0
 10  7  2  0  0  0  0
 11  9  2  0  0  0  0
 12  8  2  0  0  0  0
 12 10  1  0  0  0  0
 13 15  1  0  0  0  0
 13  8  1  0  0  0  0
 14 13  2  0  0  0  0
 15 17  1  0  0  0  0
 16 20  1  0  0  0  0
 16 15  2  0  0  0  0
 17 18  2  0  0  0  0
 19 18  1  0  0  0  0
 20 19  2  0  0  0  0
 21 22  1  0  0  0  0
 22 23  1  0  0  0  0
 23 26  1  0  0  0  0
 23 24  1  1  0  0  0
 26 25  2  0  0  0  0
 27 32  1  0  0  0  0
 27 26  1  0  0  0  0
 28 31  1  0  0  0  0
 28 32  1  0  0  0  0
 29 32  1  0  0  0  0
 30 31  1  0  0  0  0
 33 29  1  0  0  0  0
 33 30  1  0  0  0  0
 34  1  1  0  0  0  0
 35 34  1  0  0  0  0
 36 37  1  0  0  0  0
 37 35  1  0  0  0  0
 38 36  2  0  0  0  0
 40 39  1  6  0  0  0
 40 36  1  0  0  0  0
 41 42  2  0  0  0  0
 42 40  1  0  0  0  0
 43 42  1  0  0  0  0
 44 43  1  0  0  0  0
 45 48  1  0  0  0  0
 47 48  2  0  0  0  0
 48 46  1  0  0  0  0
 48 44  1  0  0  0  0
M  END
>  <MODEL>
7

>  <REMARK>
 VINA RESULT:      -5.6      4.214      9.808
  Name = 
  16 active torsions:
  status: ('A' for Active; 'I' for Inactive)
    1  A    between atoms: N_1  and  C_8
    2  A    between atoms: N_1  and  C_16
    3  A    between atoms: C_2  and  C_30
    4  A    between atoms: C_3  and  C_31
    5  A    between atoms: C_5  and  C_6
    6  A    between atoms: C_6  and  C_25
    7  A    between atoms: C_8  and  C_43
    8  A    between atoms: C_9  and  C_13
    9  A    between atoms: C_13  and  C_22
   10  A    between atoms: C_16  and  C_32
   11  A    between atoms: N_19  and  C_22
   12  A    between atoms: C_28  and  C_35
   13  A    between atoms: C_28  and  N_41
   14  A    between atoms: C_30  and  C_35
   15  A    between atoms: C_33  and  N_48
   16  A    between atoms: P_39  and  N_41
                            x       y       z     vdW  Elec       q    Type
                         _______ _______ _______ _____ _____    ______ ____

>  <TORSDO>
F 16

$$$$
=
 OpenBabel11042420493D

 48 51  0  0  1  0  0  0  0  0999 V2000
  161.1810  210.9190  152.0600 C   0  0  0  0  0  0  0  0  0  0  0  0
  159.7840  212.9300  150.7120 C   0  0  0  0  0  3  0  0  0  0  0  0
  160.8240  212.2520  150.0530 C   0  0  0  0  0  0  0  0  0  0  0  0
  159.4430  212.6060  152.0280 C   0  0  0  0  0  0  0  0  0  0  0  0
  160.1490  211.6080  152.7050 C   0  0  0  0  0  3  0  0  0  0  0  0
  161.5150  211.2410  150.7400 C   0  0  0  0  0  3  0  0  0  0  0  0
  161.1870  212.6050  148.6590 C   0  0  0  0  0  0  0  0  0  0  0  0
  161.8870  213.3090  146.0140 C   0  0  0  0  0  0  0  0  0  0  0  0
  160.2500  213.2080  147.8080 C   0  0  0  0  0  3  0  0  0  0  0  0
  162.4770  212.3510  148.1690 C   0  0  0  0  0  3  0  0  0  0  0  0
  160.5950  213.5520  146.4990 C   0  0  0  0  0  3  0  0  0  0  0  0
  162.8210  212.6960  146.8600 C   0  0  0  0  0  3  0  0  0  0  0  0
  162.2190  213.6620  144.6120 C   0  0  0  0  0  0  0  0  0  0  0  0
  163.1790  214.4530  144.4060 O   0  0  0  0  0  0  0  0  0  0  0  0
  161.4810  213.1300  143.4410 C   0  0  0  0  0  0  0  0  0  0  0  0
  162.1860  212.4970  142.4050 C   0  0  0  0  0  3  0  0  0  0  0  0
  160.0810  213.2070  143.3570 C   0  0  0  0  0  3  0  0  0  0  0  0
  159.4030  212.6780  142.2540 C   0  0  0  0  0  3  0  0  0  0  0  0
  160.1190  212.0600  141.2260 C   0  0  0  0  0  3  0  0  0  0  0  0
  161.5100  211.9670  141.3030 C   0  0  0  0  0  3  0  0  0  0  0  0
  158.3600  213.3540  152.7220 C   0  0  0  0  0  2  0  0  0  0  0  0
  158.8450  213.8440  154.0010 N   0  0  0  0  0  2  0  0  0  0  0  0
  157.8170  213.5560  154.9860 C   0  0  1  0  0  3  0  0  0  0  0  0
  156.6110  213.3230  154.3510 F   0  0  0  0  0  0  0  0  0  0  0  0
  157.4020  211.8870  156.6280 O   0  0  0  0  0  0  0  0  0  0  0  0
  158.2110  212.3620  155.7860 C   0  0  0  0  0  0  0  0  0  0  0  0
  159.5090  211.7880  155.6210 N   0  0  0  0  0  2  0  0  0  0  0  0
  161.4780  210.5570  156.3670 C   0  0  0  0  0  2  0  0  0  0  0  0
  159.3380  209.3440  155.7680 C   0  0  0  0  0  2  0  0  0  0  0  0
  161.0230  208.1890  157.2510 C   0  0  0  0  0  2  0  0  0  0  0  0
  161.9900  209.3810  157.2120 C   0  0  0  0  0  2  0  0  0  0  0  0
  159.9520  210.6210  156.3680 C   0  0  0  0  0  3  0  0  0  0  0  0
  160.2090  208.0960  155.9660 C   0  0  0  0  0  2  0  0  0  0  0  0
  161.9270  209.8560  152.7870 C   0  0  0  0  0  2  0  0  0  0  0  0
  161.2890  208.5030  152.5400 C   0  0  0  0  0  2  0  0  0  0  0  0
  161.3660  207.1040  150.4470 C   0  0  0  0  0  0  0  0  0  0  0  0
  161.0600  208.3260  151.1170 N   0  0  0  0  0  2  0  0  0  0  0  0
  161.8990  206.1490  151.0740 O   0  0  0  0  0  0  0  0  0  0  0  0
  161.7120  208.1220  148.2100 C   0  0  0  0  0  1  0  0  0  0  0  0
  161.0750  206.9830  148.9860 C   0  0  1  0  0  3  0  0  0  0  0  0
  162.5820  205.5000  147.9160 O   0  0  0  0  0  0  0  0  0  0  0  0
  161.4890  205.6490  148.4400 C   0  0  0  0  0  0  0  0  0  0  0  0
  160.5410  204.4980  148.5250 C   0  0  0  0  0  2  0  0  0  0  0  0
  161.2410  203.2570  148.2400 N   0  0  0  0  0  2  0  0  0  0  0  0
  161.4880  200.7860  149.2380 O   0  0  0  0  0  1  0  0  0  0  0  0
  159.0520  201.7470  149.1810 O   0  0  0  0  0  0  0  0  0  0  0  0
  160.9420  202.6670  150.9670 O   0  0  0  0  0  1  0  0  0  0  0  0
  160.7000  202.0650  149.4060 P   0  0  0  0  0  0  0  0  0  0  0  0
  1  5  1  0  0  0  0
  1 34  1  0  0  0  0
  2  4  1  0  0  0  0
  3  2  2  0  0  0  0
  3  6  1  0  0  0  0
  4  5  2  0  0  0  0
  4 21  1  0  0  0  0
  6  1  2  0  0  0  0
  7  3  1  0  0  0  0
  8 11  2  0  0  0  0
  8 12  1  0  0  0  0
  9  7  2  0  0  0  0
 10  7  1  0  0  0  0
 11  9  1  0  0  0  0
 12 10  2  0  0  0  0
 13  8  1  0  0  0  0
 14 13  2  0  0  0  0
 15 13  1  0  0  0  0
 16 15  2  0  0  0  0
 17 15  1  0  0  0  0
 18 17  2  0  0  0  0
 19 20  2  0  0  0  0
 19 18  1  0  0  0  0
 20 16  1  0  0  0  0
 21 22  1  0  0  0  0
 22 23  1  0  0  0  0
 23 24  1  6  0  0  0
 23 26  1  0  0  0  0
 26 25  2  0  0  0  0
 27 26  1  0  0  0  0
 27 32  1  0  0  0  0
 28 32  1  0  0  0  0
 28 31  1  0  0  0  0
 29 33  1  0  0  0  0
 29 32  1  0  0  0  0
 31 30  1  0  0  0  0
 33 30  1  0  0  0  0
 35 34  1  0  0  0  0
 36 38  2  0  0  0  0
 36 37  1  0  0  0  0
 37 35  1  0  0  0  0
 40 39  1  6  0  0  0
 40 36  1  0  0  0  0
 41 42  2  0  0  0  0
 42 43  1  0  0  0  0
 42 40  1  0  0  0  0
 44 43  1  0  0  0  0
 44 48  1  0  0  0  0
 45 48  1  0  0  0  0
 46 48  2  0  0  0  0
 48 47  1  0  0  0  0
M  END
>  <MODEL>
8

>  <REMARK>
 VINA RESULT:      -5.6      3.631      8.853
  Name = 
  16 active torsions:
  status: ('A' for Active; 'I' for Inactive)
    1  A    between atoms: N_1  and  C_8
    2  A    between atoms: N_1  and  C_16
    3  A    between atoms: C_2  and  C_30
    4  A    between atoms: C_3  and  C_31
    5  A    between atoms: C_5  and  C_6
    6  A    between atoms: C_6  and  C_25
    7  A    between atoms: C_8  and  C_43
    8  A    between atoms: C_9  and  C_13
    9  A    between atoms: C_13  and  C_22
   10  A    between atoms: C_16  and  C_32
   11  A    between atoms: N_19  and  C_22
   12  A    between atoms: C_28  and  C_35
   13  A    between atoms: C_28  and  N_41
   14  A    between atoms: C_30  and  C_35
   15  A    between atoms: C_33  and  N_48
   16  A    between atoms: P_39  and  N_41
                            x       y       z     vdW  Elec       q    Type
                         _______ _______ _______ _____ _____    ______ ____

>  <TORSDO>
F 16

$$$$
=
 OpenBabel11042420493D

 48 51  0  0  1  0  0  0  0  0999 V2000
  161.4030  209.4520  152.5320 C   0  0  0  0  0  0  0  0  0  0  0  0
  161.3640  206.9830  153.8410 C   0  0  0  0  0  3  0  0  0  0  0  0
  161.2930  207.0210  152.4370 C   0  0  0  0  0  0  0  0  0  0  0  0
  161.4560  208.1640  154.5830 C   0  0  0  0  0  0  0  0  0  0  0  0
  161.4650  209.3990  153.9280 C   0  0  0  0  0  3  0  0  0  0  0  0
  161.3180  208.2670  151.7920 C   0  0  0  0  0  3  0  0  0  0  0  0
  161.1870  205.7650  151.6550 C   0  0  0  0  0  0  0  0  0  0  0  0
  161.0190  203.3720  150.1630 C   0  0  0  0  0  0  0  0  0  0  0  0
  161.1340  205.7980  150.2550 C   0  0  0  0  0  3  0  0  0  0  0  0
  161.1470  204.5210  152.3030 C   0  0  0  0  0  3  0  0  0  0  0  0
  161.0470  204.6150  149.5180 C   0  0  0  0  0  3  0  0  0  0  0  0
  161.0600  203.3380  151.5640 C   0  0  0  0  0  3  0  0  0  0  0  0
  160.9010  202.1330  149.3570 C   0  0  0  0  0  0  0  0  0  0  0  0
  160.8840  201.0260  149.9620 O   0  0  0  0  0  0  0  0  0  0  0  0
  160.8010  202.1290  147.8780 C   0  0  0  0  0  0  0  0  0  0  0  0
  160.1270  201.0820  147.2300 C   0  0  0  0  0  3  0  0  0  0  0  0
  161.3320  203.1720  147.1020 C   0  0  0  0  0  3  0  0  0  0  0  0
  161.2060  203.1610  145.7090 C   0  0  0  0  0  3  0  0  0  0  0  0
  160.5410  202.1070  145.0780 C   0  0  0  0  0  3  0  0  0  0  0  0
  159.9990  201.0680  145.8390 C   0  0  0  0  0  3  0  0  0  0  0  0
  161.4990  208.1070  156.0680 C   0  0  0  0  0  2  0  0  0  0  0  0
  160.5990  209.1050  156.6220 N   0  0  0  0  0  2  0  0  0  0  0  0
  159.3840  209.0740  155.8270 C   0  0  1  0  0  3  0  0  0  0  0  0
  158.6180  207.9790  156.1830 F   0  0  0  0  0  0  0  0  0  0  0  0
  159.0910  211.2310  156.7840 O   0  0  0  0  0  0  0  0  0  0  0  0
  158.6120  210.3290  156.0450 C   0  0  0  0  0  0  0  0  0  0  0  0
  157.3220  210.4870  155.4490 N   0  0  0  0  0  2  0  0  0  0  0  0
  156.7250  212.6200  154.4280 C   0  0  0  0  0  2  0  0  0  0  0  0
  156.8840  212.3840  156.9430 C   0  0  0  0  0  2  0  0  0  0  0  0
  155.5300  214.2840  155.9770 C   0  0  0  0  0  2  0  0  0  0  0  0
  155.8350  213.8670  154.5310 C   0  0  0  0  0  2  0  0  0  0  0  0
  156.5200  211.6890  155.6200 C   0  0  0  0  0  3  0  0  0  0  0  0
  156.6720  213.9050  156.9120 C   0  0  0  0  0  2  0  0  0  0  0  0
  161.4150  210.7710  151.8420 C   0  0  0  0  0  2  0  0  0  0  0  0
  162.0710  210.6450  150.4800 C   0  0  0  0  0  2  0  0  0  0  0  0
  161.8980  212.1270  148.4510 C   0  0  0  0  0  0  0  0  0  0  0  0
  161.2880  211.3710  149.4950 N   0  0  0  0  0  2  0  0  0  0  0  0
  163.1530  212.2280  148.3850 O   0  0  0  0  0  0  0  0  0  0  0  0
  160.2040  213.9110  148.1200 C   0  0  0  0  0  1  0  0  0  0  0  0
  161.0290  212.8240  147.4540 C   0  0  1  0  0  3  0  0  0  0  0  0
  162.7520  214.1340  146.4890 O   0  0  0  0  0  0  0  0  0  0  0  0
  161.8200  213.3660  146.3010 C   0  0  0  0  0  0  0  0  0  0  0  0
  161.4490  212.9720  144.9100 C   0  0  0  0  0  2  0  0  0  0  0  0
  161.7520  214.0550  143.9890 N   0  0  0  0  0  2  0  0  0  0  0  0
  160.5710  214.3080  141.6010 O   0  0  0  0  0  1  0  0  0  0  0  0
  160.9590  211.8510  142.4180 O   0  0  0  0  0  1  0  0  0  0  0  0
  163.0380  213.4510  141.5680 O   0  0  0  0  0  0  0  0  0  0  0  0
  161.5450  213.4380  142.3610 P   0  0  0  0  0  0  0  0  0  0  0  0
  1  5  1  0  0  0  0
  2  4  1  0  0  0  0
  3  2  2  0  0  0  0
  4 21  1  0  0  0  0
  5  4  2  0  0  0  0
  6  3  1  0  0  0  0
  6  1  2  0  0  0  0
  7 10  1  0  0  0  0
  7  3  1  0  0  0  0
  8 12  1  0  0  0  0
  9  7  2  0  0  0  0
 11  8  2  0  0  0  0
 11  9  1  0  0  0  0
 12 10  2  0  0  0  0
 13 14  2  0  0  0  0
 13  8  1  0  0  0  0
 15 13  1  0  0  0  0
 16 15  1  0  0  0  0
 17 15  2  0  0  0  0
 18 17  1  0  0  0  0
 19 18  2  0  0  0  0
 19 20  1  0  0  0  0
 20 16  2  0  0  0  0
 21 22  1  0  0  0  0
 23 26  1  0  0  0  0
 23 24  1  1  0  0  0
 23 22  1  0  0  0  0
 26 25  2  0  0  0  0
 27 32  1  0  0  0  0
 27 26  1  0  0  0  0
 28 31  1  0  0  0  0
 28 32  1  0  0  0  0
 30 33  1  0  0  0  0
 31 30  1  0  0  0  0
 32 29  1  0  0  0  0
 33 29  1  0  0  0  0
 34  1  1  0  0  0  0
 35 34  1  0  0  0  0
 36 37  1  0  0  0  0
 37 35  1  0  0  0  0
 38 36  2  0  0  0  0
 40 39  1  1  0  0  0
 40 36  1  0  0  0  0
 42 41  2  0  0  0  0
 42 40  1  0  0  0  0
 43 42  1  0  0  0  0
 44 43  1  0  0  0  0
 45 48  1  0  0  0  0
 47 48  2  0  0  0  0
 48 46  1  0  0  0  0
 48 44  1  0  0  0  0
M  END
>  <MODEL>
9

>  <REMARK>
 VINA RESULT:      -5.4      3.875      9.998
  Name = 
  16 active torsions:
  status: ('A' for Active; 'I' for Inactive)
    1  A    between atoms: N_1  and  C_8
    2  A    between atoms: N_1  and  C_16
    3  A    between atoms: C_2  and  C_30
    4  A    between atoms: C_3  and  C_31
    5  A    between atoms: C_5  and  C_6
    6  A    between atoms: C_6  and  C_25
    7  A    between atoms: C_8  and  C_43
    8  A    between atoms: C_9  and  C_13
    9  A    between atoms: C_13  and  C_22
   10  A    between atoms: C_16  and  C_32
   11  A    between atoms: N_19  and  C_22
   12  A    between atoms: C_28  and  C_35
   13  A    between atoms: C_28  and  N_41
   14  A    between atoms: C_30  and  C_35
   15  A    between atoms: C_33  and  N_48
   16  A    between atoms: P_39  and  N_41
                            x       y       z     vdW  Elec       q    Type
                         _______ _______ _______ _____ _____    ______ ____

>  <TORSDO>
F 16

$$$$
