=
 OpenBabel11042421543D

 47 53  0  0  1  0  0  0  0  0999 V2000
  162.2100  209.4540  150.3570 S   0  0  0  0  0  0  0  0  0  0  0  0
  161.5740  208.2100  148.2820 C   0  0  0  0  0  0  0  0  0  0  0  0
  161.1750  205.0920  153.5690 C   0  0  0  0  0  2  0  0  0  0  0  0
  161.7400  208.0020  149.6500 C   0  0  0  0  0  0  0  0  0  0  0  0
  161.5510  205.1030  152.1130 C   0  0  1  0  0  3  0  0  0  0  0  0
  161.1690  207.1090  147.3360 C   0  0  0  0  0  2  0  0  0  0  0  0
  161.3700  205.7100  147.9430 C   0  0  0  0  0  2  0  0  0  0  0  0
  160.8960  205.7040  149.3910 C   0  0  1  0  0  3  0  0  0  0  0  0
  160.9510  204.0650  151.2060 C   0  0  0  0  0  0  0  0  0  0  0  0
  161.7630  209.5370  147.8800 C   0  0  0  0  0  3  0  0  0  0  0  0
  161.5370  206.5070  154.0370 C   0  0  1  0  0  3  0  0  0  0  0  0
  161.8190  207.3280  152.7740 C   0  0  0  0  0  2  0  0  0  0  0  0
  162.1090  210.3630  148.9450 C   0  0  0  0  0  0  0  0  0  0  0  0
  160.7600  204.3460  149.9430 N   0  0  0  0  0  0  0  0  0  0  0  0
  161.7760  206.6270  150.2550 C   0  0  2  0  0  3  0  0  0  0  0  0
  161.2230  206.4950  151.6650 C   0  0  1  0  0  3  0  0  0  0  0  0
  160.4120  207.0890  154.7540 N   0  0  0  0  0  2  0  0  0  0  0  0
  161.5760  208.9930  155.4480 O   0  0  0  0  0  0  0  0  0  0  0  0
  160.5090  208.3240  155.4650 C   0  0  0  0  0  0  0  0  0  0  0  0
  159.3540  208.7990  156.2720 C   0  0  0  0  0  2  0  0  0  0  0  0
  159.5550  210.2580  156.6380 C   0  0  0  0  0  2  0  0  0  0  0  0
  158.5740  211.6460  154.6720 C   0  0  0  0  0  0  0  0  0  0  0  0
  156.1220  212.0030  154.7320 C   0  0  0  0  0  2  0  0  0  0  0  0
  156.2700  212.2060  156.2430 C   0  0  0  0  0  2  0  0  0  0  0  0
  158.4690  211.0990  156.0550 C   0  0  0  0  0  0  0  0  0  0  0  0
  157.3640  211.3270  156.7790 C   0  0  0  0  0  3  0  0  0  0  0  0
  157.4640  212.0860  154.0580 C   0  0  0  0  0  3  0  0  0  0  0  0
  159.8460  210.6400  152.7700 C   0  0  0  0  0  2  0  0  0  0  0  0
  159.8820  211.6300  153.9280 C   0  0  0  0  0  3  0  0  0  0  0  0
  159.6790  212.1170  152.5040 C   0  0  0  0  0  2  0  0  0  0  0  0
  160.7230  201.6360  150.8430 C   0  0  0  0  0  1  0  0  0  0  0  0
  160.7260  202.7740  151.6910 O   0  0  0  0  0  0  0  0  0  0  0  0
  162.4580  211.8120  148.8490 C   0  0  0  0  0  2  0  0  0  0  0  0
  161.6640  212.5130  147.7520 C   0  0  0  0  0  2  0  0  0  0  0  0
  162.5850  213.1720  146.7390 C   0  0  0  0  0  2  0  0  0  0  0  0
  161.7920  214.0790  145.8110 C   0  0  0  0  0  2  0  0  0  0  0  0
  161.2500  213.2900  144.6590 C   0  0  0  0  0  0  0  0  0  0  0  0
  162.1380  212.9200  143.6280 C   0  0  0  0  0  0  0  0  0  0  0  0
  163.4820  213.2670  143.7360 O   0  0  0  0  0  1  0  0  0  0  0  0
  161.6630  212.2070  142.5030 C   0  0  0  0  0  0  0  0  0  0  0  0
  159.4290  212.2500  143.4390 C   0  0  0  0  0  3  0  0  0  0  0  0
  160.3090  211.8850  142.4250 C   0  0  0  0  0  3  0  0  0  0  0  0
  159.8760  212.9440  144.5640 C   0  0  0  0  0  0  0  0  0  0  0  0
  158.8450  213.2560  145.5750 C   0  0  0  0  0  3  0  0  0  0  0  0
  157.7730  212.5170  145.8310 C   0  0  0  0  0  2  0  0  0  0  0  0
  162.0230  211.1210  140.2760 C   0  0  0  0  0  1  0  0  0  0  0  0
  162.4790  211.7960  141.4370 O   0  0  0  0  0  0  0  0  0  0  0  0
  2  4  2  0  0  0  0
  3 11  1  0  0  0  0
  4  1  1  0  0  0  0
  5  3  1  1  0  0  0
  6  7  1  0  0  0  0
  6  2  1  0  0  0  0
  8  7  1  6  0  0  0
  8 14  1  0  0  0  0
  8 15  1  0  0  0  0
  9 32  1  0  0  0  0
  9  5  1  0  0  0  0
 10  2  1  0  0  0  0
 10 13  2  0  0  0  0
 11 17  1  6  0  0  0
 12 11  1  0  0  0  0
 13  1  1  0  0  0  0
 14  9  2  0  0  0  0
 15  4  1  6  0  0  0
 15 16  1  0  0  0  0
 16  5  1  0  0  0  0
 16 12  1  1  0  0  0
 17 19  1  0  0  0  0
 18 19  2  0  0  0  0
 19 20  1  0  0  0  0
 20 21  1  0  0  0  0
 22 25  1  0  0  0  0
 23 24  1  0  0  0  0
 24 26  1  0  0  0  0
 25 21  1  0  0  0  0
 25 26  2  0  0  0  0
 27 22  2  0  0  0  0
 27 23  1  0  0  0  0
 28 29  1  0  0  0  0
 29 22  1  0  0  0  0
 30 28  1  0  0  0  0
 30 29  1  0  0  0  0
 31 32  1  0  0  0  0
 33 13  1  0  0  0  0
 34 33  1  0  0  0  0
 35 34  1  0  0  0  0
 36 35  1  0  0  0  0
 37 36  1  0  0  0  0
 38 39  1  0  0  0  0
 38 37  2  0  0  0  0
 40 38  1  0  0  0  0
 41 43  2  0  0  0  0
 42 40  2  0  0  0  0
 42 41  1  0  0  0  0
 43 37  1  0  0  0  0
 43 44  1  0  0  0  0
 44 45  2  0  0  0  0
 46 47  1  0  0  0  0
 47 40  1  0  0  0  0
M  END
>  <MODEL>
1

>  <REMARK>
 VINA RESULT:      -8.2      0.000      0.000
  Name = 
  13 active torsions:
  status: ('A' for Active; 'I' for Inactive)
    1  A    between atoms: C_2  and  C_46
    2  A    between atoms: N_4  and  C_34
    3  A    between atoms: C_5  and  C_24
    4  A    between atoms: C_6  and  C_20
    5  A    between atoms: C_7  and  C_39
    6  A    between atoms: C_7  and  C_43
    7  A    between atoms: C_11  and  C_14
    8  A    between atoms: C_11  and  C_32
    9  A    between atoms: C_14  and  C_29
   10  A    between atoms: C_24  and  C_41
   11  A    between atoms: C_25  and  O_44
   12  A    between atoms: O_27  and  C_30
   13  A    between atoms: C_41  and  C_43
                            x       y       z     vdW  Elec       q    Type
                         _______ _______ _______ _____ _____    ______ ____

>  <TORSDO>
F 13

$$$$
=
 OpenBabel11042421543D

 47 53  0  0  1  0  0  0  0  0999 V2000
  161.4970  208.7530  152.6320 S   0  0  0  0  0  0  0  0  0  0  0  0
  160.5970  207.5980  154.6610 C   0  0  0  0  0  0  0  0  0  0  0  0
  158.9700  213.4840  153.9190 C   0  0  0  0  0  2  0  0  0  0  0  0
  160.6220  208.8580  154.0660 C   0  0  0  0  0  0  0  0  0  0  0  0
  159.4000  212.3800  154.8460 C   0  0  1  0  0  3  0  0  0  0  0  0
  159.9070  207.3340  155.9750 C   0  0  0  0  0  2  0  0  0  0  0  0
  159.6220  208.6260  156.7580 C   0  0  0  0  0  2  0  0  0  0  0  0
  159.1020  209.7000  155.8090 C   0  0  1  0  0  3  0  0  0  0  0  0
  158.5440  212.0700  156.0430 C   0  0  0  0  0  0  0  0  0  0  0  0
  161.2200  206.5980  153.9060 C   0  0  0  0  0  3  0  0  0  0  0  0
  159.7420  213.1800  152.6290 C   0  0  1  0  0  3  0  0  0  0  0  0
  160.3320  211.7750  152.7920 C   0  0  0  0  0  2  0  0  0  0  0  0
  161.7600  207.0940  152.7230 C   0  0  0  0  0  0  0  0  0  0  0  0
  158.5130  210.8500  156.5140 N   0  0  0  0  0  0  0  0  0  0  0  0
  160.1880  210.0990  154.7930 C   0  0  2  0  0  3  0  0  0  0  0  0
  159.5550  211.1910  153.9460 C   0  0  1  0  0  3  0  0  0  0  0  0
  158.8290  213.1970  151.4960 N   0  0  0  0  0  2  0  0  0  0  0  0
  160.5140  213.1620  149.8770 O   0  0  0  0  0  0  0  0  0  0  0  0
  159.2840  213.2180  150.1420 C   0  0  0  0  0  0  0  0  0  0  0  0
  158.2970  213.3530  149.0390 C   0  0  0  0  0  2  0  0  0  0  0  0
  158.7420  214.4530  148.0910 C   0  0  0  0  0  2  0  0  0  0  0  0
  160.2550  213.6670  146.1300 C   0  0  0  0  0  0  0  0  0  0  0  0
  159.1600  212.2150  144.4460 C   0  0  0  0  0  2  0  0  0  0  0  0
  157.9330  213.1210  144.5810 C   0  0  0  0  0  2  0  0  0  0  0  0
  158.9040  213.9170  146.7070 C   0  0  0  0  0  0  0  0  0  0  0  0
  157.8090  213.6190  145.9940 C   0  0  0  0  0  3  0  0  0  0  0  0
  160.3680  212.8740  145.0520 C   0  0  0  0  0  3  0  0  0  0  0  0
  162.2680  213.1180  147.5060 C   0  0  0  0  0  2  0  0  0  0  0  0
  161.4940  214.2150  146.7860 C   0  0  0  0  0  3  0  0  0  0  0  0
  162.7330  213.6040  146.1550 C   0  0  0  0  0  2  0  0  0  0  0  0
  156.5450  213.4570  156.4460 C   0  0  0  0  0  1  0  0  0  0  0  0
  157.8940  213.1090  156.7130 O   0  0  0  0  0  0  0  0  0  0  0  0
  162.5570  206.3110  151.7320 C   0  0  0  0  0  2  0  0  0  0  0  0
  162.6520  207.0280  150.3900 C   0  0  0  0  0  2  0  0  0  0  0  0
  161.2760  207.2450  149.7810 C   0  0  0  0  0  2  0  0  0  0  0  0
  160.4530  205.9690  149.8580 C   0  0  0  0  0  2  0  0  0  0  0  0
  160.8950  205.0060  148.7980 C   0  0  0  0  0  0  0  0  0  0  0  0
  161.2350  205.5200  147.5300 C   0  0  0  0  0  0  0  0  0  0  0  0
  161.1840  206.8970  147.3220 O   0  0  0  0  0  1  0  0  0  0  0  0
  161.6220  204.6460  146.4880 C   0  0  0  0  0  0  0  0  0  0  0  0
  161.3150  202.7610  147.9800 C   0  0  0  0  0  3  0  0  0  0  0  0
  161.6510  203.2730  146.7310 C   0  0  0  0  0  3  0  0  0  0  0  0
  160.9410  203.6050  149.0260 C   0  0  0  0  0  0  0  0  0  0  0  0
  160.6260  202.9380  150.3060 C   0  0  0  0  0  3  0  0  0  0  0  0
  161.3640  203.0020  151.4070 C   0  0  0  0  0  2  0  0  0  0  0  0
  161.0800  205.2370  144.1170 C   0  0  0  0  0  1  0  0  0  0  0  0
  161.9800  205.0750  145.2010 O   0  0  0  0  0  0  0  0  0  0  0  0
  1 13  1  0  0  0  0
  1  4  1  0  0  0  0
  2  6  1  0  0  0  0
  4  2  2  0  0  0  0
  5  3  1  6  0  0  0
  5  9  1  0  0  0  0
  6  7  1  0  0  0  0
  8 14  1  0  0  0  0
  8  7  1  1  0  0  0
  9 14  2  0  0  0  0
  9 32  1  0  0  0  0
 10  2  1  0  0  0  0
 11 17  1  6  0  0  0
 11 12  1  0  0  0  0
 11  3  1  0  0  0  0
 13 10  2  0  0  0  0
 15  4  1  6  0  0  0
 15  8  1  0  0  0  0
 16 12  1  6  0  0  0
 16 15  1  0  0  0  0
 16  5  1  0  0  0  0
 18 19  2  0  0  0  0
 19 17  1  0  0  0  0
 20 19  1  0  0  0  0
 21 20  1  0  0  0  0
 22 25  1  0  0  0  0
 22 29  1  0  0  0  0
 23 24  1  0  0  0  0
 23 27  1  0  0  0  0
 24 26  1  0  0  0  0
 25 21  1  0  0  0  0
 26 25  2  0  0  0  0
 27 22  2  0  0  0  0
 29 28  1  0  0  0  0
 30 29  1  0  0  0  0
 30 28  1  0  0  0  0
 31 32  1  0  0  0  0
 33 13  1  0  0  0  0
 34 33  1  0  0  0  0
 35 36  1  0  0  0  0
 35 34  1  0  0  0  0
 37 43  1  0  0  0  0
 37 36  1  0  0  0  0
 38 37  2  0  0  0  0
 39 38  1  0  0  0  0
 40 42  2  0  0  0  0
 40 38  1  0  0  0  0
 41 43  2  0  0  0  0
 42 41  1  0  0  0  0
 43 44  1  0  0  0  0
 44 45  2  0  0  0  0
 46 47  1  0  0  0  0
 47 40  1  0  0  0  0
M  END
>  <MODEL>
2

>  <REMARK>
 VINA RESULT:      -7.8      2.923      8.577
  Name = 
  13 active torsions:
  status: ('A' for Active; 'I' for Inactive)
    1  A    between atoms: C_2  and  C_46
    2  A    between atoms: N_4  and  C_34
    3  A    between atoms: C_5  and  C_24
    4  A    between atoms: C_6  and  C_20
    5  A    between atoms: C_7  and  C_39
    6  A    between atoms: C_7  and  C_43
    7  A    between atoms: C_11  and  C_14
    8  A    between atoms: C_11  and  C_32
    9  A    between atoms: C_14  and  C_29
   10  A    between atoms: C_24  and  C_41
   11  A    between atoms: C_25  and  O_44
   12  A    between atoms: O_27  and  C_30
   13  A    between atoms: C_41  and  C_43
                            x       y       z     vdW  Elec       q    Type
                         _______ _______ _______ _____ _____    ______ ____

>  <TORSDO>
F 13

$$$$
=
 OpenBabel11042421543D

 47 53  0  0  1  0  0  0  0  0999 V2000
  162.1650  209.2760  150.1610 S   0  0  0  0  0  0  0  0  0  0  0  0
  161.5250  207.9350  148.1490 C   0  0  0  0  0  0  0  0  0  0  0  0
  161.2100  205.0490  153.5710 C   0  0  0  0  0  2  0  0  0  0  0  0
  161.7060  207.7890  149.5220 C   0  0  0  0  0  0  0  0  0  0  0  0
  161.5730  204.9990  152.1120 C   0  0  1  0  0  3  0  0  0  0  0  0
  161.1240  206.7890  147.2560 C   0  0  0  0  0  2  0  0  0  0  0  0
  161.3470  205.4200  147.9210 C   0  0  0  0  0  2  0  0  0  0  0  0
  160.8860  205.4730  149.3730 C   0  0  1  0  0  3  0  0  0  0  0  0
  160.9760  203.9160  151.2580 C   0  0  0  0  0  0  0  0  0  0  0  0
  161.6960  209.2450  147.6860 C   0  0  0  0  0  3  0  0  0  0  0  0
  161.5600  206.4870  153.9730 C   0  0  1  0  0  3  0  0  0  0  0  0
  161.8210  207.2540  152.6720 C   0  0  0  0  0  2  0  0  0  0  0  0
  162.0420  210.1200  148.7110 C   0  0  0  0  0  0  0  0  0  0  0  0
  160.7700  204.1390  149.9860 N   0  0  0  0  0  0  0  0  0  0  0  0
  161.7630  206.4430  150.1870 C   0  0  2  0  0  3  0  0  0  0  0  0
  161.2250  206.3660  151.6070 C   0  0  1  0  0  3  0  0  0  0  0  0
  160.4350  207.0870  154.6740 N   0  0  0  0  0  2  0  0  0  0  0  0
  161.5460  209.0830  155.1680 O   0  0  0  0  0  0  0  0  0  0  0  0
  160.5050  208.3810  155.2760 C   0  0  0  0  0  0  0  0  0  0  0  0
  159.3570  208.8810  156.0770 C   0  0  0  0  0  2  0  0  0  0  0  0
  159.6080  210.3240  156.4790 C   0  0  0  0  0  2  0  0  0  0  0  0
  158.6220  211.8310  154.6060 C   0  0  0  0  0  0  0  0  0  0  0  0
  156.1750  212.2120  154.7160 C   0  0  0  0  0  2  0  0  0  0  0  0
  156.3420  212.3290  156.2340 C   0  0  0  0  0  2  0  0  0  0  0  0
  158.5250  211.2080  155.9570 C   0  0  0  0  0  0  0  0  0  0  0  0
  157.4320  211.4080  156.7060 C   0  0  0  0  0  3  0  0  0  0  0  0
  157.5100  212.3170  154.0310 C   0  0  0  0  0  3  0  0  0  0  0  0
  159.8640  210.9070  152.6440 C   0  0  0  0  0  2  0  0  0  0  0  0
  159.9200  211.8410  153.8450 C   0  0  0  0  0  3  0  0  0  0  0  0
  159.7030  212.3950  152.4480 C   0  0  0  0  0  2  0  0  0  0  0  0
  160.7180  201.4770  150.9970 C   0  0  0  0  0  1  0  0  0  0  0  0
  160.7700  202.6450  151.8010 O   0  0  0  0  0  0  0  0  0  0  0  0
  162.3730  211.5680  148.5470 C   0  0  0  0  0  2  0  0  0  0  0  0
  161.4370  212.4570  149.3570 C   0  0  0  0  0  2  0  0  0  0  0  0
  161.0540  213.7070  148.5820 C   0  0  0  0  0  2  0  0  0  0  0  0
  159.6240  214.1130  148.9010 C   0  0  0  0  0  2  0  0  0  0  0  0
  158.7900  214.0810  147.6570 C   0  0  0  0  0  0  0  0  0  0  0  0
  159.4350  214.2660  146.4170 C   0  0  0  0  0  0  0  0  0  0  0  0
  160.8170  214.4340  146.3920 O   0  0  0  0  0  1  0  0  0  0  0  0
  158.6830  214.2800  145.2190 C   0  0  0  0  0  0  0  0  0  0  0  0
  156.6590  213.9380  146.5060 C   0  0  0  0  0  3  0  0  0  0  0  0
  157.2990  214.1200  145.2850 C   0  0  0  0  0  3  0  0  0  0  0  0
  157.3810  213.9090  147.7000 C   0  0  0  0  0  0  0  0  0  0  0  0
  156.5840  213.6930  148.9250 C   0  0  0  0  0  3  0  0  0  0  0  0
  157.0590  213.7260  150.1640 C   0  0  0  0  0  2  0  0  0  0  0  0
  158.8490  213.7520  142.7780 C   0  0  0  0  0  1  0  0  0  0  0  0
  159.2460  214.4530  143.9460 O   0  0  0  0  0  0  0  0  0  0  0  0
  2  4  2  0  0  0  0
  3 11  1  0  0  0  0
  4  1  1  0  0  0  0
  5  3  1  1  0  0  0
  6  7  1  0  0  0  0
  6  2  1  0  0  0  0
  8  7  1  6  0  0  0
  8 14  1  0  0  0  0
  8 15  1  0  0  0  0
  9 32  1  0  0  0  0
  9  5  1  0  0  0  0
 10  2  1  0  0  0  0
 10 13  2  0  0  0  0
 11 17  1  6  0  0  0
 12 11  1  0  0  0  0
 13  1  1  0  0  0  0
 14  9  2  0  0  0  0
 15  4  1  6  0  0  0
 15 16  1  0  0  0  0
 16  5  1  0  0  0  0
 16 12  1  1  0  0  0
 17 19  1  0  0  0  0
 18 19  2  0  0  0  0
 19 20  1  0  0  0  0
 20 21  1  0  0  0  0
 22 25  1  0  0  0  0
 23 24  1  0  0  0  0
 24 26  1  0  0  0  0
 25 21  1  0  0  0  0
 25 26  2  0  0  0  0
 27 22  2  0  0  0  0
 27 23  1  0  0  0  0
 28 29  1  0  0  0  0
 29 22  1  0  0  0  0
 30 28  1  0  0  0  0
 30 29  1  0  0  0  0
 31 32  1  0  0  0  0
 33 13  1  0  0  0  0
 33 34  1  0  0  0  0
 35 36  1  0  0  0  0
 35 34  1  0  0  0  0
 37 43  1  0  0  0  0
 37 36  1  0  0  0  0
 38 37  2  0  0  0  0
 39 38  1  0  0  0  0
 40 42  2  0  0  0  0
 40 38  1  0  0  0  0
 41 43  2  0  0  0  0
 42 41  1  0  0  0  0
 43 44  1  0  0  0  0
 44 45  2  0  0  0  0
 46 47  1  0  0  0  0
 47 40  1  0  0  0  0
M  END
>  <MODEL>
3

>  <REMARK>
 VINA RESULT:      -6.5      1.630      2.245
  Name = 
  13 active torsions:
  status: ('A' for Active; 'I' for Inactive)
    1  A    between atoms: C_2  and  C_46
    2  A    between atoms: N_4  and  C_34
    3  A    between atoms: C_5  and  C_24
    4  A    between atoms: C_6  and  C_20
    5  A    between atoms: C_7  and  C_39
    6  A    between atoms: C_7  and  C_43
    7  A    between atoms: C_11  and  C_14
    8  A    between atoms: C_11  and  C_32
    9  A    between atoms: C_14  and  C_29
   10  A    between atoms: C_24  and  C_41
   11  A    between atoms: C_25  and  O_44
   12  A    between atoms: O_27  and  C_30
   13  A    between atoms: C_41  and  C_43
                            x       y       z     vdW  Elec       q    Type
                         _______ _______ _______ _____ _____    ______ ____

>  <TORSDO>
F 13

$$$$
=
 OpenBabel11042421543D

 47 53  0  0  1  0  0  0  0  0999 V2000
  161.9430  207.3870  152.2250 S   0  0  0  0  0  0  0  0  0  0  0  0
  160.4740  207.0940  154.2280 C   0  0  0  0  0  0  0  0  0  0  0  0
  160.5050  212.6800  151.6550 C   0  0  0  0  0  2  0  0  0  0  0  0
  160.9070  208.0860  153.3510 C   0  0  0  0  0  0  0  0  0  0  0  0
  160.4930  211.8460  152.9060 C   0  0  1  0  0  3  0  0  0  0  0  0
  159.5410  207.3770  155.3780 C   0  0  0  0  0  2  0  0  0  0  0  0
  159.4670  208.8740  155.7190 C   0  0  0  0  0  2  0  0  0  0  0  0
  159.3870  209.6910  154.4340 C   0  0  1  0  0  3  0  0  0  0  0  0
  159.4080  212.0830  153.9200 C   0  0  0  0  0  0  0  0  0  0  0  0
  160.9390  205.8120  153.9150 C   0  0  0  0  0  3  0  0  0  0  0  0
  161.3710  211.8590  150.6920 C   0  0  1  0  0  3  0  0  0  0  0  0
  161.5580  210.4810  151.3380 C   0  0  0  0  0  2  0  0  0  0  0  0
  161.7660  205.8140  152.7950 C   0  0  0  0  0  0  0  0  0  0  0  0
  159.0000  211.0920  154.6700 N   0  0  0  0  0  0  0  0  0  0  0  0
  160.6860  209.5470  153.6190 C   0  0  2  0  0  3  0  0  0  0  0  0
  160.4870  210.4350  152.4000 C   0  0  1  0  0  3  0  0  0  0  0  0
  160.6820  211.7100  149.4190 N   0  0  0  0  0  2  0  0  0  0  0  0
  162.5300  212.3030  148.1170 O   0  0  0  0  0  0  0  0  0  0  0  0
  161.3140  211.9780  148.1660 C   0  0  0  0  0  0  0  0  0  0  0  0
  160.5160  211.9180  146.9140 C   0  0  0  0  0  2  0  0  0  0  0  0
  160.5160  213.2820  146.2450 C   0  0  0  0  0  2  0  0  0  0  0  0
  158.5780  214.0670  144.7020 C   0  0  0  0  0  0  0  0  0  0  0  0
  156.3070  213.9470  145.6890 C   0  0  0  0  0  2  0  0  0  0  0  0
  156.9350  214.4490  146.9930 C   0  0  0  0  0  2  0  0  0  0  0  0
  159.1190  213.7740  146.0600 C   0  0  0  0  0  0  0  0  0  0  0  0
  158.3320  213.9120  147.1360 C   0  0  0  0  0  3  0  0  0  0  0  0
  157.2490  214.1640  144.5370 C   0  0  0  0  0  3  0  0  0  0  0  0
  159.4310  212.9030  142.6620 C   0  0  0  0  0  2  0  0  0  0  0  0
  159.4880  214.1680  143.5080 C   0  0  0  0  0  3  0  0  0  0  0  0
  158.6740  214.1350  142.2270 C   0  0  0  0  0  2  0  0  0  0  0  0
  158.4670  213.8130  155.4040 C   0  0  0  0  0  1  0  0  0  0  0  0
  158.9410  213.3810  154.1380 O   0  0  0  0  0  0  0  0  0  0  0  0
  162.4900  204.6300  152.2430 C   0  0  0  0  0  2  0  0  0  0  0  0
  161.5750  203.4180  152.1120 C   0  0  0  0  0  2  0  0  0  0  0  0
  161.4790  202.9510  150.6690 C   0  0  0  0  0  2  0  0  0  0  0  0
  160.5820  203.8800  149.8670 C   0  0  0  0  0  2  0  0  0  0  0  0
  160.8360  203.7040  148.4010 C   0  0  0  0  0  0  0  0  0  0  0  0
  160.6570  202.4210  147.8430 C   0  0  0  0  0  0  0  0  0  0  0  0
  160.2200  201.3830  148.6620 O   0  0  0  0  0  1  0  0  0  0  0  0
  160.9210  202.1990  146.4720 C   0  0  0  0  0  0  0  0  0  0  0  0
  161.5470  204.5270  146.2330 C   0  0  0  0  0  3  0  0  0  0  0  0
  161.3680  203.2610  145.6860 C   0  0  0  0  0  3  0  0  0  0  0  0
  161.2830  204.7730  147.5810 C   0  0  0  0  0  0  0  0  0  0  0  0
  161.4970  206.1630  148.0320 C   0  0  0  0  0  3  0  0  0  0  0  0
  160.6670  206.8550  148.8030 C   0  0  0  0  0  2  0  0  0  0  0  0
  160.0270  200.7400  144.6450 C   0  0  0  0  0  1  0  0  0  0  0  0
  160.7640  200.9570  145.8380 O   0  0  0  0  0  0  0  0  0  0  0  0
  1 13  1  0  0  0  0
  1  4  1  0  0  0  0
  2  6  1  0  0  0  0
  4  2  2  0  0  0  0
  5  3  1  6  0  0  0
  5  9  1  0  0  0  0
  6  7  1  0  0  0  0
  8 14  1  0  0  0  0
  8  7  1  1  0  0  0
  9 32  1  0  0  0  0
  9 14  2  0  0  0  0
 10  2  1  0  0  0  0
 11 17  1  6  0  0  0
 11 12  1  0  0  0  0
 11  3  1  0  0  0  0
 13 10  2  0  0  0  0
 15  4  1  6  0  0  0
 15  8  1  0  0  0  0
 16 12  1  6  0  0  0
 16  5  1  0  0  0  0
 16 15  1  0  0  0  0
 18 19  2  0  0  0  0
 19 17  1  0  0  0  0
 20 19  1  0  0  0  0
 21 20  1  0  0  0  0
 22 25  1  0  0  0  0
 23 24  1  0  0  0  0
 24 26  1  0  0  0  0
 25 21  1  0  0  0  0
 25 26  2  0  0  0  0
 27 22  2  0  0  0  0
 27 23  1  0  0  0  0
 28 29  1  0  0  0  0
 29 22  1  0  0  0  0
 30 28  1  0  0  0  0
 30 29  1  0  0  0  0
 32 31  1  0  0  0  0
 33 13  1  0  0  0  0
 34 33  1  0  0  0  0
 35 34  1  0  0  0  0
 36 35  1  0  0  0  0
 37 36  1  0  0  0  0
 38 37  1  0  0  0  0
 38 39  1  0  0  0  0
 40 38  2  0  0  0  0
 41 43  1  0  0  0  0
 42 41  2  0  0  0  0
 42 40  1  0  0  0  0
 43 44  1  0  0  0  0
 43 37  2  0  0  0  0
 44 45  2  0  0  0  0
 46 47  1  0  0  0  0
 47 40  1  0  0  0  0
M  END
>  <MODEL>
4

>  <REMARK>
 VINA RESULT:      -6.0      2.655      9.045
  Name = 
  13 active torsions:
  status: ('A' for Active; 'I' for Inactive)
    1  A    between atoms: C_2  and  C_46
    2  A    between atoms: N_4  and  C_34
    3  A    between atoms: C_5  and  C_24
    4  A    between atoms: C_6  and  C_20
    5  A    between atoms: C_7  and  C_39
    6  A    between atoms: C_7  and  C_43
    7  A    between atoms: C_11  and  C_14
    8  A    between atoms: C_11  and  C_32
    9  A    between atoms: C_14  and  C_29
   10  A    between atoms: C_24  and  C_41
   11  A    between atoms: C_25  and  O_44
   12  A    between atoms: O_27  and  C_30
   13  A    between atoms: C_41  and  C_43
                            x       y       z     vdW  Elec       q    Type
                         _______ _______ _______ _____ _____    ______ ____

>  <TORSDO>
F 13

$$$$
=
 OpenBabel11042421543D

 47 53  0  0  1  0  0  0  0  0999 V2000
  162.1080  206.2040  145.6790 S   0  0  0  0  0  0  0  0  0  0  0  0
  161.1900  204.0970  146.6660 C   0  0  0  0  0  0  0  0  0  0  0  0
  161.9900  208.8070  150.5400 C   0  0  0  0  0  2  0  0  0  0  0  0
  161.6190  205.3650  147.0530 C   0  0  0  0  0  0  0  0  0  0  0  0
  162.0900  207.3290  150.2820 C   0  0  1  0  0  3  0  0  0  0  0  0
  160.6950  203.0710  147.6530 C   0  0  0  0  0  2  0  0  0  0  0  0
  161.1020  203.4020  149.0980 C   0  0  0  0  0  2  0  0  0  0  0  0
  160.9040  204.8910  149.3600 C   0  0  1  0  0  3  0  0  0  0  0  0
  161.4070  206.3840  151.2310 C   0  0  0  0  0  0  0  0  0  0  0  0
  161.2090  203.8850  145.2830 C   0  0  0  0  0  3  0  0  0  0  0  0
  162.3310  209.4260  149.1790 C   0  0  1  0  0  3  0  0  0  0  0  0
  162.3190  208.2800  148.1610 C   0  0  0  0  0  2  0  0  0  0  0  0
  161.6860  204.9940  144.5900 C   0  0  0  0  0  0  0  0  0  0  0  0
  160.9670  205.2340  150.7900 N   0  0  0  0  0  0  0  0  0  0  0  0
  161.8610  205.7270  148.4900 C   0  0  2  0  0  3  0  0  0  0  0  0
  161.5880  207.1710  148.8790 C   0  0  1  0  0  3  0  0  0  0  0  0
  161.3200  210.4080  148.8190 N   0  0  0  0  0  2  0  0  0  0  0  0
  162.8470  211.9940  148.0350 O   0  0  0  0  0  0  0  0  0  0  0  0
  161.6490  211.6880  148.2780 C   0  0  0  0  0  0  0  0  0  0  0  0
  160.5710  212.6850  148.0440 C   0  0  0  0  0  2  0  0  0  0  0  0
  160.4700  213.6150  149.2400 C   0  0  0  0  0  2  0  0  0  0  0  0
  158.9150  213.2200  151.2850 C   0  0  0  0  0  0  0  0  0  0  0  0
  156.6360  214.1750  151.0970 C   0  0  0  0  0  2  0  0  0  0  0  0
  156.6520  213.7180  149.6350 C   0  0  0  0  0  2  0  0  0  0  0  0
  159.1060  213.5450  149.8430 C   0  0  0  0  0  0  0  0  0  0  0  0
  158.0420  213.8230  149.0750 C   0  0  0  0  0  3  0  0  0  0  0  0
  157.7400  213.5060  151.8680 C   0  0  0  0  0  3  0  0  0  0  0  0
  159.5500  212.2030  153.4770 C   0  0  0  0  0  2  0  0  0  0  0  0
  160.0420  212.6620  152.1110 C   0  0  0  0  0  3  0  0  0  0  0  0
  159.8060  211.1880  152.3900 C   0  0  0  0  0  2  0  0  0  0  0  0
  161.2070  205.6880  153.5890 C   0  0  0  0  0  1  0  0  0  0  0  0
  161.3650  206.6870  152.5940 O   0  0  0  0  0  0  0  0  0  0  0  0
  161.9090  205.0710  143.1150 C   0  0  0  0  0  2  0  0  0  0  0  0
  161.6060  206.4620  142.5700 C   0  0  0  0  0  2  0  0  0  0  0  0
  161.9550  206.5650  141.0940 C   0  0  0  0  0  2  0  0  0  0  0  0
  162.4820  207.9530  140.7690 C   0  0  0  0  0  2  0  0  0  0  0  0
  161.7110  208.5420  139.6260 C   0  0  0  0  0  0  0  0  0  0  0  0
  161.0710  209.7830  139.8230 C   0  0  0  0  0  0  0  0  0  0  0  0
  161.2080  210.4270  141.0500 O   0  0  0  0  0  1  0  0  0  0  0  0
  160.3020  210.3590  138.7860 C   0  0  0  0  0  0  0  0  0  0  0  0
  160.8080  208.4540  137.3760 C   0  0  0  0  0  3  0  0  0  0  0  0
  160.1790  209.6790  137.5750 C   0  0  0  0  0  3  0  0  0  0  0  0
  161.5810  207.8720  138.3810 C   0  0  0  0  0  0  0  0  0  0  0  0
  162.2090  206.5790  138.0390 C   0  0  0  0  0  3  0  0  0  0  0  0
  163.0260  206.3710  137.0140 C   0  0  0  0  0  2  0  0  0  0  0  0
  160.2130  212.8540  138.6100 C   0  0  0  0  0  1  0  0  0  0  0  0
  159.6380  211.5900  138.8980 O   0  0  0  0  0  0  0  0  0  0  0  0
  1  4  1  0  0  0  0
  2  4  2  0  0  0  0
  2  6  1  0  0  0  0
  5  3  1  1  0  0  0
  5  9  1  0  0  0  0
  6  7  1  0  0  0  0
  8  7  1  1  0  0  0
  8 14  1  0  0  0  0
  9 32  1  0  0  0  0
 10  2  1  0  0  0  0
 11 17  1  6  0  0  0
 11  3  1  0  0  0  0
 12 11  1  0  0  0  0
 13 10  2  0  0  0  0
 13  1  1  0  0  0  0
 14  9  2  0  0  0  0
 15  4  1  6  0  0  0
 15 16  1  0  0  0  0
 15  8  1  0  0  0  0
 16 12  1  6  0  0  0
 16  5  1  0  0  0  0
 18 19  2  0  0  0  0
 19 17  1  0  0  0  0
 20 19  1  0  0  0  0
 20 21  1  0  0  0  0
 21 25  1  0  0  0  0
 22 27  2  0  0  0  0
 22 29  1  0  0  0  0
 23 27  1  0  0  0  0
 24 23  1  0  0  0  0
 25 22  1  0  0  0  0
 26 24  1  0  0  0  0
 26 25  2  0  0  0  0
 29 30  1  0  0  0  0
 29 28  1  0  0  0  0
 30 28  1  0  0  0  0
 32 31  1  0  0  0  0
 33 13  1  0  0  0  0
 34 33  1  0  0  0  0
 35 34  1  0  0  0  0
 36 35  1  0  0  0  0
 37 38  1  0  0  0  0
 37 36  1  0  0  0  0
 38 39  1  0  0  0  0
 40 47  1  0  0  0  0
 40 38  2  0  0  0  0
 41 42  2  0  0  0  0
 41 43  1  0  0  0  0
 42 40  1  0  0  0  0
 43 37  2  0  0  0  0
 44 43  1  0  0  0  0
 45 44  2  0  0  0  0
 46 47  1  0  0  0  0
M  END
>  <MODEL>
5

>  <REMARK>
 VINA RESULT:      -5.3      3.090      5.977
  Name = 
  13 active torsions:
  status: ('A' for Active; 'I' for Inactive)
    1  A    between atoms: C_2  and  C_46
    2  A    between atoms: N_4  and  C_34
    3  A    between atoms: C_5  and  C_24
    4  A    between atoms: C_6  and  C_20
    5  A    between atoms: C_7  and  C_39
    6  A    between atoms: C_7  and  C_43
    7  A    between atoms: C_11  and  C_14
    8  A    between atoms: C_11  and  C_32
    9  A    between atoms: C_14  and  C_29
   10  A    between atoms: C_24  and  C_41
   11  A    between atoms: C_25  and  O_44
   12  A    between atoms: O_27  and  C_30
   13  A    between atoms: C_41  and  C_43
                            x       y       z     vdW  Elec       q    Type
                         _______ _______ _______ _____ _____    ______ ____

>  <TORSDO>
F 13

$$$$
=
 OpenBabel11042421543D

 47 53  0  0  1  0  0  0  0  0999 V2000
  158.3410  212.1560  151.1920 S   0  0  0  0  0  0  0  0  0  0  0  0
  158.8540  213.6060  153.1640 C   0  0  0  0  0  0  0  0  0  0  0  0
  161.2430  207.9380  153.2430 C   0  0  0  0  0  2  0  0  0  0  0  0
  159.0480  212.3030  152.7110 C   0  0  0  0  0  0  0  0  0  0  0  0
  160.5800  209.0600  153.9940 C   0  0  1  0  0  3  0  0  0  0  0  0
  159.3480  214.0810  154.5070 C   0  0  0  0  0  2  0  0  0  0  0  0
  159.6910  212.9170  155.4520 C   0  0  0  0  0  2  0  0  0  0  0  0
  160.4430  211.8360  154.6850 C   0  0  1  0  0  3  0  0  0  0  0  0
  161.2470  209.5910  155.2320 C   0  0  0  0  0  0  0  0  0  0  0  0
  158.2090  214.4400  152.2440 C   0  0  0  0  0  3  0  0  0  0  0  0
  160.5970  208.0150  151.8540 C   0  0  1  0  0  3  0  0  0  0  0  0
  159.8290  209.3400  151.8000 C   0  0  0  0  0  2  0  0  0  0  0  0
  157.8740  213.7670  151.0730 C   0  0  0  0  0  0  0  0  0  0  0  0
  161.0780  210.8440  155.5680 N   0  0  0  0  0  0  0  0  0  0  0  0
  159.5380  211.2040  153.6110 C   0  0  2  0  0  3  0  0  0  0  0  0
  160.3910  210.1270  152.9590 C   0  0  1  0  0  3  0  0  0  0  0  0
  161.6320  208.0090  150.8310 N   0  0  0  0  0  2  0  0  0  0  0  0
  160.2890  207.0300  149.1880 O   0  0  0  0  0  0  0  0  0  0  0  0
  161.4190  207.4730  149.5240 C   0  0  0  0  0  0  0  0  0  0  0  0
  162.5560  207.3930  148.5700 C   0  0  0  0  0  2  0  0  0  0  0  0
  162.9450  205.9410  148.3620 C   0  0  0  0  0  2  0  0  0  0  0  0
  161.6550  204.0600  147.1170 C   0  0  0  0  0  0  0  0  0  0  0  0
  160.4780  204.7560  145.0490 C   0  0  0  0  0  2  0  0  0  0  0  0
  161.7010  205.6270  144.7430 C   0  0  0  0  0  2  0  0  0  0  0  0
  162.3080  205.4000  147.1250 C   0  0  0  0  0  0  0  0  0  0  0  0
  162.2920  206.1560  146.0190 C   0  0  0  0  0  3  0  0  0  0  0  0
  160.8030  203.7560  146.1240 C   0  0  0  0  0  3  0  0  0  0  0  0
  161.1090  203.5120  149.4930 C   0  0  0  0  0  2  0  0  0  0  0  0
  161.8670  203.0840  148.2430 C   0  0  0  0  0  3  0  0  0  0  0  0
  160.5520  202.4200  148.6130 C   0  0  0  0  0  2  0  0  0  0  0  0
  161.2780  207.9810  157.1000 C   0  0  0  0  0  1  0  0  0  0  0  0
  161.9320  208.7140  156.0760 O   0  0  0  0  0  0  0  0  0  0  0  0
  157.1110  214.3420  149.9250 C   0  0  0  0  0  2  0  0  0  0  0  0
  157.3350  213.5490  148.6430 C   0  0  0  0  0  2  0  0  0  0  0  0
  158.7470  213.7390  148.1150 C   0  0  0  0  0  2  0  0  0  0  0  0
  159.1140  212.6140  147.1600 C   0  0  0  0  0  2  0  0  0  0  0  0
  160.1200  213.0950  146.1590 C   0  0  0  0  0  0  0  0  0  0  0  0
  159.6650  213.4440  144.8710 C   0  0  0  0  0  0  0  0  0  0  0  0
  158.3030  213.3640  144.5910 O   0  0  0  0  0  1  0  0  0  0  0  0
  160.5830  213.8680  143.8830 C   0  0  0  0  0  0  0  0  0  0  0  0
  162.3940  213.5820  145.4680 C   0  0  0  0  0  3  0  0  0  0  0  0
  161.9400  213.9260  144.1980 C   0  0  0  0  0  3  0  0  0  0  0  0
  161.5060  213.1710  146.4620 C   0  0  0  0  0  0  0  0  0  0  0  0
  162.1120  212.8500  147.7700 C   0  0  0  0  0  3  0  0  0  0  0  0
  163.3020  212.2900  147.9470 C   0  0  0  0  0  2  0  0  0  0  0  0
  161.0990  214.3180  141.4760 C   0  0  0  0  0  1  0  0  0  0  0  0
  160.2140  214.2370  142.5810 O   0  0  0  0  0  0  0  0  0  0  0  0
  1  4  1  0  0  0  0
  2  6  1  0  0  0  0
  4  2  2  0  0  0  0
  5  3  1  6  0  0  0
  5  9  1  0  0  0  0
  6  7  1  0  0  0  0
  8  7  1  1  0  0  0
  8 14  1  0  0  0  0
  9 14  2  0  0  0  0
  9 32  1  0  0  0  0
 10  2  1  0  0  0  0
 11 17  1  6  0  0  0
 11  3  1  0  0  0  0
 12 11  1  0  0  0  0
 13  1  1  0  0  0  0
 13 10  2  0  0  0  0
 15  4  1  6  0  0  0
 15  8  1  0  0  0  0
 16 12  1  6  0  0  0
 16 15  1  0  0  0  0
 16  5  1  0  0  0  0
 18 19  2  0  0  0  0
 19 17  1  0  0  0  0
 20 19  1  0  0  0  0
 21 20  1  0  0  0  0
 22 25  1  0  0  0  0
 22 29  1  0  0  0  0
 23 27  1  0  0  0  0
 24 23  1  0  0  0  0
 24 26  1  0  0  0  0
 25 21  1  0  0  0  0
 26 25  2  0  0  0  0
 27 22  2  0  0  0  0
 29 30  1  0  0  0  0
 29 28  1  0  0  0  0
 30 28  1  0  0  0  0
 32 31  1  0  0  0  0
 33 13  1  0  0  0  0
 34 33  1  0  0  0  0
 35 34  1  0  0  0  0
 36 35  1  0  0  0  0
 37 43  1  0  0  0  0
 37 36  1  0  0  0  0
 38 37  2  0  0  0  0
 39 38  1  0  0  0  0
 40 42  2  0  0  0  0
 40 38  1  0  0  0  0
 41 43  2  0  0  0  0
 42 41  1  0  0  0  0
 43 44  1  0  0  0  0
 44 45  2  0  0  0  0
 46 47  1  0  0  0  0
 47 40  1  0  0  0  0
M  END
>  <MODEL>
6

>  <REMARK>
 VINA RESULT:      -5.3      2.409      7.384
  Name = 
  13 active torsions:
  status: ('A' for Active; 'I' for Inactive)
    1  A    between atoms: C_2  and  C_46
    2  A    between atoms: N_4  and  C_34
    3  A    between atoms: C_5  and  C_24
    4  A    between atoms: C_6  and  C_20
    5  A    between atoms: C_7  and  C_39
    6  A    between atoms: C_7  and  C_43
    7  A    between atoms: C_11  and  C_14
    8  A    between atoms: C_11  and  C_32
    9  A    between atoms: C_14  and  C_29
   10  A    between atoms: C_24  and  C_41
   11  A    between atoms: C_25  and  O_44
   12  A    between atoms: O_27  and  C_30
   13  A    between atoms: C_41  and  C_43
                            x       y       z     vdW  Elec       q    Type
                         _______ _______ _______ _____ _____    ______ ____

>  <TORSDO>
F 13

$$$$
