=
 OpenBabel11052410523D

 28 33  0  0  1  0  0  0  0  0999 V2000
  161.4080  206.1660  148.9030 C   0  0  0  0  0  0  0  0  0  0  0  0
  161.6210  208.7210  150.5620 N   0  0  0  0  0  0  0  0  0  0  0  0
  161.3400  204.9220  148.2670 C   0  0  0  0  0  3  0  0  0  0  0  0
  161.7350  209.2580  149.2590 C   0  0  0  0  0  0  0  0  0  0  0  0
  161.1700  203.7450  148.9690 C   0  0  0  0  0  0  0  0  0  0  0  0
  161.6970  208.5840  148.1310 C   0  0  0  0  0  3  0  0  0  0  0  0
  161.0930  202.2160  148.1220 Cl  0  0  0  0  0  0  0  0  0  0  0  0
  160.9510  208.1570  154.6470 C   0  0  0  0  0  1  0  0  0  0  0  0
  161.5600  207.1440  148.0080 C   0  0  0  0  0  3  0  0  0  0  0  0
  161.2660  206.2530  150.3390 C   0  0  0  0  0  0  0  0  0  0  0  0
  160.7120  212.4590  147.6380 C   0  0  0  0  0  3  0  0  0  0  0  0
  161.1990  207.4320  151.0410 C   0  0  0  0  0  0  0  0  0  0  0  0
  161.9130  210.7200  149.3980 C   0  0  1  0  0  0  0  0  0  0  0  0
  161.1590  204.9890  151.0360 C   0  0  0  0  0  0  0  0  0  0  0  0
  161.5200  208.2610  153.3130 N   0  0  0  0  0  0  0  0  0  0  0  0
  161.6850  213.1490  146.8240 C   0  0  0  0  0  0  0  0  0  0  0  0
  161.2110  214.0840  145.8620 N   0  0  0  0  0  1  0  0  0  0  0  0
  162.7990  211.4220  148.5800 C   0  0  0  0  0  0  0  0  0  0  0  0
  163.7060  212.0710  147.8150 C   0  0  0  0  0  3  0  0  0  0  0  0
  161.2860  204.7470  152.7810 Cl  0  0  0  0  0  0  0  0  0  0  0  0
  163.0750  212.9410  146.9360 N   0  0  0  0  0  0  0  0  0  0  0  0
  161.5010  209.6830  152.9330 C   0  0  1  0  0  3  0  0  0  0  0  0
  162.5430  210.3960  153.6600 N   0  0  0  0  0  1  0  0  0  0  0  0
  160.6310  207.4960  152.4370 C   0  0  0  0  0  2  0  0  0  0  0  0
  161.3500  211.6140  148.4890 C   0  0  0  0  0  0  0  0  0  0  0  0
  161.8680  211.0240  150.8470 C   0  0  0  0  0  3  0  0  0  0  0  0
  161.7210  209.8430  151.4550 C   0  0  0  0  0  0  0  0  0  0  0  0
  161.1050  203.7810  150.3450 C   0  0  0  0  0  3  0  0  0  0  0  0
  1 10  1  0  0  0  0
  2 12  1  0  0  0  0
  2 27  1  0  0  0  0
  3  1  1  0  0  0  0
  3  5  2  0  0  0  0
  4 13  1  0  0  0  0
  4  2  1  0  0  0  0
  5 28  1  0  0  0  0
  6  4  2  0  0  0  0
  7  5  1  0  0  0  0
  9  6  1  0  0  0  0
  9  1  2  0  0  0  0
 10 14  1  0  0  0  0
 10 12  2  0  0  0  0
 11 25  1  0  0  0  0
 12 24  1  0  0  0  0
 13 26  1  1  0  0  0
 14 20  1  0  0  0  0
 15  8  1  0  0  0  0
 16 21  1  0  0  0  0
 16 11  2  0  0  0  0
 17 16  1  0  0  0  0
 18 13  1  0  0  0  0
 19 18  1  0  0  0  0
 21 19  2  0  0  0  0
 22 15  1  0  0  0  0
 22 23  1  1  0  0  0
 24 15  1  0  0  0  0
 25 18  2  0  0  0  0
 25 13  1  0  0  0  0
 26 27  2  0  0  0  0
 27 22  1  0  0  0  0
 28 14  2  0  0  0  0
M  END
>  <MODEL>
1

>  <REMARK>
 VINA RESULT:      -8.9      0.000      0.000
  Name = 
  0 active torsions:
  status: ('A' for Active; 'I' for Inactive)
                            x       y       z     vdW  Elec       q    Type
                         _______ _______ _______ _____ _____    ______ ____

>  <TORSDO>
F 0

$$$$
=
 OpenBabel11052410523D

 28 33  0  0  1  0  0  0  0  0999 V2000
  161.2450  208.5280  153.1000 C   0  0  0  0  0  0  0  0  0  0  0  0
  161.4720  208.1440  150.0790 N   0  0  0  0  0  0  0  0  0  0  0  0
  161.0810  208.5690  154.4890 C   0  0  0  0  0  3  0  0  0  0  0  0
  161.6230  209.5470  150.1650 C   0  0  0  0  0  0  0  0  0  0  0  0
  160.8940  207.4270  155.2420 C   0  0  0  0  0  0  0  0  0  0  0  0
  161.6180  210.2670  151.2650 C   0  0  0  0  0  3  0  0  0  0  0  0
  160.6940  207.5370  156.9770 Cl  0  0  0  0  0  0  0  0  0  0  0  0
  161.5630  204.1440  148.8760 C   0  0  0  0  0  1  0  0  0  0  0  0
  161.4210  209.7570  152.6110 C   0  0  0  0  0  3  0  0  0  0  0  0
  161.2530  207.2580  152.4100 C   0  0  0  0  0  0  0  0  0  0  0  0
  163.5370  212.1060  148.2390 C   0  0  0  0  0  3  0  0  0  0  0  0
  161.5250  207.1050  151.0720 C   0  0  0  0  0  0  0  0  0  0  0  0
  161.7830  210.0590  148.7870 C   0  0  1  0  0  0  0  0  0  0  0  0
  160.9860  206.0970  153.2310 C   0  0  0  0  0  0  0  0  0  0  0  0
  161.1760  205.4860  149.2800 N   0  0  0  0  0  0  0  0  0  0  0  0
  162.8450  213.3050  147.8290 C   0  0  0  0  0  0  0  0  0  0  0  0
  163.6240  214.4530  147.5130 N   0  0  0  0  0  1  0  0  0  0  0  0
  161.1780  211.2500  148.3830 C   0  0  0  0  0  0  0  0  0  0  0  0
  160.5350  212.3760  147.9980 C   0  0  0  0  0  3  0  0  0  0  0  0
  160.6250  204.4680  152.6490 Cl  0  0  0  0  0  0  0  0  0  0  0  0
  161.4410  213.3930  147.7290 N   0  0  0  0  0  0  0  0  0  0  0  0
  161.5700  206.4060  148.2000 C   0  0  1  0  0  3  0  0  0  0  0  0
  160.6570  206.2560  147.0750 N   0  0  0  0  0  1  0  0  0  0  0  0
  161.9440  205.7770  150.4920 C   0  0  0  0  0  2  0  0  0  0  0  0
  162.6330  211.1260  148.4980 C   0  0  0  0  0  0  0  0  0  0  0  0
  161.7480  208.8860  147.8840 C   0  0  0  0  0  3  0  0  0  0  0  0
  161.5480  207.8300  148.6790 C   0  0  0  0  0  0  0  0  0  0  0  0
  160.8230  206.2040  154.6100 C   0  0  0  0  0  3  0  0  0  0  0  0
  1  3  1  0  0  0  0
  2  4  1  0  0  0  0
  2 12  1  0  0  0  0
  3  5  2  0  0  0  0
  4  6  2  0  0  0  0
  5  7  1  0  0  0  0
  6  9  1  0  0  0  0
  8 15  1  0  0  0  0
  9  1  2  0  0  0  0
 10  1  1  0  0  0  0
 10 14  1  0  0  0  0
 11 25  1  0  0  0  0
 12 10  2  0  0  0  0
 13 26  1  6  0  0  0
 13  4  1  0  0  0  0
 14 28  2  0  0  0  0
 15 24  1  0  0  0  0
 16 11  2  0  0  0  0
 17 16  1  0  0  0  0
 18 25  2  0  0  0  0
 18 13  1  0  0  0  0
 19 18  1  0  0  0  0
 20 14  1  0  0  0  0
 21 16  1  0  0  0  0
 21 19  2  0  0  0  0
 22 23  1  6  0  0  0
 22 27  1  0  0  0  0
 22 15  1  0  0  0  0
 24 12  1  0  0  0  0
 25 13  1  0  0  0  0
 26 27  2  0  0  0  0
 27  2  1  0  0  0  0
 28  5  1  0  0  0  0
M  END
>  <MODEL>
2

>  <REMARK>
 VINA RESULT:      -6.5      1.713      4.460
  Name = 
  0 active torsions:
  status: ('A' for Active; 'I' for Inactive)
                            x       y       z     vdW  Elec       q    Type
                         _______ _______ _______ _____ _____    ______ ____

>  <TORSDO>
F 0

$$$$
=
 OpenBabel11052410523D

 28 33  0  0  1  0  0  0  0  0999 V2000
  161.3580  206.2400  146.8270 C   0  0  0  0  0  0  0  0  0  0  0  0
  161.2500  205.4200  149.7660 N   0  0  0  0  0  0  0  0  0  0  0  0
  161.4460  206.4780  145.4510 C   0  0  0  0  0  3  0  0  0  0  0  0
  161.2960  206.8260  149.9010 C   0  0  0  0  0  0  0  0  0  0  0  0
  161.4250  205.4540  144.5250 C   0  0  0  0  0  0  0  0  0  0  0  0
  161.3420  207.7030  148.9230 C   0  0  0  0  0  3  0  0  0  0  0  0
  161.5400  205.8080  142.8160 Cl  0  0  0  0  0  0  0  0  0  0  0  0
  160.6540  201.3280  150.3690 C   0  0  0  0  0  1  0  0  0  0  0  0
  161.3870  207.3900  147.5050 C   0  0  0  0  0  3  0  0  0  0  0  0
  161.2060  204.8900  147.3200 C   0  0  0  0  0  0  0  0  0  0  0  0
  159.8810  209.2820  152.3280 C   0  0  0  0  0  3  0  0  0  0  0  0
  160.9920  204.5660  148.6380 C   0  0  0  0  0  0  0  0  0  0  0  0
  161.2900  207.1320  151.3490 C   0  0  1  0  0  0  0  0  0  0  0  0
  161.2570  203.8480  146.3180 C   0  0  0  0  0  0  0  0  0  0  0  0
  161.2060  202.6540  150.1380 N   0  0  0  0  0  0  0  0  0  0  0  0
  160.7600  210.2980  152.8560 C   0  0  0  0  0  0  0  0  0  0  0  0
  160.1730  211.4760  153.3980 N   0  0  0  0  0  1  0  0  0  0  0  0
  162.0810  208.1530  151.8750 C   0  0  0  0  0  0  0  0  0  0  0  0
  162.9000  209.1080  152.3710 C   0  0  0  0  0  3  0  0  0  0  0  0
  161.4130  202.1140  146.6230 Cl  0  0  0  0  0  0  0  0  0  0  0  0
  162.1660  210.1820  152.8580 N   0  0  0  0  0  0  0  0  0  0  0  0
  161.0100  203.4360  151.3690 C   0  0  1  0  0  3  0  0  0  0  0  0
  161.9540  202.9910  152.3860 N   0  0  0  0  0  1  0  0  0  0  0  0
  160.4200  203.2310  149.0460 C   0  0  0  0  0  2  0  0  0  0  0  0
  160.6190  208.2430  151.8580 C   0  0  0  0  0  0  0  0  0  0  0  0
  161.2070  205.8370  152.0620 C   0  0  0  0  0  3  0  0  0  0  0  0
  161.2080  204.9020  151.1070 C   0  0  0  0  0  0  0  0  0  0  0  0
  161.3550  204.1480  144.9620 C   0  0  0  0  0  3  0  0  0  0  0  0
  1 10  1  0  0  0  0
  1  9  2  0  0  0  0
  2  4  1  0  0  0  0
  2 27  1  0  0  0  0
  3  1  1  0  0  0  0
  4 13  1  0  0  0  0
  5 28  1  0  0  0  0
  5  3  2  0  0  0  0
  6  4  2  0  0  0  0
  7  5  1  0  0  0  0
  9  6  1  0  0  0  0
 10 12  2  0  0  0  0
 11 16  1  0  0  0  0
 12 24  1  0  0  0  0
 12  2  1  0  0  0  0
 13 25  1  0  0  0  0
 13 18  1  0  0  0  0
 13 26  1  1  0  0  0
 14 20  1  0  0  0  0
 14 10  1  0  0  0  0
 15  8  1  0  0  0  0
 15 22  1  0  0  0  0
 16 21  2  0  0  0  0
 16 17  1  0  0  0  0
 18 19  2  0  0  0  0
 19 21  1  0  0  0  0
 22 23  1  1  0  0  0
 24 15  1  0  0  0  0
 25 18  1  0  0  0  0
 25 11  2  0  0  0  0
 27 22  1  0  0  0  0
 27 26  2  0  0  0  0
 28 14  2  0  0  0  0
M  END
>  <MODEL>
3

>  <REMARK>
 VINA RESULT:      -6.0      3.386      5.307
  Name = 
  0 active torsions:
  status: ('A' for Active; 'I' for Inactive)
                            x       y       z     vdW  Elec       q    Type
                         _______ _______ _______ _____ _____    ______ ____

>  <TORSDO>
F 0

$$$$
=
 OpenBabel11052410523D

 28 33  0  0  1  0  0  0  0  0999 V2000
  160.9680  208.2750  152.2930 C   0  0  0  0  0  0  0  0  0  0  0  0
  160.5150  211.1760  151.4570 N   0  0  0  0  0  0  0  0  0  0  0  0
  161.2050  206.9180  152.5350 C   0  0  0  0  0  3  0  0  0  0  0  0
  159.8720  211.1760  152.7160 C   0  0  0  0  0  0  0  0  0  0  0  0
  161.9090  206.1250  151.6500 C   0  0  0  0  0  0  0  0  0  0  0  0
  159.7720  210.1570  153.5410 C   0  0  0  0  0  3  0  0  0  0  0  0
  162.1770  204.4320  152.0020 Cl  0  0  0  0  0  0  0  0  0  0  0  0
  162.4880  212.2600  147.9370 C   0  0  0  0  0  1  0  0  0  0  0  0
  160.2810  208.8180  153.3000 C   0  0  0  0  0  3  0  0  0  0  0  0
  161.4930  208.9000  151.1000 C   0  0  0  0  0  0  0  0  0  0  0  0
  159.3940  213.6980  155.4240 C   0  0  0  0  0  3  0  0  0  0  0  0
  161.4150  210.2460  150.8330 C   0  0  0  0  0  0  0  0  0  0  0  0
  159.3240  212.5330  152.9340 C   0  0  1  0  0  0  0  0  0  0  0  0
  162.1630  208.0150  150.1720 C   0  0  0  0  0  0  0  0  0  0  0  0
  161.5480  211.7710  148.9340 N   0  0  0  0  0  0  0  0  0  0  0  0
  158.0680  213.8630  155.9720 C   0  0  0  0  0  0  0  0  0  0  0  0
  157.9450  214.4530  157.2610 N   0  0  0  0  0  1  0  0  0  0  0  0
  158.0730  212.7220  153.5210 C   0  0  0  0  0  0  0  0  0  0  0  0
  156.8340  212.8790  154.0390 C   0  0  0  0  0  3  0  0  0  0  0  0
  162.6300  208.4040  148.5130 Cl  0  0  0  0  0  0  0  0  0  0  0  0
  156.8960  213.4670  155.2950 N   0  0  0  0  0  0  0  0  0  0  0  0
  161.0390  212.9380  149.6720 C   0  0  1  0  0  3  0  0  0  0  0  0
  160.0950  213.6700  148.8380 N   0  0  0  0  0  1  0  0  0  0  0  0
  162.3240  210.9100  149.8280 C   0  0  0  0  0  2  0  0  0  0  0  0
  159.3090  213.1210  154.1980 C   0  0  0  0  0  0  0  0  0  0  0  0
  159.7010  213.3440  151.7530 C   0  0  0  0  0  3  0  0  0  0  0  0
  160.3580  212.5090  150.9420 C   0  0  0  0  0  0  0  0  0  0  0  0
  162.3620  206.6680  150.4670 C   0  0  0  0  0  3  0  0  0  0  0  0
  1  3  1  0  0  0  0
  1  9  2  0  0  0  0
  2  4  1  0  0  0  0
  4 13  1  0  0  0  0
  4  6  2  0  0  0  0
  5  7  1  0  0  0  0
  5  3  2  0  0  0  0
  8 15  1  0  0  0  0
  9  6  1  0  0  0  0
 10  1  1  0  0  0  0
 11 16  1  0  0  0  0
 12 10  2  0  0  0  0
 12  2  1  0  0  0  0
 13 26  1  6  0  0  0
 13 18  1  0  0  0  0
 13 25  1  0  0  0  0
 14 28  2  0  0  0  0
 14 10  1  0  0  0  0
 15 22  1  0  0  0  0
 15 24  1  0  0  0  0
 16 17  1  0  0  0  0
 18 19  2  0  0  0  0
 18 25  1  0  0  0  0
 19 21  1  0  0  0  0
 20 14  1  0  0  0  0
 21 16  2  0  0  0  0
 22 23  1  6  0  0  0
 22 27  1  0  0  0  0
 24 12  1  0  0  0  0
 25 11  2  0  0  0  0
 27  2  1  0  0  0  0
 27 26  2  0  0  0  0
 28  5  1  0  0  0  0
M  END
>  <MODEL>
4

>  <REMARK>
 VINA RESULT:      -6.0      3.516      6.104
  Name = 
  0 active torsions:
  status: ('A' for Active; 'I' for Inactive)
                            x       y       z     vdW  Elec       q    Type
                         _______ _______ _______ _____ _____    ______ ____

>  <TORSDO>
F 0

$$$$
=
 OpenBabel11052410523D

 28 33  0  0  1  0  0  0  0  0999 V2000
  161.0510  207.0810  152.8620 C   0  0  0  0  0  0  0  0  0  0  0  0
  161.5340  208.4980  150.2010 N   0  0  0  0  0  0  0  0  0  0  0  0
  160.8700  206.5570  154.1460 C   0  0  0  0  0  3  0  0  0  0  0  0
  161.5350  207.1520  149.7710 C   0  0  0  0  0  0  0  0  0  0  0  0
  160.7270  207.3650  155.2570 C   0  0  0  0  0  0  0  0  0  0  0  0
  161.3540  206.0910  150.5260 C   0  0  0  0  0  3  0  0  0  0  0  0
  160.5030  206.6550  156.8410 Cl  0  0  0  0  0  0  0  0  0  0  0  0
  161.2670  212.6620  150.4200 C   0  0  0  0  0  1  0  0  0  0  0  0
  161.1490  206.0990  151.9640 C   0  0  0  0  0  3  0  0  0  0  0  0
  161.0620  208.5120  152.6600 C   0  0  0  0  0  0  0  0  0  0  0  0
  160.4770  205.3880  146.6570 C   0  0  0  0  0  3  0  0  0  0  0  0
  161.1140  209.1190  151.4280 C   0  0  0  0  0  0  0  0  0  0  0  0
  161.7830  207.1540  148.3120 C   0  0  1  0  0  0  0  0  0  0  0  0
  160.9770  209.3150  153.8590 C   0  0  0  0  0  0  0  0  0  0  0  0
  161.6990  211.2740  150.4440 N   0  0  0  0  0  0  0  0  0  0  0  0
  161.3870  204.4280  146.0780 C   0  0  0  0  0  0  0  0  0  0  0  0
  160.8530  203.4460  145.1980 N   0  0  0  0  0  1  0  0  0  0  0  0
  162.6070  206.1980  147.7180 C   0  0  0  0  0  0  0  0  0  0  0  0
  163.4550  205.2970  147.1720 C   0  0  0  0  0  3  0  0  0  0  0  0
  161.2740  211.0530  153.9740 Cl  0  0  0  0  0  0  0  0  0  0  0  0
  162.7720  204.4170  146.3430 N   0  0  0  0  0  0  0  0  0  0  0  0
  161.6970  210.7850  149.0570 C   0  0  1  0  0  3  0  0  0  0  0  0
  162.8360  211.3440  148.3400 N   0  0  0  0  0  1  0  0  0  0  0  0
  160.6950  210.5550  151.2320 C   0  0  0  0  0  2  0  0  0  0  0  0
  161.1650  206.2360  147.4640 C   0  0  0  0  0  0  0  0  0  0  0  0
  161.9000  208.5710  147.8970 C   0  0  0  0  0  3  0  0  0  0  0  0
  161.7700  209.2830  149.0200 C   0  0  0  0  0  0  0  0  0  0  0  0
  160.8050  208.7330  155.1130 C   0  0  0  0  0  3  0  0  0  0  0  0
  1  3  1  0  0  0  0
  2 12  1  0  0  0  0
  3  5  2  0  0  0  0
  4  2  1  0  0  0  0
  4  6  2  0  0  0  0
  5  7  1  0  0  0  0
  6  9  1  0  0  0  0
  8 15  1  0  0  0  0
  9  1  2  0  0  0  0
 10  1  1  0  0  0  0
 10 14  1  0  0  0  0
 11 25  1  0  0  0  0
 12 10  2  0  0  0  0
 13 26  1  6  0  0  0
 13  4  1  0  0  0  0
 14 20  1  0  0  0  0
 14 28  2  0  0  0  0
 15 24  1  0  0  0  0
 16 21  1  0  0  0  0
 16 11  2  0  0  0  0
 17 16  1  0  0  0  0
 18 13  1  0  0  0  0
 19 18  1  0  0  0  0
 21 19  2  0  0  0  0
 22 23  1  6  0  0  0
 22 15  1  0  0  0  0
 24 12  1  0  0  0  0
 25 18  2  0  0  0  0
 25 13  1  0  0  0  0
 26 27  2  0  0  0  0
 27 22  1  0  0  0  0
 27  2  1  0  0  0  0
 28  5  1  0  0  0  0
M  END
>  <MODEL>
5

>  <REMARK>
 VINA RESULT:      -5.9      2.752      5.768
  Name = 
  0 active torsions:
  status: ('A' for Active; 'I' for Inactive)
                            x       y       z     vdW  Elec       q    Type
                         _______ _______ _______ _____ _____    ______ ____

>  <TORSDO>
F 0

$$$$
