=
 OpenBabel11042421023D

 28 30  0  0  0  0  0  0  0  0999 V2000
  161.9480  208.5040  150.1730 C   0  0  0  0  0  0  0  0  0  0  0  0
  162.0950  206.6890  151.2830 C   0  0  0  0  0  0  0  0  0  0  0  0
  160.9600  207.6470  147.9450 C   0  0  0  0  0  1  0  0  0  0  0  0
  161.4820  207.4990  149.3350 C   0  0  0  0  0  0  0  0  0  0  0  0
  162.3080  207.9850  151.3260 O   0  0  0  0  0  0  0  0  0  0  0  0
  161.5610  206.3230  150.0610 C   0  0  0  0  0  0  0  0  0  0  0  0
  160.6290  204.0770  150.5120 C   0  0  0  0  0  3  0  0  0  0  0  0
  161.0660  203.2060  147.9100 C   0  0  0  0  0  0  0  0  0  0  0  0
  161.2140  204.9600  149.5970 C   0  0  0  0  0  0  0  0  0  0  0  0
  161.9160  203.5860  145.6680 C   0  0  0  0  0  3  0  0  0  0  0  0
  161.2960  202.7490  146.6000 C   0  0  0  0  0  0  0  0  0  0  0  0
  160.4900  202.3880  148.8330 N   0  0  0  0  0  0  0  0  0  0  0  0
  160.2710  202.7910  150.1110 C   0  0  0  0  0  3  0  0  0  0  0  0
  162.3110  204.8750  146.0320 C   0  0  0  0  0  3  0  0  0  0  0  0
  160.8990  201.3750  146.1770 C   0  0  0  0  0  1  0  0  0  0  0  0
  161.4500  204.5200  148.2760 C   0  0  0  0  0  0  0  0  0  0  0  0
  162.0830  205.3380  147.3280 C   0  0  0  0  0  3  0  0  0  0  0  0
  162.0500  209.9420  149.8740 C   0  0  0  0  0  0  0  0  0  0  0  0
  162.3320  210.7460  150.8030 O   0  0  0  0  0  0  0  0  0  0  0  0
  161.8350  210.4270  148.5470 N   0  0  0  0  0  2  0  0  0  0  0  0
  161.1270  212.3810  146.5880 C   0  0  0  0  0  1  0  0  0  0  0  0
  161.2730  212.9290  149.2040 O   0  0  0  0  0  0  0  0  0  0  0  0
  163.3860  212.5070  148.0180 O   0  0  0  0  0  0  0  0  0  0  0  0
  161.9430  212.1060  148.1420 S   0  0  0  0  0  0  0  0  0  0  0  0
  162.4110  205.7940  152.3480 N   0  0  0  0  0  2  0  0  0  0  0  0
  161.5470  205.6640  153.5070 C   0  0  0  0  0  2  0  0  0  0  0  0
  160.9510  207.0130  153.8440 C   0  0  0  0  0  2  0  0  0  0  0  0
  160.4190  206.9830  155.1940 N   0  0  0  0  0  1  0  0  0  0  0  0
  1  5  1  0  0  0  0
  2  5  1  0  0  0  0
  2 25  1  0  0  0  0
  3  4  1  0  0  0  0
  4  6  1  0  0  0  0
  4  1  2  0  0  0  0
  6  2  2  0  0  0  0
  8 16  1  0  0  0  0
  8 12  1  0  0  0  0
  9  6  1  0  0  0  0
  9  7  2  0  0  0  0
 10 14  2  0  0  0  0
 10 11  1  0  0  0  0
 11  8  2  0  0  0  0
 12 13  2  0  0  0  0
 13  7  1  0  0  0  0
 14 17  1  0  0  0  0
 15 11  1  0  0  0  0
 16  9  1  0  0  0  0
 17 16  2  0  0  0  0
 18  1  1  0  0  0  0
 18 19  2  0  0  0  0
 20 18  1  0  0  0  0
 21 24  1  0  0  0  0
 23 24  2  0  0  0  0
 24 20  1  0  0  0  0
 24 22  2  0  0  0  0
 25 26  1  0  0  0  0
 26 27  1  0  0  0  0
 27 28  1  0  0  0  0
M  END
>  <MODEL>
1

>  <REMARK>
 VINA RESULT:      -8.6      0.000      0.000
  Name = 
  6 active torsions:
  status: ('A' for Active; 'I' for Inactive)
    1  A    between atoms: C_1  and  C_5
    2  A    between atoms: C_4  and  C_11
    3  A    between atoms: C_9  and  C_27
    4  A    between atoms: C_11  and  N_28
    5  A    between atoms: C_13  and  N_28
    6  A    between atoms: S_20  and  N_25
                            x       y       z     vdW  Elec       q    Type
                         _______ _______ _______ _____ _____    ______ ____

>  <TORSDO>
F 6

$$$$
=
 OpenBabel11042421023D

 28 30  0  0  0  0  0  0  0  0999 V2000
  161.4270  207.0760  148.7640 C   0  0  0  0  0  0  0  0  0  0  0  0
  161.9000  208.7100  150.0510 C   0  0  0  0  0  0  0  0  0  0  0  0
  160.5100  205.3560  150.4590 C   0  0  0  0  0  1  0  0  0  0  0  0
  161.0970  206.6640  150.0490 C   0  0  0  0  0  0  0  0  0  0  0  0
  161.9050  208.3010  148.8030 O   0  0  0  0  0  0  0  0  0  0  0  0
  161.3890  207.7310  150.8830 C   0  0  0  0  0  0  0  0  0  0  0  0
  161.7380  206.7060  153.1070 C   0  0  0  0  0  3  0  0  0  0  0  0
  160.5600  208.8380  154.4430 C   0  0  0  0  0  0  0  0  0  0  0  0
  161.2460  207.7800  152.3560 C   0  0  0  0  0  0  0  0  0  0  0  0
  159.4120  210.9770  154.4130 C   0  0  0  0  0  3  0  0  0  0  0  0
  159.9530  209.9050  155.1290 C   0  0  0  0  0  0  0  0  0  0  0  0
  161.0640  207.7760  155.1290 N   0  0  0  0  0  0  0  0  0  0  0  0
  161.6400  206.7210  154.4960 C   0  0  0  0  0  3  0  0  0  0  0  0
  159.4690  210.9940  153.0180 C   0  0  0  0  0  3  0  0  0  0  0  0
  159.8630  209.9180  156.6180 C   0  0  0  0  0  1  0  0  0  0  0  0
  160.6360  208.8610  153.0280 C   0  0  0  0  0  0  0  0  0  0  0  0
  160.0740  209.9420  152.3300 C   0  0  0  0  0  3  0  0  0  0  0  0
  161.2890  206.3080  147.5160 C   0  0  0  0  0  0  0  0  0  0  0  0
  160.1940  206.3370  146.8930 O   0  0  0  0  0  0  0  0  0  0  0  0
  162.3810  205.5380  147.0100 N   0  0  0  0  0  2  0  0  0  0  0  0
  161.2060  203.2230  145.8180 C   0  0  0  0  0  1  0  0  0  0  0  0
  161.7020  205.4710  144.4520 O   0  0  0  0  0  0  0  0  0  0  0  0
  163.6370  204.1250  145.1550 O   0  0  0  0  0  0  0  0  0  0  0  0
  162.2730  204.6180  145.5490 S   0  0  0  0  0  0  0  0  0  0  0  0
  162.3920  209.9800  150.4740 N   0  0  0  0  0  2  0  0  0  0  0  0
  161.8440  211.2160  149.9470 C   0  0  0  0  0  2  0  0  0  0  0  0
  162.4600  211.5020  148.5940 C   0  0  0  0  0  2  0  0  0  0  0  0
  161.4200  211.9040  147.6660 N   0  0  0  0  0  1  0  0  0  0  0  0
  1  5  1  0  0  0  0
  1  4  2  0  0  0  0
  2 25  1  0  0  0  0
  2  6  2  0  0  0  0
  4  3  1  0  0  0  0
  4  6  1  0  0  0  0
  5  2  1  0  0  0  0
  6  9  1  0  0  0  0
  7 13  1  0  0  0  0
  8 12  1  0  0  0  0
  8 11  1  0  0  0  0
  9 16  1  0  0  0  0
  9  7  2  0  0  0  0
 10 11  2  0  0  0  0
 11 15  1  0  0  0  0
 13 12  2  0  0  0  0
 14 10  1  0  0  0  0
 16  8  2  0  0  0  0
 17 14  2  0  0  0  0
 17 16  1  0  0  0  0
 18  1  1  0  0  0  0
 19 18  2  0  0  0  0
 20 18  1  0  0  0  0
 22 24  2  0  0  0  0
 23 24  2  0  0  0  0
 24 21  1  0  0  0  0
 24 20  1  0  0  0  0
 26 25  1  0  0  0  0
 27 26  1  0  0  0  0
 28 27  1  0  0  0  0
M  END
>  <MODEL>
2

>  <REMARK>
 VINA RESULT:      -8.5      3.431      7.226
  Name = 
  6 active torsions:
  status: ('A' for Active; 'I' for Inactive)
    1  A    between atoms: C_1  and  C_5
    2  A    between atoms: C_4  and  C_11
    3  A    between atoms: C_9  and  C_27
    4  A    between atoms: C_11  and  N_28
    5  A    between atoms: C_13  and  N_28
    6  A    between atoms: S_20  and  N_25
                            x       y       z     vdW  Elec       q    Type
                         _______ _______ _______ _____ _____    ______ ____

>  <TORSDO>
F 6

$$$$
=
 OpenBabel11042421023D

 28 30  0  0  0  0  0  0  0  0999 V2000
  161.2660  206.8740  152.1040 C   0  0  0  0  0  0  0  0  0  0  0  0
  161.2880  207.5310  150.0750 C   0  0  0  0  0  0  0  0  0  0  0  0
  161.6020  204.3290  151.8060 C   0  0  0  0  0  1  0  0  0  0  0  0
  161.4400  205.7330  151.3290 C   0  0  0  0  0  0  0  0  0  0  0  0
  161.1760  207.9280  151.3230 O   0  0  0  0  0  0  0  0  0  0  0  0
  161.4710  206.1620  150.0130 C   0  0  0  0  0  0  0  0  0  0  0  0
  162.2020  205.8810  147.6670 C   0  0  0  0  0  3  0  0  0  0  0  0
  161.3340  203.2440  147.5530 C   0  0  0  0  0  0  0  0  0  0  0  0
  161.6030  205.3210  148.8010 C   0  0  0  0  0  0  0  0  0  0  0  0
  160.2440  201.3310  148.5760 C   0  0  0  0  0  3  0  0  0  0  0  0
  160.8850  201.9130  147.4790 C   0  0  0  0  0  0  0  0  0  0  0  0
  161.9320  203.8290  146.4800 N   0  0  0  0  0  0  0  0  0  0  0  0
  162.3610  205.1180  146.5120 C   0  0  0  0  0  3  0  0  0  0  0  0
  160.0440  202.0650  149.7470 C   0  0  0  0  0  3  0  0  0  0  0  0
  161.0700  201.1010  146.2420 C   0  0  0  0  0  1  0  0  0  0  0  0
  161.1480  203.9850  148.7470 C   0  0  0  0  0  0  0  0  0  0  0  0
  160.4910  203.3840  149.8310 C   0  0  0  0  0  3  0  0  0  0  0  0
  161.1830  206.9540  153.5710 C   0  0  0  0  0  0  0  0  0  0  0  0
  161.5020  205.9490  154.2620 O   0  0  0  0  0  0  0  0  0  0  0  0
  160.7490  208.1550  154.2120 N   0  0  0  0  0  2  0  0  0  0  0  0
  159.9510  209.8930  156.3340 C   0  0  0  0  0  1  0  0  0  0  0  0
  159.7360  207.2280  156.4760 O   0  0  0  0  0  0  0  0  0  0  0  0
  162.0010  208.1850  156.5450 O   0  0  0  0  0  0  0  0  0  0  0  0
  160.6340  208.3030  155.9320 S   0  0  0  0  0  0  0  0  0  0  0  0
  161.1950  208.4050  148.9510 N   0  0  0  0  0  2  0  0  0  0  0  0
  162.2530  209.3460  148.6350 C   0  0  0  0  0  2  0  0  0  0  0  0
  161.9280  210.6910  149.2480 C   0  0  0  0  0  2  0  0  0  0  0  0
  162.1170  211.7320  148.2540 N   0  0  0  0  0  1  0  0  0  0  0  0
  1 18  1  0  0  0  0
  2  5  1  0  0  0  0
  4  3  1  0  0  0  0
  4  1  2  0  0  0  0
  5  1  1  0  0  0  0
  6  2  2  0  0  0  0
  6  4  1  0  0  0  0
  7  9  1  0  0  0  0
  8 16  1  0  0  0  0
  9  6  1  0  0  0  0
 10 14  1  0  0  0  0
 11  8  1  0  0  0  0
 11 10  2  0  0  0  0
 12 13  1  0  0  0  0
 12  8  2  0  0  0  0
 13  7  2  0  0  0  0
 14 17  2  0  0  0  0
 15 11  1  0  0  0  0
 16  9  2  0  0  0  0
 16 17  1  0  0  0  0
 18 20  1  0  0  0  0
 18 19  2  0  0  0  0
 20 24  1  0  0  0  0
 24 21  1  0  0  0  0
 24 22  2  0  0  0  0
 24 23  2  0  0  0  0
 25  2  1  0  0  0  0
 26 25  1  0  0  0  0
 26 27  1  0  0  0  0
 28 27  1  0  0  0  0
M  END
>  <MODEL>
3

>  <REMARK>
 VINA RESULT:      -8.5      2.737      5.260
  Name = 
  6 active torsions:
  status: ('A' for Active; 'I' for Inactive)
    1  A    between atoms: C_1  and  C_5
    2  A    between atoms: C_4  and  C_11
    3  A    between atoms: C_9  and  C_27
    4  A    between atoms: C_11  and  N_28
    5  A    between atoms: C_13  and  N_28
    6  A    between atoms: S_20  and  N_25
                            x       y       z     vdW  Elec       q    Type
                         _______ _______ _______ _____ _____    ______ ____

>  <TORSDO>
F 6

$$$$
=
 OpenBabel11042421023D

 28 30  0  0  0  0  0  0  0  0999 V2000
  161.4920  209.6580  152.5290 C   0  0  0  0  0  0  0  0  0  0  0  0
  161.9530  209.4800  150.4540 C   0  0  0  0  0  0  0  0  0  0  0  0
  160.5490  207.3060  153.0330 C   0  0  0  0  0  1  0  0  0  0  0  0
  161.1270  208.3680  152.1600 C   0  0  0  0  0  0  0  0  0  0  0  0
  161.9790  210.2930  151.4850 O   0  0  0  0  0  0  0  0  0  0  0  0
  161.4410  208.2470  150.8170 C   0  0  0  0  0  0  0  0  0  0  0  0
  160.9710  207.2890  148.5860 C   0  0  0  0  0  3  0  0  0  0  0  0
  161.0190  204.6760  149.5310 C   0  0  0  0  0  0  0  0  0  0  0  0
  161.2120  207.0710  149.9470 C   0  0  0  0  0  0  0  0  0  0  0  0
  161.2220  203.0930  151.3590 C   0  0  0  0  0  3  0  0  0  0  0  0
  161.0270  203.3510  149.9990 C   0  0  0  0  0  0  0  0  0  0  0  0
  160.8000  204.9390  148.2130 N   0  0  0  0  0  0  0  0  0  0  0  0
  160.7680  206.2090  147.7300 C   0  0  0  0  0  3  0  0  0  0  0  0
  161.4090  204.1460  152.2570 C   0  0  0  0  0  3  0  0  0  0  0  0
  160.8200  202.2000  149.0730 C   0  0  0  0  0  1  0  0  0  0  0  0
  161.2260  205.7460  150.4360 C   0  0  0  0  0  0  0  0  0  0  0  0
  161.4080  205.4640  151.7990 C   0  0  0  0  0  3  0  0  0  0  0  0
  161.3750  210.2740  153.8600 C   0  0  0  0  0  0  0  0  0  0  0  0
  162.4210  210.5790  154.4930 O   0  0  0  0  0  0  0  0  0  0  0  0
  160.0910  210.5290  154.4340 N   0  0  0  0  0  2  0  0  0  0  0  0
  158.1630  211.3860  156.3600 C   0  0  0  0  0  1  0  0  0  0  0  0
  160.5550  210.3930  157.0370 O   0  0  0  0  0  0  0  0  0  0  0  0
  160.5090  212.6230  156.0000 O   0  0  0  0  0  0  0  0  0  0  0  0
  159.8960  211.2510  155.9950 S   0  0  0  0  0  0  0  0  0  0  0  0
  162.3670  209.8480  149.1390 N   0  0  0  0  0  2  0  0  0  0  0  0
  161.8160  211.0120  148.4720 C   0  0  0  0  0  2  0  0  0  0  0  0
  162.9190  212.0170  148.2210 C   0  0  0  0  0  2  0  0  0  0  0  0
  162.4420  213.0410  147.3100 N   0  0  0  0  0  1  0  0  0  0  0  0
  1 18  1  0  0  0  0
  2  6  2  0  0  0  0
  2  5  1  0  0  0  0
  4  1  2  0  0  0  0
  4  3  1  0  0  0  0
  5  1  1  0  0  0  0
  6  4  1  0  0  0  0
  7  9  1  0  0  0  0
  8 11  1  0  0  0  0
  8 16  1  0  0  0  0
  9 16  2  0  0  0  0
  9  6  1  0  0  0  0
 10 14  1  0  0  0  0
 11 10  2  0  0  0  0
 12  8  2  0  0  0  0
 13 12  1  0  0  0  0
 13  7  2  0  0  0  0
 15 11  1  0  0  0  0
 16 17  1  0  0  0  0
 17 14  2  0  0  0  0
 18 20  1  0  0  0  0
 18 19  2  0  0  0  0
 20 24  1  0  0  0  0
 24 23  2  0  0  0  0
 24 21  1  0  0  0  0
 24 22  2  0  0  0  0
 25  2  1  0  0  0  0
 26 25  1  0  0  0  0
 27 26  1  0  0  0  0
 28 27  1  0  0  0  0
M  END
>  <MODEL>
4

>  <REMARK>
 VINA RESULT:      -8.1      3.093      5.521
  Name = 
  6 active torsions:
  status: ('A' for Active; 'I' for Inactive)
    1  A    between atoms: C_1  and  C_5
    2  A    between atoms: C_4  and  C_11
    3  A    between atoms: C_9  and  C_27
    4  A    between atoms: C_11  and  N_28
    5  A    between atoms: C_13  and  N_28
    6  A    between atoms: S_20  and  N_25
                            x       y       z     vdW  Elec       q    Type
                         _______ _______ _______ _____ _____    ______ ____

>  <TORSDO>
F 6

$$$$
=
 OpenBabel11042421023D

 28 30  0  0  0  0  0  0  0  0999 V2000
  161.5080  207.9830  149.6140 C   0  0  0  0  0  0  0  0  0  0  0  0
  161.8570  210.0390  150.0630 C   0  0  0  0  0  0  0  0  0  0  0  0
  160.8970  207.0610  151.9490 C   0  0  0  0  0  1  0  0  0  0  0  0
  161.3020  208.1210  150.9810 C   0  0  0  0  0  0  0  0  0  0  0  0
  161.8400  209.1460  149.0990 O   0  0  0  0  0  0  0  0  0  0  0  0
  161.5130  209.4590  151.2700 C   0  0  0  0  0  0  0  0  0  0  0  0
  162.4430  209.8010  153.5360 C   0  0  0  0  0  3  0  0  0  0  0  0
  160.4570  211.6120  154.2430 C   0  0  0  0  0  0  0  0  0  0  0  0
  161.4490  210.1080  152.6000 C   0  0  0  0  0  0  0  0  0  0  0  0
  158.4170  212.8200  153.7250 C   0  0  0  0  0  3  0  0  0  0  0  0
  159.4500  212.5180  154.6170 C   0  0  0  0  0  0  0  0  0  0  0  0
  161.4510  211.2900  155.1150 N   0  0  0  0  0  0  0  0  0  0  0  0
  162.4290  210.4040  154.7920 C   0  0  0  0  0  3  0  0  0  0  0  0
  158.3780  212.2230  152.4630 C   0  0  0  0  0  3  0  0  0  0  0  0
  159.4500  213.1670  155.9600 C   0  0  0  0  0  1  0  0  0  0  0  0
  160.4300  211.0190  152.9560 C   0  0  0  0  0  0  0  0  0  0  0  0
  159.3760  211.3260  152.0820 C   0  0  0  0  0  3  0  0  0  0  0  0
  161.3900  206.7550  148.8120 C   0  0  0  0  0  0  0  0  0  0  0  0
  160.4630  205.9390  149.0660 O   0  0  0  0  0  0  0  0  0  0  0  0
  162.3130  206.4850  147.7540 N   0  0  0  0  0  2  0  0  0  0  0  0
  160.9930  205.2940  145.5180 C   0  0  0  0  0  1  0  0  0  0  0  0
  163.5500  204.7950  146.1340 O   0  0  0  0  0  0  0  0  0  0  0  0
  161.8270  203.8840  147.6350 O   0  0  0  0  0  0  0  0  0  0  0  0
  162.2200  205.0570  146.7810 S   0  0  0  0  0  0  0  0  0  0  0  0
  162.2200  211.4060  149.8760 N   0  0  0  0  0  2  0  0  0  0  0  0
  162.2240  212.0130  148.5580 C   0  0  0  0  0  2  0  0  0  0  0  0
  160.9810  212.8600  148.3910 C   0  0  0  0  0  2  0  0  0  0  0  0
  160.3170  212.5030  147.1510 N   0  0  0  0  0  1  0  0  0  0  0  0
  1  4  2  0  0  0  0
  2  6  2  0  0  0  0
  4  6  1  0  0  0  0
  4  3  1  0  0  0  0
  5  1  1  0  0  0  0
  5  2  1  0  0  0  0
  6  9  1  0  0  0  0
  7 13  1  0  0  0  0
  8 11  1  0  0  0  0
  8 12  1  0  0  0  0
  9 16  1  0  0  0  0
  9  7  2  0  0  0  0
 10 11  2  0  0  0  0
 11 15  1  0  0  0  0
 13 12  2  0  0  0  0
 14 10  1  0  0  0  0
 16  8  2  0  0  0  0
 17 14  2  0  0  0  0
 17 16  1  0  0  0  0
 18 19  2  0  0  0  0
 18  1  1  0  0  0  0
 20 18  1  0  0  0  0
 21 24  1  0  0  0  0
 22 24  2  0  0  0  0
 24 23  2  0  0  0  0
 24 20  1  0  0  0  0
 25  2  1  0  0  0  0
 26 25  1  0  0  0  0
 27 26  1  0  0  0  0
 28 27  1  0  0  0  0
M  END
>  <MODEL>
5

>  <REMARK>
 VINA RESULT:      -8.1      3.897      8.088
  Name = 
  6 active torsions:
  status: ('A' for Active; 'I' for Inactive)
    1  A    between atoms: C_1  and  C_5
    2  A    between atoms: C_4  and  C_11
    3  A    between atoms: C_9  and  C_27
    4  A    between atoms: C_11  and  N_28
    5  A    between atoms: C_13  and  N_28
    6  A    between atoms: S_20  and  N_25
                            x       y       z     vdW  Elec       q    Type
                         _______ _______ _______ _____ _____    ______ ____

>  <TORSDO>
F 6

$$$$
=
 OpenBabel11042421023D

 28 30  0  0  0  0  0  0  0  0999 V2000
  161.9650  209.9730  148.9410 C   0  0  0  0  0  0  0  0  0  0  0  0
  161.3320  207.9430  149.1090 C   0  0  0  0  0  0  0  0  0  0  0  0
  162.4370  210.5530  151.4150 C   0  0  0  0  0  1  0  0  0  0  0  0
  162.0120  209.6640  150.2950 C   0  0  0  0  0  0  0  0  0  0  0  0
  161.5520  208.9240  148.2640 O   0  0  0  0  0  0  0  0  0  0  0  0
  161.6170  208.3410  150.4030 C   0  0  0  0  0  0  0  0  0  0  0  0
  161.8740  206.2110  151.6330 C   0  0  0  0  0  3  0  0  0  0  0  0
  160.8450  207.2710  153.9870 C   0  0  0  0  0  0  0  0  0  0  0  0
  161.4670  207.5500  151.6450 C   0  0  0  0  0  0  0  0  0  0  0  0
  159.8570  209.1120  155.2210 C   0  0  0  0  0  3  0  0  0  0  0  0
  160.3130  207.7920  155.1790 C   0  0  0  0  0  0  0  0  0  0  0  0
  161.2640  205.9770  153.9280 N   0  0  0  0  0  0  0  0  0  0  0  0
  161.7660  205.4370  152.7870 C   0  0  0  0  0  3  0  0  0  0  0  0
  159.9260  209.9180  154.0830 C   0  0  0  0  0  3  0  0  0  0  0  0
  160.2120  206.9590  156.4120 C   0  0  0  0  0  1  0  0  0  0  0  0
  160.9330  208.0920  152.8350 C   0  0  0  0  0  0  0  0  0  0  0  0
  160.4570  209.4110  152.8970 C   0  0  0  0  0  3  0  0  0  0  0  0
  162.3070  211.2550  148.3050 C   0  0  0  0  0  0  0  0  0  0  0  0
  163.5180  211.5940  148.2130 O   0  0  0  0  0  0  0  0  0  0  0  0
  161.2830  212.1110  147.7940 N   0  0  0  0  0  2  0  0  0  0  0  0
  162.3580  213.3290  145.4450 C   0  0  0  0  0  1  0  0  0  0  0  0
  160.3600  214.4100  146.8610 O   0  0  0  0  0  0  0  0  0  0  0  0
  162.5980  214.4090  147.8820 O   0  0  0  0  0  0  0  0  0  0  0  0
  161.6300  213.6280  147.0370 S   0  0  0  0  0  0  0  0  0  0  0  0
  160.8320  206.6620  148.7290 N   0  0  0  0  0  2  0  0  0  0  0  0
  160.9750  206.1680  147.3720 C   0  0  0  0  0  2  0  0  0  0  0  0
  161.5800  204.7810  147.4040 C   0  0  0  0  0  2  0  0  0  0  0  0
  161.2070  204.1190  148.6400 N   0  0  0  0  0  1  0  0  0  0  0  0
  1  4  2  0  0  0  0
  2  6  2  0  0  0  0
  4  6  1  0  0  0  0
  4  3  1  0  0  0  0
  5  1  1  0  0  0  0
  5  2  1  0  0  0  0
  6  9  1  0  0  0  0
  7  9  2  0  0  0  0
  7 13  1  0  0  0  0
  8 11  1  0  0  0  0
  9 16  1  0  0  0  0
 11 10  2  0  0  0  0
 11 15  1  0  0  0  0
 12  8  1  0  0  0  0
 13 12  2  0  0  0  0
 14 10  1  0  0  0  0
 16 17  1  0  0  0  0
 16  8  2  0  0  0  0
 17 14  2  0  0  0  0
 18  1  1  0  0  0  0
 19 18  2  0  0  0  0
 20 18  1  0  0  0  0
 21 24  1  0  0  0  0
 22 24  2  0  0  0  0
 24 20  1  0  0  0  0
 24 23  2  0  0  0  0
 25  2  1  0  0  0  0
 26 27  1  0  0  0  0
 26 25  1  0  0  0  0
 27 28  1  0  0  0  0
M  END
>  <MODEL>
6

>  <REMARK>
 VINA RESULT:      -8.0      1.975      5.714
  Name = 
  6 active torsions:
  status: ('A' for Active; 'I' for Inactive)
    1  A    between atoms: C_1  and  C_5
    2  A    between atoms: C_4  and  C_11
    3  A    between atoms: C_9  and  C_27
    4  A    between atoms: C_11  and  N_28
    5  A    between atoms: C_13  and  N_28
    6  A    between atoms: S_20  and  N_25
                            x       y       z     vdW  Elec       q    Type
                         _______ _______ _______ _____ _____    ______ ____

>  <TORSDO>
F 6

$$$$
=
 OpenBabel11042421023D

 28 30  0  0  0  0  0  0  0  0999 V2000
  161.2860  207.8540  151.3720 C   0  0  0  0  0  0  0  0  0  0  0  0
  161.0200  207.5720  153.4690 C   0  0  0  0  0  0  0  0  0  0  0  0
  161.5860  210.4170  151.2480 C   0  0  0  0  0  1  0  0  0  0  0  0
  161.3540  209.1190  151.9440 C   0  0  0  0  0  0  0  0  0  0  0  0
  161.0840  206.9560  152.3110 O   0  0  0  0  0  0  0  0  0  0  0  0
  161.1970  208.9340  153.3070 C   0  0  0  0  0  0  0  0  0  0  0  0
  162.2520  210.0940  155.2200 C   0  0  0  0  0  3  0  0  0  0  0  0
  160.1230  211.8540  155.5220 C   0  0  0  0  0  0  0  0  0  0  0  0
  161.1590  209.9820  154.3530 C   0  0  0  0  0  0  0  0  0  0  0  0
  157.9170  212.6350  154.8750 C   0  0  0  0  0  3  0  0  0  0  0  0
  159.0450  212.7410  155.6940 C   0  0  0  0  0  0  0  0  0  0  0  0
  161.2130  211.9310  156.3340 N   0  0  0  0  0  0  0  0  0  0  0  0
  162.2630  211.0780  156.2060 C   0  0  0  0  0  3  0  0  0  0  0  0
  157.8530  211.6500  153.8870 C   0  0  0  0  0  3  0  0  0  0  0  0
  159.0710  213.7980  156.7450 C   0  0  0  0  0  1  0  0  0  0  0  0
  160.0680  210.8650  154.5080 C   0  0  0  0  0  0  0  0  0  0  0  0
  158.9200  210.7690  153.7070 C   0  0  0  0  0  3  0  0  0  0  0  0
  161.4120  207.5100  149.9460 C   0  0  0  0  0  0  0  0  0  0  0  0
  161.6210  208.4260  149.1070 O   0  0  0  0  0  0  0  0  0  0  0  0
  161.3000  206.1520  149.5120 N   0  0  0  0  0  2  0  0  0  0  0  0
  161.4910  203.9210  147.7400 C   0  0  0  0  0  1  0  0  0  0  0  0
  160.2540  206.2010  147.0810 O   0  0  0  0  0  0  0  0  0  0  0  0
  162.7050  206.2590  147.2700 O   0  0  0  0  0  0  0  0  0  0  0  0
  161.4400  205.6930  147.8500 S   0  0  0  0  0  0  0  0  0  0  0  0
  160.7650  206.9130  154.7090 N   0  0  0  0  0  2  0  0  0  0  0  0
  159.6730  207.3230  155.5710 C   0  0  0  0  0  2  0  0  0  0  0  0
  160.0810  207.1460  157.0180 C   0  0  0  0  0  2  0  0  0  0  0  0
  161.4430  207.6150  157.1950 N   0  0  0  0  0  1  0  0  0  0  0  0
  1  4  2  0  0  0  0
  1  5  1  0  0  0  0
  2 25  1  0  0  0  0
  3  4  1  0  0  0  0
  4  6  1  0  0  0  0
  5  2  1  0  0  0  0
  6  2  2  0  0  0  0
  6  9  1  0  0  0  0
  7 13  1  0  0  0  0
  8 11  1  0  0  0  0
  8 12  1  0  0  0  0
  9 16  1  0  0  0  0
  9  7  2  0  0  0  0
 10 11  2  0  0  0  0
 11 15  1  0  0  0  0
 13 12  2  0  0  0  0
 14 10  1  0  0  0  0
 16  8  2  0  0  0  0
 17 14  2  0  0  0  0
 17 16  1  0  0  0  0
 18  1  1  0  0  0  0
 19 18  2  0  0  0  0
 20 18  1  0  0  0  0
 21 24  1  0  0  0  0
 22 24  2  0  0  0  0
 23 24  2  0  0  0  0
 24 20  1  0  0  0  0
 25 26  1  0  0  0  0
 26 27  1  0  0  0  0
 27 28  1  0  0  0  0
M  END
>  <MODEL>
7

>  <REMARK>
 VINA RESULT:      -7.9      3.985      7.935
  Name = 
  6 active torsions:
  status: ('A' for Active; 'I' for Inactive)
    1  A    between atoms: C_1  and  C_5
    2  A    between atoms: C_4  and  C_11
    3  A    between atoms: C_9  and  C_27
    4  A    between atoms: C_11  and  N_28
    5  A    between atoms: C_13  and  N_28
    6  A    between atoms: S_20  and  N_25
                            x       y       z     vdW  Elec       q    Type
                         _______ _______ _______ _____ _____    ______ ____

>  <TORSDO>
F 6

$$$$
=
 OpenBabel11042421023D

 28 30  0  0  0  0  0  0  0  0999 V2000
  161.8210  210.4540  149.8960 C   0  0  0  0  0  0  0  0  0  0  0  0
  161.0560  209.6310  151.7080 C   0  0  0  0  0  0  0  0  0  0  0  0
  162.5350  208.3130  148.6380 C   0  0  0  0  0  1  0  0  0  0  0  0
  161.9730  209.0770  149.7890 C   0  0  0  0  0  0  0  0  0  0  0  0
  161.2730  210.7490  151.0540 O   0  0  0  0  0  0  0  0  0  0  0  0
  161.4610  208.5410  150.9590 C   0  0  0  0  0  0  0  0  0  0  0  0
  161.6130  206.7850  152.6940 C   0  0  0  0  0  3  0  0  0  0  0  0
  161.1620  204.7350  150.8740 C   0  0  0  0  0  0  0  0  0  0  0  0
  161.4230  207.1130  151.3470 C   0  0  0  0  0  0  0  0  0  0  0  0
  160.7980  203.9690  148.6000 C   0  0  0  0  0  3  0  0  0  0  0  0
  160.9500  203.6870  149.9600 C   0  0  0  0  0  0  0  0  0  0  0  0
  161.3410  204.4680  152.1970 N   0  0  0  0  0  0  0  0  0  0  0  0
  161.5670  205.4540  153.1030 C   0  0  0  0  0  3  0  0  0  0  0  0
  160.8580  205.2870  148.1420 C   0  0  0  0  0  3  0  0  0  0  0  0
  160.8910  202.2660  150.4090 C   0  0  0  0  0  1  0  0  0  0  0  0
  161.2060  206.0750  150.4140 C   0  0  0  0  0  0  0  0  0  0  0  0
  161.0640  206.3320  149.0420 C   0  0  0  0  0  3  0  0  0  0  0  0
  162.1960  211.4750  148.9030 C   0  0  0  0  0  0  0  0  0  0  0  0
  163.4120  211.6320  148.6120 O   0  0  0  0  0  0  0  0  0  0  0  0
  161.1980  212.2790  148.2730 N   0  0  0  0  0  2  0  0  0  0  0  0
  160.1110  214.3970  146.6930 C   0  0  0  0  0  1  0  0  0  0  0  0
  162.6050  214.4380  147.6650 O   0  0  0  0  0  0  0  0  0  0  0  0
  162.1230  212.8430  145.8560 O   0  0  0  0  0  0  0  0  0  0  0  0
  161.5840  213.4920  147.1000 S   0  0  0  0  0  0  0  0  0  0  0  0
  160.5090  209.5710  153.0250 N   0  0  0  0  0  2  0  0  0  0  0  0
  160.9820  210.4490  154.0790 C   0  0  0  0  0  2  0  0  0  0  0  0
  159.7990  210.9790  154.8600 C   0  0  0  0  0  2  0  0  0  0  0  0
  158.8250  211.5390  153.9410 N   0  0  0  0  0  1  0  0  0  0  0  0
  1  5  1  0  0  0  0
  2 25  1  0  0  0  0
  3  4  1  0  0  0  0
  4  1  2  0  0  0  0
  4  6  1  0  0  0  0
  5  2  1  0  0  0  0
  6  9  1  0  0  0  0
  6  2  2  0  0  0  0
  7 13  1  0  0  0  0
  8 12  1  0  0  0  0
  9  7  2  0  0  0  0
 10 11  1  0  0  0  0
 11 15  1  0  0  0  0
 11  8  2  0  0  0  0
 12 13  2  0  0  0  0
 14 10  2  0  0  0  0
 14 17  1  0  0  0  0
 16  8  1  0  0  0  0
 16  9  1  0  0  0  0
 17 16  2  0  0  0  0
 18  1  1  0  0  0  0
 19 18  2  0  0  0  0
 20 18  1  0  0  0  0
 21 24  1  0  0  0  0
 23 24  2  0  0  0  0
 24 22  2  0  0  0  0
 24 20  1  0  0  0  0
 25 26  1  0  0  0  0
 26 27  1  0  0  0  0
 28 27  1  0  0  0  0
M  END
>  <MODEL>
8

>  <REMARK>
 VINA RESULT:      -7.8      2.020      3.164
  Name = 
  6 active torsions:
  status: ('A' for Active; 'I' for Inactive)
    1  A    between atoms: C_1  and  C_5
    2  A    between atoms: C_4  and  C_11
    3  A    between atoms: C_9  and  C_27
    4  A    between atoms: C_11  and  N_28
    5  A    between atoms: C_13  and  N_28
    6  A    between atoms: S_20  and  N_25
                            x       y       z     vdW  Elec       q    Type
                         _______ _______ _______ _____ _____    ______ ____

>  <TORSDO>
F 6

$$$$
=
 OpenBabel11042421023D

 28 30  0  0  0  0  0  0  0  0999 V2000
  161.8720  208.7870  148.9970 C   0  0  0  0  0  0  0  0  0  0  0  0
  162.1030  206.8080  148.2360 C   0  0  0  0  0  0  0  0  0  0  0  0
  161.0940  208.3040  151.4130 C   0  0  0  0  0  1  0  0  0  0  0  0
  161.5240  207.9300  150.0340 C   0  0  0  0  0  0  0  0  0  0  0  0
  162.2100  208.0830  147.9390 O   0  0  0  0  0  0  0  0  0  0  0  0
  161.6890  206.6450  149.5460 C   0  0  0  0  0  0  0  0  0  0  0  0
  161.3760  205.3930  151.6560 C   0  0  0  0  0  3  0  0  0  0  0  0
  160.9110  202.9910  150.3380 C   0  0  0  0  0  0  0  0  0  0  0  0
  161.4130  205.3760  150.2570 C   0  0  0  0  0  0  0  0  0  0  0  0
  160.7580  201.7000  148.2880 C   0  0  0  0  0  3  0  0  0  0  0  0
  160.6880  201.7670  149.6830 C   0  0  0  0  0  0  0  0  0  0  0  0
  160.8740  203.0610  151.6970 N   0  0  0  0  0  0  0  0  0  0  0  0
  161.1020  204.2230  152.3620 C   0  0  0  0  0  3  0  0  0  0  0  0
  161.0510  202.8420  147.5410 C   0  0  0  0  0  3  0  0  0  0  0  0
  160.3850  200.5230  150.4470 C   0  0  0  0  0  1  0  0  0  0  0  0
  161.1900  204.1560  149.5810 C   0  0  0  0  0  0  0  0  0  0  0  0
  161.2680  204.0620  148.1830 C   0  0  0  0  0  3  0  0  0  0  0  0
  161.8790  210.2590  149.0170 C   0  0  0  0  0  0  0  0  0  0  0  0
  162.2360  210.8590  150.0660 O   0  0  0  0  0  0  0  0  0  0  0  0
  161.4890  211.0040  147.8620 N   0  0  0  0  0  2  0  0  0  0  0  0
  160.8600  213.2840  146.2600 C   0  0  0  0  0  1  0  0  0  0  0  0
  160.5920  213.2570  148.9230 O   0  0  0  0  0  0  0  0  0  0  0  0
  162.8780  213.2540  148.0170 O   0  0  0  0  0  0  0  0  0  0  0  0
  161.4800  212.7350  147.8310 S   0  0  0  0  0  0  0  0  0  0  0  0
  162.3490  205.7510  147.3110 N   0  0  0  0  0  2  0  0  0  0  0  0
  162.3760  205.9910  145.8800 C   0  0  0  0  0  2  0  0  0  0  0  0
  160.9720  205.8860  145.3260 C   0  0  0  0  0  2  0  0  0  0  0  0
  160.8800  204.7260  144.4590 N   0  0  0  0  0  1  0  0  0  0  0  0
  1 18  1  0  0  0  0
  1  4  2  0  0  0  0
  2  6  2  0  0  0  0
  4  3  1  0  0  0  0
  5  2  1  0  0  0  0
  5  1  1  0  0  0  0
  6  4  1  0  0  0  0
  6  9  1  0  0  0  0
  7 13  1  0  0  0  0
  8 12  1  0  0  0  0
  9  7  2  0  0  0  0
 10 11  2  0  0  0  0
 11  8  1  0  0  0  0
 11 15  1  0  0  0  0
 12 13  2  0  0  0  0
 14 17  2  0  0  0  0
 14 10  1  0  0  0  0
 16  9  1  0  0  0  0
 16  8  2  0  0  0  0
 17 16  1  0  0  0  0
 18 19  2  0  0  0  0
 20 18  1  0  0  0  0
 21 24  1  0  0  0  0
 24 20  1  0  0  0  0
 24 23  2  0  0  0  0
 24 22  2  0  0  0  0
 25  2  1  0  0  0  0
 26 25  1  0  0  0  0
 27 26  1  0  0  0  0
 28 27  1  0  0  0  0
M  END
>  <MODEL>
9

>  <REMARK>
 VINA RESULT:      -7.7      1.856      3.787
  Name = 
  6 active torsions:
  status: ('A' for Active; 'I' for Inactive)
    1  A    between atoms: C_1  and  C_5
    2  A    between atoms: C_4  and  C_11
    3  A    between atoms: C_9  and  C_27
    4  A    between atoms: C_11  and  N_28
    5  A    between atoms: C_13  and  N_28
    6  A    between atoms: S_20  and  N_25
                            x       y       z     vdW  Elec       q    Type
                         _______ _______ _______ _____ _____    ______ ____

>  <TORSDO>
F 6

$$$$
