=
 OpenBabel11052412003D

 61 69  0  0  1  0  0  0  0  0999 V2000
  160.3260  212.4380  148.3140 C   0  0  1  0  0  3  0  0  0  0  0  0
  158.1940  213.8810  147.6620 C   0  0  0  0  0  1  0  0  0  0  0  0
  159.3660  212.9920  147.2520 C   0  0  1  0  0  0  0  0  0  0  0  0
  159.8780  212.9910  145.8560 C   0  0  1  0  0  3  0  0  0  0  0  0
  158.9750  212.0110  146.3220 O   0  0  0  0  0  0  0  0  0  0  0  0
  159.1510  213.9630  144.9330 C   0  0  0  0  0  2  0  0  0  0  0  0
  162.3390  212.5150  140.2290 C   0  0  0  0  0  1  0  0  0  0  0  0
  161.9680  212.0170  141.5470 N   0  0  0  0  0  0  0  0  0  0  0  0
  160.1720  214.0320  141.5730 C   0  0  1  0  0  3  0  0  0  0  0  0
  160.2450  211.3190  143.8680 O   0  0  0  0  0  0  0  0  0  0  0  0
  159.2470  214.4530  142.5780 O   0  0  0  0  0  0  0  0  0  0  0  0
  159.0610  213.3970  143.5240 C   0  0  1  0  0  3  0  0  0  0  0  0
  162.2580  213.1130  142.4930 C   0  0  0  0  0  2  0  0  0  0  0  0
  160.8760  212.8230  142.1380 C   0  0  2  0  0  0  0  0  0  0  0  0
  160.1170  212.3820  143.2820 C   0  0  0  0  0  0  0  0  0  0  0  0
  157.1590  213.2190  139.2860 C   0  0  0  0  0  0  0  0  0  0  0  0
  155.8190  213.4140  139.2550 F   0  0  0  0  0  0  0  0  0  0  0  0
  159.4540  213.6790  140.2600 C   0  0  2  0  0  3  0  0  0  0  0  0
  157.9380  213.7220  140.4800 C   0  0  0  0  0  2  0  0  0  0  0  0
  157.7200  212.4400  138.3460 C   0  0  0  0  0  3  0  0  0  0  0  0
  159.8400  212.3190  139.6770 C   0  0  0  0  0  2  0  0  0  0  0  0
  159.2010  212.1690  138.2990 C   0  0  0  0  0  2  0  0  0  0  0  0
  162.1660  211.5570  147.0850 C   0  0  0  0  0  2  0  0  0  0  0  0
  161.7300  212.6700  147.9470 N   0  0  0  0  0  0  0  0  0  0  0  0
  162.6610  211.6220  148.4540 C   0  0  1  0  0  3  0  0  0  0  0  0
  162.0140  210.5110  149.2850 C   0  0  0  0  0  2  0  0  0  0  0  0
  161.8520  209.2640  148.4400 C   0  0  0  0  0  2  0  0  0  0  0  0
  162.0230  208.0340  149.3210 C   0  0  2  0  0  3  0  0  0  0  0  0
  161.9860  206.6780  148.5970 C   0  0  1  0  0  3  0  0  0  0  0  0
  160.7440  207.2220  149.2900 C   0  0  0  0  0  2  0  0  0  0  0  0
  160.6410  206.9700  146.5910 O   0  0  0  0  0  1  0  0  0  0  0  0
  161.9370  206.7070  147.0480 C   0  0  2  0  0  3  0  0  0  0  0  0
  162.5330  205.4920  146.3280 C   0  0  0  0  0  2  0  0  0  0  0  0
  161.4410  204.5140  145.9180 C   0  0  0  0  0  2  0  0  0  0  0  0
  161.7770  203.2260  146.3230 O   0  0  0  0  0  1  0  0  0  0  0  0
  158.9500  213.7090  149.9530 C   0  0  0  0  0  3  0  0  0  0  0  0
  160.0430  212.9890  149.6840 C   0  0  0  0  0  3  0  0  0  0  0  0
  158.6810  214.2440  151.3270 C   0  0  0  0  0  2  0  0  0  0  0  0
  157.3530  211.5110  153.5920 C   0  0  0  0  0  3  0  0  0  0  0  0
  158.0760  211.5720  154.9010 C   0  0  1  0  0  3  0  0  0  0  0  0
  160.3570  212.0780  154.0200 C   0  0  0  0  0  3  0  0  0  0  0  0
  159.9570  213.0680  153.0070 C   0  0  0  0  0  3  0  0  0  0  0  0
  159.5550  211.3540  154.8050 C   0  0  0  0  0  0  0  0  0  0  0  0
  158.7830  213.1780  152.3710 C   0  0  0  0  0  0  0  0  0  0  0  0
  157.6500  212.2390  152.5150 C   0  0  0  0  0  3  0  0  0  0  0  0
  157.7120  212.7710  155.7270 C   0  0  0  0  0  0  0  0  0  0  0  0
  157.6210  214.4450  157.2450 N   0  0  0  0  0  0  0  0  0  0  0  0
  158.4970  213.3540  156.8530 C   0  0  0  0  0  2  0  0  0  0  0  0
  156.5870  214.4500  156.5070 N   0  0  0  0  0  0  0  0  0  0  0  0
  156.6140  213.4230  155.5620 N   0  0  0  0  0  0  0  0  0  0  0  0
  160.1780  210.4200  155.7940 C   0  0  0  0  0  2  0  0  0  0  0  0
  160.7540  209.1490  155.1630 C   0  0  1  0  0  3  0  0  0  0  0  0
  161.3490  208.1360  152.8730 C   0  0  1  0  0  3  0  0  0  0  0  0
  161.5630  206.8780  153.7270 C   0  0  1  0  0  3  0  0  0  0  0  0
  159.7720  207.9740  155.2060 C   0  0  0  0  0  2  0  0  0  0  0  0
  160.1720  208.0410  152.1470 F   0  0  0  0  0  0  0  0  0  0  0  0
  160.4550  206.6650  154.7720 C   0  0  0  0  0  2  0  0  0  0  0  0
  161.3110  209.3950  153.7490 C   0  0  0  0  0  2  0  0  0  0  0  0
  161.7600  205.6590  152.8850 C   0  0  0  0  0  0  0  0  0  0  0  0
  160.8980  204.7370  152.8770 O   0  0  0  0  0  1  0  0  0  0  0  0
  162.8910  205.5540  152.0850 O   0  0  0  0  0  0  0  0  0  0  0  0
  1 37  1  1  0  0  0
  3  2  1  1  0  0  0
  3  1  1  0  0  0  0
  4  6  1  6  0  0  0
  4  5  1  0  0  0  0
  4  3  1  0  0  0  0
  5  3  1  0  0  0  0
  7  8  1  0  0  0  0
  8 14  1  0  0  0  0
  8 13  1  0  0  0  0
  9 14  1  0  0  0  0
  9 11  1  1  0  0  0
 11 12  1  0  0  0  0
 12  6  1  1  0  0  0
 14 13  1  1  0  0  0
 14 15  1  0  0  0  0
 15 12  1  0  0  0  0
 15 10  2  0  0  0  0
 16 19  1  0  0  0  0
 17 16  1  0  0  0  0
 18 21  1  1  0  0  0
 18 19  1  0  0  0  0
 18  9  1  0  0  0  0
 20 16  2  0  0  0  0
 22 20  1  0  0  0  0
 22 21  1  0  0  0  0
 23 24  1  0  0  0  0
 23 25  1  0  0  0  0
 24  1  1  0  0  0  0
 24 25  1  0  0  0  0
 25 26  1  1  0  0  0
 27 26  1  0  0  0  0
 28 27  1  6  0  0  0
 29 32  1  6  0  0  0
 29 30  1  0  0  0  0
 29 28  1  0  0  0  0
 30 28  1  0  0  0  0
 32 31  1  1  0  0  0
 33 32  1  0  0  0  0
 34 35  1  0  0  0  0
 34 33  1  0  0  0  0
 36 38  1  0  0  0  0
 37 36  2  0  0  0  0
 38 44  1  0  0  0  0
 39 40  1  0  0  0  0
 40 46  1  6  0  0  0
 41 43  2  0  0  0  0
 42 41  1  0  0  0  0
 43 40  1  0  0  0  0
 43 51  1  0  0  0  0
 44 45  1  0  0  0  0
 44 42  2  0  0  0  0
 45 39  2  0  0  0  0
 46 48  1  0  0  0  0
 48 47  1  0  0  0  0
 49 47  2  0  0  0  0
 50 46  2  0  0  0  0
 50 49  1  0  0  0  0
 52 55  1  0  0  0  0
 52 51  1  6  0  0  0
 53 56  1  1  0  0  0
 53 54  1  0  0  0  0
 53 58  1  0  0  0  0
 54 59  1  6  0  0  0
 54 57  1  0  0  0  0
 57 55  1  0  0  0  0
 58 52  1  0  0  0  0
 60 59  1  0  0  0  0
 61 59  2  0  0  0  0
M  END
>  <MODEL>
1

>  <REMARK>
 VINA RESULT:      -5.0      0.000      0.000
  Name = 
  18 active torsions:
  status: ('A' for Active; 'I' for Inactive)
    1  A    between atoms: C_1  and  C_6
    2  A    between atoms: C_1  and  C_45
    3  A    between atoms: C_7  and  C_23
    4  A    between atoms: C_8  and  C_19
    5  A    between atoms: C_8  and  C_42
    6  A    between atoms: C_10  and  C_20
    7  A    between atoms: C_11  and  C_12
    8  A    between atoms: C_14  and  C_15
    9  A    between atoms: C_23  and  C_43
   10  A    between atoms: C_24  and  C_51
   11  A    between atoms: C_25  and  C_32
   12  A    between atoms: N_30  and  C_32
   13  A    between atoms: C_32  and  C_33
   14  A    between atoms: C_41  and  C_59
   15  A    between atoms: C_42  and  C_46
   16  A    between atoms: C_51  and  C_52
   17  A    between atoms: C_52  and  C_54
   18  A    between atoms: C_53  and  C_59
                            x       y       z     vdW  Elec       q    Type
                         _______ _______ _______ _____ _____    ______ ____

>  <TORSDO>
F 18

$$$$
=
 OpenBabel11052412003D

 61 69  0  0  1  0  0  0  0  0999 V2000
  160.7600  212.3170  148.1470 C   0  0  1  0  0  3  0  0  0  0  0  0
  159.3290  214.3770  147.2780 C   0  0  0  0  0  1  0  0  0  0  0  0
  160.3000  213.2310  147.0030 C   0  0  1  0  0  0  0  0  0  0  0  0
  161.1540  213.2230  145.7860 C   0  0  1  0  0  3  0  0  0  0  0  0
  159.9390  212.5070  145.8530 O   0  0  0  0  0  0  0  0  0  0  0  0
  160.9790  214.4530  144.9020 C   0  0  0  0  0  2  0  0  0  0  0  0
  160.4720  210.5030  140.5970 C   0  0  0  0  0  1  0  0  0  0  0  0
  159.7410  211.5940  141.2300 N   0  0  0  0  0  0  0  0  0  0  0  0
  162.0630  212.1370  142.4950 C   0  0  1  0  0  3  0  0  0  0  0  0
  159.2260  214.2760  142.4090 O   0  0  0  0  0  0  0  0  0  0  0  0
  162.3900  213.1230  143.4770 O   0  0  0  0  0  0  0  0  0  0  0  0
  161.3930  214.1470  143.4710 C   0  0  1  0  0  3  0  0  0  0  0  0
  159.7560  211.3080  142.6790 C   0  0  0  0  0  2  0  0  0  0  0  0
  160.6120  212.3610  142.1500 C   0  0  2  0  0  0  0  0  0  0  0  0
  160.2440  213.6540  142.6710 C   0  0  0  0  0  0  0  0  0  0  0  0
  163.0540  213.3890  138.9720 C   0  0  0  0  0  0  0  0  0  0  0  0
  162.7730  214.4190  138.1370 F   0  0  0  0  0  0  0  0  0  0  0  0
  162.9480  212.2730  141.2450 C   0  0  2  0  0  3  0  0  0  0  0  0
  162.3420  213.3190  140.3030 C   0  0  0  0  0  2  0  0  0  0  0  0
  163.8190  212.3820  138.5180 C   0  0  0  0  0  3  0  0  0  0  0  0
  163.1580  210.9660  140.4780 C   0  0  0  0  0  2  0  0  0  0  0  0
  164.1870  211.1980  139.3740 C   0  0  0  0  0  2  0  0  0  0  0  0
  162.7530  211.4060  147.2130 C   0  0  0  0  0  2  0  0  0  0  0  0
  162.2250  212.2940  148.2640 N   0  0  0  0  0  0  0  0  0  0  0  0
  162.7770  210.9500  148.5980 C   0  0  1  0  0  3  0  0  0  0  0  0
  161.7400  209.8400  148.7880 C   0  0  0  0  0  2  0  0  0  0  0  0
  162.0820  208.6590  147.9030 C   0  0  0  0  0  2  0  0  0  0  0  0
  161.9820  207.3760  148.7170 C   0  0  2  0  0  3  0  0  0  0  0  0
  161.5120  206.1280  147.9500 C   0  0  1  0  0  3  0  0  0  0  0  0
  160.5310  206.9440  148.7820 C   0  0  0  0  0  2  0  0  0  0  0  0
  159.9890  206.2950  146.0610 O   0  0  0  0  0  1  0  0  0  0  0  0
  161.3410  206.2670  146.4160 C   0  0  2  0  0  3  0  0  0  0  0  0
  162.1100  205.2590  145.5550 C   0  0  0  0  0  2  0  0  0  0  0  0
  163.4770  204.9630  146.1580 C   0  0  0  0  0  2  0  0  0  0  0  0
  164.1680  204.0630  145.3520 O   0  0  0  0  0  1  0  0  0  0  0  0
  159.4080  213.7970  149.6210 C   0  0  0  0  0  3  0  0  0  0  0  0
  160.1350  212.6870  149.4640 C   0  0  0  0  0  3  0  0  0  0  0  0
  158.7850  214.1460  150.9390 C   0  0  0  0  0  2  0  0  0  0  0  0
  157.4820  211.3490  153.1410 C   0  0  0  0  0  3  0  0  0  0  0  0
  158.2710  211.3260  154.4120 C   0  0  1  0  0  3  0  0  0  0  0  0
  160.5210  211.8030  153.4400 C   0  0  0  0  0  3  0  0  0  0  0  0
  160.1040  212.8530  152.4960 C   0  0  0  0  0  3  0  0  0  0  0  0
  159.7360  211.0680  154.2300 C   0  0  0  0  0  0  0  0  0  0  0  0
  158.9030  213.0290  151.9260 C   0  0  0  0  0  0  0  0  0  0  0  0
  157.7490  212.1190  152.0850 C   0  0  0  0  0  3  0  0  0  0  0  0
  157.9890  212.4940  155.3100 C   0  0  0  0  0  0  0  0  0  0  0  0
  157.0440  214.0830  156.6140 N   0  0  0  0  0  0  0  0  0  0  0  0
  156.6680  212.8880  155.8790 C   0  0  0  0  0  2  0  0  0  0  0  0
  158.2880  214.2990  156.4710 N   0  0  0  0  0  0  0  0  0  0  0  0
  158.8970  213.3350  155.6660 N   0  0  0  0  0  0  0  0  0  0  0  0
  160.3770  210.0680  155.1420 C   0  0  0  0  0  2  0  0  0  0  0  0
  161.0010  208.8770  154.4090 C   0  0  1  0  0  3  0  0  0  0  0  0
  161.2060  207.8490  152.0590 C   0  0  1  0  0  3  0  0  0  0  0  0
  161.8340  206.6950  152.8540 C   0  0  1  0  0  3  0  0  0  0  0  0
  160.2790  207.5590  154.7080 C   0  0  0  0  0  2  0  0  0  0  0  0
  159.9260  207.5180  151.6420 F   0  0  0  0  0  0  0  0  0  0  0  0
  161.0590  206.3600  154.1400 C   0  0  0  0  0  2  0  0  0  0  0  0
  161.1550  209.1320  152.8990 C   0  0  0  0  0  2  0  0  0  0  0  0
  162.0370  205.4800  152.0080 C   0  0  0  0  0  0  0  0  0  0  0  0
  162.9840  205.4290  151.1740 O   0  0  0  0  0  0  0  0  0  0  0  0
  161.1930  204.3880  152.1620 O   0  0  0  0  0  1  0  0  0  0  0  0
  1 24  1  0  0  0  0
  1 37  1  1  0  0  0
  3  2  1  1  0  0  0
  3  1  1  0  0  0  0
  4  6  1  6  0  0  0
  4  5  1  0  0  0  0
  4  3  1  0  0  0  0
  5  3  1  0  0  0  0
  7  8  1  0  0  0  0
  8 14  1  0  0  0  0
  8 13  1  0  0  0  0
  9 11  1  1  0  0  0
 10 15  2  0  0  0  0
 12 11  1  0  0  0  0
 12  6  1  1  0  0  0
 14  9  1  0  0  0  0
 14 15  1  0  0  0  0
 14 13  1  1  0  0  0
 15 12  1  0  0  0  0
 16 19  1  0  0  0  0
 17 16  1  0  0  0  0
 18 19  1  6  0  0  0
 18  9  1  0  0  0  0
 20 16  2  0  0  0  0
 20 22  1  0  0  0  0
 21 18  1  0  0  0  0
 22 21  1  0  0  0  0
 23 24  1  0  0  0  0
 23 25  1  0  0  0  0
 24 25  1  0  0  0  0
 25 26  1  6  0  0  0
 27 26  1  0  0  0  0
 28 27  1  6  0  0  0
 28 30  1  0  0  0  0
 29 32  1  6  0  0  0
 29 28  1  0  0  0  0
 29 30  1  0  0  0  0
 32 31  1  1  0  0  0
 33 34  1  0  0  0  0
 33 32  1  0  0  0  0
 35 34  1  0  0  0  0
 36 38  1  0  0  0  0
 37 36  2  0  0  0  0
 38 44  1  0  0  0  0
 39 40  1  0  0  0  0
 40 46  1  6  0  0  0
 41 43  2  0  0  0  0
 42 41  1  0  0  0  0
 43 40  1  0  0  0  0
 43 51  1  0  0  0  0
 44 45  1  0  0  0  0
 44 42  2  0  0  0  0
 45 39  2  0  0  0  0
 46 50  2  0  0  0  0
 46 48  1  0  0  0  0
 48 47  1  0  0  0  0
 49 47  2  0  0  0  0
 50 49  1  0  0  0  0
 52 55  1  0  0  0  0
 52 51  1  6  0  0  0
 53 56  1  1  0  0  0
 53 54  1  0  0  0  0
 53 58  1  0  0  0  0
 54 59  1  6  0  0  0
 54 57  1  0  0  0  0
 57 55  1  0  0  0  0
 58 52  1  0  0  0  0
 59 61  1  0  0  0  0
 60 59  2  0  0  0  0
M  END
>  <MODEL>
2

>  <REMARK>
 VINA RESULT:      -4.1      1.710      2.311
  Name = 
  18 active torsions:
  status: ('A' for Active; 'I' for Inactive)
    1  A    between atoms: C_1  and  C_6
    2  A    between atoms: C_1  and  C_45
    3  A    between atoms: C_7  and  C_23
    4  A    between atoms: C_8  and  C_19
    5  A    between atoms: C_8  and  C_42
    6  A    between atoms: C_10  and  C_20
    7  A    between atoms: C_11  and  C_12
    8  A    between atoms: C_14  and  C_15
    9  A    between atoms: C_23  and  C_43
   10  A    between atoms: C_24  and  C_51
   11  A    between atoms: C_25  and  C_32
   12  A    between atoms: N_30  and  C_32
   13  A    between atoms: C_32  and  C_33
   14  A    between atoms: C_41  and  C_59
   15  A    between atoms: C_42  and  C_46
   16  A    between atoms: C_51  and  C_52
   17  A    between atoms: C_52  and  C_54
   18  A    between atoms: C_53  and  C_59
                            x       y       z     vdW  Elec       q    Type
                         _______ _______ _______ _____ _____    ______ ____

>  <TORSDO>
F 18

$$$$
=
 OpenBabel11052412003D

 61 69  0  0  1  0  0  0  0  0999 V2000
  161.1040  210.8070  154.3840 C   0  0  1  0  0  3  0  0  0  0  0  0
  159.4710  212.8890  154.1640 C   0  0  0  0  0  1  0  0  0  0  0  0
  160.2780  211.7660  153.5160 C   0  0  1  0  0  0  0  0  0  0  0  0
  160.6520  211.8190  152.0780 C   0  0  1  0  0  3  0  0  0  0  0  0
  159.5330  211.0890  152.5340 O   0  0  0  0  0  0  0  0  0  0  0  0
  160.1850  213.0840  151.3670 C   0  0  0  0  0  2  0  0  0  0  0  0
  162.6330  214.3540  146.1910 C   0  0  0  0  0  1  0  0  0  0  0  0
  162.8060  213.4830  147.3470 N   0  0  0  0  0  0  0  0  0  0  0  0
  160.3470  214.3190  148.0830 C   0  0  1  0  0  3  0  0  0  0  0  0
  162.1000  211.5830  149.5230 O   0  0  0  0  0  0  0  0  0  0  0  0
  159.5620  214.0250  149.2400 O   0  0  0  0  0  0  0  0  0  0  0  0
  160.0680  212.8450  149.8690 C   0  0  1  0  0  3  0  0  0  0  0  0
  162.7640  214.3640  148.5310 C   0  0  0  0  0  2  0  0  0  0  0  0
  161.6170  213.5190  148.2280 C   0  0  2  0  0  0  0  0  0  0  0  0
  161.3910  212.5430  149.2660 C   0  0  0  0  0  0  0  0  0  0  0  0
  157.2990  213.4560  145.8630 C   0  0  0  0  0  0  0  0  0  0  0  0
  155.9590  213.6510  145.8480 F   0  0  0  0  0  0  0  0  0  0  0  0
  159.6090  213.9360  146.7900 C   0  0  2  0  0  3  0  0  0  0  0  0
  158.0970  213.9860  147.0330 C   0  0  0  0  0  2  0  0  0  0  0  0
  157.8440  212.6550  144.9330 C   0  0  0  0  0  3  0  0  0  0  0  0
  159.9850  212.5630  146.2320 C   0  0  0  0  0  2  0  0  0  0  0  0
  159.3250  212.3820  144.8690 C   0  0  0  0  0  2  0  0  0  0  0  0
  161.0230  210.2200  156.6910 C   0  0  0  0  0  2  0  0  0  0  0  0
  161.2760  211.3250  155.7490 N   0  0  0  0  0  0  0  0  0  0  0  0
  160.0300  211.2810  156.5660 C   0  0  1  0  0  3  0  0  0  0  0  0
  158.7910  210.7390  155.8500 C   0  0  0  0  0  2  0  0  0  0  0  0
  157.5400  211.1740  156.5870 C   0  0  0  0  0  2  0  0  0  0  0  0
  156.3150  210.7570  155.7850 C   0  0  2  0  0  3  0  0  0  0  0  0
  155.4210  211.9010  155.2780 C   0  0  1  0  0  3  0  0  0  0  0  0
  155.0670  211.1460  156.5520 C   0  0  0  0  0  2  0  0  0  0  0  0
  155.6730  213.7820  156.7990 O   0  0  0  0  0  1  0  0  0  0  0  0
  155.9360  213.3470  155.4970 C   0  0  2  0  0  3  0  0  0  0  0  0
  155.4810  214.3900  154.4700 C   0  0  0  0  0  2  0  0  0  0  0  0
  156.3540  214.3410  153.2230 C   0  0  0  0  0  2  0  0  0  0  0  0
  155.5630  214.4510  152.0830 O   0  0  0  0  0  1  0  0  0  0  0  0
  161.2770  208.3340  154.6010 C   0  0  0  0  0  3  0  0  0  0  0  0
  160.5220  209.4210  154.4200 C   0  0  0  0  0  3  0  0  0  0  0  0
  160.6780  206.9600  154.6410 C   0  0  0  0  0  2  0  0  0  0  0  0
  163.2340  205.7200  152.1320 C   0  0  0  0  0  3  0  0  0  0  0  0
  162.5320  205.3770  150.8550 C   0  0  1  0  0  3  0  0  0  0  0  0
  160.4900  204.3340  151.8440 C   0  0  0  0  0  3  0  0  0  0  0  0
  160.2720  205.3180  152.9170 C   0  0  0  0  0  3  0  0  0  0  0  0
  161.5080  204.2900  150.9810 C   0  0  0  0  0  0  0  0  0  0  0  0
  161.1750  206.1010  153.5220 C   0  0  0  0  0  0  0  0  0  0  0  0
  162.6320  206.0660  153.2700 C   0  0  0  0  0  3  0  0  0  0  0  0
  162.0260  206.5770  150.1120 C   0  0  0  0  0  0  0  0  0  0  0  0
  161.6820  208.2760  148.6580 N   0  0  0  0  0  0  0  0  0  0  0  0
  162.5520  207.1250  148.8290 C   0  0  0  0  0  3  0  0  0  0  0  0
  160.8710  208.3470  149.6330 N   0  0  0  0  0  0  0  0  0  0  0  0
  161.0630  207.3130  150.5500 N   0  0  0  0  0  2  0  0  0  0  0  0
  161.5180  203.2120  149.9430 C   0  0  0  0  0  2  0  0  0  0  0  0
  161.2380  203.7190  148.5260 C   0  0  1  0  0  3  0  0  0  0  0  0
  160.2870  202.9390  146.2650 C   0  0  1  0  0  3  0  0  0  0  0  0
  160.8240  204.3050  145.8130 C   0  0  1  0  0  3  0  0  0  0  0  0
  162.5160  203.8990  147.7020 C   0  0  0  0  0  2  0  0  0  0  0  0
  161.1030  201.9160  145.8070 F   0  0  0  0  0  0  0  0  0  0  0  0
  162.2220  204.6160  146.3720 C   0  0  0  0  0  2  0  0  0  0  0  0
  160.1840  202.8680  147.7940 C   0  0  0  0  0  2  0  0  0  0  0  0
  160.7850  204.4550  144.3260 C   0  0  0  0  0  0  0  0  0  0  0  0
  161.6070  205.2090  143.7350 O   0  0  0  0  0  1  0  0  0  0  0  0
  159.8520  203.7370  143.5890 O   0  0  0  0  0  0  0  0  0  0  0  0
  1 37  1  1  0  0  0
  1 24  1  0  0  0  0
  3  2  1  1  0  0  0
  3  1  1  0  0  0  0
  4  6  1  6  0  0  0
  4  5  1  0  0  0  0
  4  3  1  0  0  0  0
  5  3  1  0  0  0  0
  7  8  1  0  0  0  0
  8 14  1  0  0  0  0
  8 13  1  0  0  0  0
  9 14  1  0  0  0  0
  9 11  1  1  0  0  0
 11 12  1  0  0  0  0
 12  6  1  1  0  0  0
 14 13  1  1  0  0  0
 14 15  1  0  0  0  0
 15 10  2  0  0  0  0
 15 12  1  0  0  0  0
 16 19  1  0  0  0  0
 17 16  1  0  0  0  0
 18 21  1  1  0  0  0
 18 19  1  0  0  0  0
 18  9  1  0  0  0  0
 20 16  2  0  0  0  0
 22 20  1  0  0  0  0
 22 21  1  0  0  0  0
 24 25  1  0  0  0  0
 24 23  1  0  0  0  0
 25 26  1  6  0  0  0
 25 23  1  0  0  0  0
 26 27  1  0  0  0  0
 28 30  1  0  0  0  0
 28 27  1  1  0  0  0
 29 32  1  1  0  0  0
 29 28  1  0  0  0  0
 29 30  1  0  0  0  0
 32 31  1  1  0  0  0
 33 32  1  0  0  0  0
 34 33  1  0  0  0  0
 35 34  1  0  0  0  0
 36 38  1  0  0  0  0
 37 36  2  0  0  0  0
 39 45  2  0  0  0  0
 40 46  1  1  0  0  0
 40 43  1  0  0  0  0
 40 39  1  0  0  0  0
 41 42  1  0  0  0  0
 42 44  2  0  0  0  0
 43 41  2  0  0  0  0
 44 38  1  0  0  0  0
 45 44  1  0  0  0  0
 46 50  1  0  0  0  0
 47 48  1  0  0  0  0
 47 49  2  0  0  0  0
 48 46  2  0  0  0  0
 49 50  1  0  0  0  0
 51 43  1  0  0  0  0
 52 51  1  1  0  0  0
 53 56  1  1  0  0  0
 53 58  1  0  0  0  0
 54 59  1  6  0  0  0
 54 53  1  0  0  0  0
 54 57  1  0  0  0  0
 55 52  1  0  0  0  0
 57 55  1  0  0  0  0
 58 52  1  0  0  0  0
 60 59  1  0  0  0  0
 61 59  2  0  0  0  0
M  END
>  <MODEL>
3

>  <REMARK>
 VINA RESULT:      -3.9      3.605      8.566
  Name = 
  18 active torsions:
  status: ('A' for Active; 'I' for Inactive)
    1  A    between atoms: C_1  and  C_6
    2  A    between atoms: C_1  and  C_45
    3  A    between atoms: C_7  and  C_23
    4  A    between atoms: C_8  and  C_19
    5  A    between atoms: C_8  and  C_42
    6  A    between atoms: C_10  and  C_20
    7  A    between atoms: C_11  and  C_12
    8  A    between atoms: C_14  and  C_15
    9  A    between atoms: C_23  and  C_43
   10  A    between atoms: C_24  and  C_51
   11  A    between atoms: C_25  and  C_32
   12  A    between atoms: N_30  and  C_32
   13  A    between atoms: C_32  and  C_33
   14  A    between atoms: C_41  and  C_59
   15  A    between atoms: C_42  and  C_46
   16  A    between atoms: C_51  and  C_52
   17  A    between atoms: C_52  and  C_54
   18  A    between atoms: C_53  and  C_59
                            x       y       z     vdW  Elec       q    Type
                         _______ _______ _______ _____ _____    ______ ____

>  <TORSDO>
F 18

$$$$
=
 OpenBabel11052412003D

 61 69  0  0  1  0  0  0  0  0999 V2000
  161.0220  206.5000  152.0800 C   0  0  1  0  0  3  0  0  0  0  0  0
  163.4100  206.2840  150.9380 C   0  0  0  0  0  1  0  0  0  0  0  0
  162.1340  207.0820  151.1970 C   0  0  1  0  0  0  0  0  0  0  0  0
  161.7280  208.1940  150.2970 C   0  0  1  0  0  3  0  0  0  0  0  0
  162.4150  208.4250  151.5080 O   0  0  0  0  0  0  0  0  0  0  0  0
  162.6730  208.4110  149.1200 C   0  0  0  0  0  2  0  0  0  0  0  0
  160.0650  213.5760  150.0680 C   0  0  0  0  0  1  0  0  0  0  0  0
  161.1120  212.7170  150.6060 N   0  0  0  0  0  0  0  0  0  0  0  0
  160.8060  211.2810  148.3410 C   0  0  1  0  0  3  0  0  0  0  0  0
  163.4860  210.9260  150.6470 O   0  0  0  0  0  0  0  0  0  0  0  0
  161.4330  210.0750  147.9000 O   0  0  0  0  0  0  0  0  0  0  0  0
  162.6280  209.8590  148.6560 C   0  0  1  0  0  3  0  0  0  0  0  0
  160.4970  211.3850  150.7770 C   0  0  0  0  0  2  0  0  0  0  0  0
  161.4250  211.6080  149.6770 C   0  0  2  0  0  0  0  0  0  0  0  0
  162.6080  210.7940  149.8090 C   0  0  0  0  0  0  0  0  0  0  0  0
  160.4300  213.2030  145.0040 C   0  0  0  0  0  0  0  0  0  0  0  0
  159.5730  213.2730  143.9570 F   0  0  0  0  0  0  0  0  0  0  0  0
  161.0290  212.4290  147.3420 C   0  0  2  0  0  3  0  0  0  0  0  0
  160.1440  212.2130  146.1100 C   0  0  0  0  0  2  0  0  0  0  0  0
  161.5850  213.8850  144.9390 C   0  0  0  0  0  3  0  0  0  0  0  0
  162.4810  212.6000  146.8950 C   0  0  0  0  0  2  0  0  0  0  0  0
  162.5970  213.8690  146.0550 C   0  0  0  0  0  2  0  0  0  0  0  0
  162.0260  204.5950  151.0600 C   0  0  0  0  0  2  0  0  0  0  0  0
  161.0140  205.0310  152.0390 N   0  0  0  0  0  0  0  0  0  0  0  0
  160.6150  204.4710  150.7160 C   0  0  1  0  0  3  0  0  0  0  0  0
  160.2560  205.5040  149.6450 C   0  0  0  0  0  2  0  0  0  0  0  0
  161.1470  205.3180  148.4330 C   0  0  0  0  0  2  0  0  0  0  0  0
  160.4930  205.9740  147.2250 C   0  0  2  0  0  3  0  0  0  0  0  0
  160.8040  205.3340  145.8620 C   0  0  1  0  0  3  0  0  0  0  0  0
  161.5720  206.5600  146.3370 C   0  0  0  0  0  2  0  0  0  0  0  0
  162.8670  204.1840  145.2780 O   0  0  0  0  0  1  0  0  0  0  0  0
  161.6130  204.0110  145.8730 C   0  0  2  0  0  3  0  0  0  0  0  0
  160.9030  202.7780  145.3020 C   0  0  0  0  0  2  0  0  0  0  0  0
  160.7580  201.6960  146.3640 C   0  0  0  0  0  2  0  0  0  0  0  0
  160.7630  202.2690  147.6320 O   0  0  0  0  0  1  0  0  0  0  0  0
  160.4000  208.0290  153.9420 C   0  0  0  0  0  3  0  0  0  0  0  0
  161.1070  206.9840  153.5010 C   0  0  0  0  0  3  0  0  0  0  0  0
  160.4900  208.4930  155.3640 C   0  0  0  0  0  2  0  0  0  0  0  0
  159.2030  211.5120  157.2610 C   0  0  0  0  0  3  0  0  0  0  0  0
  158.2920  212.2930  156.3670 C   0  0  1  0  0  3  0  0  0  0  0  0
  159.5890  212.0560  154.2470 C   0  0  0  0  0  3  0  0  0  0  0  0
  159.9330  210.6330  154.3890 C   0  0  0  0  0  3  0  0  0  0  0  0
  158.9430  212.8250  155.1260 C   0  0  0  0  0  0  0  0  0  0  0  0
  160.0530  209.9150  155.5160 C   0  0  0  0  0  0  0  0  0  0  0  0
  159.9330  210.4620  156.8850 C   0  0  0  0  0  3  0  0  0  0  0  0
  156.9880  211.6030  156.0950 C   0  0  0  0  0  0  0  0  0  0  0  0
  155.3070  210.3260  155.2810 N   0  0  0  0  0  0  0  0  0  0  0  0
  156.7260  210.5560  155.0660 C   0  0  0  0  0  3  0  0  0  0  0  0
  154.8870  211.0840  156.2100 N   0  0  0  0  0  0  0  0  0  0  0  0
  155.9030  211.8880  156.7290 N   0  0  0  0  0  2  0  0  0  0  0  0
  158.6700  214.2510  154.7630 C   0  0  0  0  0  2  0  0  0  0  0  0
  157.7530  214.4120  153.5480 C   0  0  1  0  0  3  0  0  0  0  0  0
  155.3190  214.0300  152.8030 C   0  0  1  0  0  3  0  0  0  0  0  0
  155.9100  214.3870  151.4310 C   0  0  1  0  0  3  0  0  0  0  0  0
  158.0420  213.3810  152.4520 C   0  0  0  0  0  2  0  0  0  0  0  0
  155.0720  212.6690  152.8910 F   0  0  0  0  0  0  0  0  0  0  0  0
  157.2640  213.7080  151.1650 C   0  0  0  0  0  2  0  0  0  0  0  0
  156.2640  214.4530  153.9360 C   0  0  0  0  0  2  0  0  0  0  0  0
  154.9420  214.1290  150.3220 C   0  0  0  0  0  0  0  0  0  0  0  0
  153.6990  214.1220  150.5430 O   0  0  0  0  0  1  0  0  0  0  0  0
  155.4170  213.9210  149.0330 O   0  0  0  0  0  0  0  0  0  0  0  0
  1 37  1  1  0  0  0
  3  2  1  6  0  0  0
  3  5  1  0  0  0  0
  3  1  1  0  0  0  0
  4  6  1  6  0  0  0
  4  3  1  0  0  0  0
  4  5  1  0  0  0  0
  7  8  1  0  0  0  0
  8 13  1  0  0  0  0
  9 11  1  6  0  0  0
  9 14  1  0  0  0  0
 11 12  1  0  0  0  0
 12  6  1  1  0  0  0
 12 15  1  0  0  0  0
 14 15  1  0  0  0  0
 14  8  1  0  0  0  0
 14 13  1  1  0  0  0
 15 10  2  0  0  0  0
 16 19  1  0  0  0  0
 17 16  1  0  0  0  0
 18 19  1  6  0  0  0
 18  9  1  0  0  0  0
 20 16  2  0  0  0  0
 20 22  1  0  0  0  0
 21 18  1  0  0  0  0
 22 21  1  0  0  0  0
 23 24  1  0  0  0  0
 24  1  1  0  0  0  0
 25 26  1  6  0  0  0
 25 23  1  0  0  0  0
 25 24  1  0  0  0  0
 27 26  1  0  0  0  0
 28 27  1  1  0  0  0
 29 32  1  1  0  0  0
 29 30  1  0  0  0  0
 29 28  1  0  0  0  0
 30 28  1  0  0  0  0
 32 31  1  6  0  0  0
 33 32  1  0  0  0  0
 33 34  1  0  0  0  0
 34 35  1  0  0  0  0
 36 38  1  0  0  0  0
 37 36  2  0  0  0  0
 38 44  1  0  0  0  0
 40 46  1  6  0  0  0
 40 39  1  0  0  0  0
 41 42  1  0  0  0  0
 41 43  2  0  0  0  0
 42 44  2  0  0  0  0
 43 40  1  0  0  0  0
 44 45  1  0  0  0  0
 45 39  2  0  0  0  0
 46 50  1  0  0  0  0
 47 49  2  0  0  0  0
 48 47  1  0  0  0  0
 48 46  2  0  0  0  0
 49 50  1  0  0  0  0
 51 43  1  0  0  0  0
 52 58  1  0  0  0  0
 52 51  1  1  0  0  0
 53 56  1  6  0  0  0
 53 58  1  0  0  0  0
 54 59  1  6  0  0  0
 54 53  1  0  0  0  0
 55 52  1  0  0  0  0
 57 54  1  0  0  0  0
 57 55  1  0  0  0  0
 59 60  1  0  0  0  0
 61 59  2  0  0  0  0
M  END
>  <MODEL>
4

>  <REMARK>
 VINA RESULT:      -3.9      3.302      6.741
  Name = 
  18 active torsions:
  status: ('A' for Active; 'I' for Inactive)
    1  A    between atoms: C_1  and  C_6
    2  A    between atoms: C_1  and  C_45
    3  A    between atoms: C_7  and  C_23
    4  A    between atoms: C_8  and  C_19
    5  A    between atoms: C_8  and  C_42
    6  A    between atoms: C_10  and  C_20
    7  A    between atoms: C_11  and  C_12
    8  A    between atoms: C_14  and  C_15
    9  A    between atoms: C_23  and  C_43
   10  A    between atoms: C_24  and  C_51
   11  A    between atoms: C_25  and  C_32
   12  A    between atoms: N_30  and  C_32
   13  A    between atoms: C_32  and  C_33
   14  A    between atoms: C_41  and  C_59
   15  A    between atoms: C_42  and  C_46
   16  A    between atoms: C_51  and  C_52
   17  A    between atoms: C_52  and  C_54
   18  A    between atoms: C_53  and  C_59
                            x       y       z     vdW  Elec       q    Type
                         _______ _______ _______ _____ _____    ______ ____

>  <TORSDO>
F 18

$$$$
=
 OpenBabel11052412003D

 61 69  0  0  1  0  0  0  0  0999 V2000
  161.2510  211.0500  154.7610 C   0  0  1  0  0  3  0  0  0  0  0  0
  159.6960  213.2020  154.7630 C   0  0  0  0  0  1  0  0  0  0  0  0
  160.3040  212.0090  154.0280 C   0  0  1  0  0  0  0  0  0  0  0  0
  160.3740  211.9760  152.5430 C   0  0  1  0  0  3  0  0  0  0  0  0
  159.3440  211.3270  153.2590 O   0  0  0  0  0  0  0  0  0  0  0  0
  159.8230  213.2300  151.8720 C   0  0  0  0  0  2  0  0  0  0  0  0
  162.0540  214.3780  146.5720 C   0  0  0  0  0  1  0  0  0  0  0  0
  162.2470  213.5010  147.7200 N   0  0  0  0  0  0  0  0  0  0  0  0
  159.8710  214.4520  148.5800 C   0  0  1  0  0  3  0  0  0  0  0  0
  161.5670  211.6380  149.9370 O   0  0  0  0  0  0  0  0  0  0  0  0
  159.1350  214.1960  149.7780 O   0  0  0  0  0  0  0  0  0  0  0  0
  159.6170  212.9940  150.3840 C   0  0  1  0  0  3  0  0  0  0  0  0
  162.3070  214.3850  148.9020 C   0  0  0  0  0  2  0  0  0  0  0  0
  161.1080  213.5930  148.6620 C   0  0  2  0  0  0  0  0  0  0  0  0
  160.8910  212.6300  149.7140 C   0  0  0  0  0  0  0  0  0  0  0  0
  156.6690  213.8170  146.5030 C   0  0  0  0  0  0  0  0  0  0  0  0
  155.3540  214.1390  146.5320 F   0  0  0  0  0  0  0  0  0  0  0  0
  159.0490  214.1030  147.3280 C   0  0  2  0  0  3  0  0  0  0  0  0
  157.5590  214.3040  147.6250 C   0  0  0  0  0  2  0  0  0  0  0  0
  157.1000  212.9400  145.5820 C   0  0  0  0  0  3  0  0  0  0  0  0
  159.2720  212.6830  146.8050 C   0  0  0  0  0  2  0  0  0  0  0  0
  158.5440  212.5250  145.4730 C   0  0  0  0  0  2  0  0  0  0  0  0
  160.9580  210.0040  156.8810 C   0  0  0  0  0  2  0  0  0  0  0  0
  161.2430  211.2860  156.2120 N   0  0  0  0  0  0  0  0  0  0  0  0
  159.9220  211.0290  156.8520 C   0  0  1  0  0  3  0  0  0  0  0  0
  158.8020  210.5980  155.9010 C   0  0  0  0  0  2  0  0  0  0  0  0
  157.4660  211.0850  156.4260 C   0  0  0  0  0  2  0  0  0  0  0  0
  156.3850  210.7920  155.3960 C   0  0  2  0  0  3  0  0  0  0  0  0
  155.3820  211.9270  155.1310 C   0  0  1  0  0  3  0  0  0  0  0  0
  155.0340  210.7910  156.0830 C   0  0  0  0  0  2  0  0  0  0  0  0
  154.5030  213.8140  156.3900 O   0  0  0  0  0  1  0  0  0  0  0  0
  155.6640  213.2900  155.8140 C   0  0  2  0  0  3  0  0  0  0  0  0
  156.3710  214.3440  154.9550 C   0  0  0  0  0  2  0  0  0  0  0  0
  155.7190  214.4530  153.5830 C   0  0  0  0  0  2  0  0  0  0  0  0
  156.6180  214.0630  152.5960 O   0  0  0  0  0  1  0  0  0  0  0  0
  161.9110  208.7050  154.2500 C   0  0  0  0  0  3  0  0  0  0  0  0
  160.9480  209.6070  154.4630 C   0  0  0  0  0  3  0  0  0  0  0  0
  161.5910  207.2690  153.9630 C   0  0  0  0  0  2  0  0  0  0  0  0
  159.9190  206.4030  150.6740 C   0  0  0  0  0  3  0  0  0  0  0  0
  160.8390  205.5330  149.8770 C   0  0  1  0  0  3  0  0  0  0  0  0
  162.9830  206.6870  150.4310 C   0  0  0  0  0  3  0  0  0  0  0  0
  162.7290  206.8880  151.8660 C   0  0  0  0  0  3  0  0  0  0  0  0
  162.1490  206.1710  149.5250 C   0  0  0  0  0  0  0  0  0  0  0  0
  161.5490  206.9900  152.4940 C   0  0  0  0  0  0  0  0  0  0  0  0
  160.2300  206.9990  151.8250 C   0  0  0  0  0  3  0  0  0  0  0  0
  160.9930  204.1520  150.4420 C   0  0  0  0  0  0  0  0  0  0  0  0
  161.5990  202.3130  151.6120 N   0  0  0  0  0  0  0  0  0  0  0  0
  161.8700  203.7400  151.5750 C   0  0  0  0  0  2  0  0  0  0  0  0
  160.7690  202.0120  150.6990 N   0  0  0  0  0  0  0  0  0  0  0  0
  160.3800  203.1280  149.9570 N   0  0  0  0  0  0  0  0  0  0  0  0
  162.6260  206.0290  148.1130 C   0  0  0  0  0  2  0  0  0  0  0  0
  161.6590  205.2580  147.2110 C   0  0  1  0  0  3  0  0  0  0  0  0
  161.1190  202.8670  146.4250 C   0  0  1  0  0  3  0  0  0  0  0  0
  160.1790  203.6240  145.4750 C   0  0  1  0  0  3  0  0  0  0  0  0
  161.9460  205.4710  145.7220 C   0  0  0  0  0  2  0  0  0  0  0  0
  162.2310  202.3980  145.7430 F   0  0  0  0  0  0  0  0  0  0  0  0
  160.8300  204.8690  144.8500 C   0  0  0  0  0  2  0  0  0  0  0  0
  161.5700  203.7670  147.5830 C   0  0  0  0  0  2  0  0  0  0  0  0
  159.6020  202.7260  144.4280 C   0  0  0  0  0  0  0  0  0  0  0  0
  158.9360  203.2040  143.4680 O   0  0  0  0  0  0  0  0  0  0  0  0
  159.8270  201.3570  144.5000 O   0  0  0  0  0  1  0  0  0  0  0  0
  1 37  1  1  0  0  0
  1 24  1  0  0  0  0
  3  1  1  0  0  0  0
  3  2  1  1  0  0  0
  4  6  1  6  0  0  0
  4  5  1  0  0  0  0
  4  3  1  0  0  0  0
  5  3  1  0  0  0  0
  7  8  1  0  0  0  0
  8 14  1  0  0  0  0
  8 13  1  0  0  0  0
  9 14  1  0  0  0  0
  9 11  1  1  0  0  0
 11 12  1  0  0  0  0
 12  6  1  1  0  0  0
 14 13  1  1  0  0  0
 14 15  1  0  0  0  0
 15 10  2  0  0  0  0
 15 12  1  0  0  0  0
 16 17  1  0  0  0  0
 16 19  1  0  0  0  0
 18 21  1  1  0  0  0
 18 19  1  0  0  0  0
 18  9  1  0  0  0  0
 20 16  2  0  0  0  0
 22 20  1  0  0  0  0
 22 21  1  0  0  0  0
 24 25  1  0  0  0  0
 24 23  1  0  0  0  0
 25 26  1  6  0  0  0
 25 23  1  0  0  0  0
 26 27  1  0  0  0  0
 28 30  1  0  0  0  0
 28 27  1  1  0  0  0
 29 28  1  0  0  0  0
 29 32  1  1  0  0  0
 29 30  1  0  0  0  0
 32 31  1  6  0  0  0
 33 32  1  0  0  0  0
 34 33  1  0  0  0  0
 35 34  1  0  0  0  0
 36 37  2  0  0  0  0
 38 36  1  0  0  0  0
 39 45  2  0  0  0  0
 40 46  1  1  0  0  0
 40 39  1  0  0  0  0
 41 42  1  0  0  0  0
 42 44  2  0  0  0  0
 43 40  1  0  0  0  0
 43 41  2  0  0  0  0
 44 38  1  0  0  0  0
 45 44  1  0  0  0  0
 46 48  1  0  0  0  0
 48 47  1  0  0  0  0
 49 47  2  0  0  0  0
 50 46  2  0  0  0  0
 50 49  1  0  0  0  0
 51 43  1  0  0  0  0
 52 58  1  0  0  0  0
 52 51  1  1  0  0  0
 53 56  1  6  0  0  0
 53 58  1  0  0  0  0
 54 59  1  6  0  0  0
 54 53  1  0  0  0  0
 55 52  1  0  0  0  0
 57 54  1  0  0  0  0
 57 55  1  0  0  0  0
 59 61  1  0  0  0  0
 60 59  2  0  0  0  0
M  END
>  <MODEL>
5

>  <REMARK>
 VINA RESULT:      -2.8      3.904      8.919
  Name = 
  18 active torsions:
  status: ('A' for Active; 'I' for Inactive)
    1  A    between atoms: C_1  and  C_6
    2  A    between atoms: C_1  and  C_45
    3  A    between atoms: C_7  and  C_23
    4  A    between atoms: C_8  and  C_19
    5  A    between atoms: C_8  and  C_42
    6  A    between atoms: C_10  and  C_20
    7  A    between atoms: C_11  and  C_12
    8  A    between atoms: C_14  and  C_15
    9  A    between atoms: C_23  and  C_43
   10  A    between atoms: C_24  and  C_51
   11  A    between atoms: C_25  and  C_32
   12  A    between atoms: N_30  and  C_32
   13  A    between atoms: C_32  and  C_33
   14  A    between atoms: C_41  and  C_59
   15  A    between atoms: C_42  and  C_46
   16  A    between atoms: C_51  and  C_52
   17  A    between atoms: C_52  and  C_54
   18  A    between atoms: C_53  and  C_59
                            x       y       z     vdW  Elec       q    Type
                         _______ _______ _______ _____ _____    ______ ____

>  <TORSDO>
F 18

$$$$
=
 OpenBabel11052412003D

 61 69  0  0  1  0  0  0  0  0999 V2000
  161.1890  207.0270  152.6230 C   0  0  1  0  0  3  0  0  0  0  0  0
  162.4750  208.5250  150.8480 C   0  0  0  0  0  1  0  0  0  0  0  0
  161.2740  207.6610  151.2280 C   0  0  1  0  0  0  0  0  0  0  0  0
  160.4080  207.0490  150.1870 C   0  0  1  0  0  3  0  0  0  0  0  0
  160.0610  208.2530  150.8350 O   0  0  0  0  0  0  0  0  0  0  0  0
  160.8570  207.3440  148.7590 C   0  0  0  0  0  2  0  0  0  0  0  0
  163.7170  204.0180  144.8680 C   0  0  0  0  0  1  0  0  0  0  0  0
  163.6260  204.2660  146.3020 N   0  0  0  0  0  0  0  0  0  0  0  0
  161.4350  205.7220  145.6990 C   0  0  1  0  0  3  0  0  0  0  0  0
  162.3910  204.7130  148.9690 O   0  0  0  0  0  0  0  0  0  0  0  0
  160.5630  206.4950  146.5270 O   0  0  0  0  0  0  0  0  0  0  0  0
  160.7330  206.1020  147.8910 C   0  0  1  0  0  3  0  0  0  0  0  0
  163.7680  205.7260  146.4720 C   0  0  0  0  0  2  0  0  0  0  0  0
  162.4560  205.1130  146.6260 C   0  0  2  0  0  0  0  0  0  0  0  0
  161.9560  205.2640  147.9710 C   0  0  0  0  0  0  0  0  0  0  0  0
  158.3390  203.9530  144.1980 C   0  0  0  0  0  0  0  0  0  0  0  0
  157.0840  204.2610  143.7930 F   0  0  0  0  0  0  0  0  0  0  0  0
  160.6670  204.6270  144.9400 C   0  0  2  0  0  3  0  0  0  0  0  0
  159.2030  205.0490  144.7800 C   0  0  0  0  0  2  0  0  0  0  0  0
  158.7090  202.6620  144.2300 C   0  0  0  0  0  3  0  0  0  0  0  0
  160.7260  203.2470  145.5960 C   0  0  0  0  0  2  0  0  0  0  0  0
  160.0840  202.2250  144.6620 C   0  0  0  0  0  2  0  0  0  0  0  0
  162.8150  205.5530  151.6970 C   0  0  0  0  0  2  0  0  0  0  0  0
  162.3890  206.2360  152.9320 N   0  0  0  0  0  0  0  0  0  0  0  0
  162.1980  204.7680  152.7590 C   0  0  1  0  0  3  0  0  0  0  0  0
  160.7960  204.3320  152.3240 C   0  0  0  0  0  2  0  0  0  0  0  0
  160.8780  203.5680  151.0190 C   0  0  0  0  0  2  0  0  0  0  0  0
  161.2870  202.1290  151.3040 C   0  0  2  0  0  3  0  0  0  0  0  0
  160.7900  201.0770  150.2990 C   0  0  1  0  0  3  0  0  0  0  0  0
  160.0460  201.3130  151.6060 C   0  0  0  0  0  2  0  0  0  0  0  0
  158.8080  201.0060  148.8910 O   0  0  0  0  0  1  0  0  0  0  0  0
  160.0660  201.5990  149.0310 C   0  0  2  0  0  3  0  0  0  0  0  0
  160.8560  201.5210  147.7200 C   0  0  0  0  0  2  0  0  0  0  0  0
  161.7010  200.2550  147.6710 C   0  0  0  0  0  2  0  0  0  0  0  0
  161.3660  199.5020  146.5490 O   0  0  0  0  0  1  0  0  0  0  0  0
  160.5480  209.2930  153.4270 C   0  0  0  0  0  3  0  0  0  0  0  0
  160.9410  208.0460  153.7010 C   0  0  0  0  0  3  0  0  0  0  0  0
  160.2980  210.2940  154.5150 C   0  0  0  0  0  2  0  0  0  0  0  0
  159.1560  213.9070  154.5900 C   0  0  0  0  0  3  0  0  0  0  0  0
  157.7510  213.9820  154.0790 C   0  0  1  0  0  3  0  0  0  0  0  0
  157.9580  212.3120  152.2340 C   0  0  0  0  0  3  0  0  0  0  0  0
  158.7420  211.3080  152.9690 C   0  0  0  0  0  3  0  0  0  0  0  0
  157.5780  213.5170  152.6640 C   0  0  0  0  0  0  0  0  0  0  0  0
  159.5670  211.4970  154.0090 C   0  0  0  0  0  0  0  0  0  0  0  0
  159.9180  212.8130  154.5840 C   0  0  0  0  0  3  0  0  0  0  0  0
  156.7430  213.3890  155.0180 C   0  0  0  0  0  0  0  0  0  0  0  0
  155.4180  212.8760  156.7780 N   0  0  0  0  0  0  0  0  0  0  0  0
  156.4210  213.8550  156.3980 C   0  0  0  0  0  2  0  0  0  0  0  0
  155.2380  212.0550  155.8260 N   0  0  0  0  0  0  0  0  0  0  0  0
  156.0480  212.3450  154.7260 N   0  0  0  0  0  0  0  0  0  0  0  0
  156.7530  214.3740  151.7560 C   0  0  0  0  0  2  0  0  0  0  0  0
  157.2900  214.4490  150.3240 C   0  0  1  0  0  3  0  0  0  0  0  0
  156.8910  213.4780  147.9740 C   0  0  1  0  0  3  0  0  0  0  0  0
  158.2020  214.2190  147.6800 C   0  0  1  0  0  3  0  0  0  0  0  0
  158.6450  213.7510  150.1670 C   0  0  0  0  0  2  0  0  0  0  0  0
  157.1070  212.1110  148.0530 F   0  0  0  0  0  0  0  0  0  0  0  0
  159.2580  214.0350  148.7840 C   0  0  0  0  0  2  0  0  0  0  0  0
  156.2610  213.9730  149.2830 C   0  0  0  0  0  2  0  0  0  0  0  0
  158.7530  213.8680  146.3360 C   0  0  0  0  0  0  0  0  0  0  0  0
  157.9970  213.8180  145.3250 O   0  0  0  0  0  0  0  0  0  0  0  0
  160.1130  213.6220  146.1950 O   0  0  0  0  0  1  0  0  0  0  0  0
  1 24  1  0  0  0  0
  1 37  1  1  0  0  0
  3  2  1  6  0  0  0
  3  1  1  0  0  0  0
  4  6  1  6  0  0  0
  4  5  1  0  0  0  0
  4  3  1  0  0  0  0
  5  3  1  0  0  0  0
  7  8  1  0  0  0  0
  8 13  1  0  0  0  0
  8 14  1  0  0  0  0
  9 11  1  1  0  0  0
  9 14  1  0  0  0  0
 11 12  1  0  0  0  0
 12 15  1  0  0  0  0
 12  6  1  1  0  0  0
 14 13  1  1  0  0  0
 14 15  1  0  0  0  0
 15 10  2  0  0  0  0
 16 20  2  0  0  0  0
 16 19  1  0  0  0  0
 17 16  1  0  0  0  0
 18 19  1  1  0  0  0
 18 21  1  0  0  0  0
 18  9  1  0  0  0  0
 20 22  1  0  0  0  0
 22 21  1  0  0  0  0
 23 25  1  0  0  0  0
 23 24  1  0  0  0  0
 25 26  1  6  0  0  0
 25 24  1  0  0  0  0
 27 26  1  0  0  0  0
 28 27  1  6  0  0  0
 28 30  1  0  0  0  0
 29 32  1  6  0  0  0
 29 28  1  0  0  0  0
 29 30  1  0  0  0  0
 32 31  1  6  0  0  0
 33 32  1  0  0  0  0
 34 33  1  0  0  0  0
 35 34  1  0  0  0  0
 36 37  2  0  0  0  0
 36 38  1  0  0  0  0
 40 39  1  0  0  0  0
 40 46  1  1  0  0  0
 41 43  2  0  0  0  0
 41 42  1  0  0  0  0
 42 44  2  0  0  0  0
 43 40  1  0  0  0  0
 44 38  1  0  0  0  0
 44 45  1  0  0  0  0
 45 39  2  0  0  0  0
 46 48  1  0  0  0  0
 48 47  1  0  0  0  0
 49 47  2  0  0  0  0
 50 46  2  0  0  0  0
 50 49  1  0  0  0  0
 51 43  1  0  0  0  0
 52 51  1  1  0  0  0
 53 56  1  1  0  0  0
 53 58  1  0  0  0  0
 54 59  1  6  0  0  0
 54 53  1  0  0  0  0
 54 57  1  0  0  0  0
 55 52  1  0  0  0  0
 57 55  1  0  0  0  0
 58 52  1  0  0  0  0
 60 59  2  0  0  0  0
 61 59  1  0  0  0  0
M  END
>  <MODEL>
6

>  <REMARK>
 VINA RESULT:      -2.2      3.857      7.547
  Name = 
  18 active torsions:
  status: ('A' for Active; 'I' for Inactive)
    1  A    between atoms: C_1  and  C_6
    2  A    between atoms: C_1  and  C_45
    3  A    between atoms: C_7  and  C_23
    4  A    between atoms: C_8  and  C_19
    5  A    between atoms: C_8  and  C_42
    6  A    between atoms: C_10  and  C_20
    7  A    between atoms: C_11  and  C_12
    8  A    between atoms: C_14  and  C_15
    9  A    between atoms: C_23  and  C_43
   10  A    between atoms: C_24  and  C_51
   11  A    between atoms: C_25  and  C_32
   12  A    between atoms: N_30  and  C_32
   13  A    between atoms: C_32  and  C_33
   14  A    between atoms: C_41  and  C_59
   15  A    between atoms: C_42  and  C_46
   16  A    between atoms: C_51  and  C_52
   17  A    between atoms: C_52  and  C_54
   18  A    between atoms: C_53  and  C_59
                            x       y       z     vdW  Elec       q    Type
                         _______ _______ _______ _____ _____    ______ ____

>  <TORSDO>
F 18

$$$$
