=
 OpenBabel11042422323D

 26 28  0  0  1  0  0  0  0  0999 V2000
  161.4800  208.1050  150.1760 N   0  0  0  0  0  2  0  0  0  0  0  0
  161.8070  206.7600  150.5390 C   0  0  0  0  0  0  0  0  0  0  0  0
  162.0110  210.3480  150.4110 O   0  0  0  0  0  0  0  0  0  0  0  0
  161.7220  209.2630  150.9850 C   0  0  0  0  0  0  0  0  0  0  0  0
  162.5890  206.5230  151.5000 O   0  0  0  0  0  0  0  0  0  0  0  0
  160.7940  208.1970  154.4920 C   0  0  0  0  0  0  0  0  0  0  0  0
  161.3030  209.2850  155.2270 C   0  0  0  0  0  0  0  0  0  0  0  0
  161.5870  209.2390  152.4570 C   0  0  1  0  0  3  0  0  0  0  0  0
  160.5530  208.2990  157.2510 C   0  0  0  0  0  3  0  0  0  0  0  0
  161.1700  209.3090  156.5800 N   0  0  0  0  0  0  0  0  0  0  0  0
  160.0350  207.2020  156.5540 C   0  0  0  0  0  3  0  0  0  0  0  0
  162.0660  210.3100  153.2280 C   0  0  0  0  0  3  0  0  0  0  0  0
  161.9190  210.3090  154.5800 N   0  0  0  0  0  0  0  0  0  0  0  0
  160.1570  207.1530  155.1630 C   0  0  0  0  0  2  0  0  0  0  0  0
  160.9340  208.1820  153.1060 C   0  0  0  0  0  3  0  0  0  0  0  0
  161.2320  205.6330  149.7520 C   0  0  1  0  0  3  0  0  0  0  0  0
  160.2230  205.0210  150.4750 F   0  0  0  0  0  0  0  0  0  0  0  0
  160.6990  206.1500  148.4240 C   0  0  0  0  0  2  0  0  0  0  0  0
  160.9920  205.1700  147.3010 C   0  0  0  0  0  2  0  0  0  0  0  0
  161.8400  204.0030  147.8150 C   0  0  0  0  0  2  0  0  0  0  0  0
  161.6310  202.7530  147.0700 N   0  0  0  0  0  0  0  0  0  0  0  0
  160.6050  201.9470  147.7270 C   0  0  0  0  0  3  0  0  0  0  0  0
  160.8150  201.9790  149.2300 C   0  0  0  0  0  2  0  0  0  0  0  0
  161.2550  200.7710  148.4340 C   0  0  0  0  0  2  0  0  0  0  0  0
  160.3850  201.9600  145.2020 N   0  0  0  0  0  1  0  0  0  0  0  0
  161.1800  203.0610  145.7170 C   0  0  0  0  0  2  0  0  0  0  0  0
  1  2  1  0  0  0  0
  1  4  1  0  0  0  0
  2  5  2  0  0  0  0
  3  4  2  0  0  0  0
  6 14  1  0  0  0  0
  6  7  1  0  0  0  0
  7 10  2  0  0  0  0
  8  4  1  6  0  0  0
  8 15  1  0  0  0  0
  8 12  1  0  0  0  0
 10  9  1  0  0  0  0
 11  9  2  0  0  0  0
 12 13  2  0  0  0  0
 13  7  1  0  0  0  0
 14 11  1  0  0  0  0
 15  6  2  0  0  0  0
 16 17  1  1  0  0  0
 16  2  1  0  0  0  0
 18 16  1  0  0  0  0
 19 20  1  0  0  0  0
 19 18  1  0  0  0  0
 21 22  1  0  0  0  0
 21 20  1  0  0  0  0
 22 24  1  0  0  0  0
 22 23  1  0  0  0  0
 24 23  1  0  0  0  0
 25 26  1  0  0  0  0
 26 21  1  0  0  0  0
M  END
>  <MODEL>
1

>  <REMARK>
 VINA RESULT:      -7.7      0.000      0.000
  Name = 
  8 active torsions:
  status: ('A' for Active; 'I' for Inactive)
    1  A    between atoms: C_1  and  C_10
    2  A    between atoms: C_1  and  C_21
    3  A    between atoms: C_3  and  C_21
    4  A    between atoms: C_3  and  C_23
    5  A    between atoms: C_5  and  N_18
    6  A    between atoms: C_8  and  C_14
    7  A    between atoms: N_18  and  C_23
    8  A    between atoms: N_18  and  C_24
                            x       y       z     vdW  Elec       q    Type
                         _______ _______ _______ _____ _____    ______ ____

>  <TORSDO>
F 8

$$$$
=
 OpenBabel11042422323D

 26 28  0  0  1  0  0  0  0  0999 V2000
  161.2690  206.2020  150.3550 N   0  0  0  0  0  2  0  0  0  0  0  0
  161.8920  205.2980  151.2720 C   0  0  0  0  0  0  0  0  0  0  0  0
  161.3900  208.2570  149.2910 O   0  0  0  0  0  0  0  0  0  0  0  0
  161.3940  207.6290  150.3840 C   0  0  0  0  0  0  0  0  0  0  0  0
  162.8290  205.6850  152.0230 O   0  0  0  0  0  0  0  0  0  0  0  0
  160.8880  208.6750  153.9830 C   0  0  0  0  0  0  0  0  0  0  0  0
  161.5890  209.8970  153.9890 C   0  0  0  0  0  0  0  0  0  0  0  0
  161.4690  208.3880  151.6510 C   0  0  1  0  0  3  0  0  0  0  0  0
  161.0550  210.2190  156.2790 C   0  0  0  0  0  3  0  0  0  0  0  0
  161.6530  210.6350  155.1300 N   0  0  0  0  0  0  0  0  0  0  0  0
  160.3490  209.0110  156.3100 C   0  0  0  0  0  3  0  0  0  0  0  0
  162.1440  209.6180  151.6990 C   0  0  0  0  0  3  0  0  0  0  0  0
  162.1930  210.3360  152.8530 N   0  0  0  0  0  0  0  0  0  0  0  0
  160.2660  208.2350  155.1520 C   0  0  0  0  0  2  0  0  0  0  0  0
  160.8270  207.9280  152.8090 C   0  0  0  0  0  3  0  0  0  0  0  0
  161.4400  203.8790  151.3170 C   0  0  1  0  0  3  0  0  0  0  0  0
  160.8560  203.6090  152.5430 F   0  0  0  0  0  0  0  0  0  0  0  0
  160.4560  203.6140  150.1870 C   0  0  0  0  0  2  0  0  0  0  0  0
  161.0990  202.7880  149.0870 C   0  0  0  0  0  2  0  0  0  0  0  0
  161.5830  203.6930  147.9500 C   0  0  0  0  0  2  0  0  0  0  0  0
  161.0260  203.3350  146.6370 N   0  0  0  0  0  0  0  0  0  0  0  0
  161.9540  203.7220  145.5780 C   0  0  0  0  0  3  0  0  0  0  0  0
  162.5440  205.0870  145.8900 C   0  0  0  0  0  2  0  0  0  0  0  0
  161.4340  204.9620  144.8710 C   0  0  0  0  0  2  0  0  0  0  0  0
  160.3090  201.5280  145.2610 N   0  0  0  0  0  1  0  0  0  0  0  0
  160.8250  201.8910  146.5700 C   0  0  0  0  0  2  0  0  0  0  0  0
  1  4  1  0  0  0  0
  1  2  1  0  0  0  0
  2 16  1  0  0  0  0
  2  5  2  0  0  0  0
  3  4  2  0  0  0  0
  6  7  1  0  0  0  0
  6 14  1  0  0  0  0
  7 10  2  0  0  0  0
  8  4  1  6  0  0  0
  8 12  1  0  0  0  0
  8 15  1  0  0  0  0
  9 11  2  0  0  0  0
 10  9  1  0  0  0  0
 12 13  2  0  0  0  0
 13  7  1  0  0  0  0
 14 11  1  0  0  0  0
 15  6  2  0  0  0  0
 16 17  1  1  0  0  0
 18 16  1  0  0  0  0
 19 18  1  0  0  0  0
 20 19  1  0  0  0  0
 21 20  1  0  0  0  0
 22 23  1  0  0  0  0
 22 21  1  0  0  0  0
 24 22  1  0  0  0  0
 24 23  1  0  0  0  0
 25 26  1  0  0  0  0
 26 21  1  0  0  0  0
M  END
>  <MODEL>
2

>  <REMARK>
 VINA RESULT:      -7.7      1.460      2.304
  Name = 
  8 active torsions:
  status: ('A' for Active; 'I' for Inactive)
    1  A    between atoms: C_1  and  C_10
    2  A    between atoms: C_1  and  C_21
    3  A    between atoms: C_3  and  C_21
    4  A    between atoms: C_3  and  C_23
    5  A    between atoms: C_5  and  N_18
    6  A    between atoms: C_8  and  C_14
    7  A    between atoms: N_18  and  C_23
    8  A    between atoms: N_18  and  C_24
                            x       y       z     vdW  Elec       q    Type
                         _______ _______ _______ _____ _____    ______ ____

>  <TORSDO>
F 8

$$$$
=
 OpenBabel11042422323D

 26 28  0  0  1  0  0  0  0  0999 V2000
  161.0740  206.6170  151.6600 N   0  0  0  0  0  2  0  0  0  0  0  0
  162.0430  207.5500  151.1700 C   0  0  0  0  0  0  0  0  0  0  0  0
  160.5410  204.3870  151.9920 O   0  0  0  0  0  0  0  0  0  0  0  0
  160.8900  205.2820  151.1750 C   0  0  0  0  0  0  0  0  0  0  0  0
  162.9990  207.1640  150.4430 O   0  0  0  0  0  0  0  0  0  0  0  0
  160.8530  205.5020  147.4000 C   0  0  0  0  0  0  0  0  0  0  0  0
  161.2740  204.2000  147.0690 C   0  0  0  0  0  0  0  0  0  0  0  0
  161.0390  204.9350  149.7450 C   0  0  0  0  0  0  0  0  0  0  0  0
  161.1170  204.7100  144.7570 C   0  0  0  0  0  3  0  0  0  0  0  0
  161.3940  203.8380  145.7640 N   0  0  0  0  0  0  0  0  0  0  0  0
  160.6950  206.0120  145.0480 C   0  0  0  0  0  3  0  0  0  0  0  0
  161.4420  203.6440  149.3700 C   0  0  0  0  0  3  0  0  0  0  0  0
  161.5540  203.3080  148.0570 N   0  0  0  0  0  0  0  0  0  0  0  0
  160.5620  206.4090  146.3800 C   0  0  0  0  0  3  0  0  0  0  0  0
  160.7320  205.8620  148.7400 C   0  0  0  0  0  3  0  0  0  0  0  0
  161.9270  208.9870  151.5460 C   0  0  1  0  0  3  0  0  0  0  0  0
  161.9920  209.7770  150.4120 F   0  0  0  0  0  0  0  0  0  0  0  0
  160.6180  209.2230  152.2860 C   0  0  0  0  0  2  0  0  0  0  0  0
  160.7700  210.3190  153.3260 C   0  0  0  0  0  2  0  0  0  0  0  0
  160.0950  209.9100  154.6390 C   0  0  0  0  0  2  0  0  0  0  0  0
  161.0440  209.6500  155.7310 N   0  0  0  0  0  0  0  0  0  0  0  0
  161.3890  208.2310  155.7650 C   0  0  0  0  0  3  0  0  0  0  0  0
  160.1270  207.3960  155.6440 C   0  0  0  0  0  2  0  0  0  0  0  0
  160.7760  207.5860  156.9960 C   0  0  0  0  0  2  0  0  0  0  0  0
  163.0460  210.4620  156.7320 N   0  0  0  0  0  1  0  0  0  0  0  0
  162.2660  210.4170  155.5080 C   0  0  0  0  0  2  0  0  0  0  0  0
  2 16  1  0  0  0  0
  2  1  1  0  0  0  0
  4  1  1  0  0  0  0
  4  3  2  0  0  0  0
  5  2  2  0  0  0  0
  6 15  1  0  0  0  0
  7  6  1  0  0  0  0
  7 13  1  0  0  0  0
  8  4  1  0  0  0  0
  9 11  2  0  0  0  0
  9 10  1  0  0  0  0
 10  7  2  0  0  0  0
 11 14  1  0  0  0  0
 12  8  1  0  0  0  0
 13 12  2  0  0  0  0
 14  6  2  0  0  0  0
 15  8  2  0  0  0  0
 16 17  1  6  0  0  0
 16 18  1  0  0  0  0
 18 19  1  0  0  0  0
 19 20  1  0  0  0  0
 20 21  1  0  0  0  0
 21 22  1  0  0  0  0
 22 24  1  0  0  0  0
 23 22  1  0  0  0  0
 23 24  1  0  0  0  0
 26 21  1  0  0  0  0
 26 25  1  0  0  0  0
M  END
>  <MODEL>
3

>  <REMARK>
 VINA RESULT:      -7.7      1.830      8.636
  Name = 
  8 active torsions:
  status: ('A' for Active; 'I' for Inactive)
    1  A    between atoms: C_1  and  C_10
    2  A    between atoms: C_1  and  C_21
    3  A    between atoms: C_3  and  C_21
    4  A    between atoms: C_3  and  C_23
    5  A    between atoms: C_5  and  N_18
    6  A    between atoms: C_8  and  C_14
    7  A    between atoms: N_18  and  C_23
    8  A    between atoms: N_18  and  C_24
                            x       y       z     vdW  Elec       q    Type
                         _______ _______ _______ _____ _____    ______ ____

>  <TORSDO>
F 8

$$$$
=
 OpenBabel11042422323D

 26 28  0  0  1  0  0  0  0  0999 V2000
  160.9920  205.3400  152.4600 N   0  0  0  0  0  2  0  0  0  0  0  0
  161.6600  206.6060  152.4600 C   0  0  0  0  0  0  0  0  0  0  0  0
  160.9590  203.1780  151.6290 O   0  0  0  0  0  0  0  0  0  0  0  0
  160.9760  204.4110  151.3690 C   0  0  0  0  0  0  0  0  0  0  0  0
  162.5210  206.8800  151.5790 O   0  0  0  0  0  0  0  0  0  0  0  0
  161.3910  204.4980  147.6120 C   0  0  0  0  0  0  0  0  0  0  0  0
  160.8500  205.7680  147.3300 C   0  0  0  0  0  0  0  0  0  0  0  0
  160.9210  204.8520  149.9590 C   0  0  0  0  0  0  0  0  0  0  0  0
  161.2810  205.4640  145.0160 C   0  0  0  0  0  3  0  0  0  0  0  0
  160.8090  206.2170  146.0470 N   0  0  0  0  0  0  0  0  0  0  0  0
  161.8270  204.1990  145.2580 C   0  0  0  0  0  3  0  0  0  0  0  0
  160.4030  206.1160  149.6340 C   0  0  0  0  0  3  0  0  0  0  0  0
  160.3750  206.5410  148.3420 N   0  0  0  0  0  0  0  0  0  0  0  0
  161.8810  203.7150  146.5670 C   0  0  0  0  0  3  0  0  0  0  0  0
  161.4280  204.0480  148.9290 C   0  0  0  0  0  3  0  0  0  0  0  0
  161.3480  207.5950  153.5290 C   0  0  1  0  0  3  0  0  0  0  0  0
  160.6340  208.6550  152.9950 F   0  0  0  0  0  0  0  0  0  0  0  0
  160.5530  206.9230  154.6380 C   0  0  0  0  0  2  0  0  0  0  0  0
  160.9690  207.4480  156.0020 C   0  0  0  0  0  2  0  0  0  0  0  0
  160.3010  208.7970  156.2840 C   0  0  0  0  0  2  0  0  0  0  0  0
  161.1570  209.9510  155.9740 N   0  0  0  0  0  0  0  0  0  0  0  0
  160.3480  211.1640  155.8890 C   0  0  0  0  0  3  0  0  0  0  0  0
  159.1440  210.9140  154.9970 C   0  0  0  0  0  2  0  0  0  0  0  0
  160.3360  211.6700  154.4570 C   0  0  0  0  0  2  0  0  0  0  0  0
  163.3290  210.7720  156.5030 N   0  0  0  0  0  1  0  0  0  0  0  0
  162.1420  210.1270  157.0360 C   0  0  0  0  0  2  0  0  0  0  0  0
  2  1  1  0  0  0  0
  2 16  1  0  0  0  0
  4  3  2  0  0  0  0
  4  1  1  0  0  0  0
  5  2  2  0  0  0  0
  6 15  1  0  0  0  0
  7  6  1  0  0  0  0
  7 13  1  0  0  0  0
  8  4  1  0  0  0  0
  9 11  2  0  0  0  0
  9 10  1  0  0  0  0
 10  7  2  0  0  0  0
 11 14  1  0  0  0  0
 12  8  1  0  0  0  0
 13 12  2  0  0  0  0
 14  6  2  0  0  0  0
 15  8  2  0  0  0  0
 16 17  1  6  0  0  0
 16 18  1  0  0  0  0
 18 19  1  0  0  0  0
 19 20  1  0  0  0  0
 21 20  1  0  0  0  0
 21 26  1  0  0  0  0
 22 21  1  0  0  0  0
 23 22  1  0  0  0  0
 24 23  1  0  0  0  0
 24 22  1  0  0  0  0
 25 26  1  0  0  0  0
M  END
>  <MODEL>
4

>  <REMARK>
 VINA RESULT:      -7.6      2.266      8.968
  Name = 
  8 active torsions:
  status: ('A' for Active; 'I' for Inactive)
    1  A    between atoms: C_1  and  C_10
    2  A    between atoms: C_1  and  C_21
    3  A    between atoms: C_3  and  C_21
    4  A    between atoms: C_3  and  C_23
    5  A    between atoms: C_5  and  N_18
    6  A    between atoms: C_8  and  C_14
    7  A    between atoms: N_18  and  C_23
    8  A    between atoms: N_18  and  C_24
                            x       y       z     vdW  Elec       q    Type
                         _______ _______ _______ _____ _____    ______ ____

>  <TORSDO>
F 8

$$$$
=
 OpenBabel11042422323D

 26 28  0  0  1  0  0  0  0  0999 V2000
  161.1740  206.6300  151.8740 N   0  0  0  0  0  2  0  0  0  0  0  0
  162.0400  207.7210  151.5460 C   0  0  0  0  0  0  0  0  0  0  0  0
  160.7580  204.3630  151.6430 O   0  0  0  0  0  0  0  0  0  0  0  0
  160.9680  205.4640  151.0670 C   0  0  0  0  0  0  0  0  0  0  0  0
  162.9030  207.6070  150.6330 O   0  0  0  0  0  0  0  0  0  0  0  0
  161.2570  204.4910  147.4240 C   0  0  0  0  0  0  0  0  0  0  0  0
  160.9270  205.7160  146.8110 C   0  0  0  0  0  0  0  0  0  0  0  0
  160.9370  205.5230  149.5900 C   0  0  0  0  0  0  0  0  0  0  0  0
  161.2180  204.7470  144.6650 C   0  0  0  0  0  3  0  0  0  0  0  0
  160.9160  205.8130  145.4550 N   0  0  0  0  0  0  0  0  0  0  0  0
  161.5520  203.5160  145.2380 C   0  0  0  0  0  3  0  0  0  0  0  0
  160.6280  206.7260  148.9370 C   0  0  0  0  0  3  0  0  0  0  0  0
  160.6250  206.7960  147.5790 N   0  0  0  0  0  0  0  0  0  0  0  0
  161.5710  203.3890  146.6290 C   0  0  0  0  0  3  0  0  0  0  0  0
  161.2650  204.4030  148.8140 C   0  0  0  0  0  3  0  0  0  0  0  0
  161.9310  208.9940  152.3130 C   0  0  1  0  0  3  0  0  0  0  0  0
  162.7130  209.9700  151.7180 F   0  0  0  0  0  0  0  0  0  0  0  0
  160.4770  209.4380  152.3720 C   0  0  0  0  0  2  0  0  0  0  0  0
  160.2520  210.4140  153.5140 C   0  0  0  0  0  2  0  0  0  0  0  0
  161.1170  210.0370  154.7200 C   0  0  0  0  0  2  0  0  0  0  0  0
  160.3510  209.4670  155.8370 N   0  0  0  0  0  0  0  0  0  0  0  0
  160.9590  208.2120  156.2710 C   0  0  0  0  0  3  0  0  0  0  0  0
  160.6170  207.1100  155.2830 C   0  0  0  0  0  2  0  0  0  0  0  0
  159.8720  207.2020  156.5950 C   0  0  0  0  0  2  0  0  0  0  0  0
  159.1490  211.1980  156.9450 N   0  0  0  0  0  1  0  0  0  0  0  0
  160.3600  210.3970  156.9620 C   0  0  0  0  0  2  0  0  0  0  0  0
  2  1  1  0  0  0  0
  2 16  1  0  0  0  0
  4  3  2  0  0  0  0
  4  1  1  0  0  0  0
  5  2  2  0  0  0  0
  6 15  1  0  0  0  0
  7  6  1  0  0  0  0
  7 13  1  0  0  0  0
  8  4  1  0  0  0  0
  9 11  2  0  0  0  0
  9 10  1  0  0  0  0
 10  7  2  0  0  0  0
 11 14  1  0  0  0  0
 12  8  1  0  0  0  0
 13 12  2  0  0  0  0
 14  6  2  0  0  0  0
 15  8  2  0  0  0  0
 16 17  1  6  0  0  0
 16 18  1  0  0  0  0
 18 19  1  0  0  0  0
 19 20  1  0  0  0  0
 20 21  1  0  0  0  0
 21 22  1  0  0  0  0
 21 26  1  0  0  0  0
 22 24  1  0  0  0  0
 23 22  1  0  0  0  0
 23 24  1  0  0  0  0
 25 26  1  0  0  0  0
M  END
>  <MODEL>
5

>  <REMARK>
 VINA RESULT:      -7.5      2.128      8.651
  Name = 
  8 active torsions:
  status: ('A' for Active; 'I' for Inactive)
    1  A    between atoms: C_1  and  C_10
    2  A    between atoms: C_1  and  C_21
    3  A    between atoms: C_3  and  C_21
    4  A    between atoms: C_3  and  C_23
    5  A    between atoms: C_5  and  N_18
    6  A    between atoms: C_8  and  C_14
    7  A    between atoms: N_18  and  C_23
    8  A    between atoms: N_18  and  C_24
                            x       y       z     vdW  Elec       q    Type
                         _______ _______ _______ _____ _____    ______ ____

>  <TORSDO>
F 8

$$$$
=
 OpenBabel11042422323D

 26 28  0  0  1  0  0  0  0  0999 V2000
  160.9390  204.3420  152.4150 N   0  0  0  0  0  2  0  0  0  0  0  0
  161.5270  205.6230  152.6610 C   0  0  0  0  0  0  0  0  0  0  0  0
  161.0490  202.3720  151.2010 O   0  0  0  0  0  0  0  0  0  0  0  0
  160.9920  203.6310  151.1720 C   0  0  0  0  0  0  0  0  0  0  0  0
  162.3780  206.1050  151.8650 O   0  0  0  0  0  0  0  0  0  0  0  0
  161.3660  204.3940  147.4870 C   0  0  0  0  0  0  0  0  0  0  0  0
  160.8310  205.6960  147.4460 C   0  0  0  0  0  0  0  0  0  0  0  0
  160.9240  204.3200  149.8660 C   0  0  0  0  0  0  0  0  0  0  0  0
  161.2340  205.8140  145.1110 C   0  0  0  0  0  3  0  0  0  0  0  0
  160.7790  206.3710  146.2660 N   0  0  0  0  0  0  0  0  0  0  0  0
  161.7730  204.5230  145.1140 C   0  0  0  0  0  3  0  0  0  0  0  0
  160.4130  205.6240  149.7810 C   0  0  0  0  0  3  0  0  0  0  0  0
  160.3730  206.2760  148.5880 N   0  0  0  0  0  0  0  0  0  0  0  0
  161.8380  203.8100  146.3120 C   0  0  0  0  0  3  0  0  0  0  0  0
  161.4150  203.7130  148.7010 C   0  0  0  0  0  3  0  0  0  0  0  0
  161.1420  206.3780  153.8860 C   0  0  1  0  0  3  0  0  0  0  0  0
  162.2250  206.4660  154.7440 F   0  0  0  0  0  0  0  0  0  0  0  0
  160.6490  207.7660  153.5050 C   0  0  0  0  0  2  0  0  0  0  0  0
  161.1120  208.8040  154.5130 C   0  0  0  0  0  2  0  0  0  0  0  0
  161.6010  210.0660  153.7950 C   0  0  0  0  0  2  0  0  0  0  0  0
  161.1230  210.1770  152.4100 N   0  0  0  0  0  0  0  0  0  0  0  0
  160.4770  211.4700  152.2060 C   0  0  0  0  0  3  0  0  0  0  0  0
  159.9750  212.0060  153.5360 C   0  0  0  0  0  2  0  0  0  0  0  0
  159.0050  211.3680  152.5670 C   0  0  0  0  0  2  0  0  0  0  0  0
  161.9060  209.2170  150.3760 N   0  0  0  0  0  1  0  0  0  0  0  0
  162.2540  210.0770  151.4930 C   0  0  0  0  0  2  0  0  0  0  0  0
  1  2  1  0  0  0  0
  2 16  1  0  0  0  0
  4  3  2  0  0  0  0
  4  1  1  0  0  0  0
  5  2  2  0  0  0  0
  6 15  1  0  0  0  0
  7  6  1  0  0  0  0
  7 13  1  0  0  0  0
  8  4  1  0  0  0  0
  9 11  2  0  0  0  0
  9 10  1  0  0  0  0
 10  7  2  0  0  0  0
 11 14  1  0  0  0  0
 12  8  1  0  0  0  0
 13 12  2  0  0  0  0
 14  6  2  0  0  0  0
 15  8  2  0  0  0  0
 16 17  1  1  0  0  0
 18 16  1  0  0  0  0
 18 19  1  0  0  0  0
 20 19  1  0  0  0  0
 21 20  1  0  0  0  0
 22 21  1  0  0  0  0
 22 24  1  0  0  0  0
 22 23  1  0  0  0  0
 24 23  1  0  0  0  0
 25 26  1  0  0  0  0
 26 21  1  0  0  0  0
M  END
>  <MODEL>
6

>  <REMARK>
 VINA RESULT:      -7.5      2.440      8.199
  Name = 
  8 active torsions:
  status: ('A' for Active; 'I' for Inactive)
    1  A    between atoms: C_1  and  C_10
    2  A    between atoms: C_1  and  C_21
    3  A    between atoms: C_3  and  C_21
    4  A    between atoms: C_3  and  C_23
    5  A    between atoms: C_5  and  N_18
    6  A    between atoms: C_8  and  C_14
    7  A    between atoms: N_18  and  C_23
    8  A    between atoms: N_18  and  C_24
                            x       y       z     vdW  Elec       q    Type
                         _______ _______ _______ _____ _____    ______ ____

>  <TORSDO>
F 8

$$$$
=
 OpenBabel11042422323D

 26 28  0  0  1  0  0  0  0  0999 V2000
  160.9170  204.9870  152.6330 N   0  0  0  0  0  2  0  0  0  0  0  0
  161.7140  206.1580  152.4270 C   0  0  0  0  0  0  0  0  0  0  0  0
  160.7400  202.6980  152.3300 O   0  0  0  0  0  0  0  0  0  0  0  0
  160.9200  203.8250  151.7950 C   0  0  0  0  0  0  0  0  0  0  0  0
  162.6920  206.1400  151.6300 O   0  0  0  0  0  0  0  0  0  0  0  0
  160.9470  205.1610  148.2580 C   0  0  0  0  0  0  0  0  0  0  0  0
  161.3000  203.9950  147.5520 C   0  0  0  0  0  0  0  0  0  0  0  0
  161.0690  203.9110  150.3270 C   0  0  0  0  0  0  0  0  0  0  0  0
  161.2030  205.1780  145.4980 C   0  0  0  0  0  3  0  0  0  0  0  0
  161.4180  204.0310  146.1980 N   0  0  0  0  0  0  0  0  0  0  0  0
  160.8500  206.3560  146.1650 C   0  0  0  0  0  3  0  0  0  0  0  0
  161.4050  202.7700  149.5820 C   0  0  0  0  0  3  0  0  0  0  0  0
  161.5160  202.8350  148.2280 N   0  0  0  0  0  0  0  0  0  0  0  0
  160.7210  206.3450  147.5560 C   0  0  0  0  0  3  0  0  0  0  0  0
  160.8280  205.1120  149.6450 C   0  0  0  0  0  3  0  0  0  0  0  0
  161.3950  207.4000  153.1860 C   0  0  1  0  0  3  0  0  0  0  0  0
  160.5760  208.2180  152.4260 F   0  0  0  0  0  0  0  0  0  0  0  0
  160.7180  207.0420  154.5010 C   0  0  0  0  0  2  0  0  0  0  0  0
  161.2370  207.9100  155.6350 C   0  0  0  0  0  2  0  0  0  0  0  0
  160.5550  209.2810  155.6160 C   0  0  0  0  0  2  0  0  0  0  0  0
  161.4080  210.3540  155.0870 N   0  0  0  0  0  0  0  0  0  0  0  0
  160.6020  211.5380  154.8010 C   0  0  0  0  0  3  0  0  0  0  0  0
  159.2480  211.1150  154.2590 C   0  0  0  0  0  2  0  0  0  0  0  0
  160.3160  211.6130  153.3110 C   0  0  0  0  0  2  0  0  0  0  0  0
  161.8000  211.4720  157.1530 N   0  0  0  0  0  1  0  0  0  0  0  0
  162.4160  210.7110  156.0800 C   0  0  0  0  0  2  0  0  0  0  0  0
  2  1  1  0  0  0  0
  2 16  1  0  0  0  0
  4  3  2  0  0  0  0
  4  1  1  0  0  0  0
  5  2  2  0  0  0  0
  6 15  1  0  0  0  0
  7 13  1  0  0  0  0
  7  6  1  0  0  0  0
  8  4  1  0  0  0  0
  9 11  2  0  0  0  0
  9 10  1  0  0  0  0
 10  7  2  0  0  0  0
 11 14  1  0  0  0  0
 12  8  1  0  0  0  0
 13 12  2  0  0  0  0
 14  6  2  0  0  0  0
 15  8  2  0  0  0  0
 16 17  1  6  0  0  0
 16 18  1  0  0  0  0
 18 19  1  0  0  0  0
 20 19  1  0  0  0  0
 21 20  1  0  0  0  0
 21 26  1  0  0  0  0
 22 21  1  0  0  0  0
 23 22  1  0  0  0  0
 24 23  1  0  0  0  0
 24 22  1  0  0  0  0
 26 25  1  0  0  0  0
M  END
>  <MODEL>
7

>  <REMARK>
 VINA RESULT:      -7.4      2.060      8.940
  Name = 
  8 active torsions:
  status: ('A' for Active; 'I' for Inactive)
    1  A    between atoms: C_1  and  C_10
    2  A    between atoms: C_1  and  C_21
    3  A    between atoms: C_3  and  C_21
    4  A    between atoms: C_3  and  C_23
    5  A    between atoms: C_5  and  N_18
    6  A    between atoms: C_8  and  C_14
    7  A    between atoms: N_18  and  C_23
    8  A    between atoms: N_18  and  C_24
                            x       y       z     vdW  Elec       q    Type
                         _______ _______ _______ _____ _____    ______ ____

>  <TORSDO>
F 8

$$$$
=
 OpenBabel11042422323D

 26 28  0  0  1  0  0  0  0  0999 V2000
  160.9680  205.3440  152.1250 N   0  0  0  0  0  2  0  0  0  0  0  0
  161.5110  206.6680  152.1270 C   0  0  0  0  0  0  0  0  0  0  0  0
  161.1460  203.1890  151.2930 O   0  0  0  0  0  0  0  0  0  0  0  0
  161.0450  204.4190  151.0330 C   0  0  0  0  0  0  0  0  0  0  0  0
  162.3440  207.0240  151.2500 O   0  0  0  0  0  0  0  0  0  0  0  0
  161.3770  204.4960  147.2670 C   0  0  0  0  0  0  0  0  0  0  0  0
  160.8120  205.7570  146.9920 C   0  0  0  0  0  0  0  0  0  0  0  0
  160.9530  204.8530  149.6230 C   0  0  0  0  0  0  0  0  0  0  0  0
  161.1970  205.4500  144.6710 C   0  0  0  0  0  3  0  0  0  0  0  0
  160.7370  206.2000  145.7090 N   0  0  0  0  0  0  0  0  0  0  0  0
  161.7660  204.1940  144.9060 C   0  0  0  0  0  3  0  0  0  0  0  0
  160.4100  206.1070  149.3040 C   0  0  0  0  0  3  0  0  0  0  0  0
  160.3480  206.5270  148.0120 N   0  0  0  0  0  0  0  0  0  0  0  0
  161.8560  203.7160  146.2150 C   0  0  0  0  0  3  0  0  0  0  0  0
  161.4500  204.0520  148.5860 C   0  0  0  0  0  3  0  0  0  0  0  0
  161.1000  207.6220  153.1950 C   0  0  1  0  0  3  0  0  0  0  0  0
  161.6640  207.2470  154.4030 F   0  0  0  0  0  0  0  0  0  0  0  0
  161.5300  209.0330  152.8220 C   0  0  0  0  0  2  0  0  0  0  0  0
  160.3840  210.0150  152.9920 C   0  0  0  0  0  2  0  0  0  0  0  0
  160.6170  210.9030  154.2180 C   0  0  0  0  0  2  0  0  0  0  0  0
  160.4410  210.1980  155.4960 N   0  0  0  0  0  0  0  0  0  0  0  0
  161.4070  210.6890  156.4750 C   0  0  0  0  0  3  0  0  0  0  0  0
  162.8050  210.6330  155.8840 C   0  0  0  0  0  2  0  0  0  0  0  0
  162.3570  209.5680  156.8600 C   0  0  0  0  0  2  0  0  0  0  0  0
  159.1510  211.4490  157.0590 N   0  0  0  0  0  1  0  0  0  0  0  0
  159.0970  210.4470  156.0090 C   0  0  0  0  0  2  0  0  0  0  0  0
  1  2  1  0  0  0  0
  2 16  1  0  0  0  0
  4  3  2  0  0  0  0
  4  1  1  0  0  0  0
  5  2  2  0  0  0  0
  6 15  1  0  0  0  0
  7  6  1  0  0  0  0
  7 13  1  0  0  0  0
  8  4  1  0  0  0  0
  9 11  2  0  0  0  0
  9 10  1  0  0  0  0
 10  7  2  0  0  0  0
 11 14  1  0  0  0  0
 12  8  1  0  0  0  0
 13 12  2  0  0  0  0
 14  6  2  0  0  0  0
 15  8  2  0  0  0  0
 16 17  1  1  0  0  0
 18 19  1  0  0  0  0
 18 16  1  0  0  0  0
 19 20  1  0  0  0  0
 20 21  1  0  0  0  0
 21 26  1  0  0  0  0
 21 22  1  0  0  0  0
 22 24  1  0  0  0  0
 23 22  1  0  0  0  0
 23 24  1  0  0  0  0
 26 25  1  0  0  0  0
M  END
>  <MODEL>
8

>  <REMARK>
 VINA RESULT:      -7.3      2.343      8.989
  Name = 
  8 active torsions:
  status: ('A' for Active; 'I' for Inactive)
    1  A    between atoms: C_1  and  C_10
    2  A    between atoms: C_1  and  C_21
    3  A    between atoms: C_3  and  C_21
    4  A    between atoms: C_3  and  C_23
    5  A    between atoms: C_5  and  N_18
    6  A    between atoms: C_8  and  C_14
    7  A    between atoms: N_18  and  C_23
    8  A    between atoms: N_18  and  C_24
                            x       y       z     vdW  Elec       q    Type
                         _______ _______ _______ _____ _____    ______ ____

>  <TORSDO>
F 8

$$$$
=
 OpenBabel11042422323D

 26 28  0  0  1  0  0  0  0  0999 V2000
  160.8850  205.1720  152.3900 N   0  0  0  0  0  2  0  0  0  0  0  0
  161.4810  206.4720  152.4490 C   0  0  0  0  0  0  0  0  0  0  0  0
  160.9950  203.0400  151.4900 O   0  0  0  0  0  0  0  0  0  0  0  0
  160.9500  204.2800  151.2710 C   0  0  0  0  0  0  0  0  0  0  0  0
  162.3490  206.8220  151.6040 O   0  0  0  0  0  0  0  0  0  0  0  0
  161.3730  204.4670  147.5170 C   0  0  0  0  0  0  0  0  0  0  0  0
  160.8680  205.7580  147.2720 C   0  0  0  0  0  0  0  0  0  0  0  0
  160.9090  204.7640  149.8740 C   0  0  0  0  0  0  0  0  0  0  0  0
  161.2940  205.5110  144.9520 C   0  0  0  0  0  3  0  0  0  0  0  0
  160.8420  206.2460  146.0030 N   0  0  0  0  0  0  0  0  0  0  0  0
  161.8040  204.2250  145.1570 C   0  0  0  0  0  3  0  0  0  0  0  0
  160.4270  206.0500  149.5860 C   0  0  0  0  0  3  0  0  0  0  0  0
  160.4130  206.5140  148.3070 N   0  0  0  0  0  0  0  0  0  0  0  0
  161.8430  203.7010  146.4510 C   0  0  0  0  0  3  0  0  0  0  0  0
  161.3960  203.9770  148.8210 C   0  0  0  0  0  3  0  0  0  0  0  0
  161.0840  207.4060  153.5400 C   0  0  1  0  0  3  0  0  0  0  0  0
  161.6850  207.0260  154.7280 F   0  0  0  0  0  0  0  0  0  0  0  0
  161.4820  208.8280  153.1720 C   0  0  0  0  0  2  0  0  0  0  0  0
  160.3530  209.5400  152.4460 C   0  0  0  0  0  2  0  0  0  0  0  0
  160.1790  210.9610  152.9900 C   0  0  0  0  0  2  0  0  0  0  0  0
  158.7780  211.4020  153.0420 N   0  0  0  0  0  0  0  0  0  0  0  0
  158.4780  211.9580  154.3580 C   0  0  0  0  0  3  0  0  0  0  0  0
  158.6980  210.8970  155.4230 C   0  0  0  0  0  2  0  0  0  0  0  0
  157.2940  211.2250  154.9650 C   0  0  0  0  0  2  0  0  0  0  0  0
  159.7990  213.1420  151.7770 N   0  0  0  0  0  1  0  0  0  0  0  0
  158.5550  212.4400  152.0400 C   0  0  0  0  0  2  0  0  0  0  0  0
  1  2  1  0  0  0  0
  2 16  1  0  0  0  0
  4  3  2  0  0  0  0
  4  1  1  0  0  0  0
  5  2  2  0  0  0  0
  6 15  1  0  0  0  0
  7  6  1  0  0  0  0
  7 13  1  0  0  0  0
  8  4  1  0  0  0  0
  9 11  2  0  0  0  0
  9 10  1  0  0  0  0
 10  7  2  0  0  0  0
 11 14  1  0  0  0  0
 12  8  1  0  0  0  0
 13 12  2  0  0  0  0
 14  6  2  0  0  0  0
 15  8  2  0  0  0  0
 16 17  1  1  0  0  0
 18 16  1  0  0  0  0
 19 20  1  0  0  0  0
 19 18  1  0  0  0  0
 20 21  1  0  0  0  0
 21 22  1  0  0  0  0
 22 24  1  0  0  0  0
 22 23  1  0  0  0  0
 24 23  1  0  0  0  0
 25 26  1  0  0  0  0
 26 21  1  0  0  0  0
M  END
>  <MODEL>
9

>  <REMARK>
 VINA RESULT:      -7.2      2.769      8.686
  Name = 
  8 active torsions:
  status: ('A' for Active; 'I' for Inactive)
    1  A    between atoms: C_1  and  C_10
    2  A    between atoms: C_1  and  C_21
    3  A    between atoms: C_3  and  C_21
    4  A    between atoms: C_3  and  C_23
    5  A    between atoms: C_5  and  N_18
    6  A    between atoms: C_8  and  C_14
    7  A    between atoms: N_18  and  C_23
    8  A    between atoms: N_18  and  C_24
                            x       y       z     vdW  Elec       q    Type
                         _______ _______ _______ _____ _____    ______ ____

>  <TORSDO>
F 8

$$$$
