=
 OpenBabel11042420373D

 62 71  0  0  1  0  0  0  0  0999 V2000
  162.4480  208.5110  148.8810 C   0  0  1  0  0  3  0  0  0  0  0  0
  161.1870  209.3160  148.5530 C   0  0  2  0  0  3  0  0  0  0  0  0
  161.2800  209.7920  147.2310 O   0  0  0  0  0  0  0  0  0  0  0  0
  161.3950  210.7680  148.2360 C   0  0  2  0  0  3  0  0  0  0  0  0
  163.3240  212.3490  148.1040 C   0  0  0  0  0  3  0  0  0  0  0  0
  162.7640  211.2350  148.4590 N   0  0  0  0  0  0  0  0  0  0  0  0
  161.0290  213.9950  149.1560 O   0  0  0  0  0  1  0  0  0  0  0  0
  160.3370  213.2850  145.5910 C   0  0  0  0  0  0  0  0  0  0  0  0
  161.5100  213.0990  145.0630 N   0  0  0  0  0  0  0  0  0  0  0  0
  162.7090  213.1560  145.8430 C   0  0  0  0  0  0  0  0  0  0  0  0
  162.6550  213.4460  147.3260 C   0  0  1  0  0  3  0  0  0  0  0  0
  161.2450  213.6580  147.8250 C   0  0  0  0  0  0  0  0  0  0  0  0
  160.1940  213.5850  147.0160 C   0  0  0  0  0  3  0  0  0  0  0  0
  163.8230  213.0040  145.2730 O   0  0  0  0  0  0  0  0  0  0  0  0
  158.8510  213.1560  144.5950 S   0  0  0  0  0  0  0  0  0  0  0  0
  158.3950  214.2590  142.1910 N   0  0  0  0  0  2  0  0  0  0  0  0
  159.4890  214.0670  143.1350 C   0  0  2  0  0  3  0  0  0  0  0  0
  159.6600  212.5170  141.3830 C   0  0  0  0  0  2  0  0  0  0  0  0
  160.4990  213.2450  142.3890 C   0  0  0  0  0  2  0  0  0  0  0  0
  158.3110  213.0850  141.4100 N   0  0  0  0  0  0  0  0  0  0  0  0
  159.2050  214.0070  139.3170 C   0  0  0  0  0  1  0  0  0  0  0  0
  157.9730  213.5050  140.0570 C   0  0  0  0  0  2  0  0  0  0  0  0
  162.3700  207.9430  150.2310 N   0  0  0  0  0  2  0  0  0  0  0  0
  162.4050  209.0560  151.1800 C   0  0  0  0  0  2  0  0  0  0  0  0
  161.3590  209.7800  153.1970 C   0  0  0  0  0  3  0  0  0  0  0  0
  161.3450  208.8990  152.2110 C   0  0  0  0  0  3  0  0  0  0  0  0
  160.4400  209.7250  154.2470 O   0  0  0  0  0  0  0  0  0  0  0  0
  160.7730  210.2750  155.4910 C   0  0  0  0  0  0  0  0  0  0  0  0
  161.9820  210.5390  155.7510 O   0  0  0  0  0  0  0  0  0  0  0  0
  159.7030  210.5740  156.5040 C   0  0  0  0  0  2  0  0  0  0  0  0
  156.9330  211.0790  155.6040 C   0  0  0  0  0  2  0  0  0  0  0  0
  156.9020  213.3060  156.5980 C   0  0  1  0  0  3  0  0  0  0  0  0
  157.9340  214.4390  156.2610 C   0  0  0  0  0  2  0  0  0  0  0  0
  155.8290  213.2380  155.4640 C   0  0  1  0  0  3  0  0  0  0  0  0
  158.6410  214.4520  153.6000 O   0  0  0  0  0  0  0  0  0  0  0  0
  157.4230  214.3840  154.1990 C   0  0  1  0  0  3  0  0  0  0  0  0
  156.4730  213.1710  154.0410 C   0  0  1  0  0  3  0  0  0  0  0  0
  159.0880  211.9800  156.3880 C   0  0  2  0  0  3  0  0  0  0  0  0
  157.5780  211.9200  156.6820 C   0  0  2  0  0  3  0  0  0  0  0  0
  158.6890  214.0420  154.9760 C   0  0  2  0  0  0  0  0  0  0  0  0
  159.2600  212.6090  154.9980 C   0  0  0  0  0  2  0  0  0  0  0  0
  155.9590  211.9280  154.8060 C   0  0  1  0  0  3  0  0  0  0  0  0
  162.7620  207.4750  147.8840 N   0  0  0  0  0  2  0  0  0  0  0  0
  161.5850  207.0350  147.2610 N   0  0  0  0  0  2  0  0  0  0  0  0
  162.0110  206.1620  146.1830 C   0  0  0  0  0  2  0  0  0  0  0  0
  160.8390  205.8200  145.2770 C   0  0  0  0  0  2  0  0  0  0  0  0
  160.9290  204.3550  144.9040 C   0  0  0  0  0  2  0  0  0  0  0  0
  161.9070  203.7670  145.7090 O   0  0  0  0  0  0  0  0  0  0  0  0
  161.2910  202.6330  146.2560 C   0  0  1  0  0  3  0  0  0  0  0  0
  161.2290  204.2530  149.7580 C   0  0  0  0  0  3  0  0  0  0  0  0
  160.8680  202.8890  147.7040 C   0  0  2  0  0  3  0  0  0  0  0  0
  161.3990  200.8130  150.8150 O   0  0  0  0  0  1  0  0  0  0  0  0
  160.8490  201.8260  150.0250 C   0  0  1  0  0  0  0  0  0  0  0  0
  161.7040  203.9980  148.3580 C   0  0  0  0  0  2  0  0  0  0  0  0
  160.8640  203.2380  150.5540 C   0  0  0  0  0  0  0  0  0  0  0  0
  160.9410  201.5880  148.5170 C   0  0  1  0  0  3  0  0  0  0  0  0
  160.3920  203.5170  151.9370 C   0  0  0  0  0  1  0  0  0  0  0  0
  159.6160  201.4010  149.2640 C   0  0  0  0  0  2  0  0  0  0  0  0
  160.0810  202.2690  145.4110 C   0  0  0  0  0  2  0  0  0  0  0  0
  160.0520  200.7790  145.1280 C   0  0  0  0  0  2  0  0  0  0  0  0
  161.1050  198.8190  145.4490 O   0  0  0  0  0  1  0  0  0  0  0  0
  161.2110  200.1370  145.7290 N   0  0  0  0  0  2  0  0  0  0  0  0
  1 43  1  6  0  0  0
  1 23  1  0  0  0  0
  2  1  1  1  0  0  0
  3  4  1  0  0  0  0
  3  2  1  0  0  0  0
  4  6  1  1  0  0  0
  4  2  1  0  0  0  0
  5  6  2  0  0  0  0
  8 13  1  0  0  0  0
  9  8  2  0  0  0  0
  9 10  1  0  0  0  0
 10 11  1  0  0  0  0
 11 12  1  0  0  0  0
 11  5  1  1  0  0  0
 12  7  1  0  0  0  0
 13 12  2  0  0  0  0
 14 10  2  0  0  0  0
 15  8  1  0  0  0  0
 16 17  1  0  0  0  0
 17 15  1  1  0  0  0
 18 20  1  0  0  0  0
 18 19  1  0  0  0  0
 19 17  1  0  0  0  0
 20 16  1  0  0  0  0
 21 22  1  0  0  0  0
 22 20  1  0  0  0  0
 23 24  1  0  0  0  0
 24 26  1  0  0  0  0
 25 27  1  0  0  0  0
 26 25  2  0  0  0  0
 27 28  1  0  0  0  0
 28 29  2  0  0  0  0
 28 30  1  0  0  0  0
 31 39  1  0  0  0  0
 32 33  1  6  0  0  0
 32 39  1  0  0  0  0
 34 32  1  0  0  0  0
 35 36  1  0  0  0  0
 35 40  1  0  0  0  0
 36 40  1  0  0  0  0
 37 36  1  0  0  0  0
 37 42  1  0  0  0  0
 37 34  1  0  0  0  0
 38 30  1  0  0  0  0
 38 39  1  0  0  0  0
 40 41  1  0  0  0  0
 40 33  1  0  0  0  0
 41 38  1  0  0  0  0
 42 34  1  0  0  0  0
 42 31  1  0  0  0  0
 44 43  1  0  0  0  0
 45 44  1  0  0  0  0
 46 45  1  0  0  0  0
 47 46  1  0  0  0  0
 47 48  1  0  0  0  0
 48 49  1  0  0  0  0
 49 51  1  0  0  0  0
 50 55  2  0  0  0  0
 51 54  1  0  0  0  0
 51 56  1  0  0  0  0
 53 55  1  0  0  0  0
 53 52  1  0  0  0  0
 54 50  1  0  0  0  0
 55 57  1  0  0  0  0
 56 58  1  0  0  0  0
 56 53  1  0  0  0  0
 58 53  1  0  0  0  0
 59 49  1  0  0  0  0
 60 59  1  0  0  0  0
 60 62  1  0  0  0  0
 61 62  1  0  0  0  0
M  END
>  <MODEL>
1

>  <REMARK>
 VINA RESULT:      -5.6      0.000      0.000
  Name = 
  24 active torsions:
  status: ('A' for Active; 'I' for Inactive)
    1  A    between atoms: C_3  and  C_46
    2  A    between atoms: S_4  and  C_15
    3  A    between atoms: S_4  and  C_36
    4  A    between atoms: C_5  and  O_37
    5  A    between atoms: C_5  and  C_59
    6  A    between atoms: C_6  and  C_51
    7  A    between atoms: C_9  and  C_48
    8  A    between atoms: N_13  and  N_25
    9  A    between atoms: N_13  and  C_26
   10  A    between atoms: O_16  and  C_32
   11  A    between atoms: O_16  and  C_48
   12  A    between atoms: C_21  and  C_26
   13  A    between atoms: C_21  and  C_32
   14  A    between atoms: N_24  and  C_29
   15  A    between atoms: N_25  and  C_46
   16  A    between atoms: N_27  and  C_34
   17  A    between atoms: N_27  and  C_46
   18  A    between atoms: C_28  and  O_37
   19  A    between atoms: C_29  and  C_50
   20  A    between atoms: C_34  and  C_62
   21  A    between atoms: C_38  and  N_47
   22  A    between atoms: C_48  and  C_50
   23  A    between atoms: C_49  and  C_59
   24  A    between atoms: C_52  and  N_58
                            x       y       z     vdW  Elec       q    Type
                         _______ _______ _______ _____ _____    ______ ____

>  <TORSDO>
F 24

$$$$
=
 OpenBabel11042420373D

 62 71  0  0  1  0  0  0  0  0999 V2000
  161.2920  205.8110  144.6750 C   0  0  1  0  0  3  0  0  0  0  0  0
  162.6590  205.7700  145.3640 C   0  0  2  0  0  3  0  0  0  0  0  0
  162.6100  204.8390  146.4190 O   0  0  0  0  0  0  0  0  0  0  0  0
  162.6850  206.1880  146.8050 C   0  0  2  0  0  3  0  0  0  0  0  0
  161.1980  207.5930  148.2380 C   0  0  0  0  0  3  0  0  0  0  0  0
  161.4180  206.7400  147.2870 N   0  0  0  0  0  0  0  0  0  0  0  0
  162.5790  206.1360  150.4850 O   0  0  0  0  0  1  0  0  0  0  0  0
  161.9360  209.5920  151.6390 C   0  0  0  0  0  0  0  0  0  0  0  0
  161.8810  210.2950  150.5470 N   0  0  0  0  0  0  0  0  0  0  0  0
  162.0240  209.6970  149.2540 C   0  0  0  0  0  0  0  0  0  0  0  0
  162.2530  208.2100  149.1100 C   0  0  1  0  0  3  0  0  0  0  0  0
  162.3130  207.5000  150.4420 C   0  0  0  0  0  0  0  0  0  0  0  0
  162.1690  208.1480  151.5930 C   0  0  0  0  0  3  0  0  0  0  0  0
  161.9990  210.4310  148.2290 O   0  0  0  0  0  0  0  0  0  0  0  0
  161.7010  210.3660  153.2400 S   0  0  0  0  0  0  0  0  0  0  0  0
  159.5020  211.6040  152.3280 N   0  0  0  0  0  2  0  0  0  0  0  0
  159.8700  210.4690  153.1650 C   0  0  2  0  0  3  0  0  0  0  0  0
  159.2320  212.2830  154.5090 C   0  0  0  0  0  2  0  0  0  0  0  0
  159.2960  210.7850  154.5150 C   0  0  0  0  0  2  0  0  0  0  0  0
  159.5230  212.7500  153.1520 N   0  0  0  0  0  0  0  0  0  0  0  0
  158.1870  213.4740  151.2230 C   0  0  0  0  0  1  0  0  0  0  0  0
  158.4170  213.5960  152.7230 C   0  0  0  0  0  2  0  0  0  0  0  0
  161.3190  206.7050  143.5120 N   0  0  0  0  0  2  0  0  0  0  0  0
  161.6610  205.8960  142.3420 C   0  0  0  0  0  2  0  0  0  0  0  0
  161.6860  206.6450  140.0780 C   0  0  0  0  0  3  0  0  0  0  0  0
  162.2470  206.7450  141.2710 C   0  0  0  0  0  3  0  0  0  0  0  0
  162.1600  207.3620  138.9780 O   0  0  0  0  0  0  0  0  0  0  0  0
  161.3940  208.4060  138.4450 C   0  0  0  0  0  0  0  0  0  0  0  0
  160.2170  208.1730  138.0470 O   0  0  0  0  0  0  0  0  0  0  0  0
  161.9530  209.7990  138.3670 C   0  0  0  0  0  2  0  0  0  0  0  0
  163.0390  212.4480  139.1040 C   0  0  0  0  0  2  0  0  0  0  0  0
  160.8150  213.3710  139.4940 C   0  0  1  0  0  3  0  0  0  0  0  0
  159.7730  212.7690  140.5000 C   0  0  0  0  0  2  0  0  0  0  0  0
  161.8650  214.2140  140.2870 C   0  0  1  0  0  3  0  0  0  0  0  0
  160.9630  211.8120  142.7910 O   0  0  0  0  0  0  0  0  0  0  0  0
  161.1200  212.9890  142.1300 C   0  0  1  0  0  3  0  0  0  0  0  0
  162.4630  213.4300  141.4990 C   0  0  1  0  0  3  0  0  0  0  0  0
  161.1650  210.8500  139.1690 C   0  0  2  0  0  3  0  0  0  0  0  0
  161.5840  212.2660  138.7360 C   0  0  2  0  0  3  0  0  0  0  0  0
  160.5080  211.7810  141.4290 C   0  0  2  0  0  0  0  0  0  0  0  0
  161.3830  210.7520  140.6860 C   0  0  0  0  0  2  0  0  0  0  0  0
  163.1730  213.5590  140.1310 C   0  0  1  0  0  3  0  0  0  0  0  0
  160.7730  204.4830  144.3140 N   0  0  0  0  0  2  0  0  0  0  0  0
  159.5200  204.2780  144.9090 N   0  0  0  0  0  2  0  0  0  0  0  0
  158.8910  203.2130  144.1500 C   0  0  0  0  0  2  0  0  0  0  0  0
  159.6800  201.9210  144.2840 C   0  0  0  0  0  2  0  0  0  0  0  0
  159.8880  201.6330  145.7560 C   0  0  0  0  0  2  0  0  0  0  0  0
  161.1730  202.0590  146.0990 O   0  0  0  0  0  0  0  0  0  0  0  0
  161.5130  201.3080  147.2320 C   0  0  1  0  0  3  0  0  0  0  0  0
  160.6970  204.1110  149.7570 C   0  0  0  0  0  3  0  0  0  0  0  0
  160.9870  201.9760  148.5040 C   0  0  2  0  0  3  0  0  0  0  0  0
  162.2540  201.8180  152.0600 O   0  0  0  0  0  1  0  0  0  0  0  0
  161.3530  202.0960  151.0280 C   0  0  1  0  0  0  0  0  0  0  0  0
  161.2700  203.4840  148.5200 C   0  0  0  0  0  2  0  0  0  0  0  0
  160.7670  203.4820  150.9390 C   0  0  0  0  0  0  0  0  0  0  0  0
  161.5720  201.2890  149.7470 C   0  0  1  0  0  3  0  0  0  0  0  0
  160.1870  204.1220  152.1500 C   0  0  0  0  0  1  0  0  0  0  0  0
  160.4270  200.9470  150.7060 C   0  0  0  0  0  2  0  0  0  0  0  0
  160.9340  199.9090  147.0930 C   0  0  0  0  0  2  0  0  0  0  0  0
  161.8570  199.0250  146.2770 C   0  0  0  0  0  2  0  0  0  0  0  0
  161.6340  197.9630  144.3080 O   0  0  0  0  0  1  0  0  0  0  0  0
  161.0780  198.0440  145.5370 N   0  0  0  0  0  2  0  0  0  0  0  0
  1 23  1  6  0  0  0
  2  1  1  1  0  0  0
  2  3  1  0  0  0  0
  2  4  1  0  0  0  0
  3  4  1  0  0  0  0
  4  6  1  1  0  0  0
  6  5  2  0  0  0  0
  8 15  1  0  0  0  0
  9  8  2  0  0  0  0
 10  9  1  0  0  0  0
 11  5  1  6  0  0  0
 11 10  1  0  0  0  0
 11 12  1  0  0  0  0
 12  7  1  0  0  0  0
 12 13  2  0  0  0  0
 13  8  1  0  0  0  0
 14 10  2  0  0  0  0
 16 20  1  0  0  0  0
 16 17  1  0  0  0  0
 17 15  1  1  0  0  0
 17 19  1  0  0  0  0
 18 19  1  0  0  0  0
 20 18  1  0  0  0  0
 21 22  1  0  0  0  0
 22 20  1  0  0  0  0
 24 23  1  0  0  0  0
 25 26  2  0  0  0  0
 26 24  1  0  0  0  0
 27 25  1  0  0  0  0
 28 27  1  0  0  0  0
 29 28  2  0  0  0  0
 30 28  1  0  0  0  0
 30 38  1  0  0  0  0
 31 42  1  0  0  0  0
 32 34  1  0  0  0  0
 32 33  1  1  0  0  0
 33 40  1  0  0  0  0
 34 37  1  0  0  0  0
 36 35  1  0  0  0  0
 37 36  1  0  0  0  0
 38 41  1  0  0  0  0
 39 31  1  0  0  0  0
 39 38  1  0  0  0  0
 39 32  1  0  0  0  0
 40 36  1  0  0  0  0
 40 35  1  0  0  0  0
 41 40  1  0  0  0  0
 42 34  1  0  0  0  0
 42 37  1  0  0  0  0
 43  1  1  0  0  0  0
 43 44  1  0  0  0  0
 45 46  1  0  0  0  0
 45 44  1  0  0  0  0
 46 47  1  0  0  0  0
 47 48  1  0  0  0  0
 48 49  1  0  0  0  0
 49 51  1  0  0  0  0
 50 55  2  0  0  0  0
 51 54  1  0  0  0  0
 51 56  1  0  0  0  0
 53 52  1  0  0  0  0
 54 50  1  0  0  0  0
 55 53  1  0  0  0  0
 55 57  1  0  0  0  0
 56 58  1  0  0  0  0
 56 53  1  0  0  0  0
 58 53  1  0  0  0  0
 59 49  1  0  0  0  0
 60 59  1  0  0  0  0
 61 62  1  0  0  0  0
 62 60  1  0  0  0  0
M  END
>  <MODEL>
2

>  <REMARK>
 VINA RESULT:      -4.7      3.268     10.065
  Name = 
  24 active torsions:
  status: ('A' for Active; 'I' for Inactive)
    1  A    between atoms: C_3  and  C_46
    2  A    between atoms: S_4  and  C_15
    3  A    between atoms: S_4  and  C_36
    4  A    between atoms: C_5  and  O_37
    5  A    between atoms: C_5  and  C_59
    6  A    between atoms: C_6  and  C_51
    7  A    between atoms: C_9  and  C_48
    8  A    between atoms: N_13  and  N_25
    9  A    between atoms: N_13  and  C_26
   10  A    between atoms: O_16  and  C_32
   11  A    between atoms: O_16  and  C_48
   12  A    between atoms: C_21  and  C_26
   13  A    between atoms: C_21  and  C_32
   14  A    between atoms: N_24  and  C_29
   15  A    between atoms: N_25  and  C_46
   16  A    between atoms: N_27  and  C_34
   17  A    between atoms: N_27  and  C_46
   18  A    between atoms: C_28  and  O_37
   19  A    between atoms: C_29  and  C_50
   20  A    between atoms: C_34  and  C_62
   21  A    between atoms: C_38  and  N_47
   22  A    between atoms: C_48  and  C_50
   23  A    between atoms: C_49  and  C_59
   24  A    between atoms: C_52  and  N_58
                            x       y       z     vdW  Elec       q    Type
                         _______ _______ _______ _____ _____    ______ ____

>  <TORSDO>
F 24

$$$$
=
 OpenBabel11042420373D

 62 71  0  0  1  0  0  0  0  0999 V2000
  161.5530  208.4800  152.0080 C   0  0  1  0  0  3  0  0  0  0  0  0
  160.3220  209.1110  152.6620 C   0  0  2  0  0  3  0  0  0  0  0  0
  160.5130  210.5030  152.7490 O   0  0  0  0  0  0  0  0  0  0  0  0
  160.5530  209.8090  153.9710 C   0  0  2  0  0  3  0  0  0  0  0  0
  162.3190  209.7060  155.7340 C   0  0  0  0  0  3  0  0  0  0  0  0
  161.9030  209.6290  154.5090 N   0  0  0  0  0  0  0  0  0  0  0  0
  160.0620  207.9640  156.7120 O   0  0  0  0  0  1  0  0  0  0  0  0
  158.9490  211.4810  156.9990 C   0  0  0  0  0  0  0  0  0  0  0  0
  160.0490  212.1630  157.1170 N   0  0  0  0  0  0  0  0  0  0  0  0
  161.3350  211.5340  157.0880 C   0  0  0  0  0  0  0  0  0  0  0  0
  161.4610  210.0360  156.9220 C   0  0  1  0  0  3  0  0  0  0  0  0
  160.1210  209.3500  156.8080 C   0  0  0  0  0  0  0  0  0  0  0  0
  158.9780  210.0260  156.8490 C   0  0  0  0  0  3  0  0  0  0  0  0
  162.3700  212.2380  157.2440 O   0  0  0  0  0  0  0  0  0  0  0  0
  157.3560  212.3070  156.9890 S   0  0  0  0  0  0  0  0  0  0  0  0
  156.6700  214.2820  155.3070 N   0  0  0  0  0  2  0  0  0  0  0  0
  157.8580  213.7340  155.9500 C   0  0  2  0  0  3  0  0  0  0  0  0
  157.7540  213.0230  153.7170 C   0  0  0  0  0  2  0  0  0  0  0  0
  158.7360  213.2890  154.8180 C   0  0  0  0  0  2  0  0  0  0  0  0
  156.4440  213.5230  154.1380 N   0  0  0  0  0  0  0  0  0  0  0  0
  154.4480  214.4500  153.0500 C   0  0  0  0  0  1  0  0  0  0  0  0
  155.9680  214.4500  153.1210 C   0  0  0  0  0  2  0  0  0  0  0  0
  162.0190  207.3220  152.7790 N   0  0  0  0  0  2  0  0  0  0  0  0
  160.8730  206.4340  152.9760 C   0  0  0  0  0  2  0  0  0  0  0  0
  160.3000  204.4200  151.8340 C   0  0  0  0  0  3  0  0  0  0  0  0
  160.5440  205.7150  151.7170 C   0  0  0  0  0  3  0  0  0  0  0  0
  160.0110  203.6210  150.7260 O   0  0  0  0  0  0  0  0  0  0  0  0
  161.0150  202.8200  150.1660 C   0  0  0  0  0  0  0  0  0  0  0  0
  162.0630  202.5820  150.8320 O   0  0  0  0  0  0  0  0  0  0  0  0
  160.8410  202.2270  148.7960 C   0  0  0  0  0  2  0  0  0  0  0  0
  160.7610  205.1610  148.4410 C   0  0  0  0  0  2  0  0  0  0  0  0
  162.7940  205.1620  147.0930 C   0  0  1  0  0  3  0  0  0  0  0  0
  162.9800  204.3300  145.7750 C   0  0  0  0  0  2  0  0  0  0  0  0
  161.9680  206.4490  146.7730 C   0  0  1  0  0  3  0  0  0  0  0  0
  160.6810  204.2360  144.2640 O   0  0  0  0  0  0  0  0  0  0  0  0
  161.3130  205.2800  144.8610 C   0  0  1  0  0  3  0  0  0  0  0  0
  160.6610  206.1340  145.9760 C   0  0  1  0  0  3  0  0  0  0  0  0
  161.5930  202.9710  147.6780 C   0  0  2  0  0  3  0  0  0  0  0  0
  162.0180  204.3670  148.1670 C   0  0  2  0  0  3  0  0  0  0  0  0
  161.5930  203.8480  145.3040 C   0  0  2  0  0  0  0  0  0  0  0  0
  160.7560  203.1670  146.4050 C   0  0  0  0  0  2  0  0  0  0  0  0
  160.6960  206.3570  147.5070 C   0  0  1  0  0  3  0  0  0  0  0  0
  161.3560  208.1330  150.5920 N   0  0  0  0  0  2  0  0  0  0  0  0
  162.3930  208.6720  149.8160 N   0  0  0  0  0  2  0  0  0  0  0  0
  161.9220  209.9710  149.3730 C   0  0  0  0  0  2  0  0  0  0  0  0
  161.9830  210.0740  147.8580 C   0  0  0  0  0  2  0  0  0  0  0  0
  160.8910  211.0150  147.3930 C   0  0  0  0  0  2  0  0  0  0  0  0
  160.8930  212.1250  148.2410 O   0  0  0  0  0  0  0  0  0  0  0  0
  161.6160  213.1070  147.5520 C   0  0  1  0  0  3  0  0  0  0  0  0
  158.7360  213.4440  145.0040 C   0  0  0  0  0  3  0  0  0  0  0  0
  160.8660  213.5510  146.2940 C   0  0  2  0  0  3  0  0  0  0  0  0
  161.3430  212.5630  142.6790 O   0  0  0  0  0  1  0  0  0  0  0  0
  160.8620  213.3190  143.7510 C   0  0  1  0  0  0  0  0  0  0  0  0
  159.4560  212.9480  146.2240 C   0  0  0  0  0  2  0  0  0  0  0  0
  159.3810  213.5840  143.8370 C   0  0  0  0  0  0  0  0  0  0  0  0
  161.6800  213.2040  145.0390 C   0  0  1  0  0  3  0  0  0  0  0  0
  158.6460  214.0820  142.6440 C   0  0  0  0  0  1  0  0  0  0  0  0
  161.7770  214.4520  144.1540 C   0  0  0  0  0  2  0  0  0  0  0  0
  161.8470  214.2940  148.4740 C   0  0  0  0  0  2  0  0  0  0  0  0
  160.6950  214.4490  149.4470 C   0  0  0  0  0  2  0  0  0  0  0  0
  159.2120  213.2050  150.5900 O   0  0  0  0  0  1  0  0  0  0  0  0
  160.5040  213.2160  150.1930 N   0  0  0  0  0  2  0  0  0  0  0  0
  1 43  1  6  0  0  0
  1 23  1  0  0  0  0
  2  1  1  6  0  0  0
  2  3  1  0  0  0  0
  2  4  1  0  0  0  0
  3  4  1  0  0  0  0
  4  6  1  6  0  0  0
  6  5  2  0  0  0  0
  7 12  1  0  0  0  0
  8  9  2  0  0  0  0
 10  9  1  0  0  0  0
 10 14  2  0  0  0  0
 11  5  1  6  0  0  0
 11 10  1  0  0  0  0
 12 13  2  0  0  0  0
 12 11  1  0  0  0  0
 13  8  1  0  0  0  0
 15  8  1  0  0  0  0
 16 17  1  0  0  0  0
 17 15  1  1  0  0  0
 18 20  1  0  0  0  0
 18 19  1  0  0  0  0
 19 17  1  0  0  0  0
 20 16  1  0  0  0  0
 21 22  1  0  0  0  0
 22 20  1  0  0  0  0
 23 24  1  0  0  0  0
 26 25  2  0  0  0  0
 26 24  1  0  0  0  0
 27 25  1  0  0  0  0
 28 27  1  0  0  0  0
 28 29  2  0  0  0  0
 30 28  1  0  0  0  0
 32 33  1  6  0  0  0
 32 39  1  0  0  0  0
 34 32  1  0  0  0  0
 34 42  1  0  0  0  0
 35 36  1  0  0  0  0
 35 40  1  0  0  0  0
 36 40  1  0  0  0  0
 36 37  1  0  0  0  0
 37 34  1  0  0  0  0
 37 42  1  0  0  0  0
 38 39  1  0  0  0  0
 38 30  1  0  0  0  0
 39 31  1  0  0  0  0
 40 33  1  0  0  0  0
 40 41  1  0  0  0  0
 41 38  1  0  0  0  0
 42 31  1  0  0  0  0
 44 43  1  0  0  0  0
 45 44  1  0  0  0  0
 46 45  1  0  0  0  0
 47 46  1  0  0  0  0
 47 48  1  0  0  0  0
 49 48  1  0  0  0  0
 49 59  1  0  0  0  0
 50 54  1  0  0  0  0
 51 49  1  0  0  0  0
 52 53  1  0  0  0  0
 53 55  1  0  0  0  0
 53 58  1  0  0  0  0
 53 56  1  0  0  0  0
 54 51  1  0  0  0  0
 55 50  2  0  0  0  0
 56 51  1  0  0  0  0
 57 55  1  0  0  0  0
 58 56  1  0  0  0  0
 59 60  1  0  0  0  0
 60 62  1  0  0  0  0
 62 61  1  0  0  0  0
M  END
>  <MODEL>
3

>  <REMARK>
 VINA RESULT:      -3.9      3.173     10.957
  Name = 
  24 active torsions:
  status: ('A' for Active; 'I' for Inactive)
    1  A    between atoms: C_3  and  C_46
    2  A    between atoms: S_4  and  C_15
    3  A    between atoms: S_4  and  C_36
    4  A    between atoms: C_5  and  O_37
    5  A    between atoms: C_5  and  C_59
    6  A    between atoms: C_6  and  C_51
    7  A    between atoms: C_9  and  C_48
    8  A    between atoms: N_13  and  N_25
    9  A    between atoms: N_13  and  C_26
   10  A    between atoms: O_16  and  C_32
   11  A    between atoms: O_16  and  C_48
   12  A    between atoms: C_21  and  C_26
   13  A    between atoms: C_21  and  C_32
   14  A    between atoms: N_24  and  C_29
   15  A    between atoms: N_25  and  C_46
   16  A    between atoms: N_27  and  C_34
   17  A    between atoms: N_27  and  C_46
   18  A    between atoms: C_28  and  O_37
   19  A    between atoms: C_29  and  C_50
   20  A    between atoms: C_34  and  C_62
   21  A    between atoms: C_38  and  N_47
   22  A    between atoms: C_48  and  C_50
   23  A    between atoms: C_49  and  C_59
   24  A    between atoms: C_52  and  N_58
                            x       y       z     vdW  Elec       q    Type
                         _______ _______ _______ _____ _____    ______ ____

>  <TORSDO>
F 24

$$$$
=
 OpenBabel11042420373D

 62 71  0  0  1  0  0  0  0  0999 V2000
  161.3070  206.2430  144.5120 C   0  0  1  0  0  3  0  0  0  0  0  0
  162.6010  205.9570  145.2780 C   0  0  2  0  0  3  0  0  0  0  0  0
  162.3610  204.9340  146.2150 O   0  0  0  0  0  0  0  0  0  0  0  0
  162.5630  206.2150  146.7570 C   0  0  2  0  0  3  0  0  0  0  0  0
  161.1730  207.7600  148.1410 C   0  0  0  0  0  3  0  0  0  0  0  0
  161.3360  206.8680  147.2160 N   0  0  0  0  0  0  0  0  0  0  0  0
  162.5610  206.2150  150.3240 O   0  0  0  0  0  1  0  0  0  0  0  0
  162.0480  209.6620  151.5660 C   0  0  0  0  0  0  0  0  0  0  0  0
  161.9890  210.3900  150.4900 N   0  0  0  0  0  0  0  0  0  0  0  0
  162.0840  209.8170  149.1820 C   0  0  0  0  0  0  0  0  0  0  0  0
  162.2660  208.3260  149.0020 C   0  0  1  0  0  3  0  0  0  0  0  0
  162.3340  207.5860  150.3170 C   0  0  0  0  0  0  0  0  0  0  0  0
  162.2360  208.2130  151.4840 C   0  0  0  0  0  3  0  0  0  0  0  0
  162.0590  210.5730  148.1740 O   0  0  0  0  0  0  0  0  0  0  0  0
  161.8730  210.4070  153.1880 S   0  0  0  0  0  0  0  0  0  0  0  0
  159.5080  211.5440  152.6270 N   0  0  0  0  0  2  0  0  0  0  0  0
  160.0400  210.3440  153.2600 C   0  0  2  0  0  3  0  0  0  0  0  0
  159.3660  211.8820  154.8970 C   0  0  0  0  0  2  0  0  0  0  0  0
  159.5570  210.4110  154.6780 C   0  0  0  0  0  2  0  0  0  0  0  0
  159.5010  212.5610  153.6070 N   0  0  0  0  0  0  0  0  0  0  0  0
  157.0920  212.7080  154.0620 C   0  0  0  0  0  1  0  0  0  0  0  0
  158.2960  213.3490  153.3860 C   0  0  0  0  0  2  0  0  0  0  0  0
  161.2520  205.4650  143.2700 N   0  0  0  0  0  2  0  0  0  0  0  0
  162.3320  205.9390  142.4040 C   0  0  0  0  0  2  0  0  0  0  0  0
  162.6600  207.4390  140.5800 C   0  0  0  0  0  3  0  0  0  0  0  0
  161.7850  206.7250  141.2670 C   0  0  0  0  0  3  0  0  0  0  0  0
  162.2740  208.2480  139.5090 O   0  0  0  0  0  0  0  0  0  0  0  0
  161.7000  207.6680  138.3720 C   0  0  0  0  0  0  0  0  0  0  0  0
  162.2700  206.6830  137.8210 O   0  0  0  0  0  0  0  0  0  0  0  0
  160.4040  208.1930  137.8190 C   0  0  0  0  0  2  0  0  0  0  0  0
  157.7050  209.3400  137.4540 C   0  0  0  0  0  2  0  0  0  0  0  0
  157.9880  210.8790  139.3260 C   0  0  1  0  0  3  0  0  0  0  0  0
  159.1520  211.9250  139.4410 C   0  0  0  0  0  2  0  0  0  0  0  0
  156.8900  211.4390  138.3650 C   0  0  1  0  0  3  0  0  0  0  0  0
  159.7930  213.0480  137.0110 O   0  0  0  0  0  0  0  0  0  0  0  0
  158.5910  212.8510  137.6120 C   0  0  1  0  0  3  0  0  0  0  0  0
  157.4870  211.9460  137.0130 C   0  0  1  0  0  3  0  0  0  0  0  0
  159.9760  209.5600  138.3830 C   0  0  2  0  0  3  0  0  0  0  0  0
  158.4790  209.5370  138.7380 C   0  0  2  0  0  3  0  0  0  0  0  0
  159.8190  212.0640  138.0580 C   0  0  2  0  0  0  0  0  0  0  0  0
  160.1970  210.7210  137.4030 C   0  0  0  0  0  2  0  0  0  0  0  0
  156.8320  210.5560  137.1900 C   0  0  1  0  0  3  0  0  0  0  0  0
  160.0900  206.0500  145.3170 N   0  0  0  0  0  2  0  0  0  0  0  0
  159.1590  205.2810  144.6040 N   0  0  0  0  0  2  0  0  0  0  0  0
  159.0900  204.0060  145.2930 C   0  0  0  0  0  2  0  0  0  0  0  0
  159.2230  202.8570  144.3060 C   0  0  0  0  0  2  0  0  0  0  0  0
  160.0800  201.7780  144.9340 C   0  0  0  0  0  2  0  0  0  0  0  0
  161.0650  202.4050  145.6990 O   0  0  0  0  0  0  0  0  0  0  0  0
  161.3450  201.5050  146.7360 C   0  0  1  0  0  3  0  0  0  0  0  0
  160.8270  204.0490  149.5920 C   0  0  0  0  0  3  0  0  0  0  0  0
  160.8830  202.0670  148.0830 C   0  0  2  0  0  3  0  0  0  0  0  0
  162.0780  201.3230  151.5880 O   0  0  0  0  0  1  0  0  0  0  0  0
  161.2280  201.8290  150.6010 C   0  0  1  0  0  0  0  0  0  0  0  0
  161.3390  203.5180  148.2850 C   0  0  0  0  0  2  0  0  0  0  0  0
  160.8080  203.2750  150.6860 C   0  0  0  0  0  0  0  0  0  0  0  0
  161.3690  201.1680  149.2290 C   0  0  1  0  0  3  0  0  0  0  0  0
  160.2910  203.8230  151.9690 C   0  0  0  0  0  1  0  0  0  0  0  0
  160.1800  200.8450  150.1400 C   0  0  0  0  0  2  0  0  0  0  0  0
  160.6480  200.1840  146.4500 C   0  0  0  0  0  2  0  0  0  0  0  0
  161.6090  199.0230  146.6150 C   0  0  0  0  0  2  0  0  0  0  0  0
  161.0050  197.6160  144.9680 O   0  0  0  0  0  1  0  0  0  0  0  0
  161.9760  198.4920  145.3110 N   0  0  0  0  0  2  0  0  0  0  0  0
  1 23  1  6  0  0  0
  1 43  1  0  0  0  0
  2  1  1  6  0  0  0
  2  3  1  0  0  0  0
  2  4  1  0  0  0  0
  3  4  1  0  0  0  0
  4  6  1  6  0  0  0
  6  5  2  0  0  0  0
  8 15  1  0  0  0  0
  9  8  2  0  0  0  0
 10  9  1  0  0  0  0
 11  5  1  6  0  0  0
 11 10  1  0  0  0  0
 11 12  1  0  0  0  0
 12  7  1  0  0  0  0
 12 13  2  0  0  0  0
 13  8  1  0  0  0  0
 14 10  2  0  0  0  0
 16 17  1  0  0  0  0
 16 20  1  0  0  0  0
 17 15  1  1  0  0  0
 17 19  1  0  0  0  0
 19 18  1  0  0  0  0
 20 18  1  0  0  0  0
 22 20  1  0  0  0  0
 22 21  1  0  0  0  0
 24 23  1  0  0  0  0
 25 26  2  0  0  0  0
 26 24  1  0  0  0  0
 27 25  1  0  0  0  0
 28 27  1  0  0  0  0
 29 28  2  0  0  0  0
 30 28  1  0  0  0  0
 30 38  1  0  0  0  0
 31 39  1  0  0  0  0
 32 33  1  6  0  0  0
 34 32  1  0  0  0  0
 35 36  1  0  0  0  0
 35 40  1  0  0  0  0
 36 40  1  0  0  0  0
 37 42  1  0  0  0  0
 37 36  1  0  0  0  0
 37 34  1  0  0  0  0
 38 39  1  0  0  0  0
 39 32  1  0  0  0  0
 40 33  1  0  0  0  0
 41 40  1  0  0  0  0
 41 38  1  0  0  0  0
 42 31  1  0  0  0  0
 42 34  1  0  0  0  0
 44 45  1  0  0  0  0
 44 43  1  0  0  0  0
 46 47  1  0  0  0  0
 46 45  1  0  0  0  0
 47 48  1  0  0  0  0
 48 49  1  0  0  0  0
 49 51  1  0  0  0  0
 50 55  2  0  0  0  0
 51 54  1  0  0  0  0
 51 56  1  0  0  0  0
 53 55  1  0  0  0  0
 53 52  1  0  0  0  0
 54 50  1  0  0  0  0
 55 57  1  0  0  0  0
 56 58  1  0  0  0  0
 56 53  1  0  0  0  0
 58 53  1  0  0  0  0
 59 60  1  0  0  0  0
 59 49  1  0  0  0  0
 61 62  1  0  0  0  0
 62 60  1  0  0  0  0
M  END
>  <MODEL>
4

>  <REMARK>
 VINA RESULT:      -3.3      3.490     10.689
  Name = 
  24 active torsions:
  status: ('A' for Active; 'I' for Inactive)
    1  A    between atoms: C_3  and  C_46
    2  A    between atoms: S_4  and  C_15
    3  A    between atoms: S_4  and  C_36
    4  A    between atoms: C_5  and  O_37
    5  A    between atoms: C_5  and  C_59
    6  A    between atoms: C_6  and  C_51
    7  A    between atoms: C_9  and  C_48
    8  A    between atoms: N_13  and  N_25
    9  A    between atoms: N_13  and  C_26
   10  A    between atoms: O_16  and  C_32
   11  A    between atoms: O_16  and  C_48
   12  A    between atoms: C_21  and  C_26
   13  A    between atoms: C_21  and  C_32
   14  A    between atoms: N_24  and  C_29
   15  A    between atoms: N_25  and  C_46
   16  A    between atoms: N_27  and  C_34
   17  A    between atoms: N_27  and  C_46
   18  A    between atoms: C_28  and  O_37
   19  A    between atoms: C_29  and  C_50
   20  A    between atoms: C_34  and  C_62
   21  A    between atoms: C_38  and  N_47
   22  A    between atoms: C_48  and  C_50
   23  A    between atoms: C_49  and  C_59
   24  A    between atoms: C_52  and  N_58
                            x       y       z     vdW  Elec       q    Type
                         _______ _______ _______ _____ _____    ______ ____

>  <TORSDO>
F 24

$$$$
=
 OpenBabel11042420373D

 62 71  0  0  1  0  0  0  0  0999 V2000
  161.5480  205.7710  144.7090 C   0  0  1  0  0  3  0  0  0  0  0  0
  162.8870  205.8760  145.4440 C   0  0  2  0  0  3  0  0  0  0  0  0
  162.9120  204.9300  146.4870 O   0  0  0  0  0  0  0  0  0  0  0  0
  162.8180  206.2740  146.8900 C   0  0  2  0  0  3  0  0  0  0  0  0
  161.1320  207.4770  148.2860 C   0  0  0  0  0  3  0  0  0  0  0  0
  161.4800  206.6700  147.3330 N   0  0  0  0  0  0  0  0  0  0  0  0
  162.1640  206.3280  150.8730 O   0  0  0  0  0  1  0  0  0  0  0  0
  161.4700  209.9150  151.4560 C   0  0  0  0  0  0  0  0  0  0  0  0
  161.5790  210.4630  150.2820 N   0  0  0  0  0  0  0  0  0  0  0  0
  161.8740  209.6930  149.1120 C   0  0  0  0  0  0  0  0  0  0  0  0
  162.0800  208.1970  149.2010 C   0  0  1  0  0  3  0  0  0  0  0  0
  161.9430  207.6750  150.6120 C   0  0  0  0  0  0  0  0  0  0  0  0
  161.6670  208.4770  151.6350 C   0  0  0  0  0  3  0  0  0  0  0  0
  162.0060  210.2790  148.0040 O   0  0  0  0  0  0  0  0  0  0  0  0
  161.0480  210.9030  152.8930 S   0  0  0  0  0  0  0  0  0  0  0  0
  161.1030  208.8950  154.6720 N   0  0  0  0  0  2  0  0  0  0  0  0
  161.9870  209.9130  154.1200 C   0  0  2  0  0  3  0  0  0  0  0  0
  161.2380  210.5680  156.2440 C   0  0  0  0  0  2  0  0  0  0  0  0
  162.3850  210.7550  155.2960 C   0  0  0  0  0  2  0  0  0  0  0  0
  160.3820  209.4990  155.7250 N   0  0  0  0  0  0  0  0  0  0  0  0
  160.0130  207.1120  156.1670 C   0  0  0  0  0  1  0  0  0  0  0  0
  160.2400  208.4920  156.7680 C   0  0  0  0  0  2  0  0  0  0  0  0
  161.5050  206.6890  143.5670 N   0  0  0  0  0  2  0  0  0  0  0  0
  161.5770  205.8820  142.3490 C   0  0  0  0  0  2  0  0  0  0  0  0
  161.5140  207.1990  140.3620 C   0  0  0  0  0  3  0  0  0  0  0  0
  162.2830  206.6230  141.2700 C   0  0  0  0  0  3  0  0  0  0  0  0
  162.0500  207.8970  139.2770 O   0  0  0  0  0  0  0  0  0  0  0  0
  161.9400  209.2930  139.2260 C   0  0  0  0  0  0  0  0  0  0  0  0
  161.8730  209.8700  138.1030 O   0  0  0  0  0  0  0  0  0  0  0  0
  161.8760  210.1000  140.4920 C   0  0  0  0  0  2  0  0  0  0  0  0
  161.8040  212.1070  142.6600 C   0  0  0  0  0  2  0  0  0  0  0  0
  161.5990  213.9590  141.0860 C   0  0  1  0  0  3  0  0  0  0  0  0
  160.4590  214.0860  140.0150 C   0  0  0  0  0  2  0  0  0  0  0  0
  161.0470  214.4080  142.4770 C   0  0  1  0  0  3  0  0  0  0  0  0
  158.0310  213.1970  140.9620 O   0  0  0  0  0  0  0  0  0  0  0  0
  158.9530  214.0290  141.5140 C   0  0  1  0  0  3  0  0  0  0  0  0
  159.6960  213.7070  142.8340 C   0  0  1  0  0  3  0  0  0  0  0  0
  161.3290  211.5270  140.3140 C   0  0  2  0  0  3  0  0  0  0  0  0
  162.0910  212.5020  141.2290 C   0  0  2  0  0  3  0  0  0  0  0  0
  159.3390  213.0890  140.3770 C   0  0  2  0  0  0  0  0  0  0  0  0
  159.8360  211.6560  140.6500 C   0  0  0  0  0  2  0  0  0  0  0  0
  161.0710  213.2350  143.3660 C   0  0  1  0  0  3  0  0  0  0  0  0
  161.2050  204.3980  144.3030 N   0  0  0  0  0  2  0  0  0  0  0  0
  159.8250  204.2950  144.0760 N   0  0  0  0  0  2  0  0  0  0  0  0
  159.3040  203.4960  145.1690 C   0  0  0  0  0  2  0  0  0  0  0  0
  159.0860  202.0580  144.7240 C   0  0  0  0  0  2  0  0  0  0  0  0
  159.8670  201.1440  145.6450 C   0  0  0  0  0  2  0  0  0  0  0  0
  161.1050  201.7410  145.8920 O   0  0  0  0  0  0  0  0  0  0  0  0
  161.5730  201.1330  147.0640 C   0  0  1  0  0  3  0  0  0  0  0  0
  160.7930  203.9780  149.5520 C   0  0  0  0  0  3  0  0  0  0  0  0
  161.0090  201.8330  148.3020 C   0  0  2  0  0  3  0  0  0  0  0  0
  162.0060  201.5650  151.9360 O   0  0  0  0  0  1  0  0  0  0  0  0
  161.2030  201.9140  150.8470 C   0  0  1  0  0  0  0  0  0  0  0  0
  161.4030  203.3160  148.3520 C   0  0  0  0  0  2  0  0  0  0  0  0
  160.7310  203.3420  150.7300 C   0  0  0  0  0  0  0  0  0  0  0  0
  161.4520  201.0990  149.5770 C   0  0  1  0  0  3  0  0  0  0  0  0
  160.1170  204.0180  151.9030 C   0  0  0  0  0  1  0  0  0  0  0  0
  160.2190  200.8410  150.4490 C   0  0  0  0  0  2  0  0  0  0  0  0
  161.1690  199.6670  147.0590 C   0  0  0  0  0  2  0  0  0  0  0  0
  161.0020  199.1610  145.6390 C   0  0  0  0  0  2  0  0  0  0  0  0
  161.6300  197.4690  144.2980 O   0  0  0  0  0  1  0  0  0  0  0  0
  162.0830  198.2450  145.3080 N   0  0  0  0  0  2  0  0  0  0  0  0
  1 23  1  6  0  0  0
  2  1  1  6  0  0  0
  2  3  1  0  0  0  0
  2  4  1  0  0  0  0
  3  4  1  0  0  0  0
  4  6  1  6  0  0  0
  6  5  2  0  0  0  0
  8 13  1  0  0  0  0
  8 15  1  0  0  0  0
  9  8  2  0  0  0  0
 10 11  1  0  0  0  0
 10  9  1  0  0  0  0
 11  5  1  6  0  0  0
 11 12  1  0  0  0  0
 12  7  1  0  0  0  0
 12 13  2  0  0  0  0
 14 10  2  0  0  0  0
 16 20  1  0  0  0  0
 17 15  1  6  0  0  0
 17 16  1  0  0  0  0
 17 19  1  0  0  0  0
 19 18  1  0  0  0  0
 20 18  1  0  0  0  0
 20 22  1  0  0  0  0
 21 22  1  0  0  0  0
 24 23  1  0  0  0  0
 25 26  2  0  0  0  0
 26 24  1  0  0  0  0
 27 25  1  0  0  0  0
 28 27  1  0  0  0  0
 28 30  1  0  0  0  0
 29 28  2  0  0  0  0
 31 42  1  0  0  0  0
 32 33  1  6  0  0  0
 32 39  1  0  0  0  0
 32 34  1  0  0  0  0
 33 40  1  0  0  0  0
 34 37  1  0  0  0  0
 34 42  1  0  0  0  0
 35 36  1  0  0  0  0
 36 37  1  0  0  0  0
 37 42  1  0  0  0  0
 38 30  1  0  0  0  0
 38 41  1  0  0  0  0
 38 39  1  0  0  0  0
 39 31  1  0  0  0  0
 40 41  1  0  0  0  0
 40 35  1  0  0  0  0
 40 36  1  0  0  0  0
 43  1  1  0  0  0  0
 44 43  1  0  0  0  0
 44 45  1  0  0  0  0
 46 45  1  0  0  0  0
 46 47  1  0  0  0  0
 47 48  1  0  0  0  0
 48 49  1  0  0  0  0
 49 51  1  0  0  0  0
 50 55  2  0  0  0  0
 51 54  1  0  0  0  0
 51 56  1  0  0  0  0
 53 52  1  0  0  0  0
 54 50  1  0  0  0  0
 55 53  1  0  0  0  0
 55 57  1  0  0  0  0
 56 58  1  0  0  0  0
 56 53  1  0  0  0  0
 58 53  1  0  0  0  0
 59 49  1  0  0  0  0
 60 59  1  0  0  0  0
 61 62  1  0  0  0  0
 62 60  1  0  0  0  0
M  END
>  <MODEL>
5

>  <REMARK>
 VINA RESULT:      -3.0      3.578     10.054
  Name = 
  24 active torsions:
  status: ('A' for Active; 'I' for Inactive)
    1  A    between atoms: C_3  and  C_46
    2  A    between atoms: S_4  and  C_15
    3  A    between atoms: S_4  and  C_36
    4  A    between atoms: C_5  and  O_37
    5  A    between atoms: C_5  and  C_59
    6  A    between atoms: C_6  and  C_51
    7  A    between atoms: C_9  and  C_48
    8  A    between atoms: N_13  and  N_25
    9  A    between atoms: N_13  and  C_26
   10  A    between atoms: O_16  and  C_32
   11  A    between atoms: O_16  and  C_48
   12  A    between atoms: C_21  and  C_26
   13  A    between atoms: C_21  and  C_32
   14  A    between atoms: N_24  and  C_29
   15  A    between atoms: N_25  and  C_46
   16  A    between atoms: N_27  and  C_34
   17  A    between atoms: N_27  and  C_46
   18  A    between atoms: C_28  and  O_37
   19  A    between atoms: C_29  and  C_50
   20  A    between atoms: C_34  and  C_62
   21  A    between atoms: C_38  and  N_47
   22  A    between atoms: C_48  and  C_50
   23  A    between atoms: C_49  and  C_59
   24  A    between atoms: C_52  and  N_58
                            x       y       z     vdW  Elec       q    Type
                         _______ _______ _______ _____ _____    ______ ____

>  <TORSDO>
F 24

$$$$
