=
 OpenBabel11052410313D

 45 49  0  0  1  0  0  0  0  0999 V2000
  161.4180  208.3980  152.9300 C   0  0  0  0  0  0  0  0  0  0  0  0
  161.8690  210.0160  149.6460 C   0  0  0  0  0  0  0  0  0  0  0  0
  161.3230  208.0240  154.3270 C   0  0  0  0  0  0  0  0  0  0  0  0
  161.7200  209.4030  152.0350 C   0  0  0  0  0  3  0  0  0  0  0  0
  161.2850  208.4010  147.9740 N   0  0  0  0  0  0  0  0  0  0  0  0
  160.9090  206.7280  153.9140 N   0  0  0  0  0  2  0  0  0  0  0  0
  161.5230  208.5960  155.4310 O   0  0  0  0  0  0  0  0  0  0  0  0
  161.6830  209.6520  148.3120 C   0  0  0  0  0  3  0  0  0  0  0  0
  161.0370  207.4390  148.9000 C   0  0  0  0  0  0  0  0  0  0  0  0
  161.1690  207.7340  150.2680 C   0  0  0  0  0  0  0  0  0  0  0  0
  160.8740  206.7420  151.2450 C   0  0  0  0  0  3  0  0  0  0  0  0
  161.0220  207.1490  152.5540 C   0  0  0  0  0  0  0  0  0  0  0  0
  161.6010  209.0640  150.6580 C   0  0  0  0  0  0  0  0  0  0  0  0
  160.5950  206.0850  148.4320 C   0  0  0  0  0  2  0  0  0  0  0  0
  163.0620  204.3820  146.3270 O   0  0  0  0  0  0  0  0  0  0  0  0
  161.3850  205.6670  147.2830 N   0  0  0  0  0  2  0  0  0  0  0  0
  162.0520  203.4070  148.1710 N   0  0  0  0  0  2  0  0  0  0  0  0
  162.1920  204.4830  147.2320 C   0  0  0  0  0  0  0  0  0  0  0  0
  160.9180  203.2300  149.0700 C   0  0  1  0  0  3  0  0  0  0  0  0
  161.2110  200.7160  149.3180 C   0  0  0  0  0  2  0  0  0  0  0  0
  160.3570  201.3350  147.4430 C   0  0  0  0  0  2  0  0  0  0  0  0
  161.2750  200.2100  147.8880 C   0  0  0  0  0  2  0  0  0  0  0  0
  160.2900  201.8370  148.8760 C   0  0  0  0  0  3  0  0  0  0  0  0
  161.3010  203.5730  150.4870 C   0  0  0  0  0  0  0  0  0  0  0  0
  162.3700  204.1220  150.7020 O   0  0  0  0  0  0  0  0  0  0  0  0
  160.3870  203.2720  151.6330 C   0  0  0  0  0  1  0  0  0  0  0  0
  162.3000  211.3600  149.9080 N   0  0  0  0  0  2  0  0  0  0  0  0
  162.3320  212.4430  148.9360 C   0  0  0  0  0  2  0  0  0  0  0  0
  161.1280  213.3490  149.1260 C   0  0  0  0  0  2  0  0  0  0  0  0
  159.0970  214.0080  148.0290 O   0  0  0  0  0  1  0  0  0  0  0  0
  160.4180  213.6130  147.8040 C   0  0  2  0  0  3  0  0  0  0  0  0
  160.4660  212.3770  146.9110 C   0  0  0  0  0  2  0  0  0  0  0  0
  159.3280  213.0830  143.3410 C   0  0  0  0  0  2  0  0  0  0  0  0
  160.6130  212.8420  142.6870 N   0  0  0  0  0  0  0  0  0  0  0  0
  159.3000  212.3690  144.6920 C   0  0  0  0  0  2  0  0  0  0  0  0
  162.7520  213.2660  145.5040 O   0  0  0  0  0  0  0  0  0  0  0  0
  161.6440  213.5830  143.4140 C   0  0  0  0  0  2  0  0  0  0  0  0
  161.6780  213.1690  144.8550 C   0  0  0  0  0  0  0  0  0  0  0  0
  160.4650  212.7330  145.4960 N   0  0  0  0  0  0  0  0  0  0  0  0
  160.5330  213.4200  141.4120 N   0  0  0  0  0  2  0  0  0  0  0  0
  161.0250  211.0560  140.9870 C   0  0  0  0  0  1  0  0  0  0  0  0
  160.4050  212.3350  140.4470 C   0  0  2  0  0  3  0  0  0  0  0  0
  161.1480  212.8110  138.8450 S   0  0  0  0  0  0  0  0  0  0  0  0
  162.9390  211.2060  137.7330 O   0  0  0  0  0  1  0  0  0  0  0  0
  161.7010  211.1400  138.3690 C   0  0  0  0  0  2  0  0  0  0  0  0
  1  3  1  0  0  0  0
  2 27  1  0  0  0  0
  2 13  1  0  0  0  0
  3  7  2  0  0  0  0
  4  1  2  0  0  0  0
  5  8  1  0  0  0  0
  5  9  2  0  0  0  0
  6  3  1  0  0  0  0
  8  2  2  0  0  0  0
  9 10  1  0  0  0  0
 10 13  2  0  0  0  0
 10 11  1  0  0  0  0
 11 12  2  0  0  0  0
 12  1  1  0  0  0  0
 12  6  1  0  0  0  0
 13  4  1  0  0  0  0
 14  9  1  0  0  0  0
 15 18  2  0  0  0  0
 16 14  1  0  0  0  0
 18 16  1  0  0  0  0
 18 17  1  0  0  0  0
 19 17  1  6  0  0  0
 19 24  1  0  0  0  0
 21 22  1  0  0  0  0
 21 23  1  0  0  0  0
 22 20  1  0  0  0  0
 23 19  1  0  0  0  0
 23 20  1  0  0  0  0
 24 25  2  0  0  0  0
 24 26  1  0  0  0  0
 28 29  1  0  0  0  0
 28 27  1  0  0  0  0
 31 30  1  1  0  0  0
 31 29  1  0  0  0  0
 32 31  1  0  0  0  0
 33 35  1  0  0  0  0
 34 33  1  0  0  0  0
 34 37  1  0  0  0  0
 35 39  1  0  0  0  0
 37 38  1  0  0  0  0
 38 39  1  0  0  0  0
 38 36  2  0  0  0  0
 39 32  1  0  0  0  0
 40 34  1  0  0  0  0
 42 41  1  1  0  0  0
 42 40  1  0  0  0  0
 43 42  1  0  0  0  0
 44 45  1  0  0  0  0
 45 43  1  0  0  0  0
M  END
>  <MODEL>
1

>  <REMARK>
 VINA RESULT:      -6.4      0.000      0.000
  Name = 
  15 active torsions:
  status: ('A' for Active; 'I' for Inactive)
    1  A    between atoms: C_1  and  C_15
    2  A    between atoms: C_1  and  N_30
    3  A    between atoms: C_2  and  N_27
    4  A    between atoms: C_2  and  C_28
    5  A    between atoms: S_5  and  C_36
    6  A    between atoms: S_5  and  C_44
    7  A    between atoms: C_8  and  C_24
    8  A    between atoms: C_9  and  N_30
    9  A    between atoms: N_10  and  N_23
   10  A    between atoms: N_10  and  C_36
   11  A    between atoms: C_15  and  C_32
   12  A    between atoms: C_24  and  N_31
   13  A    between atoms: C_24  and  C_41
   14  A    between atoms: C_32  and  C_40
   15  A    between atoms: C_40  and  N_42
                            x       y       z     vdW  Elec       q    Type
                         _______ _______ _______ _____ _____    ______ ____

>  <TORSDO>
F 15

$$$$
=
 OpenBabel11052410313D

 45 49  0  0  1  0  0  0  0  0999 V2000
  161.6790  208.1890  150.1960 C   0  0  0  0  0  0  0  0  0  0  0  0
  161.2070  205.4740  152.6480 C   0  0  0  0  0  0  0  0  0  0  0  0
  161.9230  209.4200  149.4710 C   0  0  0  0  0  0  0  0  0  0  0  0
  161.6210  207.5870  151.4360 C   0  0  0  0  0  3  0  0  0  0  0  0
  160.7000  203.4830  151.4120 N   0  0  0  0  0  0  0  0  0  0  0  0
  161.6730  208.7140  148.2610 N   0  0  0  0  0  2  0  0  0  0  0  0
  162.2210  210.6040  149.7760 O   0  0  0  0  0  0  0  0  0  0  0  0
  160.9280  204.1080  152.5940 C   0  0  0  0  0  3  0  0  0  0  0  0
  160.7370  204.1380  150.2220 C   0  0  0  0  0  0  0  0  0  0  0  0
  161.0410  205.5090  150.1870 C   0  0  0  0  0  0  0  0  0  0  0  0
  161.1190  206.1920  148.9410 C   0  0  0  0  0  3  0  0  0  0  0  0
  161.4420  207.5300  149.0270 C   0  0  0  0  0  0  0  0  0  0  0  0
  161.2830  206.2040  151.4380 C   0  0  0  0  0  0  0  0  0  0  0  0
  160.4770  203.3630  148.9660 C   0  0  0  0  0  2  0  0  0  0  0  0
  161.7420  200.0440  148.0660 O   0  0  0  0  0  0  0  0  0  0  0  0
  161.2020  202.1010  148.9930 N   0  0  0  0  0  2  0  0  0  0  0  0
  161.1590  201.6640  146.5130 N   0  0  0  0  0  2  0  0  0  0  0  0
  161.3790  201.2340  147.8640 C   0  0  0  0  0  0  0  0  0  0  0  0
  161.0380  203.0550  146.0930 C   0  0  1  0  0  3  0  0  0  0  0  0
  162.9430  204.4940  146.9710 C   0  0  0  0  0  2  0  0  0  0  0  0
  162.3910  204.8910  144.9300 C   0  0  0  0  0  2  0  0  0  0  0  0
  162.9110  205.7270  146.0860 C   0  0  0  0  0  2  0  0  0  0  0  0
  162.4280  203.6560  145.8150 C   0  0  0  0  0  3  0  0  0  0  0  0
  160.0410  203.1890  144.9700 C   0  0  0  0  0  0  0  0  0  0  0  0
  159.9610  204.2440  144.3620 O   0  0  0  0  0  0  0  0  0  0  0  0
  159.1630  202.0440  144.5720 C   0  0  0  0  0  1  0  0  0  0  0  0
  161.4260  206.0500  153.9440 N   0  0  0  0  0  2  0  0  0  0  0  0
  160.6970  207.1800  154.5020 C   0  0  0  0  0  2  0  0  0  0  0  0
  161.2680  207.5480  155.8600 C   0  0  0  0  0  2  0  0  0  0  0  0
  159.4840  209.1340  156.1200 O   0  0  0  0  0  1  0  0  0  0  0  0
  160.8620  208.9580  156.2690 C   0  0  2  0  0  3  0  0  0  0  0  0
  161.6280  209.9960  155.4550 C   0  0  0  0  0  2  0  0  0  0  0  0
  159.9330  213.3760  155.9470 C   0  0  0  0  0  2  0  0  0  0  0  0
  158.8470  213.1790  154.9880 N   0  0  0  0  0  0  0  0  0  0  0  0
  160.4780  212.0180  156.3890 C   0  0  0  0  0  2  0  0  0  0  0  0
  160.3100  210.5910  153.0250 O   0  0  0  0  0  0  0  0  0  0  0  0
  159.4240  212.6900  153.7360 C   0  0  0  0  0  2  0  0  0  0  0  0
  160.1890  211.4210  153.9640 C   0  0  0  0  0  0  0  0  0  0  0  0
  160.8350  211.2000  155.2310 N   0  0  0  0  0  0  0  0  0  0  0  0
  158.3160  214.4470  154.7130 N   0  0  0  0  0  2  0  0  0  0  0  0
  156.8520  214.2350  156.6690 C   0  0  0  0  0  1  0  0  0  0  0  0
  156.9300  214.4480  155.1660 C   0  0  2  0  0  3  0  0  0  0  0  0
  155.9590  213.1890  154.2630 S   0  0  0  0  0  0  0  0  0  0  0  0
  156.4020  210.8450  155.4140 O   0  0  0  0  0  1  0  0  0  0  0  0
  155.7440  212.0460  155.6670 C   0  0  0  0  0  2  0  0  0  0  0  0
  1  4  1  0  0  0  0
  2 27  1  0  0  0  0
  3  7  2  0  0  0  0
  3  1  1  0  0  0  0
  4 13  2  0  0  0  0
  5  8  1  0  0  0  0
  6 12  1  0  0  0  0
  6  3  1  0  0  0  0
  8  2  2  0  0  0  0
  9  5  2  0  0  0  0
 10  9  1  0  0  0  0
 10 13  1  0  0  0  0
 11 12  1  0  0  0  0
 11 10  2  0  0  0  0
 12  1  2  0  0  0  0
 13  2  1  0  0  0  0
 14 16  1  0  0  0  0
 14  9  1  0  0  0  0
 17 18  1  0  0  0  0
 18 15  2  0  0  0  0
 18 16  1  0  0  0  0
 19 24  1  6  0  0  0
 19 17  1  0  0  0  0
 21 23  1  0  0  0  0
 21 22  1  0  0  0  0
 22 20  1  0  0  0  0
 23 19  1  0  0  0  0
 23 20  1  0  0  0  0
 25 24  2  0  0  0  0
 26 24  1  0  0  0  0
 27 28  1  0  0  0  0
 28 29  1  0  0  0  0
 29 31  1  0  0  0  0
 31 30  1  6  0  0  0
 32 31  1  0  0  0  0
 33 35  1  0  0  0  0
 34 33  1  0  0  0  0
 36 38  2  0  0  0  0
 37 38  1  0  0  0  0
 37 34  1  0  0  0  0
 38 39  1  0  0  0  0
 39 32  1  0  0  0  0
 39 35  1  0  0  0  0
 40 34  1  0  0  0  0
 40 42  1  0  0  0  0
 42 41  1  1  0  0  0
 43 42  1  0  0  0  0
 43 45  1  0  0  0  0
 44 45  1  0  0  0  0
M  END
>  <MODEL>
2

>  <REMARK>
 VINA RESULT:      -6.3      4.992      8.806
  Name = 
  15 active torsions:
  status: ('A' for Active; 'I' for Inactive)
    1  A    between atoms: C_1  and  C_15
    2  A    between atoms: C_1  and  N_30
    3  A    between atoms: C_2  and  N_27
    4  A    between atoms: C_2  and  C_28
    5  A    between atoms: S_5  and  C_36
    6  A    between atoms: S_5  and  C_44
    7  A    between atoms: C_8  and  C_24
    8  A    between atoms: C_9  and  N_30
    9  A    between atoms: N_10  and  N_23
   10  A    between atoms: N_10  and  C_36
   11  A    between atoms: C_15  and  C_32
   12  A    between atoms: C_24  and  N_31
   13  A    between atoms: C_24  and  C_41
   14  A    between atoms: C_32  and  C_40
   15  A    between atoms: C_40  and  N_42
                            x       y       z     vdW  Elec       q    Type
                         _______ _______ _______ _____ _____    ______ ____

>  <TORSDO>
F 15

$$$$
=
 OpenBabel11052410313D

 45 49  0  0  1  0  0  0  0  0999 V2000
  161.3790  208.6200  153.2250 C   0  0  0  0  0  0  0  0  0  0  0  0
  161.9580  209.5980  149.7160 C   0  0  0  0  0  0  0  0  0  0  0  0
  161.2490  208.5070  154.6650 C   0  0  0  0  0  0  0  0  0  0  0  0
  161.7510  209.4300  152.1720 C   0  0  0  0  0  3  0  0  0  0  0  0
  161.2880  207.7490  148.3450 N   0  0  0  0  0  0  0  0  0  0  0  0
  160.7580  207.1850  154.4800 N   0  0  0  0  0  2  0  0  0  0  0  0
  161.4760  209.2520  155.6530 O   0  0  0  0  0  0  0  0  0  0  0  0
  161.7610  209.0150  148.4640 C   0  0  0  0  0  3  0  0  0  0  0  0
  160.9720  206.9850  149.4220 C   0  0  0  0  0  0  0  0  0  0  0  0
  161.1110  207.5090  150.7190 C   0  0  0  0  0  0  0  0  0  0  0  0
  160.7460  206.7270  151.8500 C   0  0  0  0  0  3  0  0  0  0  0  0
  160.9090  207.3500  153.0680 C   0  0  0  0  0  0  0  0  0  0  0  0
  161.6220  208.8590  150.8750 C   0  0  0  0  0  0  0  0  0  0  0  0
  160.4500  205.5980  149.1930 C   0  0  0  0  0  2  0  0  0  0  0  0
  161.7440  202.4690  150.5920 O   0  0  0  0  0  0  0  0  0  0  0  0
  161.1740  204.6430  150.0200 N   0  0  0  0  0  2  0  0  0  0  0  0
  161.2090  202.7550  148.3550 N   0  0  0  0  0  2  0  0  0  0  0  0
  161.3870  203.2660  149.6840 C   0  0  0  0  0  0  0  0  0  0  0  0
  161.1000  203.5770  147.1550 C   0  0  1  0  0  3  0  0  0  0  0  0
  162.0890  205.6900  146.1430 C   0  0  0  0  0  2  0  0  0  0  0  0
  163.3320  203.9440  145.9560 C   0  0  0  0  0  2  0  0  0  0  0  0
  163.0740  205.1770  145.1070 C   0  0  0  0  0  2  0  0  0  0  0  0
  162.3510  204.4620  146.9940 C   0  0  0  0  0  3  0  0  0  0  0  0
  160.7510  202.7300  145.9580 C   0  0  0  0  0  0  0  0  0  0  0  0
  160.4150  203.2730  144.9180 O   0  0  0  0  0  0  0  0  0  0  0  0
  160.8290  201.2360  146.0150 C   0  0  0  0  0  1  0  0  0  0  0  0
  162.4710  210.9380  149.7440 N   0  0  0  0  0  2  0  0  0  0  0  0
  162.3190  211.9250  148.6850 C   0  0  0  0  0  2  0  0  0  0  0  0
  161.2040  212.8950  149.0320 C   0  0  0  0  0  2  0  0  0  0  0  0
  159.1390  213.7050  148.1160 O   0  0  0  0  0  1  0  0  0  0  0  0
  160.4460  213.3380  147.7880 C   0  0  2  0  0  3  0  0  0  0  0  0
  160.4470  212.2340  146.7350 C   0  0  0  0  0  2  0  0  0  0  0  0
  158.9870  213.4580  143.4330 C   0  0  0  0  0  2  0  0  0  0  0  0
  160.1800  213.2460  142.6140 N   0  0  0  0  0  0  0  0  0  0  0  0
  159.0570  212.5740  144.6770 C   0  0  0  0  0  2  0  0  0  0  0  0
  162.6240  213.1920  145.2060 O   0  0  0  0  0  0  0  0  0  0  0  0
  161.3250  213.8350  143.3100 C   0  0  0  0  0  2  0  0  0  0  0  0
  161.4830  213.2330  144.6730 C   0  0  0  0  0  0  0  0  0  0  0  0
  160.3200  212.7740  145.3860 N   0  0  0  0  0  0  0  0  0  0  0  0
  160.0020  213.9910  141.4400 N   0  0  0  0  0  2  0  0  0  0  0  0
  158.3240  212.8830  140.0370 C   0  0  0  0  0  1  0  0  0  0  0  0
  159.8040  213.0460  140.3480 C   0  0  2  0  0  3  0  0  0  0  0  0
  160.5830  211.4380  140.7400 S   0  0  0  0  0  0  0  0  0  0  0  0
  163.0800  210.7400  140.1960 O   0  0  0  0  0  1  0  0  0  0  0  0
  162.2270  211.8340  140.0600 C   0  0  0  0  0  2  0  0  0  0  0  0
  1  3  1  0  0  0  0
  2 27  1  0  0  0  0
  2 13  1  0  0  0  0
  3  7  2  0  0  0  0
  4  1  2  0  0  0  0
  5  8  1  0  0  0  0
  5  9  2  0  0  0  0
  6  3  1  0  0  0  0
  8  2  2  0  0  0  0
  9 10  1  0  0  0  0
 10 13  2  0  0  0  0
 10 11  1  0  0  0  0
 11 12  2  0  0  0  0
 12  1  1  0  0  0  0
 12  6  1  0  0  0  0
 13  4  1  0  0  0  0
 14  9  1  0  0  0  0
 14 16  1  0  0  0  0
 17 18  1  0  0  0  0
 18 16  1  0  0  0  0
 18 15  2  0  0  0  0
 19 24  1  6  0  0  0
 19 17  1  0  0  0  0
 20 23  1  0  0  0  0
 21 23  1  0  0  0  0
 22 21  1  0  0  0  0
 22 20  1  0  0  0  0
 23 19  1  0  0  0  0
 24 26  1  0  0  0  0
 25 24  2  0  0  0  0
 28 29  1  0  0  0  0
 28 27  1  0  0  0  0
 31 30  1  1  0  0  0
 31 29  1  0  0  0  0
 32 31  1  0  0  0  0
 33 35  1  0  0  0  0
 34 37  1  0  0  0  0
 34 33  1  0  0  0  0
 35 39  1  0  0  0  0
 37 38  1  0  0  0  0
 38 36  2  0  0  0  0
 38 39  1  0  0  0  0
 39 32  1  0  0  0  0
 40 34  1  0  0  0  0
 42 41  1  1  0  0  0
 42 43  1  0  0  0  0
 42 40  1  0  0  0  0
 45 44  1  0  0  0  0
 45 43  1  0  0  0  0
M  END
>  <MODEL>
3

>  <REMARK>
 VINA RESULT:      -6.3      1.258      2.497
  Name = 
  15 active torsions:
  status: ('A' for Active; 'I' for Inactive)
    1  A    between atoms: C_1  and  C_15
    2  A    between atoms: C_1  and  N_30
    3  A    between atoms: C_2  and  N_27
    4  A    between atoms: C_2  and  C_28
    5  A    between atoms: S_5  and  C_36
    6  A    between atoms: S_5  and  C_44
    7  A    between atoms: C_8  and  C_24
    8  A    between atoms: C_9  and  N_30
    9  A    between atoms: N_10  and  N_23
   10  A    between atoms: N_10  and  C_36
   11  A    between atoms: C_15  and  C_32
   12  A    between atoms: C_24  and  N_31
   13  A    between atoms: C_24  and  C_41
   14  A    between atoms: C_32  and  C_40
   15  A    between atoms: C_40  and  N_42
                            x       y       z     vdW  Elec       q    Type
                         _______ _______ _______ _____ _____    ______ ____

>  <TORSDO>
F 15

$$$$
=
 OpenBabel11052410313D

 45 49  0  0  1  0  0  0  0  0999 V2000
  161.3140  206.9130  152.4450 C   0  0  0  0  0  0  0  0  0  0  0  0
  161.9290  208.8820  149.3860 C   0  0  0  0  0  0  0  0  0  0  0  0
  161.0720  206.4030  153.7800 C   0  0  0  0  0  0  0  0  0  0  0  0
  161.5230  208.0370  151.6730 C   0  0  0  0  0  3  0  0  0  0  0  0
  162.0250  207.3360  147.5570 N   0  0  0  0  0  0  0  0  0  0  0  0
  161.0440  205.0900  153.2330 N   0  0  0  0  0  2  0  0  0  0  0  0
  160.9460  206.9020  154.9290 O   0  0  0  0  0  0  0  0  0  0  0  0
  162.0610  208.6080  148.0240 C   0  0  0  0  0  3  0  0  0  0  0  0
  161.8510  206.2640  148.3720 C   0  0  0  0  0  0  0  0  0  0  0  0
  161.6790  206.4550  149.7530 C   0  0  0  0  0  0  0  0  0  0  0  0
  161.4590  205.3380  150.6080 C   0  0  0  0  0  3  0  0  0  0  0  0
  161.2860  205.6480  151.9400 C   0  0  0  0  0  0  0  0  0  0  0  0
  161.7200  207.8060  150.2820 C   0  0  0  0  0  0  0  0  0  0  0  0
  161.8190  204.8940  147.7630 C   0  0  0  0  0  2  0  0  0  0  0  0
  160.4040  203.9670  144.5140 O   0  0  0  0  0  0  0  0  0  0  0  0
  161.0270  204.9030  146.5420 N   0  0  0  0  0  2  0  0  0  0  0  0
  161.1190  202.4280  146.0930 N   0  0  0  0  0  2  0  0  0  0  0  0
  160.8360  203.7730  145.6810 C   0  0  0  0  0  0  0  0  0  0  0  0
  161.3270  202.0070  147.4740 C   0  0  1  0  0  3  0  0  0  0  0  0
  160.5210  202.5520  149.8240 C   0  0  0  0  0  2  0  0  0  0  0  0
  159.1660  201.3400  148.6740 C   0  0  0  0  0  2  0  0  0  0  0  0
  159.5370  201.4400  150.1430 C   0  0  0  0  0  2  0  0  0  0  0  0
  160.1470  202.4560  148.3560 C   0  0  0  0  0  3  0  0  0  0  0  0
  161.6600  200.5380  147.5390 C   0  0  0  0  0  0  0  0  0  0  0  0
  162.1310  200.0760  148.5660 O   0  0  0  0  0  0  0  0  0  0  0  0
  161.4030  199.6320  146.3770 C   0  0  0  0  0  1  0  0  0  0  0  0
  161.9880  210.2570  149.7900 N   0  0  0  0  0  2  0  0  0  0  0  0
  162.5060  211.3540  148.9850 C   0  0  0  0  0  2  0  0  0  0  0  0
  161.3580  212.1430  148.3800 C   0  0  0  0  0  2  0  0  0  0  0  0
  162.2430  214.3750  148.3990 O   0  0  0  0  0  1  0  0  0  0  0  0
  161.8660  213.3230  147.5610 C   0  0  2  0  0  3  0  0  0  0  0  0
  160.8060  213.7810  146.5640 C   0  0  0  0  0  2  0  0  0  0  0  0
  162.4470  212.7090  143.2950 C   0  0  0  0  0  2  0  0  0  0  0  0
  161.2270  212.6290  142.4930 N   0  0  0  0  0  0  0  0  0  0  0  0
  162.2120  213.6250  144.4950 C   0  0  0  0  0  2  0  0  0  0  0  0
  158.8550  212.3180  145.1320 O   0  0  0  0  0  0  0  0  0  0  0  0
  160.2360  211.8560  143.2420 C   0  0  0  0  0  2  0  0  0  0  0  0
  159.9730  212.4840  144.5780 C   0  0  0  0  0  0  0  0  0  0  0  0
  161.0250  213.2080  145.2410 N   0  0  0  0  0  0  0  0  0  0  0  0
  161.5410  211.8760  141.3530 N   0  0  0  0  0  2  0  0  0  0  0  0
  160.1490  212.6860  139.5030 C   0  0  0  0  0  1  0  0  0  0  0  0
  161.4950  212.7760  140.2070 C   0  0  2  0  0  3  0  0  0  0  0  0
  162.8730  212.4230  139.0580 S   0  0  0  0  0  0  0  0  0  0  0  0
  162.6070  210.3630  137.4130 O   0  0  0  0  0  1  0  0  0  0  0  0
  161.8940  211.4800  137.8430 C   0  0  0  0  0  2  0  0  0  0  0  0
  1  3  1  0  0  0  0
  2 27  1  0  0  0  0
  2 13  1  0  0  0  0
  3  7  2  0  0  0  0
  4  1  2  0  0  0  0
  5  8  1  0  0  0  0
  5  9  2  0  0  0  0
  6  3  1  0  0  0  0
  8  2  2  0  0  0  0
  9 10  1  0  0  0  0
 10 13  2  0  0  0  0
 10 11  1  0  0  0  0
 11 12  2  0  0  0  0
 12  1  1  0  0  0  0
 12  6  1  0  0  0  0
 13  4  1  0  0  0  0
 14  9  1  0  0  0  0
 15 18  2  0  0  0  0
 16 14  1  0  0  0  0
 18 17  1  0  0  0  0
 18 16  1  0  0  0  0
 19 17  1  6  0  0  0
 19 24  1  0  0  0  0
 19 23  1  0  0  0  0
 20 22  1  0  0  0  0
 21 22  1  0  0  0  0
 23 21  1  0  0  0  0
 23 20  1  0  0  0  0
 24 25  2  0  0  0  0
 26 24  1  0  0  0  0
 28 27  1  0  0  0  0
 29 28  1  0  0  0  0
 31 29  1  0  0  0  0
 31 30  1  1  0  0  0
 32 31  1  0  0  0  0
 33 35  1  0  0  0  0
 34 37  1  0  0  0  0
 34 33  1  0  0  0  0
 35 39  1  0  0  0  0
 37 38  1  0  0  0  0
 38 36  2  0  0  0  0
 38 39  1  0  0  0  0
 39 32  1  0  0  0  0
 40 34  1  0  0  0  0
 42 41  1  6  0  0  0
 42 40  1  0  0  0  0
 43 42  1  0  0  0  0
 44 45  1  0  0  0  0
 45 43  1  0  0  0  0
M  END
>  <MODEL>
4

>  <REMARK>
 VINA RESULT:      -6.2      1.659      2.303
  Name = 
  15 active torsions:
  status: ('A' for Active; 'I' for Inactive)
    1  A    between atoms: C_1  and  C_15
    2  A    between atoms: C_1  and  N_30
    3  A    between atoms: C_2  and  N_27
    4  A    between atoms: C_2  and  C_28
    5  A    between atoms: S_5  and  C_36
    6  A    between atoms: S_5  and  C_44
    7  A    between atoms: C_8  and  C_24
    8  A    between atoms: C_9  and  N_30
    9  A    between atoms: N_10  and  N_23
   10  A    between atoms: N_10  and  C_36
   11  A    between atoms: C_15  and  C_32
   12  A    between atoms: C_24  and  N_31
   13  A    between atoms: C_24  and  C_41
   14  A    between atoms: C_32  and  C_40
   15  A    between atoms: C_40  and  N_42
                            x       y       z     vdW  Elec       q    Type
                         _______ _______ _______ _____ _____    ______ ____

>  <TORSDO>
F 15

$$$$
=
 OpenBabel11052410313D

 45 49  0  0  1  0  0  0  0  0999 V2000
  161.9690  208.4210  150.2620 C   0  0  0  0  0  0  0  0  0  0  0  0
  161.2990  207.4480  153.7570 C   0  0  0  0  0  0  0  0  0  0  0  0
  162.3040  208.5190  148.8550 C   0  0  0  0  0  0  0  0  0  0  0  0
  161.8810  207.5900  151.3600 C   0  0  0  0  0  3  0  0  0  0  0  0
  160.5090  209.4030  154.8970 N   0  0  0  0  0  0  0  0  0  0  0  0
  161.9720  209.9010  148.9100 N   0  0  0  0  0  2  0  0  0  0  0  0
  162.7150  207.7270  147.9670 O   0  0  0  0  0  0  0  0  0  0  0  0
  160.8120  208.0810  154.9010 C   0  0  0  0  0  3  0  0  0  0  0  0
  160.6500  210.1810  153.7930 C   0  0  0  0  0  0  0  0  0  0  0  0
  161.1050  209.6130  152.5900 C   0  0  0  0  0  0  0  0  0  0  0  0
  161.2190  210.4140  151.4190 C   0  0  0  0  0  3  0  0  0  0  0  0
  161.6570  209.7470  150.2960 C   0  0  0  0  0  0  0  0  0  0  0  0
  161.4430  208.2020  152.5680 C   0  0  0  0  0  0  0  0  0  0  0  0
  160.2840  211.6320  153.8820 C   0  0  0  0  0  2  0  0  0  0  0  0
  159.9140  213.6440  156.9210 O   0  0  0  0  0  0  0  0  0  0  0  0
  160.3700  212.0890  155.2620 N   0  0  0  0  0  2  0  0  0  0  0  0
  158.3390  213.5770  155.2220 N   0  0  0  0  0  2  0  0  0  0  0  0
  159.5520  213.1190  155.8350 C   0  0  0  0  0  0  0  0  0  0  0  0
  157.6340  212.8820  154.1510 C   0  0  1  0  0  3  0  0  0  0  0  0
  155.7680  213.0860  155.8680 C   0  0  0  0  0  2  0  0  0  0  0  0
  156.4380  211.0730  155.5120 C   0  0  0  0  0  2  0  0  0  0  0  0
  155.9080  211.8340  156.7150 C   0  0  0  0  0  2  0  0  0  0  0  0
  156.2920  212.3260  154.6640 C   0  0  0  0  0  3  0  0  0  0  0  0
  157.5450  213.7490  152.9210 C   0  0  0  0  0  0  0  0  0  0  0  0
  156.4670  213.8920  152.3660 O   0  0  0  0  0  0  0  0  0  0  0  0
  158.7490  214.4530  152.3790 C   0  0  0  0  0  1  0  0  0  0  0  0
  161.6010  206.0490  153.8570 N   0  0  0  0  0  2  0  0  0  0  0  0
  160.8270  204.9710  153.2580 C   0  0  0  0  0  2  0  0  0  0  0  0
  161.5980  204.3560  152.1040 C   0  0  0  0  0  2  0  0  0  0  0  0
  162.2870  202.1080  151.6140 O   0  0  0  0  0  1  0  0  0  0  0  0
  161.1710  202.9140  151.8570 C   0  0  2  0  0  3  0  0  0  0  0  0
  160.1880  202.8370  150.6930 C   0  0  0  0  0  2  0  0  0  0  0  0
  161.7890  204.8380  147.8710 C   0  0  0  0  0  2  0  0  0  0  0  0
  161.4700  203.9140  146.7840 N   0  0  0  0  0  0  0  0  0  0  0  0
  160.8310  204.6060  149.0390 C   0  0  0  0  0  2  0  0  0  0  0  0
  160.9380  200.9640  148.7100 O   0  0  0  0  0  0  0  0  0  0  0  0
  161.8590  202.5660  147.1990 C   0  0  0  0  0  2  0  0  0  0  0  0
  161.1610  202.1800  148.4690 C   0  0  0  0  0  0  0  0  0  0  0  0
  160.8190  203.1970  149.4280 N   0  0  0  0  0  0  0  0  0  0  0  0
  162.3000  204.2530  145.7070 N   0  0  0  0  0  2  0  0  0  0  0  0
  161.5720  205.8370  143.9820 C   0  0  0  0  0  1  0  0  0  0  0  0
  161.4490  204.4260  144.5360 C   0  0  2  0  0  3  0  0  0  0  0  0
  159.7130  204.0170  144.9380 S   0  0  0  0  0  0  0  0  0  0  0  0
  159.7520  201.3730  145.0960 O   0  0  0  0  0  1  0  0  0  0  0  0
  159.6940  202.3800  144.1360 C   0  0  0  0  0  2  0  0  0  0  0  0
  1 12  2  0  0  0  0
  1  4  1  0  0  0  0
  2 27  1  0  0  0  0
  2  8  2  0  0  0  0
  3  6  1  0  0  0  0
  3  1  1  0  0  0  0
  4 13  2  0  0  0  0
  5  8  1  0  0  0  0
  6 12  1  0  0  0  0
  7  3  2  0  0  0  0
  9 14  1  0  0  0  0
  9  5  2  0  0  0  0
 10  9  1  0  0  0  0
 11 10  2  0  0  0  0
 12 11  1  0  0  0  0
 13 10  1  0  0  0  0
 13  2  1  0  0  0  0
 14 16  1  0  0  0  0
 16 18  1  0  0  0  0
 17 18  1  0  0  0  0
 18 15  2  0  0  0  0
 19 24  1  6  0  0  0
 19 23  1  0  0  0  0
 19 17  1  0  0  0  0
 20 22  1  0  0  0  0
 21 22  1  0  0  0  0
 23 21  1  0  0  0  0
 23 20  1  0  0  0  0
 25 24  2  0  0  0  0
 26 24  1  0  0  0  0
 28 27  1  0  0  0  0
 29 28  1  0  0  0  0
 31 30  1  6  0  0  0
 31 29  1  0  0  0  0
 32 31  1  0  0  0  0
 33 35  1  0  0  0  0
 34 37  1  0  0  0  0
 34 33  1  0  0  0  0
 35 39  1  0  0  0  0
 37 38  1  0  0  0  0
 38 36  2  0  0  0  0
 38 39  1  0  0  0  0
 39 32  1  0  0  0  0
 40 34  1  0  0  0  0
 42 41  1  1  0  0  0
 42 43  1  0  0  0  0
 42 40  1  0  0  0  0
 45 43  1  0  0  0  0
 45 44  1  0  0  0  0
M  END
>  <MODEL>
5

>  <REMARK>
 VINA RESULT:      -6.0      4.573      9.868
  Name = 
  15 active torsions:
  status: ('A' for Active; 'I' for Inactive)
    1  A    between atoms: C_1  and  C_15
    2  A    between atoms: C_1  and  N_30
    3  A    between atoms: C_2  and  N_27
    4  A    between atoms: C_2  and  C_28
    5  A    between atoms: S_5  and  C_36
    6  A    between atoms: S_5  and  C_44
    7  A    between atoms: C_8  and  C_24
    8  A    between atoms: C_9  and  N_30
    9  A    between atoms: N_10  and  N_23
   10  A    between atoms: N_10  and  C_36
   11  A    between atoms: C_15  and  C_32
   12  A    between atoms: C_24  and  N_31
   13  A    between atoms: C_24  and  C_41
   14  A    between atoms: C_32  and  C_40
   15  A    between atoms: C_40  and  N_42
                            x       y       z     vdW  Elec       q    Type
                         _______ _______ _______ _____ _____    ______ ____

>  <TORSDO>
F 15

$$$$
=
 OpenBabel11052410313D

 45 49  0  0  1  0  0  0  0  0999 V2000
  161.3640  205.5050  148.0580 C   0  0  0  0  0  0  0  0  0  0  0  0
  161.4660  207.3440  151.2540 C   0  0  0  0  0  0  0  0  0  0  0  0
  161.2990  204.5440  146.9750 C   0  0  0  0  0  0  0  0  0  0  0  0
  161.3590  205.6850  149.4260 C   0  0  0  0  0  3  0  0  0  0  0  0
  161.6210  209.6770  150.7250 N   0  0  0  0  0  0  0  0  0  0  0  0
  161.4030  205.6260  146.0580 N   0  0  0  0  0  2  0  0  0  0  0  0
  161.1990  203.2930  146.8820 O   0  0  0  0  0  0  0  0  0  0  0  0
  161.5240  208.6830  151.6430 C   0  0  0  0  0  3  0  0  0  0  0  0
  161.6570  209.4350  149.3890 C   0  0  0  0  0  0  0  0  0  0  0  0
  161.5710  208.1150  148.9130 C   0  0  0  0  0  0  0  0  0  0  0  0
  161.5710  207.8580  147.5140 C   0  0  0  0  0  3  0  0  0  0  0  0
  161.4640  206.5280  147.1640 C   0  0  0  0  0  0  0  0  0  0  0  0
  161.4740  207.0310  149.8740 C   0  0  0  0  0  0  0  0  0  0  0  0
  161.7590  210.5980  148.4490 C   0  0  0  0  0  2  0  0  0  0  0  0
  164.4260  213.1030  148.2580 O   0  0  0  0  0  0  0  0  0  0  0  0
  162.9460  211.3860  148.7490 N   0  0  0  0  0  2  0  0  0  0  0  0
  162.2660  213.4620  147.4970 N   0  0  0  0  0  2  0  0  0  0  0  0
  163.2490  212.6630  148.1720 C   0  0  0  0  0  0  0  0  0  0  0  0
  160.8250  213.2480  147.5730 C   0  0  1  0  0  3  0  0  0  0  0  0
  160.3680  213.7790  150.0180 C   0  0  0  0  0  2  0  0  0  0  0  0
  158.6840  214.0680  148.7120 C   0  0  0  0  0  2  0  0  0  0  0  0
  158.8630  213.6260  150.1530 C   0  0  0  0  0  2  0  0  0  0  0  0
  160.1900  214.2260  148.5800 C   0  0  0  0  0  3  0  0  0  0  0  0
  160.2120  213.2500  146.1960 C   0  0  0  0  0  0  0  0  0  0  0  0
  159.5380  212.2960  145.8400 O   0  0  0  0  0  0  0  0  0  0  0  0
  160.3960  214.4080  145.2670 C   0  0  0  0  0  1  0  0  0  0  0  0
  161.3740  206.3600  152.2950 N   0  0  0  0  0  2  0  0  0  0  0  0
  162.0970  206.3940  153.5580 C   0  0  0  0  0  2  0  0  0  0  0  0
  161.1250  206.5580  154.7120 C   0  0  0  0  0  2  0  0  0  0  0  0
  162.1100  208.1230  156.2420 O   0  0  0  0  0  1  0  0  0  0  0  0
  161.1370  207.9830  155.2500 C   0  0  2  0  0  3  0  0  0  0  0  0
  159.7610  208.3660  155.7880 C   0  0  0  0  0  2  0  0  0  0  0  0
  159.5880  211.8820  157.2530 C   0  0  0  0  0  2  0  0  0  0  0  0
  158.7510  212.4750  156.2110 N   0  0  0  0  0  0  0  0  0  0  0  0
  159.4020  210.3650  157.2570 C   0  0  0  0  0  2  0  0  0  0  0  0
  159.3660  210.1230  153.6070 O   0  0  0  0  0  0  0  0  0  0  0  0
  159.3200  212.1220  154.9100 C   0  0  0  0  0  2  0  0  0  0  0  0
  159.4100  210.6330  154.7570 C   0  0  0  0  0  0  0  0  0  0  0  0
  159.6170  209.8120  155.9210 N   0  0  0  0  0  0  0  0  0  0  0  0
  158.8760  213.8660  156.3350 N   0  0  0  0  0  2  0  0  0  0  0  0
  156.4850  213.8120  156.8770 C   0  0  0  0  0  1  0  0  0  0  0  0
  157.5760  214.4510  156.0320 C   0  0  2  0  0  3  0  0  0  0  0  0
  157.2060  214.3040  154.2470 S   0  0  0  0  0  0  0  0  0  0  0  0
  154.8710  213.2260  153.6130 O   0  0  0  0  0  1  0  0  0  0  0  0
  155.3930  214.2390  154.4150 C   0  0  0  0  0  2  0  0  0  0  0  0
  1  4  1  0  0  0  0
  2  8  2  0  0  0  0
  2 27  1  0  0  0  0
  3  1  1  0  0  0  0
  4 13  2  0  0  0  0
  5  8  1  0  0  0  0
  6  3  1  0  0  0  0
  6 12  1  0  0  0  0
  7  3  2  0  0  0  0
  9  5  2  0  0  0  0
 10  9  1  0  0  0  0
 10 13  1  0  0  0  0
 11 10  2  0  0  0  0
 12 11  1  0  0  0  0
 12  1  2  0  0  0  0
 13  2  1  0  0  0  0
 14 16  1  0  0  0  0
 14  9  1  0  0  0  0
 17 19  1  0  0  0  0
 17 18  1  0  0  0  0
 18 15  2  0  0  0  0
 18 16  1  0  0  0  0
 19 24  1  6  0  0  0
 19 23  1  0  0  0  0
 20 22  1  0  0  0  0
 21 22  1  0  0  0  0
 23 21  1  0  0  0  0
 23 20  1  0  0  0  0
 25 24  2  0  0  0  0
 26 24  1  0  0  0  0
 27 28  1  0  0  0  0
 28 29  1  0  0  0  0
 29 31  1  0  0  0  0
 31 32  1  0  0  0  0
 31 30  1  1  0  0  0
 32 39  1  0  0  0  0
 33 35  1  0  0  0  0
 34 40  1  0  0  0  0
 34 33  1  0  0  0  0
 36 38  2  0  0  0  0
 37 34  1  0  0  0  0
 38 37  1  0  0  0  0
 38 39  1  0  0  0  0
 39 35  1  0  0  0  0
 42 40  1  0  0  0  0
 42 41  1  1  0  0  0
 43 45  1  0  0  0  0
 43 42  1  0  0  0  0
 44 45  1  0  0  0  0
M  END
>  <MODEL>
6

>  <REMARK>
 VINA RESULT:      -5.3      4.156     10.486
  Name = 
  15 active torsions:
  status: ('A' for Active; 'I' for Inactive)
    1  A    between atoms: C_1  and  C_15
    2  A    between atoms: C_1  and  N_30
    3  A    between atoms: C_2  and  N_27
    4  A    between atoms: C_2  and  C_28
    5  A    between atoms: S_5  and  C_36
    6  A    between atoms: S_5  and  C_44
    7  A    between atoms: C_8  and  C_24
    8  A    between atoms: C_9  and  N_30
    9  A    between atoms: N_10  and  N_23
   10  A    between atoms: N_10  and  C_36
   11  A    between atoms: C_15  and  C_32
   12  A    between atoms: C_24  and  N_31
   13  A    between atoms: C_24  and  C_41
   14  A    between atoms: C_32  and  C_40
   15  A    between atoms: C_40  and  N_42
                            x       y       z     vdW  Elec       q    Type
                         _______ _______ _______ _____ _____    ______ ____

>  <TORSDO>
F 15

$$$$
=
 OpenBabel11052410313D

 45 49  0  0  1  0  0  0  0  0999 V2000
  161.8830  211.8620  148.2650 C   0  0  0  0  0  0  0  0  0  0  0  0
  162.1330  208.2840  149.1270 C   0  0  0  0  0  0  0  0  0  0  0  0
  161.8530  213.1760  147.6540 C   0  0  0  0  0  0  0  0  0  0  0  0
  162.0930  210.5140  148.0630 C   0  0  0  0  0  3  0  0  0  0  0  0
  161.6070  208.0780  151.4570 N   0  0  0  0  0  0  0  0  0  0  0  0
  161.5120  213.7180  148.9250 N   0  0  0  0  0  2  0  0  0  0  0  0
  162.0470  213.6410  146.5010 O   0  0  0  0  0  0  0  0  0  0  0  0
  161.9330  207.5090  150.2700 C   0  0  0  0  0  3  0  0  0  0  0  0
  161.4480  209.4190  151.6030 C   0  0  0  0  0  0  0  0  0  0  0  0
  161.6010  210.2680  150.4940 C   0  0  0  0  0  0  0  0  0  0  0  0
  161.3990  211.6700  150.6330 C   0  0  0  0  0  3  0  0  0  0  0  0
  161.5580  212.4000  149.4740 C   0  0  0  0  0  0  0  0  0  0  0  0
  161.9560  209.6860  149.2120 C   0  0  0  0  0  0  0  0  0  0  0  0
  161.0820  209.9580  152.9540 C   0  0  0  0  0  2  0  0  0  0  0  0
  163.4050  211.0590  155.5640 O   0  0  0  0  0  0  0  0  0  0  0  0
  162.2740  210.1080  153.7770 N   0  0  0  0  0  2  0  0  0  0  0  0
  161.1120  210.9030  155.8640 N   0  0  0  0  0  2  0  0  0  0  0  0
  162.2980  210.7000  155.0830 C   0  0  0  0  0  0  0  0  0  0  0  0
  159.8200  210.2820  155.5930 C   0  0  1  0  0  3  0  0  0  0  0  0
  160.8870  208.5670  157.1390 C   0  0  0  0  0  2  0  0  0  0  0  0
  159.4210  207.7610  155.7880 C   0  0  0  0  0  2  0  0  0  0  0  0
  160.7110  207.2490  156.4060 C   0  0  0  0  0  2  0  0  0  0  0  0
  159.5970  209.0770  156.5260 C   0  0  0  0  0  3  0  0  0  0  0  0
  158.7210  211.3130  155.5960 C   0  0  0  0  0  0  0  0  0  0  0  0
  158.6000  212.0570  156.5560 O   0  0  0  0  0  0  0  0  0  0  0  0
  157.7880  211.4560  154.4340 C   0  0  0  0  0  1  0  0  0  0  0  0
  162.4830  207.5960  147.9180 N   0  0  0  0  0  2  0  0  0  0  0  0
  161.5770  206.7980  147.1050 C   0  0  0  0  0  2  0  0  0  0  0  0
  162.3490  206.0890  146.0060 C   0  0  0  0  0  2  0  0  0  0  0  0
  160.0840  205.7830  145.2700 O   0  0  0  0  0  1  0  0  0  0  0  0
  161.4100  205.4340  145.0010 C   0  0  2  0  0  3  0  0  0  0  0  0
  161.5810  203.9180  145.0160 C   0  0  0  0  0  2  0  0  0  0  0  0
  161.2000  203.4850  148.7840 C   0  0  0  0  0  2  0  0  0  0  0  0
  161.2610  202.0240  148.8100 N   0  0  0  0  0  0  0  0  0  0  0  0
  161.8570  204.0030  147.5050 C   0  0  0  0  0  2  0  0  0  0  0  0
  160.4000  201.3790  145.4140 O   0  0  0  0  0  0  0  0  0  0  0  0
  160.3410  201.5090  147.7960 C   0  0  0  0  0  2  0  0  0  0  0  0
  160.6890  202.0480  146.4410 C   0  0  0  0  0  0  0  0  0  0  0  0
  161.2840  203.3530  146.3280 N   0  0  0  0  0  0  0  0  0  0  0  0
  160.7530  201.6200  150.0520 N   0  0  0  0  0  2  0  0  0  0  0  0
  162.4450  201.3460  151.8050 C   0  0  0  0  0  1  0  0  0  0  0  0
  161.5160  202.3100  151.0840 C   0  0  2  0  0  3  0  0  0  0  0  0
  160.3940  203.1560  152.2540 S   0  0  0  0  0  0  0  0  0  0  0  0
  161.2320  205.3230  153.5260 O   0  0  0  0  0  1  0  0  0  0  0  0
  161.2620  204.7590  152.2530 C   0  0  0  0  0  2  0  0  0  0  0  0
  1 12  1  0  0  0  0
  2 13  2  0  0  0  0
  2  8  1  0  0  0  0
  3  1  1  0  0  0  0
  3  6  1  0  0  0  0
  4  1  2  0  0  0  0
  4 13  1  0  0  0  0
  5  9  1  0  0  0  0
  6 12  1  0  0  0  0
  7  3  2  0  0  0  0
  8  5  2  0  0  0  0
  9 14  1  0  0  0  0
 10 11  1  0  0  0  0
 10  9  2  0  0  0  0
 12 11  2  0  0  0  0
 13 10  1  0  0  0  0
 14 16  1  0  0  0  0
 16 18  1  0  0  0  0
 18 15  2  0  0  0  0
 18 17  1  0  0  0  0
 19 24  1  1  0  0  0
 19 17  1  0  0  0  0
 19 23  1  0  0  0  0
 21 22  1  0  0  0  0
 21 23  1  0  0  0  0
 22 20  1  0  0  0  0
 23 20  1  0  0  0  0
 24 25  2  0  0  0  0
 26 24  1  0  0  0  0
 27  2  1  0  0  0  0
 28 27  1  0  0  0  0
 29 28  1  0  0  0  0
 31 32  1  0  0  0  0
 31 30  1  1  0  0  0
 31 29  1  0  0  0  0
 32 39  1  0  0  0  0
 33 34  1  0  0  0  0
 34 40  1  0  0  0  0
 35 33  1  0  0  0  0
 36 38  2  0  0  0  0
 37 34  1  0  0  0  0
 38 37  1  0  0  0  0
 39 38  1  0  0  0  0
 39 35  1  0  0  0  0
 40 42  1  0  0  0  0
 42 41  1  1  0  0  0
 42 43  1  0  0  0  0
 45 43  1  0  0  0  0
 45 44  1  0  0  0  0
M  END
>  <MODEL>
7

>  <REMARK>
 VINA RESULT:      -5.2      4.298      9.865
  Name = 
  15 active torsions:
  status: ('A' for Active; 'I' for Inactive)
    1  A    between atoms: C_1  and  C_15
    2  A    between atoms: C_1  and  N_30
    3  A    between atoms: C_2  and  N_27
    4  A    between atoms: C_2  and  C_28
    5  A    between atoms: S_5  and  C_36
    6  A    between atoms: S_5  and  C_44
    7  A    between atoms: C_8  and  C_24
    8  A    between atoms: C_9  and  N_30
    9  A    between atoms: N_10  and  N_23
   10  A    between atoms: N_10  and  C_36
   11  A    between atoms: C_15  and  C_32
   12  A    between atoms: C_24  and  N_31
   13  A    between atoms: C_24  and  C_41
   14  A    between atoms: C_32  and  C_40
   15  A    between atoms: C_40  and  N_42
                            x       y       z     vdW  Elec       q    Type
                         _______ _______ _______ _____ _____    ______ ____

>  <TORSDO>
F 15

$$$$
=
 OpenBabel11052410313D

 45 49  0  0  1  0  0  0  0  0999 V2000
  161.6450  211.5410  148.7070 C   0  0  0  0  0  0  0  0  0  0  0  0
  162.2790  207.9390  149.1930 C   0  0  0  0  0  0  0  0  0  0  0  0
  161.4450  212.8950  148.2310 C   0  0  0  0  0  0  0  0  0  0  0  0
  161.9480  210.2410  148.3580 C   0  0  0  0  0  3  0  0  0  0  0  0
  161.9970  207.4800  151.5290 N   0  0  0  0  0  0  0  0  0  0  0  0
  161.1820  213.2880  149.5730 N   0  0  0  0  0  2  0  0  0  0  0  0
  161.4880  213.4760  147.1160 O   0  0  0  0  0  0  0  0  0  0  0  0
  162.2550  207.0500  150.2690 C   0  0  0  0  0  3  0  0  0  0  0  0
  161.7400  208.7810  151.8180 C   0  0  0  0  0  0  0  0  0  0  0  0
  161.7130  209.7360  150.7870 C   0  0  0  0  0  0  0  0  0  0  0  0
  161.4070  211.0950  151.0780 C   0  0  0  0  0  3  0  0  0  0  0  0
  161.3920  211.9360  149.9870 C   0  0  0  0  0  0  0  0  0  0  0  0
  161.9930  209.3050  149.4290 C   0  0  0  0  0  0  0  0  0  0  0  0
  161.4590  209.1610  153.2410 C   0  0  0  0  0  2  0  0  0  0  0  0
  159.7330  207.1030  155.7320 O   0  0  0  0  0  0  0  0  0  0  0  0
  160.5810  208.1800  153.8610 N   0  0  0  0  0  2  0  0  0  0  0  0
  160.4380  209.2760  156.1240 N   0  0  0  0  0  2  0  0  0  0  0  0
  160.2350  208.1540  155.2530 C   0  0  0  0  0  0  0  0  0  0  0  0
  160.7150  210.6370  155.6770 C   0  0  1  0  0  3  0  0  0  0  0  0
  158.3970  210.9540  154.6800 C   0  0  0  0  0  2  0  0  0  0  0  0
  159.5390  212.7660  154.8790 C   0  0  0  0  0  2  0  0  0  0  0  0
  158.5090  212.2470  153.8910 C   0  0  0  0  0  2  0  0  0  0  0  0
  159.4220  211.4740  155.6700 C   0  0  0  0  0  3  0  0  0  0  0  0
  161.8640  211.2300  156.4520 C   0  0  0  0  0  0  0  0  0  0  0  0
  161.6480  212.1300  157.2470 O   0  0  0  0  0  0  0  0  0  0  0  0
  163.2610  210.7200  156.2810 C   0  0  0  0  0  1  0  0  0  0  0  0
  162.5700  207.3970  147.8970 N   0  0  0  0  0  2  0  0  0  0  0  0
  161.5960  206.8080  146.9880 C   0  0  0  0  0  2  0  0  0  0  0  0
  162.3070  206.1480  145.8210 C   0  0  0  0  0  2  0  0  0  0  0  0
  160.0080  205.7190  145.2800 O   0  0  0  0  0  1  0  0  0  0  0  0
  161.3230  205.4370  144.9010 C   0  0  2  0  0  3  0  0  0  0  0  0
  161.5730  203.9320  144.9060 C   0  0  0  0  0  2  0  0  0  0  0  0
  161.2890  203.3570  148.6640 C   0  0  0  0  0  2  0  0  0  0  0  0
  161.1960  201.8980  148.6210 N   0  0  0  0  0  0  0  0  0  0  0  0
  161.9490  203.8650  147.3830 C   0  0  0  0  0  2  0  0  0  0  0  0
  160.1440  201.5140  145.2400 O   0  0  0  0  0  0  0  0  0  0  0  0
  160.1880  201.5320  147.6250 C   0  0  0  0  0  2  0  0  0  0  0  0
  160.5410  202.0980  146.2820 C   0  0  0  0  0  0  0  0  0  0  0  0
  161.2670  203.3380  146.2030 N   0  0  0  0  0  0  0  0  0  0  0  0
  160.6930  201.4880  149.8650 N   0  0  0  0  0  2  0  0  0  0  0  0
  162.3670  201.3290  151.6490 C   0  0  0  0  0  1  0  0  0  0  0  0
  161.4080  202.2340  150.8930 C   0  0  2  0  0  3  0  0  0  0  0  0
  160.2300  203.0520  152.0280 S   0  0  0  0  0  0  0  0  0  0  0  0
  161.2040  204.9370  153.6130 O   0  0  0  0  0  1  0  0  0  0  0  0
  161.1980  204.5780  152.2670 C   0  0  0  0  0  2  0  0  0  0  0  0
  1 12  1  0  0  0  0
  2 13  2  0  0  0  0
  2  8  1  0  0  0  0
  3  1  1  0  0  0  0
  3  6  1  0  0  0  0
  4  1  2  0  0  0  0
  4 13  1  0  0  0  0
  5  9  1  0  0  0  0
  6 12  1  0  0  0  0
  7  3  2  0  0  0  0
  8  5  2  0  0  0  0
  9 14  1  0  0  0  0
 10 11  1  0  0  0  0
 10  9  2  0  0  0  0
 12 11  2  0  0  0  0
 13 10  1  0  0  0  0
 14 16  1  0  0  0  0
 16 18  1  0  0  0  0
 18 15  2  0  0  0  0
 18 17  1  0  0  0  0
 19 17  1  1  0  0  0
 19 24  1  0  0  0  0
 20 23  1  0  0  0  0
 21 23  1  0  0  0  0
 22 20  1  0  0  0  0
 22 21  1  0  0  0  0
 23 19  1  0  0  0  0
 24 25  2  0  0  0  0
 26 24  1  0  0  0  0
 27  2  1  0  0  0  0
 28 27  1  0  0  0  0
 29 28  1  0  0  0  0
 31 32  1  0  0  0  0
 31 30  1  1  0  0  0
 31 29  1  0  0  0  0
 32 39  1  0  0  0  0
 34 33  1  0  0  0  0
 34 40  1  0  0  0  0
 35 33  1  0  0  0  0
 36 38  2  0  0  0  0
 37 34  1  0  0  0  0
 38 37  1  0  0  0  0
 39 38  1  0  0  0  0
 39 35  1  0  0  0  0
 40 42  1  0  0  0  0
 42 41  1  1  0  0  0
 42 43  1  0  0  0  0
 43 45  1  0  0  0  0
 45 44  1  0  0  0  0
M  END
>  <MODEL>
8

>  <REMARK>
 VINA RESULT:      -5.1      4.373      9.943
  Name = 
  15 active torsions:
  status: ('A' for Active; 'I' for Inactive)
    1  A    between atoms: C_1  and  C_15
    2  A    between atoms: C_1  and  N_30
    3  A    between atoms: C_2  and  N_27
    4  A    between atoms: C_2  and  C_28
    5  A    between atoms: S_5  and  C_36
    6  A    between atoms: S_5  and  C_44
    7  A    between atoms: C_8  and  C_24
    8  A    between atoms: C_9  and  N_30
    9  A    between atoms: N_10  and  N_23
   10  A    between atoms: N_10  and  C_36
   11  A    between atoms: C_15  and  C_32
   12  A    between atoms: C_24  and  N_31
   13  A    between atoms: C_24  and  C_41
   14  A    between atoms: C_32  and  C_40
   15  A    between atoms: C_40  and  N_42
                            x       y       z     vdW  Elec       q    Type
                         _______ _______ _______ _____ _____    ______ ____

>  <TORSDO>
F 15

$$$$
=
 OpenBabel11052410313D

 45 49  0  0  1  0  0  0  0  0999 V2000
  161.9260  207.5180  149.8980 C   0  0  0  0  0  0  0  0  0  0  0  0
  161.2870  205.9880  153.1930 C   0  0  0  0  0  0  0  0  0  0  0  0
  162.2200  207.8410  148.5160 C   0  0  0  0  0  0  0  0  0  0  0  0
  161.7960  206.5120  150.8330 C   0  0  0  0  0  3  0  0  0  0  0  0
  160.7330  207.7650  154.7040 N   0  0  0  0  0  0  0  0  0  0  0  0
  162.0270  209.2140  148.8340 N   0  0  0  0  0  2  0  0  0  0  0  0
  162.5200  207.1910  147.4810 O   0  0  0  0  0  0  0  0  0  0  0  0
  160.9040  206.4430  154.4560 C   0  0  0  0  0  3  0  0  0  0  0  0
  160.9100  208.7150  153.7500 C   0  0  0  0  0  0  0  0  0  0  0  0
  161.2650  208.3380  152.4440 C   0  0  0  0  0  0  0  0  0  0  0  0
  161.4160  209.3260  151.4300 C   0  0  0  0  0  3  0  0  0  0  0  0
  161.7480  208.8390  150.1840 C   0  0  0  0  0  0  0  0  0  0  0  0
  161.4620  206.9300  152.1520 C   0  0  0  0  0  0  0  0  0  0  0  0
  160.6920  210.1520  154.1160 C   0  0  0  0  0  2  0  0  0  0  0  0
  161.7110  211.8750  157.1850 O   0  0  0  0  0  0  0  0  0  0  0  0
  161.2310  210.4230  155.4420 N   0  0  0  0  0  2  0  0  0  0  0  0
  159.8740  212.4900  155.9130 N   0  0  0  0  0  2  0  0  0  0  0  0
  160.9610  211.6030  156.2100 C   0  0  0  0  0  0  0  0  0  0  0  0
  158.7560  212.1710  155.0330 C   0  0  1  0  0  3  0  0  0  0  0  0
  156.6570  210.7740  155.3720 C   0  0  0  0  0  2  0  0  0  0  0  0
  156.3390  212.9000  155.4580 C   0  0  0  0  0  2  0  0  0  0  0  0
  155.5260  211.7090  154.9820 C   0  0  0  0  0  2  0  0  0  0  0  0
  157.4680  211.9630  155.8520 C   0  0  0  0  0  3  0  0  0  0  0  0
  158.6530  213.1750  153.9140 C   0  0  0  0  0  0  0  0  0  0  0  0
  158.8110  214.3610  154.1570 O   0  0  0  0  0  0  0  0  0  0  0  0
  158.3840  212.7440  152.5060 C   0  0  0  0  0  1  0  0  0  0  0  0
  161.4530  204.5720  153.0260 N   0  0  0  0  0  2  0  0  0  0  0  0
  160.5420  203.6920  152.3080 C   0  0  0  0  0  2  0  0  0  0  0  0
  161.3090  202.5300  151.7030 C   0  0  0  0  0  2  0  0  0  0  0  0
  159.6800  200.9330  150.9550 O   0  0  0  0  0  1  0  0  0  0  0  0
  160.5620  201.9260  150.5210 C   0  0  2  0  0  3  0  0  0  0  0  0
  161.5420  201.3650  149.4950 C   0  0  0  0  0  2  0  0  0  0  0  0
  161.4030  204.0400  146.7820 C   0  0  0  0  0  2  0  0  0  0  0  0
  160.5670  203.3010  145.8370 N   0  0  0  0  0  0  0  0  0  0  0  0
  161.2040  203.4780  148.1890 C   0  0  0  0  0  2  0  0  0  0  0  0
  161.1530  200.0020  147.0480 O   0  0  0  0  0  0  0  0  0  0  0  0
  161.1280  201.9590  145.6810 C   0  0  0  0  0  2  0  0  0  0  0  0
  161.2060  201.2600  147.0050 C   0  0  0  0  0  0  0  0  0  0  0  0
  161.4100  202.0300  148.2030 N   0  0  0  0  0  0  0  0  0  0  0  0
  160.7040  203.9360  144.5940 N   0  0  0  0  0  2  0  0  0  0  0  0
  160.4110  206.3550  144.8630 C   0  0  0  0  0  1  0  0  0  0  0  0
  161.3970  205.1980  144.8210 C   0  0  2  0  0  3  0  0  0  0  0  0
  162.6810  205.4640  143.5460 S   0  0  0  0  0  0  0  0  0  0  0  0
  162.2440  206.3100  141.0740 O   0  0  0  0  0  1  0  0  0  0  0  0
  161.5810  206.2050  142.2950 C   0  0  0  0  0  2  0  0  0  0  0  0
  1 12  2  0  0  0  0
  1  4  1  0  0  0  0
  2  8  2  0  0  0  0
  3  6  1  0  0  0  0
  3  1  1  0  0  0  0
  4 13  2  0  0  0  0
  6 12  1  0  0  0  0
  7  3  2  0  0  0  0
  8  5  1  0  0  0  0
  9 14  1  0  0  0  0
  9  5  2  0  0  0  0
 10  9  1  0  0  0  0
 11 10  2  0  0  0  0
 12 11  1  0  0  0  0
 13 10  1  0  0  0  0
 13  2  1  0  0  0  0
 14 16  1  0  0  0  0
 16 18  1  0  0  0  0
 17 18  1  0  0  0  0
 18 15  2  0  0  0  0
 19 24  1  6  0  0  0
 19 23  1  0  0  0  0
 19 17  1  0  0  0  0
 20 23  1  0  0  0  0
 21 23  1  0  0  0  0
 22 20  1  0  0  0  0
 22 21  1  0  0  0  0
 24 25  2  0  0  0  0
 26 24  1  0  0  0  0
 27  2  1  0  0  0  0
 28 27  1  0  0  0  0
 29 28  1  0  0  0  0
 31 30  1  1  0  0  0
 31 29  1  0  0  0  0
 32 31  1  0  0  0  0
 33 35  1  0  0  0  0
 34 33  1  0  0  0  0
 35 39  1  0  0  0  0
 37 34  1  0  0  0  0
 37 38  1  0  0  0  0
 38 36  2  0  0  0  0
 38 39  1  0  0  0  0
 39 32  1  0  0  0  0
 40 42  1  0  0  0  0
 40 34  1  0  0  0  0
 42 41  1  6  0  0  0
 43 42  1  0  0  0  0
 44 45  1  0  0  0  0
 45 43  1  0  0  0  0
M  END
>  <MODEL>
9

>  <REMARK>
 VINA RESULT:      -4.9      4.251      9.544
  Name = 
  15 active torsions:
  status: ('A' for Active; 'I' for Inactive)
    1  A    between atoms: C_1  and  C_15
    2  A    between atoms: C_1  and  N_30
    3  A    between atoms: C_2  and  N_27
    4  A    between atoms: C_2  and  C_28
    5  A    between atoms: S_5  and  C_36
    6  A    between atoms: S_5  and  C_44
    7  A    between atoms: C_8  and  C_24
    8  A    between atoms: C_9  and  N_30
    9  A    between atoms: N_10  and  N_23
   10  A    between atoms: N_10  and  C_36
   11  A    between atoms: C_15  and  C_32
   12  A    between atoms: C_24  and  N_31
   13  A    between atoms: C_24  and  C_41
   14  A    between atoms: C_32  and  C_40
   15  A    between atoms: C_40  and  N_42
                            x       y       z     vdW  Elec       q    Type
                         _______ _______ _______ _____ _____    ______ ____

>  <TORSDO>
F 15

$$$$
