=
 OpenBabel11042423033D

 55 64  0  0  1  0  0  0  0  0999 V2000
  161.9680  214.1010  147.8650 O   0  0  0  0  0  0  0  0  0  0  0  0
  160.0530  212.7020  147.7060 C   0  0  1  0  0  3  0  0  0  0  0  0
  160.2810  212.7940  145.2360 C   0  0  0  0  0  0  0  0  0  0  0  0
  160.3170  213.4460  146.5170 N   0  0  0  0  0  0  0  0  0  0  0  0
  161.7000  210.9930  149.8830 C   0  0  0  0  0  2  0  0  0  0  0  0
  159.9840  211.3790  153.2040 C   0  0  0  0  0  0  0  0  0  0  0  0
  160.8330  210.2400  152.7090 C   0  0  0  0  0  2  0  0  0  0  0  0
  160.1770  211.9800  154.4640 C   0  0  0  0  0  0  0  0  0  0  0  0
  161.2460  213.0920  148.5480 C   0  0  1  0  0  3  0  0  0  0  0  0
  159.3960  213.0820  154.8250 C   0  0  0  0  0  3  0  0  0  0  0  0
  156.0060  214.0040  152.2830 C   0  0  0  0  0  3  0  0  0  0  0  0
  154.9930  214.4500  151.4340 C   0  0  0  0  0  3  0  0  0  0  0  0
  159.0080  211.8810  152.3430 C   0  0  0  0  0  3  0  0  0  0  0  0
  158.4270  213.5810  153.9480 C   0  0  0  0  0  3  0  0  0  0  0  0
  155.1640  214.4160  150.0850 N   0  0  0  0  0  0  0  0  0  0  0  0
  156.4610  213.9710  148.1330 C   0  0  0  0  0  3  0  0  0  0  0  0
  158.5850  213.1220  149.7350 C   0  0  0  0  0  3  0  0  0  0  0  0
  158.7520  213.1640  148.3430 C   0  0  0  0  0  0  0  0  0  0  0  0
  161.8560  211.6790  151.1550 N   0  0  0  0  0  2  0  0  0  0  0  0
  160.4250  211.5410  145.1730 O   0  0  0  0  0  0  0  0  0  0  0  0
  156.3200  213.9700  149.5240 C   0  0  0  0  0  0  0  0  0  0  0  0
  157.3810  213.5180  150.3440 C   0  0  0  0  0  0  0  0  0  0  0  0
  157.2080  213.5160  151.7530 C   0  0  0  0  0  0  0  0  0  0  0  0
  158.2390  212.9950  152.6860 C   0  0  0  0  0  0  0  0  0  0  0  0
  162.1030  210.7090  152.1470 N   0  0  0  0  0  2  0  0  0  0  0  0
  157.6640  213.5640  147.5470 C   0  0  0  0  0  3  0  0  0  0  0  0
  162.1690  211.8940  148.7510 C   0  0  0  0  0  2  0  0  0  0  0  0
  161.2610  214.4530  146.7460 N   0  0  0  0  0  2  0  0  0  0  0  0
  161.2550  211.5240  155.3900 C   0  0  0  0  0  2  0  0  0  0  0  0
  161.4090  210.0800  155.2880 N   0  0  0  0  0  2  0  0  0  0  0  0
  160.5340  207.7770  155.6390 N   0  0  0  0  0  0  0  0  0  0  0  0
  159.7540  206.8510  156.4500 C   0  0  0  0  0  1  0  0  0  0  0  0
  160.4790  209.1870  155.9050 C   0  0  0  0  0  0  0  0  0  0  0  0
  159.6000  209.6420  156.6870 O   0  0  0  0  0  0  0  0  0  0  0  0
  161.4360  207.2200  154.6340 C   0  0  0  0  0  2  0  0  0  0  0  0
  160.5810  207.5610  152.2690 C   0  0  0  0  0  2  0  0  0  0  0  0
  160.6640  206.5910  153.4630 C   0  0  1  0  0  3  0  0  0  0  0  0
  162.2440  205.9560  151.0960 C   0  0  2  0  0  3  0  0  0  0  0  0
  161.2490  207.0700  150.9670 C   0  0  2  0  0  3  0  0  0  0  0  0
  162.4010  205.4530  152.5230 C   0  0  0  0  0  2  0  0  0  0  0  0
  162.6340  207.3070  151.0380 O   0  0  0  0  0  0  0  0  0  0  0  0
  161.1380  205.3050  153.1130 O   0  0  0  0  0  0  0  0  0  0  0  0
  160.2020  213.6100  143.9710 C   0  0  2  0  0  3  0  0  0  0  0  0
  159.6680  212.7900  142.8260 C   0  0  0  0  0  3  0  0  0  0  0  0
  160.1510  212.9190  141.5870 C   0  0  0  0  0  3  0  0  0  0  0  0
  159.3460  212.9500  139.2280 C   0  0  1  0  0  3  0  0  0  0  0  0
  159.6290  212.0680  140.4640 C   0  0  1  0  0  3  0  0  0  0  0  0
  160.1250  211.1580  137.7580 C   0  0  2  0  0  3  0  0  0  0  0  0
  160.2510  210.2300  138.9070 N   0  0  0  0  0  0  0  0  0  0  0  0
  160.3450  212.6320  138.1210 C   0  0  1  0  0  3  0  0  0  0  0  0
  160.5860  210.8950  140.1790 C   0  0  0  0  0  2  0  0  0  0  0  0
  158.9510  212.0900  138.0290 C   0  0  2  0  0  3  0  0  0  0  0  0
  161.3430  209.3220  138.6010 C   0  0  0  0  0  1  0  0  0  0  0  0
  161.5530  214.2430  143.6260 C   0  0  0  0  0  2  0  0  0  0  0  0
  162.6060  213.3550  143.8740 O   0  0  0  0  0  1  0  0  0  0  0  0
  1  9  1  0  0  0  0
  2 18  1  1  0  0  0
  2  9  1  0  0  0  0
  3  4  1  0  0  0  0
  4 28  1  0  0  0  0
  4  2  1  0  0  0  0
  5 19  1  0  0  0  0
  6  8  1  0  0  0  0
  7  6  1  0  0  0  0
  8 10  2  0  0  0  0
  8 29  1  0  0  0  0
  9 27  1  6  0  0  0
 12 11  2  0  0  0  0
 13 24  1  0  0  0  0
 13  6  2  0  0  0  0
 14 10  1  0  0  0  0
 15 12  1  0  0  0  0
 16 21  1  0  0  0  0
 17 22  1  0  0  0  0
 18 17  2  0  0  0  0
 19 25  1  0  0  0  0
 20  3  2  0  0  0  0
 21 15  2  0  0  0  0
 21 22  1  0  0  0  0
 22 23  2  0  0  0  0
 23 11  1  0  0  0  0
 23 24  1  0  0  0  0
 24 14  2  0  0  0  0
 25  7  1  0  0  0  0
 26 16  2  0  0  0  0
 26 18  1  0  0  0  0
 27  5  1  0  0  0  0
 28  1  1  0  0  0  0
 30 29  1  0  0  0  0
 30 33  1  0  0  0  0
 31 33  1  0  0  0  0
 31 32  1  0  0  0  0
 33 34  2  0  0  0  0
 35 31  1  0  0  0  0
 36 37  1  0  0  0  0
 37 35  1  1  0  0  0
 38 40  1  1  0  0  0
 39 41  1  0  0  0  0
 39 38  1  0  0  0  0
 39 36  1  1  0  0  0
 40 42  1  0  0  0  0
 41 38  1  0  0  0  0
 42 37  1  0  0  0  0
 43 44  1  6  0  0  0
 43  3  1  0  0  0  0
 45 44  2  0  0  0  0
 46 47  1  0  0  0  0
 47 45  1  1  0  0  0
 48 52  1  0  0  0  0
 48 50  1  0  0  0  0
 48 49  1  0  0  0  0
 49 51  1  0  0  0  0
 50 46  1  0  0  0  0
 51 47  1  0  0  0  0
 52 50  1  0  0  0  0
 52 46  1  0  0  0  0
 53 49  1  0  0  0  0
 54 55  1  0  0  0  0
 54 43  1  0  0  0  0
M  END
>  <MODEL>
1

>  <REMARK>
 VINA RESULT:      -6.0      0.000      0.000
  Name = 
  8 active torsions:
  status: ('A' for Active; 'I' for Inactive)
    1  A    between atoms: C_4  and  C_38
    2  A    between atoms: C_8  and  C_38
    3  A    between atoms: C_10  and  C_48
    4  A    between atoms: N_11  and  C_25
    5  A    between atoms: C_12  and  C_25
    6  A    between atoms: C_14  and  C_22
    7  A    between atoms: C_20  and  C_38
    8  A    between atoms: C_22  and  N_30
                            x       y       z     vdW  Elec       q    Type
                         _______ _______ _______ _____ _____    ______ ____

>  <TORSDO>
F 8

$$$$
=
 OpenBabel11042423033D

 55 64  0  0  1  0  0  0  0  0999 V2000
  159.9880  206.4470  149.1910 O   0  0  0  0  0  0  0  0  0  0  0  0
  161.5130  207.0180  150.9220 C   0  0  1  0  0  3  0  0  0  0  0  0
  162.0170  204.6010  151.1750 C   0  0  0  0  0  0  0  0  0  0  0  0
  161.0680  205.6630  150.9770 N   0  0  0  0  0  0  0  0  0  0  0  0
  162.5140  209.1280  148.7030 C   0  0  0  0  0  2  0  0  0  0  0  0
  161.4430  212.5600  149.7960 C   0  0  0  0  0  0  0  0  0  0  0  0
  162.6060  212.1680  148.9270 C   0  0  0  0  0  2  0  0  0  0  0  0
  160.5370  213.5810  149.4430 C   0  0  0  0  0  0  0  0  0  0  0  0
  160.8450  207.4780  149.6470 C   0  0  1  0  0  3  0  0  0  0  0  0
  159.4380  213.8390  150.2660 C   0  0  0  0  0  3  0  0  0  0  0  0
  159.4100  211.9290  154.1600 C   0  0  0  0  0  3  0  0  0  0  0  0
  159.2590  211.2350  155.3600 C   0  0  0  0  0  3  0  0  0  0  0  0
  161.2380  211.8330  150.9700 C   0  0  0  0  0  3  0  0  0  0  0  0
  159.2400  213.0970  151.4350 C   0  0  0  0  0  3  0  0  0  0  0  0
  159.6130  209.9240  155.4430 N   0  0  0  0  0  0  0  0  0  0  0  0
  160.4320  207.8950  154.4940 C   0  0  0  0  0  3  0  0  0  0  0  0
  160.7100  209.1630  152.0200 C   0  0  0  0  0  3  0  0  0  0  0  0
  161.0010  207.7940  152.1250 C   0  0  0  0  0  0  0  0  0  0  0  0
  161.5260  210.1480  148.3930 N   0  0  0  0  0  2  0  0  0  0  0  0
  163.2330  204.7950  150.8990 O   0  0  0  0  0  0  0  0  0  0  0  0
  160.1010  209.2480  154.3690 C   0  0  0  0  0  0  0  0  0  0  0  0
  160.2610  209.9060  153.1270 C   0  0  0  0  0  0  0  0  0  0  0  0
  159.9280  211.2820  153.0300 C   0  0  0  0  0  0  0  0  0  0  0  0
  160.1300  212.0700  151.7870 C   0  0  0  0  0  0  0  0  0  0  0  0
  162.2020  211.2590  147.8500 N   0  0  0  0  0  2  0  0  0  0  0  0
  160.8870  207.1760  153.3830 C   0  0  0  0  0  3  0  0  0  0  0  0
  161.8880  207.7480  148.5660 C   0  0  0  0  0  2  0  0  0  0  0  0
  159.9720  205.4530  150.1330 N   0  0  0  0  0  2  0  0  0  0  0  0
  160.6750  214.3370  148.1630 C   0  0  0  0  0  2  0  0  0  0  0  0
  160.0870  213.5690  147.0750 N   0  0  0  0  0  2  0  0  0  0  0  0
  158.2090  213.1230  145.5050 N   0  0  0  0  0  0  0  0  0  0  0  0
  156.7730  213.1010  145.2540 C   0  0  0  0  0  1  0  0  0  0  0  0
  158.7200  213.7440  146.6950 C   0  0  0  0  0  0  0  0  0  0  0  0
  157.9590  214.4530  147.4070 O   0  0  0  0  0  0  0  0  0  0  0  0
  159.0810  212.4150  144.5720 C   0  0  0  0  0  2  0  0  0  0  0  0
  160.7810  214.0340  143.6080 C   0  0  0  0  0  2  0  0  0  0  0  0
  159.4530  213.2900  143.3650 C   0  0  1  0  0  3  0  0  0  0  0  0
  161.7840  212.4250  141.8410 C   0  0  2  0  0  3  0  0  0  0  0  0
  161.9210  213.6960  142.6230 C   0  0  2  0  0  3  0  0  0  0  0  0
  160.4870  211.6810  142.1240 C   0  0  0  0  0  2  0  0  0  0  0  0
  162.5410  212.4990  143.0250 O   0  0  0  0  0  0  0  0  0  0  0  0
  159.4170  212.5870  142.1380 O   0  0  0  0  0  0  0  0  0  0  0  0
  161.5450  203.2300  151.5880 C   0  0  2  0  0  3  0  0  0  0  0  0
  160.8270  202.5370  150.4600 C   0  0  0  0  0  3  0  0  0  0  0  0
  161.3080  202.5460  149.2130 C   0  0  0  0  0  3  0  0  0  0  0  0
  160.3740  202.7770  146.9140 C   0  0  1  0  0  3  0  0  0  0  0  0
  160.5950  201.8220  148.1070 C   0  0  1  0  0  3  0  0  0  0  0  0
  160.7810  200.9380  145.3530 C   0  0  2  0  0  3  0  0  0  0  0  0
  160.8350  199.9640  146.4690 N   0  0  0  0  0  0  0  0  0  0  0  0
  161.2440  202.3490  145.7360 C   0  0  1  0  0  3  0  0  0  0  0  0
  161.3440  200.5280  147.7320 C   0  0  0  0  0  2  0  0  0  0  0  0
  159.7810  202.0270  145.7230 C   0  0  2  0  0  3  0  0  0  0  0  0
  161.7560  198.9140  146.0700 C   0  0  0  0  0  1  0  0  0  0  0  0
  160.6800  203.2900  152.8500 C   0  0  0  0  0  2  0  0  0  0  0  0
  160.9440  204.4490  153.5900 O   0  0  0  0  0  1  0  0  0  0  0  0
  1  9  1  0  0  0  0
  1 28  1  0  0  0  0
  2  4  1  0  0  0  0
  2 18  1  1  0  0  0
  3 43  1  0  0  0  0
  4  3  1  0  0  0  0
  6 13  1  0  0  0  0
  7  6  1  0  0  0  0
  8  6  2  0  0  0  0
  8 10  1  0  0  0  0
  9 27  1  6  0  0  0
  9  2  1  0  0  0  0
 10 14  2  0  0  0  0
 11 12  1  0  0  0  0
 12 15  2  0  0  0  0
 13 24  2  0  0  0  0
 14 24  1  0  0  0  0
 17 18  2  0  0  0  0
 17 22  1  0  0  0  0
 18 26  1  0  0  0  0
 19  5  1  0  0  0  0
 20  3  2  0  0  0  0
 21 16  1  0  0  0  0
 21 15  1  0  0  0  0
 22 21  2  0  0  0  0
 23 22  1  0  0  0  0
 23 11  2  0  0  0  0
 24 23  1  0  0  0  0
 25 19  1  0  0  0  0
 25  7  1  0  0  0  0
 26 16  2  0  0  0  0
 27  5  1  0  0  0  0
 28  4  1  0  0  0  0
 29  8  1  0  0  0  0
 30 29  1  0  0  0  0
 31 33  1  0  0  0  0
 32 31  1  0  0  0  0
 33 30  1  0  0  0  0
 33 34  2  0  0  0  0
 35 31  1  0  0  0  0
 37 36  1  0  0  0  0
 37 35  1  1  0  0  0
 38 40  1  1  0  0  0
 38 39  1  0  0  0  0
 38 41  1  0  0  0  0
 39 41  1  0  0  0  0
 39 36  1  1  0  0  0
 40 42  1  0  0  0  0
 42 37  1  0  0  0  0
 43 44  1  6  0  0  0
 43 54  1  0  0  0  0
 45 44  2  0  0  0  0
 46 47  1  0  0  0  0
 47 45  1  1  0  0  0
 48 52  1  0  0  0  0
 48 50  1  0  0  0  0
 48 49  1  0  0  0  0
 49 51  1  0  0  0  0
 50 46  1  0  0  0  0
 51 47  1  0  0  0  0
 52 50  1  0  0  0  0
 52 46  1  0  0  0  0
 53 49  1  0  0  0  0
 54 55  1  0  0  0  0
M  END
>  <MODEL>
2

>  <REMARK>
 VINA RESULT:      -5.4      3.610      9.605
  Name = 
  8 active torsions:
  status: ('A' for Active; 'I' for Inactive)
    1  A    between atoms: C_4  and  C_38
    2  A    between atoms: C_8  and  C_38
    3  A    between atoms: C_10  and  C_48
    4  A    between atoms: N_11  and  C_25
    5  A    between atoms: C_12  and  C_25
    6  A    between atoms: C_14  and  C_22
    7  A    between atoms: C_20  and  C_38
    8  A    between atoms: C_22  and  N_30
                            x       y       z     vdW  Elec       q    Type
                         _______ _______ _______ _____ _____    ______ ____

>  <TORSDO>
F 8

$$$$
=
 OpenBabel11042423033D

 55 64  0  0  1  0  0  0  0  0999 V2000
  163.4320  212.0560  148.1890 O   0  0  0  0  0  0  0  0  0  0  0  0
  161.0580  211.9580  148.1760 C   0  0  1  0  0  3  0  0  0  0  0  0
  161.0980  213.0440  145.9440 C   0  0  0  0  0  0  0  0  0  0  0  0
  161.5940  212.9410  147.2900 N   0  0  0  0  0  0  0  0  0  0  0  0
  161.6470  208.9030  149.0110 C   0  0  0  0  0  2  0  0  0  0  0  0
  160.7110  208.4860  152.6270 C   0  0  0  0  0  0  0  0  0  0  0  0
  160.7400  207.4510  151.5350 C   0  0  0  0  0  2  0  0  0  0  0  0
  161.3060  208.2800  153.8870 C   0  0  0  0  0  0  0  0  0  0  0  0
  162.3300  211.3160  148.6800 C   0  0  1  0  0  3  0  0  0  0  0  0
  161.3020  209.3150  154.8260 C   0  0  0  0  0  3  0  0  0  0  0  0
  158.8030  212.7490  153.9480 C   0  0  0  0  0  3  0  0  0  0  0  0
  158.1440  213.9450  153.6640 C   0  0  0  0  0  3  0  0  0  0  0  0
  160.1130  209.7130  152.3390 C   0  0  0  0  0  3  0  0  0  0  0  0
  160.7060  210.5440  154.5210 C   0  0  0  0  0  3  0  0  0  0  0  0
  158.1570  214.4530  152.4020 N   0  0  0  0  0  0  0  0  0  0  0  0
  158.8250  214.3990  150.1130 C   0  0  0  0  0  3  0  0  0  0  0  0
  160.2410  212.0370  150.5790 C   0  0  0  0  0  3  0  0  0  0  0  0
  160.2890  212.6250  149.3060 C   0  0  0  0  0  0  0  0  0  0  0  0
  162.2610  208.7740  150.3230 N   0  0  0  0  0  2  0  0  0  0  0  0
  160.5150  212.0540  145.4200 O   0  0  0  0  0  0  0  0  0  0  0  0
  158.8200  213.8310  151.3900 C   0  0  0  0  0  0  0  0  0  0  0  0
  159.5140  212.6220  151.6320 C   0  0  0  0  0  0  0  0  0  0  0  0
  159.4840  212.0610  152.9350 C   0  0  0  0  0  0  0  0  0  0  0  0
  160.1230  210.7600  153.2620 C   0  0  0  0  0  0  0  0  0  0  0  0
  162.0060  207.4710  150.7970 N   0  0  0  0  0  2  0  0  0  0  0  0
  159.5470  213.7960  149.0770 C   0  0  0  0  0  3  0  0  0  0  0  0
  162.4450  209.8840  148.1650 C   0  0  0  0  0  2  0  0  0  0  0  0
  162.9530  213.1620  147.5380 N   0  0  0  0  0  2  0  0  0  0  0  0
  162.0200  207.0110  154.2160 C   0  0  0  0  0  2  0  0  0  0  0  0
  162.0490  206.1480  153.0430 N   0  0  0  0  0  2  0  0  0  0  0  0
  161.2350  204.1510  151.8020 N   0  0  0  0  0  0  0  0  0  0  0  0
  160.7490  202.7770  151.8340 C   0  0  0  0  0  1  0  0  0  0  0  0
  161.3550  204.8980  153.0230 C   0  0  0  0  0  0  0  0  0  0  0  0
  160.8420  204.4500  154.0830 O   0  0  0  0  0  0  0  0  0  0  0  0
  161.6830  204.6930  150.5220 C   0  0  0  0  0  2  0  0  0  0  0  0
  160.3410  205.8100  148.6820 C   0  0  0  0  0  2  0  0  0  0  0  0
  160.6340  204.4890  149.4180 C   0  0  1  0  0  3  0  0  0  0  0  0
  161.6030  204.7520  146.6810 C   0  0  2  0  0  3  0  0  0  0  0  0
  160.6700  205.8160  147.1740 C   0  0  2  0  0  3  0  0  0  0  0  0
  162.0480  203.7900  147.7720 C   0  0  0  0  0  2  0  0  0  0  0  0
  162.0470  206.0490  147.0000 O   0  0  0  0  0  0  0  0  0  0  0  0
  160.9430  203.4150  148.5500 O   0  0  0  0  0  0  0  0  0  0  0  0
  161.3830  214.2760  145.1230 C   0  0  2  0  0  3  0  0  0  0  0  0
  160.6130  214.2580  143.8290 C   0  0  0  0  0  3  0  0  0  0  0  0
  161.1810  213.8750  142.6820 C   0  0  0  0  0  3  0  0  0  0  0  0
  161.2350  214.3950  140.2450 C   0  0  1  0  0  3  0  0  0  0  0  0
  160.3880  213.8320  141.4060 C   0  0  1  0  0  3  0  0  0  0  0  0
  160.2750  212.7350  138.7270 C   0  0  2  0  0  3  0  0  0  0  0  0
  159.3300  212.2810  139.7740 N   0  0  0  0  0  0  0  0  0  0  0  0
  161.6010  213.2740  139.2760 C   0  0  1  0  0  3  0  0  0  0  0  0
  159.8500  212.4120  141.1470 C   0  0  0  0  0  2  0  0  0  0  0  0
  160.5050  214.2300  138.9130 C   0  0  2  0  0  3  0  0  0  0  0  0
  159.0890  210.8670  139.5440 C   0  0  0  0  0  1  0  0  0  0  0  0
  162.8850  214.4530  144.8810 C   0  0  0  0  0  2  0  0  0  0  0  0
  163.4450  213.3030  144.3130 O   0  0  0  0  0  1  0  0  0  0  0  0
  1  9  1  0  0  0  0
  2  9  1  0  0  0  0
  2 18  1  1  0  0  0
  3  4  1  0  0  0  0
  4 28  1  0  0  0  0
  4  2  1  0  0  0  0
  5 19  1  0  0  0  0
  6  8  1  0  0  0  0
  7  6  1  0  0  0  0
  8 29  1  0  0  0  0
  8 10  2  0  0  0  0
  9 27  1  6  0  0  0
 12 11  1  0  0  0  0
 13  6  2  0  0  0  0
 13 24  1  0  0  0  0
 14 10  1  0  0  0  0
 15 12  2  0  0  0  0
 16 21  1  0  0  0  0
 17 22  1  0  0  0  0
 18 17  2  0  0  0  0
 19 25  1  0  0  0  0
 20  3  2  0  0  0  0
 21 22  2  0  0  0  0
 21 15  1  0  0  0  0
 22 23  1  0  0  0  0
 23 24  1  0  0  0  0
 23 11  2  0  0  0  0
 24 14  2  0  0  0  0
 25  7  1  0  0  0  0
 26 18  1  0  0  0  0
 26 16  2  0  0  0  0
 27  5  1  0  0  0  0
 28  1  1  0  0  0  0
 30 29  1  0  0  0  0
 31 32  1  0  0  0  0
 31 33  1  0  0  0  0
 33 30  1  0  0  0  0
 33 34  2  0  0  0  0
 35 31  1  0  0  0  0
 36 37  1  0  0  0  0
 37 35  1  1  0  0  0
 38 41  1  0  0  0  0
 38 39  1  0  0  0  0
 38 40  1  1  0  0  0
 39 36  1  1  0  0  0
 40 42  1  0  0  0  0
 41 39  1  0  0  0  0
 42 37  1  0  0  0  0
 43 44  1  6  0  0  0
 43  3  1  0  0  0  0
 45 44  2  0  0  0  0
 46 47  1  0  0  0  0
 47 45  1  1  0  0  0
 48 52  1  0  0  0  0
 48 50  1  0  0  0  0
 48 49  1  0  0  0  0
 49 51  1  0  0  0  0
 50 46  1  0  0  0  0
 51 47  1  0  0  0  0
 52 50  1  0  0  0  0
 52 46  1  0  0  0  0
 53 49  1  0  0  0  0
 54 43  1  0  0  0  0
 55 54  1  0  0  0  0
M  END
>  <MODEL>
3

>  <REMARK>
 VINA RESULT:      -4.7      2.263      3.364
  Name = 
  8 active torsions:
  status: ('A' for Active; 'I' for Inactive)
    1  A    between atoms: C_4  and  C_38
    2  A    between atoms: C_8  and  C_38
    3  A    between atoms: C_10  and  C_48
    4  A    between atoms: N_11  and  C_25
    5  A    between atoms: C_12  and  C_25
    6  A    between atoms: C_14  and  C_22
    7  A    between atoms: C_20  and  C_38
    8  A    between atoms: C_22  and  N_30
                            x       y       z     vdW  Elec       q    Type
                         _______ _______ _______ _____ _____    ______ ____

>  <TORSDO>
F 8

$$$$
