=
 OpenBabel11042422533D

 29 31  0  0  0  0  0  0  0  0999 V2000
  160.9730  207.0940  154.1350 C   0  0  0  0  0  0  0  0  0  0  0  0
  161.1810  208.2000  153.2810 C   0  0  0  0  0  0  0  0  0  0  0  0
  161.9220  208.8360  149.6880 C   0  0  0  0  0  0  0  0  0  0  0  0
  161.2050  205.5730  152.2580 C   0  0  0  0  0  0  0  0  0  0  0  0
  161.1990  204.2690  151.7740 O   0  0  0  0  0  1  0  0  0  0  0  0
  160.9820  205.7970  153.6150 C   0  0  0  0  0  3  0  0  0  0  0  0
  161.4390  207.9760  151.9140 C   0  0  0  0  0  0  0  0  0  0  0  0
  161.6850  206.4440  150.0360 C   0  0  0  0  0  3  0  0  0  0  0  0
  161.4430  206.6560  151.3990 C   0  0  0  0  0  0  0  0  0  0  0  0
  161.9230  207.5260  149.1860 C   0  0  0  0  0  3  0  0  0  0  0  0
  161.6790  209.0520  151.0470 C   0  0  0  0  0  3  0  0  0  0  0  0
  162.1680  209.9960  148.8210 C   0  0  0  0  0  3  0  0  0  0  0  0
  161.9890  211.2470  149.2270 C   0  0  0  0  0  3  0  0  0  0  0  0
  162.2580  212.3780  148.2990 C   0  0  0  0  0  2  0  0  0  0  0  0
  159.5780  213.3670  148.1380 O   0  0  0  0  0  0  0  0  0  0  0  0
  160.0540  212.7910  147.1240 C   0  0  0  0  0  0  0  0  0  0  0  0
  159.2560  212.6470  145.9560 N   0  0  0  0  0  1  0  0  0  0  0  0
  161.3900  212.2860  147.1340 N   0  0  0  0  0  2  0  0  0  0  0  0
  160.8110  207.2520  155.5580 C   0  0  0  0  0  0  0  0  0  0  0  0
  160.6730  207.3850  156.7480 C   0  0  0  0  0  3  0  0  0  0  0  0
  161.1890  209.5460  153.7890 N   0  0  0  0  0  2  0  0  0  0  0  0
  158.2960  211.2020  155.5280 N   0  0  0  0  0  0  0  0  0  0  0  0
  157.5950  212.4090  153.5190 C   0  0  0  0  0  3  0  0  0  0  0  0
  156.1630  212.8880  155.6780 Cl  0  0  0  0  0  0  0  0  0  0  0  0
  159.5860  211.0750  152.7340 C   0  0  0  0  0  3  0  0  0  0  0  0
  157.4660  212.1120  154.8060 C   0  0  0  0  0  0  0  0  0  0  0  0
  159.4480  210.4470  155.1460 C   0  0  0  0  0  2  0  0  0  0  0  0
  158.5720  211.9140  152.5500 C   0  0  0  0  0  3  0  0  0  0  0  0
  160.0400  210.3900  153.9490 C   0  0  0  0  0  0  0  0  0  0  0  0
  1 19  1  0  0  0  0
  2 21  1  0  0  0  0
  2  1  2  0  0  0  0
  3 11  1  0  0  0  0
  4  6  2  0  0  0  0
  5  4  1  0  0  0  0
  6  1  1  0  0  0  0
  7  2  1  0  0  0  0
  8  9  2  0  0  0  0
  9  7  1  0  0  0  0
  9  4  1  0  0  0  0
 10  3  2  0  0  0  0
 10  8  1  0  0  0  0
 11  7  2  0  0  0  0
 12 13  2  0  0  0  0
 12  3  1  0  0  0  0
 14 13  1  0  0  0  0
 16 18  1  0  0  0  0
 16 15  2  0  0  0  0
 17 16  1  0  0  0  0
 18 14  1  0  0  0  0
 19 20  3  0  0  0  0
 21 29  1  0  0  0  0
 23 26  1  0  0  0  0
 25 29  2  0  0  0  0
 26 22  2  0  0  0  0
 26 24  1  0  0  0  0
 27 22  1  0  0  0  0
 28 25  1  0  0  0  0
 28 23  2  0  0  0  0
 29 27  1  0  0  0  0
M  END
>  <MODEL>
1

>  <REMARK>
 VINA RESULT:      -7.5      0.000      0.000
  Name = 
  6 active torsions:
  status: ('A' for Active; 'I' for Inactive)
    1  A    between atoms: C_1  and  C_9
    2  A    between atoms: C_2  and  N_14
    3  A    between atoms: C_4  and  C_11
    4  A    between atoms: C_4  and  N_27
    5  A    between atoms: C_5  and  C_7
    6  A    between atoms: N_14  and  C_28
                            x       y       z     vdW  Elec       q    Type
                         _______ _______ _______ _____ _____    ______ ____

>  <TORSDO>
F 6

$$$$
=
 OpenBabel11042422533D

 29 31  0  0  0  0  0  0  0  0999 V2000
  160.4760  210.3600  155.9060 C   0  0  0  0  0  0  0  0  0  0  0  0
  160.6840  210.2860  154.5110 C   0  0  0  0  0  0  0  0  0  0  0  0
  161.1850  207.6690  151.9100 C   0  0  0  0  0  0  0  0  0  0  0  0
  160.4720  207.9370  156.0560 C   0  0  0  0  0  0  0  0  0  0  0  0
  160.3490  206.7920  156.8360 O   0  0  0  0  0  1  0  0  0  0  0  0
  160.3670  209.1890  156.6600 C   0  0  0  0  0  3  0  0  0  0  0  0
  160.8230  209.0240  153.9010 C   0  0  0  0  0  0  0  0  0  0  0  0
  160.8320  206.5930  154.0590 C   0  0  0  0  0  3  0  0  0  0  0  0
  160.7080  207.8440  154.6760 C   0  0  0  0  0  0  0  0  0  0  0  0
  161.0690  206.5050  152.6860 C   0  0  0  0  0  3  0  0  0  0  0  0
  161.0600  208.9180  152.5220 C   0  0  0  0  0  3  0  0  0  0  0  0
  161.4330  207.6120  150.4640 C   0  0  0  0  0  3  0  0  0  0  0  0
  160.9700  206.6340  149.6940 C   0  0  0  0  0  3  0  0  0  0  0  0
  161.2560  206.6360  148.2330 C   0  0  0  0  0  2  0  0  0  0  0  0
  162.0950  205.8300  145.6190 O   0  0  0  0  0  0  0  0  0  0  0  0
  161.6410  204.9440  146.3910 C   0  0  0  0  0  0  0  0  0  0  0  0
  161.5540  203.5970  145.9430 N   0  0  0  0  0  1  0  0  0  0  0  0
  161.2170  205.2770  147.7140 N   0  0  0  0  0  2  0  0  0  0  0  0
  160.4330  211.6200  156.6030 C   0  0  0  0  0  0  0  0  0  0  0  0
  160.3990  212.6750  157.1860 C   0  0  0  0  0  3  0  0  0  0  0  0
  160.8130  211.4740  153.7100 N   0  0  0  0  0  2  0  0  0  0  0  0
  158.9450  213.1680  150.9210 N   0  0  0  0  0  0  0  0  0  0  0  0
  157.0180  213.6860  152.3360 C   0  0  0  0  0  3  0  0  0  0  0  0
  156.8000  214.4310  149.8180 Cl  0  0  0  0  0  0  0  0  0  0  0  0
  158.6040  212.5250  153.9140 C   0  0  0  0  0  3  0  0  0  0  0  0
  157.6410  213.6960  151.1640 C   0  0  0  0  0  0  0  0  0  0  0  0
  159.8710  212.4770  151.7630 C   0  0  0  0  0  2  0  0  0  0  0  0
  157.4720  213.1550  153.6200 C   0  0  0  0  0  3  0  0  0  0  0  0
  159.7390  212.1660  153.0560 C   0  0  0  0  0  0  0  0  0  0  0  0
  1 19  1  0  0  0  0
  1  6  1  0  0  0  0
  2  1  2  0  0  0  0
  3 11  2  0  0  0  0
  3 10  1  0  0  0  0
  4  6  2  0  0  0  0
  4  5  1  0  0  0  0
  7  2  1  0  0  0  0
  7  9  2  0  0  0  0
  8  9  1  0  0  0  0
  9  4  1  0  0  0  0
 10  8  2  0  0  0  0
 11  7  1  0  0  0  0
 12  3  1  0  0  0  0
 13 12  2  0  0  0  0
 14 13  1  0  0  0  0
 15 16  2  0  0  0  0
 16 18  1  0  0  0  0
 17 16  1  0  0  0  0
 18 14  1  0  0  0  0
 19 20  3  0  0  0  0
 21  2  1  0  0  0  0
 22 26  2  0  0  0  0
 22 27  1  0  0  0  0
 23 28  2  0  0  0  0
 24 26  1  0  0  0  0
 26 23  1  0  0  0  0
 27 29  1  0  0  0  0
 28 25  1  0  0  0  0
 29 21  1  0  0  0  0
 29 25  2  0  0  0  0
M  END
>  <MODEL>
2

>  <REMARK>
 VINA RESULT:      -7.2      3.333      4.740
  Name = 
  6 active torsions:
  status: ('A' for Active; 'I' for Inactive)
    1  A    between atoms: C_1  and  C_9
    2  A    between atoms: C_2  and  N_14
    3  A    between atoms: C_4  and  C_11
    4  A    between atoms: C_4  and  N_27
    5  A    between atoms: C_5  and  C_7
    6  A    between atoms: N_14  and  C_28
                            x       y       z     vdW  Elec       q    Type
                         _______ _______ _______ _____ _____    ______ ____

>  <TORSDO>
F 6

$$$$
=
 OpenBabel11042422533D

 29 31  0  0  0  0  0  0  0  0999 V2000
  160.9150  209.1450  152.8090 C   0  0  0  0  0  0  0  0  0  0  0  0
  161.5570  209.4700  151.5930 C   0  0  0  0  0  0  0  0  0  0  0  0
  161.5950  212.2630  149.1320 C   0  0  0  0  0  0  0  0  0  0  0  0
  159.7750  211.2880  152.8050 C   0  0  0  0  0  0  0  0  0  0  0  0
  158.9030  212.1740  153.4300 O   0  0  0  0  0  1  0  0  0  0  0  0
  160.0390  210.0560  153.4030 C   0  0  0  0  0  3  0  0  0  0  0  0
  161.2690  210.7000  150.9700 C   0  0  0  0  0  0  0  0  0  0  0  0
  160.1110  212.8440  150.9640 C   0  0  0  0  0  3  0  0  0  0  0  0
  160.3800  211.6170  151.5840 C   0  0  0  0  0  0  0  0  0  0  0  0
  160.7140  213.1650  149.7470 C   0  0  0  0  0  3  0  0  0  0  0  0
  161.8680  211.0390  149.7470 C   0  0  0  0  0  3  0  0  0  0  0  0
  162.2470  212.5710  147.8520 C   0  0  0  0  0  3  0  0  0  0  0  0
  161.8910  213.6010  147.0940 C   0  0  0  0  0  3  0  0  0  0  0  0
  162.5930  213.8590  145.8070 C   0  0  0  0  0  2  0  0  0  0  0  0
  163.4410  213.8340  143.0750 O   0  0  0  0  0  0  0  0  0  0  0  0
  162.5250  213.0370  143.4140 C   0  0  0  0  0  0  0  0  0  0  0  0
  161.9480  212.1730  142.4440 N   0  0  0  0  0  1  0  0  0  0  0  0
  162.0650  212.9910  144.7660 N   0  0  0  0  0  2  0  0  0  0  0  0
  161.0860  207.8600  153.4390 C   0  0  0  0  0  0  0  0  0  0  0  0
  161.2290  206.7850  153.9650 C   0  0  0  0  0  3  0  0  0  0  0  0
  162.4560  208.5480  150.9520 N   0  0  0  0  0  2  0  0  0  0  0  0
  162.1050  206.9300  147.5770 N   0  0  0  0  0  0  0  0  0  0  0  0
  160.9610  204.9660  148.4800 C   0  0  0  0  0  3  0  0  0  0  0  0
  161.3900  204.9230  145.8800 Cl  0  0  0  0  0  0  0  0  0  0  0  0
  161.3580  206.3970  150.5160 C   0  0  0  0  0  3  0  0  0  0  0  0
  161.4840  205.6490  147.4690 C   0  0  0  0  0  0  0  0  0  0  0  0
  162.3830  207.7690  148.7000 C   0  0  0  0  0  2  0  0  0  0  0  0
  160.8870  205.3210  149.8960 C   0  0  0  0  0  3  0  0  0  0  0  0
  162.0900  207.5520  149.9860 C   0  0  0  0  0  0  0  0  0  0  0  0
  1  6  1  0  0  0  0
  1 19  1  0  0  0  0
  2  1  2  0  0  0  0
  3 10  2  0  0  0  0
  3 11  1  0  0  0  0
  4  6  2  0  0  0  0
  4  5  1  0  0  0  0
  7  9  1  0  0  0  0
  7  2  1  0  0  0  0
  8  9  2  0  0  0  0
  9  4  1  0  0  0  0
 10  8  1  0  0  0  0
 11  7  2  0  0  0  0
 12  3  1  0  0  0  0
 13 12  2  0  0  0  0
 14 13  1  0  0  0  0
 15 16  2  0  0  0  0
 16 18  1  0  0  0  0
 17 16  1  0  0  0  0
 18 14  1  0  0  0  0
 19 20  3  0  0  0  0
 21  2  1  0  0  0  0
 22 27  1  0  0  0  0
 23 28  2  0  0  0  0
 24 26  1  0  0  0  0
 26 22  2  0  0  0  0
 26 23  1  0  0  0  0
 27 29  1  0  0  0  0
 28 25  1  0  0  0  0
 29 25  2  0  0  0  0
 29 21  1  0  0  0  0
M  END
>  <MODEL>
3

>  <REMARK>
 VINA RESULT:      -7.1      3.765      6.046
  Name = 
  6 active torsions:
  status: ('A' for Active; 'I' for Inactive)
    1  A    between atoms: C_1  and  C_9
    2  A    between atoms: C_2  and  N_14
    3  A    between atoms: C_4  and  C_11
    4  A    between atoms: C_4  and  N_27
    5  A    between atoms: C_5  and  C_7
    6  A    between atoms: N_14  and  C_28
                            x       y       z     vdW  Elec       q    Type
                         _______ _______ _______ _____ _____    ______ ____

>  <TORSDO>
F 6

$$$$
=
 OpenBabel11042422533D

 29 31  0  0  0  0  0  0  0  0999 V2000
  161.6230  208.3880  150.9400 C   0  0  0  0  0  0  0  0  0  0  0  0
  161.5590  207.3460  149.9880 C   0  0  0  0  0  0  0  0  0  0  0  0
  161.0310  203.6600  149.9350 C   0  0  0  0  0  0  0  0  0  0  0  0
  161.1420  206.8170  152.7260 C   0  0  0  0  0  0  0  0  0  0  0  0
  160.9250  206.5830  154.0800 O   0  0  0  0  0  1  0  0  0  0  0  0
  161.4090  208.1140  152.2930 C   0  0  0  0  0  3  0  0  0  0  0  0
  161.3210  206.0280  150.4250 C   0  0  0  0  0  0  0  0  0  0  0  0
  160.8510  204.4530  152.2240 C   0  0  0  0  0  3  0  0  0  0  0  0
  161.1030  205.7640  151.8000 C   0  0  0  0  0  0  0  0  0  0  0  0
  160.8160  203.4080  151.2990 C   0  0  0  0  0  3  0  0  0  0  0  0
  161.2810  204.9670  149.5080 C   0  0  0  0  0  3  0  0  0  0  0  0
  160.9990  202.5840  148.9360 C   0  0  0  0  0  3  0  0  0  0  0  0
  161.5570  201.3970  149.1410 C   0  0  0  0  0  3  0  0  0  0  0  0
  161.4870  200.3480  148.0870 C   0  0  0  0  0  2  0  0  0  0  0  0
  161.1440  198.9510  145.6140 O   0  0  0  0  0  0  0  0  0  0  0  0
  160.6730  200.1170  145.7020 C   0  0  0  0  0  0  0  0  0  0  0  0
  160.0060  200.6930  144.5860 N   0  0  0  0  0  1  0  0  0  0  0  0
  160.8000  200.8640  146.9130 N   0  0  0  0  0  2  0  0  0  0  0  0
  161.9690  209.7370  150.5680 C   0  0  0  0  0  0  0  0  0  0  0  0
  162.2580  210.8650  150.2550 C   0  0  0  0  0  3  0  0  0  0  0  0
  161.7870  207.5950  148.5890 N   0  0  0  0  0  2  0  0  0  0  0  0
  159.9960  205.6890  145.8880 N   0  0  0  0  0  0  0  0  0  0  0  0
  161.9670  204.3530  145.3270 C   0  0  0  0  0  3  0  0  0  0  0  0
  159.8320  203.8830  143.8570 Cl  0  0  0  0  0  0  0  0  0  0  0  0
  162.7690  205.8090  147.2230 C   0  0  0  0  0  3  0  0  0  0  0  0
  160.7020  204.7050  145.1330 C   0  0  0  0  0  0  0  0  0  0  0  0
  160.4050  206.5600  146.9450 C   0  0  0  0  0  2  0  0  0  0  0  0
  162.9250  204.8550  146.3110 C   0  0  0  0  0  3  0  0  0  0  0  0
  161.6050  206.6480  147.5270 C   0  0  0  0  0  0  0  0  0  0  0  0
  1  6  1  0  0  0  0
  2  7  1  0  0  0  0
  2  1  2  0  0  0  0
  3 10  1  0  0  0  0
  4  5  1  0  0  0  0
  6  4  2  0  0  0  0
  7  9  2  0  0  0  0
  9  8  1  0  0  0  0
  9  4  1  0  0  0  0
 10  8  2  0  0  0  0
 11  3  2  0  0  0  0
 11  7  1  0  0  0  0
 12 13  2  0  0  0  0
 12  3  1  0  0  0  0
 14 13  1  0  0  0  0
 15 16  2  0  0  0  0
 16 18  1  0  0  0  0
 17 16  1  0  0  0  0
 18 14  1  0  0  0  0
 19  1  1  0  0  0  0
 20 19  3  0  0  0  0
 21  2  1  0  0  0  0
 22 27  1  0  0  0  0
 23 28  2  0  0  0  0
 24 26  1  0  0  0  0
 25 29  2  0  0  0  0
 26 23  1  0  0  0  0
 26 22  2  0  0  0  0
 27 29  1  0  0  0  0
 28 25  1  0  0  0  0
 29 21  1  0  0  0  0
M  END
>  <MODEL>
4

>  <REMARK>
 VINA RESULT:      -7.1      5.578      8.695
  Name = 
  6 active torsions:
  status: ('A' for Active; 'I' for Inactive)
    1  A    between atoms: C_1  and  C_9
    2  A    between atoms: C_2  and  N_14
    3  A    between atoms: C_4  and  C_11
    4  A    between atoms: C_4  and  N_27
    5  A    between atoms: C_5  and  C_7
    6  A    between atoms: N_14  and  C_28
                            x       y       z     vdW  Elec       q    Type
                         _______ _______ _______ _____ _____    ______ ____

>  <TORSDO>
F 6

$$$$
=
 OpenBabel11042422533D

 29 31  0  0  0  0  0  0  0  0999 V2000
  159.8180  209.8550  155.3060 C   0  0  0  0  0  0  0  0  0  0  0  0
  160.2890  210.4600  154.1190 C   0  0  0  0  0  0  0  0  0  0  0  0
  159.2040  213.0940  151.7220 C   0  0  0  0  0  0  0  0  0  0  0  0
  157.8850  211.3240  155.3120 C   0  0  0  0  0  0  0  0  0  0  0  0
  156.7100  211.7430  155.9270 O   0  0  0  0  0  1  0  0  0  0  0  0
  158.6280  210.2960  155.8910 C   0  0  0  0  0  3  0  0  0  0  0  0
  159.5250  211.4770  153.5130 C   0  0  0  0  0  0  0  0  0  0  0  0
  157.5770  212.9390  153.5180 C   0  0  0  0  0  3  0  0  0  0  0  0
  158.3220  211.9170  154.1180 C   0  0  0  0  0  0  0  0  0  0  0  0
  158.0140  213.5240  152.3280 C   0  0  0  0  0  3  0  0  0  0  0  0
  159.9520  212.0760  152.3190 C   0  0  0  0  0  3  0  0  0  0  0  0
  159.6940  213.6890  150.4710 C   0  0  0  0  0  3  0  0  0  0  0  0
  158.9510  213.7640  149.3730 C   0  0  0  0  0  3  0  0  0  0  0  0
  159.5060  214.3810  148.1380 C   0  0  0  0  0  2  0  0  0  0  0  0
  160.6680  212.0840  146.8900 O   0  0  0  0  0  0  0  0  0  0  0  0
  161.4470  212.9280  147.4090 C   0  0  0  0  0  0  0  0  0  0  0  0
  162.8510  212.7110  147.3660 N   0  0  0  0  0  1  0  0  0  0  0  0
  160.9310  214.1030  148.0370 N   0  0  0  0  0  2  0  0  0  0  0  0
  160.4980  208.7400  155.9130 C   0  0  0  0  0  0  0  0  0  0  0  0
  161.0660  207.8050  156.4210 C   0  0  0  0  0  3  0  0  0  0  0  0
  161.5050  210.0190  153.4870 N   0  0  0  0  0  2  0  0  0  0  0  0
  162.1950  208.9030  149.9650 N   0  0  0  0  0  0  0  0  0  0  0  0
  161.4830  206.6040  150.4030 C   0  0  0  0  0  3  0  0  0  0  0  0
  162.3540  207.0670  147.9590 Cl  0  0  0  0  0  0  0  0  0  0  0  0
  161.1190  207.7590  152.6140 C   0  0  0  0  0  3  0  0  0  0  0  0
  161.9710  207.5410  149.5990 C   0  0  0  0  0  0  0  0  0  0  0  0
  162.0370  209.6010  151.2010 C   0  0  0  0  0  2  0  0  0  0  0  0
  161.0700  206.7090  151.8020 C   0  0  0  0  0  3  0  0  0  0  0  0
  161.5940  209.1250  152.3690 C   0  0  0  0  0  0  0  0  0  0  0  0
  1  6  1  0  0  0  0
  1 19  1  0  0  0  0
  2  1  2  0  0  0  0
  3 11  2  0  0  0  0
  3 10  1  0  0  0  0
  4  6  2  0  0  0  0
  4  5  1  0  0  0  0
  7  9  2  0  0  0  0
  7  2  1  0  0  0  0
  8  9  1  0  0  0  0
  9  4  1  0  0  0  0
 10  8  2  0  0  0  0
 11  7  1  0  0  0  0
 12  3  1  0  0  0  0
 13 12  2  0  0  0  0
 14 13  1  0  0  0  0
 15 16  2  0  0  0  0
 16 18  1  0  0  0  0
 17 16  1  0  0  0  0
 18 14  1  0  0  0  0
 19 20  3  0  0  0  0
 21  2  1  0  0  0  0
 22 27  1  0  0  0  0
 23 28  2  0  0  0  0
 24 26  1  0  0  0  0
 26 22  2  0  0  0  0
 26 23  1  0  0  0  0
 27 29  1  0  0  0  0
 28 25  1  0  0  0  0
 29 25  2  0  0  0  0
 29 21  1  0  0  0  0
M  END
>  <MODEL>
5

>  <REMARK>
 VINA RESULT:      -6.6      3.130      5.568
  Name = 
  6 active torsions:
  status: ('A' for Active; 'I' for Inactive)
    1  A    between atoms: C_1  and  C_9
    2  A    between atoms: C_2  and  N_14
    3  A    between atoms: C_4  and  C_11
    4  A    between atoms: C_4  and  N_27
    5  A    between atoms: C_5  and  C_7
    6  A    between atoms: N_14  and  C_28
                            x       y       z     vdW  Elec       q    Type
                         _______ _______ _______ _____ _____    ______ ____

>  <TORSDO>
F 6

$$$$
=
 OpenBabel11042422533D

 29 31  0  0  0  0  0  0  0  0999 V2000
  160.4780  209.6050  153.7930 C   0  0  0  0  0  0  0  0  0  0  0  0
  161.0290  210.0480  152.5700 C   0  0  0  0  0  0  0  0  0  0  0  0
  160.6280  212.9050  150.2160 C   0  0  0  0  0  0  0  0  0  0  0  0
  159.0800  211.5860  153.9070 C   0  0  0  0  0  0  0  0  0  0  0  0
  158.1280  212.3340  154.5930 O   0  0  0  0  0  1  0  0  0  0  0  0
  159.5170  210.3780  154.4490 C   0  0  0  0  0  3  0  0  0  0  0  0
  160.5670  211.2520  152.0030 C   0  0  0  0  0  0  0  0  0  0  0  0
  159.1520  213.2320  152.1160 C   0  0  0  0  0  3  0  0  0  0  0  0
  159.5940  212.0290  152.6800 C   0  0  0  0  0  0  0  0  0  0  0  0
  159.6640  213.6680  150.8930 C   0  0  0  0  0  3  0  0  0  0  0  0
  161.0730  211.7050  150.7750 C   0  0  0  0  0  3  0  0  0  0  0  0
  161.1880  213.3350  148.9280 C   0  0  0  0  0  3  0  0  0  0  0  0
  161.8030  212.5010  148.0980 C   0  0  0  0  0  3  0  0  0  0  0  0
  162.3480  213.0010  146.8060 C   0  0  0  0  0  2  0  0  0  0  0  0
  162.8190  212.9720  143.9850 O   0  0  0  0  0  0  0  0  0  0  0  0
  161.6230  212.9530  144.3820 C   0  0  0  0  0  0  0  0  0  0  0  0
  160.5660  212.9270  143.4310 N   0  0  0  0  0  1  0  0  0  0  0  0
  161.3200  212.9530  145.7780 N   0  0  0  0  0  2  0  0  0  0  0  0
  160.8310  208.3310  154.3680 C   0  0  0  0  0  0  0  0  0  0  0  0
  161.1270  207.2660  154.8480 C   0  0  0  0  0  3  0  0  0  0  0  0
  162.0110  209.2680  151.8650 N   0  0  0  0  0  2  0  0  0  0  0  0
  161.7480  207.9760  148.3450 N   0  0  0  0  0  0  0  0  0  0  0  0
  160.9090  205.7920  149.0580 C   0  0  0  0  0  3  0  0  0  0  0  0
  161.2410  206.0780  146.4600 Cl  0  0  0  0  0  0  0  0  0  0  0  0
  161.1910  207.0450  151.2270 C   0  0  0  0  0  3  0  0  0  0  0  0
  161.2990  206.6410  148.1150 C   0  0  0  0  0  0  0  0  0  0  0  0
  161.9560  208.7240  149.5450 C   0  0  0  0  0  2  0  0  0  0  0  0
  160.8430  205.9850  150.5060 C   0  0  0  0  0  3  0  0  0  0  0  0
  161.7430  208.3380  150.8070 C   0  0  0  0  0  0  0  0  0  0  0  0
  1 19  1  0  0  0  0
  1  6  1  0  0  0  0
  2  1  2  0  0  0  0
  3 11  2  0  0  0  0
  3 10  1  0  0  0  0
  4  6  2  0  0  0  0
  4  5  1  0  0  0  0
  7  2  1  0  0  0  0
  7  9  2  0  0  0  0
  8  9  1  0  0  0  0
  9  4  1  0  0  0  0
 10  8  2  0  0  0  0
 11  7  1  0  0  0  0
 12  3  1  0  0  0  0
 13 12  2  0  0  0  0
 14 13  1  0  0  0  0
 15 16  2  0  0  0  0
 16 18  1  0  0  0  0
 17 16  1  0  0  0  0
 18 14  1  0  0  0  0
 19 20  3  0  0  0  0
 21  2  1  0  0  0  0
 22 27  1  0  0  0  0
 23 28  2  0  0  0  0
 24 26  1  0  0  0  0
 26 22  2  0  0  0  0
 26 23  1  0  0  0  0
 27 29  1  0  0  0  0
 28 25  1  0  0  0  0
 29 25  2  0  0  0  0
 29 21  1  0  0  0  0
M  END
>  <MODEL>
6

>  <REMARK>
 VINA RESULT:      -6.6      3.459      5.661
  Name = 
  6 active torsions:
  status: ('A' for Active; 'I' for Inactive)
    1  A    between atoms: C_1  and  C_9
    2  A    between atoms: C_2  and  N_14
    3  A    between atoms: C_4  and  C_11
    4  A    between atoms: C_4  and  N_27
    5  A    between atoms: C_5  and  C_7
    6  A    between atoms: N_14  and  C_28
                            x       y       z     vdW  Elec       q    Type
                         _______ _______ _______ _____ _____    ______ ____

>  <TORSDO>
F 6

$$$$
=
 OpenBabel11042422533D

 29 31  0  0  0  0  0  0  0  0999 V2000
  161.1740  208.6340  151.7880 C   0  0  0  0  0  0  0  0  0  0  0  0
  161.1100  207.6460  150.7800 C   0  0  0  0  0  0  0  0  0  0  0  0
  160.9390  203.9350  150.5310 C   0  0  0  0  0  0  0  0  0  0  0  0
  161.0400  206.9210  153.5040 C   0  0  0  0  0  0  0  0  0  0  0  0
  160.9920  206.5890  154.8540 O   0  0  0  0  0  1  0  0  0  0  0  0
  161.1330  208.2620  153.1350 C   0  0  0  0  0  3  0  0  0  0  0  0
  161.0490  206.2880  151.1480 C   0  0  0  0  0  0  0  0  0  0  0  0
  160.9270  204.5730  152.8740 C   0  0  0  0  0  3  0  0  0  0  0  0
  161.0040  205.9250  152.5170 C   0  0  0  0  0  0  0  0  0  0  0  0
  160.8950  203.5840  151.8890 C   0  0  0  0  0  3  0  0  0  0  0  0
  161.0140  205.2830  150.1710 C   0  0  0  0  0  3  0  0  0  0  0  0
  160.9050  202.9210  149.4690 C   0  0  0  0  0  3  0  0  0  0  0  0
  161.2690  201.6600  149.6690 C   0  0  0  0  0  3  0  0  0  0  0  0
  161.2100  200.6800  148.5510 C   0  0  0  0  0  2  0  0  0  0  0  0
  161.2130  199.5620  145.9170 O   0  0  0  0  0  0  0  0  0  0  0  0
  160.6950  200.7000  146.0720 C   0  0  0  0  0  0  0  0  0  0  0  0
  160.1470  201.3830  144.9520 N   0  0  0  0  0  1  0  0  0  0  0  0
  160.6500  201.3090  147.3640 N   0  0  0  0  0  2  0  0  0  0  0  0
  161.3470  210.0300  151.4760 C   0  0  0  0  0  0  0  0  0  0  0  0
  161.4900  211.1980  151.2160 C   0  0  0  0  0  3  0  0  0  0  0  0
  161.1630  207.9970  149.3860 N   0  0  0  0  0  2  0  0  0  0  0  0
  163.2000  205.7790  147.1350 N   0  0  0  0  0  0  0  0  0  0  0  0
  161.2830  205.2050  145.7290 C   0  0  0  0  0  3  0  0  0  0  0  0
  163.5520  204.0400  145.0690 Cl  0  0  0  0  0  0  0  0  0  0  0  0
  160.3070  206.7920  147.4270 C   0  0  0  0  0  3  0  0  0  0  0  0
  162.5650  205.0960  146.0550 C   0  0  0  0  0  0  0  0  0  0  0  0
  162.6950  206.6600  148.1410 C   0  0  0  0  0  2  0  0  0  0  0  0
  160.2340  206.0080  146.3570 C   0  0  0  0  0  3  0  0  0  0  0  0
  161.4430  207.0980  148.3030 C   0  0  0  0  0  0  0  0  0  0  0  0
  1  6  1  0  0  0  0
  2  7  1  0  0  0  0
  2  1  2  0  0  0  0
  3 10  1  0  0  0  0
  4  5  1  0  0  0  0
  6  4  2  0  0  0  0
  7  9  2  0  0  0  0
  9  8  1  0  0  0  0
  9  4  1  0  0  0  0
 10  8  2  0  0  0  0
 11  3  2  0  0  0  0
 11  7  1  0  0  0  0
 12 13  2  0  0  0  0
 12  3  1  0  0  0  0
 14 13  1  0  0  0  0
 15 16  2  0  0  0  0
 16 18  1  0  0  0  0
 17 16  1  0  0  0  0
 18 14  1  0  0  0  0
 19  1  1  0  0  0  0
 20 19  3  0  0  0  0
 21  2  1  0  0  0  0
 22 27  1  0  0  0  0
 23 26  1  0  0  0  0
 23 28  2  0  0  0  0
 24 26  1  0  0  0  0
 25 29  2  0  0  0  0
 26 22  2  0  0  0  0
 27 29  1  0  0  0  0
 28 25  1  0  0  0  0
 29 21  1  0  0  0  0
M  END
>  <MODEL>
7

>  <REMARK>
 VINA RESULT:      -6.5      5.311      8.266
  Name = 
  6 active torsions:
  status: ('A' for Active; 'I' for Inactive)
    1  A    between atoms: C_1  and  C_9
    2  A    between atoms: C_2  and  N_14
    3  A    between atoms: C_4  and  C_11
    4  A    between atoms: C_4  and  N_27
    5  A    between atoms: C_5  and  C_7
    6  A    between atoms: N_14  and  C_28
                            x       y       z     vdW  Elec       q    Type
                         _______ _______ _______ _____ _____    ______ ____

>  <TORSDO>
F 6

$$$$
=
 OpenBabel11042422533D

 29 31  0  0  0  0  0  0  0  0999 V2000
  160.8350  208.1040  153.9890 C   0  0  0  0  0  0  0  0  0  0  0  0
  161.3520  207.3560  152.9070 C   0  0  0  0  0  0  0  0  0  0  0  0
  162.3150  207.9100  149.3540 C   0  0  0  0  0  0  0  0  0  0  0  0
  160.8580  210.1180  152.6350 C   0  0  0  0  0  0  0  0  0  0  0  0
  160.6200  211.4850  152.5290 O   0  0  0  0  0  1  0  0  0  0  0  0
  160.5990  209.4730  153.8430 C   0  0  0  0  0  3  0  0  0  0  0  0
  161.5850  207.9970  151.6750 C   0  0  0  0  0  0  0  0  0  0  0  0
  161.5930  210.0200  150.3170 C   0  0  0  0  0  3  0  0  0  0  0  0
  161.3440  209.3870  151.5410 C   0  0  0  0  0  0  0  0  0  0  0  0
  162.0750  209.2870  149.2300 C   0  0  0  0  0  3  0  0  0  0  0  0
  162.0700  207.2760  150.5740 C   0  0  0  0  0  3  0  0  0  0  0  0
  162.8230  207.1110  148.2310 C   0  0  0  0  0  3  0  0  0  0  0  0
  162.0240  206.4640  147.3910 C   0  0  0  0  0  3  0  0  0  0  0  0
  162.6040  205.6720  146.2720 C   0  0  0  0  0  2  0  0  0  0  0  0
  160.7770  204.3090  144.5420 O   0  0  0  0  0  0  0  0  0  0  0  0
  161.2800  203.6580  145.4970 C   0  0  0  0  0  0  0  0  0  0  0  0
  160.9240  202.2940  145.6860 N   0  0  0  0  0  1  0  0  0  0  0  0
  162.2090  204.2760  146.3900 N   0  0  0  0  0  2  0  0  0  0  0  0
  160.4750  207.4840  155.2390 C   0  0  0  0  0  0  0  0  0  0  0  0
  160.1740  206.9660  156.2850 C   0  0  0  0  0  3  0  0  0  0  0  0
  161.5930  205.9420  153.0240 N   0  0  0  0  0  2  0  0  0  0  0  0
  161.6340  202.5910  151.3200 N   0  0  0  0  0  0  0  0  0  0  0  0
  160.2990  203.3790  149.4280 C   0  0  0  0  0  3  0  0  0  0  0  0
  160.9560  200.8280  149.3590 Cl  0  0  0  0  0  0  0  0  0  0  0  0
  160.5500  205.4370  150.8610 C   0  0  0  0  0  3  0  0  0  0  0  0
  160.9430  202.4210  150.0820 C   0  0  0  0  0  0  0  0  0  0  0  0
  161.7830  203.7180  152.1860 C   0  0  0  0  0  2  0  0  0  0  0  0
  160.1290  204.7870  149.7810 C   0  0  0  0  0  3  0  0  0  0  0  0
  161.3060  204.9560  152.0220 C   0  0  0  0  0  0  0  0  0  0  0  0
  1 19  1  0  0  0  0
  2 21  1  0  0  0  0
  2  1  2  0  0  0  0
  3 11  1  0  0  0  0
  4  6  2  0  0  0  0
  5  4  1  0  0  0  0
  6  1  1  0  0  0  0
  7  2  1  0  0  0  0
  8  9  2  0  0  0  0
  9  7  1  0  0  0  0
  9  4  1  0  0  0  0
 10  3  2  0  0  0  0
 10  8  1  0  0  0  0
 11  7  2  0  0  0  0
 12  3  1  0  0  0  0
 13 12  2  0  0  0  0
 14 18  1  0  0  0  0
 14 13  1  0  0  0  0
 15 16  2  0  0  0  0
 16 17  1  0  0  0  0
 16 18  1  0  0  0  0
 19 20  3  0  0  0  0
 22 27  1  0  0  0  0
 23 28  2  0  0  0  0
 23 26  1  0  0  0  0
 24 26  1  0  0  0  0
 25 29  2  0  0  0  0
 26 22  2  0  0  0  0
 28 25  1  0  0  0  0
 29 27  1  0  0  0  0
 29 21  1  0  0  0  0
M  END
>  <MODEL>
8

>  <REMARK>
 VINA RESULT:      -6.4      4.609      6.729
  Name = 
  6 active torsions:
  status: ('A' for Active; 'I' for Inactive)
    1  A    between atoms: C_1  and  C_9
    2  A    between atoms: C_2  and  N_14
    3  A    between atoms: C_4  and  C_11
    4  A    between atoms: C_4  and  N_27
    5  A    between atoms: C_5  and  C_7
    6  A    between atoms: N_14  and  C_28
                            x       y       z     vdW  Elec       q    Type
                         _______ _______ _______ _____ _____    ______ ____

>  <TORSDO>
F 6

$$$$
=
 OpenBabel11042422533D

 29 31  0  0  0  0  0  0  0  0999 V2000
  161.8430  209.9690  150.0330 C   0  0  0  0  0  0  0  0  0  0  0  0
  162.0750  208.5840  149.8740 C   0  0  0  0  0  0  0  0  0  0  0  0
  161.5890  205.4430  151.8130 C   0  0  0  0  0  0  0  0  0  0  0  0
  160.8340  209.5710  152.2050 C   0  0  0  0  0  0  0  0  0  0  0  0
  160.2110  210.0800  153.3400 O   0  0  0  0  0  1  0  0  0  0  0  0
  161.2220  210.4450  151.1910 C   0  0  0  0  0  3  0  0  0  0  0  0
  161.7140  207.7010  150.9100 C   0  0  0  0  0  0  0  0  0  0  0  0
  160.7130  207.3100  153.0960 C   0  0  0  0  0  3  0  0  0  0  0  0
  161.0820  208.1970  152.0780 C   0  0  0  0  0  0  0  0  0  0  0  0
  160.9640  205.9420  152.9660 C   0  0  0  0  0  3  0  0  0  0  0  0
  161.9580  206.3250  150.7930 C   0  0  0  0  0  3  0  0  0  0  0  0
  161.8660  204.0110  151.6430 C   0  0  0  0  0  3  0  0  0  0  0  0
  160.9540  203.1490  151.2090 C   0  0  0  0  0  3  0  0  0  0  0  0
  161.3010  201.7100  151.0570 C   0  0  0  0  0  2  0  0  0  0  0  0
  159.3780  201.4960  148.9500 O   0  0  0  0  0  0  0  0  0  0  0  0
  160.5900  201.3070  148.6620 C   0  0  0  0  0  0  0  0  0  0  0  0
  160.9550  200.9910  147.3240 N   0  0  0  0  0  1  0  0  0  0  0  0
  161.6010  201.4110  149.6650 N   0  0  0  0  0  2  0  0  0  0  0  0
  162.2860  210.9320  149.0570 C   0  0  0  0  0  0  0  0  0  0  0  0
  162.6560  211.7380  148.2410 C   0  0  0  0  0  3  0  0  0  0  0  0
  162.7220  208.0650  148.6980 N   0  0  0  0  0  2  0  0  0  0  0  0
  160.4160  206.4530  146.2050 N   0  0  0  0  0  0  0  0  0  0  0  0
  161.6480  204.3390  146.2190 C   0  0  0  0  0  3  0  0  0  0  0  0
  159.5890  204.4320  144.5780 Cl  0  0  0  0  0  0  0  0  0  0  0  0
  162.9070  205.7600  147.8780 C   0  0  0  0  0  3  0  0  0  0  0  0
  160.6670  205.1150  145.7750 C   0  0  0  0  0  0  0  0  0  0  0  0
  161.1080  207.3130  147.1120 C   0  0  0  0  0  2  0  0  0  0  0  0
  162.6820  204.6340  147.2110 C   0  0  0  0  0  3  0  0  0  0  0  0
  162.2020  207.0450  147.8340 C   0  0  0  0  0  0  0  0  0  0  0  0
  1  6  1  0  0  0  0
  2  1  2  0  0  0  0
  2  7  1  0  0  0  0
  3 10  1  0  0  0  0
  4  5  1  0  0  0  0
  6  4  2  0  0  0  0
  7  9  2  0  0  0  0
  9  4  1  0  0  0  0
  9  8  1  0  0  0  0
 10  8  2  0  0  0  0
 11  7  1  0  0  0  0
 11  3  2  0  0  0  0
 12  3  1  0  0  0  0
 13 12  2  0  0  0  0
 14 13  1  0  0  0  0
 16 15  2  0  0  0  0
 16 18  1  0  0  0  0
 17 16  1  0  0  0  0
 18 14  1  0  0  0  0
 19  1  1  0  0  0  0
 20 19  3  0  0  0  0
 21  2  1  0  0  0  0
 22 27  1  0  0  0  0
 23 28  2  0  0  0  0
 24 26  1  0  0  0  0
 26 22  2  0  0  0  0
 26 23  1  0  0  0  0
 27 29  1  0  0  0  0
 28 25  1  0  0  0  0
 29 25  2  0  0  0  0
 29 21  1  0  0  0  0
M  END
>  <MODEL>
9

>  <REMARK>
 VINA RESULT:      -6.4      4.730      8.357
  Name = 
  6 active torsions:
  status: ('A' for Active; 'I' for Inactive)
    1  A    between atoms: C_1  and  C_9
    2  A    between atoms: C_2  and  N_14
    3  A    between atoms: C_4  and  C_11
    4  A    between atoms: C_4  and  N_27
    5  A    between atoms: C_5  and  C_7
    6  A    between atoms: N_14  and  C_28
                            x       y       z     vdW  Elec       q    Type
                         _______ _______ _______ _____ _____    ______ ____

>  <TORSDO>
F 6

$$$$
