=
 OpenBabel11052410523D

 28 30  0  0  1  0  0  0  0  0999 V2000
  162.3350  207.8440  148.6050 C   0  0  2  0  0  3  0  0  0  0  0  0
  162.0380  206.6870  147.6370 C   0  0  0  0  0  2  0  0  0  0  0  0
  160.7790  207.4370  152.0800 C   0  0  2  0  0  3  0  0  0  0  0  0
  160.9290  205.4670  150.5340 C   0  0  2  0  0  3  0  0  0  0  0  0
  161.5690  206.5870  153.0720 C   0  0  0  0  0  2  0  0  0  0  0  0
  161.3390  205.1150  152.7350 C   0  0  0  0  0  2  0  0  0  0  0  0
  161.1680  204.8980  149.1310 C   0  0  0  0  0  2  0  0  0  0  0  0
  162.3880  207.5150  150.1050 C   0  0  0  0  0  2  0  0  0  0  0  0
  160.8100  205.8620  148.0080 C   0  0  0  0  0  2  0  0  0  0  0  0
  161.0450  207.0050  150.6320 C   0  0  2  0  0  3  0  0  0  0  0  0
  161.8110  204.8440  151.4390 O   0  0  0  0  0  0  0  0  0  0  0  0
  161.0590  208.7930  152.2680 O   0  0  0  0  0  0  0  0  0  0  0  0
  161.6180  208.8660  153.5450 C   0  0  0  0  0  2  0  0  0  0  0  0
  161.2700  210.8100  156.3740 C   0  0  0  0  0  2  0  0  0  0  0  0
  160.9020  211.1470  154.2040 C   0  0  2  0  0  3  0  0  0  0  0  0
  161.0710  209.4660  155.8390 N   0  0  0  0  0  0  0  0  0  0  0  0
  160.7120  209.6760  154.4550 C   0  0  2  0  0  3  0  0  0  0  0  0
  160.8320  211.7750  155.4510 O   0  0  0  0  0  0  0  0  0  0  0  0
  159.9020  208.9060  156.4990 C   0  0  0  0  0  2  0  0  0  0  0  0
  159.8970  207.3980  156.3420 C   0  0  0  0  0  1  0  0  0  0  0  0
  159.8510  211.6880  153.2780 C   0  0  0  0  0  0  0  0  0  0  0  0
  158.6410  211.8540  153.7110 N   0  0  0  0  0  2  0  0  0  0  0  0
  160.1990  212.0860  151.9820 O   0  0  0  0  0  0  0  0  0  0  0  0
  159.6190  213.2190  151.3530 C   0  0  0  0  0  1  0  0  0  0  0  0
  161.6340  209.0920  148.2870 N   0  0  0  0  0  2  0  0  0  0  0  0
  162.2410  210.2250  148.9750 C   0  0  0  0  0  2  0  0  0  0  0  0
  161.6180  211.7770  148.2710 S   0  0  0  0  0  0  0  0  0  0  0  0
  163.2850  212.3920  147.9040 C   0  0  0  0  0  1  0  0  0  0  0  0
  1 25  1  1  0  0  0
  1  8  1  0  0  0  0
  2  9  1  0  0  0  0
  2  1  1  0  0  0  0
  3 12  1  6  0  0  0
  3  5  1  0  0  0  0
  4  7  1  6  0  0  0
  4 10  1  0  0  0  0
  4 11  1  0  0  0  0
  6  5  1  0  0  0  0
  9  7  1  0  0  0  0
 10  8  1  1  0  0  0
 10  3  1  0  0  0  0
 11  6  1  0  0  0  0
 12 13  1  0  0  0  0
 15 21  1  6  0  0  0
 15 17  1  0  0  0  0
 15 18  1  0  0  0  0
 16 14  1  0  0  0  0
 16 19  1  0  0  0  0
 17 13  1  6  0  0  0
 17 16  1  0  0  0  0
 18 14  1  0  0  0  0
 20 19  1  0  0  0  0
 21 22  2  0  0  0  0
 23 21  1  0  0  0  0
 24 23  1  0  0  0  0
 25 26  1  0  0  0  0
 27 26  1  0  0  0  0
 28 27  1  0  0  0  0
M  END
>  <MODEL>
1

>  <REMARK>
 VINA RESULT:      -6.6      0.000      0.000
  Name = 
  9 active torsions:
  status: ('A' for Active; 'I' for Inactive)
    1  A    between atoms: C_2  and  N_20
    2  A    between atoms: C_4  and  C_7
    3  A    between atoms: O_5  and  C_8
    4  A    between atoms: O_5  and  C_21
    5  A    between atoms: C_6  and  N_22
    6  A    between atoms: C_7  and  O_16
    7  A    between atoms: S_9  and  C_12
    8  A    between atoms: C_12  and  N_20
    9  A    between atoms: C_21  and  C_25
                            x       y       z     vdW  Elec       q    Type
                         _______ _______ _______ _____ _____    ______ ____

>  <TORSDO>
F 9

$$$$
=
 OpenBabel11052410523D

 28 30  0  0  1  0  0  0  0  0999 V2000
  161.9600  206.4420  153.1830 C   0  0  2  0  0  3  0  0  0  0  0  0
  161.4570  207.4330  154.2450 C   0  0  0  0  0  2  0  0  0  0  0  0
  161.3140  207.5340  149.5700 C   0  0  2  0  0  3  0  0  0  0  0  0
  161.1180  209.1970  151.4380 C   0  0  2  0  0  3  0  0  0  0  0  0
  162.3400  208.4900  148.9660 C   0  0  0  0  0  2  0  0  0  0  0  0
  162.0640  209.8940  149.4990 C   0  0  0  0  0  2  0  0  0  0  0  0
  161.0160  209.5020  152.9360 C   0  0  0  0  0  2  0  0  0  0  0  0
  162.3870  207.0180  151.8240 C   0  0  0  0  0  2  0  0  0  0  0  0
  160.3750  208.3860  153.7480 C   0  0  0  0  0  2  0  0  0  0  0  0
  161.2250  207.6950  151.0930 C   0  0  2  0  0  3  0  0  0  0  0  0
  162.2080  209.9090  150.8970 O   0  0  0  0  0  0  0  0  0  0  0  0
  161.6040  206.2160  149.2120 O   0  0  0  0  0  0  0  0  0  0  0  0
  160.4350  205.7460  148.6100 C   0  0  0  0  0  2  0  0  0  0  0  0
  162.6050  205.4970  145.9390 C   0  0  0  0  0  2  0  0  0  0  0  0
  161.8020  204.0480  147.4280 C   0  0  2  0  0  3  0  0  0  0  0  0
  161.3580  206.1100  146.3880 N   0  0  0  0  0  0  0  0  0  0  0  0
  160.7650  205.1260  147.2650 C   0  0  2  0  0  3  0  0  0  0  0  0
  162.6530  204.1450  146.3230 O   0  0  0  0  0  0  0  0  0  0  0  0
  160.4890  206.2220  145.2280 C   0  0  0  0  0  2  0  0  0  0  0  0
  161.1270  205.5280  144.0400 C   0  0  0  0  0  1  0  0  0  0  0  0
  161.1740  202.6850  147.4950 C   0  0  0  0  0  0  0  0  0  0  0  0
  160.5140  202.3370  148.5540 N   0  0  0  0  0  2  0  0  0  0  0  0
  161.2360  201.8330  146.3880 O   0  0  0  0  0  0  0  0  0  0  0  0
  160.2650  201.8590  145.3520 C   0  0  0  0  0  1  0  0  0  0  0  0
  161.1770  205.2050  153.0940 N   0  0  0  0  0  2  0  0  0  0  0  0
  161.6130  204.3890  151.9660 C   0  0  0  0  0  2  0  0  0  0  0  0
  160.5700  202.9100  151.8400 S   0  0  0  0  0  0  0  0  0  0  0  0
  161.9930  201.8070  151.6190 C   0  0  0  0  0  1  0  0  0  0  0  0
  1 25  1  6  0  0  0
  1  2  1  0  0  0  0
  3 12  1  1  0  0  0
  3 10  1  0  0  0  0
  4  7  1  1  0  0  0
  5  6  1  0  0  0  0
  5  3  1  0  0  0  0
  6 11  1  0  0  0  0
  7  9  1  0  0  0  0
  8  1  1  0  0  0  0
  9  2  1  0  0  0  0
 10  4  1  0  0  0  0
 10  8  1  1  0  0  0
 11  4  1  0  0  0  0
 13 12  1  0  0  0  0
 14 18  1  0  0  0  0
 14 16  1  0  0  0  0
 15 21  1  6  0  0  0
 16 17  1  0  0  0  0
 17 15  1  0  0  0  0
 17 13  1  1  0  0  0
 18 15  1  0  0  0  0
 19 16  1  0  0  0  0
 20 19  1  0  0  0  0
 21 22  2  0  0  0  0
 23 21  1  0  0  0  0
 24 23  1  0  0  0  0
 26 25  1  0  0  0  0
 27 26  1  0  0  0  0
 28 27  1  0  0  0  0
M  END
>  <MODEL>
2

>  <REMARK>
 VINA RESULT:      -6.1      3.504      8.425
  Name = 
  9 active torsions:
  status: ('A' for Active; 'I' for Inactive)
    1  A    between atoms: C_2  and  N_20
    2  A    between atoms: C_4  and  C_7
    3  A    between atoms: O_5  and  C_8
    4  A    between atoms: O_5  and  C_21
    5  A    between atoms: C_6  and  N_22
    6  A    between atoms: C_7  and  O_16
    7  A    between atoms: S_9  and  C_12
    8  A    between atoms: C_12  and  N_20
    9  A    between atoms: C_21  and  C_25
                            x       y       z     vdW  Elec       q    Type
                         _______ _______ _______ _____ _____    ______ ____

>  <TORSDO>
F 9

$$$$
=
 OpenBabel11052410523D

 28 30  0  0  1  0  0  0  0  0999 V2000
  161.8120  204.1120  147.4970 C   0  0  2  0  0  3  0  0  0  0  0  0
  161.5630  202.6530  147.0770 C   0  0  0  0  0  2  0  0  0  0  0  0
  160.3550  205.0440  150.9130 C   0  0  2  0  0  3  0  0  0  0  0  0
  160.5880  202.6320  150.2650 C   0  0  2  0  0  3  0  0  0  0  0  0
  161.2140  204.6940  152.1260 C   0  0  0  0  0  2  0  0  0  0  0  0
  161.0640  203.2000  152.4070 C   0  0  0  0  0  2  0  0  0  0  0  0
  160.8310  201.5650  149.1910 C   0  0  0  0  0  2  0  0  0  0  0  0
  161.9160  204.4060  149.0010 C   0  0  0  0  0  2  0  0  0  0  0  0
  160.3940  201.9880  147.7960 C   0  0  0  0  0  2  0  0  0  0  0  0
  160.6160  204.0860  149.7430 C   0  0  2  0  0  3  0  0  0  0  0  0
  161.5240  202.4590  151.3040 O   0  0  0  0  0  0  0  0  0  0  0  0
  160.5590  206.3740  150.5390 O   0  0  0  0  0  0  0  0  0  0  0  0
  161.1810  206.9620  151.6420 C   0  0  0  0  0  2  0  0  0  0  0  0
  162.1320  210.0550  152.8380 C   0  0  0  0  0  2  0  0  0  0  0  0
  162.3330  209.0200  150.8770 C   0  0  2  0  0  3  0  0  0  0  0  0
  161.0530  209.0720  152.8490 N   0  0  0  0  0  0  0  0  0  0  0  0
  161.0950  208.4740  151.5330 C   0  0  2  0  0  3  0  0  0  0  0  0
  162.6390  210.2150  151.5370 O   0  0  0  0  0  0  0  0  0  0  0  0
  159.8000  209.8040  152.9410 C   0  0  0  0  0  2  0  0  0  0  0  0
  159.9080  210.8720  154.0130 C   0  0  0  0  0  1  0  0  0  0  0  0
  162.1170  209.2650  149.4110 C   0  0  0  0  0  0  0  0  0  0  0  0
  162.3790  208.3230  148.5600 N   0  0  0  0  0  2  0  0  0  0  0  0
  161.5610  210.4740  148.9790 O   0  0  0  0  0  0  0  0  0  0  0  0
  162.3220  211.4620  148.2990 C   0  0  0  0  0  1  0  0  0  0  0  0
  161.0320  205.0980  146.7420 N   0  0  0  0  0  2  0  0  0  0  0  0
  161.8910  205.8880  145.8690 C   0  0  0  0  0  2  0  0  0  0  0  0
  161.6590  205.3700  144.1450 S   0  0  0  0  0  0  0  0  0  0  0  0
  160.1160  204.4910  144.5170 C   0  0  0  0  0  1  0  0  0  0  0  0
  1 25  1  1  0  0  0
  1  8  1  0  0  0  0
  2  1  1  0  0  0  0
  2  9  1  0  0  0  0
  3 12  1  6  0  0  0
  3  5  1  0  0  0  0
  4  7  1  6  0  0  0
  4 11  1  0  0  0  0
  5  6  1  0  0  0  0
  9  7  1  0  0  0  0
 10  8  1  1  0  0  0
 10  4  1  0  0  0  0
 10  3  1  0  0  0  0
 11  6  1  0  0  0  0
 12 13  1  0  0  0  0
 14 16  1  0  0  0  0
 15 21  1  6  0  0  0
 15 17  1  0  0  0  0
 15 18  1  0  0  0  0
 16 19  1  0  0  0  0
 17 13  1  1  0  0  0
 17 16  1  0  0  0  0
 18 14  1  0  0  0  0
 19 20  1  0  0  0  0
 22 21  2  0  0  0  0
 23 21  1  0  0  0  0
 24 23  1  0  0  0  0
 26 25  1  0  0  0  0
 27 28  1  0  0  0  0
 27 26  1  0  0  0  0
M  END
>  <MODEL>
3

>  <REMARK>
 VINA RESULT:      -6.1      2.674      4.349
  Name = 
  9 active torsions:
  status: ('A' for Active; 'I' for Inactive)
    1  A    between atoms: C_2  and  N_20
    2  A    between atoms: C_4  and  C_7
    3  A    between atoms: O_5  and  C_8
    4  A    between atoms: O_5  and  C_21
    5  A    between atoms: C_6  and  N_22
    6  A    between atoms: C_7  and  O_16
    7  A    between atoms: S_9  and  C_12
    8  A    between atoms: C_12  and  N_20
    9  A    between atoms: C_21  and  C_25
                            x       y       z     vdW  Elec       q    Type
                         _______ _______ _______ _____ _____    ______ ____

>  <TORSDO>
F 9

$$$$
=
 OpenBabel11052410523D

 28 30  0  0  1  0  0  0  0  0999 V2000
  160.6400  205.4020  149.8410 C   0  0  2  0  0  3  0  0  0  0  0  0
  160.9880  204.9290  148.4200 C   0  0  0  0  0  2  0  0  0  0  0  0
  162.4510  208.5960  150.9310 C   0  0  2  0  0  3  0  0  0  0  0  0
  162.3970  207.9490  148.5080 C   0  0  2  0  0  3  0  0  0  0  0  0
  161.8150  209.9110  150.4870 C   0  0  0  0  0  2  0  0  0  0  0  0
  162.1670  210.1450  149.0190 C   0  0  0  0  0  2  0  0  0  0  0  0
  162.1250  206.9030  147.4210 C   0  0  0  0  0  2  0  0  0  0  0  0
  160.7170  206.9110  150.1230 C   0  0  0  0  0  2  0  0  0  0  0  0
  162.3130  205.4670  147.8890 C   0  0  0  0  0  2  0  0  0  0  0  0
  162.1350  207.4590  149.9500 C   0  0  2  0  0  3  0  0  0  0  0  0
  161.6410  209.1060  148.2310 O   0  0  0  0  0  0  0  0  0  0  0  0
  162.0510  208.2750  152.2300 O   0  0  0  0  0  0  0  0  0  0  0  0
  161.7290  209.5010  152.8160 C   0  0  0  0  0  2  0  0  0  0  0  0
  161.0370  209.3380  156.1920 C   0  0  0  0  0  2  0  0  0  0  0  0
  160.3050  210.6090  154.5160 C   0  0  2  0  0  3  0  0  0  0  0  0
  161.2870  208.5290  155.0030 N   0  0  0  0  0  0  0  0  0  0  0  0
  160.7080  209.2890  153.9190 C   0  0  2  0  0  3  0  0  0  0  0  0
  160.1620  210.3960  155.8910 O   0  0  0  0  0  0  0  0  0  0  0  0
  160.5010  207.3130  155.1350 C   0  0  0  0  0  2  0  0  0  0  0  0
  160.1280  207.0970  156.5890 C   0  0  0  0  0  1  0  0  0  0  0  0
  159.0220  211.1150  153.9220 C   0  0  0  0  0  0  0  0  0  0  0  0
  157.9760  211.2470  154.6750 N   0  0  0  0  0  2  0  0  0  0  0  0
  158.9840  211.5170  152.5820 O   0  0  0  0  0  0  0  0  0  0  0  0
  159.7270  212.6270  152.0990 C   0  0  0  0  0  1  0  0  0  0  0  0
  161.1930  204.5610  150.9080 N   0  0  0  0  0  2  0  0  0  0  0  0
  160.3320  203.4140  151.1710 C   0  0  0  0  0  2  0  0  0  0  0  0
  161.1800  201.8860  150.6850 S   0  0  0  0  0  0  0  0  0  0  0  0
  160.0000  201.5400  149.3510 C   0  0  0  0  0  1  0  0  0  0  0  0
  1  8  1  0  0  0  0
  1 25  1  1  0  0  0
  2  1  1  0  0  0  0
  3 12  1  1  0  0  0
  4  7  1  6  0  0  0
  4 10  1  0  0  0  0
  5  3  1  0  0  0  0
  6  5  1  0  0  0  0
  7  9  1  0  0  0  0
  9  2  1  0  0  0  0
 10  8  1  6  0  0  0
 10  3  1  0  0  0  0
 11  4  1  0  0  0  0
 11  6  1  0  0  0  0
 12 13  1  0  0  0  0
 15 21  1  6  0  0  0
 15 18  1  0  0  0  0
 16 19  1  0  0  0  0
 16 14  1  0  0  0  0
 17 13  1  6  0  0  0
 17 15  1  0  0  0  0
 17 16  1  0  0  0  0
 18 14  1  0  0  0  0
 19 20  1  0  0  0  0
 21 22  2  0  0  0  0
 23 21  1  0  0  0  0
 24 23  1  0  0  0  0
 25 26  1  0  0  0  0
 27 26  1  0  0  0  0
 28 27  1  0  0  0  0
M  END
>  <MODEL>
4

>  <REMARK>
 VINA RESULT:      -6.1      2.612      4.107
  Name = 
  9 active torsions:
  status: ('A' for Active; 'I' for Inactive)
    1  A    between atoms: C_2  and  N_20
    2  A    between atoms: C_4  and  C_7
    3  A    between atoms: O_5  and  C_8
    4  A    between atoms: O_5  and  C_21
    5  A    between atoms: C_6  and  N_22
    6  A    between atoms: C_7  and  O_16
    7  A    between atoms: S_9  and  C_12
    8  A    between atoms: C_12  and  N_20
    9  A    between atoms: C_21  and  C_25
                            x       y       z     vdW  Elec       q    Type
                         _______ _______ _______ _____ _____    ______ ____

>  <TORSDO>
F 9

$$$$
=
 OpenBabel11052410523D

 28 30  0  0  1  0  0  0  0  0999 V2000
  162.0740  206.9620  150.5280 C   0  0  2  0  0  3  0  0  0  0  0  0
  161.9500  205.4700  150.8820 C   0  0  0  0  0  2  0  0  0  0  0  0
  160.4070  209.3250  153.0390 C   0  0  2  0  0  3  0  0  0  0  0  0
  160.8430  206.9340  153.6640 C   0  0  2  0  0  3  0  0  0  0  0  0
  161.2360  209.6880  154.2680 C   0  0  0  0  0  2  0  0  0  0  0  0
  161.1830  208.5180  155.2490 C   0  0  0  0  0  2  0  0  0  0  0  0
  161.2080  205.5030  153.2560 C   0  0  0  0  0  2  0  0  0  0  0  0
  162.0910  207.9650  151.6920 C   0  0  0  0  0  2  0  0  0  0  0  0
  160.8030  205.1470  151.8330 C   0  0  0  0  0  2  0  0  0  0  0  0
  160.7870  207.9410  152.4940 C   0  0  2  0  0  3  0  0  0  0  0  0
  161.7430  207.3740  154.6550 O   0  0  0  0  0  0  0  0  0  0  0  0
  160.5290  210.3110  152.0590 O   0  0  0  0  0  0  0  0  0  0  0  0
  160.5920  211.5120  152.7690 C   0  0  0  0  0  2  0  0  0  0  0  0
  158.4430  213.8500  154.1150 C   0  0  0  0  0  2  0  0  0  0  0  0
  159.3740  213.5690  152.1120 C   0  0  2  0  0  3  0  0  0  0  0  0
  158.7470  212.4230  154.0670 N   0  0  0  0  0  0  0  0  0  0  0  0
  159.2410  212.2030  152.7270 C   0  0  2  0  0  3  0  0  0  0  0  0
  158.5200  214.4120  152.8290 O   0  0  0  0  0  0  0  0  0  0  0  0
  157.4850  211.7080  154.1760 C   0  0  0  0  0  2  0  0  0  0  0  0
  157.3230  211.1650  155.5820 C   0  0  0  0  0  1  0  0  0  0  0  0
  159.0070  213.5560  150.6560 C   0  0  0  0  0  0  0  0  0  0  0  0
  157.7980  213.2500  150.3040 N   0  0  0  0  0  2  0  0  0  0  0  0
  159.9440  213.9520  149.6960 O   0  0  0  0  0  0  0  0  0  0  0  0
  160.8840  213.0480  149.1320 C   0  0  0  0  0  1  0  0  0  0  0  0
  161.2580  207.3800  149.3840 N   0  0  0  0  0  2  0  0  0  0  0  0
  161.9620  207.1550  148.1280 C   0  0  0  0  0  2  0  0  0  0  0  0
  160.9060  206.2120  146.9920 S   0  0  0  0  0  0  0  0  0  0  0  0
  162.3040  205.7290  145.9410 C   0  0  0  0  0  1  0  0  0  0  0  0
  1 25  1  6  0  0  0
  1  2  1  0  0  0  0
  1  8  1  0  0  0  0
  2  9  1  0  0  0  0
  3 12  1  6  0  0  0
  3  5  1  0  0  0  0
  4  7  1  6  0  0  0
  4 11  1  0  0  0  0
  5  6  1  0  0  0  0
  9  7  1  0  0  0  0
 10  8  1  1  0  0  0
 10  3  1  0  0  0  0
 10  4  1  0  0  0  0
 11  6  1  0  0  0  0
 12 13  1  0  0  0  0
 15 21  1  6  0  0  0
 15 17  1  0  0  0  0
 15 18  1  0  0  0  0
 16 14  1  0  0  0  0
 16 19  1  0  0  0  0
 17 13  1  1  0  0  0
 17 16  1  0  0  0  0
 18 14  1  0  0  0  0
 19 20  1  0  0  0  0
 22 21  2  0  0  0  0
 23 21  1  0  0  0  0
 24 23  1  0  0  0  0
 26 25  1  0  0  0  0
 27 26  1  0  0  0  0
 28 27  1  0  0  0  0
M  END
>  <MODEL>
5

>  <REMARK>
 VINA RESULT:      -5.8      2.242      3.736
  Name = 
  9 active torsions:
  status: ('A' for Active; 'I' for Inactive)
    1  A    between atoms: C_2  and  N_20
    2  A    between atoms: C_4  and  C_7
    3  A    between atoms: O_5  and  C_8
    4  A    between atoms: O_5  and  C_21
    5  A    between atoms: C_6  and  N_22
    6  A    between atoms: C_7  and  O_16
    7  A    between atoms: S_9  and  C_12
    8  A    between atoms: C_12  and  N_20
    9  A    between atoms: C_21  and  C_25
                            x       y       z     vdW  Elec       q    Type
                         _______ _______ _______ _____ _____    ______ ____

>  <TORSDO>
F 9

$$$$
=
 OpenBabel11052410523D

 28 30  0  0  1  0  0  0  0  0999 V2000
  161.2100  209.4650  150.8610 C   0  0  2  0  0  3  0  0  0  0  0  0
  161.2190  210.4800  152.0160 C   0  0  0  0  0  2  0  0  0  0  0  0
  162.1810  205.9020  151.8770 C   0  0  2  0  0  3  0  0  0  0  0  0
  161.5690  207.5860  153.6340 C   0  0  2  0  0  3  0  0  0  0  0  0
  161.0610  205.0440  152.4590 C   0  0  0  0  0  2  0  0  0  0  0  0
  160.8400  205.4590  153.9120 C   0  0  0  0  0  2  0  0  0  0  0  0
  161.3080  209.0400  154.0430 C   0  0  0  0  0  2  0  0  0  0  0  0
  160.8980  208.0010  151.2080 C   0  0  0  0  0  2  0  0  0  0  0  0
  162.0710  210.0590  153.2090 C   0  0  0  0  0  2  0  0  0  0  0  0
  161.9430  207.3950  152.1470 C   0  0  2  0  0  3  0  0  0  0  0  0
  160.4440  206.8060  153.9680 O   0  0  0  0  0  0  0  0  0  0  0  0
  162.3330  205.6480  150.5130 O   0  0  0  0  0  0  0  0  0  0  0  0
  161.3910  204.6590  150.2290 C   0  0  0  0  0  2  0  0  0  0  0  0
  162.4290  205.3490  147.0120 C   0  0  0  0  0  2  0  0  0  0  0  0
  161.7840  203.5000  148.0720 C   0  0  2  0  0  3  0  0  0  0  0  0
  161.6120  205.8450  148.1150 N   0  0  0  0  0  0  0  0  0  0  0  0
  161.0870  204.6530  148.7420 C   0  0  2  0  0  3  0  0  0  0  0  0
  162.2260  203.9700  146.8320 O   0  0  0  0  0  0  0  0  0  0  0  0
  160.4800  206.5500  147.5330 C   0  0  0  0  0  2  0  0  0  0  0  0
  160.4270  206.2890  146.0400 C   0  0  0  0  0  1  0  0  0  0  0  0
  160.8640  202.3260  147.8970 C   0  0  0  0  0  0  0  0  0  0  0  0
  160.8280  201.7060  146.7590 N   0  0  0  0  0  2  0  0  0  0  0  0
  160.1140  201.8580  148.9810 O   0  0  0  0  0  0  0  0  0  0  0  0
  160.6580  200.9900  149.9650 C   0  0  0  0  0  1  0  0  0  0  0  0
  162.3040  209.6350  149.8990 N   0  0  0  0  0  2  0  0  0  0  0  0
  161.8110  210.1650  148.6330 C   0  0  0  0  0  2  0  0  0  0  0  0
  161.7070  211.9740  148.7240 S   0  0  0  0  0  0  0  0  0  0  0  0
  163.2810  212.2060  147.8520 C   0  0  0  0  0  1  0  0  0  0  0  0
  1 25  1  1  0  0  0
  1  8  1  0  0  0  0
  1  2  1  0  0  0  0
  2  9  1  0  0  0  0
  3 12  1  6  0  0  0
  3 10  1  0  0  0  0
  3  5  1  0  0  0  0
  4 11  1  0  0  0  0
  4  7  1  6  0  0  0
  5  6  1  0  0  0  0
  6 11  1  0  0  0  0
  9  7  1  0  0  0  0
 10  8  1  6  0  0  0
 10  4  1  0  0  0  0
 13 12  1  0  0  0  0
 14 16  1  0  0  0  0
 15 21  1  6  0  0  0
 15 17  1  0  0  0  0
 16 17  1  0  0  0  0
 17 13  1  1  0  0  0
 18 14  1  0  0  0  0
 18 15  1  0  0  0  0
 19 16  1  0  0  0  0
 20 19  1  0  0  0  0
 21 23  1  0  0  0  0
 22 21  2  0  0  0  0
 23 24  1  0  0  0  0
 26 27  1  0  0  0  0
 26 25  1  0  0  0  0
 28 27  1  0  0  0  0
M  END
>  <MODEL>
6

>  <REMARK>
 VINA RESULT:      -5.5      2.712      7.168
  Name = 
  9 active torsions:
  status: ('A' for Active; 'I' for Inactive)
    1  A    between atoms: C_2  and  N_20
    2  A    between atoms: C_4  and  C_7
    3  A    between atoms: O_5  and  C_8
    4  A    between atoms: O_5  and  C_21
    5  A    between atoms: C_6  and  N_22
    6  A    between atoms: C_7  and  O_16
    7  A    between atoms: S_9  and  C_12
    8  A    between atoms: C_12  and  N_20
    9  A    between atoms: C_21  and  C_25
                            x       y       z     vdW  Elec       q    Type
                         _______ _______ _______ _____ _____    ______ ____

>  <TORSDO>
F 9

$$$$
=
 OpenBabel11052410523D

 28 30  0  0  1  0  0  0  0  0999 V2000
  162.0860  205.0590  148.2050 C   0  0  2  0  0  3  0  0  0  0  0  0
  161.8110  203.7430  147.4570 C   0  0  0  0  0  2  0  0  0  0  0  0
  160.4320  205.2950  151.6510 C   0  0  2  0  0  3  0  0  0  0  0  0
  160.6170  203.0750  150.4970 C   0  0  2  0  0  3  0  0  0  0  0  0
  161.1900  204.6420  152.8030 C   0  0  0  0  0  2  0  0  0  0  0  0
  160.9640  203.1330  152.7350 C   0  0  0  0  0  2  0  0  0  0  0  0
  160.8920  202.2580  149.2290 C   0  0  0  0  0  2  0  0  0  0  0  0
  162.0960  205.0110  149.7400 C   0  0  0  0  0  2  0  0  0  0  0  0
  160.5700  202.9990  147.9390 C   0  0  0  0  0  2  0  0  0  0  0  0
  160.7360  204.6040  150.3140 C   0  0  2  0  0  3  0  0  0  0  0  0
  161.4710  202.6290  151.5250 O   0  0  0  0  0  0  0  0  0  0  0  0
  160.7110  206.6620  151.5940 O   0  0  0  0  0  0  0  0  0  0  0  0
  160.8210  207.0570  152.9290 C   0  0  0  0  0  2  0  0  0  0  0  0
  160.2400  210.4120  152.3680 C   0  0  0  0  0  2  0  0  0  0  0  0
  160.7120  209.1980  154.1750 C   0  0  2  0  0  3  0  0  0  0  0  0
  160.9050  209.2280  151.8310 N   0  0  0  0  0  0  0  0  0  0  0  0
  161.3250  208.4870  152.9990 C   0  0  2  0  0  3  0  0  0  0  0  0
  160.4490  210.5060  153.7550 O   0  0  0  0  0  0  0  0  0  0  0  0
  162.1140  209.6780  151.1590 C   0  0  0  0  0  2  0  0  0  0  0  0
  162.0950  209.2260  149.7120 C   0  0  0  0  0  1  0  0  0  0  0  0
  161.6320  209.1980  155.3610 C   0  0  0  0  0  0  0  0  0  0  0  0
  162.2790  210.2780  155.6690 N   0  0  0  0  0  2  0  0  0  0  0  0
  161.7250  208.0620  156.1730 O   0  0  0  0  0  0  0  0  0  0  0  0
  160.5980  207.5040  156.8320 C   0  0  0  0  0  1  0  0  0  0  0  0
  161.3980  206.2270  147.6430 N   0  0  0  0  0  2  0  0  0  0  0  0
  161.7690  206.4320  146.2480 C   0  0  0  0  0  2  0  0  0  0  0  0
  160.3310  206.1390  145.1810 S   0  0  0  0  0  0  0  0  0  0  0  0
  161.2150  204.9280  144.1590 C   0  0  0  0  0  1  0  0  0  0  0  0
  1 25  1  1  0  0  0
  1  8  1  0  0  0  0
  2  9  1  0  0  0  0
  2  1  1  0  0  0  0
  3 12  1  6  0  0  0
  3  5  1  0  0  0  0
  4  7  1  6  0  0  0
  4 11  1  0  0  0  0
  6  5  1  0  0  0  0
  9  7  1  0  0  0  0
 10  8  1  1  0  0  0
 10  4  1  0  0  0  0
 10  3  1  0  0  0  0
 11  6  1  0  0  0  0
 12 13  1  0  0  0  0
 14 18  1  0  0  0  0
 15 21  1  1  0  0  0
 16 14  1  0  0  0  0
 16 17  1  0  0  0  0
 17 13  1  6  0  0  0
 17 15  1  0  0  0  0
 18 15  1  0  0  0  0
 19 16  1  0  0  0  0
 20 19  1  0  0  0  0
 21 22  2  0  0  0  0
 21 23  1  0  0  0  0
 23 24  1  0  0  0  0
 26 25  1  0  0  0  0
 27 26  1  0  0  0  0
 28 27  1  0  0  0  0
M  END
>  <MODEL>
7

>  <REMARK>
 VINA RESULT:      -5.5      2.389      4.185
  Name = 
  9 active torsions:
  status: ('A' for Active; 'I' for Inactive)
    1  A    between atoms: C_2  and  N_20
    2  A    between atoms: C_4  and  C_7
    3  A    between atoms: O_5  and  C_8
    4  A    between atoms: O_5  and  C_21
    5  A    between atoms: C_6  and  N_22
    6  A    between atoms: C_7  and  O_16
    7  A    between atoms: S_9  and  C_12
    8  A    between atoms: C_12  and  N_20
    9  A    between atoms: C_21  and  C_25
                            x       y       z     vdW  Elec       q    Type
                         _______ _______ _______ _____ _____    ______ ____

>  <TORSDO>
F 9

$$$$
=
 OpenBabel11052410523D

 28 30  0  0  1  0  0  0  0  0999 V2000
  159.2660  211.4440  153.1530 C   0  0  2  0  0  3  0  0  0  0  0  0
  159.2960  212.3510  154.3950 C   0  0  0  0  0  2  0  0  0  0  0  0
  161.2080  208.1660  153.5410 C   0  0  2  0  0  3  0  0  0  0  0  0
  160.6260  209.5270  155.5670 C   0  0  2  0  0  3  0  0  0  0  0  0
  160.4610  207.0230  154.2230 C   0  0  0  0  0  2  0  0  0  0  0  0
  160.4710  207.2720  155.7300 C   0  0  0  0  0  2  0  0  0  0  0  0
  160.1400  210.8430  156.1850 C   0  0  0  0  0  2  0  0  0  0  0  0
  159.3730  209.9290  153.3810 C   0  0  0  0  0  2  0  0  0  0  0  0
  160.4570  212.0710  155.3440 C   0  0  0  0  0  2  0  0  0  0  0  0
  160.7040  209.5330  154.0240 C   0  0  2  0  0  3  0  0  0  0  0  0
  159.8040  208.4760  156.0180 O   0  0  0  0  0  0  0  0  0  0  0  0
  161.1160  208.0490  152.1520 O   0  0  0  0  0  0  0  0  0  0  0  0
  162.3120  207.4410  151.7670 C   0  0  0  0  0  2  0  0  0  0  0  0
  160.0810  205.2080  150.3750 C   0  0  0  0  0  2  0  0  0  0  0  0
  161.2320  206.9460  149.5910 C   0  0  2  0  0  3  0  0  0  0  0  0
  161.2100  205.3240  151.2930 N   0  0  0  0  0  0  0  0  0  0  0  0
  162.0310  206.3710  150.7280 C   0  0  2  0  0  3  0  0  0  0  0  0
  160.3160  205.9600  149.2110 O   0  0  0  0  0  0  0  0  0  0  0  0
  161.9740  204.0890  151.1980 C   0  0  0  0  0  2  0  0  0  0  0  0
  161.1560  202.9370  151.7480 C   0  0  0  0  0  1  0  0  0  0  0  0
  162.1130  207.3250  148.4350 C   0  0  0  0  0  0  0  0  0  0  0  0
  162.3320  206.4660  147.4900 N   0  0  0  0  0  2  0  0  0  0  0  0
  162.6230  208.6240  148.3430 O   0  0  0  0  0  0  0  0  0  0  0  0
  161.9570  209.7450  148.9050 C   0  0  0  0  0  1  0  0  0  0  0  0
  160.0610  211.9410  152.0250 N   0  0  0  0  0  2  0  0  0  0  0  0
  159.7060  213.3170  151.7000 C   0  0  0  0  0  2  0  0  0  0  0  0
  160.0690  213.6490  149.9540 S   0  0  0  0  0  0  0  0  0  0  0  0
  158.3130  213.7010  149.4990 C   0  0  0  0  0  1  0  0  0  0  0  0
  1 25  1  6  0  0  0
  1  8  1  0  0  0  0
  1  2  1  0  0  0  0
  2  9  1  0  0  0  0
  3 12  1  6  0  0  0
  3 10  1  0  0  0  0
  3  5  1  0  0  0  0
  4 11  1  0  0  0  0
  4  7  1  6  0  0  0
  5  6  1  0  0  0  0
  6 11  1  0  0  0  0
  9  7  1  0  0  0  0
 10  8  1  6  0  0  0
 10  4  1  0  0  0  0
 13 12  1  0  0  0  0
 14 16  1  0  0  0  0
 15 21  1  6  0  0  0
 15 17  1  0  0  0  0
 17 16  1  0  0  0  0
 17 13  1  1  0  0  0
 18 15  1  0  0  0  0
 18 14  1  0  0  0  0
 19 16  1  0  0  0  0
 19 20  1  0  0  0  0
 22 21  2  0  0  0  0
 23 21  1  0  0  0  0
 23 24  1  0  0  0  0
 26 25  1  0  0  0  0
 27 26  1  0  0  0  0
 28 27  1  0  0  0  0
M  END
>  <MODEL>
8

>  <REMARK>
 VINA RESULT:      -5.3      2.073      6.181
  Name = 
  9 active torsions:
  status: ('A' for Active; 'I' for Inactive)
    1  A    between atoms: C_2  and  N_20
    2  A    between atoms: C_4  and  C_7
    3  A    between atoms: O_5  and  C_8
    4  A    between atoms: O_5  and  C_21
    5  A    between atoms: C_6  and  N_22
    6  A    between atoms: C_7  and  O_16
    7  A    between atoms: S_9  and  C_12
    8  A    between atoms: C_12  and  N_20
    9  A    between atoms: C_21  and  C_25
                            x       y       z     vdW  Elec       q    Type
                         _______ _______ _______ _____ _____    ______ ____

>  <TORSDO>
F 9

$$$$
=
 OpenBabel11052410523D

 28 30  0  0  1  0  0  0  0  0999 V2000
  160.8540  209.2590  151.9370 C   0  0  2  0  0  3  0  0  0  0  0  0
  160.9800  209.6140  153.4280 C   0  0  0  0  0  2  0  0  0  0  0  0
  161.9480  205.6940  151.0640 C   0  0  2  0  0  3  0  0  0  0  0  0
  161.5150  206.3240  153.4530 C   0  0  2  0  0  3  0  0  0  0  0  0
  160.9000  204.6030  151.2700 C   0  0  0  0  0  2  0  0  0  0  0  0
  160.8310  204.2770  152.7610 C   0  0  0  0  0  2  0  0  0  0  0  0
  161.2900  207.4010  154.5210 C   0  0  0  0  0  2  0  0  0  0  0  0
  160.5890  207.7890  151.5810 C   0  0  0  0  0  2  0  0  0  0  0  0
  161.9550  208.7320  154.2000 C   0  0  0  0  0  2  0  0  0  0  0  0
  161.7310  206.8710  152.0250 C   0  0  2  0  0  3  0  0  0  0  0  0
  160.4350  205.4180  153.4800 O   0  0  0  0  0  0  0  0  0  0  0  0
  161.9570  206.1170  149.7330 O   0  0  0  0  0  0  0  0  0  0  0  0
  160.7270  205.7000  149.2200 C   0  0  0  0  0  2  0  0  0  0  0  0
  162.6120  205.7060  146.3300 C   0  0  0  0  0  2  0  0  0  0  0  0
  161.9220  204.1180  147.7300 C   0  0  2  0  0  3  0  0  0  0  0  0
  161.4340  206.2880  146.9660 N   0  0  0  0  0  0  0  0  0  0  0  0
  160.9040  205.2240  147.7890 C   0  0  2  0  0  3  0  0  0  0  0  0
  162.6610  204.3200  146.5610 O   0  0  0  0  0  0  0  0  0  0  0  0
  160.4570  206.5390  145.9190 C   0  0  0  0  0  2  0  0  0  0  0  0
  160.8500  205.7900  144.6600 C   0  0  0  0  0  1  0  0  0  0  0  0
  161.2670  202.7670  147.7160 C   0  0  0  0  0  0  0  0  0  0  0  0
  160.8350  202.2770  146.5970 N   0  0  0  0  0  2  0  0  0  0  0  0
  161.1990  202.0110  148.8910 O   0  0  0  0  0  0  0  0  0  0  0  0
  159.9720  201.5200  149.4110 C   0  0  0  0  0  1  0  0  0  0  0  0
  161.8400  209.9200  151.0750 N   0  0  0  0  0  2  0  0  0  0  0  0
  161.7270  209.4540  149.6980 C   0  0  0  0  0  2  0  0  0  0  0  0
  162.2830  210.7550  148.5630 S   0  0  0  0  0  0  0  0  0  0  0  0
  161.4890  212.0710  149.5280 C   0  0  0  0  0  1  0  0  0  0  0  0
  1 25  1  6  0  0  0
  1  2  1  0  0  0  0
  2  9  1  0  0  0  0
  3 12  1  6  0  0  0
  3  5  1  0  0  0  0
  3 10  1  0  0  0  0
  4 11  1  0  0  0  0
  4  7  1  1  0  0  0
  5  6  1  0  0  0  0
  6 11  1  0  0  0  0
  8  1  1  0  0  0  0
  9  7  1  0  0  0  0
 10  8  1  6  0  0  0
 10  4  1  0  0  0  0
 13 12  1  0  0  0  0
 14 18  1  0  0  0  0
 14 16  1  0  0  0  0
 15 21  1  6  0  0  0
 15 17  1  0  0  0  0
 16 17  1  0  0  0  0
 17 13  1  1  0  0  0
 18 15  1  0  0  0  0
 19 16  1  0  0  0  0
 20 19  1  0  0  0  0
 21 23  1  0  0  0  0
 22 21  2  0  0  0  0
 23 24  1  0  0  0  0
 26 25  1  0  0  0  0
 27 28  1  0  0  0  0
 27 26  1  0  0  0  0
M  END
>  <MODEL>
9

>  <REMARK>
 VINA RESULT:      -5.3      2.845      7.377
  Name = 
  9 active torsions:
  status: ('A' for Active; 'I' for Inactive)
    1  A    between atoms: C_2  and  N_20
    2  A    between atoms: C_4  and  C_7
    3  A    between atoms: O_5  and  C_8
    4  A    between atoms: O_5  and  C_21
    5  A    between atoms: C_6  and  N_22
    6  A    between atoms: C_7  and  O_16
    7  A    between atoms: S_9  and  C_12
    8  A    between atoms: C_12  and  N_20
    9  A    between atoms: C_21  and  C_25
                            x       y       z     vdW  Elec       q    Type
                         _______ _______ _______ _____ _____    ______ ____

>  <TORSDO>
F 9

$$$$
