=
 OpenBabel11052410153D

 25 26  0  0  1  0  0  0  0  0999 V2000
  161.0140  207.3530  153.6460 C   0  0  0  0  0  3  0  0  0  0  0  0
  161.9880  208.7680  150.0430 C   0  0  0  0  0  0  0  0  0  0  0  0
  162.3260  207.8320  149.2710 O   0  0  0  0  0  0  0  0  0  0  0  0
  161.9930  210.1830  149.7360 C   0  0  0  0  0  0  0  0  0  0  0  0
  161.5900  209.7250  154.2560 C   0  0  1  0  0  3  0  0  0  0  0  0
  161.6090  210.8660  150.7610 N   0  0  0  0  0  0  0  0  0  0  0  0
  161.3420  206.2490  151.5130 C   0  0  0  0  0  3  0  0  0  0  0  0
  161.3070  207.4020  152.1910 C   0  0  0  0  0  0  0  0  0  0  0  0
  161.1150  208.3350  154.5420 C   0  0  0  0  0  3  0  0  0  0  0  0
  161.5270  208.6600  151.4230 C   0  0  0  0  0  0  0  0  0  0  0  0
  161.3130  209.9280  151.8030 C   0  0  0  0  0  0  0  0  0  0  0  0
  160.8010  210.3820  153.1300 C   0  0  1  0  0  3  0  0  0  0  0  0
  159.4260  210.1450  153.2390 O   0  0  0  0  0  0  0  0  0  0  0  0
  158.8320  211.3990  153.0810 C   0  0  0  0  0  2  0  0  0  0  0  0
  157.7300  211.5010  153.9280 O   0  0  0  0  0  1  0  0  0  0  0  0
  161.4980  210.5800  155.5120 C   0  0  0  0  0  2  0  0  0  0  0  0
  163.8130  211.0970  156.2820 O   0  0  0  0  0  0  0  0  0  0  0  0
  162.6140  209.4060  157.2610 O   0  0  0  0  0  1  0  0  0  0  0  0
  162.6620  210.3300  156.4080 C   0  0  0  0  0  0  0  0  0  0  0  0
  161.1200  204.9050  152.1330 C   0  0  0  0  0  2  0  0  0  0  0  0
  160.8800  204.5000  149.6840 C   0  0  0  0  0  1  0  0  0  0  0  0
  160.8450  203.8650  151.0620 C   0  0  0  0  0  2  0  0  0  0  0  0
  162.4380  210.8040  148.4540 C   0  0  0  0  0  2  0  0  0  0  0  0
  160.8470  212.2880  147.4100 N   0  0  0  0  0  2  0  0  0  0  0  0
  161.7930  212.1390  148.2610 C   0  0  0  0  0  3  0  0  0  0  0  0
  1  9  2  0  0  0  0
  2 10  1  0  0  0  0
  3  2  2  0  0  0  0
  4  2  1  0  0  0  0
  4  6  2  0  0  0  0
  5  9  1  0  0  0  0
  5 16  1  1  0  0  0
  6 11  1  0  0  0  0
  7 20  1  0  0  0  0
  7  8  2  0  0  0  0
  8  1  1  0  0  0  0
 10 11  2  0  0  0  0
 10  8  1  0  0  0  0
 11 12  1  0  0  0  0
 12 13  1  1  0  0  0
 12  5  1  0  0  0  0
 14 13  1  0  0  0  0
 14 15  1  0  0  0  0
 16 19  1  0  0  0  0
 17 19  2  0  0  0  0
 19 18  1  0  0  0  0
 21 22  1  0  0  0  0
 22 20  1  0  0  0  0
 23  4  1  0  0  0  0
 24 25  2  0  0  0  0
 25 23  1  0  0  0  0
M  END
>  <MODEL>
1

>  <REMARK>
 VINA RESULT:      -6.3      0.000      0.000
  Name = 
  8 active torsions:
  status: ('A' for Active; 'I' for Inactive)
    1  A    between atoms: O_1  and  C_6
    2  A    between atoms: O_1  and  C_25
    3  A    between atoms: C_4  and  C_19
    4  A    between atoms: C_10  and  C_20
    5  A    between atoms: C_11  and  C_12
    6  A    between atoms: C_11  and  C_24
    7  A    between atoms: C_14  and  C_19
    8  A    between atoms: C_16  and  C_20
                            x       y       z     vdW  Elec       q    Type
                         _______ _______ _______ _____ _____    ______ ____

>  <TORSDO>
F 8

$$$$
=
 OpenBabel11052410153D

 25 26  0  0  1  0  0  0  0  0999 V2000
  161.3690  204.0890  149.2610 C   0  0  0  0  0  3  0  0  0  0  0  0
  161.0090  206.1100  152.6840 C   0  0  0  0  0  0  0  0  0  0  0  0
  160.9310  205.3210  153.6640 O   0  0  0  0  0  0  0  0  0  0  0  0
  160.9220  207.5540  152.7320 C   0  0  0  0  0  0  0  0  0  0  0  0
  160.4440  206.2580  148.3850 C   0  0  1  0  0  3  0  0  0  0  0  0
  161.0200  208.0490  151.5440 N   0  0  0  0  0  0  0  0  0  0  0  0
  161.5940  203.3990  151.5740 C   0  0  0  0  0  3  0  0  0  0  0  0
  161.3750  204.3990  150.7130 C   0  0  0  0  0  0  0  0  0  0  0  0
  160.9900  204.8710  148.2500 C   0  0  0  0  0  3  0  0  0  0  0  0
  161.1880  205.7660  151.2780 C   0  0  0  0  0  0  0  0  0  0  0  0
  161.1910  206.9470  150.6440 C   0  0  0  0  0  0  0  0  0  0  0  0
  161.3740  207.1670  149.1790 C   0  0  1  0  0  3  0  0  0  0  0  0
  162.7160  207.0000  148.8150 O   0  0  0  0  0  0  0  0  0  0  0  0
  163.1030  208.2340  148.2900 C   0  0  0  0  0  2  0  0  0  0  0  0
  162.1850  209.2100  148.6730 O   0  0  0  0  0  1  0  0  0  0  0  0
  160.1920  206.8580  147.0090 C   0  0  0  0  0  2  0  0  0  0  0  0
  162.2460  206.0240  145.8660 O   0  0  0  0  0  1  0  0  0  0  0  0
  160.1680  205.4130  145.1150 O   0  0  0  0  0  0  0  0  0  0  0  0
  160.8590  206.0500  145.9500 C   0  0  0  0  0  0  0  0  0  0  0  0
  161.8210  201.9770  151.1660 C   0  0  0  0  0  2  0  0  0  0  0  0
  161.0830  200.8200  149.0830 C   0  0  0  0  0  1  0  0  0  0  0  0
  160.6290  201.4520  150.3860 C   0  0  0  0  0  2  0  0  0  0  0  0
  160.6870  208.3830  153.9500 C   0  0  0  0  0  2  0  0  0  0  0  0
  161.6880  210.5740  154.0950 N   0  0  0  0  0  2  0  0  0  0  0  0
  160.7510  209.8400  153.6210 C   0  0  0  0  0  3  0  0  0  0  0  0
  1  8  1  0  0  0  0
  2  4  1  0  0  0  0
  2  3  2  0  0  0  0
  4 23  1  0  0  0  0
  5 16  1  6  0  0  0
  5 12  1  0  0  0  0
  6  4  2  0  0  0  0
  8 10  1  0  0  0  0
  8  7  2  0  0  0  0
  9  5  1  0  0  0  0
  9  1  2  0  0  0  0
 10  2  1  0  0  0  0
 11 10  2  0  0  0  0
 11  6  1  0  0  0  0
 12 13  1  6  0  0  0
 12 11  1  0  0  0  0
 14 15  1  0  0  0  0
 14 13  1  0  0  0  0
 17 19  1  0  0  0  0
 18 19  2  0  0  0  0
 19 16  1  0  0  0  0
 20  7  1  0  0  0  0
 21 22  1  0  0  0  0
 22 20  1  0  0  0  0
 25 23  1  0  0  0  0
 25 24  2  0  0  0  0
M  END
>  <MODEL>
2

>  <REMARK>
 VINA RESULT:      -5.8      3.295      6.586
  Name = 
  8 active torsions:
  status: ('A' for Active; 'I' for Inactive)
    1  A    between atoms: O_1  and  C_6
    2  A    between atoms: O_1  and  C_25
    3  A    between atoms: C_4  and  C_19
    4  A    between atoms: C_10  and  C_20
    5  A    between atoms: C_11  and  C_12
    6  A    between atoms: C_11  and  C_24
    7  A    between atoms: C_14  and  C_19
    8  A    between atoms: C_16  and  C_20
                            x       y       z     vdW  Elec       q    Type
                         _______ _______ _______ _____ _____    ______ ____

>  <TORSDO>
F 8

$$$$
=
 OpenBabel11052410153D

 25 26  0  0  1  0  0  0  0  0999 V2000
  160.8800  211.0610  152.6050 C   0  0  0  0  0  3  0  0  0  0  0  0
  161.5090  207.2360  151.6500 C   0  0  0  0  0  0  0  0  0  0  0  0
  161.7980  207.1220  150.4290 O   0  0  0  0  0  0  0  0  0  0  0  0
  161.3520  206.1580  152.6030 C   0  0  0  0  0  0  0  0  0  0  0  0
  159.5890  209.9390  154.4490 C   0  0  1  0  0  3  0  0  0  0  0  0
  161.0320  206.6270  153.7620 N   0  0  0  0  0  0  0  0  0  0  0  0
  161.8770  210.0280  150.6520 C   0  0  0  0  0  3  0  0  0  0  0  0
  161.3310  209.8570  151.8610 C   0  0  0  0  0  0  0  0  0  0  0  0
  160.1490  211.1180  153.7180 C   0  0  0  0  0  3  0  0  0  0  0  0
  161.2500  208.4660  152.3900 C   0  0  0  0  0  0  0  0  0  0  0  0
  160.9750  208.0540  153.6360 C   0  0  0  0  0  0  0  0  0  0  0  0
  160.6650  208.9220  154.8100 C   0  0  1  0  0  3  0  0  0  0  0  0
  161.8280  209.5310  155.2970 O   0  0  0  0  0  0  0  0  0  0  0  0
  162.0500  208.9380  156.5420 C   0  0  0  0  0  2  0  0  0  0  0  0
  162.9710  209.6990  157.2600 O   0  0  0  0  0  1  0  0  0  0  0  0
  158.8730  210.3960  155.7120 C   0  0  0  0  0  2  0  0  0  0  0  0
  157.9420  212.7050  155.8520 O   0  0  0  0  0  1  0  0  0  0  0  0
  156.8120  211.0640  154.7180 O   0  0  0  0  0  0  0  0  0  0  0  0
  157.8220  211.4010  155.3880 C   0  0  0  0  0  0  0  0  0  0  0  0
  162.0500  211.3590  149.9900 C   0  0  0  0  0  2  0  0  0  0  0  0
  162.9530  212.3350  147.8800 C   0  0  0  0  0  1  0  0  0  0  0  0
  162.1560  211.1940  148.4850 C   0  0  0  0  0  2  0  0  0  0  0  0
  161.4670  204.7000  152.3100 C   0  0  0  0  0  2  0  0  0  0  0  0
  160.9210  203.8030  150.1380 N   0  0  0  0  0  2  0  0  0  0  0  0
  160.5010  204.2950  151.2440 C   0  0  0  0  0  3  0  0  0  0  0  0
  1  9  2  0  0  0  0
  2 10  1  0  0  0  0
  2  4  1  0  0  0  0
  3  2  2  0  0  0  0
  4  6  2  0  0  0  0
  5 12  1  0  0  0  0
  5 16  1  1  0  0  0
  7  8  2  0  0  0  0
  8 10  1  0  0  0  0
  8  1  1  0  0  0  0
  9  5  1  0  0  0  0
 10 11  2  0  0  0  0
 11  6  1  0  0  0  0
 11 12  1  0  0  0  0
 12 13  1  6  0  0  0
 13 14  1  0  0  0  0
 14 15  1  0  0  0  0
 18 19  2  0  0  0  0
 19 16  1  0  0  0  0
 19 17  1  0  0  0  0
 20  7  1  0  0  0  0
 21 22  1  0  0  0  0
 22 20  1  0  0  0  0
 23  4  1  0  0  0  0
 24 25  2  0  0  0  0
 25 23  1  0  0  0  0
M  END
>  <MODEL>
3

>  <REMARK>
 VINA RESULT:      -5.4      2.359      5.285
  Name = 
  8 active torsions:
  status: ('A' for Active; 'I' for Inactive)
    1  A    between atoms: O_1  and  C_6
    2  A    between atoms: O_1  and  C_25
    3  A    between atoms: C_4  and  C_19
    4  A    between atoms: C_10  and  C_20
    5  A    between atoms: C_11  and  C_12
    6  A    between atoms: C_11  and  C_24
    7  A    between atoms: C_14  and  C_19
    8  A    between atoms: C_16  and  C_20
                            x       y       z     vdW  Elec       q    Type
                         _______ _______ _______ _____ _____    ______ ____

>  <TORSDO>
F 8

$$$$
=
 OpenBabel11052410153D

 25 26  0  0  1  0  0  0  0  0999 V2000
  159.6800  212.5280  152.5180 C   0  0  0  0  0  3  0  0  0  0  0  0
  161.3550  209.0200  151.6090 C   0  0  0  0  0  0  0  0  0  0  0  0
  161.6950  208.9880  150.3960 O   0  0  0  0  0  0  0  0  0  0  0  0
  161.4750  207.9420  152.5670 C   0  0  0  0  0  0  0  0  0  0  0  0
  158.7000  211.0980  154.3410 C   0  0  1  0  0  3  0  0  0  0  0  0
  161.0110  208.3080  153.7140 N   0  0  0  0  0  0  0  0  0  0  0  0
  160.9700  211.8050  150.5980 C   0  0  0  0  0  3  0  0  0  0  0  0
  160.4610  211.4930  151.7940 C   0  0  0  0  0  0  0  0  0  0  0  0
  158.9340  212.3850  153.6130 C   0  0  0  0  0  3  0  0  0  0  0  0
  160.7510  210.1340  152.3330 C   0  0  0  0  0  0  0  0  0  0  0  0
  160.5690  209.6630  153.5750 C   0  0  0  0  0  0  0  0  0  0  0  0
  160.0050  210.4150  154.7350 C   0  0  1  0  0  3  0  0  0  0  0  0
  160.9430  211.3200  155.2440 O   0  0  0  0  0  0  0  0  0  0  0  0
  161.4410  210.7110  156.3980 C   0  0  0  0  0  2  0  0  0  0  0  0
  162.7570  210.3070  156.1780 O   0  0  0  0  0  1  0  0  0  0  0  0
  157.8550  211.3430  155.5830 C   0  0  0  0  0  2  0  0  0  0  0  0
  155.6200  210.2760  155.2960 O   0  0  0  0  0  1  0  0  0  0  0  0
  155.9080  212.5060  154.8520 O   0  0  0  0  0  0  0  0  0  0  0  0
  156.4090  211.4170  155.2320 C   0  0  0  0  0  0  0  0  0  0  0  0
  160.7880  213.1320  149.9300 C   0  0  0  0  0  2  0  0  0  0  0  0
  162.2000  211.8890  148.2920 C   0  0  0  0  0  1  0  0  0  0  0  0
  161.2740  213.0740  148.4930 C   0  0  0  0  0  2  0  0  0  0  0  0
  161.9930  206.5700  152.2890 C   0  0  0  0  0  2  0  0  0  0  0  0
  161.0500  204.5400  151.3880 N   0  0  0  0  0  2  0  0  0  0  0  0
  161.0550  205.8210  151.3980 C   0  0  0  0  0  3  0  0  0  0  0  0
  1  9  2  0  0  0  0
  2 10  1  0  0  0  0
  2  4  1  0  0  0  0
  3  2  2  0  0  0  0
  4  6  2  0  0  0  0
  5 12  1  0  0  0  0
  5 16  1  1  0  0  0
  7  8  2  0  0  0  0
  8 10  1  0  0  0  0
  8  1  1  0  0  0  0
  9  5  1  0  0  0  0
 10 11  2  0  0  0  0
 11  6  1  0  0  0  0
 11 12  1  0  0  0  0
 12 13  1  6  0  0  0
 13 14  1  0  0  0  0
 15 14  1  0  0  0  0
 18 19  2  0  0  0  0
 19 17  1  0  0  0  0
 19 16  1  0  0  0  0
 20  7  1  0  0  0  0
 21 22  1  0  0  0  0
 22 20  1  0  0  0  0
 23  4  1  0  0  0  0
 24 25  2  0  0  0  0
 25 23  1  0  0  0  0
M  END
>  <MODEL>
4

>  <REMARK>
 VINA RESULT:      -4.5      2.242      5.589
  Name = 
  8 active torsions:
  status: ('A' for Active; 'I' for Inactive)
    1  A    between atoms: O_1  and  C_6
    2  A    between atoms: O_1  and  C_25
    3  A    between atoms: C_4  and  C_19
    4  A    between atoms: C_10  and  C_20
    5  A    between atoms: C_11  and  C_12
    6  A    between atoms: C_11  and  C_24
    7  A    between atoms: C_14  and  C_19
    8  A    between atoms: C_16  and  C_20
                            x       y       z     vdW  Elec       q    Type
                         _______ _______ _______ _____ _____    ______ ____

>  <TORSDO>
F 8

$$$$
=
 OpenBabel11052410153D

 25 26  0  0  1  0  0  0  0  0999 V2000
  161.0210  203.7090  149.2030 C   0  0  0  0  0  3  0  0  0  0  0  0
  161.4820  207.5100  150.3320 C   0  0  0  0  0  0  0  0  0  0  0  0
  161.1720  207.6580  151.5440 O   0  0  0  0  0  0  0  0  0  0  0  0
  161.8940  208.5520  149.4150 C   0  0  0  0  0  0  0  0  0  0  0  0
  160.8620  204.8460  146.9640 C   0  0  1  0  0  3  0  0  0  0  0  0
  162.1160  208.0560  148.2440 N   0  0  0  0  0  0  0  0  0  0  0  0
  161.0730  204.7480  151.3930 C   0  0  0  0  0  3  0  0  0  0  0  0
  161.1790  204.9050  150.0690 C   0  0  0  0  0  0  0  0  0  0  0  0
  160.8980  203.6600  147.8770 C   0  0  0  0  0  3  0  0  0  0  0  0
  161.4880  206.2720  149.5600 C   0  0  0  0  0  0  0  0  0  0  0  0
  161.8720  206.6470  148.3320 C   0  0  0  0  0  0  0  0  0  0  0  0
  162.0720  205.7530  147.1530 C   0  0  1  0  0  3  0  0  0  0  0  0
  163.2630  205.0290  147.2750 O   0  0  0  0  0  0  0  0  0  0  0  0
  163.8450  205.0780  146.0070 C   0  0  0  0  0  2  0  0  0  0  0  0
  163.8190  203.8070  145.4350 O   0  0  0  0  0  1  0  0  0  0  0  0
  160.7850  204.3900  145.5140 C   0  0  0  0  0  2  0  0  0  0  0  0
  161.5110  205.5420  143.4250 O   0  0  0  0  0  0  0  0  0  0  0  0
  160.0810  206.5790  144.8860 O   0  0  0  0  0  1  0  0  0  0  0  0
  160.7600  205.5610  144.5930 C   0  0  0  0  0  0  0  0  0  0  0  0
  160.7880  203.4380  152.0610 C   0  0  0  0  0  2  0  0  0  0  0  0
  161.2060  201.2780  150.8860 C   0  0  0  0  0  1  0  0  0  0  0  0
  161.8360  202.4090  151.6780 C   0  0  0  0  0  2  0  0  0  0  0  0
  161.9950  210.0080  149.7240 C   0  0  0  0  0  2  0  0  0  0  0  0
  161.5790  211.8870  148.2680 N   0  0  0  0  0  2  0  0  0  0  0  0
  162.2230  210.7990  148.4760 C   0  0  0  0  0  3  0  0  0  0  0  0
  1  8  1  0  0  0  0
  2  3  2  0  0  0  0
  4 23  1  0  0  0  0
  4  2  1  0  0  0  0
  5 16  1  6  0  0  0
  5 12  1  0  0  0  0
  5  9  1  0  0  0  0
  6 11  1  0  0  0  0
  6  4  2  0  0  0  0
  7 20  1  0  0  0  0
  8  7  2  0  0  0  0
  9  1  2  0  0  0  0
 10  8  1  0  0  0  0
 10  2  1  0  0  0  0
 11 10  2  0  0  0  0
 12 13  1  1  0  0  0
 12 11  1  0  0  0  0
 14 13  1  0  0  0  0
 15 14  1  0  0  0  0
 17 19  2  0  0  0  0
 19 18  1  0  0  0  0
 19 16  1  0  0  0  0
 21 22  1  0  0  0  0
 22 20  1  0  0  0  0
 24 25  2  0  0  0  0
 25 23  1  0  0  0  0
M  END
>  <MODEL>
5

>  <REMARK>
 VINA RESULT:      -4.5      3.589      7.387
  Name = 
  8 active torsions:
  status: ('A' for Active; 'I' for Inactive)
    1  A    between atoms: O_1  and  C_6
    2  A    between atoms: O_1  and  C_25
    3  A    between atoms: C_4  and  C_19
    4  A    between atoms: C_10  and  C_20
    5  A    between atoms: C_11  and  C_12
    6  A    between atoms: C_11  and  C_24
    7  A    between atoms: C_14  and  C_19
    8  A    between atoms: C_16  and  C_20
                            x       y       z     vdW  Elec       q    Type
                         _______ _______ _______ _____ _____    ______ ____

>  <TORSDO>
F 8

$$$$
=
 OpenBabel11052410153D

 25 26  0  0  1  0  0  0  0  0999 V2000
  158.7480  212.5820  140.6240 C   0  0  0  0  0  3  0  0  0  0  0  0
  159.9690  209.2940  138.7190 C   0  0  0  0  0  0  0  0  0  0  0  0
  159.0140  208.7580  138.0950 O   0  0  0  0  0  0  0  0  0  0  0  0
  161.3230  208.7940  138.8150 C   0  0  0  0  0  0  0  0  0  0  0  0
  160.7840  212.0230  141.9910 C   0  0  1  0  0  3  0  0  0  0  0  0
  162.0390  209.5770  139.5500 N   0  0  0  0  0  0  0  0  0  0  0  0
  157.7080  211.2390  138.8950 C   0  0  0  0  0  3  0  0  0  0  0  0
  158.7760  211.4420  139.6730 C   0  0  0  0  0  0  0  0  0  0  0  0
  159.6010  212.8570  141.6100 C   0  0  0  0  0  3  0  0  0  0  0  0
  159.9390  210.5260  139.4990 C   0  0  0  0  0  0  0  0  0  0  0  0
  161.1890  210.6520  139.9680 C   0  0  0  0  0  0  0  0  0  0  0  0
  161.7120  211.7690  140.8090 C   0  0  1  0  0  3  0  0  0  0  0  0
  161.9150  212.9190  140.0380 O   0  0  0  0  0  0  0  0  0  0  0  0
  163.2910  212.9590  139.8060 C   0  0  0  0  0  2  0  0  0  0  0  0
  163.8290  214.0970  140.4040 O   0  0  0  0  0  1  0  0  0  0  0  0
  161.5590  212.6950  143.1160 C   0  0  0  0  0  2  0  0  0  0  0  0
  159.9020  211.9380  144.8190 O   0  0  0  0  0  1  0  0  0  0  0  0
  160.5990  214.1210  144.7660 O   0  0  0  0  0  0  0  0  0  0  0  0
  160.6720  212.9620  144.2820 C   0  0  0  0  0  0  0  0  0  0  0  0
  156.4710  212.0820  138.9330 C   0  0  0  0  0  2  0  0  0  0  0  0
  155.5640  209.7670  139.1350 C   0  0  0  0  0  1  0  0  0  0  0  0
  155.2690  211.2430  139.3270 C   0  0  0  0  0  2  0  0  0  0  0  0
  161.8390  207.5250  138.2230 C   0  0  0  0  0  2  0  0  0  0  0  0
  161.9400  206.7170  140.4940 N   0  0  0  0  0  2  0  0  0  0  0  0
  162.3610  206.6160  139.2880 C   0  0  0  0  0  3  0  0  0  0  0  0
  1  9  2  0  0  0  0
  2  4  1  0  0  0  0
  2 10  1  0  0  0  0
  3  2  2  0  0  0  0
  4  6  2  0  0  0  0
  5 16  1  1  0  0  0
  6 11  1  0  0  0  0
  7 20  1  0  0  0  0
  7  8  2  0  0  0  0
  8  1  1  0  0  0  0
  9  5  1  0  0  0  0
 10  8  1  0  0  0  0
 10 11  2  0  0  0  0
 11 12  1  0  0  0  0
 12 13  1  6  0  0  0
 12  5  1  0  0  0  0
 14 13  1  0  0  0  0
 14 15  1  0  0  0  0
 16 19  1  0  0  0  0
 19 18  2  0  0  0  0
 19 17  1  0  0  0  0
 20 22  1  0  0  0  0
 21 22  1  0  0  0  0
 23  4  1  0  0  0  0
 23 25  1  0  0  0  0
 25 24  2  0  0  0  0
M  END
>  <MODEL>
6

>  <REMARK>
 VINA RESULT:      -4.4      9.693     12.793
  Name = 
  8 active torsions:
  status: ('A' for Active; 'I' for Inactive)
    1  A    between atoms: O_1  and  C_6
    2  A    between atoms: O_1  and  C_25
    3  A    between atoms: C_4  and  C_19
    4  A    between atoms: C_10  and  C_20
    5  A    between atoms: C_11  and  C_12
    6  A    between atoms: C_11  and  C_24
    7  A    between atoms: C_14  and  C_19
    8  A    between atoms: C_16  and  C_20
                            x       y       z     vdW  Elec       q    Type
                         _______ _______ _______ _____ _____    ______ ____

>  <TORSDO>
F 8

$$$$
=
 OpenBabel11052410153D

 25 26  0  0  1  0  0  0  0  0999 V2000
  162.0930  207.1980  148.0700 C   0  0  0  0  0  3  0  0  0  0  0  0
  160.8320  203.4680  148.7230 C   0  0  0  0  0  0  0  0  0  0  0  0
  160.7700  202.8210  147.6430 O   0  0  0  0  0  0  0  0  0  0  0  0
  160.4520  202.9910  150.0360 C   0  0  0  0  0  0  0  0  0  0  0  0
  160.8920  207.5260  150.2560 C   0  0  1  0  0  3  0  0  0  0  0  0
  160.6230  203.9190  150.9160 N   0  0  0  0  0  0  0  0  0  0  0  0
  162.1070  205.2210  146.6680 C   0  0  0  0  0  3  0  0  0  0  0  0
  161.8210  205.7540  147.8610 C   0  0  0  0  0  0  0  0  0  0  0  0
  161.7180  207.9710  149.0900 C   0  0  0  0  0  3  0  0  0  0  0  0
  161.2830  204.8420  148.9110 C   0  0  0  0  0  0  0  0  0  0  0  0
  161.1430  205.0620  150.2260 C   0  0  0  0  0  0  0  0  0  0  0  0
  161.4930  206.3150  150.9580 C   0  0  1  0  0  3  0  0  0  0  0  0
  162.8790  206.4270  151.1150 O   0  0  0  0  0  0  0  0  0  0  0  0
  163.1520  205.8300  152.3480 C   0  0  0  0  0  2  0  0  0  0  0  0
  162.1750  206.2030  153.2700 O   0  0  0  0  0  1  0  0  0  0  0  0
  160.7310  208.6670  151.2500 C   0  0  0  0  0  2  0  0  0  0  0  0
  161.9560  210.4750  150.0450 O   0  0  0  0  0  0  0  0  0  0  0  0
  162.7580  209.6500  152.0280 O   0  0  0  0  0  1  0  0  0  0  0  0
  161.8660  209.6260  151.1420 C   0  0  0  0  0  0  0  0  0  0  0  0
  162.6720  205.9960  145.5180 C   0  0  0  0  0  2  0  0  0  0  0  0
  160.8000  204.6920  144.5110 C   0  0  0  0  0  1  0  0  0  0  0  0
  161.8560  205.7520  144.2620 C   0  0  0  0  0  2  0  0  0  0  0  0
  159.8770  201.6520  150.3540 C   0  0  0  0  0  2  0  0  0  0  0  0
  161.3240  200.3210  148.9550 N   0  0  0  0  0  2  0  0  0  0  0  0
  160.8900  200.5750  150.1340 C   0  0  0  0  0  3  0  0  0  0  0  0
  1  9  2  0  0  0  0
  2 10  1  0  0  0  0
  2  4  1  0  0  0  0
  3  2  2  0  0  0  0
  4 23  1  0  0  0  0
  4  6  2  0  0  0  0
  5 12  1  0  0  0  0
  5 16  1  1  0  0  0
  7  8  2  0  0  0  0
  8  1  1  0  0  0  0
  8 10  1  0  0  0  0
  9  5  1  0  0  0  0
 10 11  2  0  0  0  0
 11  6  1  0  0  0  0
 11 12  1  0  0  0  0
 12 13  1  6  0  0  0
 13 14  1  0  0  0  0
 14 15  1  0  0  0  0
 17 19  2  0  0  0  0
 19 16  1  0  0  0  0
 19 18  1  0  0  0  0
 20  7  1  0  0  0  0
 22 21  1  0  0  0  0
 22 20  1  0  0  0  0
 24 25  2  0  0  0  0
 25 23  1  0  0  0  0
M  END
>  <MODEL>
7

>  <REMARK>
 VINA RESULT:      -4.3      3.878      6.685
  Name = 
  8 active torsions:
  status: ('A' for Active; 'I' for Inactive)
    1  A    between atoms: O_1  and  C_6
    2  A    between atoms: O_1  and  C_25
    3  A    between atoms: C_4  and  C_19
    4  A    between atoms: C_10  and  C_20
    5  A    between atoms: C_11  and  C_12
    6  A    between atoms: C_11  and  C_24
    7  A    between atoms: C_14  and  C_19
    8  A    between atoms: C_16  and  C_20
                            x       y       z     vdW  Elec       q    Type
                         _______ _______ _______ _____ _____    ______ ____

>  <TORSDO>
F 8

$$$$
=
 OpenBabel11052410153D

 25 26  0  0  1  0  0  0  0  0999 V2000
  162.0460  208.2520  149.0930 C   0  0  0  0  0  3  0  0  0  0  0  0
  161.2220  205.1850  151.5120 C   0  0  0  0  0  0  0  0  0  0  0  0
  161.3450  205.5220  152.7200 O   0  0  0  0  0  0  0  0  0  0  0  0
  160.8910  203.8660  151.0150 C   0  0  0  0  0  0  0  0  0  0  0  0
  162.4660  206.3360  147.5180 C   0  0  1  0  0  3  0  0  0  0  0  0
  160.8690  203.8660  149.7240 N   0  0  0  0  0  0  0  0  0  0  0  0
  161.6220  208.1450  151.4770 C   0  0  0  0  0  3  0  0  0  0  0  0
  161.7000  207.4850  150.3170 C   0  0  0  0  0  0  0  0  0  0  0  0
  162.3630  207.7830  147.8860 C   0  0  0  0  0  3  0  0  0  0  0  0
  161.3950  206.0260  150.3320 C   0  0  0  0  0  0  0  0  0  0  0  0
  161.1730  205.2010  149.3000 C   0  0  0  0  0  0  0  0  0  0  0  0
  161.1940  205.5650  147.8520 C   0  0  1  0  0  3  0  0  0  0  0  0
  160.0390  206.2720  147.5010 O   0  0  0  0  0  0  0  0  0  0  0  0
  159.6510  205.7390  146.2700 C   0  0  0  0  0  2  0  0  0  0  0  0
  160.0810  206.5780  145.2440 O   0  0  0  0  0  1  0  0  0  0  0  0
  162.7760  206.1930  146.0340 C   0  0  0  0  0  2  0  0  0  0  0  0
  162.2190  204.0010  144.9830 O   0  0  0  0  0  0  0  0  0  0  0  0
  164.2060  204.2860  146.0890 O   0  0  0  0  0  1  0  0  0  0  0  0
  163.1170  204.7810  145.7000 C   0  0  0  0  0  0  0  0  0  0  0  0
  161.8780  209.6130  151.6250 C   0  0  0  0  0  2  0  0  0  0  0  0
  160.8300  209.0050  153.8060 C   0  0  0  0  0  1  0  0  0  0  0  0
  161.6350  210.0520  153.0580 C   0  0  0  0  0  2  0  0  0  0  0  0
  160.6690  202.6440  151.8400 C   0  0  0  0  0  2  0  0  0  0  0  0
  160.6120  200.9540  150.1190 N   0  0  0  0  0  2  0  0  0  0  0  0
  161.2060  201.4320  151.1490 C   0  0  0  0  0  3  0  0  0  0  0  0
  1  8  1  0  0  0  0
  2  3  2  0  0  0  0
  4  2  1  0  0  0  0
  4 23  1  0  0  0  0
  5 16  1  6  0  0  0
  5 12  1  0  0  0  0
  5  9  1  0  0  0  0
  6  4  2  0  0  0  0
  7 20  1  0  0  0  0
  8 10  1  0  0  0  0
  8  7  2  0  0  0  0
  9  1  2  0  0  0  0
 10  2  1  0  0  0  0
 11  6  1  0  0  0  0
 11 10  2  0  0  0  0
 12 13  1  1  0  0  0
 12 11  1  0  0  0  0
 14 13  1  0  0  0  0
 15 14  1  0  0  0  0
 17 19  2  0  0  0  0
 19 16  1  0  0  0  0
 19 18  1  0  0  0  0
 20 22  1  0  0  0  0
 22 21  1  0  0  0  0
 24 25  2  0  0  0  0
 25 23  1  0  0  0  0
M  END
>  <MODEL>
8

>  <REMARK>
 VINA RESULT:      -4.3      3.827      8.039
  Name = 
  8 active torsions:
  status: ('A' for Active; 'I' for Inactive)
    1  A    between atoms: O_1  and  C_6
    2  A    between atoms: O_1  and  C_25
    3  A    between atoms: C_4  and  C_19
    4  A    between atoms: C_10  and  C_20
    5  A    between atoms: C_11  and  C_12
    6  A    between atoms: C_11  and  C_24
    7  A    between atoms: C_14  and  C_19
    8  A    between atoms: C_16  and  C_20
                            x       y       z     vdW  Elec       q    Type
                         _______ _______ _______ _____ _____    ______ ____

>  <TORSDO>
F 8

$$$$
=
 OpenBabel11052410153D

 25 26  0  0  1  0  0  0  0  0999 V2000
  161.1880  204.9700  150.2030 C   0  0  0  0  0  3  0  0  0  0  0  0
  161.8670  208.9020  150.1000 C   0  0  0  0  0  0  0  0  0  0  0  0
  161.7300  209.4100  151.2460 O   0  0  0  0  0  0  0  0  0  0  0  0
  162.1660  209.6110  148.8740 C   0  0  0  0  0  0  0  0  0  0  0  0
  160.7400  205.4210  147.7690 C   0  0  1  0  0  3  0  0  0  0  0  0
  162.2140  208.7870  147.8810 N   0  0  0  0  0  0  0  0  0  0  0  0
  161.5610  206.5900  151.9670 C   0  0  0  0  0  3  0  0  0  0  0  0
  161.4850  206.3540  150.6530 C   0  0  0  0  0  0  0  0  0  0  0  0
  160.8810  204.5480  148.9760 C   0  0  0  0  0  3  0  0  0  0  0  0
  161.7440  207.4960  149.7310 C   0  0  0  0  0  0  0  0  0  0  0  0
  161.9610  207.4790  148.4080 C   0  0  0  0  0  0  0  0  0  0  0  0
  161.9790  206.2740  147.5270 C   0  0  1  0  0  3  0  0  0  0  0  0
  163.1640  205.5490  147.7030 O   0  0  0  0  0  0  0  0  0  0  0  0
  163.6260  205.2950  146.4100 C   0  0  0  0  0  2  0  0  0  0  0  0
  163.6640  203.9190  146.1930 O   0  0  0  0  0  1  0  0  0  0  0  0
  160.4550  204.5730  146.5380 C   0  0  0  0  0  2  0  0  0  0  0  0
  161.0930  204.8790  144.1460 O   0  0  0  0  0  0  0  0  0  0  0  0
  160.0810  206.5780  145.3060 O   0  0  0  0  0  1  0  0  0  0  0  0
  160.5200  205.3990  145.3000 C   0  0  0  0  0  0  0  0  0  0  0  0
  161.3490  205.5470  153.0200 C   0  0  0  0  0  2  0  0  0  0  0  0
  161.2020  207.6150  154.4070 C   0  0  0  0  0  1  0  0  0  0  0  0
  160.7600  206.1690  154.2720 C   0  0  0  0  0  2  0  0  0  0  0  0
  162.3330  211.0860  148.7270 C   0  0  0  0  0  2  0  0  0  0  0  0
  160.8000  212.8470  148.1180 N   0  0  0  0  0  2  0  0  0  0  0  0
  161.2360  211.6630  147.8920 C   0  0  0  0  0  3  0  0  0  0  0  0
  1  8  1  0  0  0  0
  2  3  2  0  0  0  0
  4  2  1  0  0  0  0
  5 16  1  6  0  0  0
  5  9  1  0  0  0  0
  6 11  1  0  0  0  0
  6  4  2  0  0  0  0
  7 20  1  0  0  0  0
  8  7  2  0  0  0  0
  9  1  2  0  0  0  0
 10  2  1  0  0  0  0
 10  8  1  0  0  0  0
 11 10  2  0  0  0  0
 12 13  1  1  0  0  0
 12  5  1  0  0  0  0
 12 11  1  0  0  0  0
 14 13  1  0  0  0  0
 15 14  1  0  0  0  0
 17 19  2  0  0  0  0
 19 18  1  0  0  0  0
 19 16  1  0  0  0  0
 20 22  1  0  0  0  0
 22 21  1  0  0  0  0
 23  4  1  0  0  0  0
 25 24  2  0  0  0  0
 25 23  1  0  0  0  0
M  END
>  <MODEL>
9

>  <REMARK>
 VINA RESULT:      -4.3      2.827      6.972
  Name = 
  8 active torsions:
  status: ('A' for Active; 'I' for Inactive)
    1  A    between atoms: O_1  and  C_6
    2  A    between atoms: O_1  and  C_25
    3  A    between atoms: C_4  and  C_19
    4  A    between atoms: C_10  and  C_20
    5  A    between atoms: C_11  and  C_12
    6  A    between atoms: C_11  and  C_24
    7  A    between atoms: C_14  and  C_19
    8  A    between atoms: C_16  and  C_20
                            x       y       z     vdW  Elec       q    Type
                         _______ _______ _______ _____ _____    ______ ____

>  <TORSDO>
F 8

$$$$
