=
 OpenBabel11042420283D

 31 35  0  0  1  0  0  0  0  0999 V2000
  160.7970  207.5390  152.9120 C   0  0  0  0  0  2  0  0  0  0  0  0
  161.4330  210.7690  154.8010 C   0  0  0  0  0  2  0  0  0  0  0  0
  156.5090  212.6680  154.1400 C   0  0  0  0  0  1  0  0  0  0  0  0
  159.2510  210.2370  153.3960 C   0  0  2  0  0  3  0  0  0  0  0  0
  161.1290  209.3150  154.4900 C   0  0  1  0  0  0  0  0  0  0  0  0
  161.2240  208.9250  153.0710 N   0  0  0  0  0  0  0  0  0  0  0  0
  158.4850  211.4710  153.1610 N   0  0  0  0  0  0  0  0  0  0  0  0
  159.1580  210.4330  155.9450 C   0  0  0  0  0  2  0  0  0  0  0  0
  161.3480  208.3690  155.4960 O   0  0  0  0  0  1  0  0  0  0  0  0
  157.5510  211.5780  154.3140 C   0  0  1  0  0  3  0  0  0  0  0  0
  158.2510  211.6510  155.6970 C   0  0  0  0  0  2  0  0  0  0  0  0
  159.9920  210.2580  154.6970 C   0  0  1  0  0  0  0  0  0  0  0  0
  160.2450  209.7610  152.3520 C   0  0  0  0  0  2  0  0  0  0  0  0
  159.9570  212.7280  151.2980 N   0  0  0  0  0  1  0  0  0  0  0  0
  159.5770  212.9300  153.0420 P   0  0  1  0  0  0  0  0  0  0  0  0
  158.3190  214.0910  152.7490 O   0  0  0  0  0  1  0  0  0  0  0  0
  161.9380  206.6290  153.2290 C   0  0  0  0  0  3  0  0  0  0  0  0
  162.4150  205.6980  152.3980 C   0  0  0  0  0  3  0  0  0  0  0  0
  162.0000  206.3760  150.1200 N   0  0  0  0  0  0  0  0  0  0  0  0
  160.0750  206.5480  148.6480 C   0  0  0  0  0  1  0  0  0  0  0  0
  162.3050  206.0770  147.6820 C   0  0  0  0  0  3  0  0  0  0  0  0
  161.4380  203.1130  145.8980 O   0  0  0  0  0  0  0  0  0  0  0  0
  161.4180  205.8770  148.8850 C   0  0  1  0  0  0  0  0  0  0  0  0
  162.3350  205.1550  146.7100 C   0  0  0  0  0  3  0  0  0  0  0  0
  161.2150  204.4320  149.1940 C   0  0  1  0  0  3  0  0  0  0  0  0
  161.2130  203.4720  148.2600 C   0  0  1  0  0  3  0  0  0  0  0  0
  161.6210  203.8720  146.8870 C   0  0  0  0  0  0  0  0  0  0  0  0
  161.4410  204.1910  150.5730 N   0  0  0  0  0  2  0  0  0  0  0  0
  161.9550  205.4450  151.0240 C   0  0  0  0  0  0  0  0  0  0  0  0
  159.7700  201.5480  149.1140 C   0  0  0  0  0  1  0  0  0  0  0  0
  161.0290  202.1040  148.6460 N   0  0  0  0  0  2  0  0  0  0  0  0
  1  6  1  0  0  0  0
  1 17  1  0  0  0  0
  4 13  1  6  0  0  0
  4 12  1  0  0  0  0
  5 12  1  0  0  0  0
  5  2  1  0  0  0  0
  5  9  1  1  0  0  0
  6  5  1  0  0  0  0
  7  4  1  0  0  0  0
  7 10  1  0  0  0  0
 10  3  1  6  0  0  0
 10 11  1  0  0  0  0
 11  8  1  0  0  0  0
 12  2  1  6  0  0  0
 12  8  1  0  0  0  0
 13  6  1  0  0  0  0
 15 14  1  6  0  0  0
 15  7  1  0  0  0  0
 16 15  1  0  0  0  0
 18 17  2  0  0  0  0
 19 29  2  0  0  0  0
 21 23  1  0  0  0  0
 22 27  2  0  0  0  0
 23 20  1  6  0  0  0
 23 25  1  0  0  0  0
 23 19  1  0  0  0  0
 24 27  1  0  0  0  0
 24 21  2  0  0  0  0
 25 28  1  1  0  0  0
 26 31  1  1  0  0  0
 26 25  1  0  0  0  0
 27 26  1  0  0  0  0
 28 29  1  0  0  0  0
 29 18  1  0  0  0  0
 31 30  1  0  0  0  0
M  END
>  <MODEL>
1

>  <REMARK>
 VINA RESULT:      -7.4      0.000      0.000
  Name = 
  5 active torsions:
  status: ('A' for Active; 'I' for Inactive)
    1  A    between atoms: N_7  and  C_30
    2  A    between atoms: N_8  and  P_12
    3  A    between atoms: C_16  and  C_30
    4  A    between atoms: C_22  and  N_24
    5  A    between atoms: C_26  and  C_31
                            x       y       z     vdW  Elec       q    Type
                         _______ _______ _______ _____ _____    ______ ____

>  <TORSDO>
F 5

$$$$
=
 OpenBabel11042420283D

 31 35  0  0  1  0  0  0  0  0999 V2000
  161.1550  208.7010  151.2980 C   0  0  0  0  0  2  0  0  0  0  0  0
  161.8620  207.4140  154.7980 C   0  0  0  0  0  2  0  0  0  0  0  0
  159.0510  211.1990  157.2600 C   0  0  0  0  0  1  0  0  0  0  0  0
  160.6840  209.7200  154.2390 C   0  0  2  0  0  3  0  0  0  0  0  0
  161.2550  207.5820  153.4180 C   0  0  1  0  0  0  0  0  0  0  0  0
  161.9110  208.5680  152.5390 N   0  0  0  0  0  0  0  0  0  0  0  0
  160.6550  210.5790  155.4330 N   0  0  0  0  0  0  0  0  0  0  0  0
  159.3840  207.8120  155.3390 C   0  0  0  0  0  2  0  0  0  0  0  0
  160.5690  206.4950  152.8670 O   0  0  0  0  0  1  0  0  0  0  0  0
  159.3780  210.2490  156.1210 C   0  0  1  0  0  3  0  0  0  0  0  0
  159.2450  208.7620  156.5420 C   0  0  0  0  0  2  0  0  0  0  0  0
  160.6060  208.2640  154.5750 C   0  0  1  0  0  0  0  0  0  0  0  0
  161.8180  209.8630  153.2390 C   0  0  0  0  0  2  0  0  0  0  0  0
  163.3340  210.7300  155.2880 N   0  0  0  0  0  1  0  0  0  0  0  0
  162.0970  210.2810  156.5120 P   0  0  1  0  0  0  0  0  0  0  0  0
  162.1070  211.8480  157.2610 O   0  0  0  0  0  1  0  0  0  0  0  0
  162.0040  209.3710  150.2690 C   0  0  0  0  0  3  0  0  0  0  0  0
  162.3370  208.8290  149.0950 C   0  0  0  0  0  3  0  0  0  0  0  0
  162.1310  207.1640  147.3610 N   0  0  0  0  0  0  0  0  0  0  0  0
  160.3210  206.0550  146.1780 C   0  0  0  0  0  1  0  0  0  0  0  0
  162.4620  204.8600  146.5200 C   0  0  0  0  0  3  0  0  0  0  0  0
  161.1370  201.9420  148.0850 O   0  0  0  0  0  0  0  0  0  0  0  0
  161.5120  205.8730  147.1060 C   0  0  1  0  0  0  0  0  0  0  0  0
  162.3590  203.5680  146.8630 C   0  0  0  0  0  3  0  0  0  0  0  0
  161.0410  205.4770  148.4650 C   0  0  1  0  0  3  0  0  0  0  0  0
  160.8980  204.2040  148.8520 C   0  0  1  0  0  3  0  0  0  0  0  0
  161.4190  203.1600  147.9290 C   0  0  0  0  0  0  0  0  0  0  0  0
  161.1710  206.5660  149.3640 N   0  0  0  0  0  2  0  0  0  0  0  0
  161.8880  207.5250  148.5840 C   0  0  0  0  0  0  0  0  0  0  0  0
  161.3120  203.3760  151.2300 C   0  0  0  0  0  1  0  0  0  0  0  0
  160.4570  203.9100  150.1830 N   0  0  0  0  0  2  0  0  0  0  0  0
  1  6  1  0  0  0  0
  4 13  1  1  0  0  0
  4 12  1  0  0  0  0
  4  7  1  0  0  0  0
  5  9  1  6  0  0  0
  5 12  1  0  0  0  0
  5  2  1  0  0  0  0
  6 13  1  0  0  0  0
  6  5  1  0  0  0  0
  7 10  1  0  0  0  0
  7 15  1  0  0  0  0
  8 11  1  0  0  0  0
 10 11  1  0  0  0  0
 10  3  1  1  0  0  0
 12  2  1  1  0  0  0
 12  8  1  0  0  0  0
 15 14  1  6  0  0  0
 15 16  1  0  0  0  0
 17  1  1  0  0  0  0
 18 17  2  0  0  0  0
 19 29  2  0  0  0  0
 21 24  2  0  0  0  0
 21 23  1  0  0  0  0
 23 20  1  6  0  0  0
 23 19  1  0  0  0  0
 23 25  1  0  0  0  0
 24 27  1  0  0  0  0
 25 26  1  0  0  0  0
 25 28  1  1  0  0  0
 26 31  1  1  0  0  0
 27 22  2  0  0  0  0
 27 26  1  0  0  0  0
 29 18  1  0  0  0  0
 29 28  1  0  0  0  0
 31 30  1  0  0  0  0
M  END
>  <MODEL>
2

>  <REMARK>
 VINA RESULT:      -6.7      2.463      3.100
  Name = 
  5 active torsions:
  status: ('A' for Active; 'I' for Inactive)
    1  A    between atoms: N_7  and  C_30
    2  A    between atoms: N_8  and  P_12
    3  A    between atoms: C_16  and  C_30
    4  A    between atoms: C_22  and  N_24
    5  A    between atoms: C_26  and  C_31
                            x       y       z     vdW  Elec       q    Type
                         _______ _______ _______ _____ _____    ______ ____

>  <TORSDO>
F 5

$$$$
=
 OpenBabel11042420283D

 31 35  0  0  1  0  0  0  0  0999 V2000
  161.2390  209.6700  151.4610 C   0  0  0  0  0  2  0  0  0  0  0  0
  161.1020  211.0220  155.0060 C   0  0  0  0  0  2  0  0  0  0  0  0
  155.8490  211.8520  154.9800 C   0  0  0  0  0  1  0  0  0  0  0  0
  159.0870  211.0660  153.2860 C   0  0  2  0  0  3  0  0  0  0  0  0
  161.1580  210.0690  153.8260 C   0  0  1  0  0  0  0  0  0  0  0  0
  161.3150  210.6930  152.4990 N   0  0  0  0  0  0  0  0  0  0  0  0
  158.0360  211.9800  153.7580 N   0  0  0  0  0  0  0  0  0  0  0  0
  159.0060  209.5830  155.3680 C   0  0  0  0  0  2  0  0  0  0  0  0
  161.6260  208.7710  154.0530 O   0  0  0  0  0  1  0  0  0  0  0  0
  157.1310  211.1400  154.5870 C   0  0  1  0  0  3  0  0  0  0  0  0
  157.8210  210.4640  155.8020 C   0  0  0  0  0  2  0  0  0  0  0  0
  159.8290  210.4110  154.4090 C   0  0  1  0  0  0  0  0  0  0  0  0
  160.1450  211.5730  152.3210 C   0  0  0  0  0  2  0  0  0  0  0  0
  158.9830  214.4530  153.3060 N   0  0  0  0  0  1  0  0  0  0  0  0
  158.7310  213.3690  154.7170 P   0  0  1  0  0  0  0  0  0  0  0  0
  157.2110  214.0910  155.1440 O   0  0  0  0  0  1  0  0  0  0  0  0
  162.0800  210.0800  150.2970 C   0  0  0  0  0  3  0  0  0  0  0  0
  162.3180  209.3130  149.2310 C   0  0  0  0  0  3  0  0  0  0  0  0
  161.8820  207.4020  147.8240 N   0  0  0  0  0  0  0  0  0  0  0  0
  159.9240  206.2350  146.9800 C   0  0  0  0  0  1  0  0  0  0  0  0
  162.0190  204.9740  147.3660 C   0  0  0  0  0  3  0  0  0  0  0  0
  160.6720  202.4490  149.4950 O   0  0  0  0  0  0  0  0  0  0  0  0
  161.1760  206.1310  147.8380 C   0  0  1  0  0  0  0  0  0  0  0  0
  161.8750  203.7660  147.9300 C   0  0  0  0  0  3  0  0  0  0  0  0
  160.7970  205.9970  149.2740 C   0  0  1  0  0  3  0  0  0  0  0  0
  160.6190  204.8170  149.8820 C   0  0  1  0  0  3  0  0  0  0  0  0
  161.0060  203.6030  149.1150 C   0  0  0  0  0  0  0  0  0  0  0  0
  161.0590  207.2080  149.9640 N   0  0  0  0  0  2  0  0  0  0  0  0
  161.7590  207.9750  148.9830 C   0  0  0  0  0  0  0  0  0  0  0  0
  161.1660  204.3230  152.3250 C   0  0  0  0  0  1  0  0  0  0  0  0
  160.2730  204.7780  151.2720 N   0  0  0  0  0  2  0  0  0  0  0  0
  1  6  1  0  0  0  0
  4 13  1  1  0  0  0
  4  7  1  0  0  0  0
  4 12  1  0  0  0  0
  5  9  1  1  0  0  0
  5 12  1  0  0  0  0
  5  2  1  0  0  0  0
  6  5  1  0  0  0  0
  7 10  1  0  0  0  0
  7 15  1  0  0  0  0
  8 11  1  0  0  0  0
 10  3  1  1  0  0  0
 10 11  1  0  0  0  0
 12  2  1  1  0  0  0
 12  8  1  0  0  0  0
 13  6  1  0  0  0  0
 15 14  1  6  0  0  0
 15 16  1  0  0  0  0
 17  1  1  0  0  0  0
 18 17  2  0  0  0  0
 19 23  1  0  0  0  0
 19 29  2  0  0  0  0
 21 23  1  0  0  0  0
 21 24  2  0  0  0  0
 23 20  1  6  0  0  0
 23 25  1  0  0  0  0
 24 27  1  0  0  0  0
 25 26  1  0  0  0  0
 25 28  1  1  0  0  0
 26 31  1  1  0  0  0
 27 22  2  0  0  0  0
 27 26  1  0  0  0  0
 29 18  1  0  0  0  0
 29 28  1  0  0  0  0
 31 30  1  0  0  0  0
M  END
>  <MODEL>
3

>  <REMARK>
 VINA RESULT:      -6.3      1.781      2.430
  Name = 
  5 active torsions:
  status: ('A' for Active; 'I' for Inactive)
    1  A    between atoms: N_7  and  C_30
    2  A    between atoms: N_8  and  P_12
    3  A    between atoms: C_16  and  C_30
    4  A    between atoms: C_22  and  N_24
    5  A    between atoms: C_26  and  C_31
                            x       y       z     vdW  Elec       q    Type
                         _______ _______ _______ _____ _____    ______ ____

>  <TORSDO>
F 5

$$$$
=
 OpenBabel11042420283D

 31 35  0  0  1  0  0  0  0  0999 V2000
  162.1190  205.7220  152.0760 C   0  0  0  0  0  2  0  0  0  0  0  0
  160.2610  209.0160  152.3980 C   0  0  0  0  0  2  0  0  0  0  0  0
  162.3280  210.2530  157.1390 C   0  0  0  0  0  1  0  0  0  0  0  0
  161.6750  207.8770  154.3270 C   0  0  2  0  0  3  0  0  0  0  0  0
  161.2860  207.9710  152.0000 C   0  0  1  0  0  0  0  0  0  0  0  0
  160.9990  206.5890  152.4280 N   0  0  0  0  0  0  0  0  0  0  0  0
  161.3640  208.5030  155.6220 N   0  0  0  0  0  0  0  0  0  0  0  0
  162.4520  210.0580  153.2380 C   0  0  0  0  0  2  0  0  0  0  0  0
  162.0540  208.2080  150.8560 O   0  0  0  0  0  1  0  0  0  0  0  0
  162.3340  209.6220  155.7580 C   0  0  1  0  0  3  0  0  0  0  0  0
  162.2470  210.6840  154.6290 C   0  0  0  0  0  2  0  0  0  0  0  0
  161.5650  208.8360  153.1830 C   0  0  1  0  0  0  0  0  0  0  0  0
  160.9300  206.6250  153.9010 C   0  0  0  0  0  2  0  0  0  0  0  0
  158.9450  207.5610  156.3120 N   0  0  0  0  0  1  0  0  0  0  0  0
  159.6390  209.0960  155.6870 P   0  0  1  0  0  0  0  0  0  0  0  0
  159.7420  209.8220  157.2610 O   0  0  0  0  0  1  0  0  0  0  0  0
  161.6950  204.2940  152.1870 C   0  0  0  0  0  3  0  0  0  0  0  0
  161.2760  203.5490  151.1610 C   0  0  0  0  0  3  0  0  0  0  0  0
  161.5120  205.1840  149.4020 N   0  0  0  0  0  0  0  0  0  0  0  0
  160.0700  206.2130  147.7380 C   0  0  0  0  0  1  0  0  0  0  0  0
  162.4780  205.9210  147.2460 C   0  0  0  0  0  3  0  0  0  0  0  0
  162.1280  204.1430  144.1750 O   0  0  0  0  0  0  0  0  0  0  0  0
  161.2930  205.3400  147.9730 C   0  0  1  0  0  0  0  0  0  0  0  0
  162.7730  205.5080  146.0060 C   0  0  0  0  0  3  0  0  0  0  0  0
  161.0060  203.9400  147.5440 C   0  0  1  0  0  3  0  0  0  0  0  0
  161.2600  203.4810  146.3120 C   0  0  1  0  0  3  0  0  0  0  0  0
  162.0330  204.3750  145.4090 C   0  0  0  0  0  0  0  0  0  0  0  0
  160.8400  203.1050  148.6780 N   0  0  0  0  0  2  0  0  0  0  0  0
  161.2150  203.9690  149.7530 C   0  0  0  0  0  0  0  0  0  0  0  0
  159.7900  201.6800  145.2580 C   0  0  0  0  0  1  0  0  0  0  0  0
  160.9700  202.1160  145.9870 N   0  0  0  0  0  2  0  0  0  0  0  0
  1 17  1  0  0  0  0
  1  6  1  0  0  0  0
  4 13  1  6  0  0  0
  4  7  1  0  0  0  0
  5  9  1  6  0  0  0
  5  2  1  0  0  0  0
  5  6  1  0  0  0  0
  5 12  1  0  0  0  0
  6 13  1  0  0  0  0
  7 15  1  0  0  0  0
  7 10  1  0  0  0  0
  8 11  1  0  0  0  0
 10  3  1  1  0  0  0
 11 10  1  0  0  0  0
 12  2  1  1  0  0  0
 12  8  1  0  0  0  0
 12  4  1  0  0  0  0
 15 14  1  1  0  0  0
 15 16  1  0  0  0  0
 18 17  2  0  0  0  0
 19 29  2  0  0  0  0
 21 23  1  0  0  0  0
 22 27  2  0  0  0  0
 23 20  1  6  0  0  0
 23 19  1  0  0  0  0
 24 21  2  0  0  0  0
 25 23  1  0  0  0  0
 25 28  1  1  0  0  0
 26 31  1  1  0  0  0
 26 25  1  0  0  0  0
 27 24  1  0  0  0  0
 27 26  1  0  0  0  0
 28 29  1  0  0  0  0
 29 18  1  0  0  0  0
 30 31  1  0  0  0  0
M  END
>  <MODEL>
4

>  <REMARK>
 VINA RESULT:      -6.1      2.864      3.595
  Name = 
  5 active torsions:
  status: ('A' for Active; 'I' for Inactive)
    1  A    between atoms: N_7  and  C_30
    2  A    between atoms: N_8  and  P_12
    3  A    between atoms: C_16  and  C_30
    4  A    between atoms: C_22  and  N_24
    5  A    between atoms: C_26  and  C_31
                            x       y       z     vdW  Elec       q    Type
                         _______ _______ _______ _____ _____    ______ ____

>  <TORSDO>
F 5

$$$$
=
 OpenBabel11042420283D

 31 35  0  0  1  0  0  0  0  0999 V2000
  161.7510  209.7330  154.4070 C   0  0  0  0  0  2  0  0  0  0  0  0
  160.1960  212.8520  155.9120 C   0  0  0  0  0  2  0  0  0  0  0  0
  155.1730  211.2950  155.1160 C   0  0  0  0  0  1  0  0  0  0  0  0
  158.8630  210.9700  154.6080 C   0  0  2  0  0  3  0  0  0  0  0  0
  160.8510  211.4910  155.7700 C   0  0  1  0  0  0  0  0  0  0  0  0
  161.2430  211.1010  154.4030 N   0  0  0  0  0  0  0  0  0  0  0  0
  157.5220  211.4540  154.2480 N   0  0  0  0  0  0  0  0  0  0  0  0
  158.5280  211.3190  157.1200 C   0  0  0  0  0  2  0  0  0  0  0  0
  161.5410  210.9770  156.8730 O   0  0  0  0  0  1  0  0  0  0  0  0
  156.6510  211.0850  155.3960 C   0  0  1  0  0  3  0  0  0  0  0  0
  157.0840  211.7030  156.7520 C   0  0  0  0  0  2  0  0  0  0  0  0
  159.3660  211.5640  155.8870 C   0  0  1  0  0  0  0  0  0  0  0  0
  160.0000  211.0960  153.6090 C   0  0  0  0  0  2  0  0  0  0  0  0
  158.0760  213.1580  152.2460 N   0  0  0  0  0  1  0  0  0  0  0  0
  157.5130  213.2550  153.9490 P   0  0  1  0  0  0  0  0  0  0  0  0
  155.8380  213.3720  153.5080 O   0  0  0  0  0  1  0  0  0  0  0  0
  160.7880  208.8480  155.1270 C   0  0  0  0  0  3  0  0  0  0  0  0
  160.3980  207.6470  154.6940 C   0  0  0  0  0  3  0  0  0  0  0  0
  161.2050  205.7050  153.5120 N   0  0  0  0  0  0  0  0  0  0  0  0
  163.2170  205.0810  152.3000 C   0  0  0  0  0  1  0  0  0  0  0  0
  161.0470  204.0820  151.6500 C   0  0  0  0  0  3  0  0  0  0  0  0
  161.1260  204.9730  148.1970 O   0  0  0  0  0  0  0  0  0  0  0  0
  161.7170  205.3120  152.2090 C   0  0  1  0  0  0  0  0  0  0  0  0
  160.8260  203.9800  150.3320 C   0  0  0  0  0  3  0  0  0  0  0  0
  161.4400  206.5230  151.3830 C   0  0  1  0  0  3  0  0  0  0  0  0
  161.2330  206.4810  150.0610 C   0  0  1  0  0  3  0  0  0  0  0  0
  161.0940  205.1340  149.4460 C   0  0  0  0  0  0  0  0  0  0  0  0
  161.0270  207.5960  152.2130 N   0  0  0  0  0  2  0  0  0  0  0  0
  160.8810  206.9620  153.4850 C   0  0  0  0  0  0  0  0  0  0  0  0
  161.9550  208.4710  148.6350 C   0  0  0  0  0  1  0  0  0  0  0  0
  160.9550  207.6910  149.3460 N   0  0  0  0  0  2  0  0  0  0  0  0
  1 17  1  0  0  0  0
  4 13  1  6  0  0  0
  4 12  1  0  0  0  0
  5 12  1  0  0  0  0
  5  2  1  0  0  0  0
  5  9  1  1  0  0  0
  6  1  1  0  0  0  0
  6  5  1  0  0  0  0
  7  4  1  0  0  0  0
  7 10  1  0  0  0  0
 10  3  1  6  0  0  0
 10 11  1  0  0  0  0
 11  8  1  0  0  0  0
 12  2  1  6  0  0  0
 12  8  1  0  0  0  0
 13  6  1  0  0  0  0
 15 14  1  6  0  0  0
 15  7  1  0  0  0  0
 16 15  1  0  0  0  0
 18 17  2  0  0  0  0
 21 23  1  0  0  0  0
 22 27  2  0  0  0  0
 23 20  1  1  0  0  0
 23 19  1  0  0  0  0
 24 21  2  0  0  0  0
 25 23  1  0  0  0  0
 25 28  1  1  0  0  0
 26 31  1  1  0  0  0
 26 25  1  0  0  0  0
 27 26  1  0  0  0  0
 27 24  1  0  0  0  0
 28 29  1  0  0  0  0
 29 19  2  0  0  0  0
 29 18  1  0  0  0  0
 30 31  1  0  0  0  0
M  END
>  <MODEL>
5

>  <REMARK>
 VINA RESULT:      -5.8      2.180      3.286
  Name = 
  5 active torsions:
  status: ('A' for Active; 'I' for Inactive)
    1  A    between atoms: N_7  and  C_30
    2  A    between atoms: N_8  and  P_12
    3  A    between atoms: C_16  and  C_30
    4  A    between atoms: C_22  and  N_24
    5  A    between atoms: C_26  and  C_31
                            x       y       z     vdW  Elec       q    Type
                         _______ _______ _______ _____ _____    ______ ____

>  <TORSDO>
F 5

$$$$
=
 OpenBabel11042420283D

 31 35  0  0  1  0  0  0  0  0999 V2000
  161.2100  210.8900  149.9320 C   0  0  0  0  0  2  0  0  0  0  0  0
  160.8810  214.4530  148.6660 C   0  0  0  0  0  2  0  0  0  0  0  0
  159.0020  213.0750  143.8850 C   0  0  0  0  0  1  0  0  0  0  0  0
  160.5850  212.2810  147.1780 C   0  0  2  0  0  3  0  0  0  0  0  0
  160.5990  213.1420  149.3760 C   0  0  1  0  0  0  0  0  0  0  0  0
  161.6660  212.1270  149.3070 N   0  0  0  0  0  0  0  0  0  0  0  0
  160.6220  212.6350  145.7500 N   0  0  0  0  0  0  0  0  0  0  0  0
  158.5930  213.7960  147.7040 C   0  0  0  0  0  2  0  0  0  0  0  0
  159.7140  213.1610  150.4600 O   0  0  0  0  0  1  0  0  0  0  0  0
  159.2080  212.9150  145.3810 C   0  0  1  0  0  3  0  0  0  0  0  0
  158.5520  214.0660  146.1890 C   0  0  0  0  0  2  0  0  0  0  0  0
  160.0060  213.3700  148.0270 C   0  0  1  0  0  0  0  0  0  0  0  0
  161.8610  211.8380  147.8730 C   0  0  0  0  0  2  0  0  0  0  0  0
  163.1430  213.1250  144.9620 N   0  0  0  0  0  1  0  0  0  0  0  0
  161.6960  214.0780  145.4410 P   0  0  1  0  0  0  0  0  0  0  0  0
  161.1920  214.3480  143.8010 O   0  0  0  0  0  1  0  0  0  0  0  0
  161.5880  210.8950  151.3760 C   0  0  0  0  0  3  0  0  0  0  0  0
  161.8770  209.8010  152.0850 C   0  0  0  0  0  3  0  0  0  0  0  0
  161.7420  207.4070  152.3520 N   0  0  0  0  0  0  0  0  0  0  0  0
  163.2230  205.5050  152.0420 C   0  0  0  0  0  1  0  0  0  0  0  0
  160.7840  205.2090  151.7370 C   0  0  0  0  0  3  0  0  0  0  0  0
  160.8760  203.8270  148.4500 O   0  0  0  0  0  0  0  0  0  0  0  0
  161.9320  206.1770  151.6000 C   0  0  1  0  0  0  0  0  0  0  0  0
  160.4150  204.4540  150.6930 C   0  0  0  0  0  3  0  0  0  0  0  0
  162.0740  206.6810  150.2040 C   0  0  1  0  0  3  0  0  0  0  0  0
  161.7430  205.9620  149.1240 C   0  0  1  0  0  3  0  0  0  0  0  0
  161.0290  204.6790  149.3660 C   0  0  0  0  0  0  0  0  0  0  0  0
  162.1960  208.0940  150.2040 N   0  0  0  0  0  2  0  0  0  0  0  0
  161.9350  208.4240  151.5700 C   0  0  0  0  0  0  0  0  0  0  0  0
  160.8390  206.5760  146.8170 C   0  0  0  0  0  1  0  0  0  0  0  0
  161.8940  206.5290  147.8170 N   0  0  0  0  0  2  0  0  0  0  0  0
  1 17  1  0  0  0  0
  2  5  1  0  0  0  0
  4 13  1  1  0  0  0
  4 12  1  0  0  0  0
  5  9  1  1  0  0  0
  6  5  1  0  0  0  0
  6  1  1  0  0  0  0
  7  4  1  0  0  0  0
 10  3  1  6  0  0  0
 10  7  1  0  0  0  0
 10 11  1  0  0  0  0
 11  8  1  0  0  0  0
 12  8  1  6  0  0  0
 12  2  1  0  0  0  0
 12  5  1  0  0  0  0
 13  6  1  0  0  0  0
 14 15  1  0  0  0  0
 15 16  1  6  0  0  0
 15  7  1  0  0  0  0
 17 18  2  0  0  0  0
 22 27  2  0  0  0  0
 23 21  1  0  0  0  0
 23 20  1  1  0  0  0
 23 19  1  0  0  0  0
 24 21  2  0  0  0  0
 25 28  1  1  0  0  0
 25 23  1  0  0  0  0
 26 31  1  6  0  0  0
 26 27  1  0  0  0  0
 26 25  1  0  0  0  0
 27 24  1  0  0  0  0
 28 29  1  0  0  0  0
 29 18  1  0  0  0  0
 29 19  2  0  0  0  0
 30 31  1  0  0  0  0
M  END
>  <MODEL>
6

>  <REMARK>
 VINA RESULT:      -5.6      4.633      6.145
  Name = 
  5 active torsions:
  status: ('A' for Active; 'I' for Inactive)
    1  A    between atoms: N_7  and  C_30
    2  A    between atoms: N_8  and  P_12
    3  A    between atoms: C_16  and  C_30
    4  A    between atoms: C_22  and  N_24
    5  A    between atoms: C_26  and  C_31
                            x       y       z     vdW  Elec       q    Type
                         _______ _______ _______ _____ _____    ______ ____

>  <TORSDO>
F 5

$$$$
=
 OpenBabel11042420283D

 31 35  0  0  1  0  0  0  0  0999 V2000
  159.1500  209.1330  155.0720 C   0  0  0  0  0  2  0  0  0  0  0  0
  159.7020  212.8580  155.5500 C   0  0  0  0  0  2  0  0  0  0  0  0
  155.4290  214.3240  152.7440 C   0  0  0  0  0  1  0  0  0  0  0  0
  157.9130  211.7870  153.9160 C   0  0  2  0  0  3  0  0  0  0  0  0
  159.2960  211.4170  155.7940 C   0  0  1  0  0  0  0  0  0  0  0  0
  159.7050  210.4470  154.7610 N   0  0  0  0  0  0  0  0  0  0  0  0
  157.4100  212.8020  152.9780 N   0  0  0  0  0  0  0  0  0  0  0  0
  157.1840  213.0740  156.0040 C   0  0  0  0  0  2  0  0  0  0  0  0
  159.1140  211.0020  157.1170 O   0  0  0  0  0  1  0  0  0  0  0  0
  156.2310  213.4080  153.6520 C   0  0  1  0  0  3  0  0  0  0  0  0
  156.5470  214.0700  155.0190 C   0  0  0  0  0  2  0  0  0  0  0  0
  158.2830  212.3650  155.2470 C   0  0  1  0  0  0  0  0  0  0  0  0
  159.0720  210.8950  153.5070 C   0  0  0  0  0  2  0  0  0  0  0  0
  159.9000  212.8870  151.9730 N   0  0  0  0  0  1  0  0  0  0  0  0
  158.6830  214.0540  152.5940 P   0  0  1  0  0  0  0  0  0  0  0  0
  158.0920  214.4520  151.0100 O   0  0  0  0  0  1  0  0  0  0  0  0
  160.1230  208.3680  155.9070 C   0  0  0  0  0  3  0  0  0  0  0  0
  161.0660  207.5590  155.4180 C   0  0  0  0  0  3  0  0  0  0  0  0
  161.3260  206.1280  153.4930 N   0  0  0  0  0  0  0  0  0  0  0  0
  163.1010  205.5640  151.9330 C   0  0  0  0  0  1  0  0  0  0  0  0
  160.7470  205.4940  151.1720 C   0  0  0  0  0  3  0  0  0  0  0  0
  161.0890  207.6540  148.3550 O   0  0  0  0  0  0  0  0  0  0  0  0
  161.7210  206.1810  152.0950 C   0  0  1  0  0  0  0  0  0  0  0  0
  160.5150  205.9930  149.9500 C   0  0  0  0  0  3  0  0  0  0  0  0
  161.7880  207.6490  151.8430 C   0  0  1  0  0  3  0  0  0  0  0  0
  161.5870  208.1990  150.6390 C   0  0  1  0  0  3  0  0  0  0  0  0
  161.0920  207.2980  149.5640 C   0  0  0  0  0  0  0  0  0  0  0  0
  161.6750  208.3610  153.0650 N   0  0  0  0  0  2  0  0  0  0  0  0
  161.3540  207.3250  153.9950 C   0  0  0  0  0  0  0  0  0  0  0  0
  162.2350  210.2980  149.3390 C   0  0  0  0  0  1  0  0  0  0  0  0
  161.6530  209.6230  150.4870 N   0  0  0  0  0  2  0  0  0  0  0  0
  1 17  1  0  0  0  0
  2  5  1  0  0  0  0
  4 13  1  6  0  0  0
  4 12  1  0  0  0  0
  5  9  1  1  0  0  0
  6  1  1  0  0  0  0
  6  5  1  0  0  0  0
  7 10  1  0  0  0  0
  7  4  1  0  0  0  0
 10  3  1  6  0  0  0
 10 11  1  0  0  0  0
 11  8  1  0  0  0  0
 12  2  1  6  0  0  0
 12  5  1  0  0  0  0
 12  8  1  0  0  0  0
 13  6  1  0  0  0  0
 14 15  1  0  0  0  0
 15 16  1  6  0  0  0
 15  7  1  0  0  0  0
 18 17  2  0  0  0  0
 19 29  2  0  0  0  0
 21 23  1  0  0  0  0
 22 27  2  0  0  0  0
 23 20  1  6  0  0  0
 23 19  1  0  0  0  0
 24 21  2  0  0  0  0
 25 23  1  0  0  0  0
 25 28  1  1  0  0  0
 26 31  1  1  0  0  0
 26 25  1  0  0  0  0
 27 24  1  0  0  0  0
 27 26  1  0  0  0  0
 28 29  1  0  0  0  0
 29 18  1  0  0  0  0
 30 31  1  0  0  0  0
M  END
>  <MODEL>
7

>  <REMARK>
 VINA RESULT:      -5.5      2.616      3.926
  Name = 
  5 active torsions:
  status: ('A' for Active; 'I' for Inactive)
    1  A    between atoms: N_7  and  C_30
    2  A    between atoms: N_8  and  P_12
    3  A    between atoms: C_16  and  C_30
    4  A    between atoms: C_22  and  N_24
    5  A    between atoms: C_26  and  C_31
                            x       y       z     vdW  Elec       q    Type
                         _______ _______ _______ _____ _____    ______ ____

>  <TORSDO>
F 5

$$$$
=
 OpenBabel11042420283D

 31 35  0  0  1  0  0  0  0  0999 V2000
  160.0260  203.8960  150.5670 C   0  0  0  0  0  2  0  0  0  0  0  0
  162.8850  205.8580  152.1110 C   0  0  0  0  0  2  0  0  0  0  0  0
  160.0810  210.3310  152.7580 C   0  0  0  0  0  1  0  0  0  0  0  0
  160.5610  206.8920  151.3710 C   0  0  2  0  0  3  0  0  0  0  0  0
  161.7130  204.9110  151.9390 C   0  0  1  0  0  0  0  0  0  0  0  0
  161.2170  204.7390  150.5610 N   0  0  0  0  0  0  0  0  0  0  0  0
  160.6530  208.3600  151.3150 N   0  0  0  0  0  0  0  0  0  0  0  0
  161.2100  206.7490  153.8410 C   0  0  0  0  0  2  0  0  0  0  0  0
  161.5560  203.8850  152.8770 O   0  0  0  0  0  1  0  0  0  0  0  0
  160.2730  208.8270  152.6750 C   0  0  1  0  0  3  0  0  0  0  0  0
  161.1800  208.2880  153.8130 C   0  0  0  0  0  2  0  0  0  0  0  0
  161.4500  206.2990  152.4190 C   0  0  1  0  0  0  0  0  0  0  0  0
  160.7940  206.0780  150.1100 C   0  0  0  0  0  2  0  0  0  0  0  0
  162.0740  208.8200  149.0820 N   0  0  0  0  0  1  0  0  0  0  0  0
  162.3310  208.9130  150.8580 P   0  0  1  0  0  0  0  0  0  0  0  0
  162.0000  210.6160  150.9300 O   0  0  0  0  0  1  0  0  0  0  0  0
  160.4280  202.4710  150.7600 C   0  0  0  0  0  3  0  0  0  0  0  0
  160.7840  201.6470  149.7720 C   0  0  0  0  0  3  0  0  0  0  0  0
  160.1390  201.4490  147.4550 N   0  0  0  0  0  0  0  0  0  0  0  0
  161.2060  200.7990  145.3700 C   0  0  0  0  0  1  0  0  0  0  0  0
  159.3630  202.4520  145.3300 C   0  0  0  0  0  3  0  0  0  0  0  0
  161.0840  205.0450  143.5870 O   0  0  0  0  0  0  0  0  0  0  0  0
  160.5230  201.9220  146.1350 C   0  0  1  0  0  0  0  0  0  0  0  0
  159.5380  203.4980  144.5110 C   0  0  0  0  0  3  0  0  0  0  0  0
  161.5120  202.9910  146.4590 C   0  0  1  0  0  3  0  0  0  0  0  0
  161.7420  204.0450  145.6670 C   0  0  1  0  0  3  0  0  0  0  0  0
  160.8230  204.2310  144.5120 C   0  0  0  0  0  0  0  0  0  0  0  0
  161.8360  202.9540  147.8390 N   0  0  0  0  0  2  0  0  0  0  0  0
  160.9030  202.0000  148.3490 C   0  0  0  0  0  0  0  0  0  0  0  0
  162.3600  206.2680  146.7580 C   0  0  0  0  0  1  0  0  0  0  0  0
  162.6980  205.0370  146.0630 N   0  0  0  0  0  2  0  0  0  0  0  0
  1 17  1  0  0  0  0
  4 13  1  6  0  0  0
  4 12  1  0  0  0  0
  5  2  1  0  0  0  0
  5 12  1  0  0  0  0
  5  9  1  1  0  0  0
  6  1  1  0  0  0  0
  6  5  1  0  0  0  0
  7  4  1  0  0  0  0
  7 10  1  0  0  0  0
 10  3  1  6  0  0  0
 10 11  1  0  0  0  0
 11  8  1  0  0  0  0
 12  2  1  6  0  0  0
 12  8  1  0  0  0  0
 13  6  1  0  0  0  0
 15 14  1  6  0  0  0
 15 16  1  0  0  0  0
 15  7  1  0  0  0  0
 18 17  2  0  0  0  0
 19 29  2  0  0  0  0
 21 23  1  0  0  0  0
 22 27  2  0  0  0  0
 23 20  1  6  0  0  0
 23 25  1  0  0  0  0
 23 19  1  0  0  0  0
 24 27  1  0  0  0  0
 24 21  2  0  0  0  0
 25 28  1  1  0  0  0
 26 31  1  1  0  0  0
 26 25  1  0  0  0  0
 27 26  1  0  0  0  0
 28 29  1  0  0  0  0
 29 18  1  0  0  0  0
 31 30  1  0  0  0  0
M  END
>  <MODEL>
8

>  <REMARK>
 VINA RESULT:      -5.4      2.709      4.700
  Name = 
  5 active torsions:
  status: ('A' for Active; 'I' for Inactive)
    1  A    between atoms: N_7  and  C_30
    2  A    between atoms: N_8  and  P_12
    3  A    between atoms: C_16  and  C_30
    4  A    between atoms: C_22  and  N_24
    5  A    between atoms: C_26  and  C_31
                            x       y       z     vdW  Elec       q    Type
                         _______ _______ _______ _____ _____    ______ ____

>  <TORSDO>
F 5

$$$$
=
 OpenBabel11042420283D

 31 35  0  0  1  0  0  0  0  0999 V2000
  161.1020  208.1500  152.5000 C   0  0  0  0  0  2  0  0  0  0  0  0
  161.3140  211.0660  154.9210 C   0  0  0  0  0  2  0  0  0  0  0  0
  156.1560  212.3220  154.5860 C   0  0  0  0  0  1  0  0  0  0  0  0
  159.1980  210.4750  153.4400 C   0  0  2  0  0  3  0  0  0  0  0  0
  161.2120  209.6590  154.3620 C   0  0  1  0  0  0  0  0  0  0  0  0
  161.3310  209.5360  152.8980 N   0  0  0  0  0  0  0  0  0  0  0  0
  158.2600  211.6080  153.4200 N   0  0  0  0  0  0  0  0  0  0  0  0
  159.1360  210.2150  155.9840 C   0  0  0  0  0  2  0  0  0  0  0  0
  161.5870  208.5960  155.1910 O   0  0  0  0  0  1  0  0  0  0  0  0
  157.3470  211.3790  154.5710 C   0  0  1  0  0  3  0  0  0  0  0  0
  158.0590  211.3140  155.9480 C   0  0  0  0  0  2  0  0  0  0  0  0
  159.9580  210.3790  154.7260 C   0  0  1  0  0  0  0  0  0  0  0  0
  160.2270  210.3330  152.3310 C   0  0  0  0  0  2  0  0  0  0  0  0
  159.6540  213.2750  151.8400 N   0  0  0  0  0  1  0  0  0  0  0  0
  159.1300  213.2060  153.5570 P   0  0  1  0  0  0  0  0  0  0  0  0
  157.7380  214.2090  153.2900 O   0  0  0  0  0  1  0  0  0  0  0  0
  160.8640  207.3180  153.7170 C   0  0  0  0  0  3  0  0  0  0  0  0
  160.8320  205.9830  153.7240 C   0  0  0  0  0  3  0  0  0  0  0  0
  160.8390  203.8300  152.6360 N   0  0  0  0  0  0  0  0  0  0  0  0
  162.4930  202.3610  151.6300 C   0  0  0  0  0  1  0  0  0  0  0  0
  160.1700  202.3410  150.7760 C   0  0  0  0  0  3  0  0  0  0  0  0
  160.9160  202.9570  147.3430 O   0  0  0  0  0  0  0  0  0  0  0  0
  161.2460  203.1980  151.3910 C   0  0  1  0  0  0  0  0  0  0  0  0
  160.0400  202.2820  149.4430 C   0  0  0  0  0  3  0  0  0  0  0  0
  161.5810  204.3740  150.5360 C   0  0  1  0  0  3  0  0  0  0  0  0
  161.4910  204.3620  149.2010 C   0  0  1  0  0  3  0  0  0  0  0  0
  160.8470  203.1730  148.5820 C   0  0  0  0  0  0  0  0  0  0  0  0
  161.5920  205.5580  151.3170 N   0  0  0  0  0  2  0  0  0  0  0  0
  161.0820  205.1040  152.5720 C   0  0  0  0  0  0  0  0  0  0  0  0
  160.8310  206.4770  147.9340 C   0  0  0  0  0  1  0  0  0  0  0  0
  161.8150  205.5430  148.4560 N   0  0  0  0  0  2  0  0  0  0  0  0
  1  6  1  0  0  0  0
  1 17  1  0  0  0  0
  4 13  1  6  0  0  0
  4 12  1  0  0  0  0
  5 12  1  0  0  0  0
  5  2  1  0  0  0  0
  5  9  1  1  0  0  0
  6  5  1  0  0  0  0
  7  4  1  0  0  0  0
  7 15  1  0  0  0  0
  7 10  1  0  0  0  0
 10  3  1  1  0  0  0
 10 11  1  0  0  0  0
 11  8  1  0  0  0  0
 12  2  1  1  0  0  0
 12  8  1  0  0  0  0
 13  6  1  0  0  0  0
 15 14  1  6  0  0  0
 16 15  1  0  0  0  0
 17 18  2  0  0  0  0
 21 23  1  0  0  0  0
 22 27  2  0  0  0  0
 23 20  1  1  0  0  0
 23 19  1  0  0  0  0
 24 21  2  0  0  0  0
 25 28  1  1  0  0  0
 25 23  1  0  0  0  0
 26 31  1  1  0  0  0
 26 25  1  0  0  0  0
 27 26  1  0  0  0  0
 27 24  1  0  0  0  0
 28 29  1  0  0  0  0
 29 19  2  0  0  0  0
 29 18  1  0  0  0  0
 30 31  1  0  0  0  0
M  END
>  <MODEL>
9

>  <REMARK>
 VINA RESULT:      -4.9      1.213      2.376
  Name = 
  5 active torsions:
  status: ('A' for Active; 'I' for Inactive)
    1  A    between atoms: N_7  and  C_30
    2  A    between atoms: N_8  and  P_12
    3  A    between atoms: C_16  and  C_30
    4  A    between atoms: C_22  and  N_24
    5  A    between atoms: C_26  and  C_31
                            x       y       z     vdW  Elec       q    Type
                         _______ _______ _______ _____ _____    ______ ____

>  <TORSDO>
F 5

$$$$
