=
 OpenBabel11042420143D

 25 28  0  0  1  0  0  0  0  0999 V2000
  160.2560  206.8840  149.7640 N   0  0  0  0  0  0  0  0  0  0  0  0
  160.5120  205.9340  148.6890 C   0  0  2  0  0  3  0  0  0  0  0  0
  161.0590  206.6440  150.7430 C   0  0  0  0  0  0  0  0  0  0  0  0
  161.9190  205.5910  150.5000 O   0  0  0  0  0  0  0  0  0  0  0  0
  161.6700  205.0730  149.2050 C   0  0  1  0  0  3  0  0  0  0  0  0
  161.0450  207.4310  151.9910 C   0  0  0  0  0  0  0  0  0  0  0  0
  160.9340  208.7880  151.9130 N   0  0  0  0  0  0  0  0  0  0  0  0
  161.2570  205.4230  153.4210 N   0  0  0  0  0  1  0  0  0  0  0  0
  161.0100  208.9730  154.2790 C   0  0  0  0  0  0  0  0  0  0  0  0
  161.1410  206.8340  153.2660 C   0  0  0  0  0  0  0  0  0  0  0  0
  161.1200  207.6230  154.3720 N   0  0  0  0  0  0  0  0  0  0  0  0
  160.9150  209.5690  153.0240 C   0  0  0  0  0  3  0  0  0  0  0  0
  160.9920  209.7720  155.4550 N   0  0  0  0  0  1  0  0  0  0  0  0
  160.9940  203.0630  150.5240 C   0  0  0  0  0  3  0  0  0  0  0  0
  161.1950  202.8400  148.1200 C   0  0  0  0  0  3  0  0  0  0  0  0
  161.2700  203.6320  149.2770 C   0  0  0  0  0  0  0  0  0  0  0  0
  160.5550  200.9310  149.4640 C   0  0  0  0  0  3  0  0  0  0  0  0
  160.8360  201.4940  148.2150 C   0  0  0  0  0  3  0  0  0  0  0  0
  160.6350  201.7150  150.6180 C   0  0  0  0  0  3  0  0  0  0  0  0
  160.9450  206.6730  147.4300 C   0  0  0  0  0  2  0  0  0  0  0  0
  162.2680  206.1340  146.9080 C   0  0  0  0  0  2  0  0  0  0  0  0
  162.1700  205.8060  145.4230 C   0  0  1  0  0  3  0  0  0  0  0  0
  162.3130  204.3270  145.2060 C   0  0  0  0  0  2  0  0  0  0  0  0
  160.8270  205.8070  145.0100 O   0  0  0  0  0  0  0  0  0  0  0  0
  160.8790  204.4250  144.7630 C   0  0  0  0  0  2  0  0  0  0  0  0
  1  3  2  0  0  0  0
  2 20  1  6  0  0  0
  2  5  1  0  0  0  0
  2  1  1  0  0  0  0
  3  6  1  0  0  0  0
  4  3  1  0  0  0  0
  5 16  1  1  0  0  0
  5  4  1  0  0  0  0
  6 10  1  0  0  0  0
  7  6  2  0  0  0  0
  7 12  1  0  0  0  0
  9 11  1  0  0  0  0
  9 13  1  0  0  0  0
 10  8  1  0  0  0  0
 10 11  2  0  0  0  0
 12  9  2  0  0  0  0
 14 19  1  0  0  0  0
 15 18  2  0  0  0  0
 15 16  1  0  0  0  0
 16 14  2  0  0  0  0
 17 19  2  0  0  0  0
 18 17  1  0  0  0  0
 21 20  1  0  0  0  0
 22 21  1  1  0  0  0
 23 22  1  0  0  0  0
 24 22  1  0  0  0  0
 25 24  1  0  0  0  0
 25 23  1  0  0  0  0
M  END
>  <MODEL>
1

>  <REMARK>
 VINA RESULT:      -8.5      0.000      0.000
  Name = 
  5 active torsions:
  status: ('A' for Active; 'I' for Inactive)
    1  A    between atoms: C_1  and  C_9
    2  A    between atoms: C_4  and  C_13
    3  A    between atoms: C_8  and  C_16
    4  A    between atoms: C_13  and  C_16
    5  A    between atoms: C_17  and  C_25
                            x       y       z     vdW  Elec       q    Type
                         _______ _______ _______ _____ _____    ______ ____

>  <TORSDO>
F 5

$$$$
=
 OpenBabel11042420143D

 25 28  0  0  1  0  0  0  0  0999 V2000
  162.2030  206.3740  151.5710 N   0  0  0  0  0  0  0  0  0  0  0  0
  161.7250  205.0310  151.8730 C   0  0  2  0  0  3  0  0  0  0  0  0
  161.4950  206.8720  150.6170 C   0  0  0  0  0  0  0  0  0  0  0  0
  160.5040  206.0210  150.1690 O   0  0  0  0  0  0  0  0  0  0  0  0
  160.5470  204.8180  150.9170 C   0  0  1  0  0  3  0  0  0  0  0  0
  161.7360  208.2230  150.0730 C   0  0  0  0  0  0  0  0  0  0  0  0
  161.7370  209.2860  150.9250 N   0  0  0  0  0  0  0  0  0  0  0  0
  161.9820  207.3930  147.7540 N   0  0  0  0  0  1  0  0  0  0  0  0
  162.1800  210.7790  149.1330 C   0  0  0  0  0  0  0  0  0  0  0  0
  161.9670  208.4580  148.7010 C   0  0  0  0  0  0  0  0  0  0  0  0
  162.1820  209.7300  148.2720 N   0  0  0  0  0  0  0  0  0  0  0  0
  161.9520  210.5540  150.4890 C   0  0  0  0  0  3  0  0  0  0  0  0
  162.4070  212.0980  148.6540 N   0  0  0  0  0  1  0  0  0  0  0  0
  161.0780  203.8660  148.6700 C   0  0  0  0  0  3  0  0  0  0  0  0
  160.7180  202.3300  150.5080 C   0  0  0  0  0  3  0  0  0  0  0  0
  160.7940  203.6440  150.0210 C   0  0  0  0  0  0  0  0  0  0  0  0
  161.2250  201.4770  148.3000 C   0  0  0  0  0  3  0  0  0  0  0  0
  160.9360  201.2500  149.6480 C   0  0  0  0  0  3  0  0  0  0  0  0
  161.2950  202.7850  147.8100 C   0  0  0  0  0  3  0  0  0  0  0  0
  161.2360  204.9610  153.3120 C   0  0  0  0  0  2  0  0  0  0  0  0
  161.6410  206.2040  154.0880 C   0  0  0  0  0  2  0  0  0  0  0  0
  160.4240  207.0690  154.3970 C   0  0  1  0  0  3  0  0  0  0  0  0
  160.2540  207.2150  155.8830 C   0  0  0  0  0  2  0  0  0  0  0  0
  160.7360  208.4290  154.2290 O   0  0  0  0  0  0  0  0  0  0  0  0
  160.5800  208.6580  155.6070 C   0  0  0  0  0  2  0  0  0  0  0  0
  1  2  1  0  0  0  0
  2 20  1  1  0  0  0
  3  1  2  0  0  0  0
  4  3  1  0  0  0  0
  4  5  1  0  0  0  0
  5 16  1  6  0  0  0
  5  2  1  0  0  0  0
  6  3  1  0  0  0  0
  6  7  1  0  0  0  0
  8 10  1  0  0  0  0
  9 12  1  0  0  0  0
 10  6  2  0  0  0  0
 11 10  1  0  0  0  0
 11  9  2  0  0  0  0
 12  7  2  0  0  0  0
 13  9  1  0  0  0  0
 14 16  1  0  0  0  0
 16 15  2  0  0  0  0
 17 18  2  0  0  0  0
 18 15  1  0  0  0  0
 19 17  1  0  0  0  0
 19 14  2  0  0  0  0
 20 21  1  0  0  0  0
 22 21  1  1  0  0  0
 22 23  1  0  0  0  0
 24 22  1  0  0  0  0
 24 25  1  0  0  0  0
 25 23  1  0  0  0  0
M  END
>  <MODEL>
2

>  <REMARK>
 VINA RESULT:      -8.5      2.450      5.598
  Name = 
  5 active torsions:
  status: ('A' for Active; 'I' for Inactive)
    1  A    between atoms: C_1  and  C_9
    2  A    between atoms: C_4  and  C_13
    3  A    between atoms: C_8  and  C_16
    4  A    between atoms: C_13  and  C_16
    5  A    between atoms: C_17  and  C_25
                            x       y       z     vdW  Elec       q    Type
                         _______ _______ _______ _____ _____    ______ ____

>  <TORSDO>
F 5

$$$$
=
 OpenBabel11042420143D

 25 28  0  0  1  0  0  0  0  0999 V2000
  161.7380  205.4460  151.4710 N   0  0  0  0  0  0  0  0  0  0  0  0
  161.4310  204.4970  150.4090 C   0  0  2  0  0  3  0  0  0  0  0  0
  161.1460  206.5640  151.2260 C   0  0  0  0  0  0  0  0  0  0  0  0
  160.4000  206.5450  150.0640 O   0  0  0  0  0  0  0  0  0  0  0  0
  160.4940  205.2620  149.4690 C   0  0  1  0  0  3  0  0  0  0  0  0
  161.2660  207.7360  152.1140 C   0  0  0  0  0  0  0  0  0  0  0  0
  160.8960  207.6140  153.4200 N   0  0  0  0  0  0  0  0  0  0  0  0
  162.1590  209.1800  150.3140 N   0  0  0  0  0  1  0  0  0  0  0  0
  161.4630  209.8810  153.8390 C   0  0  0  0  0  0  0  0  0  0  0  0
  161.7520  208.9820  151.6650 C   0  0  0  0  0  0  0  0  0  0  0  0
  161.8360  210.0180  152.5410 N   0  0  0  0  0  0  0  0  0  0  0  0
  160.9830  208.6540  154.2890 C   0  0  0  0  0  3  0  0  0  0  0  0
  161.5620  210.9840  154.7320 N   0  0  0  0  0  1  0  0  0  0  0  0
  160.5030  206.2270  147.1650 C   0  0  0  0  0  3  0  0  0  0  0  0
  162.1810  204.5700  147.7180 C   0  0  0  0  0  3  0  0  0  0  0  0
  161.0810  205.3570  148.0950 C   0  0  0  0  0  0  0  0  0  0  0  0
  162.1220  205.5400  145.5010 C   0  0  0  0  0  3  0  0  0  0  0  0
  162.6990  204.6640  146.4240 C   0  0  0  0  0  3  0  0  0  0  0  0
  161.0230  206.3210  145.8710 C   0  0  0  0  0  3  0  0  0  0  0  0
  160.7040  203.2880  150.9810 C   0  0  0  0  0  2  0  0  0  0  0  0
  161.5400  202.0260  150.8300 C   0  0  0  0  0  2  0  0  0  0  0  0
  160.8450  201.0230  149.9170 C   0  0  1  0  0  3  0  0  0  0  0  0
  159.8500  201.7240  149.0370 C   0  0  0  0  0  2  0  0  0  0  0  0
  161.6750  200.6920  148.8330 O   0  0  0  0  0  0  0  0  0  0  0  0
  160.7880  201.3110  147.9360 C   0  0  0  0  0  2  0  0  0  0  0  0
  2 20  1  1  0  0  0
  2  1  1  0  0  0  0
  3  1  2  0  0  0  0
  3  6  1  0  0  0  0
  4  3  1  0  0  0  0
  5 16  1  6  0  0  0
  5  4  1  0  0  0  0
  5  2  1  0  0  0  0
  6  7  1  0  0  0  0
  7 12  2  0  0  0  0
  8 10  1  0  0  0  0
  9 12  1  0  0  0  0
  9 13  1  0  0  0  0
 10  6  2  0  0  0  0
 10 11  1  0  0  0  0
 11  9  2  0  0  0  0
 14 16  1  0  0  0  0
 15 16  2  0  0  0  0
 17 19  1  0  0  0  0
 17 18  2  0  0  0  0
 18 15  1  0  0  0  0
 19 14  2  0  0  0  0
 21 20  1  0  0  0  0
 22 21  1  1  0  0  0
 23 22  1  0  0  0  0
 24 22  1  0  0  0  0
 25 24  1  0  0  0  0
 25 23  1  0  0  0  0
M  END
>  <MODEL>
3

>  <REMARK>
 VINA RESULT:      -8.5      1.640      3.952
  Name = 
  5 active torsions:
  status: ('A' for Active; 'I' for Inactive)
    1  A    between atoms: C_1  and  C_9
    2  A    between atoms: C_4  and  C_13
    3  A    between atoms: C_8  and  C_16
    4  A    between atoms: C_13  and  C_16
    5  A    between atoms: C_17  and  C_25
                            x       y       z     vdW  Elec       q    Type
                         _______ _______ _______ _____ _____    ______ ____

>  <TORSDO>
F 5

$$$$
=
 OpenBabel11042420143D

 25 28  0  0  1  0  0  0  0  0999 V2000
  160.3460  206.9880  149.8770 N   0  0  0  0  0  0  0  0  0  0  0  0
  160.5660  206.0350  148.7980 C   0  0  2  0  0  3  0  0  0  0  0  0
  161.1420  206.7160  150.8530 C   0  0  0  0  0  0  0  0  0  0  0  0
  161.9640  205.6350  150.6040 O   0  0  0  0  0  0  0  0  0  0  0  0
  161.6940  205.1320  149.3070 C   0  0  1  0  0  3  0  0  0  0  0  0
  161.1580  207.4980  152.1050 C   0  0  0  0  0  0  0  0  0  0  0  0
  160.8230  206.8790  153.2720 N   0  0  0  0  0  0  0  0  0  0  0  0
  161.8710  209.5730  150.9600 N   0  0  0  0  0  1  0  0  0  0  0  0
  161.1650  208.8910  154.4870 C   0  0  0  0  0  0  0  0  0  0  0  0
  161.5080  208.8640  152.1420 C   0  0  0  0  0  0  0  0  0  0  0  0
  161.5020  209.5200  153.3320 N   0  0  0  0  0  0  0  0  0  0  0  0
  160.8180  207.5410  154.4580 C   0  0  0  0  0  3  0  0  0  0  0  0
  161.1670  209.6040  155.7170 N   0  0  0  0  0  1  0  0  0  0  0  0
  160.9380  203.1450  150.6170 C   0  0  0  0  0  3  0  0  0  0  0  0
  161.1510  202.9180  148.2150 C   0  0  0  0  0  3  0  0  0  0  0  0
  161.2440  203.7050  149.3730 C   0  0  0  0  0  0  0  0  0  0  0  0
  160.4350  201.0300  149.5510 C   0  0  0  0  0  3  0  0  0  0  0  0
  160.7450  201.5840  148.3060 C   0  0  0  0  0  3  0  0  0  0  0  0
  160.5320  201.8100  150.7070 C   0  0  0  0  0  3  0  0  0  0  0  0
  161.0220  206.7630  147.5410 C   0  0  0  0  0  2  0  0  0  0  0  0
  162.2800  206.1290  146.9680 C   0  0  0  0  0  2  0  0  0  0  0  0
  162.1130  205.8480  145.4790 C   0  0  1  0  0  3  0  0  0  0  0  0
  162.3550  204.3920  145.1950 C   0  0  0  0  0  2  0  0  0  0  0  0
  160.7510  205.7570  145.1480 O   0  0  0  0  0  0  0  0  0  0  0  0
  160.8930  204.3930  144.8440 C   0  0  0  0  0  2  0  0  0  0  0  0
  1  3  2  0  0  0  0
  2 20  1  6  0  0  0
  2  5  1  0  0  0  0
  2  1  1  0  0  0  0
  3  6  1  0  0  0  0
  4  3  1  0  0  0  0
  5 16  1  1  0  0  0
  5  4  1  0  0  0  0
  6 10  2  0  0  0  0
  6  7  1  0  0  0  0
  7 12  2  0  0  0  0
  8 10  1  0  0  0  0
  9 13  1  0  0  0  0
 10 11  1  0  0  0  0
 11  9  2  0  0  0  0
 12  9  1  0  0  0  0
 14 19  1  0  0  0  0
 15 18  2  0  0  0  0
 15 16  1  0  0  0  0
 16 14  2  0  0  0  0
 17 19  2  0  0  0  0
 18 17  1  0  0  0  0
 21 20  1  0  0  0  0
 22 21  1  1  0  0  0
 23 22  1  0  0  0  0
 24 22  1  0  0  0  0
 25 24  1  0  0  0  0
 25 23  1  0  0  0  0
M  END
>  <MODEL>
4

>  <REMARK>
 VINA RESULT:      -8.4      0.673      1.360
  Name = 
  5 active torsions:
  status: ('A' for Active; 'I' for Inactive)
    1  A    between atoms: C_1  and  C_9
    2  A    between atoms: C_4  and  C_13
    3  A    between atoms: C_8  and  C_16
    4  A    between atoms: C_13  and  C_16
    5  A    between atoms: C_17  and  C_25
                            x       y       z     vdW  Elec       q    Type
                         _______ _______ _______ _____ _____    ______ ____

>  <TORSDO>
F 5

$$$$
=
 OpenBabel11042420143D

 25 28  0  0  1  0  0  0  0  0999 V2000
  161.7710  205.3680  151.4470 N   0  0  0  0  0  0  0  0  0  0  0  0
  161.4620  204.4120  150.3930 C   0  0  2  0  0  3  0  0  0  0  0  0
  161.1370  206.4670  151.2240 C   0  0  0  0  0  0  0  0  0  0  0  0
  160.3570  206.4270  150.0840 O   0  0  0  0  0  0  0  0  0  0  0  0
  160.4740  205.1490  149.4830 C   0  0  1  0  0  3  0  0  0  0  0  0
  161.2470  207.6410  152.1110 C   0  0  0  0  0  0  0  0  0  0  0  0
  161.4990  208.8620  151.5600 N   0  0  0  0  0  0  0  0  0  0  0  0
  160.8310  206.3070  154.1540 N   0  0  0  0  0  1  0  0  0  0  0  0
  161.4650  209.8840  153.7030 C   0  0  0  0  0  0  0  0  0  0  0  0
  161.0990  207.5500  153.5110 C   0  0  0  0  0  0  0  0  0  0  0  0
  161.2130  208.6750  154.2660 N   0  0  0  0  0  0  0  0  0  0  0  0
  161.6120  209.9810  152.3210 C   0  0  0  0  0  3  0  0  0  0  0  0
  161.5800  211.0430  154.5190 N   0  0  0  0  0  1  0  0  0  0  0  0
  162.0900  204.4540  147.7090 C   0  0  0  0  0  3  0  0  0  0  0  0
  160.4860  206.1900  147.1790 C   0  0  0  0  0  3  0  0  0  0  0  0
  161.0170  205.2650  148.0920 C   0  0  0  0  0  0  0  0  0  0  0  0
  162.0890  205.4730  145.5130 C   0  0  0  0  0  3  0  0  0  0  0  0
  161.0210  206.2910  145.8930 C   0  0  0  0  0  3  0  0  0  0  0  0
  162.6240  204.5550  146.4210 C   0  0  0  0  0  3  0  0  0  0  0  0
  160.7910  203.1800  150.9830 C   0  0  0  0  0  2  0  0  0  0  0  0
  161.6070  201.9270  150.7040 C   0  0  0  0  0  2  0  0  0  0  0  0
  160.8270  200.9590  149.8210 C   0  0  1  0  0  3  0  0  0  0  0  0
  159.8050  201.7040  149.0110 C   0  0  0  0  0  2  0  0  0  0  0  0
  161.5810  200.6190  148.6850 O   0  0  0  0  0  0  0  0  0  0  0  0
  160.6620  201.2780  147.8510 C   0  0  0  0  0  2  0  0  0  0  0  0
  2 20  1  1  0  0  0
  2  1  1  0  0  0  0
  3  1  2  0  0  0  0
  3  6  1  0  0  0  0
  4  3  1  0  0  0  0
  5 16  1  6  0  0  0
  5  4  1  0  0  0  0
  5  2  1  0  0  0  0
  6 10  1  0  0  0  0
  7  6  2  0  0  0  0
  7 12  1  0  0  0  0
  9 11  1  0  0  0  0
  9 13  1  0  0  0  0
 10  8  1  0  0  0  0
 10 11  2  0  0  0  0
 12  9  2  0  0  0  0
 14 16  1  0  0  0  0
 15 16  2  0  0  0  0
 17 18  2  0  0  0  0
 17 19  1  0  0  0  0
 18 15  1  0  0  0  0
 19 14  2  0  0  0  0
 21 20  1  0  0  0  0
 22 21  1  1  0  0  0
 23 22  1  0  0  0  0
 24 22  1  0  0  0  0
 25 24  1  0  0  0  0
 25 23  1  0  0  0  0
M  END
>  <MODEL>
5

>  <REMARK>
 VINA RESULT:      -8.0      1.582      3.701
  Name = 
  5 active torsions:
  status: ('A' for Active; 'I' for Inactive)
    1  A    between atoms: C_1  and  C_9
    2  A    between atoms: C_4  and  C_13
    3  A    between atoms: C_8  and  C_16
    4  A    between atoms: C_13  and  C_16
    5  A    between atoms: C_17  and  C_25
                            x       y       z     vdW  Elec       q    Type
                         _______ _______ _______ _____ _____    ______ ____

>  <TORSDO>
F 5

$$$$
=
 OpenBabel11042420143D

 25 28  0  0  1  0  0  0  0  0999 V2000
  162.3550  206.9070  151.5750 N   0  0  0  0  0  0  0  0  0  0  0  0
  161.8900  205.5660  151.9030 C   0  0  2  0  0  3  0  0  0  0  0  0
  161.5980  207.4080  150.6600 C   0  0  0  0  0  0  0  0  0  0  0  0
  160.5820  206.5600  150.2660 O   0  0  0  0  0  0  0  0  0  0  0  0
  160.6610  205.3570  151.0120 C   0  0  1  0  0  3  0  0  0  0  0  0
  161.8130  208.7580  150.1040 C   0  0  0  0  0  0  0  0  0  0  0  0
  161.9250  208.9030  148.7530 N   0  0  0  0  0  0  0  0  0  0  0  0
  161.7950  209.8290  152.3340 N   0  0  0  0  0  1  0  0  0  0  0  0
  162.2150  211.2480  148.9860 C   0  0  0  0  0  0  0  0  0  0  0  0
  161.9060  209.9070  150.9160 C   0  0  0  0  0  0  0  0  0  0  0  0
  162.1040  211.1190  150.3320 N   0  0  0  0  0  0  0  0  0  0  0  0
  162.1240  210.1170  148.1780 C   0  0  0  0  0  3  0  0  0  0  0  0
  162.4230  212.5290  148.4040 N   0  0  0  0  0  1  0  0  0  0  0  0
  161.1860  204.4040  148.7640 C   0  0  0  0  0  3  0  0  0  0  0  0
  160.6850  202.8690  150.5690 C   0  0  0  0  0  3  0  0  0  0  0  0
  160.8560  204.1820  150.1040 C   0  0  0  0  0  0  0  0  0  0  0  0
  161.1920  202.0160  148.3610 C   0  0  0  0  0  3  0  0  0  0  0  0
  160.8560  201.7890  149.6990 C   0  0  0  0  0  3  0  0  0  0  0  0
  161.3570  203.3230  147.8930 C   0  0  0  0  0  3  0  0  0  0  0  0
  161.4780  205.4980  153.3660 C   0  0  0  0  0  2  0  0  0  0  0  0
  160.7790  206.7780  153.7970 C   0  0  0  0  0  2  0  0  0  0  0  0
  160.8650  206.9580  155.3090 C   0  0  1  0  0  3  0  0  0  0  0  0
  161.3640  208.3360  155.6410 C   0  0  0  0  0  2  0  0  0  0  0  0
  159.5910  207.2170  155.8430 O   0  0  0  0  0  0  0  0  0  0  0  0
  159.9820  208.5170  156.2040 C   0  0  0  0  0  2  0  0  0  0  0  0
  1  2  1  0  0  0  0
  2 20  1  1  0  0  0
  3  1  2  0  0  0  0
  4  3  1  0  0  0  0
  4  5  1  0  0  0  0
  5 16  1  6  0  0  0
  5  2  1  0  0  0  0
  6  3  1  0  0  0  0
  6 10  1  0  0  0  0
  7  6  2  0  0  0  0
  9 11  1  0  0  0  0
 10  8  1  0  0  0  0
 11 10  2  0  0  0  0
 12  7  1  0  0  0  0
 12  9  2  0  0  0  0
 13  9  1  0  0  0  0
 14 16  1  0  0  0  0
 16 15  2  0  0  0  0
 17 18  2  0  0  0  0
 18 15  1  0  0  0  0
 19 17  1  0  0  0  0
 19 14  2  0  0  0  0
 20 21  1  0  0  0  0
 22 21  1  6  0  0  0
 22 23  1  0  0  0  0
 22 24  1  0  0  0  0
 23 25  1  0  0  0  0
 24 25  1  0  0  0  0
M  END
>  <MODEL>
6

>  <REMARK>
 VINA RESULT:      -7.9      2.546      5.800
  Name = 
  5 active torsions:
  status: ('A' for Active; 'I' for Inactive)
    1  A    between atoms: C_1  and  C_9
    2  A    between atoms: C_4  and  C_13
    3  A    between atoms: C_8  and  C_16
    4  A    between atoms: C_13  and  C_16
    5  A    between atoms: C_17  and  C_25
                            x       y       z     vdW  Elec       q    Type
                         _______ _______ _______ _____ _____    ______ ____

>  <TORSDO>
F 5

$$$$
=
 OpenBabel11042420143D

 25 28  0  0  1  0  0  0  0  0999 V2000
  161.9660  206.2630  153.0790 N   0  0  0  0  0  0  0  0  0  0  0  0
  161.6770  205.4240  151.9240 C   0  0  2  0  0  3  0  0  0  0  0  0
  161.2670  207.3420  153.0060 C   0  0  0  0  0  0  0  0  0  0  0  0
  160.4550  207.3940  151.8900 O   0  0  0  0  0  0  0  0  0  0  0  0
  160.6230  206.2070  151.1340 C   0  0  1  0  0  3  0  0  0  0  0  0
  161.3410  208.4060  154.0270 C   0  0  0  0  0  0  0  0  0  0  0  0
  161.1780  208.0720  155.3380 N   0  0  0  0  0  0  0  0  0  0  0  0
  161.7560  210.1770  152.3490 N   0  0  0  0  0  1  0  0  0  0  0  0
  161.4660  210.3360  155.9940 C   0  0  0  0  0  0  0  0  0  0  0  0
  161.5750  209.7580  153.6980 C   0  0  0  0  0  0  0  0  0  0  0  0
  161.6310  210.6830  154.6930 N   0  0  0  0  0  0  0  0  0  0  0  0
  161.2350  209.0020  156.3260 C   0  0  0  0  0  3  0  0  0  0  0  0
  161.5290  211.3270  157.0130 N   0  0  0  0  0  1  0  0  0  0  0  0
  160.4530  205.9660  148.6540 C   0  0  0  0  0  3  0  0  0  0  0  0
  162.2400  207.3330  149.5520 C   0  0  0  0  0  3  0  0  0  0  0  0
  161.1140  206.5200  149.7550 C   0  0  0  0  0  0  0  0  0  0  0  0
  162.0210  207.0460  147.1580 C   0  0  0  0  0  3  0  0  0  0  0  0
  162.6890  207.5960  148.2560 C   0  0  0  0  0  3  0  0  0  0  0  0
  160.9030  206.2310  147.3570 C   0  0  0  0  0  3  0  0  0  0  0  0
  161.0930  204.0930  152.3760 C   0  0  0  0  0  2  0  0  0  0  0  0
  161.5730  202.9560  151.4880 C   0  0  0  0  0  2  0  0  0  0  0  0
  160.5350  202.6300  150.4190 C   0  0  1  0  0  3  0  0  0  0  0  0
  161.1290  202.7990  149.0490 C   0  0  0  0  0  2  0  0  0  0  0  0
  160.4100  201.2380  150.2680 O   0  0  0  0  0  0  0  0  0  0  0  0
  160.9410  201.3090  148.9690 C   0  0  0  0  0  2  0  0  0  0  0  0
  2 20  1  1  0  0  0
  2  1  1  0  0  0  0
  3  1  2  0  0  0  0
  3  6  1  0  0  0  0
  4  3  1  0  0  0  0
  5 16  1  6  0  0  0
  5  4  1  0  0  0  0
  5  2  1  0  0  0  0
  6  7  1  0  0  0  0
  7 12  2  0  0  0  0
  8 10  1  0  0  0  0
  9 12  1  0  0  0  0
  9 13  1  0  0  0  0
 10  6  2  0  0  0  0
 10 11  1  0  0  0  0
 11  9  2  0  0  0  0
 14 16  1  0  0  0  0
 15 16  2  0  0  0  0
 17 19  1  0  0  0  0
 17 18  2  0  0  0  0
 18 15  1  0  0  0  0
 19 14  2  0  0  0  0
 21 20  1  0  0  0  0
 22 21  1  1  0  0  0
 23 22  1  0  0  0  0
 24 22  1  0  0  0  0
 25 23  1  0  0  0  0
 25 24  1  0  0  0  0
M  END
>  <MODEL>
7

>  <REMARK>
 VINA RESULT:      -7.6      2.130      4.395
  Name = 
  5 active torsions:
  status: ('A' for Active; 'I' for Inactive)
    1  A    between atoms: C_1  and  C_9
    2  A    between atoms: C_4  and  C_13
    3  A    between atoms: C_8  and  C_16
    4  A    between atoms: C_13  and  C_16
    5  A    between atoms: C_17  and  C_25
                            x       y       z     vdW  Elec       q    Type
                         _______ _______ _______ _____ _____    ______ ____

>  <TORSDO>
F 5

$$$$
=
 OpenBabel11042420143D

 25 28  0  0  1  0  0  0  0  0999 V2000
  160.8250  208.3550  151.3200 N   0  0  0  0  0  0  0  0  0  0  0  0
  161.1980  207.3630  150.3210 C   0  0  2  0  0  3  0  0  0  0  0  0
  161.3930  208.0640  152.4400 C   0  0  0  0  0  0  0  0  0  0  0  0
  162.1800  206.9310  152.3760 O   0  0  0  0  0  0  0  0  0  0  0  0
  162.1440  206.4100  151.0590 C   0  0  1  0  0  3  0  0  0  0  0  0
  161.2060  208.8760  153.6580 C   0  0  0  0  0  0  0  0  0  0  0  0
  161.4840  210.2100  153.6090 N   0  0  0  0  0  0  0  0  0  0  0  0
  160.4380  206.9410  154.9950 N   0  0  0  0  0  1  0  0  0  0  0  0
  160.8820  210.4620  155.8920 C   0  0  0  0  0  0  0  0  0  0  0  0
  160.7500  208.3260  154.8740 C   0  0  0  0  0  0  0  0  0  0  0  0
  160.6010  209.1360  155.9550 N   0  0  0  0  0  0  0  0  0  0  0  0
  161.3340  211.0120  154.6940 C   0  0  0  0  0  3  0  0  0  0  0  0
  160.7180  211.2850  157.0410 N   0  0  0  0  0  1  0  0  0  0  0  0
  161.3320  204.3930  149.8310 C   0  0  0  0  0  3  0  0  0  0  0  0
  161.3400  204.3330  152.2530 C   0  0  0  0  0  3  0  0  0  0  0  0
  161.6030  205.0140  151.0540 C   0  0  0  0  0  0  0  0  0  0  0  0
  160.5550  202.4170  150.9970 C   0  0  0  0  0  3  0  0  0  0  0  0
  160.8190  203.0370  152.2220 C   0  0  0  0  0  3  0  0  0  0  0  0
  160.8110  203.0950  149.8020 C   0  0  0  0  0  3  0  0  0  0  0  0
  161.9390  208.0300  149.1710 C   0  0  0  0  0  2  0  0  0  0  0  0
  162.5320  206.9950  148.2280 C   0  0  0  0  0  2  0  0  0  0  0  0
  161.7280  206.9170  146.9350 C   0  0  1  0  0  3  0  0  0  0  0  0
  162.3080  205.8730  146.0240 C   0  0  0  0  0  2  0  0  0  0  0  0
  160.5470  206.1830  147.1380 O   0  0  0  0  0  0  0  0  0  0  0  0
  161.0060  205.1670  146.2830 C   0  0  0  0  0  2  0  0  0  0  0  0
  1  3  2  0  0  0  0
  2 20  1  6  0  0  0
  2  5  1  0  0  0  0
  2  1  1  0  0  0  0
  3  6  1  0  0  0  0
  4  3  1  0  0  0  0
  5 16  1  1  0  0  0
  5  4  1  0  0  0  0
  6 10  1  0  0  0  0
  7  6  2  0  0  0  0
  7 12  1  0  0  0  0
  9 11  1  0  0  0  0
  9 13  1  0  0  0  0
 10  8  1  0  0  0  0
 10 11  2  0  0  0  0
 12  9  2  0  0  0  0
 14 16  1  0  0  0  0
 16 15  2  0  0  0  0
 17 18  2  0  0  0  0
 18 15  1  0  0  0  0
 19 14  2  0  0  0  0
 19 17  1  0  0  0  0
 21 20  1  0  0  0  0
 22 24  1  0  0  0  0
 22 21  1  1  0  0  0
 23 25  1  0  0  0  0
 23 22  1  0  0  0  0
 25 24  1  0  0  0  0
M  END
>  <MODEL>
8

>  <REMARK>
 VINA RESULT:      -7.5      1.538      2.380
  Name = 
  5 active torsions:
  status: ('A' for Active; 'I' for Inactive)
    1  A    between atoms: C_1  and  C_9
    2  A    between atoms: C_4  and  C_13
    3  A    between atoms: C_8  and  C_16
    4  A    between atoms: C_13  and  C_16
    5  A    between atoms: C_17  and  C_25
                            x       y       z     vdW  Elec       q    Type
                         _______ _______ _______ _____ _____    ______ ____

>  <TORSDO>
F 5

$$$$
=
 OpenBabel11042420143D

 25 28  0  0  1  0  0  0  0  0999 V2000
  162.4180  206.4310  148.3000 N   0  0  0  0  0  0  0  0  0  0  0  0
  162.2550  207.5920  149.1660 C   0  0  2  0  0  3  0  0  0  0  0  0
  161.3920  205.6620  148.4230 C   0  0  0  0  0  0  0  0  0  0  0  0
  160.4490  206.1450  149.3090 O   0  0  0  0  0  0  0  0  0  0  0  0
  160.8890  207.3870  149.8300 C   0  0  1  0  0  3  0  0  0  0  0  0
  161.2580  204.3940  147.6810 C   0  0  0  0  0  0  0  0  0  0  0  0
  161.0760  203.2370  148.3790 N   0  0  0  0  0  0  0  0  0  0  0  0
  161.4970  205.4990  145.4790 N   0  0  0  0  0  1  0  0  0  0  0  0
  160.9990  201.9820  146.3650 C   0  0  0  0  0  0  0  0  0  0  0  0
  161.3110  204.3300  146.2720 C   0  0  0  0  0  0  0  0  0  0  0  0
  161.1790  203.1250  145.6560 N   0  0  0  0  0  0  0  0  0  0  0  0
  160.9460  202.0380  147.7560 C   0  0  0  0  0  3  0  0  0  0  0  0
  160.8650  200.7370  145.6920 N   0  0  0  0  0  1  0  0  0  0  0  0
  161.3040  206.0890  151.9230 C   0  0  0  0  0  3  0  0  0  0  0  0
  160.8550  208.4610  152.1170 C   0  0  0  0  0  3  0  0  0  0  0  0
  161.0270  207.3190  151.3190 C   0  0  0  0  0  0  0  0  0  0  0  0
  161.2550  207.1380  154.1050 C   0  0  0  0  0  3  0  0  0  0  0  0
  160.9710  208.3690  153.5060 C   0  0  0  0  0  3  0  0  0  0  0  0
  161.4200  205.9980  153.3130 C   0  0  0  0  0  3  0  0  0  0  0  0
  162.2330  208.8660  148.3340 C   0  0  0  0  0  2  0  0  0  0  0  0
  161.9810  210.0850  149.2090 C   0  0  0  0  0  2  0  0  0  0  0  0
  162.2280  211.3710  148.4290 C   0  0  1  0  0  3  0  0  0  0  0  0
  161.0900  211.6340  147.4840 C   0  0  0  0  0  2  0  0  0  0  0  0
  161.9200  212.4900  149.2210 O   0  0  0  0  0  0  0  0  0  0  0  0
  160.8450  212.8180  148.3780 C   0  0  0  0  0  2  0  0  0  0  0  0
  1  3  2  0  0  0  0
  1  2  1  0  0  0  0
  2 20  1  6  0  0  0
  2  5  1  0  0  0  0
  3  4  1  0  0  0  0
  4  5  1  0  0  0  0
  5 16  1  1  0  0  0
  6  7  1  0  0  0  0
  6  3  1  0  0  0  0
  8 10  1  0  0  0  0
  9 12  1  0  0  0  0
 10  6  2  0  0  0  0
 11 10  1  0  0  0  0
 11  9  2  0  0  0  0
 12  7  2  0  0  0  0
 13  9  1  0  0  0  0
 14 19  1  0  0  0  0
 15 18  2  0  0  0  0
 16 14  2  0  0  0  0
 16 15  1  0  0  0  0
 18 17  1  0  0  0  0
 19 17  2  0  0  0  0
 20 21  1  0  0  0  0
 22 21  1  1  0  0  0
 22 24  1  0  0  0  0
 23 25  1  0  0  0  0
 23 22  1  0  0  0  0
 25 24  1  0  0  0  0
M  END
>  <MODEL>
9

>  <REMARK>
 VINA RESULT:      -7.5      3.523      6.936
  Name = 
  5 active torsions:
  status: ('A' for Active; 'I' for Inactive)
    1  A    between atoms: C_1  and  C_9
    2  A    between atoms: C_4  and  C_13
    3  A    between atoms: C_8  and  C_16
    4  A    between atoms: C_13  and  C_16
    5  A    between atoms: C_17  and  C_25
                            x       y       z     vdW  Elec       q    Type
                         _______ _______ _______ _____ _____    ______ ____

>  <TORSDO>
F 5

$$$$
