=
 OpenBabel11042421103D

 28 32  0  0  1  0  0  0  0  0999 V2000
  160.5370  207.5130  154.8730 C   0  0  0  0  0  0  0  0  0  0  0  0
  158.2820  211.0310  154.9120 O   0  0  0  0  0  0  0  0  0  0  0  0
  162.4440  208.0660  148.9740 O   0  0  0  0  0  1  0  0  0  0  0  0
  161.0020  209.1210  157.0980 C   0  0  0  0  0  3  0  0  0  0  0  0
  161.8560  210.1780  150.2080 C   0  0  0  0  0  0  0  0  0  0  0  0
  160.4620  206.6850  153.7190 C   0  0  0  0  0  2  0  0  0  0  0  0
  160.0780  212.6550  155.4080 O   0  0  0  0  0  0  0  0  0  0  0  0
  159.3210  211.9430  154.3230 S   0  0  0  0  0  0  0  0  0  0  0  0
  158.7520  212.9870  151.8690 C   0  0  0  0  0  0  0  0  0  0  0  0
  160.4090  211.0560  153.3210 N   0  0  2  0  0  0  0  0  0  0  0  0
  162.3020  204.8010  151.5400 O   0  0  0  0  0  0  0  0  0  0  0  0
  160.9740  209.2250  152.0870 C   0  0  0  0  0  0  0  0  0  0  0  0
  159.7160  212.2850  151.3430 N   0  0  0  0  0  0  0  0  0  0  0  0
  158.5620  213.0820  153.2830 N   0  0  0  0  0  2  0  0  0  0  0  0
  161.5940  205.7530  151.9580 C   0  0  0  0  0  0  0  0  0  0  0  0
  160.6850  208.9020  154.6790 C   0  0  0  0  0  0  0  0  0  0  0  0
  161.9720  208.7290  150.1030 C   0  0  0  0  0  0  0  0  0  0  0  0
  157.7800  213.6600  150.9700 C   0  0  0  0  0  1  0  0  0  0  0  0
  160.9420  206.7020  151.0060 C   0  0  0  0  0  2  0  0  0  0  0  0
  160.9270  209.6840  155.8230 C   0  0  0  0  0  3  0  0  0  0  0  0
  160.6300  206.9380  156.1450 C   0  0  0  0  0  3  0  0  0  0  0  0
  160.8490  207.7450  157.2610 C   0  0  0  0  0  3  0  0  0  0  0  0
  161.5060  206.0340  153.3410 N   0  0  0  0  0  2  0  0  0  0  0  0
  161.2110  210.4160  151.3280 C   0  0  1  0  0  3  0  0  0  0  0  0
  161.4510  208.1200  151.1770 C   0  0  0  0  0  0  0  0  0  0  0  0
  160.8290  211.6370  152.0490 C   0  0  2  0  0  3  0  0  0  0  0  0
  162.3120  211.1910  149.2170 C   0  0  0  0  0  1  0  0  0  0  0  0
  160.6090  209.6210  153.3440 C   0  0  1  0  0  3  0  0  0  0  0  0
  1 21  1  0  0  0  0
  3 17  1  0  0  0  0
  4 22  1  0  0  0  0
  6  1  1  0  0  0  0
  8  2  2  0  0  0  0
  8  7  2  0  0  0  0
  9 14  1  0  0  0  0
 10 28  1  0  0  0  0
 10  8  1  6  0  0  0
 11 15  2  0  0  0  0
 13  9  2  0  0  0  0
 14  8  1  0  0  0  0
 15 23  1  0  0  0  0
 16  1  2  0  0  0  0
 16 20  1  0  0  0  0
 17  5  2  0  0  0  0
 17 25  1  0  0  0  0
 18  9  1  0  0  0  0
 19 25  1  0  0  0  0
 19 15  1  0  0  0  0
 20  4  2  0  0  0  0
 21 22  2  0  0  0  0
 23  6  1  0  0  0  0
 24  5  1  1  0  0  0
 24 26  1  0  0  0  0
 24 12  1  0  0  0  0
 25 12  2  0  0  0  0
 26 13  1  6  0  0  0
 26 10  1  0  0  0  0
 27  5  1  0  0  0  0
 28 12  1  1  0  0  0
 28 16  1  0  0  0  0
M  END
>  <MODEL>
1

>  <REMARK>
 VINA RESULT:      -7.6      0.000      0.000
  Name = 
  0 active torsions:
  status: ('A' for Active; 'I' for Inactive)
                            x       y       z     vdW  Elec       q    Type
                         _______ _______ _______ _____ _____    ______ ____

>  <TORSDO>
F 0

$$$$
=
 OpenBabel11042421103D

 28 32  0  0  1  0  0  0  0  0999 V2000
  161.2010  206.9690  149.8570 C   0  0  0  0  0  0  0  0  0  0  0  0
  160.1270  206.5870  145.8370 O   0  0  0  0  0  0  0  0  0  0  0  0
  161.0470  200.8770  151.1220 O   0  0  0  0  0  1  0  0  0  0  0  0
  162.8130  208.4320  148.1200 C   0  0  0  0  0  3  0  0  0  0  0  0
  161.5070  201.5590  148.7440 C   0  0  0  0  0  0  0  0  0  0  0  0
  160.5160  206.1660  150.8100 C   0  0  0  0  0  2  0  0  0  0  0  0
  162.3500  206.1010  144.8710 O   0  0  0  0  0  0  0  0  0  0  0  0
  161.1060  205.5070  145.4690 S   0  0  0  0  0  0  0  0  0  0  0  0
  160.0330  203.0980  144.7760 C   0  0  0  0  0  0  0  0  0  0  0  0
  161.5050  204.5530  146.8500 N   0  0  2  0  0  0  0  0  0  0  0  0
  160.9220  204.2180  153.5900 O   0  0  0  0  0  0  0  0  0  0  0  0
  161.1000  203.7960  148.9610 C   0  0  0  0  0  0  0  0  0  0  0  0
  160.5330  202.5610  145.8540 N   0  0  0  0  0  0  0  0  0  0  0  0
  160.3720  204.4220  144.3560 N   0  0  0  0  0  2  0  0  0  0  0  0
  160.6830  204.5150  152.3910 C   0  0  0  0  0  0  0  0  0  0  0  0
  161.6400  206.3510  148.6690 C   0  0  0  0  0  0  0  0  0  0  0  0
  161.1860  201.8500  150.1360 C   0  0  1  0  0  3  0  0  0  0  0  0
  159.0300  202.3330  143.9910 C   0  0  0  0  0  1  0  0  0  0  0  0
  160.0250  203.5370  151.4730 C   0  0  0  0  0  2  0  0  0  0  0  0
  162.4600  207.1150  147.8170 C   0  0  0  0  0  3  0  0  0  0  0  0
  161.5660  208.2820  150.1780 C   0  0  0  0  0  3  0  0  0  0  0  0
  162.3620  209.0180  149.3010 C   0  0  0  0  0  3  0  0  0  0  0  0
  161.1530  205.7300  151.8410 N   0  0  0  0  0  2  0  0  0  0  0  0
  161.3730  202.6920  148.0910 C   0  0  0  0  0  0  0  0  0  0  0  0
  160.9220  203.1520  150.3130 C   0  0  0  0  0  0  0  0  0  0  0  0
  161.6040  203.1040  146.7000 C   0  0  2  0  0  3  0  0  0  0  0  0
  161.8490  200.2350  148.1580 C   0  0  0  0  0  1  0  0  0  0  0  0
  161.3080  204.9350  148.2340 C   0  0  1  0  0  3  0  0  0  0  0  0
  1 21  1  0  0  0  0
  1  6  1  0  0  0  0
  4 22  1  0  0  0  0
  5 17  1  0  0  0  0
  6 23  1  0  0  0  0
  7  8  2  0  0  0  0
  8  2  2  0  0  0  0
  9 13  2  0  0  0  0
 10  8  1  6  0  0  0
 10 28  1  0  0  0  0
 12 25  2  0  0  0  0
 14  9  1  0  0  0  0
 14  8  1  0  0  0  0
 15 11  2  0  0  0  0
 16  1  2  0  0  0  0
 17 25  1  0  0  0  0
 17  3  1  6  0  0  0
 18  9  1  0  0  0  0
 19 15  1  0  0  0  0
 20  4  2  0  0  0  0
 20 16  1  0  0  0  0
 22 21  2  0  0  0  0
 23 15  1  0  0  0  0
 24  5  2  0  0  0  0
 24 12  1  0  0  0  0
 25 19  1  0  0  0  0
 26 13  1  6  0  0  0
 26 10  1  0  0  0  0
 26 24  1  0  0  0  0
 27  5  1  0  0  0  0
 28 16  1  1  0  0  0
 28 12  1  0  0  0  0
M  END
>  <MODEL>
2

>  <REMARK>
 VINA RESULT:      -6.1      5.083      8.532
  Name = 
  0 active torsions:
  status: ('A' for Active; 'I' for Inactive)
                            x       y       z     vdW  Elec       q    Type
                         _______ _______ _______ _____ _____    ______ ____

>  <TORSDO>
F 0

$$$$
=
 OpenBabel11042421103D

 28 32  0  0  1  0  0  0  0  0999 V2000
  159.5050  213.2440  151.4370 C   0  0  0  0  0  0  0  0  0  0  0  0
  159.9420  212.6700  155.5530 O   0  0  0  0  0  0  0  0  0  0  0  0
  162.6620  208.1490  149.7620 O   0  0  0  0  0  1  0  0  0  0  0  0
  157.1350  213.5320  152.8690 C   0  0  0  0  0  3  0  0  0  0  0  0
  161.5480  208.1360  152.0170 C   0  0  0  0  0  0  0  0  0  0  0  0
  160.6320  212.9980  150.6050 C   0  0  0  0  0  2  0  0  0  0  0  0
  158.0680  211.1060  155.9430 O   0  0  0  0  0  0  0  0  0  0  0  0
  159.5260  211.2270  155.6000 S   0  0  0  0  0  0  0  0  0  0  0  0
  161.4560  209.4420  156.3270 C   0  0  0  0  0  0  0  0  0  0  0  0
  159.8510  210.4510  154.0940 N   0  0  2  0  0  0  0  0  0  0  0  0
  161.6440  211.5860  147.6610 O   0  0  0  0  0  0  0  0  0  0  0  0
  160.9060  210.3270  152.0780 C   0  0  0  0  0  0  0  0  0  0  0  0
  161.4490  208.9390  155.1240 N   0  0  0  0  0  0  0  0  0  0  0  0
  160.4800  210.3910  156.7610 N   0  0  0  0  0  2  0  0  0  0  0  0
  161.5140  211.7430  148.9020 C   0  0  0  0  0  0  0  0  0  0  0  0
  159.2080  212.2990  152.4400 C   0  0  0  0  0  0  0  0  0  0  0  0
  161.9270  208.7760  150.7630 C   0  0  0  0  0  0  0  0  0  0  0  0
  162.5510  209.0650  157.2570 C   0  0  0  0  0  1  0  0  0  0  0  0
  162.3840  211.0050  149.8660 C   0  0  0  0  0  2  0  0  0  0  0  0
  157.9990  212.4690  153.1390 C   0  0  0  0  0  3  0  0  0  0  0  0
  158.6350  214.3010  151.1470 C   0  0  0  0  0  3  0  0  0  0  0  0
  157.4550  214.4530  151.8730 C   0  0  0  0  0  3  0  0  0  0  0  0
  160.4510  212.5170  149.4250 N   0  0  0  0  0  2  0  0  0  0  0  0
  161.0330  209.0810  152.7710 C   0  0  1  0  0  3  0  0  0  0  0  0
  161.5860  210.0720  150.7550 C   0  0  0  0  0  0  0  0  0  0  0  0
  160.4080  209.1020  154.1010 C   0  0  2  0  0  3  0  0  0  0  0  0
  161.7620  206.7150  152.4030 C   0  0  0  0  0  1  0  0  0  0  0  0
  160.0780  211.1170  152.8260 C   0  0  1  0  0  3  0  0  0  0  0  0
  1 16  1  0  0  0  0
  2  8  2  0  0  0  0
  3 17  1  0  0  0  0
  4 20  1  0  0  0  0
  5 27  1  0  0  0  0
  6  1  1  0  0  0  0
  8  7  2  0  0  0  0
  8 14  1  0  0  0  0
  9 14  1  0  0  0  0
  9 18  1  0  0  0  0
 10 26  1  0  0  0  0
 10  8  1  1  0  0  0
 11 15  2  0  0  0  0
 12 24  1  0  0  0  0
 13  9  2  0  0  0  0
 15 23  1  0  0  0  0
 15 19  1  0  0  0  0
 16 28  1  0  0  0  0
 16 20  2  0  0  0  0
 17  5  2  0  0  0  0
 19 25  1  0  0  0  0
 21  1  2  0  0  0  0
 21 22  1  0  0  0  0
 22  4  2  0  0  0  0
 23  6  1  0  0  0  0
 24  5  1  6  0  0  0
 24 26  1  0  0  0  0
 25 17  1  0  0  0  0
 25 12  2  0  0  0  0
 26 13  1  1  0  0  0
 28 12  1  6  0  0  0
 28 10  1  0  0  0  0
M  END
>  <MODEL>
3

>  <REMARK>
 VINA RESULT:      -6.1      1.643      5.339
  Name = 
  0 active torsions:
  status: ('A' for Active; 'I' for Inactive)
                            x       y       z     vdW  Elec       q    Type
                         _______ _______ _______ _____ _____    ______ ____

>  <TORSDO>
F 0

$$$$
=
 OpenBabel11042421103D

 28 32  0  0  1  0  0  0  0  0999 V2000
  160.7420  212.2420  149.8750 C   0  0  0  0  0  0  0  0  0  0  0  0
  161.0640  208.4500  148.1500 O   0  0  0  0  0  0  0  0  0  0  0  0
  159.6510  210.2030  155.6530 O   0  0  0  0  0  1  0  0  0  0  0  0
  162.9640  211.9440  148.2240 C   0  0  0  0  0  3  0  0  0  0  0  0
  160.9450  208.6930  154.1130 C   0  0  0  0  0  0  0  0  0  0  0  0
  159.7090  212.4560  150.8290 C   0  0  0  0  0  2  0  0  0  0  0  0
  163.4320  207.9710  148.6690 O   0  0  0  0  0  0  0  0  0  0  0  0
  162.0130  207.8540  149.1500 S   0  0  0  0  0  0  0  0  0  0  0  0
  161.0380  205.8030  150.6600 C   0  0  0  0  0  0  0  0  0  0  0  0
  161.8390  208.6210  150.6850 N   0  0  2  0  0  0  0  0  0  0  0  0
  158.9830  213.8860  153.8480 O   0  0  0  0  0  0  0  0  0  0  0  0
  160.6810  209.8880  152.1840 C   0  0  0  0  0  0  0  0  0  0  0  0
  161.0960  206.5540  151.7230 N   0  0  0  0  0  0  0  0  0  0  0  0
  161.6100  206.2030  149.4120 N   0  0  0  0  0  2  0  0  0  0  0  0
  159.1900  212.9810  152.9980 C   0  0  0  0  0  0  0  0  0  0  0  0
  161.5030  211.0610  149.9810 C   0  0  0  0  0  0  0  0  0  0  0  0
  160.1980  209.9100  154.4080 C   0  0  1  0  0  3  0  0  0  0  0  0
  160.2990  204.5160  150.7270 C   0  0  0  0  0  1  0  0  0  0  0  0
  158.8000  211.5650  153.2730 C   0  0  0  0  0  2  0  0  0  0  0  0
  162.6240  210.9450  149.1390 C   0  0  0  0  0  3  0  0  0  0  0  0
  161.0870  213.2570  148.9740 C   0  0  0  0  0  3  0  0  0  0  0  0
  162.1920  213.1010  148.1390 C   0  0  0  0  0  3  0  0  0  0  0  0
  159.9200  213.2530  151.8180 N   0  0  0  0  0  2  0  0  0  0  0  0
  161.1360  208.6850  152.8130 C   0  0  0  0  0  0  0  0  0  0  0  0
  160.0010  210.6400  153.3020 C   0  0  0  0  0  0  0  0  0  0  0  0
  161.8590  207.7980  151.8910 C   0  0  2  0  0  3  0  0  0  0  0  0
  161.3520  207.6320  155.0740 C   0  0  0  0  0  1  0  0  0  0  0  0
  161.2180  209.9080  150.9270 C   0  0  1  0  0  3  0  0  0  0  0  0
  1 16  1  0  0  0  0
  1  6  1  0  0  0  0
  2  8  2  0  0  0  0
  4 20  1  0  0  0  0
  5 17  1  0  0  0  0
  5 27  1  0  0  0  0
  6 23  1  0  0  0  0
  7  8  2  0  0  0  0
  8 14  1  0  0  0  0
  9 18  1  0  0  0  0
  9 13  2  0  0  0  0
 10  8  1  6  0  0  0
 10 28  1  0  0  0  0
 10 26  1  0  0  0  0
 12 24  1  0  0  0  0
 12 25  2  0  0  0  0
 14  9  1  0  0  0  0
 15 19  1  0  0  0  0
 15 11  2  0  0  0  0
 17  3  1  6  0  0  0
 19 25  1  0  0  0  0
 20 16  2  0  0  0  0
 21  1  2  0  0  0  0
 22  4  2  0  0  0  0
 22 21  1  0  0  0  0
 23 15  1  0  0  0  0
 24  5  2  0  0  0  0
 25 17  1  0  0  0  0
 26 13  1  6  0  0  0
 26 24  1  0  0  0  0
 28 16  1  1  0  0  0
 28 12  1  0  0  0  0
M  END
>  <MODEL>
4

>  <REMARK>
 VINA RESULT:      -5.5      2.201      6.960
  Name = 
  0 active torsions:
  status: ('A' for Active; 'I' for Inactive)
                            x       y       z     vdW  Elec       q    Type
                         _______ _______ _______ _____ _____    ______ ____

>  <TORSDO>
F 0

$$$$
=
 OpenBabel11042421103D

 28 32  0  0  1  0  0  0  0  0999 V2000
  161.4800  205.9670  152.7840 C   0  0  0  0  0  0  0  0  0  0  0  0
  163.1060  207.4770  149.2430 O   0  0  0  0  0  0  0  0  0  0  0  0
  160.0320  211.5100  155.2150 O   0  0  0  0  0  1  0  0  0  0  0  0
  160.5610  204.6850  150.4890 C   0  0  0  0  0  3  0  0  0  0  0  0
  160.1490  211.3360  152.7080 C   0  0  0  0  0  0  0  0  0  0  0  0
  161.7920  206.6350  154.0000 C   0  0  0  0  0  2  0  0  0  0  0  0
  161.0280  207.7610  147.9340 O   0  0  0  0  0  0  0  0  0  0  0  0
  161.9850  208.4140  148.8910 S   0  0  0  0  0  0  0  0  0  0  0  0
  162.5860  211.0740  148.9290 C   0  0  0  0  0  0  0  0  0  0  0  0
  161.1520  208.9260  150.3120 N   0  0  2  0  0  0  0  0  0  0  0  0
  160.4890  207.7640  156.9520 O   0  0  0  0  0  0  0  0  0  0  0  0
  161.0090  209.2240  152.5660 C   0  0  0  0  0  0  0  0  0  0  0  0
  161.8010  211.2400  149.9570 N   0  0  0  0  0  0  0  0  0  0  0  0
  162.6320  209.8480  148.1960 N   0  0  0  0  0  2  0  0  0  0  0  0
  160.9900  207.8060  155.7990 C   0  0  0  0  0  0  0  0  0  0  0  0
  161.1210  206.7560  151.6730 C   0  0  0  0  0  0  0  0  0  0  0  0
  160.2860  210.7890  154.0520 C   0  0  1  0  0  3  0  0  0  0  0  0
  163.5070  212.1730  148.5430 C   0  0  0  0  0  1  0  0  0  0  0  0
  161.5550  209.0770  155.2530 C   0  0  0  0  0  2  0  0  0  0  0  0
  160.6520  206.0780  150.5320 C   0  0  0  0  0  3  0  0  0  0  0  0
  161.3730  204.5720  152.7560 C   0  0  0  0  0  3  0  0  0  0  0  0
  160.9250  203.9300  151.6020 C   0  0  0  0  0  3  0  0  0  0  0  0
  160.9080  206.6900  154.9340 N   0  0  0  0  0  2  0  0  0  0  0  0
  160.6450  210.4340  151.8910 C   0  0  0  0  0  0  0  0  0  0  0  0
  160.8040  209.5540  154.0250 C   0  0  0  0  0  0  0  0  0  0  0  0
  160.7540  210.3250  150.4300 C   0  0  2  0  0  3  0  0  0  0  0  0
  159.6200  212.6750  152.3310 C   0  0  0  0  0  1  0  0  0  0  0  0
  161.1920  208.2710  151.6040 C   0  0  1  0  0  3  0  0  0  0  0  0
  1  6  1  0  0  0  0
  4 20  2  0  0  0  0
  4 22  1  0  0  0  0
  5 17  1  0  0  0  0
  6 23  1  0  0  0  0
  7  8  2  0  0  0  0
  8  2  2  0  0  0  0
  9 13  2  0  0  0  0
 10  8  1  1  0  0  0
 10 26  1  0  0  0  0
 10 28  1  0  0  0  0
 12 25  2  0  0  0  0
 14  8  1  0  0  0  0
 14  9  1  0  0  0  0
 15 11  2  0  0  0  0
 16  1  2  0  0  0  0
 17  3  1  1  0  0  0
 18  9  1  0  0  0  0
 19 15  1  0  0  0  0
 20 16  1  0  0  0  0
 21  1  1  0  0  0  0
 22 21  2  0  0  0  0
 23 15  1  0  0  0  0
 24 12  1  0  0  0  0
 24  5  2  0  0  0  0
 25 17  1  0  0  0  0
 25 19  1  0  0  0  0
 26 13  1  1  0  0  0
 26 24  1  0  0  0  0
 27  5  1  0  0  0  0
 28 16  1  6  0  0  0
 28 12  1  0  0  0  0
M  END
>  <MODEL>
5

>  <REMARK>
 VINA RESULT:      -5.1      2.309      5.176
  Name = 
  0 active torsions:
  status: ('A' for Active; 'I' for Inactive)
                            x       y       z     vdW  Elec       q    Type
                         _______ _______ _______ _____ _____    ______ ____

>  <TORSDO>
F 0

$$$$
=
 OpenBabel11042421103D

 28 32  0  0  1  0  0  0  0  0999 V2000
  157.4710  213.9030  152.5610 C   0  0  0  0  0  0  0  0  0  0  0  0
  159.1910  213.0060  156.2610 O   0  0  0  0  0  0  0  0  0  0  0  0
  161.9220  211.2170  149.1400 O   0  0  0  0  0  1  0  0  0  0  0  0
  155.6810  212.8220  154.3990 C   0  0  0  0  0  3  0  0  0  0  0  0
  161.5660  210.3470  151.4730 C   0  0  0  0  0  0  0  0  0  0  0  0
  158.3280  214.3450  151.5160 C   0  0  0  0  0  2  0  0  0  0  0  0
  158.3400  210.7030  156.5530 O   0  0  0  0  0  0  0  0  0  0  0  0
  159.4580  211.5480  156.0110 S   0  0  0  0  0  0  0  0  0  0  0  0
  162.0800  210.8040  155.9240 C   0  0  0  0  0  0  0  0  0  0  0  0
  159.6670  211.2500  154.3250 N   0  0  2  0  0  0  0  0  0  0  0  0
  159.0180  214.0300  148.1820 O   0  0  0  0  0  0  0  0  0  0  0  0
  160.0940  211.9380  152.1950 C   0  0  0  0  0  0  0  0  0  0  0  0
  161.9670  210.5410  154.6530 N   0  0  0  0  0  0  0  0  0  0  0  0
  160.9480  211.1030  156.7440 N   0  0  0  0  0  2  0  0  0  0  0  0
  159.1700  213.9230  149.4260 C   0  0  0  0  0  0  0  0  0  0  0  0
  157.8840  212.7950  153.3270 C   0  0  0  0  0  0  0  0  0  0  0  0
  161.2860  211.2660  150.3770 C   0  0  0  0  0  0  0  0  0  0  0  0
  163.4360  210.8570  156.5290 C   0  0  0  0  0  1  0  0  0  0  0  0
  160.4940  213.5510  150.0100 C   0  0  0  0  0  2  0  0  0  0  0  0
  156.9520  212.2680  154.2410 C   0  0  0  0  0  3  0  0  0  0  0  0
  156.1910  214.4530  152.6990 C   0  0  0  0  0  3  0  0  0  0  0  0
  155.3000  213.9200  153.6290 C   0  0  0  0  0  3  0  0  0  0  0  0
  158.0620  214.0150  150.3000 N   0  0  0  0  0  2  0  0  0  0  0  0
  160.9190  210.8130  152.5180 C   0  0  1  0  0  3  0  0  0  0  0  0
  160.4380  212.2320  150.7550 C   0  0  0  0  0  0  0  0  0  0  0  0
  160.7240  210.3400  153.8950 C   0  0  2  0  0  3  0  0  0  0  0  0
  162.4590  209.1570  151.4440 C   0  0  0  0  0  1  0  0  0  0  0  0
  159.2420  212.1220  153.2480 C   0  0  1  0  0  3  0  0  0  0  0  0
  1 21  2  0  0  0  0
  1 16  1  0  0  0  0
  3 17  1  0  0  0  0
  6  1  1  0  0  0  0
  8  2  2  0  0  0  0
  8  7  2  0  0  0  0
  8 14  1  0  0  0  0
  9 18  1  0  0  0  0
  9 14  1  0  0  0  0
 10  8  1  1  0  0  0
 11 15  2  0  0  0  0
 12 24  1  0  0  0  0
 13  9  2  0  0  0  0
 15 19  1  0  0  0  0
 15 23  1  0  0  0  0
 16 20  2  0  0  0  0
 17 25  1  0  0  0  0
 17  5  2  0  0  0  0
 19 25  1  0  0  0  0
 20  4  1  0  0  0  0
 21 22  1  0  0  0  0
 22  4  2  0  0  0  0
 23  6  1  0  0  0  0
 24  5  1  6  0  0  0
 24 26  1  0  0  0  0
 25 12  2  0  0  0  0
 26 10  1  0  0  0  0
 26 13  1  1  0  0  0
 27  5  1  0  0  0  0
 28 12  1  6  0  0  0
 28 16  1  0  0  0  0
 28 10  1  0  0  0  0
M  END
>  <MODEL>
6

>  <REMARK>
 VINA RESULT:      -4.9      2.671      5.807
  Name = 
  0 active torsions:
  status: ('A' for Active; 'I' for Inactive)
                            x       y       z     vdW  Elec       q    Type
                         _______ _______ _______ _____ _____    ______ ____

>  <TORSDO>
F 0

$$$$
