=
 OpenBabel11042423113D

 29 30  0  0  1  0  0  0  0  0999 V2000
  160.9470  206.1980  149.5770 C   0  0  0  0  0  0  0  0  0  0  0  0
  162.2920  208.7350  149.9910 C   0  0  0  0  0  2  0  0  0  0  0  0
  161.0750  205.6680  152.0490 C   0  0  2  0  0  3  0  0  0  0  0  0
  160.4410  205.0640  149.3540 O   0  0  0  0  0  0  0  0  0  0  0  0
  160.8180  207.9290  153.3730 C   0  0  1  0  0  3  0  0  0  0  0  0
  161.6480  207.9830  151.1140 C   0  0  0  0  0  0  0  0  0  0  0  0
  161.1520  207.1370  148.4540 C   0  0  0  0  0  0  0  0  0  0  0  0
  161.2830  206.5990  150.9210 N   0  0  0  0  0  0  0  0  0  0  0  0
  161.4610  208.5840  152.2470 N   0  0  0  0  0  0  0  0  0  0  0  0
  161.7380  208.3200  148.6580 C   0  0  0  0  0  3  0  0  0  0  0  0
  161.6330  206.3420  153.6600 S   0  0  0  0  0  0  0  0  0  0  0  0
  160.9370  208.7920  154.6180 C   0  0  0  0  0  2  0  0  0  0  0  0
  159.9220  208.3780  155.6750 C   0  0  0  0  0  2  0  0  0  0  0  0
  160.6090  207.8170  156.9090 C   0  0  0  0  0  3  0  0  0  0  0  0
  161.9750  208.0200  156.8220 F   0  0  0  0  0  0  0  0  0  0  0  0
  160.3520  206.4630  157.0000 F   0  0  0  0  0  0  0  0  0  0  0  0
  160.6880  206.7920  147.0810 C   0  0  0  0  0  2  0  0  0  0  0  0
  162.0170  205.9410  146.1710 S   0  0  0  0  0  0  0  0  0  0  0  0
  160.9590  204.6190  145.4710 C   0  0  1  0  0  3  0  0  0  0  0  0
  161.5700  205.7870  143.6340 O   0  0  0  0  0  1  0  0  0  0  0  0
  160.7300  204.8100  144.0440 N   0  0  0  0  0  2  0  0  0  0  0  0
  161.4970  203.2230  145.7870 C   0  0  1  0  0  3  0  0  0  0  0  0
  161.6770  203.0630  147.2850 C   0  0  0  0  0  1  0  0  0  0  0  0
  160.6120  202.1830  145.2830 N   0  0  0  0  0  2  0  0  0  0  0  0
  160.6850  201.0720  146.2160 C   0  0  0  0  0  1  0  0  0  0  0  0
  161.8130  204.3540  151.8030 C   0  0  0  0  0  2  0  0  0  0  0  0
  160.8770  203.1630  151.9420 C   0  0  0  0  0  2  0  0  0  0  0  0
  160.4240  201.5040  150.1630 C   0  0  0  0  0  1  0  0  0  0  0  0
  161.4320  201.9660  151.1930 C   0  0  0  0  0  2  0  0  0  0  0  0
  1  8  1  0  0  0  0
  2  6  1  0  0  0  0
  3 26  1  6  0  0  0
  3 11  1  0  0  0  0
  4  1  2  0  0  0  0
  5 11  1  0  0  0  0
  5 12  1  1  0  0  0
  6  9  2  0  0  0  0
  7 10  2  0  0  0  0
  7  1  1  0  0  0  0
  8  6  1  0  0  0  0
  8  3  1  0  0  0  0
  9  5  1  0  0  0  0
 10  2  1  0  0  0  0
 12 13  1  0  0  0  0
 13 14  1  0  0  0  0
 14 16  1  0  0  0  0
 15 14  1  0  0  0  0
 17  7  1  0  0  0  0
 18 17  1  0  0  0  0
 19 21  1  6  0  0  0
 19 22  1  0  0  0  0
 19 18  1  0  0  0  0
 20 21  1  0  0  0  0
 22 23  1  1  0  0  0
 24 22  1  0  0  0  0
 24 25  1  0  0  0  0
 26 27  1  0  0  0  0
 28 29  1  0  0  0  0
 29 27  1  0  0  0  0
M  END
>  <MODEL>
1

>  <REMARK>
 VINA RESULT:      -7.0      0.000      0.000
  Name = 
  12 active torsions:
  status: ('A' for Active; 'I' for Inactive)
    1  A    between atoms: C_4  and  C_13
    2  A    between atoms: C_5  and  C_24
    3  A    between atoms: N_7  and  C_21
    4  A    between atoms: C_8  and  C_11
    5  A    between atoms: C_11  and  C_13
    6  A    between atoms: C_14  and  C_21
    7  A    between atoms: C_14  and  S_26
    8  A    between atoms: C_14  and  N_29
    9  A    between atoms: C_15  and  C_19
   10  A    between atoms: C_16  and  C_25
   11  A    between atoms: C_19  and  S_26
   12  A    between atoms: C_24  and  C_25
                            x       y       z     vdW  Elec       q    Type
                         _______ _______ _______ _____ _____    ______ ____

>  <TORSDO>
F 12

$$$$
=
 OpenBabel11042423113D

 29 30  0  0  1  0  0  0  0  0999 V2000
  161.0980  206.7430  150.2890 C   0  0  0  0  0  0  0  0  0  0  0  0
  161.9270  204.6340  152.1010 C   0  0  0  0  0  2  0  0  0  0  0  0
  161.1870  205.1550  148.3190 C   0  0  2  0  0  3  0  0  0  0  0  0
  160.8230  207.6990  149.5130 O   0  0  0  0  0  0  0  0  0  0  0  0
  160.4460  202.7760  149.1660 C   0  0  1  0  0  3  0  0  0  0  0  0
  161.3730  204.3430  150.7410 C   0  0  0  0  0  0  0  0  0  0  0  0
  161.1860  206.9880  151.7440 C   0  0  0  0  0  0  0  0  0  0  0  0
  161.2810  205.4090  149.7710 N   0  0  0  0  0  0  0  0  0  0  0  0
  161.0170  203.1300  150.4540 N   0  0  0  0  0  0  0  0  0  0  0  0
  161.5320  206.0030  152.5770 C   0  0  0  0  0  3  0  0  0  0  0  0
  161.5230  203.4120  147.8620 S   0  0  0  0  0  0  0  0  0  0  0  0
  160.3360  201.2650  149.0400 C   0  0  0  0  0  2  0  0  0  0  0  0
  161.4670  200.6990  148.1930 C   0  0  0  0  0  2  0  0  0  0  0  0
  160.9450  200.1380  146.8800 C   0  0  0  0  0  3  0  0  0  0  0  0
  161.7750  199.1240  146.4370 F   0  0  0  0  0  0  0  0  0  0  0  0
  160.9080  201.1440  145.9350 F   0  0  0  0  0  0  0  0  0  0  0  0
  160.8690  208.3300  152.3090 C   0  0  0  0  0  2  0  0  0  0  0  0
  160.7490  208.2280  154.1240 S   0  0  0  0  0  0  0  0  0  0  0  0
  161.4670  209.8800  154.4590 C   0  0  1  0  0  3  0  0  0  0  0  0
  160.5430  211.8700  153.9150 O   0  0  0  0  0  1  0  0  0  0  0  0
  161.1980  210.8170  153.3750 N   0  0  0  0  0  2  0  0  0  0  0  0
  161.0320  210.4310  155.8180 C   0  0  1  0  0  3  0  0  0  0  0  0
  159.7290  209.7830  156.2480 C   0  0  0  0  0  1  0  0  0  0  0  0
  162.0510  210.2120  156.8340 N   0  0  0  0  0  2  0  0  0  0  0  0
  163.2810  210.8030  156.3400 C   0  0  0  0  0  1  0  0  0  0  0  0
  162.1680  206.0430  147.5550 C   0  0  0  0  0  2  0  0  0  0  0  0
  162.6760  205.3500  146.3000 C   0  0  0  0  0  2  0  0  0  0  0  0
  161.0220  204.7090  144.5740 C   0  0  0  0  0  1  0  0  0  0  0  0
  161.9040  205.8290  145.0850 C   0  0  0  0  0  2  0  0  0  0  0  0
  1  7  1  0  0  0  0
  2 10  1  0  0  0  0
  3 26  1  6  0  0  0
  3  8  1  0  0  0  0
  4  1  2  0  0  0  0
  5 12  1  1  0  0  0
  5  9  1  0  0  0  0
  6  2  1  0  0  0  0
  7 17  1  0  0  0  0
  7 10  2  0  0  0  0
  8  1  1  0  0  0  0
  8  6  1  0  0  0  0
  9  6  2  0  0  0  0
 11  3  1  0  0  0  0
 11  5  1  0  0  0  0
 13 12  1  0  0  0  0
 14 13  1  0  0  0  0
 15 14  1  0  0  0  0
 16 14  1  0  0  0  0
 17 18  1  0  0  0  0
 18 19  1  0  0  0  0
 19 21  1  6  0  0  0
 19 22  1  0  0  0  0
 21 20  1  0  0  0  0
 22 23  1  1  0  0  0
 22 24  1  0  0  0  0
 25 24  1  0  0  0  0
 27 26  1  0  0  0  0
 28 29  1  0  0  0  0
 29 27  1  0  0  0  0
M  END
>  <MODEL>
2

>  <REMARK>
 VINA RESULT:      -6.8      4.159      8.771
  Name = 
  12 active torsions:
  status: ('A' for Active; 'I' for Inactive)
    1  A    between atoms: C_4  and  C_13
    2  A    between atoms: C_5  and  C_24
    3  A    between atoms: N_7  and  C_21
    4  A    between atoms: C_8  and  C_11
    5  A    between atoms: C_11  and  C_13
    6  A    between atoms: C_14  and  C_21
    7  A    between atoms: C_14  and  S_26
    8  A    between atoms: C_14  and  N_29
    9  A    between atoms: C_15  and  C_19
   10  A    between atoms: C_16  and  C_25
   11  A    between atoms: C_19  and  S_26
   12  A    between atoms: C_24  and  C_25
                            x       y       z     vdW  Elec       q    Type
                         _______ _______ _______ _____ _____    ______ ____

>  <TORSDO>
F 12

$$$$
=
 OpenBabel11042423113D

 29 30  0  0  1  0  0  0  0  0999 V2000
  161.1450  207.0100  150.4760 C   0  0  0  0  0  0  0  0  0  0  0  0
  161.8770  204.8760  152.3000 C   0  0  0  0  0  2  0  0  0  0  0  0
  161.2320  205.4240  148.5040 C   0  0  2  0  0  3  0  0  0  0  0  0
  160.9130  207.9740  149.6970 O   0  0  0  0  0  0  0  0  0  0  0  0
  160.4070  203.0640  149.3300 C   0  0  1  0  0  3  0  0  0  0  0  0
  161.3440  204.6020  150.9290 C   0  0  0  0  0  0  0  0  0  0  0  0
  161.2100  207.2500  151.9330 C   0  0  0  0  0  0  0  0  0  0  0  0
  161.3020  205.6720  149.9590 N   0  0  0  0  0  0  0  0  0  0  0  0
  160.9610  203.4000  150.6310 N   0  0  0  0  0  0  0  0  0  0  0  0
  161.5100  206.2540  152.7710 C   0  0  0  0  0  3  0  0  0  0  0  0
  161.5290  203.6730  148.0510 S   0  0  0  0  0  0  0  0  0  0  0  0
  160.2580  201.5570  149.1990 C   0  0  0  0  0  2  0  0  0  0  0  0
  161.4070  200.9580  148.4000 C   0  0  0  0  0  2  0  0  0  0  0  0
  160.9170  200.3660  147.0880 C   0  0  0  0  0  3  0  0  0  0  0  0
  161.7070  199.2880  146.7330 F   0  0  0  0  0  0  0  0  0  0  0  0
  160.9840  201.3280  146.1000 F   0  0  0  0  0  0  0  0  0  0  0  0
  160.9180  208.5990  152.4940 C   0  0  0  0  0  2  0  0  0  0  0  0
  160.8800  208.5210  154.3140 S   0  0  0  0  0  0  0  0  0  0  0  0
  160.3480  210.2550  154.5720 C   0  0  1  0  0  3  0  0  0  0  0  0
  162.3950  210.2550  155.5320 O   0  0  0  0  0  1  0  0  0  0  0  0
  161.4410  211.0890  155.0580 N   0  0  0  0  0  2  0  0  0  0  0  0
  159.6830  210.8440  153.3270 C   0  0  1  0  0  3  0  0  0  0  0  0
  158.2510  211.2390  153.6400 C   0  0  0  0  0  1  0  0  0  0  0  0
  160.4140  212.0000  152.8280 N   0  0  0  0  0  2  0  0  0  0  0  0
  159.5700  212.6430  151.8370 C   0  0  0  0  0  1  0  0  0  0  0  0
  162.2520  206.2850  147.7630 C   0  0  0  0  0  2  0  0  0  0  0  0
  162.3070  205.9260  146.2870 C   0  0  0  0  0  2  0  0  0  0  0  0
  160.7920  205.0250  144.5500 C   0  0  0  0  0  1  0  0  0  0  0  0
  160.9280  206.0410  145.6650 C   0  0  0  0  0  2  0  0  0  0  0  0
  1  7  1  0  0  0  0
  2 10  1  0  0  0  0
  3 26  1  6  0  0  0
  3  8  1  0  0  0  0
  4  1  2  0  0  0  0
  5 12  1  1  0  0  0
  5  9  1  0  0  0  0
  6  2  1  0  0  0  0
  7 17  1  0  0  0  0
  7 10  2  0  0  0  0
  8  1  1  0  0  0  0
  8  6  1  0  0  0  0
  9  6  2  0  0  0  0
 11  3  1  0  0  0  0
 11  5  1  0  0  0  0
 13 12  1  0  0  0  0
 14 13  1  0  0  0  0
 15 14  1  0  0  0  0
 16 14  1  0  0  0  0
 17 18  1  0  0  0  0
 19 18  1  6  0  0  0
 19 21  1  0  0  0  0
 21 20  1  0  0  0  0
 22 23  1  1  0  0  0
 22 19  1  0  0  0  0
 24 22  1  0  0  0  0
 25 24  1  0  0  0  0
 27 26  1  0  0  0  0
 28 29  1  0  0  0  0
 29 27  1  0  0  0  0
M  END
>  <MODEL>
3

>  <REMARK>
 VINA RESULT:      -6.8      4.216      8.555
  Name = 
  12 active torsions:
  status: ('A' for Active; 'I' for Inactive)
    1  A    between atoms: C_4  and  C_13
    2  A    between atoms: C_5  and  C_24
    3  A    between atoms: N_7  and  C_21
    4  A    between atoms: C_8  and  C_11
    5  A    between atoms: C_11  and  C_13
    6  A    between atoms: C_14  and  C_21
    7  A    between atoms: C_14  and  S_26
    8  A    between atoms: C_14  and  N_29
    9  A    between atoms: C_15  and  C_19
   10  A    between atoms: C_16  and  C_25
   11  A    between atoms: C_19  and  S_26
   12  A    between atoms: C_24  and  C_25
                            x       y       z     vdW  Elec       q    Type
                         _______ _______ _______ _____ _____    ______ ____

>  <TORSDO>
F 12

$$$$
=
 OpenBabel11042423113D

 29 30  0  0  1  0  0  0  0  0999 V2000
  160.8400  208.0180  152.4230 C   0  0  0  0  0  0  0  0  0  0  0  0
  161.9310  205.3610  152.8330 C   0  0  0  0  0  2  0  0  0  0  0  0
  161.2870  207.8740  149.9350 C   0  0  2  0  0  3  0  0  0  0  0  0
  160.4430  209.2080  152.2880 O   0  0  0  0  0  0  0  0  0  0  0  0
  160.9220  205.3750  149.1930 C   0  0  1  0  0  3  0  0  0  0  0  0
  161.4970  205.8440  151.4840 C   0  0  0  0  0  0  0  0  0  0  0  0
  160.8190  207.3900  153.7610 C   0  0  0  0  0  0  0  0  0  0  0  0
  161.2700  207.2550  151.2760 N   0  0  0  0  0  0  0  0  0  0  0  0
  161.3660  204.9860  150.5210 N   0  0  0  0  0  0  0  0  0  0  0  0
  161.2880  206.1520  153.9360 C   0  0  0  0  0  3  0  0  0  0  0  0
  161.9340  206.7620  148.6300 S   0  0  0  0  0  0  0  0  0  0  0  0
  161.0760  204.2110  148.2290 C   0  0  0  0  0  2  0  0  0  0  0  0
  160.9380  202.8770  148.9490 C   0  0  0  0  0  2  0  0  0  0  0  0
  160.7810  201.7310  147.9620 C   0  0  0  0  0  3  0  0  0  0  0  0
  161.6150  200.6860  148.3160 F   0  0  0  0  0  0  0  0  0  0  0  0
  161.1100  202.1700  146.6950 F   0  0  0  0  0  0  0  0  0  0  0  0
  160.2540  208.1180  154.9320 C   0  0  0  0  0  2  0  0  0  0  0  0
  161.5820  208.5260  156.1110 S   0  0  0  0  0  0  0  0  0  0  0  0
  160.9600  210.1970  156.5330 C   0  0  1  0  0  3  0  0  0  0  0  0
  163.2010  210.4870  156.4700 O   0  0  0  0  0  1  0  0  0  0  0  0
  162.0500  211.1400  156.7530 N   0  0  0  0  0  2  0  0  0  0  0  0
  159.9520  210.7130  155.5040 C   0  0  1  0  0  3  0  0  0  0  0  0
  158.7460  211.3040  156.2110 C   0  0  0  0  0  1  0  0  0  0  0  0
  160.5470  211.7110  154.6270 N   0  0  0  0  0  2  0  0  0  0  0  0
  159.4650  212.3090  153.8660 C   0  0  0  0  0  1  0  0  0  0  0  0
  162.1360  209.1430  149.9410 C   0  0  0  0  0  2  0  0  0  0  0  0
  162.0150  209.8930  148.6230 C   0  0  0  0  0  2  0  0  0  0  0  0
  161.4190  212.1230  147.7310 C   0  0  0  0  0  1  0  0  0  0  0  0
  162.1170  211.3890  148.8570 C   0  0  0  0  0  2  0  0  0  0  0  0
  1  7  1  0  0  0  0
  2 10  1  0  0  0  0
  3 26  1  1  0  0  0
  3  8  1  0  0  0  0
  4  1  2  0  0  0  0
  5 12  1  6  0  0  0
  5  9  1  0  0  0  0
  6  2  1  0  0  0  0
  7 10  2  0  0  0  0
  7 17  1  0  0  0  0
  8  6  1  0  0  0  0
  8  1  1  0  0  0  0
  9  6  2  0  0  0  0
 11  5  1  0  0  0  0
 11  3  1  0  0  0  0
 12 13  1  0  0  0  0
 14 15  1  0  0  0  0
 14 13  1  0  0  0  0
 16 14  1  0  0  0  0
 17 18  1  0  0  0  0
 19 18  1  6  0  0  0
 19 21  1  0  0  0  0
 20 21  1  0  0  0  0
 22 23  1  1  0  0  0
 22 19  1  0  0  0  0
 24 22  1  0  0  0  0
 25 24  1  0  0  0  0
 27 29  1  0  0  0  0
 27 26  1  0  0  0  0
 28 29  1  0  0  0  0
M  END
>  <MODEL>
4

>  <REMARK>
 VINA RESULT:      -6.8      4.192      9.083
  Name = 
  12 active torsions:
  status: ('A' for Active; 'I' for Inactive)
    1  A    between atoms: C_4  and  C_13
    2  A    between atoms: C_5  and  C_24
    3  A    between atoms: N_7  and  C_21
    4  A    between atoms: C_8  and  C_11
    5  A    between atoms: C_11  and  C_13
    6  A    between atoms: C_14  and  C_21
    7  A    between atoms: C_14  and  S_26
    8  A    between atoms: C_14  and  N_29
    9  A    between atoms: C_15  and  C_19
   10  A    between atoms: C_16  and  C_25
   11  A    between atoms: C_19  and  S_26
   12  A    between atoms: C_24  and  C_25
                            x       y       z     vdW  Elec       q    Type
                         _______ _______ _______ _____ _____    ______ ____

>  <TORSDO>
F 12

$$$$
=
 OpenBabel11042423113D

 29 30  0  0  1  0  0  0  0  0999 V2000
  160.8620  207.9190  152.3320 C   0  0  0  0  0  0  0  0  0  0  0  0
  161.9570  205.2410  152.5590 C   0  0  0  0  0  2  0  0  0  0  0  0
  161.3340  207.9570  149.8450 C   0  0  2  0  0  3  0  0  0  0  0  0
  160.4630  209.1140  152.2800 O   0  0  0  0  0  0  0  0  0  0  0  0
  160.9840  205.5170  148.9200 C   0  0  1  0  0  3  0  0  0  0  0  0
  161.5350  205.8200  151.2440 C   0  0  0  0  0  0  0  0  0  0  0  0
  160.8290  207.1950  153.6200 C   0  0  0  0  0  0  0  0  0  0  0  0
  161.3060  207.2420  151.1370 N   0  0  0  0  0  0  0  0  0  0  0  0
  161.4160  205.0340  150.2200 N   0  0  0  0  0  0  0  0  0  0  0  0
  161.3010  205.9490  153.7100 C   0  0  0  0  0  3  0  0  0  0  0  0
  161.9980  206.9430  148.4690 S   0  0  0  0  0  0  0  0  0  0  0  0
  161.1510  204.4260  147.8750 C   0  0  0  0  0  2  0  0  0  0  0  0
  161.7290  204.9850  146.5820 C   0  0  0  0  0  2  0  0  0  0  0  0
  161.5810  203.9950  145.4390 C   0  0  0  0  0  3  0  0  0  0  0  0
  160.6090  204.4330  144.5580 F   0  0  0  0  0  0  0  0  0  0  0  0
  161.2180  202.7620  145.9450 F   0  0  0  0  0  0  0  0  0  0  0  0
  160.2500  207.8340  154.8360 C   0  0  0  0  0  2  0  0  0  0  0  0
  161.5680  208.1750  156.0470 S   0  0  0  0  0  0  0  0  0  0  0  0
  161.3820  209.9970  156.0290 C   0  0  1  0  0  3  0  0  0  0  0  0
  163.4200  210.9710  156.1200 O   0  0  0  0  0  1  0  0  0  0  0  0
  162.4350  210.6410  155.2530 N   0  0  0  0  0  2  0  0  0  0  0  0
  159.9860  210.4290  155.5740 C   0  0  1  0  0  3  0  0  0  0  0  0
  159.1770  210.9060  156.7660 C   0  0  0  0  0  1  0  0  0  0  0  0
  160.0540  211.4830  154.5720 N   0  0  0  0  0  2  0  0  0  0  0  0
  158.7530  211.5440  153.9290 C   0  0  0  0  0  1  0  0  0  0  0  0
  162.1790  209.2240  149.9510 C   0  0  0  0  0  2  0  0  0  0  0  0
  162.1290  210.0290  148.6620 C   0  0  0  0  0  2  0  0  0  0  0  0
  162.7040  212.3140  147.9050 C   0  0  0  0  0  1  0  0  0  0  0  0
  161.9900  211.5080  148.9700 C   0  0  0  0  0  2  0  0  0  0  0  0
  1  7  1  0  0  0  0
  2 10  1  0  0  0  0
  3 26  1  1  0  0  0
  3  8  1  0  0  0  0
  4  1  2  0  0  0  0
  5 12  1  6  0  0  0
  5  9  1  0  0  0  0
  6  2  1  0  0  0  0
  7 10  2  0  0  0  0
  7 17  1  0  0  0  0
  8  6  1  0  0  0  0
  8  1  1  0  0  0  0
  9  6  2  0  0  0  0
 11  5  1  0  0  0  0
 11  3  1  0  0  0  0
 13 12  1  0  0  0  0
 14 16  1  0  0  0  0
 14 13  1  0  0  0  0
 15 14  1  0  0  0  0
 17 18  1  0  0  0  0
 19 21  1  6  0  0  0
 19 18  1  0  0  0  0
 21 20  1  0  0  0  0
 22 19  1  0  0  0  0
 22 23  1  1  0  0  0
 24 22  1  0  0  0  0
 25 24  1  0  0  0  0
 27 29  1  0  0  0  0
 27 26  1  0  0  0  0
 28 29  1  0  0  0  0
M  END
>  <MODEL>
5

>  <REMARK>
 VINA RESULT:      -6.7      4.373      9.146
  Name = 
  12 active torsions:
  status: ('A' for Active; 'I' for Inactive)
    1  A    between atoms: C_4  and  C_13
    2  A    between atoms: C_5  and  C_24
    3  A    between atoms: N_7  and  C_21
    4  A    between atoms: C_8  and  C_11
    5  A    between atoms: C_11  and  C_13
    6  A    between atoms: C_14  and  C_21
    7  A    between atoms: C_14  and  S_26
    8  A    between atoms: C_14  and  N_29
    9  A    between atoms: C_15  and  C_19
   10  A    between atoms: C_16  and  C_25
   11  A    between atoms: C_19  and  S_26
   12  A    between atoms: C_24  and  C_25
                            x       y       z     vdW  Elec       q    Type
                         _______ _______ _______ _____ _____    ______ ____

>  <TORSDO>
F 12

$$$$
=
 OpenBabel11042423113D

 29 30  0  0  1  0  0  0  0  0999 V2000
  161.9080  207.4450  151.0050 C   0  0  0  0  0  0  0  0  0  0  0  0
  161.6450  208.9090  148.5130 C   0  0  0  0  0  2  0  0  0  0  0  0
  161.5370  205.2440  149.8100 C   0  0  2  0  0  3  0  0  0  0  0  0
  161.9380  206.8440  152.1130 O   0  0  0  0  0  0  0  0  0  0  0  0
  162.6260  205.4290  147.4210 C   0  0  1  0  0  3  0  0  0  0  0  0
  161.9250  207.4390  148.5470 C   0  0  0  0  0  0  0  0  0  0  0  0
  162.1050  208.9090  150.9640 C   0  0  0  0  0  0  0  0  0  0  0  0
  161.7280  206.7080  149.7770 N   0  0  0  0  0  0  0  0  0  0  0  0
  162.3090  206.8470  147.4590 N   0  0  0  0  0  0  0  0  0  0  0  0
  162.0200  209.5730  149.8080 C   0  0  0  0  0  3  0  0  0  0  0  0
  161.2530  204.5100  148.1540 S   0  0  0  0  0  0  0  0  0  0  0  0
  162.8270  204.9780  145.9830 C   0  0  0  0  0  2  0  0  0  0  0  0
  161.6440  204.1560  145.4930 C   0  0  0  0  0  2  0  0  0  0  0  0
  160.7810  204.9520  144.5270 C   0  0  0  0  0  3  0  0  0  0  0  0
  161.5730  205.5180  143.5440 F   0  0  0  0  0  0  0  0  0  0  0  0
  160.1260  205.9530  145.2180 F   0  0  0  0  0  0  0  0  0  0  0  0
  162.4240  209.6670  152.2060 C   0  0  0  0  0  2  0  0  0  0  0  0
  160.8870  210.2430  152.9960 S   0  0  0  0  0  0  0  0  0  0  0  0
  161.5330  210.2300  154.7100 C   0  0  1  0  0  3  0  0  0  0  0  0
  160.2960  212.1210  154.7890 O   0  0  0  0  0  1  0  0  0  0  0  0
  160.7870  211.1360  155.5760 N   0  0  0  0  0  2  0  0  0  0  0  0
  161.6070  208.8150  155.2870 C   0  0  1  0  0  3  0  0  0  0  0  0
  161.7770  208.8770  156.7940 C   0  0  0  0  0  1  0  0  0  0  0  0
  160.4190  208.0410  154.9570 N   0  0  0  0  0  2  0  0  0  0  0  0
  159.9820  207.3890  156.1790 C   0  0  0  0  0  1  0  0  0  0  0  0
  160.3520  204.8770  150.7010 C   0  0  0  0  0  2  0  0  0  0  0  0
  160.7630  203.8960  151.7880 C   0  0  0  0  0  2  0  0  0  0  0  0
  160.8000  201.7400  150.5750 C   0  0  0  0  0  1  0  0  0  0  0  0
  161.6560  202.8140  151.2110 C   0  0  0  0  0  2  0  0  0  0  0  0
  1  4  2  0  0  0  0
  2  6  1  0  0  0  0
  2 10  1  0  0  0  0
  3 26  1  1  0  0  0
  5 12  1  6  0  0  0
  5  9  1  0  0  0  0
  5 11  1  0  0  0  0
  6  8  1  0  0  0  0
  7  1  1  0  0  0  0
  7 17  1  0  0  0  0
  8  3  1  0  0  0  0
  8  1  1  0  0  0  0
  9  6  2  0  0  0  0
 10  7  2  0  0  0  0
 11  3  1  0  0  0  0
 13 12  1  0  0  0  0
 14 16  1  0  0  0  0
 14 13  1  0  0  0  0
 15 14  1  0  0  0  0
 17 18  1  0  0  0  0
 19 18  1  6  0  0  0
 19 22  1  0  0  0  0
 19 21  1  0  0  0  0
 20 21  1  0  0  0  0
 22 23  1  1  0  0  0
 24 22  1  0  0  0  0
 24 25  1  0  0  0  0
 26 27  1  0  0  0  0
 28 29  1  0  0  0  0
 29 27  1  0  0  0  0
M  END
>  <MODEL>
6

>  <REMARK>
 VINA RESULT:      -6.6      4.196      8.163
  Name = 
  12 active torsions:
  status: ('A' for Active; 'I' for Inactive)
    1  A    between atoms: C_4  and  C_13
    2  A    between atoms: C_5  and  C_24
    3  A    between atoms: N_7  and  C_21
    4  A    between atoms: C_8  and  C_11
    5  A    between atoms: C_11  and  C_13
    6  A    between atoms: C_14  and  C_21
    7  A    between atoms: C_14  and  S_26
    8  A    between atoms: C_14  and  N_29
    9  A    between atoms: C_15  and  C_19
   10  A    between atoms: C_16  and  C_25
   11  A    between atoms: C_19  and  S_26
   12  A    between atoms: C_24  and  C_25
                            x       y       z     vdW  Elec       q    Type
                         _______ _______ _______ _____ _____    ______ ____

>  <TORSDO>
F 12

$$$$
=
 OpenBabel11042423113D

 29 30  0  0  1  0  0  0  0  0999 V2000
  161.2520  205.4910  151.4880 C   0  0  0  0  0  0  0  0  0  0  0  0
  160.9680  207.7750  149.7210 C   0  0  0  0  0  2  0  0  0  0  0  0
  161.2540  203.9010  149.5180 C   0  0  2  0  0  3  0  0  0  0  0  0
  161.2870  204.5140  152.2840 O   0  0  0  0  0  0  0  0  0  0  0  0
  162.4670  205.1020  147.5140 C   0  0  1  0  0  3  0  0  0  0  0  0
  161.4350  206.4410  149.2280 C   0  0  0  0  0  0  0  0  0  0  0  0
  161.2590  206.8690  152.0250 C   0  0  0  0  0  0  0  0  0  0  0  0
  161.2530  205.2750  150.0620 N   0  0  0  0  0  0  0  0  0  0  0  0
  161.9650  206.3560  148.0480 N   0  0  0  0  0  0  0  0  0  0  0  0
  161.1650  207.9170  151.2030 C   0  0  0  0  0  3  0  0  0  0  0  0
  161.1800  203.8450  147.6870 S   0  0  0  0  0  0  0  0  0  0  0  0
  162.8220  205.2640  146.0440 C   0  0  0  0  0  2  0  0  0  0  0  0
  162.0100  204.3160  145.1740 C   0  0  0  0  0  2  0  0  0  0  0  0
  160.9450  205.0630  144.3880 C   0  0  0  0  0  3  0  0  0  0  0  0
  160.5920  206.2220  145.0570 F   0  0  0  0  0  0  0  0  0  0  0  0
  159.8310  204.2590  144.2480 F   0  0  0  0  0  0  0  0  0  0  0  0
  161.3920  207.1120  153.4890 C   0  0  0  0  0  2  0  0  0  0  0  0
  161.1880  208.8870  153.8450 S   0  0  0  0  0  0  0  0  0  0  0  0
  160.2940  208.6660  155.4290 C   0  0  1  0  0  3  0  0  0  0  0  0
  160.3400  207.1120  157.0710 O   0  0  0  0  0  1  0  0  0  0  0  0
  160.0980  207.2560  155.7470 N   0  0  0  0  0  2  0  0  0  0  0  0
  160.9570  209.4290  156.5760 C   0  0  1  0  0  3  0  0  0  0  0  0
  162.2380  210.0840  156.0920 C   0  0  0  0  0  1  0  0  0  0  0  0
  160.0670  210.4380  157.1320 N   0  0  0  0  0  2  0  0  0  0  0  0
  160.1830  211.6170  156.2920 C   0  0  0  0  0  1  0  0  0  0  0  0
  160.0700  203.1070  150.0650 C   0  0  0  0  0  2  0  0  0  0  0  0
  159.9340  201.7660  149.3610 C   0  0  0  0  0  2  0  0  0  0  0  0
  161.5800  200.2990  148.2380 C   0  0  0  0  0  1  0  0  0  0  0  0
  161.1910  200.9400  149.5540 C   0  0  0  0  0  2  0  0  0  0  0  0
  1  7  1  0  0  0  0
  1  4  2  0  0  0  0
  2 10  1  0  0  0  0
  3  8  1  0  0  0  0
  3 26  1  1  0  0  0
  5 12  1  6  0  0  0
  5 11  1  0  0  0  0
  5  9  1  0  0  0  0
  6  2  1  0  0  0  0
  6  8  1  0  0  0  0
  7 17  1  0  0  0  0
  8  1  1  0  0  0  0
  9  6  2  0  0  0  0
 10  7  2  0  0  0  0
 11  3  1  0  0  0  0
 13 12  1  0  0  0  0
 14 15  1  0  0  0  0
 14 13  1  0  0  0  0
 16 14  1  0  0  0  0
 17 18  1  0  0  0  0
 19 18  1  6  0  0  0
 19 21  1  0  0  0  0
 19 22  1  0  0  0  0
 21 20  1  0  0  0  0
 22 23  1  6  0  0  0
 22 24  1  0  0  0  0
 25 24  1  0  0  0  0
 27 29  1  0  0  0  0
 27 26  1  0  0  0  0
 28 29  1  0  0  0  0
M  END
>  <MODEL>
7

>  <REMARK>
 VINA RESULT:      -6.6      4.181      8.602
  Name = 
  12 active torsions:
  status: ('A' for Active; 'I' for Inactive)
    1  A    between atoms: C_4  and  C_13
    2  A    between atoms: C_5  and  C_24
    3  A    between atoms: N_7  and  C_21
    4  A    between atoms: C_8  and  C_11
    5  A    between atoms: C_11  and  C_13
    6  A    between atoms: C_14  and  C_21
    7  A    between atoms: C_14  and  S_26
    8  A    between atoms: C_14  and  N_29
    9  A    between atoms: C_15  and  C_19
   10  A    between atoms: C_16  and  C_25
   11  A    between atoms: C_19  and  S_26
   12  A    between atoms: C_24  and  C_25
                            x       y       z     vdW  Elec       q    Type
                         _______ _______ _______ _____ _____    ______ ____

>  <TORSDO>
F 12

$$$$
=
 OpenBabel11042423113D

 29 30  0  0  1  0  0  0  0  0999 V2000
  161.8510  207.2990  150.9420 C   0  0  0  0  0  0  0  0  0  0  0  0
  161.6180  208.6780  148.4000 C   0  0  0  0  0  2  0  0  0  0  0  0
  161.5270  205.0560  149.8150 C   0  0  2  0  0  3  0  0  0  0  0  0
  161.8670  206.7360  152.0710 O   0  0  0  0  0  0  0  0  0  0  0  0
  162.6590  205.1760  147.4410 C   0  0  1  0  0  3  0  0  0  0  0  0
  161.9140  207.2130  148.4870 C   0  0  0  0  0  0  0  0  0  0  0  0
  162.0320  208.7640  150.8570 C   0  0  0  0  0  0  0  0  0  0  0  0
  161.7020  206.5210  149.7370 N   0  0  0  0  0  0  0  0  0  0  0  0
  162.3250  206.5900  147.4270 N   0  0  0  0  0  0  0  0  0  0  0  0
  161.9610  209.3880  149.6780 C   0  0  0  0  0  3  0  0  0  0  0  0
  161.2830  204.2660  148.1790 S   0  0  0  0  0  0  0  0  0  0  0  0
  162.8920  204.6800  146.0230 C   0  0  0  0  0  2  0  0  0  0  0  0
  162.3030  205.6400  144.9990 C   0  0  0  0  0  2  0  0  0  0  0  0
  160.9380  205.1690  144.5240 C   0  0  0  0  0  3  0  0  0  0  0  0
  159.9430  205.9030  145.1450 F   0  0  0  0  0  0  0  0  0  0  0  0
  160.7810  203.8320  144.8340 F   0  0  0  0  0  0  0  0  0  0  0  0
  162.3200  209.5660  152.0790 C   0  0  0  0  0  2  0  0  0  0  0  0
  160.9840  210.7730  152.3600 S   0  0  0  0  0  0  0  0  0  0  0  0
  160.2860  209.9490  153.8400 C   0  0  1  0  0  3  0  0  0  0  0  0
  160.8250  208.2070  155.1760 O   0  0  0  0  0  1  0  0  0  0  0  0
  161.3270  209.3570  154.6710 N   0  0  0  0  0  2  0  0  0  0  0  0
  159.3700  210.8780  154.6380 C   0  0  1  0  0  3  0  0  0  0  0  0
  160.1810  212.0050  155.2500 C   0  0  0  0  0  1  0  0  0  0  0  0
  158.3110  211.4300  153.8050 N   0  0  0  0  0  2  0  0  0  0  0  0
  157.4920  212.2720  154.6580 C   0  0  0  0  0  1  0  0  0  0  0  0
  160.3300  204.7050  150.6950 C   0  0  0  0  0  2  0  0  0  0  0  0
  160.7200  203.7230  151.7890 C   0  0  0  0  0  2  0  0  0  0  0  0
  160.7230  201.5920  150.5320 C   0  0  0  0  0  1  0  0  0  0  0  0
  161.5940  202.6210  151.2220 C   0  0  0  0  0  2  0  0  0  0  0  0
  1  4  2  0  0  0  0
  2  6  1  0  0  0  0
  2 10  1  0  0  0  0
  3 26  1  1  0  0  0
  5 12  1  6  0  0  0
  5 11  1  0  0  0  0
  6  8  1  0  0  0  0
  7  1  1  0  0  0  0
  7 17  1  0  0  0  0
  8  3  1  0  0  0  0
  8  1  1  0  0  0  0
  9  5  1  0  0  0  0
  9  6  2  0  0  0  0
 10  7  2  0  0  0  0
 11  3  1  0  0  0  0
 13 12  1  0  0  0  0
 14 16  1  0  0  0  0
 14 13  1  0  0  0  0
 14 15  1  0  0  0  0
 17 18  1  0  0  0  0
 19 18  1  6  0  0  0
 19 22  1  0  0  0  0
 19 21  1  0  0  0  0
 21 20  1  0  0  0  0
 22 23  1  6  0  0  0
 24 22  1  0  0  0  0
 24 25  1  0  0  0  0
 26 27  1  0  0  0  0
 28 29  1  0  0  0  0
 29 27  1  0  0  0  0
M  END
>  <MODEL>
8

>  <REMARK>
 VINA RESULT:      -6.4      4.237      8.240
  Name = 
  12 active torsions:
  status: ('A' for Active; 'I' for Inactive)
    1  A    between atoms: C_4  and  C_13
    2  A    between atoms: C_5  and  C_24
    3  A    between atoms: N_7  and  C_21
    4  A    between atoms: C_8  and  C_11
    5  A    between atoms: C_11  and  C_13
    6  A    between atoms: C_14  and  C_21
    7  A    between atoms: C_14  and  S_26
    8  A    between atoms: C_14  and  N_29
    9  A    between atoms: C_15  and  C_19
   10  A    between atoms: C_16  and  C_25
   11  A    between atoms: C_19  and  S_26
   12  A    between atoms: C_24  and  C_25
                            x       y       z     vdW  Elec       q    Type
                         _______ _______ _______ _____ _____    ______ ____

>  <TORSDO>
F 12

$$$$
=
 OpenBabel11042423113D

 29 30  0  0  1  0  0  0  0  0999 V2000
  161.9340  207.1570  150.9720 C   0  0  0  0  0  0  0  0  0  0  0  0
  161.5540  208.6870  148.5350 C   0  0  0  0  0  2  0  0  0  0  0  0
  161.6680  204.9800  149.7080 C   0  0  2  0  0  3  0  0  0  0  0  0
  162.0130  206.5230  152.0590 O   0  0  0  0  0  0  0  0  0  0  0  0
  162.7100  205.3050  147.3120 C   0  0  1  0  0  3  0  0  0  0  0  0
  161.9160  207.2340  148.5150 C   0  0  0  0  0  0  0  0  0  0  0  0
  162.0500  208.6310  150.9780 C   0  0  0  0  0  0  0  0  0  0  0  0
  161.7770  206.4530  149.7220 N   0  0  0  0  0  0  0  0  0  0  0  0
  162.3160  206.7010  147.4030 N   0  0  0  0  0  0  0  0  0  0  0  0
  161.9110  209.3270  149.8470 C   0  0  0  0  0  3  0  0  0  0  0  0
  161.4010  204.2880  148.0310 S   0  0  0  0  0  0  0  0  0  0  0  0
  162.9150  204.9140  145.8580 C   0  0  0  0  0  2  0  0  0  0  0  0
  161.8170  203.9740  145.3810 C   0  0  0  0  0  2  0  0  0  0  0  0
  160.8380  204.6900  144.4650 C   0  0  0  0  0  3  0  0  0  0  0  0
  160.3190  205.8010  145.1050 F   0  0  0  0  0  0  0  0  0  0  0  0
  159.8090  203.8300  144.1340 F   0  0  0  0  0  0  0  0  0  0  0  0
  162.3450  209.3640  152.2410 C   0  0  0  0  0  2  0  0  0  0  0  0
  160.8850  209.3380  153.3310 S   0  0  0  0  0  0  0  0  0  0  0  0
  161.0160  211.0830  153.8730 C   0  0  1  0  0  3  0  0  0  0  0  0
  159.3110  211.2120  152.3930 O   0  0  0  0  0  1  0  0  0  0  0  0
  159.8720  211.8730  153.4320 N   0  0  0  0  0  2  0  0  0  0  0  0
  161.2510  211.2020  155.3800 C   0  0  1  0  0  3  0  0  0  0  0  0
  160.0970  211.9470  156.0270 C   0  0  0  0  0  1  0  0  0  0  0  0
  161.4030  209.8950  156.0020 N   0  0  0  0  0  2  0  0  0  0  0  0
  162.6170  209.9400  156.7980 C   0  0  0  0  0  1  0  0  0  0  0  0
  160.5180  204.5180  150.6000 C   0  0  0  0  0  2  0  0  0  0  0  0
  160.0640  203.1150  150.2310 C   0  0  0  0  0  2  0  0  0  0  0  0
  161.2040  200.9550  149.8330 C   0  0  0  0  0  1  0  0  0  0  0  0
  161.0060  202.0830  150.8230 C   0  0  0  0  0  2  0  0  0  0  0  0
  1  7  1  0  0  0  0
  1  4  2  0  0  0  0
  2 10  1  0  0  0  0
  3  8  1  0  0  0  0
  3 26  1  1  0  0  0
  5 12  1  6  0  0  0
  5  9  1  0  0  0  0
  5 11  1  0  0  0  0
  6  2  1  0  0  0  0
  6  8  1  0  0  0  0
  7 17  1  0  0  0  0
  8  1  1  0  0  0  0
  9  6  2  0  0  0  0
 10  7  2  0  0  0  0
 11  3  1  0  0  0  0
 13 12  1  0  0  0  0
 14 15  1  0  0  0  0
 14 13  1  0  0  0  0
 16 14  1  0  0  0  0
 17 18  1  0  0  0  0
 19 18  1  1  0  0  0
 19 22  1  0  0  0  0
 20 21  1  0  0  0  0
 21 19  1  0  0  0  0
 22 24  1  0  0  0  0
 22 23  1  1  0  0  0
 24 25  1  0  0  0  0
 27 26  1  0  0  0  0
 27 29  1  0  0  0  0
 28 29  1  0  0  0  0
M  END
>  <MODEL>
9

>  <REMARK>
 VINA RESULT:      -6.3      4.192      8.340
  Name = 
  12 active torsions:
  status: ('A' for Active; 'I' for Inactive)
    1  A    between atoms: C_4  and  C_13
    2  A    between atoms: C_5  and  C_24
    3  A    between atoms: N_7  and  C_21
    4  A    between atoms: C_8  and  C_11
    5  A    between atoms: C_11  and  C_13
    6  A    between atoms: C_14  and  C_21
    7  A    between atoms: C_14  and  S_26
    8  A    between atoms: C_14  and  N_29
    9  A    between atoms: C_15  and  C_19
   10  A    between atoms: C_16  and  C_25
   11  A    between atoms: C_19  and  S_26
   12  A    between atoms: C_24  and  C_25
                            x       y       z     vdW  Elec       q    Type
                         _______ _______ _______ _____ _____    ______ ____

>  <TORSDO>
F 12

$$$$
