=
 OpenBabel11052410343D

 40 42  0  0  1  0  0  0  0  0999 V2000
  160.2970  211.0590  154.2580 C   0  0  0  0  0  0  0  0  0  0  0  0
  161.0230  211.8350  155.3040 C   0  0  2  0  0  3  0  0  0  0  0  0
  161.1030  209.9290  154.4040 C   0  0  0  0  0  0  0  0  0  0  0  0
  162.2500  210.6920  155.5850 S   0  0  0  0  0  0  0  0  0  0  0  0
  161.1660  206.0850  152.5380 C   0  0  0  0  0  0  0  0  0  0  0  0
  161.5240  207.2370  151.8280 C   0  0  0  0  0  3  0  0  0  0  0  0
  160.4300  207.4790  155.9720 C   0  0  0  0  0  1  0  0  0  0  0  0
  161.1020  208.5950  153.7920 C   0  0  0  0  0  0  0  0  0  0  0  0
  160.8010  206.1880  153.8820 C   0  0  0  0  0  3  0  0  0  0  0  0
  160.7640  207.4330  154.5180 C   0  0  0  0  0  0  0  0  0  0  0  0
  161.4980  208.4830  152.4560 C   0  0  0  0  0  3  0  0  0  0  0  0
  161.1810  204.8030  151.9110 N   0  0  0  0  0  0  0  0  0  0  0  0
  160.5560  201.9670  147.8310 C   0  0  1  0  0  3  0  0  0  0  0  0
  161.1580  204.6760  150.5140 N   0  0  0  0  0  0  0  0  0  0  0  0
  160.7590  201.8330  146.3330 C   0  0  0  0  0  1  0  0  0  0  0  0
  161.3080  200.8870  148.5880 C   0  0  0  0  0  2  0  0  0  0  0  0
  161.0530  202.3160  150.5920 N   0  0  0  0  0  0  0  0  0  0  0  0
  160.9210  203.3640  148.3700 C   0  0  1  0  0  3  0  0  0  0  0  0
  160.8790  200.9640  150.0490 C   0  0  0  0  0  2  0  0  0  0  0  0
  161.0120  203.4070  149.8790 C   0  0  0  0  0  0  0  0  0  0  0  0
  161.7660  204.9450  146.9240 O   0  0  0  0  0  1  0  0  0  0  0  0
  162.1260  203.9250  147.7470 N   0  0  0  0  0  2  0  0  0  0  0  0
  157.6230  210.5560  153.5460 Cl  0  0  0  0  0  0  0  0  0  0  0  0
  158.4800  213.9880  151.0000 C   0  0  0  0  0  1  0  0  0  0  0  0
  159.5380  213.0110  151.3850 C   0  0  0  0  0  0  0  0  0  0  0  0
  159.3290  212.2150  152.3960 C   0  0  0  0  0  0  0  0  0  0  0  0
  159.1510  211.4050  153.4000 C   0  0  0  0  0  0  0  0  0  0  0  0
  161.0080  214.0340  149.7980 O   0  0  0  0  0  1  0  0  0  0  0  0
  160.8640  212.9630  150.6840 C   0  0  2  0  0  3  0  0  0  0  0  0
  161.0070  211.6460  149.9280 C   0  0  0  0  0  2  0  0  0  0  0  0
  160.8210  212.0530  147.4550 C   0  0  0  0  0  1  0  0  0  0  0  0
  161.7720  211.7970  148.6110 C   0  0  2  0  0  3  0  0  0  0  0  0
  162.5620  210.6710  148.3480 O   0  0  0  0  0  0  0  0  0  0  0  0
  161.9420  209.6240  149.0360 C   0  0  0  0  0  2  0  0  0  0  0  0
  160.8990  207.4880  148.3540 C   0  0  0  0  0  1  0  0  0  0  0  0
  162.1630  208.3200  148.2930 C   0  0  2  0  0  3  0  0  0  0  0  0
  163.2100  207.6120  148.8840 O   0  0  0  0  0  1  0  0  0  0  0  0
  160.1840  212.0230  156.5350 C   0  0  0  0  0  0  0  0  0  0  0  0
  160.0250  213.1810  157.0060 O   0  0  0  0  0  0  0  0  0  0  0  0
  159.5900  210.9360  157.1670 O   0  0  0  0  0  1  0  0  0  0  0  0
  1  3  2  0  0  0  0
  1  2  1  0  0  0  0
  2  4  1  0  0  0  0
  2 38  1  1  0  0  0
  3  4  1  0  0  0  0
  5  9  1  0  0  0  0
  6 11  1  0  0  0  0
  6  5  2  0  0  0  0
  8  3  1  0  0  0  0
  8 10  1  0  0  0  0
  9 10  2  0  0  0  0
 10  7  1  0  0  0  0
 11  8  2  0  0  0  0
 12  5  1  0  0  0  0
 13 15  1  6  0  0  0
 13 18  1  0  0  0  0
 13 16  1  0  0  0  0
 14 12  2  0  0  0  0
 16 19  1  0  0  0  0
 18 22  1  6  0  0  0
 18 20  1  0  0  0  0
 19 17  1  0  0  0  0
 20 14  1  0  0  0  0
 20 17  2  0  0  0  0
 21 22  1  0  0  0  0
 24 25  1  0  0  0  0
 25 26  2  0  0  0  0
 26 27  2  0  0  0  0
 27 23  1  0  0  0  0
 27  1  1  0  0  0  0
 29 28  1  6  0  0  0
 29 25  1  0  0  0  0
 30 29  1  0  0  0  0
 32 31  1  6  0  0  0
 32 30  1  0  0  0  0
 33 32  1  0  0  0  0
 33 34  1  0  0  0  0
 36 35  1  1  0  0  0
 36 37  1  0  0  0  0
 36 34  1  0  0  0  0
 38 39  2  0  0  0  0
 38 40  1  0  0  0  0
M  END
>  <MODEL>
1

>  <REMARK>
 VINA RESULT:      -6.3      0.000      0.000
  Name = 
  12 active torsions:
  status: ('A' for Active; 'I' for Inactive)
    1  A    between atoms: C_2  and  C_29
    2  A    between atoms: C_5  and  N_22
    3  A    between atoms: N_8  and  N_22
    4  A    between atoms: C_9  and  C_34
    5  A    between atoms: C_9  and  C_35
    6  A    between atoms: C_15  and  C_30
    7  A    between atoms: C_16  and  C_32
    8  A    between atoms: O_18  and  C_34
    9  A    between atoms: O_18  and  C_37
   10  A    between atoms: C_21  and  C_37
   11  A    between atoms: C_23  and  N_39
   12  A    between atoms: C_24  and  C_35
                            x       y       z     vdW  Elec       q    Type
                         _______ _______ _______ _____ _____    ______ ____

>  <TORSDO>
F 12

$$$$
=
 OpenBabel11052410343D

 40 42  0  0  1  0  0  0  0  0999 V2000
  160.9210  209.8240  155.0830 C   0  0  0  0  0  0  0  0  0  0  0  0
  161.9480  210.8800  155.3120 C   0  0  2  0  0  3  0  0  0  0  0  0
  161.6870  209.1540  154.1290 C   0  0  0  0  0  0  0  0  0  0  0  0
  163.0210  210.3840  154.0900 S   0  0  0  0  0  0  0  0  0  0  0  0
  161.0990  205.5150  151.9670 C   0  0  0  0  0  0  0  0  0  0  0  0
  161.2160  205.5140  153.3620 C   0  0  0  0  0  3  0  0  0  0  0  0
  161.3400  209.1990  151.1630 C   0  0  0  0  0  1  0  0  0  0  0  0
  161.4950  207.9220  153.3530 C   0  0  0  0  0  0  0  0  0  0  0  0
  161.1550  206.7240  151.2700 C   0  0  0  0  0  3  0  0  0  0  0  0
  161.3530  207.9300  151.9490 C   0  0  0  0  0  0  0  0  0  0  0  0
  161.4060  206.7130  154.0490 C   0  0  0  0  0  3  0  0  0  0  0  0
  160.9090  204.2980  151.2470 N   0  0  0  0  0  0  0  0  0  0  0  0
  160.4970  201.7460  146.9570 C   0  0  1  0  0  3  0  0  0  0  0  0
  160.8520  204.2830  149.8450 N   0  0  0  0  0  0  0  0  0  0  0  0
  160.6610  201.7610  145.4480 C   0  0  0  0  0  1  0  0  0  0  0  0
  161.4050  200.7130  147.6000 C   0  0  0  0  0  2  0  0  0  0  0  0
  161.0450  201.9290  149.7240 N   0  0  0  0  0  0  0  0  0  0  0  0
  160.7040  203.1300  147.6030 C   0  0  1  0  0  3  0  0  0  0  0  0
  161.0220  200.6150  149.0730 C   0  0  0  0  0  2  0  0  0  0  0  0
  160.8430  203.0600  149.1080 C   0  0  0  0  0  0  0  0  0  0  0  0
  161.2990  204.9720  146.3570 O   0  0  0  0  0  1  0  0  0  0  0  0
  161.8070  203.8880  147.0000 N   0  0  0  0  0  2  0  0  0  0  0  0
  158.9300  207.9940  155.8560 Cl  0  0  0  0  0  0  0  0  0  0  0  0
  157.1530  211.7210  157.2520 C   0  0  0  0  0  1  0  0  0  0  0  0
  158.0450  211.6740  156.0580 C   0  0  0  0  0  0  0  0  0  0  0  0
  158.8110  210.6340  155.8790 C   0  0  0  0  0  0  0  0  0  0  0  0
  159.5880  209.6100  155.6710 C   0  0  0  0  0  0  0  0  0  0  0  0
  157.3130  213.8780  155.4820 O   0  0  0  0  0  1  0  0  0  0  0  0
  158.1370  212.8180  155.0920 C   0  0  2  0  0  3  0  0  0  0  0  0
  157.7460  212.3520  153.6920 C   0  0  0  0  0  2  0  0  0  0  0  0
  156.5530  213.9560  152.1700 C   0  0  0  0  0  1  0  0  0  0  0  0
  157.9060  213.4460  152.6350 C   0  0  2  0  0  3  0  0  0  0  0  0
  158.6550  212.9950  151.5410 O   0  0  0  0  0  0  0  0  0  0  0  0
  158.6120  214.0410  150.6160 C   0  0  0  0  0  2  0  0  0  0  0  0
  159.2220  213.7920  148.2320 C   0  0  0  0  0  1  0  0  0  0  0  0
  159.7660  213.9100  149.6400 C   0  0  2  0  0  3  0  0  0  0  0  0
  160.5120  212.7700  149.9430 O   0  0  0  0  0  1  0  0  0  0  0  0
  162.5880  210.7440  156.6640 C   0  0  0  0  0  0  0  0  0  0  0  0
  163.0020  211.7740  157.2610 O   0  0  0  0  0  1  0  0  0  0  0  0
  162.7390  209.4970  157.2600 O   0  0  0  0  0  0  0  0  0  0  0  0
  1  2  1  0  0  0  0
  1 27  1  0  0  0  0
  2 38  1  1  0  0  0
  3  1  2  0  0  0  0
  4  3  1  0  0  0  0
  4  2  1  0  0  0  0
  5  6  1  0  0  0  0
  6 11  2  0  0  0  0
  7 10  1  0  0  0  0
  8 11  1  0  0  0  0
  8  3  1  0  0  0  0
  9 10  1  0  0  0  0
  9  5  2  0  0  0  0
 10  8  2  0  0  0  0
 12  5  1  0  0  0  0
 13 15  1  6  0  0  0
 13 16  1  0  0  0  0
 13 18  1  0  0  0  0
 14 12  2  0  0  0  0
 16 19  1  0  0  0  0
 18 22  1  6  0  0  0
 18 20  1  0  0  0  0
 19 17  1  0  0  0  0
 20 17  2  0  0  0  0
 20 14  1  0  0  0  0
 21 22  1  0  0  0  0
 25 24  1  0  0  0  0
 26 25  2  0  0  0  0
 27 23  1  0  0  0  0
 27 26  2  0  0  0  0
 29 28  1  1  0  0  0
 29 25  1  0  0  0  0
 30 29  1  0  0  0  0
 32 31  1  6  0  0  0
 32 30  1  0  0  0  0
 33 32  1  0  0  0  0
 34 33  1  0  0  0  0
 36 35  1  6  0  0  0
 36 37  1  0  0  0  0
 36 34  1  0  0  0  0
 38 40  2  0  0  0  0
 38 39  1  0  0  0  0
M  END
>  <MODEL>
2

>  <REMARK>
 VINA RESULT:      -5.6      1.962      3.764
  Name = 
  12 active torsions:
  status: ('A' for Active; 'I' for Inactive)
    1  A    between atoms: C_2  and  C_29
    2  A    between atoms: C_5  and  N_22
    3  A    between atoms: N_8  and  N_22
    4  A    between atoms: C_9  and  C_34
    5  A    between atoms: C_9  and  C_35
    6  A    between atoms: C_15  and  C_30
    7  A    between atoms: C_16  and  C_32
    8  A    between atoms: O_18  and  C_34
    9  A    between atoms: O_18  and  C_37
   10  A    between atoms: C_21  and  C_37
   11  A    between atoms: C_23  and  N_39
   12  A    between atoms: C_24  and  C_35
                            x       y       z     vdW  Elec       q    Type
                         _______ _______ _______ _____ _____    ______ ____

>  <TORSDO>
F 12

$$$$
=
 OpenBabel11052410343D

 40 42  0  0  1  0  0  0  0  0999 V2000
  160.5580  210.6270  154.5460 C   0  0  0  0  0  0  0  0  0  0  0  0
  161.6520  211.4950  155.0690 C   0  0  2  0  0  3  0  0  0  0  0  0
  161.4320  209.6390  154.0920 C   0  0  0  0  0  0  0  0  0  0  0  0
  162.9460  210.5600  154.4850 S   0  0  0  0  0  0  0  0  0  0  0  0
  160.9390  205.8660  152.1450 C   0  0  0  0  0  0  0  0  0  0  0  0
  161.2850  207.0130  151.4190 C   0  0  0  0  0  3  0  0  0  0  0  0
  160.7950  207.1920  155.6800 C   0  0  0  0  0  1  0  0  0  0  0  0
  161.2440  208.3300  153.4550 C   0  0  0  0  0  0  0  0  0  0  0  0
  160.7730  205.9500  153.5290 C   0  0  0  0  0  3  0  0  0  0  0  0
  160.9210  207.1720  154.1930 C   0  0  0  0  0  0  0  0  0  0  0  0
  161.4420  208.2350  152.0730 C   0  0  0  0  0  3  0  0  0  0  0  0
  160.7690  204.6100  151.4920 N   0  0  0  0  0  0  0  0  0  0  0  0
  160.6450  201.7810  147.3600 C   0  0  1  0  0  3  0  0  0  0  0  0
  160.8820  204.4920  150.0990 N   0  0  0  0  0  0  0  0  0  0  0  0
  160.9910  201.6670  145.8870 C   0  0  0  0  0  1  0  0  0  0  0  0
  161.3660  200.7270  148.1800 C   0  0  0  0  0  2  0  0  0  0  0  0
  160.8670  202.1290  150.1570 N   0  0  0  0  0  0  0  0  0  0  0  0
  160.9000  203.1880  147.9360 C   0  0  1  0  0  3  0  0  0  0  0  0
  160.8000  200.7750  149.5950 C   0  0  0  0  0  2  0  0  0  0  0  0
  160.8470  203.2230  149.4480 C   0  0  0  0  0  0  0  0  0  0  0  0
  161.9640  205.1480  147.3660 O   0  0  0  0  0  1  0  0  0  0  0  0
  162.1340  203.8020  147.4310 N   0  0  0  0  0  2  0  0  0  0  0  0
  158.0360  209.5790  155.2190 Cl  0  0  0  0  0  0  0  0  0  0  0  0
  156.8670  213.4510  153.5950 C   0  0  0  0  0  1  0  0  0  0  0  0
  158.0750  212.7250  153.1060 C   0  0  0  0  0  0  0  0  0  0  0  0
  158.5730  211.7630  153.8310 C   0  0  0  0  0  0  0  0  0  0  0  0
  159.0950  210.7960  154.5300 C   0  0  0  0  0  0  0  0  0  0  0  0
  159.1800  214.4510  151.8700 O   0  0  0  0  0  1  0  0  0  0  0  0
  158.7730  213.1140  151.8360 C   0  0  2  0  0  3  0  0  0  0  0  0
  157.8480  212.8890  150.6420 C   0  0  0  0  0  2  0  0  0  0  0  0
  157.2160  213.5830  148.3110 C   0  0  0  0  0  1  0  0  0  0  0  0
  158.2490  213.7130  149.4170 C   0  0  2  0  0  3  0  0  0  0  0  0
  159.5140  213.3410  148.9430 O   0  0  0  0  0  0  0  0  0  0  0  0
  159.3600  213.2160  147.5590 C   0  0  0  0  0  2  0  0  0  0  0  0
  161.5560  212.2040  148.0760 C   0  0  0  0  0  1  0  0  0  0  0  0
  160.5600  212.4960  146.9740 C   0  0  2  0  0  3  0  0  0  0  0  0
  161.1650  213.2990  146.0060 O   0  0  0  0  0  1  0  0  0  0  0  0
  161.6590  211.5300  156.5700 C   0  0  0  0  0  0  0  0  0  0  0  0
  160.8170  210.8460  157.2110 O   0  0  0  0  0  0  0  0  0  0  0  0
  162.5750  212.3160  157.2600 O   0  0  0  0  0  1  0  0  0  0  0  0
  1  2  1  0  0  0  0
  2 38  1  1  0  0  0
  3  4  1  0  0  0  0
  3  1  2  0  0  0  0
  4  2  1  0  0  0  0
  5  9  1  0  0  0  0
  6 11  1  0  0  0  0
  6  5  2  0  0  0  0
  8  3  1  0  0  0  0
  8 10  1  0  0  0  0
  9 10  2  0  0  0  0
 10  7  1  0  0  0  0
 11  8  2  0  0  0  0
 12  5  1  0  0  0  0
 13 15  1  6  0  0  0
 13 18  1  0  0  0  0
 13 16  1  0  0  0  0
 14 12  2  0  0  0  0
 16 19  1  0  0  0  0
 18 22  1  1  0  0  0
 18 20  1  0  0  0  0
 19 17  1  0  0  0  0
 20 14  1  0  0  0  0
 20 17  2  0  0  0  0
 21 22  1  0  0  0  0
 25 24  1  0  0  0  0
 25 26  2  0  0  0  0
 26 27  2  0  0  0  0
 27  1  1  0  0  0  0
 27 23  1  0  0  0  0
 29 28  1  1  0  0  0
 29 25  1  0  0  0  0
 30 29  1  0  0  0  0
 32 31  1  6  0  0  0
 32 30  1  0  0  0  0
 33 32  1  0  0  0  0
 34 33  1  0  0  0  0
 36 34  1  0  0  0  0
 36 35  1  1  0  0  0
 37 36  1  0  0  0  0
 38 39  2  0  0  0  0
 38 40  1  0  0  0  0
M  END
>  <MODEL>
3

>  <REMARK>
 VINA RESULT:      -5.2      1.532      2.429
  Name = 
  12 active torsions:
  status: ('A' for Active; 'I' for Inactive)
    1  A    between atoms: C_2  and  C_29
    2  A    between atoms: C_5  and  N_22
    3  A    between atoms: N_8  and  N_22
    4  A    between atoms: C_9  and  C_34
    5  A    between atoms: C_9  and  C_35
    6  A    between atoms: C_15  and  C_30
    7  A    between atoms: C_16  and  C_32
    8  A    between atoms: O_18  and  C_34
    9  A    between atoms: O_18  and  C_37
   10  A    between atoms: C_21  and  C_37
   11  A    between atoms: C_23  and  N_39
   12  A    between atoms: C_24  and  C_35
                            x       y       z     vdW  Elec       q    Type
                         _______ _______ _______ _____ _____    ______ ____

>  <TORSDO>
F 12

$$$$
=
 OpenBabel11052410343D

 40 42  0  0  1  0  0  0  0  0999 V2000
  161.4450  206.1310  150.8470 C   0  0  0  0  0  0  0  0  0  0  0  0
  161.9840  206.6470  149.5560 C   0  0  2  0  0  3  0  0  0  0  0  0
  161.5410  207.3670  151.4880 C   0  0  0  0  0  0  0  0  0  0  0  0
  162.3640  208.2090  150.1070 S   0  0  0  0  0  0  0  0  0  0  0  0
  160.5020  208.6630  155.4250 C   0  0  0  0  0  0  0  0  0  0  0  0
  160.5190  207.3030  155.0950 C   0  0  0  0  0  3  0  0  0  0  0  0
  161.6120  210.2680  152.1890 C   0  0  0  0  0  1  0  0  0  0  0  0
  161.1790  207.8480  152.8260 C   0  0  0  0  0  0  0  0  0  0  0  0
  160.8490  209.6120  154.4610 C   0  0  0  0  0  3  0  0  0  0  0  0
  161.1870  209.2190  153.1630 C   0  0  0  0  0  0  0  0  0  0  0  0
  160.8620  206.9000  153.8040 C   0  0  0  0  0  3  0  0  0  0  0  0
  160.1480  209.0940  156.7390 N   0  0  0  0  0  2  0  0  0  0  0  0
  156.9530  212.9500  156.6770 C   0  0  1  0  0  3  0  0  0  0  0  0
  159.8670  210.4410  157.0120 N   0  0  0  0  0  2  0  0  0  0  0  0
  156.7710  214.4520  156.7860 C   0  0  0  0  0  1  0  0  0  0  0  0
  156.5190  212.4400  155.3140 C   0  0  0  0  0  2  0  0  0  0  0  0
  157.8250  210.4010  155.8210 N   0  0  0  0  0  0  0  0  0  0  0  0
  158.3860  212.4860  157.0010 C   0  0  1  0  0  3  0  0  0  0  0  0
  156.5290  210.9160  155.3670 C   0  0  0  0  0  2  0  0  0  0  0  0
  158.6440  211.0500  156.6010 C   0  0  0  0  0  0  0  0  0  0  0  0
  159.8000  212.9330  155.2390 O   0  0  0  0  0  1  0  0  0  0  0  0
  159.4160  213.3830  156.4620 N   0  0  0  0  0  2  0  0  0  0  0  0
  160.8530  204.3600  152.9500 Cl  0  0  0  0  0  0  0  0  0  0  0  0
  159.7080  201.9200  149.5240 C   0  0  0  0  0  1  0  0  0  0  0  0
  160.8020  202.9300  149.4400 C   0  0  0  0  0  0  0  0  0  0  0  0
  160.8850  203.8540  150.3560 C   0  0  0  0  0  0  0  0  0  0  0  0
  160.9950  204.7900  151.2550 C   0  0  0  0  0  0  0  0  0  0  0  0
  161.7760  204.1990  147.6600 O   0  0  0  0  0  1  0  0  0  0  0  0
  161.7720  202.9530  148.2950 C   0  0  2  0  0  3  0  0  0  0  0  0
  161.4150  201.8630  147.2870 C   0  0  0  0  0  2  0  0  0  0  0  0
  160.0460  201.2600  145.2680 C   0  0  0  0  0  1  0  0  0  0  0  0
  160.6310  202.3980  146.0870 C   0  0  2  0  0  3  0  0  0  0  0  0
  161.4310  203.2150  145.2780 O   0  0  0  0  0  0  0  0  0  0  0  0
  160.5290  203.9610  144.5140 C   0  0  0  0  0  2  0  0  0  0  0  0
  162.4680  205.4510  144.8840 C   0  0  0  0  0  1  0  0  0  0  0  0
  161.0700  205.3640  144.3090 C   0  0  2  0  0  3  0  0  0  0  0  0
  160.2470  206.2860  144.9570 O   0  0  0  0  0  1  0  0  0  0  0  0
  160.9200  206.7040  148.4970 C   0  0  0  0  0  0  0  0  0  0  0  0
  159.8240  206.1110  148.6860 O   0  0  0  0  0  1  0  0  0  0  0  0
  161.1330  207.3910  147.3080 O   0  0  0  0  0  0  0  0  0  0  0  0
  1 27  1  0  0  0  0
  1  3  2  0  0  0  0
  2 38  1  6  0  0  0
  2  4  1  0  0  0  0
  2  1  1  0  0  0  0
  3  8  1  0  0  0  0
  4  3  1  0  0  0  0
  5 12  1  0  0  0  0
  6  5  1  0  0  0  0
  7 10  1  0  0  0  0
  8 10  2  0  0  0  0
  8 11  1  0  0  0  0
  9  5  2  0  0  0  0
 10  9  1  0  0  0  0
 11  6  2  0  0  0  0
 12 14  1  0  0  0  0
 13 15  1  6  0  0  0
 13 18  1  0  0  0  0
 16 19  1  0  0  0  0
 16 13  1  0  0  0  0
 17 20  2  0  0  0  0
 18 22  1  6  0  0  0
 19 17  1  0  0  0  0
 20 18  1  0  0  0  0
 20 14  1  0  0  0  0
 21 22  1  0  0  0  0
 25 24  1  0  0  0  0
 25 26  2  0  0  0  0
 26 27  2  0  0  0  0
 27 23  1  0  0  0  0
 29 28  1  6  0  0  0
 29 25  1  0  0  0  0
 30 29  1  0  0  0  0
 32 31  1  6  0  0  0
 32 30  1  0  0  0  0
 33 32  1  0  0  0  0
 34 33  1  0  0  0  0
 36 34  1  0  0  0  0
 36 35  1  1  0  0  0
 36 37  1  0  0  0  0
 38 39  1  0  0  0  0
 40 38  2  0  0  0  0
M  END
>  <MODEL>
4

>  <REMARK>
 VINA RESULT:      -4.9      3.874      9.156
  Name = 
  12 active torsions:
  status: ('A' for Active; 'I' for Inactive)
    1  A    between atoms: C_2  and  C_29
    2  A    between atoms: C_5  and  N_22
    3  A    between atoms: N_8  and  N_22
    4  A    between atoms: C_9  and  C_34
    5  A    between atoms: C_9  and  C_35
    6  A    between atoms: C_15  and  C_30
    7  A    between atoms: C_16  and  C_32
    8  A    between atoms: O_18  and  C_34
    9  A    between atoms: O_18  and  C_37
   10  A    between atoms: C_21  and  C_37
   11  A    between atoms: C_23  and  N_39
   12  A    between atoms: C_24  and  C_35
                            x       y       z     vdW  Elec       q    Type
                         _______ _______ _______ _____ _____    ______ ____

>  <TORSDO>
F 12

$$$$
=
 OpenBabel11052410343D

 40 42  0  0  1  0  0  0  0  0999 V2000
  161.0420  209.7440  155.1450 C   0  0  0  0  0  0  0  0  0  0  0  0
  162.1290  210.7280  155.4170 C   0  0  2  0  0  3  0  0  0  0  0  0
  161.6950  209.1850  154.0460 C   0  0  0  0  0  0  0  0  0  0  0  0
  163.0710  210.3680  154.0480 S   0  0  0  0  0  0  0  0  0  0  0  0
  160.7660  205.8890  151.4890 C   0  0  0  0  0  0  0  0  0  0  0  0
  160.9550  205.7040  152.8640 C   0  0  0  0  0  3  0  0  0  0  0  0
  161.1970  209.6270  151.1350 C   0  0  0  0  0  1  0  0  0  0  0  0
  161.3850  208.0750  153.1370 C   0  0  0  0  0  0  0  0  0  0  0  0
  160.8610  207.1720  150.9460 C   0  0  0  0  0  3  0  0  0  0  0  0
  161.1710  208.2690  151.7560 C   0  0  0  0  0  0  0  0  0  0  0  0
  161.2570  206.7930  153.6820 C   0  0  0  0  0  3  0  0  0  0  0  0
  160.4620  204.7860  150.6370 N   0  0  0  0  0  2  0  0  0  0  0  0
  162.4280  205.3660  146.0670 C   0  0  1  0  0  3  0  0  0  0  0  0
  161.3560  204.3700  149.6390 N   0  0  0  0  0  2  0  0  0  0  0  0
  163.2460  204.7490  144.9470 C   0  0  0  0  0  1  0  0  0  0  0  0
  161.0160  205.6830  145.6080 C   0  0  0  0  0  2  0  0  0  0  0  0
  160.4170  205.7980  148.0060 N   0  0  0  0  0  0  0  0  0  0  0  0
  162.4050  204.5060  147.3460 C   0  0  1  0  0  3  0  0  0  0  0  0
  160.3420  206.4880  146.7130 C   0  0  0  0  0  2  0  0  0  0  0  0
  161.3590  204.9600  148.3400 C   0  0  0  0  0  0  0  0  0  0  0  0
  161.0700  202.8150  146.5350 O   0  0  0  0  0  1  0  0  0  0  0  0
  162.2920  203.0690  147.0720 N   0  0  0  0  0  2  0  0  0  0  0  0
  159.3360  207.8950  156.4020 Cl  0  0  0  0  0  0  0  0  0  0  0  0
  157.0520  211.5650  156.9530 C   0  0  0  0  0  1  0  0  0  0  0  0
  157.9360  211.3590  155.7700 C   0  0  0  0  0  0  0  0  0  0  0  0
  158.8420  210.4220  155.8100 C   0  0  0  0  0  0  0  0  0  0  0  0
  159.7560  209.4950  155.8180 C   0  0  0  0  0  0  0  0  0  0  0  0
  156.5360  212.4160  154.1430 O   0  0  0  0  0  1  0  0  0  0  0  0
  157.8590  212.2430  154.5600 C   0  0  2  0  0  3  0  0  0  0  0  0
  158.6820  211.6440  153.4230 C   0  0  0  0  0  2  0  0  0  0  0  0
  159.0760  214.0950  153.0320 C   0  0  0  0  0  1  0  0  0  0  0  0
  159.1990  212.7000  152.4440 C   0  0  2  0  0  3  0  0  0  0  0  0
  158.5280  212.6310  151.2160 O   0  0  0  0  0  0  0  0  0  0  0  0
  159.2140  213.5160  150.3790 C   0  0  0  0  0  2  0  0  0  0  0  0
  156.9930  213.2300  149.3290 C   0  0  0  0  0  1  0  0  0  0  0  0
  158.2750  214.0350  149.3060 C   0  0  2  0  0  3  0  0  0  0  0  0
  158.8760  213.9100  148.0530 O   0  0  0  0  0  1  0  0  0  0  0  0
  162.8750  210.3930  156.6760 C   0  0  0  0  0  0  0  0  0  0  0  0
  162.6520  209.2970  157.2570 O   0  0  0  0  0  1  0  0  0  0  0  0
  163.8000  211.2810  157.2150 O   0  0  0  0  0  0  0  0  0  0  0  0
  1  2  1  0  0  0  0
  1 27  1  0  0  0  0
  2 38  1  1  0  0  0
  3  4  1  0  0  0  0
  3  1  2  0  0  0  0
  4  2  1  0  0  0  0
  5  6  1  0  0  0  0
  6 11  2  0  0  0  0
  7 10  1  0  0  0  0
  8 11  1  0  0  0  0
  8  3  1  0  0  0  0
  9  5  2  0  0  0  0
  9 10  1  0  0  0  0
 10  8  2  0  0  0  0
 12  5  1  0  0  0  0
 13 15  1  6  0  0  0
 13 18  1  0  0  0  0
 14 12  1  0  0  0  0
 16 13  1  0  0  0  0
 16 19  1  0  0  0  0
 17 20  2  0  0  0  0
 18 22  1  6  0  0  0
 18 20  1  0  0  0  0
 19 17  1  0  0  0  0
 20 14  1  0  0  0  0
 21 22  1  0  0  0  0
 25 26  2  0  0  0  0
 25 24  1  0  0  0  0
 26 27  2  0  0  0  0
 27 23  1  0  0  0  0
 29 28  1  6  0  0  0
 29 25  1  0  0  0  0
 30 29  1  0  0  0  0
 32 31  1  1  0  0  0
 32 30  1  0  0  0  0
 33 32  1  0  0  0  0
 34 33  1  0  0  0  0
 36 35  1  6  0  0  0
 36 34  1  0  0  0  0
 37 36  1  0  0  0  0
 38 40  2  0  0  0  0
 38 39  1  0  0  0  0
M  END
>  <MODEL>
5

>  <REMARK>
 VINA RESULT:      -4.8      2.592      4.267
  Name = 
  12 active torsions:
  status: ('A' for Active; 'I' for Inactive)
    1  A    between atoms: C_2  and  C_29
    2  A    between atoms: C_5  and  N_22
    3  A    between atoms: N_8  and  N_22
    4  A    between atoms: C_9  and  C_34
    5  A    between atoms: C_9  and  C_35
    6  A    between atoms: C_15  and  C_30
    7  A    between atoms: C_16  and  C_32
    8  A    between atoms: O_18  and  C_34
    9  A    between atoms: O_18  and  C_37
   10  A    between atoms: C_21  and  C_37
   11  A    between atoms: C_23  and  N_39
   12  A    between atoms: C_24  and  C_35
                            x       y       z     vdW  Elec       q    Type
                         _______ _______ _______ _____ _____    ______ ____

>  <TORSDO>
F 12

$$$$
=
 OpenBabel11052410343D

 40 42  0  0  1  0  0  0  0  0999 V2000
  160.1790  211.0220  154.0090 C   0  0  0  0  0  0  0  0  0  0  0  0
  161.0430  211.7430  154.9870 C   0  0  2  0  0  3  0  0  0  0  0  0
  161.0260  209.9160  153.9360 C   0  0  0  0  0  0  0  0  0  0  0  0
  162.3280  210.6300  154.9780 S   0  0  0  0  0  0  0  0  0  0  0  0
  160.8850  206.2280  151.7790 C   0  0  0  0  0  0  0  0  0  0  0  0
  161.0530  207.4480  151.1120 C   0  0  0  0  0  3  0  0  0  0  0  0
  160.7680  207.3230  155.3940 C   0  0  0  0  0  1  0  0  0  0  0  0
  160.9620  208.6320  153.2260 C   0  0  0  0  0  0  0  0  0  0  0  0
  160.7820  206.2120  153.1720 C   0  0  0  0  0  3  0  0  0  0  0  0
  160.8180  207.4020  153.9040 C   0  0  0  0  0  0  0  0  0  0  0  0
  161.0980  208.6410  151.8340 C   0  0  0  0  0  3  0  0  0  0  0  0
  160.8310  204.9990  151.0560 N   0  0  0  0  0  2  0  0  0  0  0  0
  161.9470  205.9780  146.2730 C   0  0  1  0  0  3  0  0  0  0  0  0
  161.6390  204.7810  149.9310 N   0  0  0  0  0  2  0  0  0  0  0  0
  162.7060  205.5480  145.0320 C   0  0  0  0  0  1  0  0  0  0  0  0
  160.4490  205.9870  146.0290 C   0  0  0  0  0  2  0  0  0  0  0  0
  160.1930  205.9740  148.4900 N   0  0  0  0  0  0  0  0  0  0  0  0
  162.2920  205.1350  147.5170 C   0  0  1  0  0  3  0  0  0  0  0  0
  159.7880  206.6310  147.2420 C   0  0  0  0  0  2  0  0  0  0  0  0
  161.3280  205.3570  148.6620 C   0  0  0  0  0  0  0  0  0  0  0  0
  161.2490  203.0860  147.3920 O   0  0  0  0  0  1  0  0  0  0  0  0
  162.4460  203.7060  147.2190 N   0  0  0  0  0  2  0  0  0  0  0  0
  157.4460  210.4550  153.6670 Cl  0  0  0  0  0  0  0  0  0  0  0  0
  157.7760  214.1410  151.3640 C   0  0  0  0  0  1  0  0  0  0  0  0
  158.9150  213.1860  151.4880 C   0  0  0  0  0  0  0  0  0  0  0  0
  158.8930  212.2920  152.4370 C   0  0  0  0  0  0  0  0  0  0  0  0
  158.9020  211.3870  153.3730 C   0  0  0  0  0  0  0  0  0  0  0  0
  160.8250  214.4530  150.7990 O   0  0  0  0  0  1  0  0  0  0  0  0
  160.1170  213.2660  150.5920 C   0  0  2  0  0  3  0  0  0  0  0  0
  159.6860  213.1710  149.1310 C   0  0  0  0  0  2  0  0  0  0  0  0
  161.8410  211.8880  148.9820 C   0  0  0  0  0  1  0  0  0  0  0  0
  160.8090  212.6920  148.2100 C   0  0  2  0  0  3  0  0  0  0  0  0
  161.4240  213.7650  147.5540 O   0  0  0  0  0  0  0  0  0  0  0  0
  162.2300  213.1770  146.5740 C   0  0  0  0  0  2  0  0  0  0  0  0
  162.4920  212.9880  144.1230 C   0  0  0  0  0  1  0  0  0  0  0  0
  161.4940  213.1590  145.2480 C   0  0  2  0  0  3  0  0  0  0  0  0
  160.8050  214.3600  145.0750 O   0  0  0  0  0  1  0  0  0  0  0  0
  160.4070  211.8070  156.3460 C   0  0  0  0  0  0  0  0  0  0  0  0
  160.9310  212.5180  157.2440 O   0  0  0  0  0  1  0  0  0  0  0  0
  159.2540  211.0820  156.6280 O   0  0  0  0  0  0  0  0  0  0  0  0
  1  2  1  0  0  0  0
  2 38  1  1  0  0  0
  3  1  2  0  0  0  0
  3  4  1  0  0  0  0
  4  2  1  0  0  0  0
  5  9  1  0  0  0  0
  6  5  2  0  0  0  0
  6 11  1  0  0  0  0
  8 10  1  0  0  0  0
  8  3  1  0  0  0  0
  9 10  2  0  0  0  0
 10  7  1  0  0  0  0
 11  8  2  0  0  0  0
 12  5  1  0  0  0  0
 13 15  1  6  0  0  0
 13 18  1  0  0  0  0
 14 12  1  0  0  0  0
 16 13  1  0  0  0  0
 16 19  1  0  0  0  0
 17 20  2  0  0  0  0
 18 22  1  6  0  0  0
 18 20  1  0  0  0  0
 19 17  1  0  0  0  0
 20 14  1  0  0  0  0
 22 21  1  0  0  0  0
 24 25  1  0  0  0  0
 25 26  2  0  0  0  0
 26 27  2  0  0  0  0
 27 23  1  0  0  0  0
 27  1  1  0  0  0  0
 29 28  1  6  0  0  0
 29 25  1  0  0  0  0
 30 29  1  0  0  0  0
 32 31  1  1  0  0  0
 32 30  1  0  0  0  0
 33 32  1  0  0  0  0
 34 33  1  0  0  0  0
 36 35  1  6  0  0  0
 36 34  1  0  0  0  0
 37 36  1  0  0  0  0
 38 40  2  0  0  0  0
 38 39  1  0  0  0  0
M  END
>  <MODEL>
6

>  <REMARK>
 VINA RESULT:      -4.5      1.996      2.955
  Name = 
  12 active torsions:
  status: ('A' for Active; 'I' for Inactive)
    1  A    between atoms: C_2  and  C_29
    2  A    between atoms: C_5  and  N_22
    3  A    between atoms: N_8  and  N_22
    4  A    between atoms: C_9  and  C_34
    5  A    between atoms: C_9  and  C_35
    6  A    between atoms: C_15  and  C_30
    7  A    between atoms: C_16  and  C_32
    8  A    between atoms: O_18  and  C_34
    9  A    between atoms: O_18  and  C_37
   10  A    between atoms: C_21  and  C_37
   11  A    between atoms: C_23  and  N_39
   12  A    between atoms: C_24  and  C_35
                            x       y       z     vdW  Elec       q    Type
                         _______ _______ _______ _____ _____    ______ ____

>  <TORSDO>
F 12

$$$$
=
 OpenBabel11052410343D

 40 42  0  0  1  0  0  0  0  0999 V2000
  160.9290  209.8330  154.8090 C   0  0  0  0  0  0  0  0  0  0  0  0
  162.0570  210.7750  155.0640 C   0  0  2  0  0  3  0  0  0  0  0  0
  161.6290  209.1090  153.8430 C   0  0  0  0  0  0  0  0  0  0  0  0
  163.0800  210.1980  153.8340 S   0  0  0  0  0  0  0  0  0  0  0  0
  160.7550  205.7020  151.4150 C   0  0  0  0  0  0  0  0  0  0  0  0
  160.9150  206.9710  150.8460 C   0  0  0  0  0  3  0  0  0  0  0  0
  161.3930  206.3990  155.0740 C   0  0  0  0  0  1  0  0  0  0  0  0
  161.3180  207.9200  153.0410 C   0  0  0  0  0  0  0  0  0  0  0  0
  160.9020  205.5410  152.7950 C   0  0  0  0  0  3  0  0  0  0  0  0
  161.1810  206.6380  153.6150 C   0  0  0  0  0  0  0  0  0  0  0  0
  161.2010  208.0710  151.6560 C   0  0  0  0  0  3  0  0  0  0  0  0
  160.4560  204.5680  150.6040 N   0  0  0  0  0  2  0  0  0  0  0  0
  162.3970  205.3780  146.0580 C   0  0  1  0  0  3  0  0  0  0  0  0
  161.3080  204.1740  149.5610 N   0  0  0  0  0  2  0  0  0  0  0  0
  163.1590  204.8000  144.8800 C   0  0  0  0  0  1  0  0  0  0  0  0
  161.0030  205.8200  145.6510 C   0  0  0  0  0  2  0  0  0  0  0  0
  160.4430  205.7840  148.0610 N   0  0  0  0  0  0  0  0  0  0  0  0
  162.3340  204.4240  147.2670 C   0  0  1  0  0  3  0  0  0  0  0  0
  160.3970  206.5770  146.8280 C   0  0  0  0  0  2  0  0  0  0  0  0
  161.3330  204.8640  148.3120 C   0  0  0  0  0  0  0  0  0  0  0  0
  160.7900  202.7850  146.7880 O   0  0  0  0  0  1  0  0  0  0  0  0
  162.1240  203.0220  146.8840 N   0  0  0  0  0  2  0  0  0  0  0  0
  158.9690  208.2290  156.0310 Cl  0  0  0  0  0  0  0  0  0  0  0  0
  157.0000  212.1150  156.1720 C   0  0  0  0  0  1  0  0  0  0  0  0
  157.9490  211.7530  155.0800 C   0  0  0  0  0  0  0  0  0  0  0  0
  158.7580  210.7450  155.2500 C   0  0  0  0  0  0  0  0  0  0  0  0
  159.5780  209.7430  155.3880 C   0  0  0  0  0  0  0  0  0  0  0  0
  156.7860  212.9910  153.3940 O   0  0  0  0  0  1  0  0  0  0  0  0
  158.0460  212.5570  153.8160 C   0  0  2  0  0  3  0  0  0  0  0  0
  158.6980  211.7230  152.7160 C   0  0  0  0  0  2  0  0  0  0  0  0
  159.5480  213.5600  151.2270 C   0  0  0  0  0  1  0  0  0  0  0  0
  159.9370  212.3940  152.1190 C   0  0  2  0  0  3  0  0  0  0  0  0
  160.7190  211.4780  151.4050 O   0  0  0  0  0  0  0  0  0  0  0  0
  160.8160  212.0110  150.1170 C   0  0  0  0  0  2  0  0  0  0  0  0
  162.3870  212.3830  148.2430 C   0  0  0  0  0  1  0  0  0  0  0  0
  162.0920  211.5250  149.4550 C   0  0  2  0  0  3  0  0  0  0  0  0
  161.9380  210.1970  149.0540 O   0  0  0  0  0  1  0  0  0  0  0  0
  162.6730  210.5470  156.4150 C   0  0  0  0  0  0  0  0  0  0  0  0
  162.4970  209.4450  156.9990 O   0  0  0  0  0  0  0  0  0  0  0  0
  163.4230  211.5410  157.0330 O   0  0  0  0  0  1  0  0  0  0  0  0
  1  2  1  0  0  0  0
  1 27  1  0  0  0  0
  2 38  1  1  0  0  0
  3  1  2  0  0  0  0
  4  3  1  0  0  0  0
  4  2  1  0  0  0  0
  5  9  1  0  0  0  0
  6  5  2  0  0  0  0
  6 11  1  0  0  0  0
  8 10  1  0  0  0  0
  8  3  1  0  0  0  0
  9 10  2  0  0  0  0
 10  7  1  0  0  0  0
 11  8  2  0  0  0  0
 12  5  1  0  0  0  0
 13 15  1  6  0  0  0
 13 18  1  0  0  0  0
 14 12  1  0  0  0  0
 16 13  1  0  0  0  0
 16 19  1  0  0  0  0
 17 20  2  0  0  0  0
 18 22  1  6  0  0  0
 18 20  1  0  0  0  0
 19 17  1  0  0  0  0
 20 14  1  0  0  0  0
 21 22  1  0  0  0  0
 25 26  2  0  0  0  0
 25 24  1  0  0  0  0
 26 27  2  0  0  0  0
 27 23  1  0  0  0  0
 29 28  1  6  0  0  0
 29 25  1  0  0  0  0
 30 29  1  0  0  0  0
 32 31  1  6  0  0  0
 32 30  1  0  0  0  0
 33 32  1  0  0  0  0
 34 33  1  0  0  0  0
 36 35  1  6  0  0  0
 36 34  1  0  0  0  0
 37 36  1  0  0  0  0
 38 39  2  0  0  0  0
 38 40  1  0  0  0  0
M  END
>  <MODEL>
7

>  <REMARK>
 VINA RESULT:      -4.3      2.140      3.386
  Name = 
  12 active torsions:
  status: ('A' for Active; 'I' for Inactive)
    1  A    between atoms: C_2  and  C_29
    2  A    between atoms: C_5  and  N_22
    3  A    between atoms: N_8  and  N_22
    4  A    between atoms: C_9  and  C_34
    5  A    between atoms: C_9  and  C_35
    6  A    between atoms: C_15  and  C_30
    7  A    between atoms: C_16  and  C_32
    8  A    between atoms: O_18  and  C_34
    9  A    between atoms: O_18  and  C_37
   10  A    between atoms: C_21  and  C_37
   11  A    between atoms: C_23  and  N_39
   12  A    between atoms: C_24  and  C_35
                            x       y       z     vdW  Elec       q    Type
                         _______ _______ _______ _____ _____    ______ ____

>  <TORSDO>
F 12

$$$$
=
 OpenBabel11052410343D

 40 42  0  0  1  0  0  0  0  0999 V2000
  160.5800  211.1190  154.6160 C   0  0  0  0  0  0  0  0  0  0  0  0
  161.0390  211.8270  155.8460 C   0  0  2  0  0  3  0  0  0  0  0  0
  161.0620  209.8790  155.0380 C   0  0  0  0  0  0  0  0  0  0  0  0
  161.8600  210.5100  156.5400 S   0  0  0  0  0  0  0  0  0  0  0  0
  161.0220  205.9680  153.3140 C   0  0  0  0  0  0  0  0  0  0  0  0
  161.6360  207.0400  152.6560 C   0  0  0  0  0  3  0  0  0  0  0  0
  159.8310  207.5920  156.5120 C   0  0  0  0  0  1  0  0  0  0  0  0
  161.0200  208.5260  154.4710 C   0  0  0  0  0  0  0  0  0  0  0  0
  160.4300  206.1730  154.5630 C   0  0  0  0  0  3  0  0  0  0  0  0
  160.4210  207.4420  155.1480 C   0  0  0  0  0  0  0  0  0  0  0  0
  161.6400  208.3090  153.2360 C   0  0  0  0  0  3  0  0  0  0  0  0
  161.0040  204.6650  152.7340 N   0  0  0  0  0  0  0  0  0  0  0  0
  160.2820  201.5940  148.8440 C   0  0  1  0  0  3  0  0  0  0  0  0
  160.6200  204.4680  151.3990 N   0  0  0  0  0  0  0  0  0  0  0  0
  160.0690  201.4680  147.3470 C   0  0  0  0  0  1  0  0  0  0  0  0
  161.5610  200.9030  149.2800 C   0  0  0  0  0  2  0  0  0  0  0  0
  161.4060  202.2390  151.3560 N   0  0  0  0  0  0  0  0  0  0  0  0
  160.2550  203.0540  149.3390 C   0  0  1  0  0  3  0  0  0  0  0  0
  161.5830  200.8910  150.8040 C   0  0  0  0  0  2  0  0  0  0  0  0
  160.7640  203.2020  150.7560 C   0  0  0  0  0  0  0  0  0  0  0  0
  162.1270  203.4470  148.0570 O   0  0  0  0  0  1  0  0  0  0  0  0
  160.9340  203.9830  148.4280 N   0  0  0  0  0  2  0  0  0  0  0  0
  158.2000  212.0970  153.4810 Cl  0  0  0  0  0  0  0  0  0  0  0  0
  160.8720  212.3610  150.0480 C   0  0  0  0  0  1  0  0  0  0  0  0
  161.0390  211.3140  151.0960 C   0  0  0  0  0  0  0  0  0  0  0  0
  160.4530  211.4710  152.2500 C   0  0  0  0  0  0  0  0  0  0  0  0
  159.8800  211.5980  153.4120 C   0  0  0  0  0  0  0  0  0  0  0  0
  163.2190  210.3560  151.3350 O   0  0  0  0  0  1  0  0  0  0  0  0
  161.9180  210.1150  150.8850 C   0  0  2  0  0  3  0  0  0  0  0  0
  161.9460  209.7430  149.4050 C   0  0  0  0  0  2  0  0  0  0  0  0
  162.6570  207.3510  149.7040 C   0  0  0  0  0  1  0  0  0  0  0  0
  161.5860  208.2770  149.1540 C   0  0  2  0  0  3  0  0  0  0  0  0
  161.3820  208.0270  147.7910 O   0  0  0  0  0  0  0  0  0  0  0  0
  162.2300  206.9570  147.4890 C   0  0  0  0  0  2  0  0  0  0  0  0
  160.4780  206.1940  145.9200 C   0  0  0  0  0  1  0  0  0  0  0  0
  161.9580  206.4720  146.0770 C   0  0  2  0  0  3  0  0  0  0  0  0
  162.6750  205.3000  145.8360 O   0  0  0  0  0  1  0  0  0  0  0  0
  159.8820  212.2430  156.7070 C   0  0  0  0  0  0  0  0  0  0  0  0
  159.8490  213.4110  157.1800 O   0  0  0  0  0  1  0  0  0  0  0  0
  158.8540  211.3540  157.0000 O   0  0  0  0  0  0  0  0  0  0  0  0
  1  3  2  0  0  0  0
  1  2  1  0  0  0  0
  2  4  1  0  0  0  0
  2 38  1  1  0  0  0
  3  4  1  0  0  0  0
  5  9  1  0  0  0  0
  6 11  1  0  0  0  0
  6  5  2  0  0  0  0
  8  3  1  0  0  0  0
  8 10  1  0  0  0  0
  9 10  2  0  0  0  0
 10  7  1  0  0  0  0
 11  8  2  0  0  0  0
 12  5  1  0  0  0  0
 13 15  1  6  0  0  0
 13 16  1  0  0  0  0
 13 18  1  0  0  0  0
 14 12  2  0  0  0  0
 16 19  1  0  0  0  0
 18 22  1  6  0  0  0
 18 20  1  0  0  0  0
 19 17  1  0  0  0  0
 20 17  2  0  0  0  0
 20 14  1  0  0  0  0
 21 22  1  0  0  0  0
 24 25  1  0  0  0  0
 25 26  2  0  0  0  0
 26 27  2  0  0  0  0
 27 23  1  0  0  0  0
 27  1  1  0  0  0  0
 29 25  1  0  0  0  0
 29 28  1  6  0  0  0
 30 29  1  0  0  0  0
 32 30  1  0  0  0  0
 32 31  1  6  0  0  0
 33 32  1  0  0  0  0
 34 33  1  0  0  0  0
 36 35  1  1  0  0  0
 36 34  1  0  0  0  0
 37 36  1  0  0  0  0
 38 40  2  0  0  0  0
 38 39  1  0  0  0  0
M  END
>  <MODEL>
8

>  <REMARK>
 VINA RESULT:      -4.2      1.472      2.057
  Name = 
  12 active torsions:
  status: ('A' for Active; 'I' for Inactive)
    1  A    between atoms: C_2  and  C_29
    2  A    between atoms: C_5  and  N_22
    3  A    between atoms: N_8  and  N_22
    4  A    between atoms: C_9  and  C_34
    5  A    between atoms: C_9  and  C_35
    6  A    between atoms: C_15  and  C_30
    7  A    between atoms: C_16  and  C_32
    8  A    between atoms: O_18  and  C_34
    9  A    between atoms: O_18  and  C_37
   10  A    between atoms: C_21  and  C_37
   11  A    between atoms: C_23  and  N_39
   12  A    between atoms: C_24  and  C_35
                            x       y       z     vdW  Elec       q    Type
                         _______ _______ _______ _____ _____    ______ ____

>  <TORSDO>
F 12

$$$$
=
 OpenBabel11052410343D

 40 42  0  0  1  0  0  0  0  0999 V2000
  161.5860  203.5470  147.7170 C   0  0  0  0  0  0  0  0  0  0  0  0
  162.0310  202.7420  146.5430 C   0  0  2  0  0  3  0  0  0  0  0  0
  162.1320  204.7340  147.2260 C   0  0  0  0  0  0  0  0  0  0  0  0
  162.9250  203.9730  145.7830 S   0  0  0  0  0  0  0  0  0  0  0  0
  162.2790  208.7650  148.6410 C   0  0  0  0  0  0  0  0  0  0  0  0
  163.3350  207.8780  148.8800 C   0  0  0  0  0  3  0  0  0  0  0  0
  159.9080  206.6310  146.6140 C   0  0  0  0  0  1  0  0  0  0  0  0
  162.1440  206.1220  147.7070 C   0  0  0  0  0  0  0  0  0  0  0  0
  161.1680  208.3350  147.9120 C   0  0  0  0  0  3  0  0  0  0  0  0
  161.0880  207.0200  147.4430 C   0  0  0  0  0  0  0  0  0  0  0  0
  163.2690  206.5660  148.4090 C   0  0  0  0  0  3  0  0  0  0  0  0
  162.3270  210.1080  149.1200 N   0  0  0  0  0  2  0  0  0  0  0  0
  159.5340  213.4000  146.5820 C   0  0  1  0  0  3  0  0  0  0  0  0
  161.2050  210.9460  149.0500 N   0  0  0  0  0  2  0  0  0  0  0  0
  158.4370  214.4480  146.6400 C   0  0  0  0  0  1  0  0  0  0  0  0
  160.8460  213.9990  146.1100 C   0  0  0  0  0  2  0  0  0  0  0  0
  161.9390  211.9930  147.0610 N   0  0  0  0  0  0  0  0  0  0  0  0
  159.7260  212.6490  147.9140 C   0  0  1  0  0  3  0  0  0  0  0  0
  161.8200  212.8510  145.8760 C   0  0  0  0  0  2  0  0  0  0  0  0
  160.9990  211.8330  147.9510 C   0  0  0  0  0  0  0  0  0  0  0  0
  158.8260  212.9240  150.0160 O   0  0  0  0  0  1  0  0  0  0  0  0
  159.6180  213.5230  149.0880 N   0  0  0  0  0  2  0  0  0  0  0  0
  159.4550  202.1120  148.8590 Cl  0  0  0  0  0  0  0  0  0  0  0  0
  161.3320  203.7160  152.4500 C   0  0  0  0  0  1  0  0  0  0  0  0
  161.3700  204.4450  151.1500 C   0  0  0  0  0  0  0  0  0  0  0  0
  161.1060  203.7970  150.0500 C   0  0  0  0  0  0  0  0  0  0  0  0
  160.8460  203.1780  148.9340 C   0  0  0  0  0  0  0  0  0  0  0  0
  162.9370  206.1370  151.7910 O   0  0  0  0  0  1  0  0  0  0  0  0
  161.7700  205.8900  151.0630 C   0  0  2  0  0  3  0  0  0  0  0  0
  160.6410  206.7760  151.5830 C   0  0  0  0  0  2  0  0  0  0  0  0
  160.7620  207.0340  154.0800 C   0  0  0  0  0  1  0  0  0  0  0  0
  161.0780  207.6760  152.7410 C   0  0  2  0  0  3  0  0  0  0  0  0
  160.4810  208.9400  152.6570 O   0  0  0  0  0  0  0  0  0  0  0  0
  161.5010  209.8440  152.9690 C   0  0  0  0  0  2  0  0  0  0  0  0
  159.7270  210.6230  154.5050 C   0  0  0  0  0  1  0  0  0  0  0  0
  160.9160  211.0540  153.6720 C   0  0  2  0  0  3  0  0  0  0  0  0
  160.5010  211.9930  152.7270 O   0  0  0  0  0  1  0  0  0  0  0  0
  160.8700  202.3240  145.6870 C   0  0  0  0  0  0  0  0  0  0  0  0
  160.3950  201.1640  145.8090 O   0  0  0  0  0  1  0  0  0  0  0  0
  160.3210  203.1970  144.7550 O   0  0  0  0  0  0  0  0  0  0  0  0
  1 27  1  0  0  0  0
  2 38  1  6  0  0  0
  2  1  1  0  0  0  0
  3  8  1  0  0  0  0
  3  1  2  0  0  0  0
  4  2  1  0  0  0  0
  4  3  1  0  0  0  0
  5  6  1  0  0  0  0
  5 12  1  0  0  0  0
  7 10  1  0  0  0  0
  8 11  1  0  0  0  0
  9  5  2  0  0  0  0
 10  8  2  0  0  0  0
 10  9  1  0  0  0  0
 11  6  2  0  0  0  0
 13 15  1  1  0  0  0
 13 18  1  0  0  0  0
 14 12  1  0  0  0  0
 16 13  1  0  0  0  0
 17 20  2  0  0  0  0
 18 20  1  0  0  0  0
 18 22  1  1  0  0  0
 19 16  1  0  0  0  0
 19 17  1  0  0  0  0
 20 14  1  0  0  0  0
 22 21  1  0  0  0  0
 23 27  1  0  0  0  0
 25 24  1  0  0  0  0
 26 25  2  0  0  0  0
 27 26  2  0  0  0  0
 29 25  1  0  0  0  0
 29 30  1  0  0  0  0
 29 28  1  1  0  0  0
 30 32  1  0  0  0  0
 32 31  1  1  0  0  0
 33 32  1  0  0  0  0
 33 34  1  0  0  0  0
 34 36  1  0  0  0  0
 36 35  1  6  0  0  0
 37 36  1  0  0  0  0
 38 39  1  0  0  0  0
 40 38  2  0  0  0  0
M  END
>  <MODEL>
9

>  <REMARK>
 VINA RESULT:      -3.8      3.913      9.365
  Name = 
  12 active torsions:
  status: ('A' for Active; 'I' for Inactive)
    1  A    between atoms: C_2  and  C_29
    2  A    between atoms: C_5  and  N_22
    3  A    between atoms: N_8  and  N_22
    4  A    between atoms: C_9  and  C_34
    5  A    between atoms: C_9  and  C_35
    6  A    between atoms: C_15  and  C_30
    7  A    between atoms: C_16  and  C_32
    8  A    between atoms: O_18  and  C_34
    9  A    between atoms: O_18  and  C_37
   10  A    between atoms: C_21  and  C_37
   11  A    between atoms: C_23  and  N_39
   12  A    between atoms: C_24  and  C_35
                            x       y       z     vdW  Elec       q    Type
                         _______ _______ _______ _____ _____    ______ ____

>  <TORSDO>
F 12

$$$$
