=
 OpenBabel11042420043D

 42 47  0  0  1  0  0  0  0  0999 V2000
  161.0090  206.3890  153.0770 N   0  0  0  0  0  2  0  0  0  0  0  0
  161.4210  209.8220  155.5970 C   0  0  0  0  0  0  0  0  0  0  0  0
  161.0370  208.9130  153.2050 C   0  0  2  0  0  3  0  0  0  0  0  0
  161.1330  210.0640  154.1720 C   0  0  0  0  0  0  0  0  0  0  0  0
  161.3740  207.4530  155.1580 N   0  0  0  0  0  0  0  0  0  0  0  0
  161.5270  208.5730  156.0430 C   0  0  0  0  0  3  0  0  0  0  0  0
  160.9610  211.2390  153.7480 O   0  0  0  0  0  0  0  0  0  0  0  0
  161.1510  207.5650  153.8780 C   0  0  0  0  0  0  0  0  0  0  0  0
  161.5770  210.9150  156.5190 C   0  0  0  0  0  0  0  0  0  0  0  0
  161.7040  211.7930  157.2600 N   0  0  0  0  0  0  0  0  0  0  0  0
  161.0410  205.1460  153.6210 O   0  0  0  0  0  0  0  0  0  0  0  0
  160.5040  204.4350  151.4700 C   0  0  2  0  0  3  0  0  0  0  0  0
  161.8060  205.1150  151.4080 N   0  0  0  0  0  2  0  0  0  0  0  0
  161.4410  204.3060  152.5790 C   0  0  1  0  0  3  0  0  0  0  0  0
  160.5370  203.1600  150.6490 C   0  0  0  0  0  2  0  0  0  0  0  0
  161.5550  203.2840  149.5290 C   0  0  0  0  0  2  0  0  0  0  0  0
  160.9430  202.8360  148.2420 C   0  0  0  0  0  0  0  0  0  0  0  0
  160.2510  201.7830  148.2240 O   0  0  0  0  0  0  0  0  0  0  0  0
  161.1490  203.5580  147.0270 N   0  0  0  0  0  2  0  0  0  0  0  0
  162.8530  204.6950  145.6630 C   0  0  0  0  0  2  0  0  0  0  0  0
  161.1250  206.0260  146.9070 C   0  0  2  0  0  3  0  0  0  0  0  0
  161.9940  204.7770  144.4000 C   0  0  0  0  0  2  0  0  0  0  0  0
  160.2590  206.0790  145.6490 C   0  0  0  0  0  2  0  0  0  0  0  0
  161.9870  204.7540  146.9290 C   0  0  1  0  0  3  0  0  0  0  0  0
  160.2540  206.1250  148.1460 C   0  0  0  0  0  1  0  0  0  0  0  0
  161.1500  206.0480  144.4100 C   0  0  0  0  0  2  0  0  0  0  0  0
  162.0160  209.0400  152.2110 O   0  0  0  0  0  0  0  0  0  0  0  0
  162.3700  209.2180  148.8660 C   0  0  0  0  0  2  0  0  0  0  0  0
  161.6660  210.4770  149.0440 N   0  0  0  0  0  0  0  0  0  0  0  0
  161.8970  208.2800  149.9550 C   0  0  0  0  0  2  0  0  0  0  0  0
  161.3010  209.1750  151.0170 C   0  0  2  0  0  3  0  0  0  0  0  0
  161.4530  210.5840  150.4800 C   0  0  0  0  0  2  0  0  0  0  0  0
  162.5800  211.5410  148.6550 C   0  0  0  0  0  2  0  0  0  0  0  0
  161.1630  213.6080  148.8670 C   0  0  0  0  0  2  0  0  0  0  0  0
  160.0180  214.4480  146.7640 C   0  0  0  0  0  2  0  0  0  0  0  0
  158.7460  212.5810  145.6200 C   0  0  0  0  0  2  0  0  0  0  0  0
  159.2600  212.6390  144.1930 C   0  0  0  0  0  2  0  0  0  0  0  0
  160.8110  211.9870  146.9530 C   0  0  0  0  0  2  0  0  0  0  0  0
  159.9390  214.3320  148.2840 C   0  0  0  0  0  2  0  0  0  0  0  0
  161.8340  212.6230  147.8910 C   0  0  2  0  0  3  0  0  0  0  0  0
  160.0940  213.0580  146.1190 C   0  0  0  0  0  0  0  0  0  0  0  0
  160.6110  213.1210  144.6970 C   0  0  0  0  0  2  0  0  0  0  0  0
  1 11  1  0  0  0  0
  1  8  1  0  0  0  0
  2  6  2  0  0  0  0
  2  9  1  0  0  0  0
  3 27  1  6  0  0  0
  3  8  1  0  0  0  0
  3  4  1  0  0  0  0
  4  2  1  0  0  0  0
  5  6  1  0  0  0  0
  7  4  2  0  0  0  0
  8  5  2  0  0  0  0
  9 10  3  0  0  0  0
 12 15  1  6  0  0  0
 12 14  1  0  0  0  0
 13 12  1  0  0  0  0
 13 14  1  0  0  0  0
 14 11  1  1  0  0  0
 16 15  1  0  0  0  0
 17 16  1  0  0  0  0
 18 17  2  0  0  0  0
 19 17  1  0  0  0  0
 20 24  1  0  0  0  0
 21 24  1  0  0  0  0
 21 25  1  1  0  0  0
 22 26  1  0  0  0  0
 22 20  1  0  0  0  0
 23 21  1  0  0  0  0
 24 19  1  6  0  0  0
 26 23  1  0  0  0  0
 28 29  1  0  0  0  0
 28 30  1  0  0  0  0
 29 32  1  0  0  0  0
 30 31  1  0  0  0  0
 31 27  1  1  0  0  0
 32 31  1  0  0  0  0
 33 29  1  0  0  0  0
 35 39  1  0  0  0  0
 36 41  1  0  0  0  0
 37 42  1  0  0  0  0
 37 36  1  0  0  0  0
 38 40  1  0  0  0  0
 39 34  1  0  0  0  0
 40 33  1  1  0  0  0
 40 34  1  0  0  0  0
 41 35  1  0  0  0  0
 41 38  1  0  0  0  0
 42 41  1  0  0  0  0
M  END
>  <MODEL>
1

>  <REMARK>
 VINA RESULT:      -7.9      0.000      0.000
  Name = 
  11 active torsions:
  status: ('A' for Active; 'I' for Inactive)
    1  A    between atoms: C_3  and  C_10
    2  A    between atoms: C_3  and  C_15
    3  A    between atoms: O_4  and  N_7
    4  A    between atoms: O_4  and  C_37
    5  A    between atoms: C_5  and  N_21
    6  A    between atoms: C_5  and  C_31
    7  A    between atoms: O_6  and  C_12
    8  A    between atoms: O_6  and  C_26
    9  A    between atoms: C_9  and  C_22
   10  A    between atoms: C_15  and  C_17
   11  A    between atoms: C_24  and  N_28
                            x       y       z     vdW  Elec       q    Type
                         _______ _______ _______ _____ _____    ______ ____

>  <TORSDO>
F 11

$$$$
=
 OpenBabel11042420043D

 42 47  0  0  1  0  0  0  0  0999 V2000
  162.3370  206.6520  152.3280 N   0  0  0  0  0  2  0  0  0  0  0  0
  161.9780  209.9250  149.5960 C   0  0  0  0  0  0  0  0  0  0  0  0
  161.8200  209.1100  152.0470 C   0  0  2  0  0  3  0  0  0  0  0  0
  161.7740  210.2170  151.0260 C   0  0  0  0  0  0  0  0  0  0  0  0
  162.3880  207.6200  150.1710 N   0  0  0  0  0  0  0  0  0  0  0  0
  162.2720  208.6840  149.2140 C   0  0  0  0  0  3  0  0  0  0  0  0
  161.5630  211.3990  151.4110 O   0  0  0  0  0  0  0  0  0  0  0  0
  162.1950  207.7730  151.4520 C   0  0  0  0  0  0  0  0  0  0  0  0
  161.8750  210.9620  148.6050 C   0  0  0  0  0  0  0  0  0  0  0  0
  161.7930  211.7960  147.8090 N   0  0  0  0  0  0  0  0  0  0  0  0
  162.7280  205.4340  151.8740 O   0  0  0  0  0  0  0  0  0  0  0  0
  161.6340  203.3880  151.6830 C   0  0  2  0  0  3  0  0  0  0  0  0
  160.8340  204.2460  152.5690 N   0  0  0  0  0  2  0  0  0  0  0  0
  161.5550  204.8210  151.4260 C   0  0  1  0  0  3  0  0  0  0  0  0
  160.7340  202.6640  150.7000 C   0  0  0  0  0  2  0  0  0  0  0  0
  161.5520  202.1260  149.5390 C   0  0  0  0  0  2  0  0  0  0  0  0
  160.7460  202.1910  148.2830 C   0  0  0  0  0  0  0  0  0  0  0  0
  159.8950  201.2910  148.0520 O   0  0  0  0  0  0  0  0  0  0  0  0
  160.9390  203.2340  147.3260 N   0  0  0  0  0  2  0  0  0  0  0  0
  163.0030  204.1650  146.3650 C   0  0  0  0  0  2  0  0  0  0  0  0
  161.2930  205.6770  147.4090 C   0  0  2  0  0  3  0  0  0  0  0  0
  162.4030  204.4520  144.9870 C   0  0  0  0  0  2  0  0  0  0  0  0
  160.6800  205.9360  146.0340 C   0  0  0  0  0  2  0  0  0  0  0  0
  161.9450  204.2870  147.4690 C   0  0  1  0  0  3  0  0  0  0  0  0
  160.2390  205.8410  148.4900 C   0  0  0  0  0  1  0  0  0  0  0  0
  161.7630  205.8370  144.9630 C   0  0  0  0  0  2  0  0  0  0  0  0
  160.5860  209.0160  152.7050 O   0  0  0  0  0  0  0  0  0  0  0  0
  159.6150  208.8580  155.9270 C   0  0  0  0  0  2  0  0  0  0  0  0
  159.3380  210.2710  155.7200 N   0  0  0  0  0  0  0  0  0  0  0  0
  160.7710  208.4890  155.0230 C   0  0  0  0  0  2  0  0  0  0  0  0
  160.8110  209.5710  153.9690 C   0  0  2  0  0  3  0  0  0  0  0  0
  159.6800  210.5150  154.3260 C   0  0  0  0  0  2  0  0  0  0  0  0
  157.9010  210.4530  155.8580 C   0  0  0  0  0  2  0  0  0  0  0  0
  156.8580  212.4720  156.9350 C   0  0  0  0  0  2  0  0  0  0  0  0
  156.3450  214.4510  155.4330 C   0  0  0  0  0  2  0  0  0  0  0  0
  155.0330  213.7220  153.3940 C   0  0  0  0  0  2  0  0  0  0  0  0
  155.8370  214.3010  152.2430 C   0  0  0  0  0  2  0  0  0  0  0  0
  156.6350  212.0720  154.4440 C   0  0  0  0  0  2  0  0  0  0  0  0
  155.9310  213.6700  156.6770 C   0  0  0  0  0  2  0  0  0  0  0  0
  157.5340  211.9160  155.6690 C   0  0  2  0  0  3  0  0  0  0  0  0
  156.3090  213.5510  154.1910 C   0  0  0  0  0  0  0  0  0  0  0  0
  157.1150  214.1300  153.0470 C   0  0  0  0  0  2  0  0  0  0  0  0
  2  4  1  0  0  0  0
  3 27  1  6  0  0  0
  4  7  2  0  0  0  0
  4  3  1  0  0  0  0
  5  8  2  0  0  0  0
  6  2  2  0  0  0  0
  6  5  1  0  0  0  0
  8  3  1  0  0  0  0
  8  1  1  0  0  0  0
  9  2  1  0  0  0  0
 10  9  3  0  0  0  0
 11  1  1  0  0  0  0
 12 15  1  6  0  0  0
 12 13  1  0  0  0  0
 14 12  1  0  0  0  0
 14 11  1  1  0  0  0
 14 13  1  0  0  0  0
 16 15  1  0  0  0  0
 17 16  1  0  0  0  0
 18 17  2  0  0  0  0
 19 17  1  0  0  0  0
 20 24  1  0  0  0  0
 21 24  1  0  0  0  0
 21 25  1  1  0  0  0
 22 20  1  0  0  0  0
 23 21  1  0  0  0  0
 24 19  1  6  0  0  0
 26 22  1  0  0  0  0
 26 23  1  0  0  0  0
 29 33  1  0  0  0  0
 29 28  1  0  0  0  0
 30 28  1  0  0  0  0
 31 27  1  6  0  0  0
 31 32  1  0  0  0  0
 31 30  1  0  0  0  0
 32 29  1  0  0  0  0
 35 39  1  0  0  0  0
 36 41  1  0  0  0  0
 37 42  1  0  0  0  0
 37 36  1  0  0  0  0
 38 40  1  0  0  0  0
 39 34  1  0  0  0  0
 40 33  1  1  0  0  0
 40 34  1  0  0  0  0
 41 38  1  0  0  0  0
 41 35  1  0  0  0  0
 42 41  1  0  0  0  0
M  END
>  <MODEL>
2

>  <REMARK>
 VINA RESULT:      -7.8      2.990      5.517
  Name = 
  11 active torsions:
  status: ('A' for Active; 'I' for Inactive)
    1  A    between atoms: C_3  and  C_10
    2  A    between atoms: C_3  and  C_15
    3  A    between atoms: O_4  and  N_7
    4  A    between atoms: O_4  and  C_37
    5  A    between atoms: C_5  and  N_21
    6  A    between atoms: C_5  and  C_31
    7  A    between atoms: O_6  and  C_12
    8  A    between atoms: O_6  and  C_26
    9  A    between atoms: C_9  and  C_22
   10  A    between atoms: C_15  and  C_17
   11  A    between atoms: C_24  and  N_28
                            x       y       z     vdW  Elec       q    Type
                         _______ _______ _______ _____ _____    ______ ____

>  <TORSDO>
F 11

$$$$
=
 OpenBabel11042420043D

 42 47  0  0  1  0  0  0  0  0999 V2000
  160.8230  211.9550  150.6440 N   0  0  0  0  0  2  0  0  0  0  0  0
  160.0370  211.0730  154.7560 C   0  0  0  0  0  0  0  0  0  0  0  0
  161.0460  210.2690  152.5130 C   0  0  2  0  0  3  0  0  0  0  0  0
  160.7830  210.0650  153.9820 C   0  0  0  0  0  0  0  0  0  0  0  0
  159.9470  212.4550  152.7840 N   0  0  0  0  0  0  0  0  0  0  0  0
  159.6540  212.2020  154.1660 C   0  0  0  0  0  3  0  0  0  0  0  0
  161.2130  209.0210  154.5440 O   0  0  0  0  0  0  0  0  0  0  0  0
  160.5730  211.6120  152.0100 C   0  0  0  0  0  0  0  0  0  0  0  0
  159.7260  210.8620  156.1440 C   0  0  0  0  0  0  0  0  0  0  0  0
  159.4740  210.6920  157.2600 N   0  0  0  0  0  0  0  0  0  0  0  0
  160.4800  213.1660  150.1370 O   0  0  0  0  0  0  0  0  0  0  0  0
  160.1610  213.0950  147.8320 C   0  0  2  0  0  3  0  0  0  0  0  0
  160.6730  214.4300  148.1750 N   0  0  0  0  0  2  0  0  0  0  0  0
  161.1360  213.2420  148.9060 C   0  0  1  0  0  3  0  0  0  0  0  0
  160.8670  212.5630  146.5990 C   0  0  0  0  0  2  0  0  0  0  0  0
  159.8500  212.0870  145.5770 C   0  0  0  0  0  2  0  0  0  0  0  0
  159.5680  213.1810  144.6000 C   0  0  0  0  0  0  0  0  0  0  0  0
  158.7960  214.1190  144.9330 O   0  0  0  0  0  0  0  0  0  0  0  0
  160.1340  213.1730  143.2880 N   0  0  0  0  0  2  0  0  0  0  0  0
  160.4210  211.5370  141.4730 C   0  0  0  0  0  2  0  0  0  0  0  0
  162.4210  212.6050  142.5490 C   0  0  2  0  0  3  0  0  0  0  0  0
  160.4800  212.5760  140.3520 C   0  0  0  0  0  2  0  0  0  0  0  0
  162.4570  213.6570  141.4420 C   0  0  0  0  0  2  0  0  0  0  0  0
  160.9890  212.0990  142.7830 C   0  0  1  0  0  3  0  0  0  0  0  0
  163.0240  213.1680  143.8240 C   0  0  0  0  0  1  0  0  0  0  0  0
  161.9130  213.0590  140.1480 C   0  0  0  0  0  2  0  0  0  0  0  0
  160.4490  209.2390  151.7740 O   0  0  0  0  0  0  0  0  0  0  0  0
  161.3220  207.0070  149.4060 C   0  0  0  0  0  2  0  0  0  0  0  0
  161.6840  206.2010  150.5610 N   0  0  0  0  0  0  0  0  0  0  0  0
  161.5170  208.4580  149.7900 C   0  0  0  0  0  2  0  0  0  0  0  0
  161.5180  208.4700  151.3020 C   0  0  2  0  0  3  0  0  0  0  0  0
  161.3330  207.0230  151.7110 C   0  0  0  0  0  2  0  0  0  0  0  0
  160.8070  205.0390  150.5680 C   0  0  0  0  0  2  0  0  0  0  0  0
  160.7870  202.8900  149.2620 C   0  0  0  0  0  2  0  0  0  0  0  0
  161.0760  203.0610  146.7470 C   0  0  0  0  0  2  0  0  0  0  0  0
  163.0990  204.4670  146.1630 C   0  0  0  0  0  2  0  0  0  0  0  0
  162.5390  205.4880  145.1890 C   0  0  0  0  0  2  0  0  0  0  0  0
  161.8610  204.9760  148.3080 C   0  0  0  0  0  2  0  0  0  0  0  0
  161.3220  202.2110  147.9910 C   0  0  0  0  0  2  0  0  0  0  0  0
  160.7330  204.4270  149.1790 C   0  0  2  0  0  3  0  0  0  0  0  0
  161.7650  204.4260  146.8780 C   0  0  0  0  0  0  0  0  0  0  0  0
  161.2000  205.4420  145.9070 C   0  0  0  0  0  2  0  0  0  0  0  0
  1  8  1  0  0  0  0
  2  9  1  0  0  0  0
  3 27  1  6  0  0  0
  3  4  1  0  0  0  0
  4  7  2  0  0  0  0
  4  2  1  0  0  0  0
  5  6  1  0  0  0  0
  6  2  2  0  0  0  0
  8  3  1  0  0  0  0
  8  5  2  0  0  0  0
  9 10  3  0  0  0  0
 11  1  1  0  0  0  0
 12 15  1  6  0  0  0
 12 13  1  0  0  0  0
 12 14  1  0  0  0  0
 13 14  1  0  0  0  0
 14 11  1  1  0  0  0
 16 15  1  0  0  0  0
 17 18  2  0  0  0  0
 17 16  1  0  0  0  0
 19 17  1  0  0  0  0
 20 24  1  0  0  0  0
 21 24  1  0  0  0  0
 21 25  1  1  0  0  0
 22 20  1  0  0  0  0
 23 21  1  0  0  0  0
 24 19  1  6  0  0  0
 26 22  1  0  0  0  0
 26 23  1  0  0  0  0
 28 30  1  0  0  0  0
 28 29  1  0  0  0  0
 29 33  1  0  0  0  0
 29 32  1  0  0  0  0
 30 31  1  0  0  0  0
 31 32  1  0  0  0  0
 31 27  1  6  0  0  0
 35 41  1  0  0  0  0
 35 39  1  0  0  0  0
 36 41  1  0  0  0  0
 37 42  1  0  0  0  0
 37 36  1  0  0  0  0
 38 40  1  0  0  0  0
 39 34  1  0  0  0  0
 40 34  1  0  0  0  0
 40 33  1  1  0  0  0
 41 38  1  0  0  0  0
 42 41  1  0  0  0  0
M  END
>  <MODEL>
3

>  <REMARK>
 VINA RESULT:      -7.6      2.825      7.703
  Name = 
  11 active torsions:
  status: ('A' for Active; 'I' for Inactive)
    1  A    between atoms: C_3  and  C_10
    2  A    between atoms: C_3  and  C_15
    3  A    between atoms: O_4  and  N_7
    4  A    between atoms: O_4  and  C_37
    5  A    between atoms: C_5  and  N_21
    6  A    between atoms: C_5  and  C_31
    7  A    between atoms: O_6  and  C_12
    8  A    between atoms: O_6  and  C_26
    9  A    between atoms: C_9  and  C_22
   10  A    between atoms: C_15  and  C_17
   11  A    between atoms: C_24  and  N_28
                            x       y       z     vdW  Elec       q    Type
                         _______ _______ _______ _____ _____    ______ ____

>  <TORSDO>
F 11

$$$$
=
 OpenBabel11042420043D

 42 47  0  0  1  0  0  0  0  0999 V2000
  161.1520  207.1060  154.0180 N   0  0  0  0  0  2  0  0  0  0  0  0
  161.8820  209.3450  150.4460 C   0  0  0  0  0  0  0  0  0  0  0  0
  161.0190  207.1420  151.4940 C   0  0  2  0  0  3  0  0  0  0  0  0
  161.2520  208.0210  150.2930 C   0  0  0  0  0  0  0  0  0  0  0  0
  161.9130  209.0060  152.8320 N   0  0  0  0  0  0  0  0  0  0  0  0
  162.1840  209.7920  151.6620 C   0  0  0  0  0  3  0  0  0  0  0  0
  160.8970  207.6120  149.1540 O   0  0  0  0  0  0  0  0  0  0  0  0
  161.3880  207.8120  152.7970 C   0  0  0  0  0  0  0  0  0  0  0  0
  162.1660  210.1670  149.3010 C   0  0  0  0  0  0  0  0  0  0  0  0
  162.3940  210.8290  148.3800 N   0  0  0  0  0  0  0  0  0  0  0  0
  161.4040  207.6660  155.2280 O   0  0  0  0  0  0  0  0  0  0  0  0
  159.9700  209.2910  156.0770 C   0  0  2  0  0  3  0  0  0  0  0  0
  161.3510  209.7330  156.3260 N   0  0  0  0  0  2  0  0  0  0  0  0
  161.0110  209.0010  155.0990 C   0  0  1  0  0  3  0  0  0  0  0  0
  159.1310  210.4490  155.5710 C   0  0  0  0  0  2  0  0  0  0  0  0
  158.7080  211.3360  156.7290 C   0  0  0  0  0  2  0  0  0  0  0  0
  158.8720  212.7710  156.3490 C   0  0  0  0  0  0  0  0  0  0  0  0
  159.4720  213.5510  157.1360 O   0  0  0  0  0  0  0  0  0  0  0  0
  158.3390  213.2850  155.1270 N   0  0  0  0  0  2  0  0  0  0  0  0
  156.0730  212.7760  154.3170 C   0  0  0  0  0  2  0  0  0  0  0  0
  158.0220  212.7580  152.7350 C   0  0  2  0  0  3  0  0  0  0  0  0
  155.7490  214.2080  153.8880 C   0  0  0  0  0  2  0  0  0  0  0  0
  157.7100  214.1980  152.3330 C   0  0  0  0  0  2  0  0  0  0  0  0
  157.5720  212.4790  154.1780 C   0  0  1  0  0  3  0  0  0  0  0  0
  159.5020  212.4730  152.5520 C   0  0  0  0  0  1  0  0  0  0  0  0
  156.2100  214.4520  152.4540 C   0  0  0  0  0  2  0  0  0  0  0  0
  161.7260  205.9410  151.3520 O   0  0  0  0  0  0  0  0  0  0  0  0
  161.3210  202.6180  151.7290 C   0  0  0  0  0  2  0  0  0  0  0  0
  160.5610  202.7580  150.4980 N   0  0  0  0  0  0  0  0  0  0  0  0
  161.1860  203.9180  152.4920 C   0  0  0  0  0  2  0  0  0  0  0  0
  160.7580  204.9390  151.4620 C   0  0  2  0  0  3  0  0  0  0  0  0
  160.6590  204.1710  150.1590 C   0  0  0  0  0  2  0  0  0  0  0  0
  161.2660  202.0100  149.4680 C   0  0  0  0  0  2  0  0  0  0  0  0
  160.6480  201.3630  147.1180 C   0  0  0  0  0  2  0  0  0  0  0  0
  160.6440  203.2040  145.3720 C   0  0  0  0  0  2  0  0  0  0  0  0
  162.8190  204.5000  145.4210 C   0  0  0  0  0  2  0  0  0  0  0  0
  162.3570  205.9420  145.5330 C   0  0  0  0  0  2  0  0  0  0  0  0
  161.9910  203.4610  147.5720 C   0  0  0  0  0  2  0  0  0  0  0  0
  160.8690  201.7180  145.6390 C   0  0  0  0  0  2  0  0  0  0  0  0
  160.8950  202.5320  148.0890 C   0  0  2  0  0  3  0  0  0  0  0  0
  161.6050  204.0570  146.2110 C   0  0  0  0  0  0  0  0  0  0  0  0
  161.1390  205.4930  146.3230 C   0  0  0  0  0  2  0  0  0  0  0  0
  1 11  1  0  0  0  0
  2  6  2  0  0  0  0
  3 27  1  6  0  0  0
  3  8  1  0  0  0  0
  4  2  1  0  0  0  0
  4  3  1  0  0  0  0
  6  5  1  0  0  0  0
  7  4  2  0  0  0  0
  8  5  2  0  0  0  0
  8  1  1  0  0  0  0
  9  2  1  0  0  0  0
 10  9  3  0  0  0  0
 12 15  1  6  0  0  0
 12 13  1  0  0  0  0
 14 11  1  1  0  0  0
 14 12  1  0  0  0  0
 14 13  1  0  0  0  0
 15 16  1  0  0  0  0
 17 16  1  0  0  0  0
 17 18  2  0  0  0  0
 19 17  1  0  0  0  0
 21 25  1  1  0  0  0
 21 24  1  0  0  0  0
 22 20  1  0  0  0  0
 23 26  1  0  0  0  0
 23 21  1  0  0  0  0
 24 20  1  0  0  0  0
 24 19  1  1  0  0  0
 26 22  1  0  0  0  0
 28 30  1  0  0  0  0
 29 28  1  0  0  0  0
 31 27  1  6  0  0  0
 31 30  1  0  0  0  0
 32 29  1  0  0  0  0
 32 31  1  0  0  0  0
 33 29  1  0  0  0  0
 34 40  1  0  0  0  0
 35 39  1  0  0  0  0
 35 41  1  0  0  0  0
 36 37  1  0  0  0  0
 36 41  1  0  0  0  0
 37 42  1  0  0  0  0
 38 40  1  0  0  0  0
 39 34  1  0  0  0  0
 40 33  1  1  0  0  0
 41 42  1  0  0  0  0
 41 38  1  0  0  0  0
M  END
>  <MODEL>
4

>  <REMARK>
 VINA RESULT:      -7.4      2.829      8.886
  Name = 
  11 active torsions:
  status: ('A' for Active; 'I' for Inactive)
    1  A    between atoms: C_3  and  C_10
    2  A    between atoms: C_3  and  C_15
    3  A    between atoms: O_4  and  N_7
    4  A    between atoms: O_4  and  C_37
    5  A    between atoms: C_5  and  N_21
    6  A    between atoms: C_5  and  C_31
    7  A    between atoms: O_6  and  C_12
    8  A    between atoms: O_6  and  C_26
    9  A    between atoms: C_9  and  C_22
   10  A    between atoms: C_15  and  C_17
   11  A    between atoms: C_24  and  N_28
                            x       y       z     vdW  Elec       q    Type
                         _______ _______ _______ _____ _____    ______ ____

>  <TORSDO>
F 11

$$$$
=
 OpenBabel11042420043D

 42 47  0  0  1  0  0  0  0  0999 V2000
  160.9300  206.0460  151.1710 N   0  0  0  0  0  2  0  0  0  0  0  0
  162.0480  209.9030  149.6950 C   0  0  0  0  0  0  0  0  0  0  0  0
  161.8100  208.3440  151.7470 C   0  0  2  0  0  3  0  0  0  0  0  0
  162.2370  209.6530  151.1350 C   0  0  0  0  0  0  0  0  0  0  0  0
  161.2040  207.6570  149.4620 N   0  0  0  0  0  0  0  0  0  0  0  0
  161.5580  208.9380  148.9200 C   0  0  0  0  0  3  0  0  0  0  0  0
  162.7630  210.5320  151.8710 O   0  0  0  0  0  0  0  0  0  0  0  0
  161.3050  207.3520  150.7260 C   0  0  0  0  0  0  0  0  0  0  0  0
  162.3940  211.1700  149.1100 C   0  0  0  0  0  0  0  0  0  0  0  0
  162.6720  212.1890  148.6390 N   0  0  0  0  0  0  0  0  0  0  0  0
  160.5230  205.0840  150.3040 O   0  0  0  0  0  0  0  0  0  0  0  0
  161.6810  203.1660  150.9360 C   0  0  2  0  0  3  0  0  0  0  0  0
  161.4380  203.9650  152.1470 N   0  0  0  0  0  2  0  0  0  0  0  0
  160.4390  203.9190  151.0700 C   0  0  1  0  0  3  0  0  0  0  0  0
  161.3970  201.7010  151.2090 C   0  0  0  0  0  2  0  0  0  0  0  0
  161.2250  200.9480  149.9010 C   0  0  0  0  0  2  0  0  0  0  0  0
  159.9490  201.3640  149.2450 C   0  0  0  0  0  0  0  0  0  0  0  0
  158.8830  201.3580  149.9150 O   0  0  0  0  0  0  0  0  0  0  0  0
  159.9080  201.7430  147.8680 N   0  0  0  0  0  2  0  0  0  0  0  0
  160.8310  200.7850  145.7980 C   0  0  0  0  0  2  0  0  0  0  0  0
  161.4020  203.1330  146.4760 C   0  0  2  0  0  3  0  0  0  0  0  0
  159.7280  201.3260  144.8860 C   0  0  0  0  0  2  0  0  0  0  0  0
  160.2800  203.6650  145.5860 C   0  0  0  0  0  2  0  0  0  0  0  0
  161.0780  201.7210  146.9880 C   0  0  1  0  0  3  0  0  0  0  0  0
  161.6570  204.0930  147.6250 C   0  0  0  0  0  1  0  0  0  0  0  0
  160.0800  202.7280  144.3980 C   0  0  0  0  0  2  0  0  0  0  0  0
  160.8310  208.5700  152.7240 O   0  0  0  0  0  0  0  0  0  0  0  0
  159.9900  207.3400  155.7450 C   0  0  0  0  0  2  0  0  0  0  0  0
  160.8860  208.3840  156.2140 N   0  0  0  0  0  0  0  0  0  0  0  0
  160.4880  206.8960  154.3860 C   0  0  0  0  0  2  0  0  0  0  0  0
  161.3640  208.0270  153.8970 C   0  0  2  0  0  3  0  0  0  0  0  0
  161.3330  209.0610  155.0050 C   0  0  0  0  0  2  0  0  0  0  0  0
  160.0850  209.3300  156.9770 C   0  0  0  0  0  2  0  0  0  0  0  0
  160.6060  211.7810  157.1820 C   0  0  0  0  0  2  0  0  0  0  0  0
  159.6660  213.3200  155.3970 C   0  0  0  0  0  2  0  0  0  0  0  0
  157.1820  212.9360  155.0900 C   0  0  0  0  0  2  0  0  0  0  0  0
  157.0500  212.7190  153.5930 C   0  0  0  0  0  2  0  0  0  0  0  0
  158.6150  210.9900  155.8320 C   0  0  0  0  0  2  0  0  0  0  0  0
  160.0790  213.1890  156.8610 C   0  0  0  0  0  2  0  0  0  0  0  0
  160.0440  210.6750  156.2700 C   0  0  2  0  0  3  0  0  0  0  0  0
  158.5620  212.3120  155.0530 C   0  0  0  0  0  0  0  0  0  0  0  0
  158.4360  212.0950  153.5600 C   0  0  0  0  0  2  0  0  0  0  0  0
  2  4  1  0  0  0  0
  3 27  1  1  0  0  0
  4  3  1  0  0  0  0
  4  7  2  0  0  0  0
  5  8  2  0  0  0  0
  6  5  1  0  0  0  0
  6  2  2  0  0  0  0
  8  1  1  0  0  0  0
  8  3  1  0  0  0  0
  9  2  1  0  0  0  0
 10  9  3  0  0  0  0
 11  1  1  0  0  0  0
 12 14  1  0  0  0  0
 12 15  1  1  0  0  0
 12 13  1  0  0  0  0
 14 11  1  6  0  0  0
 14 13  1  0  0  0  0
 16 15  1  0  0  0  0
 17 16  1  0  0  0  0
 17 18  2  0  0  0  0
 19 17  1  0  0  0  0
 20 24  1  0  0  0  0
 21 24  1  0  0  0  0
 21 25  1  1  0  0  0
 22 20  1  0  0  0  0
 23 21  1  0  0  0  0
 24 19  1  1  0  0  0
 26 22  1  0  0  0  0
 26 23  1  0  0  0  0
 28 29  1  0  0  0  0
 29 33  1  0  0  0  0
 30 28  1  0  0  0  0
 31 27  1  6  0  0  0
 31 30  1  0  0  0  0
 31 32  1  0  0  0  0
 32 29  1  0  0  0  0
 35 39  1  0  0  0  0
 37 36  1  0  0  0  0
 38 40  1  0  0  0  0
 39 34  1  0  0  0  0
 40 33  1  1  0  0  0
 40 34  1  0  0  0  0
 41 36  1  0  0  0  0
 41 35  1  0  0  0  0
 41 38  1  0  0  0  0
 42 37  1  0  0  0  0
 42 41  1  0  0  0  0
M  END
>  <MODEL>
5

>  <REMARK>
 VINA RESULT:      -6.9      2.584      5.767
  Name = 
  11 active torsions:
  status: ('A' for Active; 'I' for Inactive)
    1  A    between atoms: C_3  and  C_10
    2  A    between atoms: C_3  and  C_15
    3  A    between atoms: O_4  and  N_7
    4  A    between atoms: O_4  and  C_37
    5  A    between atoms: C_5  and  N_21
    6  A    between atoms: C_5  and  C_31
    7  A    between atoms: O_6  and  C_12
    8  A    between atoms: O_6  and  C_26
    9  A    between atoms: C_9  and  C_22
   10  A    between atoms: C_15  and  C_17
   11  A    between atoms: C_24  and  N_28
                            x       y       z     vdW  Elec       q    Type
                         _______ _______ _______ _____ _____    ______ ____

>  <TORSDO>
F 11

$$$$
=
 OpenBabel11042420043D

 42 47  0  0  1  0  0  0  0  0999 V2000
  161.9040  211.1480  149.8460 N   0  0  0  0  0  2  0  0  0  0  0  0
  160.7830  209.4600  153.6140 C   0  0  0  0  0  0  0  0  0  0  0  0
  161.8530  209.0740  151.2900 C   0  0  2  0  0  3  0  0  0  0  0  0
  161.4800  208.5770  152.6620 C   0  0  0  0  0  0  0  0  0  0  0  0
  160.9440  211.2470  152.0050 N   0  0  0  0  0  0  0  0  0  0  0  0
  160.5420  210.7250  153.2810 C   0  0  0  0  0  3  0  0  0  0  0  0
  161.7770  207.3960  152.9890 O   0  0  0  0  0  0  0  0  0  0  0  0
  161.5380  210.5370  151.0860 C   0  0  0  0  0  0  0  0  0  0  0  0
  160.3660  208.9790  154.9040 C   0  0  0  0  0  0  0  0  0  0  0  0
  160.0310  208.5920  155.9410 N   0  0  0  0  0  0  0  0  0  0  0  0
  161.7060  212.4700  149.6140 O   0  0  0  0  0  0  0  0  0  0  0  0
  161.4310  213.0030  147.3650 C   0  0  2  0  0  3  0  0  0  0  0  0
  161.1610  211.5660  147.5230 N   0  0  0  0  0  2  0  0  0  0  0  0
  160.7750  212.5190  148.5730 C   0  0  1  0  0  3  0  0  0  0  0  0
  160.3890  213.6370  146.4620 C   0  0  0  0  0  2  0  0  0  0  0  0
  160.8720  213.6350  145.0220 C   0  0  0  0  0  2  0  0  0  0  0  0
  160.0750  212.6560  144.2240 C   0  0  0  0  0  0  0  0  0  0  0  0
  159.2900  211.8710  144.8210 O   0  0  0  0  0  0  0  0  0  0  0  0
  160.2020  212.5720  142.8040 N   0  0  0  0  0  2  0  0  0  0  0  0
  162.4690  212.6620  141.8520 C   0  0  0  0  0  2  0  0  0  0  0  0
  160.5420  213.7250  140.6460 C   0  0  2  0  0  3  0  0  0  0  0  0
  162.3100  211.4110  140.9850 C   0  0  0  0  0  2  0  0  0  0  0  0
  160.3690  212.4620  139.8040 C   0  0  0  0  0  2  0  0  0  0  0  0
  161.1310  213.3920  142.0250 C   0  0  1  0  0  3  0  0  0  0  0  0
  159.2150  214.4530  140.7730 C   0  0  0  0  0  1  0  0  0  0  0  0
  161.7210  211.7760  139.6250 C   0  0  0  0  0  2  0  0  0  0  0  0
  161.2120  208.3020  150.3120 O   0  0  0  0  0  0  0  0  0  0  0  0
  162.3400  207.3010  147.2990 C   0  0  0  0  0  2  0  0  0  0  0  0
  162.2590  205.9850  147.9120 N   0  0  0  0  0  0  0  0  0  0  0  0
  162.6400  208.2940  148.4020 C   0  0  0  0  0  2  0  0  0  0  0  0
  162.2410  207.5950  149.6820 C   0  0  2  0  0  3  0  0  0  0  0  0
  161.7420  206.2310  149.2510 C   0  0  0  0  0  2  0  0  0  0  0  0
  161.2490  205.2320  147.1830 C   0  0  0  0  0  2  0  0  0  0  0  0
  161.2210  202.9760  146.0720 C   0  0  0  0  0  2  0  0  0  0  0  0
  161.3170  200.9390  147.5830 C   0  0  0  0  0  2  0  0  0  0  0  0
  159.5650  201.0840  149.4050 C   0  0  0  0  0  2  0  0  0  0  0  0
  160.3680  200.8530  150.6730 C   0  0  0  0  0  2  0  0  0  0  0  0
  160.5300  203.2360  148.4950 C   0  0  0  0  0  2  0  0  0  0  0  0
  160.8030  201.5090  146.2630 C   0  0  0  0  0  2  0  0  0  0  0  0
  161.4550  203.7400  147.3880 C   0  0  2  0  0  3  0  0  0  0  0  0
  160.7700  201.7440  148.7690 C   0  0  0  0  0  0  0  0  0  0  0  0
  161.5770  201.5140  150.0300 C   0  0  0  0  0  2  0  0  0  0  0  0
  1  8  1  0  0  0  0
  2  9  1  0  0  0  0
  3 27  1  6  0  0  0
  3  4  1  0  0  0  0
  4  7  2  0  0  0  0
  4  2  1  0  0  0  0
  5  6  1  0  0  0  0
  6  2  2  0  0  0  0
  8  3  1  0  0  0  0
  8  5  2  0  0  0  0
  9 10  3  0  0  0  0
 11  1  1  0  0  0  0
 12 15  1  6  0  0  0
 12 13  1  0  0  0  0
 12 14  1  0  0  0  0
 13 14  1  0  0  0  0
 14 11  1  1  0  0  0
 16 15  1  0  0  0  0
 17 18  2  0  0  0  0
 17 16  1  0  0  0  0
 19 17  1  0  0  0  0
 20 24  1  0  0  0  0
 21 25  1  1  0  0  0
 21 24  1  0  0  0  0
 22 20  1  0  0  0  0
 23 21  1  0  0  0  0
 24 19  1  6  0  0  0
 26 23  1  0  0  0  0
 26 22  1  0  0  0  0
 28 29  1  0  0  0  0
 28 30  1  0  0  0  0
 29 32  1  0  0  0  0
 30 31  1  0  0  0  0
 31 27  1  6  0  0  0
 32 31  1  0  0  0  0
 33 29  1  0  0  0  0
 34 39  1  0  0  0  0
 34 40  1  0  0  0  0
 35 41  1  0  0  0  0
 36 37  1  0  0  0  0
 38 41  1  0  0  0  0
 39 35  1  0  0  0  0
 40 33  1  6  0  0  0
 40 38  1  0  0  0  0
 41 36  1  0  0  0  0
 41 42  1  0  0  0  0
 42 37  1  0  0  0  0
M  END
>  <MODEL>
6

>  <REMARK>
 VINA RESULT:      -6.6      2.835      8.425
  Name = 
  11 active torsions:
  status: ('A' for Active; 'I' for Inactive)
    1  A    between atoms: C_3  and  C_10
    2  A    between atoms: C_3  and  C_15
    3  A    between atoms: O_4  and  N_7
    4  A    between atoms: O_4  and  C_37
    5  A    between atoms: C_5  and  N_21
    6  A    between atoms: C_5  and  C_31
    7  A    between atoms: O_6  and  C_12
    8  A    between atoms: O_6  and  C_26
    9  A    between atoms: C_9  and  C_22
   10  A    between atoms: C_15  and  C_17
   11  A    between atoms: C_24  and  N_28
                            x       y       z     vdW  Elec       q    Type
                         _______ _______ _______ _____ _____    ______ ____

>  <TORSDO>
F 11

$$$$
=
 OpenBabel11042420043D

 42 47  0  0  1  0  0  0  0  0999 V2000
  162.1120  206.1030  146.3830 N   0  0  0  0  0  2  0  0  0  0  0  0
  161.0280  203.0100  149.1340 C   0  0  0  0  0  0  0  0  0  0  0  0
  161.0960  205.5470  148.6300 C   0  0  2  0  0  3  0  0  0  0  0  0
  160.6930  204.3950  149.5120 C   0  0  0  0  0  0  0  0  0  0  0  0
  161.9690  203.8470  147.0790 N   0  0  0  0  0  0  0  0  0  0  0  0
  161.6310  202.7750  147.9720 C   0  0  0  0  0  3  0  0  0  0  0  0
  160.0600  204.6290  150.5780 O   0  0  0  0  0  0  0  0  0  0  0  0
  161.7420  205.1050  147.3390 C   0  0  0  0  0  0  0  0  0  0  0  0
  160.7030  201.9060  149.9970 C   0  0  0  0  0  0  0  0  0  0  0  0
  160.4430  201.0190  150.6910 N   0  0  0  0  0  0  0  0  0  0  0  0
  162.6430  205.7770  145.1780 O   0  0  0  0  0  0  0  0  0  0  0  0
  161.9700  205.5550  142.9610 C   0  0  2  0  0  3  0  0  0  0  0  0
  160.8840  205.0510  143.8140 N   0  0  0  0  0  2  0  0  0  0  0  0
  161.6970  206.1980  144.2400 C   0  0  1  0  0  3  0  0  0  0  0  0
  161.4070  206.4180  141.8480 C   0  0  0  0  0  2  0  0  0  0  0  0
  162.5360  207.0570  141.0580 C   0  0  0  0  0  2  0  0  0  0  0  0
  162.1410  207.1770  139.6220 C   0  0  0  0  0  0  0  0  0  0  0  0
  162.3290  206.2010  138.8490 O   0  0  0  0  0  0  0  0  0  0  0  0
  161.5800  208.3840  139.1020 N   0  0  0  0  0  2  0  0  0  0  0  0
  162.6960  210.3770  140.0170 C   0  0  0  0  0  2  0  0  0  0  0  0
  160.3000  210.4900  139.2780 C   0  0  2  0  0  3  0  0  0  0  0  0
  163.1320  210.9320  138.6610 C   0  0  0  0  0  2  0  0  0  0  0  0
  160.7440  211.0170  137.9140 C   0  0  0  0  0  2  0  0  0  0  0  0
  161.3820  209.5940  139.9010 C   0  0  1  0  0  3  0  0  0  0  0  0
  158.9790  209.7530  139.1480 C   0  0  0  0  0  1  0  0  0  0  0  0
  162.0360  211.8140  138.0680 C   0  0  0  0  0  2  0  0  0  0  0  0
  161.9540  206.4060  149.3290 O   0  0  0  0  0  0  0  0  0  0  0  0
  162.2200  209.6610  150.1580 C   0  0  0  0  0  2  0  0  0  0  0  0
  161.2830  209.2810  151.2030 N   0  0  0  0  0  0  0  0  0  0  0  0
  161.9570  208.7630  148.9690 C   0  0  0  0  0  2  0  0  0  0  0  0
  161.2100  207.5740  149.5280 C   0  0  2  0  0  3  0  0  0  0  0  0
  161.0730  207.8520  151.0110 C   0  0  0  0  0  2  0  0  0  0  0  0
  161.9640  209.4570  152.4780 C   0  0  0  0  0  2  0  0  0  0  0  0
  160.7140  210.9530  154.0670 C   0  0  0  0  0  2  0  0  0  0  0  0
  159.4890  209.8350  155.9880 C   0  0  0  0  0  2  0  0  0  0  0  0
  161.0190  208.2500  157.2350 C   0  0  0  0  0  2  0  0  0  0  0  0
  160.2270  206.9550  157.2590 C   0  0  0  0  0  2  0  0  0  0  0  0
  161.4340  208.6280  154.7700 C   0  0  0  0  0  2  0  0  0  0  0  0
  160.2330  211.0840  155.5210 C   0  0  0  0  0  2  0  0  0  0  0  0
  160.9530  209.5010  153.6120 C   0  0  2  0  0  3  0  0  0  0  0  0
  160.3950  208.6010  155.9010 C   0  0  0  0  0  0  0  0  0  0  0  0
  159.6010  207.3110  155.9200 C   0  0  0  0  0  2  0  0  0  0  0  0
  1  8  1  0  0  0  0
  2  4  1  0  0  0  0
  2  9  1  0  0  0  0
  3 27  1  1  0  0  0
  3  4  1  0  0  0  0
  4  7  2  0  0  0  0
  5  8  2  0  0  0  0
  5  6  1  0  0  0  0
  6  2  2  0  0  0  0
  8  3  1  0  0  0  0
  9 10  3  0  0  0  0
 11  1  1  0  0  0  0
 12 15  1  6  0  0  0
 12 13  1  0  0  0  0
 12 14  1  0  0  0  0
 13 14  1  0  0  0  0
 14 11  1  1  0  0  0
 16 15  1  0  0  0  0
 17 16  1  0  0  0  0
 18 17  2  0  0  0  0
 19 17  1  0  0  0  0
 21 25  1  6  0  0  0
 21 24  1  0  0  0  0
 22 20  1  0  0  0  0
 23 26  1  0  0  0  0
 23 21  1  0  0  0  0
 24 19  1  6  0  0  0
 24 20  1  0  0  0  0
 26 22  1  0  0  0  0
 28 29  1  0  0  0  0
 29 33  1  0  0  0  0
 30 31  1  0  0  0  0
 30 28  1  0  0  0  0
 31 27  1  1  0  0  0
 31 32  1  0  0  0  0
 32 29  1  0  0  0  0
 34 39  1  0  0  0  0
 36 37  1  0  0  0  0
 38 41  1  0  0  0  0
 39 35  1  0  0  0  0
 40 33  1  6  0  0  0
 40 34  1  0  0  0  0
 40 38  1  0  0  0  0
 41 42  1  0  0  0  0
 41 35  1  0  0  0  0
 41 36  1  0  0  0  0
 42 37  1  0  0  0  0
M  END
>  <MODEL>
7

>  <REMARK>
 VINA RESULT:      -6.5      3.949      8.585
  Name = 
  11 active torsions:
  status: ('A' for Active; 'I' for Inactive)
    1  A    between atoms: C_3  and  C_10
    2  A    between atoms: C_3  and  C_15
    3  A    between atoms: O_4  and  N_7
    4  A    between atoms: O_4  and  C_37
    5  A    between atoms: C_5  and  N_21
    6  A    between atoms: C_5  and  C_31
    7  A    between atoms: O_6  and  C_12
    8  A    between atoms: O_6  and  C_26
    9  A    between atoms: C_9  and  C_22
   10  A    between atoms: C_15  and  C_17
   11  A    between atoms: C_24  and  N_28
                            x       y       z     vdW  Elec       q    Type
                         _______ _______ _______ _____ _____    ______ ____

>  <TORSDO>
F 11

$$$$
=
 OpenBabel11042420043D

 42 47  0  0  1  0  0  0  0  0999 V2000
  161.4590  210.3350  151.4140 N   0  0  0  0  0  2  0  0  0  0  0  0
  160.5210  208.3340  155.0770 C   0  0  0  0  0  0  0  0  0  0  0  0
  160.0770  210.3600  153.5300 C   0  0  2  0  0  3  0  0  0  0  0  0
  159.7650  209.5610  154.7670 C   0  0  0  0  0  0  0  0  0  0  0  0
  161.7140  208.5990  153.0000 N   0  0  0  0  0  0  0  0  0  0  0  0
  161.4390  207.8950  154.2200 C   0  0  0  0  0  3  0  0  0  0  0  0
  158.8440  209.9520  155.5350 O   0  0  0  0  0  0  0  0  0  0  0  0
  161.1200  209.7080  152.6530 C   0  0  0  0  0  0  0  0  0  0  0  0
  160.2750  207.5960  156.2870 C   0  0  0  0  0  0  0  0  0  0  0  0
  160.0780  207.0030  157.2590 N   0  0  0  0  0  0  0  0  0  0  0  0
  162.3440  209.7780  150.5480 O   0  0  0  0  0  0  0  0  0  0  0  0
  162.3380  208.0300  149.0110 C   0  0  2  0  0  3  0  0  0  0  0  0
  161.3430  207.7210  150.0490 N   0  0  0  0  0  2  0  0  0  0  0  0
  161.5580  209.1070  149.6090 C   0  0  1  0  0  3  0  0  0  0  0  0
  161.7760  207.7230  147.6360 C   0  0  0  0  0  2  0  0  0  0  0  0
  162.1730  206.3200  147.2090 C   0  0  0  0  0  2  0  0  0  0  0  0
  160.9690  205.5830  146.7220 C   0  0  0  0  0  0  0  0  0  0  0  0
  160.0890  206.2050  146.0710 O   0  0  0  0  0  0  0  0  0  0  0  0
  160.7810  204.1940  147.0030 N   0  0  0  0  0  2  0  0  0  0  0  0
  161.8920  204.0290  149.1920 C   0  0  0  0  0  2  0  0  0  0  0  0
  161.2060  201.9550  147.9560 C   0  0  2  0  0  3  0  0  0  0  0  0
  160.5980  203.9620  150.0050 C   0  0  0  0  0  2  0  0  0  0  0  0
  159.9020  201.9110  148.7500 C   0  0  0  0  0  2  0  0  0  0  0  0
  161.7110  203.3980  147.8050 C   0  0  1  0  0  3  0  0  0  0  0  0
  161.0160  201.2920  146.6030 C   0  0  0  0  0  1  0  0  0  0  0  0
  160.1230  202.5170  150.1330 C   0  0  0  0  0  2  0  0  0  0  0  0
  160.4860  211.6520  153.8860 O   0  0  0  0  0  0  0  0  0  0  0  0
  158.6500  212.6180  151.2320 C   0  0  0  0  0  2  0  0  0  0  0  0
  159.1060  213.9400  151.6310 N   0  0  0  0  0  0  0  0  0  0  0  0
  158.5600  211.7750  152.4850 C   0  0  0  0  0  2  0  0  0  0  0  0
  159.4280  212.4820  153.5010 C   0  0  2  0  0  3  0  0  0  0  0  0
  159.9660  213.7030  152.7820 C   0  0  0  0  0  2  0  0  0  0  0  0
  159.9430  214.4500  150.5550 C   0  0  0  0  0  2  0  0  0  0  0  0
  161.2660  213.0130  148.9720 C   0  0  0  0  0  2  0  0  0  0  0  0
  160.0780  212.1910  146.8860 C   0  0  0  0  0  2  0  0  0  0  0  0
  158.9630  214.1090  145.6660 C   0  0  0  0  0  2  0  0  0  0  0  0
  157.5360  213.6220  145.4900 C   0  0  0  0  0  2  0  0  0  0  0  0
  159.2140  214.2670  148.1760 C   0  0  0  0  0  2  0  0  0  0  0  0
  161.4130  212.6120  147.4960 C   0  0  0  0  0  2  0  0  0  0  0  0
  159.8650  213.5320  149.3460 C   0  0  2  0  0  3  0  0  0  0  0  0
  159.0610  213.3370  146.9650 C   0  0  0  0  0  0  0  0  0  0  0  0
  157.6380  212.8460  146.7930 C   0  0  0  0  0  2  0  0  0  0  0  0
  1  8  1  0  0  0  0
  2  9  1  0  0  0  0
  3 27  1  1  0  0  0
  3  4  1  0  0  0  0
  4  2  1  0  0  0  0
  4  7  2  0  0  0  0
  5  6  1  0  0  0  0
  6  2  2  0  0  0  0
  8  5  2  0  0  0  0
  8  3  1  0  0  0  0
  9 10  3  0  0  0  0
 11  1  1  0  0  0  0
 12 15  1  6  0  0  0
 12 14  1  0  0  0  0
 12 13  1  0  0  0  0
 14 13  1  0  0  0  0
 14 11  1  1  0  0  0
 16 15  1  0  0  0  0
 17 19  1  0  0  0  0
 17 16  1  0  0  0  0
 18 17  2  0  0  0  0
 20 22  1  0  0  0  0
 21 25  1  6  0  0  0
 21 23  1  0  0  0  0
 22 26  1  0  0  0  0
 23 26  1  0  0  0  0
 24 19  1  6  0  0  0
 24 21  1  0  0  0  0
 24 20  1  0  0  0  0
 28 29  1  0  0  0  0
 28 30  1  0  0  0  0
 29 32  1  0  0  0  0
 30 31  1  0  0  0  0
 31 27  1  6  0  0  0
 32 31  1  0  0  0  0
 33 29  1  0  0  0  0
 34 40  1  0  0  0  0
 35 41  1  0  0  0  0
 35 39  1  0  0  0  0
 36 41  1  0  0  0  0
 37 36  1  0  0  0  0
 37 42  1  0  0  0  0
 38 40  1  0  0  0  0
 39 34  1  0  0  0  0
 40 33  1  1  0  0  0
 41 38  1  0  0  0  0
 42 41  1  0  0  0  0
M  END
>  <MODEL>
8

>  <REMARK>
 VINA RESULT:      -6.3      2.145      3.907
  Name = 
  11 active torsions:
  status: ('A' for Active; 'I' for Inactive)
    1  A    between atoms: C_3  and  C_10
    2  A    between atoms: C_3  and  C_15
    3  A    between atoms: O_4  and  N_7
    4  A    between atoms: O_4  and  C_37
    5  A    between atoms: C_5  and  N_21
    6  A    between atoms: C_5  and  C_31
    7  A    between atoms: O_6  and  C_12
    8  A    between atoms: O_6  and  C_26
    9  A    between atoms: C_9  and  C_22
   10  A    between atoms: C_15  and  C_17
   11  A    between atoms: C_24  and  N_28
                            x       y       z     vdW  Elec       q    Type
                         _______ _______ _______ _____ _____    ______ ____

>  <TORSDO>
F 11

$$$$
=
 OpenBabel11042420043D

 42 47  0  0  1  0  0  0  0  0999 V2000
  162.1550  206.1670  146.3800 N   0  0  0  0  0  2  0  0  0  0  0  0
  161.0060  203.1170  149.1530 C   0  0  0  0  0  0  0  0  0  0  0  0
  161.1320  205.6490  148.6330 C   0  0  2  0  0  3  0  0  0  0  0  0
  160.7040  204.5120  149.5230 C   0  0  0  0  0  0  0  0  0  0  0  0
  161.9610  203.9190  147.0900 N   0  0  0  0  0  0  0  0  0  0  0  0
  161.6000  202.8610  147.9900 C   0  0  0  0  0  3  0  0  0  0  0  0
  160.0800  204.7670  150.5890 O   0  0  0  0  0  0  0  0  0  0  0  0
  161.7640  205.1840  147.3430 C   0  0  0  0  0  0  0  0  0  0  0  0
  160.6580  202.0260  150.0230 C   0  0  0  0  0  0  0  0  0  0  0  0
  160.3780  201.1500  150.7230 N   0  0  0  0  0  0  0  0  0  0  0  0
  162.6750  205.8220  145.1760 O   0  0  0  0  0  0  0  0  0  0  0  0
  161.9250  205.4550  143.0030 C   0  0  2  0  0  3  0  0  0  0  0  0
  160.8620  205.0270  143.9250 N   0  0  0  0  0  2  0  0  0  0  0  0
  161.7030  206.1900  144.2420 C   0  0  1  0  0  3  0  0  0  0  0  0
  161.3340  206.2470  141.8520 C   0  0  0  0  0  2  0  0  0  0  0  0
  162.4220  207.0380  141.1470 C   0  0  0  0  0  2  0  0  0  0  0  0
  162.1060  207.1410  139.6910 C   0  0  0  0  0  0  0  0  0  0  0  0
  162.3310  206.1540  138.9420 O   0  0  0  0  0  0  0  0  0  0  0  0
  161.5810  208.3430  139.1250 N   0  0  0  0  0  2  0  0  0  0  0  0
  162.6420  210.3780  140.0140 C   0  0  0  0  0  2  0  0  0  0  0  0
  160.2550  210.4250  139.2380 C   0  0  2  0  0  3  0  0  0  0  0  0
  163.0860  210.9150  138.6520 C   0  0  0  0  0  2  0  0  0  0  0  0
  160.7080  210.9330  137.8710 C   0  0  0  0  0  2  0  0  0  0  0  0
  161.3460  209.5650  139.8960 C   0  0  1  0  0  3  0  0  0  0  0  0
  158.9520  209.6570  139.1050 C   0  0  0  0  0  1  0  0  0  0  0  0
  161.9810  211.7610  138.0260 C   0  0  0  0  0  2  0  0  0  0  0  0
  162.0120  206.4920  149.3250 O   0  0  0  0  0  0  0  0  0  0  0  0
  162.3260  209.7730  150.0230 C   0  0  0  0  0  2  0  0  0  0  0  0
  161.5010  209.4190  151.1660 N   0  0  0  0  0  0  0  0  0  0  0  0
  161.9560  208.8360  148.8930 C   0  0  0  0  0  2  0  0  0  0  0  0
  161.2800  207.6600  149.5600 C   0  0  2  0  0  3  0  0  0  0  0  0
  161.2870  207.9840  151.0400 C   0  0  0  0  0  2  0  0  0  0  0  0
  162.3020  209.6410  152.3610 C   0  0  0  0  0  2  0  0  0  0  0  0
  161.2060  209.2300  154.5870 C   0  0  0  0  0  2  0  0  0  0  0  0
  159.5330  210.9610  155.3910 C   0  0  0  0  0  2  0  0  0  0  0  0
  157.8120  211.4540  153.6010 C   0  0  0  0  0  2  0  0  0  0  0  0
  157.8540  212.9680  153.4920 C   0  0  0  0  0  2  0  0  0  0  0  0
  160.1320  210.7590  152.8770 C   0  0  0  0  0  2  0  0  0  0  0  0
  159.9280  209.4860  155.4010 C   0  0  0  0  0  2  0  0  0  0  0  0
  161.4490  210.2520  153.4610 C   0  0  2  0  0  3  0  0  0  0  0  0
  159.2840  211.4450  153.9570 C   0  0  0  0  0  0  0  0  0  0  0  0
  159.3300  212.9550  153.8520 C   0  0  0  0  0  2  0  0  0  0  0  0
  1  8  1  0  0  0  0
  2  4  1  0  0  0  0
  2  9  1  0  0  0  0
  3 27  1  1  0  0  0
  3  4  1  0  0  0  0
  4  7  2  0  0  0  0
  5  8  2  0  0  0  0
  5  6  1  0  0  0  0
  6  2  2  0  0  0  0
  8  3  1  0  0  0  0
  9 10  3  0  0  0  0
 11  1  1  0  0  0  0
 12 15  1  6  0  0  0
 12 13  1  0  0  0  0
 12 14  1  0  0  0  0
 13 14  1  0  0  0  0
 14 11  1  1  0  0  0
 16 15  1  0  0  0  0
 17 16  1  0  0  0  0
 18 17  2  0  0  0  0
 19 17  1  0  0  0  0
 21 25  1  6  0  0  0
 21 24  1  0  0  0  0
 22 20  1  0  0  0  0
 23 26  1  0  0  0  0
 23 21  1  0  0  0  0
 24 19  1  6  0  0  0
 24 20  1  0  0  0  0
 26 22  1  0  0  0  0
 28 29  1  0  0  0  0
 29 33  1  0  0  0  0
 30 31  1  0  0  0  0
 30 28  1  0  0  0  0
 31 27  1  1  0  0  0
 31 32  1  0  0  0  0
 32 29  1  0  0  0  0
 34 39  1  0  0  0  0
 35 39  1  0  0  0  0
 36 41  1  0  0  0  0
 37 36  1  0  0  0  0
 37 42  1  0  0  0  0
 38 40  1  0  0  0  0
 38 41  1  0  0  0  0
 40 33  1  6  0  0  0
 40 34  1  0  0  0  0
 41 35  1  0  0  0  0
 42 41  1  0  0  0  0
M  END
>  <MODEL>
9

>  <REMARK>
 VINA RESULT:      -6.0      4.050      8.018
  Name = 
  11 active torsions:
  status: ('A' for Active; 'I' for Inactive)
    1  A    between atoms: C_3  and  C_10
    2  A    between atoms: C_3  and  C_15
    3  A    between atoms: O_4  and  N_7
    4  A    between atoms: O_4  and  C_37
    5  A    between atoms: C_5  and  N_21
    6  A    between atoms: C_5  and  C_31
    7  A    between atoms: O_6  and  C_12
    8  A    between atoms: O_6  and  C_26
    9  A    between atoms: C_9  and  C_22
   10  A    between atoms: C_15  and  C_17
   11  A    between atoms: C_24  and  N_28
                            x       y       z     vdW  Elec       q    Type
                         _______ _______ _______ _____ _____    ______ ____

>  <TORSDO>
F 11

$$$$
