=
 OpenBabel11052410093D

 54 60  0  0  1  0  0  0  0  0999 V2000
  161.4070  210.9150  149.4530 C   0  0  0  0  0  0  0  0  0  0  0  0
  160.7320  211.8830  150.0330 C   0  0  0  0  0  0  0  0  0  0  0  0
  160.4770  213.1820  148.9440 S   0  0  0  0  0  0  0  0  0  0  0  0
  161.5320  209.6010  150.1470 C   0  0  2  0  0  3  0  0  0  0  0  0
  163.3860  211.4320  148.0520 C   0  0  0  0  0  1  0  0  0  0  0  0
  160.4640  211.7450  153.7210 C   0  0  0  0  0  0  0  0  0  0  0  0
  161.9900  210.4240  152.4060 C   0  0  0  0  0  0  0  0  0  0  0  0
  162.7050  210.1670  153.6010 C   0  0  0  0  0  3  0  0  0  0  0  0
  161.8860  211.2230  148.0450 C   0  0  2  0  0  3  0  0  0  0  0  0
  160.3270  211.9230  151.4100 N   0  0  0  0  0  0  0  0  0  0  0  0
  161.1740  211.4250  154.8350 C   0  0  0  0  0  0  0  0  0  0  0  0
  159.0160  213.4630  148.7170 O   0  0  0  0  0  0  0  0  0  0  0  0
  160.8700  211.3330  152.4480 C   0  0  0  0  0  0  0  0  0  0  0  0
  161.1240  211.9850  157.2600 C   0  0  0  0  0  1  0  0  0  0  0  0
  159.4620  212.6030  154.1450 C   0  0  0  0  0  3  0  0  0  0  0  0
  161.2510  212.4650  147.5610 N   0  0  0  0  0  0  0  0  0  0  0  0
  161.2090  214.4190  149.3830 O   0  0  0  0  0  0  0  0  0  0  0  0
  160.6440  212.0390  155.8920 N   0  0  0  0  0  0  0  0  0  0  0  0
  162.3020  210.6800  154.7980 N   0  0  0  0  0  0  0  0  0  0  0  0
  159.6010  212.7510  155.4860 N   0  0  0  0  0  0  0  0  0  0  0  0
  162.3170  209.7100  151.3660 N   0  0  0  0  0  0  0  0  0  0  0  0
  163.3230  208.2460  149.0270 C   0  0  0  0  0  1  0  0  0  0  0  0
  161.8200  208.3350  149.3040 C   0  0  2  0  0  0  0  0  0  0  0  0
  161.7700  207.5750  146.8490 C   0  0  0  0  0  1  0  0  0  0  0  0
  161.0630  208.3400  147.9600 C   0  0  0  0  0  2  0  0  0  0  0  0
  161.3730  207.0830  150.1090 C   0  0  1  0  0  3  0  0  0  0  0  0
  159.9900  202.4060  149.9160 F   0  0  0  0  0  0  0  0  0  0  0  0
  161.2780  203.2700  148.1120 C   0  0  0  0  0  3  0  0  0  0  0  0
  161.9570  204.3430  147.5240 C   0  0  0  0  0  3  0  0  0  0  0  0
  160.6440  203.4420  149.3450 C   0  0  0  0  0  0  0  0  0  0  0  0
  161.9980  205.5820  148.1670 C   0  0  0  0  0  3  0  0  0  0  0  0
  161.3610  205.7550  149.4020 C   0  0  0  0  0  0  0  0  0  0  0  0
  160.6860  204.6830  149.9870 C   0  0  0  0  0  3  0  0  0  0  0  0
  161.7710  207.0190  151.4700 O   0  0  0  0  0  0  0  0  0  0  0  0
  160.6960  206.6200  152.2030 N   0  0  0  0  0  0  0  0  0  0  0  0
  161.0540  207.3830  154.4830 C   0  0  0  0  0  2  0  0  0  0  0  0
  161.1350  205.4980  153.0280 C   0  0  0  0  0  2  0  0  0  0  0  0
  160.3860  207.6940  153.1480 C   0  0  0  0  0  2  0  0  0  0  0  0
  161.7450  206.0590  154.2910 C   0  0  0  0  0  2  0  0  0  0  0  0
  160.2790  212.1730  146.5010 C   0  0  0  0  0  2  0  0  0  0  0  0
  160.8780  212.1310  145.0930 C   0  0  0  0  0  2  0  0  0  0  0  0
  158.9150  213.4780  144.3020 C   0  0  0  0  0  0  0  0  0  0  0  0
  158.1720  212.8690  145.1100 O   0  0  0  0  0  0  0  0  0  0  0  0
  160.3340  213.2180  144.2950 N   0  0  0  0  0  0  0  0  0  0  0  0
  158.2910  214.4520  143.3660 C   0  0  0  0  0  1  0  0  0  0  0  0
  161.2870  213.9460  143.4540 C   0  0  1  0  0  3  0  0  0  0  0  0
  162.6390  214.0640  144.1450 C   0  0  0  0  0  1  0  0  0  0  0  0
  162.5690  211.8360  140.5160 C   0  0  2  0  0  3  0  0  0  0  0  0
  161.7510  211.9580  141.8080 C   0  0  0  0  0  2  0  0  0  0  0  0
  161.2280  213.7030  139.6360 C   0  0  0  0  0  3  0  0  0  0  0  0
  161.3600  213.3940  142.0540 C   0  0  0  0  0  0  0  0  0  0  0  0
  161.8960  212.5720  139.3910 C   0  0  0  0  0  3  0  0  0  0  0  0
  161.0730  214.1890  141.0170 C   0  0  0  0  0  3  0  0  0  0  0  0
  162.7230  210.4950  140.1860 O   0  0  0  0  0  1  0  0  0  0  0  0
  1  2  2  0  0  0  0
  1  4  1  0  0  0  0
  2 10  1  0  0  0  0
  3 17  2  0  0  0  0
  3  2  1  0  0  0  0
  4 23  1  6  0  0  0
  4 21  1  0  0  0  0
  6 15  1  0  0  0  0
  6 11  2  0  0  0  0
  7 13  1  0  0  0  0
  7  8  1  0  0  0  0
  8 19  2  0  0  0  0
  9  5  1  1  0  0  0
  9  1  1  0  0  0  0
 10 13  2  0  0  0  0
 11 18  1  0  0  0  0
 12  3  2  0  0  0  0
 13  6  1  0  0  0  0
 15 20  2  0  0  0  0
 16  9  1  0  0  0  0
 16  3  1  0  0  0  0
 18 14  1  0  0  0  0
 19 11  1  0  0  0  0
 20 18  1  0  0  0  0
 21  7  2  0  0  0  0
 23 22  1  6  0  0  0
 23 26  1  0  0  0  0
 24 25  1  0  0  0  0
 25 23  1  0  0  0  0
 26 34  1  1  0  0  0
 28 30  1  0  0  0  0
 29 28  2  0  0  0  0
 29 31  1  0  0  0  0
 30 27  1  0  0  0  0
 30 33  2  0  0  0  0
 31 32  2  0  0  0  0
 32 33  1  0  0  0  0
 32 26  1  0  0  0  0
 34 35  1  0  0  0  0
 35 37  1  0  0  0  0
 35 38  1  0  0  0  0
 37 39  1  0  0  0  0
 38 36  1  0  0  0  0
 39 36  1  0  0  0  0
 40 16  1  0  0  0  0
 41 40  1  0  0  0  0
 42 43  2  0  0  0  0
 44 42  1  0  0  0  0
 44 41  1  0  0  0  0
 45 42  1  0  0  0  0
 46 47  1  1  0  0  0
 46 44  1  0  0  0  0
 48 54  1  6  0  0  0
 48 49  1  0  0  0  0
 49 51  1  0  0  0  0
 50 53  1  0  0  0  0
 51 46  1  0  0  0  0
 52 50  2  0  0  0  0
 52 48  1  0  0  0  0
 53 51  2  0  0  0  0
M  END
>  <MODEL>
1

>  <REMARK>
 VINA RESULT:      -4.0      0.000      0.000
  Name = 
  11 active torsions:
  status: ('A' for Active; 'I' for Inactive)
    1  A    between atoms: C_5  and  C_8
    2  A    between atoms: C_5  and  N_41
    3  A    between atoms: C_6  and  C_35
    4  A    between atoms: C_6  and  N_43
    5  A    between atoms: C_8  and  N_43
    6  A    between atoms: C_10  and  C_37
    7  A    between atoms: C_13  and  C_37
    8  A    between atoms: C_13  and  C_39
    9  A    between atoms: C_13  and  O_50
   10  A    between atoms: N_23  and  O_50
   11  A    between atoms: C_36  and  C_37
                            x       y       z     vdW  Elec       q    Type
                         _______ _______ _______ _____ _____    ______ ____

>  <TORSDO>
F 11

$$$$
=
 OpenBabel11052410093D

 54 60  0  0  1  0  0  0  0  0999 V2000
  161.5570  210.8430  149.3350 C   0  0  0  0  0  0  0  0  0  0  0  0
  161.4790  210.2610  150.5120 C   0  0  2  0  0  3  0  0  0  0  0  0
  161.6890  208.5660  150.3660 S   0  0  0  0  0  0  0  0  0  0  0  0
  161.6370  212.3300  149.2650 C   0  0  0  0  0  0  0  0  0  0  0  0
  160.3940  209.8680  147.3740 C   0  0  0  0  0  1  0  0  0  0  0  0
  160.0830  212.2860  153.2760 C   0  0  0  0  0  0  0  0  0  0  0  0
  159.9380  212.8650  150.9430 C   0  0  0  0  0  0  0  0  0  0  0  0
  158.9170  213.7810  151.2950 C   0  0  0  0  0  3  0  0  0  0  0  0
  161.6890  209.8920  148.1580 C   0  0  2  0  0  3  0  0  0  0  0  0
  161.1710  210.9100  151.7550 N   0  0  0  0  0  0  0  0  0  0  0  0
  159.1260  213.2120  153.5490 C   0  0  0  0  0  0  0  0  0  0  0  0
  162.8690  208.0640  151.1540 O   0  0  0  0  0  0  0  0  0  0  0  0
  160.4840  212.0070  151.9670 C   0  0  0  0  0  0  0  0  0  0  0  0
  157.8630  214.0060  155.5410 C   0  0  0  0  0  1  0  0  0  0  0  0
  160.3810  211.6820  154.4880 C   0  0  0  0  0  3  0  0  0  0  0  0
  161.9550  208.5240  148.6480 N   0  0  0  0  0  0  0  0  0  0  0  0
  160.4340  207.8240  150.7290 O   0  0  0  0  0  0  0  0  0  0  0  0
  158.8480  213.1950  154.8520 N   0  0  0  0  0  0  0  0  0  0  0  0
  158.5100  213.9350  152.5870 N   0  0  0  0  0  0  0  0  0  0  0  0
  159.6080  212.2750  155.4330 N   0  0  0  0  0  0  0  0  0  0  0  0
  160.4100  212.9560  149.7320 N   0  0  0  0  0  0  0  0  0  0  0  0
  163.3970  212.1030  147.4890 C   0  0  0  0  0  1  0  0  0  0  0  0
  162.2600  212.9880  148.0090 C   0  0  2  0  0  0  0  0  0  0  0  0
  164.3350  214.4520  148.4100 C   0  0  0  0  0  1  0  0  0  0  0  0
  162.8170  214.3960  148.3000 C   0  0  0  0  0  2  0  0  0  0  0  0
  161.1670  213.1140  146.9130 C   0  0  1  0  0  3  0  0  0  0  0  0
  160.5180  211.4760  142.3620 F   0  0  0  0  0  0  0  0  0  0  0  0
  162.3400  212.9490  142.7740 C   0  0  0  0  0  3  0  0  0  0  0  0
  163.0800  213.7250  143.6730 C   0  0  0  0  0  3  0  0  0  0  0  0
  161.2320  212.2290  143.2270 C   0  0  0  0  0  0  0  0  0  0  0  0
  162.7110  213.7800  145.0190 C   0  0  0  0  0  3  0  0  0  0  0  0
  161.5990  213.0590  145.4730 C   0  0  0  0  0  0  0  0  0  0  0  0
  160.8630  212.2850  144.5740 C   0  0  0  0  0  3  0  0  0  0  0  0
  159.9200  212.4890  147.1750 O   0  0  0  0  0  0  0  0  0  0  0  0
  158.9630  213.1490  146.4670 N   0  0  0  0  0  0  0  0  0  0  0  0
  157.5710  214.3360  148.0680 C   0  0  0  0  0  2  0  0  0  0  0  0
  157.7110  212.4210  146.6580 C   0  0  0  0  0  2  0  0  0  0  0  0
  158.7540  214.4460  147.1130 C   0  0  0  0  0  2  0  0  0  0  0  0
  157.0690  212.9220  147.9300 C   0  0  0  0  0  2  0  0  0  0  0  0
  163.3300  208.1180  148.3340 C   0  0  0  0  0  2  0  0  0  0  0  0
  163.4910  206.6250  148.0340 C   0  0  0  0  0  2  0  0  0  0  0  0
  162.1010  205.9090  146.0720 C   0  0  0  0  0  0  0  0  0  0  0  0
  163.0920  206.0560  145.3160 O   0  0  0  0  0  0  0  0  0  0  0  0
  162.2490  206.0960  147.4950 N   0  0  0  0  0  0  0  0  0  0  0  0
  160.7940  205.5490  145.4600 C   0  0  0  0  0  1  0  0  0  0  0  0
  161.1740  205.8550  148.4610 C   0  0  1  0  0  3  0  0  0  0  0  0
  159.8210  206.2240  147.8680 C   0  0  0  0  0  1  0  0  0  0  0  0
  160.7360  202.0470  148.6660 C   0  0  2  0  0  3  0  0  0  0  0  0
  161.5270  203.2700  148.1840 C   0  0  0  0  0  2  0  0  0  0  0  0
  160.9630  202.9520  150.9440 C   0  0  0  0  0  3  0  0  0  0  0  0
  161.2290  204.4700  149.0510 C   0  0  0  0  0  0  0  0  0  0  0  0
  160.8750  201.8780  150.1530 C   0  0  0  0  0  3  0  0  0  0  0  0
  161.0090  204.3030  150.3600 C   0  0  0  0  0  3  0  0  0  0  0  0
  161.1910  200.9100  148.0100 O   0  0  0  0  0  1  0  0  0  0  0  0
  2  1  1  6  0  0  0
  2 10  1  0  0  0  0
  3  2  1  0  0  0  0
  3 17  2  0  0  0  0
  3 12  2  0  0  0  0
  4  1  2  0  0  0  0
  4 21  1  0  0  0  0
  6 11  2  0  0  0  0
  6 15  1  0  0  0  0
  7  8  1  0  0  0  0
  7 13  1  0  0  0  0
  8 19  2  0  0  0  0
  9  5  1  1  0  0  0
  9 16  1  0  0  0  0
  9  1  1  0  0  0  0
 10 13  2  0  0  0  0
 11 18  1  0  0  0  0
 13  6  1  0  0  0  0
 15 20  2  0  0  0  0
 16  3  1  0  0  0  0
 18 20  1  0  0  0  0
 18 14  1  0  0  0  0
 19 11  1  0  0  0  0
 21  7  2  0  0  0  0
 23 22  1  6  0  0  0
 23 25  1  0  0  0  0
 23  4  1  0  0  0  0
 25 24  1  0  0  0  0
 26 34  1  1  0  0  0
 26 23  1  0  0  0  0
 27 30  1  0  0  0  0
 28 30  2  0  0  0  0
 28 29  1  0  0  0  0
 29 31  2  0  0  0  0
 30 33  1  0  0  0  0
 31 32  1  0  0  0  0
 32 26  1  0  0  0  0
 33 32  2  0  0  0  0
 35 37  1  0  0  0  0
 35 38  1  0  0  0  0
 35 34  1  0  0  0  0
 37 39  1  0  0  0  0
 38 36  1  0  0  0  0
 39 36  1  0  0  0  0
 40 16  1  0  0  0  0
 41 40  1  0  0  0  0
 42 44  1  0  0  0  0
 43 42  2  0  0  0  0
 44 41  1  0  0  0  0
 44 46  1  0  0  0  0
 45 42  1  0  0  0  0
 46 47  1  6  0  0  0
 46 51  1  0  0  0  0
 48 54  1  6  0  0  0
 48 52  1  0  0  0  0
 49 48  1  0  0  0  0
 49 51  1  0  0  0  0
 51 53  2  0  0  0  0
 52 50  2  0  0  0  0
 53 50  1  0  0  0  0
M  END
>  <MODEL>
2

>  <REMARK>
 VINA RESULT:      -3.2      2.901      8.037
  Name = 
  11 active torsions:
  status: ('A' for Active; 'I' for Inactive)
    1  A    between atoms: C_5  and  C_8
    2  A    between atoms: C_5  and  N_41
    3  A    between atoms: C_6  and  C_35
    4  A    between atoms: C_6  and  N_43
    5  A    between atoms: C_8  and  N_43
    6  A    between atoms: C_10  and  C_37
    7  A    between atoms: C_13  and  C_37
    8  A    between atoms: C_13  and  C_39
    9  A    between atoms: C_13  and  O_50
   10  A    between atoms: N_23  and  O_50
   11  A    between atoms: C_36  and  C_37
                            x       y       z     vdW  Elec       q    Type
                         _______ _______ _______ _____ _____    ______ ____

>  <TORSDO>
F 11

$$$$
=
 OpenBabel11052410093D

 54 60  0  0  1  0  0  0  0  0999 V2000
  161.5290  208.8300  150.1800 C   0  0  0  0  0  0  0  0  0  0  0  0
  161.1860  208.6640  148.9210 C   0  0  0  0  0  0  0  0  0  0  0  0
  161.2030  207.0010  148.5040 S   0  0  0  0  0  0  0  0  0  0  0  0
  161.3510  210.1710  150.8090 C   0  0  2  0  0  3  0  0  0  0  0  0
  163.4540  207.5910  151.1310 C   0  0  0  0  0  1  0  0  0  0  0  0
  161.1890  211.6840  146.7850 C   0  0  0  0  0  0  0  0  0  0  0  0
  162.1930  211.5490  148.9700 C   0  0  0  0  0  0  0  0  0  0  0  0
  162.9060  212.7300  148.6510 C   0  0  0  0  0  3  0  0  0  0  0  0
  161.9580  207.5630  150.9000 C   0  0  2  0  0  3  0  0  0  0  0  0
  160.9190  209.7080  147.9740 N   0  0  0  0  0  0  0  0  0  0  0  0
  161.8740  212.8370  146.5600 C   0  0  0  0  0  0  0  0  0  0  0  0
  159.8570  206.5130  148.0380 O   0  0  0  0  0  0  0  0  0  0  0  0
  161.3650  210.9410  147.9550 C   0  0  0  0  0  0  0  0  0  0  0  0
  162.1710  214.4530  144.6900 C   0  0  0  0  0  1  0  0  0  0  0  0
  160.4920  211.4240  145.6160 C   0  0  0  0  0  3  0  0  0  0  0  0
  161.6420  206.3850  150.0690 N   0  0  0  0  0  0  0  0  0  0  0  0
  162.2730  206.7000  147.4920 O   0  0  0  0  0  0  0  0  0  0  0  0
  161.6150  213.2750  145.3290 N   0  0  0  0  0  0  0  0  0  0  0  0
  162.7540  213.3530  147.4480 N   0  0  0  0  0  0  0  0  0  0  0  0
  160.7720  212.4300  144.7490 N   0  0  0  0  0  0  0  0  0  0  0  0
  162.2320  211.1630  150.2140 N   0  0  0  0  0  0  0  0  0  0  0  0
  162.6170  210.3490  152.9680 C   0  0  0  0  0  1  0  0  0  0  0  0
  161.2200  210.2640  152.3480 C   0  0  2  0  0  0  0  0  0  0  0  0
  161.1450  208.4720  154.1910 C   0  0  0  0  0  1  0  0  0  0  0  0
  160.4810  209.0510  152.9490 C   0  0  0  0  0  2  0  0  0  0  0  0
  160.4210  211.5470  152.7080 C   0  0  1  0  0  3  0  0  0  0  0  0
  157.1030  212.6090  149.2900 F   0  0  0  0  0  0  0  0  0  0  0  0
  158.9930  214.0390  149.5010 C   0  0  0  0  0  3  0  0  0  0  0  0
  160.1980  214.3530  150.1380 C   0  0  0  0  0  3  0  0  0  0  0  0
  158.2660  212.9160  149.9060 C   0  0  0  0  0  0  0  0  0  0  0  0
  160.6720  213.5470  151.1750 C   0  0  0  0  0  3  0  0  0  0  0  0
  159.9440  212.4230  151.5820 C   0  0  0  0  0  0  0  0  0  0  0  0
  158.7420  212.1100  150.9440 C   0  0  0  0  0  3  0  0  0  0  0  0
  159.5220  211.4570  153.8030 O   0  0  0  0  0  0  0  0  0  0  0  0
  159.5620  212.6390  154.4760 N   0  0  0  0  0  0  0  0  0  0  0  0
  158.9000  212.1830  156.7710 C   0  0  0  0  0  2  0  0  0  0  0  0
  158.1790  213.0630  154.6780 C   0  0  0  0  0  2  0  0  0  0  0  0
  160.0770  212.3620  155.8180 C   0  0  0  0  0  2  0  0  0  0  0  0
  157.6660  212.4020  155.9350 C   0  0  0  0  0  2  0  0  0  0  0  0
  160.5460  205.6090  150.6610 C   0  0  0  0  0  2  0  0  0  0  0  0
  160.1690  204.3510  149.8740 C   0  0  0  0  0  2  0  0  0  0  0  0
  161.3780  203.2140  151.7540 C   0  0  0  0  0  0  0  0  0  0  0  0
  161.0220  204.1280  152.5370 O   0  0  0  0  0  0  0  0  0  0  0  0
  160.9060  203.2090  150.3910 N   0  0  0  0  0  0  0  0  0  0  0  0
  162.2920  202.1580  152.2710 C   0  0  0  0  0  1  0  0  0  0  0  0
  161.1930  202.1360  149.4360 C   0  0  1  0  0  3  0  0  0  0  0  0
  160.3870  200.8870  149.7660 C   0  0  0  0  0  1  0  0  0  0  0  0
  160.6560  201.8650  145.6460 C   0  0  2  0  0  3  0  0  0  0  0  0
  160.0850  201.9270  147.0680 C   0  0  0  0  0  2  0  0  0  0  0  0
  161.7970  203.9890  146.1430 C   0  0  0  0  0  3  0  0  0  0  0  0
  161.0660  202.5890  148.0050 C   0  0  0  0  0  0  0  0  0  0  0  0
  161.2080  203.2020  145.2370 C   0  0  0  0  0  3  0  0  0  0  0  0
  161.8330  203.5910  147.5600 C   0  0  0  0  0  3  0  0  0  0  0  0
  159.6610  201.4670  144.7610 O   0  0  0  0  0  1  0  0  0  0  0  0
  1  4  1  0  0  0  0
  1  9  1  0  0  0  0
  2  1  2  0  0  0  0
  3  2  1  0  0  0  0
  3 16  1  0  0  0  0
  4 23  1  1  0  0  0
  6 13  1  0  0  0  0
  7 21  2  0  0  0  0
  8  7  1  0  0  0  0
  9  5  1  6  0  0  0
 10  2  1  0  0  0  0
 11  6  2  0  0  0  0
 11 19  1  0  0  0  0
 12  3  2  0  0  0  0
 13 10  2  0  0  0  0
 13  7  1  0  0  0  0
 14 18  1  0  0  0  0
 15  6  1  0  0  0  0
 16 40  1  0  0  0  0
 16  9  1  0  0  0  0
 17  3  2  0  0  0  0
 18 11  1  0  0  0  0
 19  8  2  0  0  0  0
 20 18  1  0  0  0  0
 20 15  2  0  0  0  0
 21  4  1  0  0  0  0
 23 26  1  0  0  0  0
 23 25  1  0  0  0  0
 23 22  1  1  0  0  0
 25 24  1  0  0  0  0
 26 34  1  6  0  0  0
 27 30  1  0  0  0  0
 28 30  2  0  0  0  0
 28 29  1  0  0  0  0
 29 31  2  0  0  0  0
 30 33  1  0  0  0  0
 31 32  1  0  0  0  0
 32 26  1  0  0  0  0
 33 32  2  0  0  0  0
 34 35  1  0  0  0  0
 35 37  1  0  0  0  0
 35 38  1  0  0  0  0
 37 39  1  0  0  0  0
 38 36  1  0  0  0  0
 39 36  1  0  0  0  0
 41 44  1  0  0  0  0
 41 40  1  0  0  0  0
 42 45  1  0  0  0  0
 42 43  2  0  0  0  0
 44 42  1  0  0  0  0
 46 47  1  1  0  0  0
 46 44  1  0  0  0  0
 48 54  1  6  0  0  0
 48 49  1  0  0  0  0
 49 51  1  0  0  0  0
 50 53  1  0  0  0  0
 51 46  1  0  0  0  0
 52 48  1  0  0  0  0
 52 50  2  0  0  0  0
 53 51  2  0  0  0  0
M  END
>  <MODEL>
3

>  <REMARK>
 VINA RESULT:      -3.1      3.295      8.808
  Name = 
  11 active torsions:
  status: ('A' for Active; 'I' for Inactive)
    1  A    between atoms: C_5  and  C_8
    2  A    between atoms: C_5  and  N_41
    3  A    between atoms: C_6  and  C_35
    4  A    between atoms: C_6  and  N_43
    5  A    between atoms: C_8  and  N_43
    6  A    between atoms: C_10  and  C_37
    7  A    between atoms: C_13  and  C_37
    8  A    between atoms: C_13  and  C_39
    9  A    between atoms: C_13  and  O_50
   10  A    between atoms: N_23  and  O_50
   11  A    between atoms: C_36  and  C_37
                            x       y       z     vdW  Elec       q    Type
                         _______ _______ _______ _____ _____    ______ ____

>  <TORSDO>
F 11

$$$$
=
 OpenBabel11052410093D

 54 60  0  0  1  0  0  0  0  0999 V2000
  161.3660  210.9600  149.8810 C   0  0  0  0  0  0  0  0  0  0  0  0
  160.5140  211.8970  150.2330 C   0  0  0  0  0  0  0  0  0  0  0  0
  160.5360  213.1910  149.1080 S   0  0  0  0  0  0  0  0  0  0  0  0
  161.3350  209.6480  150.5880 C   0  0  2  0  0  3  0  0  0  0  0  0
  163.6450  211.5620  149.1120 C   0  0  0  0  0  1  0  0  0  0  0  0
  159.1910  211.7280  153.6840 C   0  0  0  0  0  0  0  0  0  0  0  0
  161.0830  210.4750  152.8780 C   0  0  0  0  0  0  0  0  0  0  0  0
  161.4290  210.2390  154.2310 C   0  0  0  0  0  3  0  0  0  0  0  0
  162.2220  211.2940  148.6710 C   0  0  2  0  0  3  0  0  0  0  0  0
  159.7240  211.9130  151.4320 N   0  0  0  0  0  0  0  0  0  0  0  0
  159.5570  211.4300  154.9580 C   0  0  0  0  0  0  0  0  0  0  0  0
  159.1940  213.4150  148.4650 O   0  0  0  0  0  0  0  0  0  0  0  0
  159.9640  211.3400  152.5870 C   0  0  0  0  0  0  0  0  0  0  0  0
  158.7810  211.9740  157.2600 C   0  0  0  0  0  1  0  0  0  0  0  0
  158.0760  212.5440  153.7920 C   0  0  0  0  0  3  0  0  0  0  0  0
  161.7070  212.5130  148.0150 N   0  0  0  0  0  0  0  0  0  0  0  0
  161.0600  214.4530  149.7340 O   0  0  0  0  0  0  0  0  0  0  0  0
  158.7190  212.0170  155.8110 N   0  0  0  0  0  0  0  0  0  0  0  0
  160.6760  210.7300  155.2560 N   0  0  0  0  0  0  0  0  0  0  0  0
  157.8120  212.6900  155.1150 N   0  0  0  0  0  0  0  0  0  0  0  0
  161.7270  209.7810  151.9820 N   0  0  0  0  0  0  0  0  0  0  0  0
  163.1440  207.9090  150.6280 C   0  0  0  0  0  1  0  0  0  0  0  0
  161.9050  208.3980  149.8740 C   0  0  2  0  0  0  0  0  0  0  0  0
  163.4720  207.8630  147.9070 C   0  0  0  0  0  1  0  0  0  0  0  0
  162.2930  208.6860  148.4090 C   0  0  0  0  0  2  0  0  0  0  0  0
  160.8270  207.2790  149.8800 C   0  0  1  0  0  3  0  0  0  0  0  0
  161.5690  202.7170  148.3120 F   0  0  0  0  0  0  0  0  0  0  0  0
  160.8670  204.3480  146.7280 C   0  0  0  0  0  3  0  0  0  0  0  0
  160.5070  205.6680  146.4400 C   0  0  0  0  0  3  0  0  0  0  0  0
  161.2180  203.9920  148.0330 C   0  0  0  0  0  0  0  0  0  0  0  0
  160.4970  206.6280  147.4550 C   0  0  0  0  0  3  0  0  0  0  0  0
  160.8470  206.2710  148.7630 C   0  0  0  0  0  0  0  0  0  0  0  0
  161.2070  204.9530  149.0470 C   0  0  0  0  0  3  0  0  0  0  0  0
  160.4620  206.7470  151.1440 O   0  0  0  0  0  0  0  0  0  0  0  0
  161.5850  206.2480  151.7290 N   0  0  0  0  0  0  0  0  0  0  0  0
  160.8800  204.5280  153.2950 C   0  0  0  0  0  2  0  0  0  0  0  0
  161.6310  206.7800  153.0890 C   0  0  0  0  0  2  0  0  0  0  0  0
  161.3950  204.8060  151.8880 C   0  0  0  0  0  2  0  0  0  0  0  0
  160.8080  205.8720  153.9720 C   0  0  0  0  0  2  0  0  0  0  0  0
  161.0970  212.1890  146.7200 C   0  0  0  0  0  2  0  0  0  0  0  0
  161.0660  213.3570  145.7300 C   0  0  0  0  0  2  0  0  0  0  0  0
  162.5100  213.0020  143.7100 C   0  0  0  0  0  0  0  0  0  0  0  0
  163.5070  213.4170  144.3500 O   0  0  0  0  0  0  0  0  0  0  0  0
  161.2390  212.8570  144.3760 N   0  0  0  0  0  0  0  0  0  0  0  0
  162.6820  212.6770  142.2680 C   0  0  0  0  0  1  0  0  0  0  0  0
  160.0470  212.2940  143.7360 C   0  0  1  0  0  3  0  0  0  0  0  0
  158.7800  212.9090  144.3130 C   0  0  0  0  0  1  0  0  0  0  0  0
  159.0710  213.2390  140.1460 C   0  0  2  0  0  3  0  0  0  0  0  0
  159.7420  213.5950  141.4780 C   0  0  0  0  0  2  0  0  0  0  0  0
  160.5270  211.2550  140.0840 C   0  0  0  0  0  3  0  0  0  0  0  0
  160.1230  212.3440  142.2310 C   0  0  0  0  0  0  0  0  0  0  0  0
  159.8740  212.2050  139.4080 C   0  0  0  0  0  3  0  0  0  0  0  0
  160.5340  211.2650  141.5570 C   0  0  0  0  0  3  0  0  0  0  0  0
  158.9360  214.3840  139.3710 O   0  0  0  0  0  1  0  0  0  0  0  0
  1  2  2  0  0  0  0
  1  4  1  0  0  0  0
  2 10  1  0  0  0  0
  3 17  2  0  0  0  0
  3  2  1  0  0  0  0
  4 23  1  6  0  0  0
  4 21  1  0  0  0  0
  6 15  1  0  0  0  0
  6 11  2  0  0  0  0
  7  8  1  0  0  0  0
  8 19  2  0  0  0  0
  9  5  1  1  0  0  0
  9  1  1  0  0  0  0
 10 13  2  0  0  0  0
 11 19  1  0  0  0  0
 11 18  1  0  0  0  0
 12  3  2  0  0  0  0
 13  7  1  0  0  0  0
 13  6  1  0  0  0  0
 15 20  2  0  0  0  0
 16  9  1  0  0  0  0
 16  3  1  0  0  0  0
 18 14  1  0  0  0  0
 20 18  1  0  0  0  0
 21  7  2  0  0  0  0
 23 26  1  0  0  0  0
 23 22  1  1  0  0  0
 24 25  1  0  0  0  0
 25 23  1  0  0  0  0
 26 34  1  1  0  0  0
 28 30  1  0  0  0  0
 29 28  2  0  0  0  0
 29 31  1  0  0  0  0
 30 27  1  0  0  0  0
 30 33  2  0  0  0  0
 31 32  2  0  0  0  0
 32 33  1  0  0  0  0
 32 26  1  0  0  0  0
 34 35  1  0  0  0  0
 35 38  1  0  0  0  0
 35 37  1  0  0  0  0
 36 39  1  0  0  0  0
 37 39  1  0  0  0  0
 38 36  1  0  0  0  0
 40 16  1  0  0  0  0
 41 40  1  0  0  0  0
 42 43  2  0  0  0  0
 42 44  1  0  0  0  0
 44 41  1  0  0  0  0
 45 42  1  0  0  0  0
 46 47  1  1  0  0  0
 46 44  1  0  0  0  0
 48 54  1  6  0  0  0
 48 49  1  0  0  0  0
 49 51  1  0  0  0  0
 50 53  1  0  0  0  0
 51 46  1  0  0  0  0
 52 50  2  0  0  0  0
 52 48  1  0  0  0  0
 53 51  2  0  0  0  0
M  END
>  <MODEL>
4

>  <REMARK>
 VINA RESULT:      -3.0      1.631      2.160
  Name = 
  11 active torsions:
  status: ('A' for Active; 'I' for Inactive)
    1  A    between atoms: C_5  and  C_8
    2  A    between atoms: C_5  and  N_41
    3  A    between atoms: C_6  and  C_35
    4  A    between atoms: C_6  and  N_43
    5  A    between atoms: C_8  and  N_43
    6  A    between atoms: C_10  and  C_37
    7  A    between atoms: C_13  and  C_37
    8  A    between atoms: C_13  and  C_39
    9  A    between atoms: C_13  and  O_50
   10  A    between atoms: N_23  and  O_50
   11  A    between atoms: C_36  and  C_37
                            x       y       z     vdW  Elec       q    Type
                         _______ _______ _______ _____ _____    ______ ____

>  <TORSDO>
F 11

$$$$
=
 OpenBabel11052410093D

 54 60  0  0  1  0  0  0  0  0999 V2000
  161.3040  211.0250  150.1910 C   0  0  0  0  0  0  0  0  0  0  0  0
  160.5640  212.0980  150.3660 C   0  0  0  0  0  0  0  0  0  0  0  0
  160.7200  213.1660  149.0350 S   0  0  0  0  0  0  0  0  0  0  0  0
  161.1340  209.8680  151.1140 C   0  0  2  0  0  3  0  0  0  0  0  0
  163.6290  211.2290  149.3540 C   0  0  0  0  0  1  0  0  0  0  0  0
  159.2600  212.6770  153.7790 C   0  0  0  0  0  0  0  0  0  0  0  0
  160.9950  211.1030  153.2230 C   0  0  0  0  0  0  0  0  0  0  0  0
  161.3240  211.0680  154.6000 C   0  0  0  0  0  3  0  0  0  0  0  0
  162.1810  211.0480  148.9500 C   0  0  2  0  0  3  0  0  0  0  0  0
  159.7910  212.4090  151.5350 N   0  0  0  0  0  0  0  0  0  0  0  0
  159.6020  212.5660  155.0900 C   0  0  0  0  0  0  0  0  0  0  0  0
  159.4060  213.4230  148.3470 O   0  0  0  0  0  0  0  0  0  0  0  0
  159.9760  212.0220  152.7750 C   0  0  0  0  0  0  0  0  0  0  0  0
  158.9110  213.5840  157.2550 C   0  0  0  0  0  1  0  0  0  0  0  0
  158.2430  213.6180  153.7330 C   0  0  0  0  0  3  0  0  0  0  0  0
  161.7990  212.1840  148.0880 N   0  0  0  0  0  0  0  0  0  0  0  0
  161.3850  214.4530  149.4370 O   0  0  0  0  0  0  0  0  0  0  0  0
  158.8410  213.3810  155.8190 N   0  0  0  0  0  0  0  0  0  0  0  0
  160.6390  211.8090  155.5170 N   0  0  0  0  0  0  0  0  0  0  0  0
  158.0080  214.0190  155.0080 N   0  0  0  0  0  0  0  0  0  0  0  0
  161.5500  210.1960  152.4690 N   0  0  0  0  0  0  0  0  0  0  0  0
  163.0790  208.4130  150.4840 C   0  0  0  0  0  1  0  0  0  0  0  0
  161.5560  208.4580  150.6340 C   0  0  2  0  0  0  0  0  0  0  0  0
  161.9060  207.6230  148.2270 C   0  0  0  0  0  1  0  0  0  0  0  0
  160.9100  208.0800  149.2850 C   0  0  0  0  0  2  0  0  0  0  0  0
  161.1150  207.4120  151.6940 C   0  0  1  0  0  3  0  0  0  0  0  0
  160.0660  203.6830  148.7250 F   0  0  0  0  0  0  0  0  0  0  0  0
  161.4430  203.2560  150.6180 C   0  0  0  0  0  3  0  0  0  0  0  0
  162.0870  203.7260  151.7670 C   0  0  0  0  0  3  0  0  0  0  0  0
  160.6920  204.1350  149.8330 C   0  0  0  0  0  0  0  0  0  0  0  0
  161.9810  205.0720  152.1270 C   0  0  0  0  0  3  0  0  0  0  0  0
  161.2310  205.9540  151.3400 C   0  0  0  0  0  0  0  0  0  0  0  0
  160.5880  205.4820  150.1950 C   0  0  0  0  0  3  0  0  0  0  0  0
  161.4050  207.7110  153.0510 O   0  0  0  0  0  0  0  0  0  0  0  0
  160.7140  206.8350  153.8300 N   0  0  0  0  0  0  0  0  0  0  0  0
  159.9790  208.0500  155.8030 C   0  0  0  0  0  2  0  0  0  0  0  0
  161.5760  206.4960  154.9600 C   0  0  0  0  0  2  0  0  0  0  0  0
  159.5860  207.5620  154.4140 C   0  0  0  0  0  2  0  0  0  0  0  0
  161.3820  207.5480  156.0260 C   0  0  0  0  0  2  0  0  0  0  0  0
  161.1460  211.7100  146.8620 C   0  0  0  0  0  2  0  0  0  0  0  0
  161.8090  212.1940  145.5690 C   0  0  0  0  0  2  0  0  0  0  0  0
  159.4420  212.7650  144.9670 C   0  0  0  0  0  0  0  0  0  0  0  0
  159.0270  212.0260  145.8930 O   0  0  0  0  0  0  0  0  0  0  0  0
  160.8580  212.9740  144.7930 N   0  0  0  0  0  0  0  0  0  0  0  0
  158.4400  213.4010  144.0690 C   0  0  0  0  0  1  0  0  0  0  0  0
  161.4280  213.8900  143.8020 C   0  0  1  0  0  3  0  0  0  0  0  0
  162.7820  214.4130  144.2630 C   0  0  0  0  0  1  0  0  0  0  0  0
  160.0280  212.5600  140.4850 C   0  0  2  0  0  3  0  0  0  0  0  0
  160.4220  213.7390  141.3840 C   0  0  0  0  0  2  0  0  0  0  0  0
  162.3280  211.7310  140.7740 C   0  0  0  0  0  3  0  0  0  0  0  0
  161.4370  213.3050  142.4130 C   0  0  0  0  0  0  0  0  0  0  0  0
  161.2510  211.8400  139.9900 C   0  0  0  0  0  3  0  0  0  0  0  0
  162.3560  212.3880  142.0910 C   0  0  0  0  0  3  0  0  0  0  0  0
  159.2780  213.0230  139.4110 O   0  0  0  0  0  1  0  0  0  0  0  0
  1  2  2  0  0  0  0
  1  4  1  0  0  0  0
  2 10  1  0  0  0  0
  3 17  2  0  0  0  0
  3  2  1  0  0  0  0
  4 23  1  6  0  0  0
  4 21  1  0  0  0  0
  6 11  2  0  0  0  0
  7  8  1  0  0  0  0
  8 19  2  0  0  0  0
  9  5  1  1  0  0  0
  9  1  1  0  0  0  0
 10 13  2  0  0  0  0
 11 19  1  0  0  0  0
 11 18  1  0  0  0  0
 12  3  2  0  0  0  0
 13  7  1  0  0  0  0
 13  6  1  0  0  0  0
 15  6  1  0  0  0  0
 15 20  2  0  0  0  0
 16  9  1  0  0  0  0
 16  3  1  0  0  0  0
 18 14  1  0  0  0  0
 20 18  1  0  0  0  0
 21  7  2  0  0  0  0
 23 22  1  6  0  0  0
 23 26  1  0  0  0  0
 24 25  1  0  0  0  0
 25 23  1  0  0  0  0
 26 34  1  1  0  0  0
 27 30  1  0  0  0  0
 28 29  1  0  0  0  0
 29 31  2  0  0  0  0
 30 33  1  0  0  0  0
 30 28  2  0  0  0  0
 32 26  1  0  0  0  0
 32 31  1  0  0  0  0
 33 32  2  0  0  0  0
 34 35  1  0  0  0  0
 35 38  1  0  0  0  0
 35 37  1  0  0  0  0
 36 39  1  0  0  0  0
 37 39  1  0  0  0  0
 38 36  1  0  0  0  0
 40 16  1  0  0  0  0
 41 40  1  0  0  0  0
 42 43  2  0  0  0  0
 44 42  1  0  0  0  0
 44 41  1  0  0  0  0
 45 42  1  0  0  0  0
 46 47  1  1  0  0  0
 46 44  1  0  0  0  0
 48 54  1  6  0  0  0
 48 49  1  0  0  0  0
 49 51  1  0  0  0  0
 50 53  1  0  0  0  0
 51 46  1  0  0  0  0
 52 48  1  0  0  0  0
 52 50  2  0  0  0  0
 53 51  2  0  0  0  0
M  END
>  <MODEL>
5

>  <REMARK>
 VINA RESULT:      -2.7      1.376      1.825
  Name = 
  11 active torsions:
  status: ('A' for Active; 'I' for Inactive)
    1  A    between atoms: C_5  and  C_8
    2  A    between atoms: C_5  and  N_41
    3  A    between atoms: C_6  and  C_35
    4  A    between atoms: C_6  and  N_43
    5  A    between atoms: C_8  and  N_43
    6  A    between atoms: C_10  and  C_37
    7  A    between atoms: C_13  and  C_37
    8  A    between atoms: C_13  and  C_39
    9  A    between atoms: C_13  and  O_50
   10  A    between atoms: N_23  and  O_50
   11  A    between atoms: C_36  and  C_37
                            x       y       z     vdW  Elec       q    Type
                         _______ _______ _______ _____ _____    ______ ____

>  <TORSDO>
F 11

$$$$
=
 OpenBabel11052410093D

 54 60  0  0  1  0  0  0  0  0999 V2000
  161.5420  209.9830  150.8310 C   0  0  0  0  0  0  0  0  0  0  0  0
  161.0820  208.8410  151.2950 C   0  0  2  0  0  3  0  0  0  0  0  0
  160.9930  208.8750  153.0070 S   0  0  0  0  0  0  0  0  0  0  0  0
  161.4760  210.2480  149.3650 C   0  0  0  0  0  0  0  0  0  0  0  0
  163.4910  211.0790  151.9010 C   0  0  0  0  0  1  0  0  0  0  0  0
  161.0200  205.9920  148.9360 C   0  0  0  0  0  0  0  0  0  0  0  0
  162.2080  208.0540  148.5650 C   0  0  0  0  0  0  0  0  0  0  0  0
  162.9380  207.3830  147.5530 C   0  0  0  0  0  3  0  0  0  0  0  0
  161.9810  210.9760  151.8930 C   0  0  2  0  0  3  0  0  0  0  0  0
  160.7750  207.6750  150.5160 N   0  0  0  0  0  0  0  0  0  0  0  0
  161.7290  205.4210  147.9260 C   0  0  0  0  0  0  0  0  0  0  0  0
  159.5930  208.6560  153.5130 O   0  0  0  0  0  0  0  0  0  0  0  0
  161.2690  207.3000  149.3600 C   0  0  0  0  0  0  0  0  0  0  0  0
  161.9250  203.1760  146.8690 C   0  0  0  0  0  1  0  0  0  0  0  0
  160.2110  204.9880  149.4440 C   0  0  0  0  0  3  0  0  0  0  0  0
  161.5440  210.5100  153.2240 N   0  0  0  0  0  0  0  0  0  0  0  0
  161.9560  207.9010  153.6260 O   0  0  0  0  0  0  0  0  0  0  0  0
  161.3800  204.1410  147.8050 N   0  0  0  0  0  0  0  0  0  0  0  0
  162.7050  206.0740  147.2540 N   0  0  0  0  0  0  0  0  0  0  0  0
  160.4550  203.8690  148.7160 N   0  0  0  0  0  0  0  0  0  0  0  0
  162.3410  209.3490  148.6180 N   0  0  0  0  0  0  0  0  0  0  0  0
  162.9350  212.1660  148.6640 C   0  0  0  0  0  1  0  0  0  0  0  0
  161.4860  211.7150  148.8690 C   0  0  2  0  0  0  0  0  0  0  0  0
  161.3840  214.0810  149.8700 C   0  0  0  0  0  1  0  0  0  0  0  0
  160.8000  212.6750  149.8620 C   0  0  0  0  0  2  0  0  0  0  0  0
  160.7290  211.7930  147.5150 C   0  0  1  0  0  3  0  0  0  0  0  0
  156.2560  212.5060  145.6950 F   0  0  0  0  0  0  0  0  0  0  0  0
  157.0490  214.0220  147.3500 C   0  0  0  0  0  3  0  0  0  0  0  0
  158.0660  214.4290  148.2190 C   0  0  0  0  0  3  0  0  0  0  0  0
  157.2370  212.9000  146.5380 C   0  0  0  0  0  0  0  0  0  0  0  0
  159.2660  213.7160  148.2750 C   0  0  0  0  0  3  0  0  0  0  0  0
  159.4540  212.5910  147.4620 C   0  0  0  0  0  0  0  0  0  0  0  0
  158.4380  212.1870  146.5950 C   0  0  0  0  0  3  0  0  0  0  0  0
  161.5210  211.8750  146.3400 O   0  0  0  0  0  0  0  0  0  0  0  0
  161.3130  213.0970  145.7790 N   0  0  0  0  0  0  0  0  0  0  0  0
  162.1400  212.9920  143.4960 C   0  0  0  0  0  2  0  0  0  0  0  0
  162.6130  213.7590  145.7010 C   0  0  0  0  0  2  0  0  0  0  0  0
  160.9100  212.8790  144.3880 C   0  0  0  0  0  2  0  0  0  0  0  0
  163.2830  213.3210  144.4210 C   0  0  0  0  0  2  0  0  0  0  0  0
  160.4730  211.3650  153.7500 C   0  0  0  0  0  2  0  0  0  0  0  0
  160.7210  211.8810  155.1700 C   0  0  0  0  0  2  0  0  0  0  0  0
  158.6860  210.9780  156.3260 C   0  0  0  0  0  0  0  0  0  0  0  0
  159.1870  209.8270  156.3100 O   0  0  0  0  0  0  0  0  0  0  0  0
  159.4490  212.1010  155.8400 N   0  0  0  0  0  0  0  0  0  0  0  0
  157.3020  211.1380  156.8490 C   0  0  0  0  0  1  0  0  0  0  0  0
  158.9830  213.4890  155.9070 C   0  0  1  0  0  3  0  0  0  0  0  0
  160.1190  214.4240  156.3000 C   0  0  0  0  0  1  0  0  0  0  0  0
  156.1450  213.6480  153.3280 C   0  0  2  0  0  3  0  0  0  0  0  0
  156.7450  214.0780  154.6730 C   0  0  0  0  0  2  0  0  0  0  0  0
  158.2230  214.4530  152.2830 C   0  0  0  0  0  3  0  0  0  0  0  0
  158.2450  213.9090  154.6630 C   0  0  0  0  0  0  0  0  0  0  0  0
  156.9040  214.2660  152.1870 C   0  0  0  0  0  3  0  0  0  0  0  0
  158.9290  214.1340  153.5360 C   0  0  0  0  0  3  0  0  0  0  0  0
  154.8080  214.0220  153.2730 O   0  0  0  0  0  1  0  0  0  0  0  0
  1  2  1  0  0  0  0
  1  9  1  0  0  0  0
  2 10  1  1  0  0  0
  2  3  1  0  0  0  0
  3 16  1  0  0  0  0
  3 12  2  0  0  0  0
  3 17  2  0  0  0  0
  4  1  2  0  0  0  0
  6 13  1  0  0  0  0
  6 15  1  0  0  0  0
  7 21  2  0  0  0  0
  7 13  1  0  0  0  0
  8  7  1  0  0  0  0
  9  5  1  1  0  0  0
  9 16  1  0  0  0  0
 11  6  2  0  0  0  0
 13 10  2  0  0  0  0
 14 18  1  0  0  0  0
 16 40  1  0  0  0  0
 18 11  1  0  0  0  0
 18 20  1  0  0  0  0
 19  8  2  0  0  0  0
 19 11  1  0  0  0  0
 20 15  2  0  0  0  0
 21  4  1  0  0  0  0
 23 22  1  6  0  0  0
 23  4  1  0  0  0  0
 23 25  1  0  0  0  0
 25 24  1  0  0  0  0
 26 34  1  6  0  0  0
 26 23  1  0  0  0  0
 27 30  1  0  0  0  0
 28 29  1  0  0  0  0
 29 31  2  0  0  0  0
 30 33  1  0  0  0  0
 30 28  2  0  0  0  0
 32 26  1  0  0  0  0
 32 31  1  0  0  0  0
 33 32  2  0  0  0  0
 35 34  1  0  0  0  0
 36 38  1  0  0  0  0
 36 39  1  0  0  0  0
 37 35  1  0  0  0  0
 38 35  1  0  0  0  0
 39 37  1  0  0  0  0
 40 41  1  0  0  0  0
 41 44  1  0  0  0  0
 42 45  1  0  0  0  0
 43 42  2  0  0  0  0
 44 46  1  0  0  0  0
 44 42  1  0  0  0  0
 46 47  1  6  0  0  0
 48 54  1  1  0  0  0
 48 49  1  0  0  0  0
 50 53  1  0  0  0  0
 51 49  1  0  0  0  0
 51 46  1  0  0  0  0
 52 50  2  0  0  0  0
 52 48  1  0  0  0  0
 53 51  2  0  0  0  0
M  END
>  <MODEL>
6

>  <REMARK>
 VINA RESULT:      -2.6      3.131      9.622
  Name = 
  11 active torsions:
  status: ('A' for Active; 'I' for Inactive)
    1  A    between atoms: C_5  and  C_8
    2  A    between atoms: C_5  and  N_41
    3  A    between atoms: C_6  and  C_35
    4  A    between atoms: C_6  and  N_43
    5  A    between atoms: C_8  and  N_43
    6  A    between atoms: C_10  and  C_37
    7  A    between atoms: C_13  and  C_37
    8  A    between atoms: C_13  and  C_39
    9  A    between atoms: C_13  and  O_50
   10  A    between atoms: N_23  and  O_50
   11  A    between atoms: C_36  and  C_37
                            x       y       z     vdW  Elec       q    Type
                         _______ _______ _______ _____ _____    ______ ____

>  <TORSDO>
F 11

$$$$
=
 OpenBabel11052410093D

 54 60  0  0  1  0  0  0  0  0999 V2000
  161.6260  209.9190  150.7410 C   0  0  0  0  0  0  0  0  0  0  0  0
  161.1120  208.8370  151.2820 C   0  0  2  0  0  3  0  0  0  0  0  0
  161.0320  208.9910  152.9880 S   0  0  0  0  0  0  0  0  0  0  0  0
  161.5660  210.0880  149.2610 C   0  0  0  0  0  0  0  0  0  0  0  0
  163.6330  210.9850  151.7320 C   0  0  0  0  0  1  0  0  0  0  0  0
  160.8940  205.8410  149.1220 C   0  0  0  0  0  0  0  0  0  0  0  0
  162.1830  207.8100  148.6100 C   0  0  0  0  0  0  0  0  0  0  0  0
  162.8730  207.0370  147.6460 C   0  0  0  0  0  3  0  0  0  0  0  0
  162.1190  210.9590  151.7330 C   0  0  2  0  0  3  0  0  0  0  0  0
  160.7420  207.6380  150.5850 N   0  0  0  0  0  0  0  0  0  0  0  0
  161.5690  205.1680  148.1520 C   0  0  0  0  0  0  0  0  0  0  0  0
  159.6250  208.8780  153.5100 O   0  0  0  0  0  0  0  0  0  0  0  0
  161.2100  207.1610  149.4560 C   0  0  0  0  0  0  0  0  0  0  0  0
  161.6460  202.8490  147.2500 C   0  0  0  0  0  1  0  0  0  0  0  0
  160.0380  204.9160  149.6990 C   0  0  0  0  0  3  0  0  0  0  0  0
  161.6660  210.6070  153.0930 N   0  0  0  0  0  0  0  0  0  0  0  0
  161.9470  208.0140  153.6710 O   0  0  0  0  0  0  0  0  0  0  0  0
  161.1540  203.9020  148.1190 N   0  0  0  0  0  0  0  0  0  0  0  0
  162.5730  205.7230  147.4370 N   0  0  0  0  0  0  0  0  0  0  0  0
  160.2220  203.7390  149.0480 N   0  0  0  0  0  0  0  0  0  0  0  0
  162.3820  209.0980  148.5750 N   0  0  0  0  0  0  0  0  0  0  0  0
  163.0930  211.8040  148.2490 C   0  0  0  0  0  1  0  0  0  0  0  0
  161.6480  211.5150  148.6660 C   0  0  2  0  0  0  0  0  0  0  0  0
  161.7960  213.9710  149.4150 C   0  0  0  0  0  1  0  0  0  0  0  0
  161.1920  212.5950  149.6680 C   0  0  0  0  0  2  0  0  0  0  0  0
  160.7290  211.5930  147.4160 C   0  0  1  0  0  3  0  0  0  0  0  0
  156.2540  212.6450  145.7760 F   0  0  0  0  0  0  0  0  0  0  0  0
  157.0430  213.7990  147.7020 C   0  0  0  0  0  3  0  0  0  0  0  0
  158.0590  214.0260  148.6350 C   0  0  0  0  0  3  0  0  0  0  0  0
  157.2340  212.8640  146.6800 C   0  0  0  0  0  0  0  0  0  0  0  0
  159.2610  213.3200  148.5470 C   0  0  0  0  0  3  0  0  0  0  0  0
  159.4520  212.3820  147.5250 C   0  0  0  0  0  0  0  0  0  0  0  0
  158.4370  212.1580  146.5940 C   0  0  0  0  0  3  0  0  0  0  0  0
  161.3690  211.6850  146.1530 O   0  0  0  0  0  0  0  0  0  0  0  0
  161.1470  212.9340  145.6600 N   0  0  0  0  0  0  0  0  0  0  0  0
  162.1590  213.0290  143.4520 C   0  0  0  0  0  2  0  0  0  0  0  0
  162.4140  213.6560  145.7370 C   0  0  0  0  0  2  0  0  0  0  0  0
  160.8690  212.7980  144.2290 C   0  0  0  0  0  2  0  0  0  0  0  0
  163.2060  213.3410  144.4900 C   0  0  0  0  0  2  0  0  0  0  0  0
  160.6420  211.5490  153.5610 C   0  0  0  0  0  2  0  0  0  0  0  0
  159.4810  210.8920  154.3130 C   0  0  0  0  0  2  0  0  0  0  0  0
  158.1780  213.0110  154.6340 C   0  0  0  0  0  0  0  0  0  0  0  0
  157.9980  213.0890  153.3940 O   0  0  0  0  0  0  0  0  0  0  0  0
  158.8530  211.8660  155.1920 N   0  0  0  0  0  0  0  0  0  0  0  0
  157.6850  214.1250  155.4900 C   0  0  0  0  0  1  0  0  0  0  0  0
  159.0250  211.6460  156.6300 C   0  0  1  0  0  3  0  0  0  0  0  0
  157.7430  211.1120  157.2540 C   0  0  0  0  0  1  0  0  0  0  0  0
  162.7160  210.5920  156.6030 C   0  0  2  0  0  3  0  0  0  0  0  0
  161.5920  211.4830  157.1470 C   0  0  0  0  0  2  0  0  0  0  0  0
  161.3360  208.6620  157.2610 C   0  0  0  0  0  3  0  0  0  0  0  0
  160.2490  210.8250  156.9450 C   0  0  0  0  0  0  0  0  0  0  0  0
  162.5570  209.1800  157.0940 C   0  0  0  0  0  3  0  0  0  0  0  0
  160.1410  209.4960  157.0480 C   0  0  0  0  0  3  0  0  0  0  0  0
  163.9470  211.1010  156.9990 O   0  0  0  0  0  1  0  0  0  0  0  0
  1  2  1  0  0  0  0
  1  9  1  0  0  0  0
  2 10  1  1  0  0  0
  2  3  1  0  0  0  0
  3 16  1  0  0  0  0
  3 12  2  0  0  0  0
  3 17  2  0  0  0  0
  4  1  2  0  0  0  0
  6 13  1  0  0  0  0
  6 15  1  0  0  0  0
  7 13  1  0  0  0  0
  8  7  1  0  0  0  0
  9  5  1  1  0  0  0
  9 16  1  0  0  0  0
 11  6  2  0  0  0  0
 13 10  2  0  0  0  0
 14 18  1  0  0  0  0
 16 40  1  0  0  0  0
 18 11  1  0  0  0  0
 18 20  1  0  0  0  0
 19  8  2  0  0  0  0
 19 11  1  0  0  0  0
 20 15  2  0  0  0  0
 21  7  2  0  0  0  0
 21  4  1  0  0  0  0
 23 22  1  6  0  0  0
 23  4  1  0  0  0  0
 23 25  1  0  0  0  0
 24 25  1  0  0  0  0
 26 34  1  6  0  0  0
 26 32  1  0  0  0  0
 26 23  1  0  0  0  0
 27 30  1  0  0  0  0
 28 29  1  0  0  0  0
 30 28  2  0  0  0  0
 31 29  2  0  0  0  0
 32 31  1  0  0  0  0
 33 30  1  0  0  0  0
 33 32  2  0  0  0  0
 35 37  1  0  0  0  0
 35 34  1  0  0  0  0
 36 38  1  0  0  0  0
 36 39  1  0  0  0  0
 38 35  1  0  0  0  0
 39 37  1  0  0  0  0
 40 41  1  0  0  0  0
 41 44  1  0  0  0  0
 42 44  1  0  0  0  0
 42 45  1  0  0  0  0
 43 42  2  0  0  0  0
 44 46  1  0  0  0  0
 46 51  1  0  0  0  0
 46 47  1  6  0  0  0
 48 54  1  1  0  0  0
 48 52  1  0  0  0  0
 48 49  1  0  0  0  0
 51 53  2  0  0  0  0
 51 49  1  0  0  0  0
 52 50  2  0  0  0  0
 53 50  1  0  0  0  0
M  END
>  <MODEL>
7

>  <REMARK>
 VINA RESULT:      -1.8      3.056     10.049
  Name = 
  11 active torsions:
  status: ('A' for Active; 'I' for Inactive)
    1  A    between atoms: C_5  and  C_8
    2  A    between atoms: C_5  and  N_41
    3  A    between atoms: C_6  and  C_35
    4  A    between atoms: C_6  and  N_43
    5  A    between atoms: C_8  and  N_43
    6  A    between atoms: C_10  and  C_37
    7  A    between atoms: C_13  and  C_37
    8  A    between atoms: C_13  and  C_39
    9  A    between atoms: C_13  and  O_50
   10  A    between atoms: N_23  and  O_50
   11  A    between atoms: C_36  and  C_37
                            x       y       z     vdW  Elec       q    Type
                         _______ _______ _______ _____ _____    ______ ____

>  <TORSDO>
F 11

$$$$
=
 OpenBabel11052410093D

 54 60  0  0  1  0  0  0  0  0999 V2000
  161.2580  208.6850  153.8250 C   0  0  0  0  0  0  0  0  0  0  0  0
  160.6590  207.6340  154.3420 C   0  0  2  0  0  3  0  0  0  0  0  0
  160.2680  207.9080  155.9880 S   0  0  0  0  0  0  0  0  0  0  0  0
  161.4700  208.7460  152.3510 C   0  0  0  0  0  0  0  0  0  0  0  0
  163.0430  209.8570  155.0840 C   0  0  0  0  0  1  0  0  0  0  0  0
  160.8590  204.4880  152.4050 C   0  0  0  0  0  0  0  0  0  0  0  0
  162.2080  206.4400  151.9930 C   0  0  0  0  0  0  0  0  0  0  0  0
  163.0680  205.6130  151.2310 C   0  0  0  0  0  3  0  0  0  0  0  0
  161.5550  209.8020  154.8110 C   0  0  2  0  0  3  0  0  0  0  0  0
  160.4310  206.3810  153.6790 N   0  0  0  0  0  0  0  0  0  0  0  0
  161.7040  203.7610  151.6270 C   0  0  0  0  0  0  0  0  0  0  0  0
  158.7890  207.8060  156.2510 O   0  0  0  0  0  0  0  0  0  0  0  0
  161.1010  205.8340  152.6930 C   0  0  0  0  0  0  0  0  0  0  0  0
  161.9590  201.3850  150.9280 C   0  0  0  0  0  1  0  0  0  0  0  0
  159.9170  203.5900  152.8820 C   0  0  0  0  0  3  0  0  0  0  0  0
  160.8620  209.5390  156.0880 N   0  0  0  0  0  0  0  0  0  0  0  0
  161.0480  206.9990  156.8970 O   0  0  0  0  0  0  0  0  0  0  0  0
  161.3100  202.4880  151.6120 N   0  0  0  0  0  0  0  0  0  0  0  0
  162.8200  204.2820  151.0680 N   0  0  0  0  0  0  0  0  0  0  0  0
  160.2240  202.3740  152.3650 N   0  0  0  0  0  0  0  0  0  0  0  0
  162.4030  207.7250  151.9000 N   0  0  0  0  0  0  0  0  0  0  0  0
  163.0150  210.7030  152.0680 C   0  0  0  0  0  1  0  0  0  0  0  0
  161.6510  210.1280  151.6770 C   0  0  2  0  0  0  0  0  0  0  0  0
  159.2510  210.4730  152.5330 C   0  0  0  0  0  1  0  0  0  0  0  0
  160.5520  211.1290  152.0880 C   0  0  0  0  0  2  0  0  0  0  0  0
  161.5930  209.9480  150.1360 C   0  0  1  0  0  3  0  0  0  0  0  0
  159.6940  213.9850  148.1560 F   0  0  0  0  0  0  0  0  0  0  0  0
  161.9770  213.4840  147.7090 C   0  0  0  0  0  3  0  0  0  0  0  0
  163.0780  212.6380  147.8790 C   0  0  0  0  0  3  0  0  0  0  0  0
  160.7600  213.1720  148.3210 C   0  0  0  0  0  0  0  0  0  0  0  0
  162.9610  211.4860  148.6590 C   0  0  0  0  0  3  0  0  0  0  0  0
  161.7430  211.1730  149.2740 C   0  0  0  0  0  0  0  0  0  0  0  0
  160.6450  212.0180  149.1020 C   0  0  0  0  0  3  0  0  0  0  0  0
  162.1970  208.7800  149.6030 O   0  0  0  0  0  0  0  0  0  0  0  0
  161.5570  208.4680  148.4430 N   0  0  0  0  0  0  0  0  0  0  0  0
  160.9660  206.1130  148.5550 C   0  0  0  0  0  2  0  0  0  0  0  0
  162.4920  207.6930  147.6330 C   0  0  0  0  0  2  0  0  0  0  0  0
  160.4750  207.5390  148.7740 C   0  0  0  0  0  2  0  0  0  0  0  0
  162.3780  206.2450  148.0470 C   0  0  0  0  0  2  0  0  0  0  0  0
  159.7640  210.4920  156.2900 C   0  0  0  0  0  2  0  0  0  0  0  0
  159.9760  211.8480  155.6110 C   0  0  0  0  0  2  0  0  0  0  0  0
  158.6350  213.7500  156.5470 C   0  0  0  0  0  0  0  0  0  0  0  0
  159.6490  214.1620  157.1620 O   0  0  0  0  0  0  0  0  0  0  0  0
  158.7440  212.6180  155.6590 N   0  0  0  0  0  0  0  0  0  0  0  0
  157.3420  214.4510  156.7690 C   0  0  0  0  0  1  0  0  0  0  0  0
  157.6390  212.1270  154.8320 C   0  0  1  0  0  3  0  0  0  0  0  0
  156.4400  211.7550  155.6940 C   0  0  0  0  0  1  0  0  0  0  0  0
  155.6630  213.6160  151.8970 C   0  0  2  0  0  3  0  0  0  0  0  0
  155.8850  213.4590  153.4070 C   0  0  0  0  0  2  0  0  0  0  0  0
  158.0000  214.3770  151.7570 C   0  0  0  0  0  3  0  0  0  0  0  0
  157.3110  213.0610  153.6950 C   0  0  0  0  0  0  0  0  0  0  0  0
  156.7520  214.4520  151.2860 C   0  0  0  0  0  3  0  0  0  0  0  0
  158.3000  213.5400  152.9320 C   0  0  0  0  0  3  0  0  0  0  0  0
  154.4230  214.2000  151.6660 O   0  0  0  0  0  1  0  0  0  0  0  0
  1  2  1  0  0  0  0
  1  9  1  0  0  0  0
  2 10  1  1  0  0  0
  2  3  1  0  0  0  0
  3 16  1  0  0  0  0
  3 12  2  0  0  0  0
  3 17  2  0  0  0  0
  4  1  2  0  0  0  0
  6 13  1  0  0  0  0
  6 15  1  0  0  0  0
  7 13  1  0  0  0  0
  8  7  1  0  0  0  0
  9  5  1  1  0  0  0
  9 16  1  0  0  0  0
 11  6  2  0  0  0  0
 13 10  2  0  0  0  0
 14 18  1  0  0  0  0
 16 40  1  0  0  0  0
 18 11  1  0  0  0  0
 18 20  1  0  0  0  0
 19  8  2  0  0  0  0
 19 11  1  0  0  0  0
 20 15  2  0  0  0  0
 21  7  2  0  0  0  0
 21  4  1  0  0  0  0
 23 22  1  1  0  0  0
 23 25  1  0  0  0  0
 23  4  1  0  0  0  0
 25 24  1  0  0  0  0
 26 34  1  6  0  0  0
 26 23  1  0  0  0  0
 27 30  1  0  0  0  0
 28 29  2  0  0  0  0
 28 30  1  0  0  0  0
 29 31  1  0  0  0  0
 30 33  2  0  0  0  0
 31 32  2  0  0  0  0
 32 26  1  0  0  0  0
 33 32  1  0  0  0  0
 35 38  1  0  0  0  0
 35 34  1  0  0  0  0
 36 38  1  0  0  0  0
 37 39  1  0  0  0  0
 37 35  1  0  0  0  0
 39 36  1  0  0  0  0
 41 44  1  0  0  0  0
 41 40  1  0  0  0  0
 42 45  1  0  0  0  0
 42 43  2  0  0  0  0
 44 42  1  0  0  0  0
 46 44  1  0  0  0  0
 46 47  1  1  0  0  0
 48 54  1  1  0  0  0
 48 49  1  0  0  0  0
 49 51  1  0  0  0  0
 50 53  1  0  0  0  0
 51 46  1  0  0  0  0
 52 50  2  0  0  0  0
 52 48  1  0  0  0  0
 53 51  2  0  0  0  0
M  END
>  <MODEL>
8

>  <REMARK>
 VINA RESULT:      -1.6      4.282      9.040
  Name = 
  11 active torsions:
  status: ('A' for Active; 'I' for Inactive)
    1  A    between atoms: C_5  and  C_8
    2  A    between atoms: C_5  and  N_41
    3  A    between atoms: C_6  and  C_35
    4  A    between atoms: C_6  and  N_43
    5  A    between atoms: C_8  and  N_43
    6  A    between atoms: C_10  and  C_37
    7  A    between atoms: C_13  and  C_37
    8  A    between atoms: C_13  and  C_39
    9  A    between atoms: C_13  and  O_50
   10  A    between atoms: N_23  and  O_50
   11  A    between atoms: C_36  and  C_37
                            x       y       z     vdW  Elec       q    Type
                         _______ _______ _______ _____ _____    ______ ____

>  <TORSDO>
F 11

$$$$
