=
 OpenBabel11042420163D

 25 27  0  0  0  0  0  0  0  0999 V2000
  161.1560  206.7140  149.7220 C   0  0  0  0  0  0  0  0  0  0  0  0
  161.0450  206.2070  150.9280 C   0  0  0  0  0  0  0  0  0  0  0  0
  161.2660  207.2080  148.5220 C   0  0  0  0  0  3  0  0  0  0  0  0
  160.9860  202.5790  152.0060 C   0  0  0  0  0  3  0  0  0  0  0  0
  161.1740  201.5610  148.4990 C   0  0  0  0  0  0  0  0  0  0  0  0
  161.0170  204.7280  151.0970 C   0  0  0  0  0  0  0  0  0  0  0  0
  161.1070  201.4000  149.8910 C   0  0  0  0  0  3  0  0  0  0  0  0
  161.1390  203.9860  148.7540 C   0  0  0  0  0  3  0  0  0  0  0  0
  161.2280  200.3660  147.6180 C   0  0  0  0  0  1  0  0  0  0  0  0
  161.0580  202.5440  150.6880 C   0  0  0  0  0  0  0  0  0  0  0  0
  160.9540  204.0210  152.4220 C   0  0  0  0  0  2  0  0  0  0  0  0
  161.1890  202.8490  147.9320 C   0  0  0  0  0  3  0  0  0  0  0  0
  161.0790  203.8050  150.1400 C   0  0  0  0  0  0  0  0  0  0  0  0
  160.8590  209.7430  155.3920 N   0  0  0  0  0  1  0  0  0  0  0  0
  161.0130  207.1200  152.1020 C   0  0  0  0  0  0  0  0  0  0  0  0
  161.1370  206.6230  153.4070 C   0  0  0  0  0  3  0  0  0  0  0  0
  161.0880  207.4840  154.5030 C   0  0  0  0  0  3  0  0  0  0  0  0
  160.9090  208.8500  154.2870 C   0  0  0  0  0  0  0  0  0  0  0  0
  160.8270  208.5050  151.9400 C   0  0  0  0  0  3  0  0  0  0  0  0
  160.7830  209.3290  153.0210 N   0  0  0  0  0  0  0  0  0  0  0  0
  162.2370  206.6140  147.5630 C   0  0  0  0  0  2  0  0  0  0  0  0
  162.0830  205.3880  145.3570 C   0  0  0  0  0  0  0  0  0  0  0  0
  163.1420  204.7480  145.5960 O   0  0  0  0  0  1  0  0  0  0  0  0
  161.3990  205.1640  144.1700 O   0  0  0  0  0  0  0  0  0  0  0  0
  161.5820  206.3440  146.2920 N   0  0  0  0  0  2  0  0  0  0  0  0
  1  2  2  0  0  0  0
  2  6  1  0  0  0  0
  2 15  1  0  0  0  0
  3  1  2  0  0  0  0
  4 11  1  0  0  0  0
  5  7  2  0  0  0  0
  6 11  1  0  0  0  0
  7 10  1  0  0  0  0
  8 13  1  0  0  0  0
  9  5  1  0  0  0  0
 10  4  2  0  0  0  0
 12  5  1  0  0  0  0
 12  8  2  0  0  0  0
 13 10  1  0  0  0  0
 13  6  2  0  0  0  0
 15 16  1  0  0  0  0
 16 17  2  0  0  0  0
 18 17  1  0  0  0  0
 18 14  1  0  0  0  0
 19 15  2  0  0  0  0
 19 20  1  0  0  0  0
 20 18  2  0  0  0  0
 21  3  1  0  0  0  0
 22 23  1  0  0  0  0
 22 25  1  0  0  0  0
 24 22  2  0  0  0  0
 25 21  1  0  0  0  0
M  END
>  <MODEL>
1

>  <REMARK>
 VINA RESULT:     -11.3      0.000      0.000
  Name = 
  4 active torsions:
  status: ('A' for Active; 'I' for Inactive)
    1  A    between atoms: C_3  and  N_19
    2  A    between atoms: C_3  and  C_24
    3  A    between atoms: C_7  and  C_12
    4  A    between atoms: C_9  and  C_12
                            x       y       z     vdW  Elec       q    Type
                         _______ _______ _______ _____ _____    ______ ____

>  <TORSDO>
F 4

$$$$
=
 OpenBabel11042420163D

 25 27  0  0  0  0  0  0  0  0999 V2000
  161.9680  206.8190  148.8160 C   0  0  0  0  0  0  0  0  0  0  0  0
  161.6510  205.6750  149.3750 C   0  0  0  0  0  0  0  0  0  0  0  0
  162.2840  207.9580  148.2690 C   0  0  0  0  0  3  0  0  0  0  0  0
  161.2800  204.8500  153.0510 C   0  0  0  0  0  3  0  0  0  0  0  0
  160.7260  208.3940  153.7640 C   0  0  0  0  0  0  0  0  0  0  0  0
  161.4860  205.6080  150.8540 C   0  0  0  0  0  0  0  0  0  0  0  0
  160.8610  207.0240  154.0380 C   0  0  0  0  0  3  0  0  0  0  0  0
  161.1110  207.9800  151.3920 C   0  0  0  0  0  2  0  0  0  0  0  0
  160.4510  209.3450  154.8710 C   0  0  0  0  0  1  0  0  0  0  0  0
  161.1180  206.1580  152.9750 C   0  0  0  0  0  0  0  0  0  0  0  0
  161.5380  204.3420  151.6620 C   0  0  0  0  0  3  0  0  0  0  0  0
  160.8520  208.8700  152.4460 C   0  0  0  0  0  3  0  0  0  0  0  0
  161.2360  206.6170  151.6850 C   0  0  0  0  0  0  0  0  0  0  0  0
  160.7670  201.1390  146.0420 N   0  0  0  0  0  1  0  0  0  0  0  0
  161.4020  204.4870  148.5150 C   0  0  0  0  0  0  0  0  0  0  0  0
  160.9370  203.2840  149.0630 C   0  0  0  0  0  3  0  0  0  0  0  0
  160.7220  202.1700  148.2510 C   0  0  0  0  0  3  0  0  0  0  0  0
  160.9810  202.2640  146.8850 C   0  0  0  0  0  0  0  0  0  0  0  0
  161.6540  204.5260  147.1320 C   0  0  0  0  0  3  0  0  0  0  0  0
  161.4390  203.4310  146.3570 N   0  0  0  0  0  0  0  0  0  0  0  0
  161.6080  209.2070  148.7160 C   0  0  0  0  0  2  0  0  0  0  0  0
  162.2190  211.5960  148.1550 C   0  0  0  0  0  0  0  0  0  0  0  0
  161.0870  211.8040  147.6430 O   0  0  0  0  0  0  0  0  0  0  0  0
  163.1560  212.6190  148.1870 O   0  0  0  0  0  1  0  0  0  0  0  0
  162.5490  210.3170  148.6990 N   0  0  0  0  0  2  0  0  0  0  0  0
  1  2  2  0  0  0  0
  2  6  1  0  0  0  0
  3 21  1  0  0  0  0
  3  1  2  0  0  0  0
  5  7  1  0  0  0  0
  5  9  1  0  0  0  0
  6 11  1  0  0  0  0
  6 13  2  0  0  0  0
  8 13  1  0  0  0  0
  8 12  1  0  0  0  0
 10  4  1  0  0  0  0
 10  7  2  0  0  0  0
 11  4  2  0  0  0  0
 12  5  2  0  0  0  0
 13 10  1  0  0  0  0
 14 18  1  0  0  0  0
 15 16  1  0  0  0  0
 15  2  1  0  0  0  0
 17 16  2  0  0  0  0
 18 17  1  0  0  0  0
 19 15  2  0  0  0  0
 20 18  2  0  0  0  0
 20 19  1  0  0  0  0
 22 24  1  0  0  0  0
 22 25  1  0  0  0  0
 23 22  2  0  0  0  0
 25 21  1  0  0  0  0
M  END
>  <MODEL>
2

>  <REMARK>
 VINA RESULT:      -9.8      2.997      6.594
  Name = 
  4 active torsions:
  status: ('A' for Active; 'I' for Inactive)
    1  A    between atoms: C_3  and  N_19
    2  A    between atoms: C_3  and  C_24
    3  A    between atoms: C_7  and  C_12
    4  A    between atoms: C_9  and  C_12
                            x       y       z     vdW  Elec       q    Type
                         _______ _______ _______ _____ _____    ______ ____

>  <TORSDO>
F 4

$$$$
=
 OpenBabel11042420163D

 25 27  0  0  0  0  0  0  0  0999 V2000
  161.9900  208.1670  149.0620 C   0  0  0  0  0  0  0  0  0  0  0  0
  161.7010  206.9130  148.8060 C   0  0  0  0  0  0  0  0  0  0  0  0
  162.2780  209.4100  149.3240 C   0  0  0  0  0  3  0  0  0  0  0  0
  161.1820  205.0640  152.0680 C   0  0  0  0  0  3  0  0  0  0  0  0
  160.7670  201.9450  150.2040 C   0  0  0  0  0  0  0  0  0  0  0  0
  161.4520  205.9780  149.9380 C   0  0  0  0  0  0  0  0  0  0  0  0
  160.8460  202.7790  151.3300 C   0  0  0  0  0  3  0  0  0  0  0  0
  161.1610  203.8510  148.7350 C   0  0  0  0  0  3  0  0  0  0  0  0
  160.5160  200.4910  150.3780 C   0  0  0  0  0  1  0  0  0  0  0  0
  161.0840  204.1390  151.1300 C   0  0  0  0  0  0  0  0  0  0  0  0
  161.4370  206.3770  151.3870 C   0  0  0  0  0  2  0  0  0  0  0  0
  160.9230  202.4800  148.9120 C   0  0  0  0  0  3  0  0  0  0  0  0
  161.2430  204.6650  149.8700 C   0  0  0  0  0  0  0  0  0  0  0  0
  161.1470  205.2780  143.3750 N   0  0  0  0  0  1  0  0  0  0  0  0
  161.5670  206.4690  147.3930 C   0  0  0  0  0  0  0  0  0  0  0  0
  162.6490  205.8940  146.7110 C   0  0  0  0  0  3  0  0  0  0  0  0
  162.5190  205.4960  145.3800 C   0  0  0  0  0  3  0  0  0  0  0  0
  161.2980  205.6790  144.7310 C   0  0  0  0  0  0  0  0  0  0  0  0
  160.3610  206.6380  146.6900 C   0  0  0  0  0  3  0  0  0  0  0  0
  160.2530  206.2430  145.3930 N   0  0  0  0  0  0  0  0  0  0  0  0
  161.5120  210.1430  150.3690 C   0  0  0  0  0  2  0  0  0  0  0  0
  161.0700  209.7590  152.8290 C   0  0  0  0  0  0  0  0  0  0  0  0
  159.8980  210.2080  152.7260 O   0  0  0  0  0  0  0  0  0  0  0  0
  161.5300  209.3140  154.0610 O   0  0  0  0  0  1  0  0  0  0  0  0
  161.9340  209.7110  151.6920 N   0  0  0  0  0  2  0  0  0  0  0  0
  1  3  2  0  0  0  0
  2  1  2  0  0  0  0
  2  6  1  0  0  0  0
  3 21  1  0  0  0  0
  5  9  1  0  0  0  0
  5  7  2  0  0  0  0
  6 11  1  0  0  0  0
  8 12  2  0  0  0  0
  8 13  1  0  0  0  0
 10  7  1  0  0  0  0
 10  4  2  0  0  0  0
 11  4  1  0  0  0  0
 12  5  1  0  0  0  0
 13  6  2  0  0  0  0
 13 10  1  0  0  0  0
 14 18  1  0  0  0  0
 15  2  1  0  0  0  0
 16 15  1  0  0  0  0
 17 16  2  0  0  0  0
 18 17  1  0  0  0  0
 18 20  2  0  0  0  0
 19 15  2  0  0  0  0
 20 19  1  0  0  0  0
 21 25  1  0  0  0  0
 22 24  1  0  0  0  0
 23 22  2  0  0  0  0
 25 22  1  0  0  0  0
M  END
>  <MODEL>
3

>  <REMARK>
 VINA RESULT:      -9.7      3.138      6.067
  Name = 
  4 active torsions:
  status: ('A' for Active; 'I' for Inactive)
    1  A    between atoms: C_3  and  N_19
    2  A    between atoms: C_3  and  C_24
    3  A    between atoms: C_7  and  C_12
    4  A    between atoms: C_9  and  C_12
                            x       y       z     vdW  Elec       q    Type
                         _______ _______ _______ _____ _____    ______ ____

>  <TORSDO>
F 4

$$$$
=
 OpenBabel11042420163D

 25 27  0  0  0  0  0  0  0  0999 V2000
  161.2060  204.9280  151.8650 C   0  0  0  0  0  0  0  0  0  0  0  0
  161.3370  206.2260  151.7170 C   0  0  0  0  0  0  0  0  0  0  0  0
  161.0790  203.6390  152.0030 C   0  0  0  0  0  3  0  0  0  0  0  0
  162.2780  208.1950  148.6240 C   0  0  0  0  0  3  0  0  0  0  0  0
  161.5630  205.2560  146.5680 C   0  0  0  0  0  0  0  0  0  0  0  0
  161.6690  206.7760  150.3740 C   0  0  0  0  0  0  0  0  0  0  0  0
  161.9430  206.5780  146.8500 C   0  0  0  0  0  3  0  0  0  0  0  0
  161.2060  204.8290  148.9420 C   0  0  0  0  0  3  0  0  0  0  0  0
  161.5490  204.7740  145.1630 C   0  0  0  0  0  1  0  0  0  0  0  0
  161.9450  206.9970  148.1800 C   0  0  0  0  0  0  0  0  0  0  0  0
  162.1320  208.1830  150.1180 C   0  0  0  0  0  2  0  0  0  0  0  0
  161.1970  204.3850  147.6110 C   0  0  0  0  0  3  0  0  0  0  0  0
  161.5820  206.1510  149.2020 C   0  0  0  0  0  0  0  0  0  0  0  0
  160.3350  209.6900  156.1290 N   0  0  0  0  0  1  0  0  0  0  0  0
  161.0910  207.1210  152.8800 C   0  0  0  0  0  0  0  0  0  0  0  0
  161.0790  206.6180  154.1880 C   0  0  0  0  0  3  0  0  0  0  0  0
  160.8310  207.4620  155.2710 C   0  0  0  0  0  3  0  0  0  0  0  0
  160.5890  208.8150  155.0370 C   0  0  0  0  0  0  0  0  0  0  0  0
  160.8340  208.4920  152.6990 C   0  0  0  0  0  3  0  0  0  0  0  0
  160.5940  209.2980  153.7660 N   0  0  0  0  0  0  0  0  0  0  0  0
  160.3270  202.8560  150.9840 C   0  0  0  0  0  2  0  0  0  0  0  0
  160.8370  201.1550  149.1840 C   0  0  0  0  0  0  0  0  0  0  0  0
  159.7080  201.3270  148.6510 O   0  0  0  0  0  1  0  0  0  0  0  0
  161.7290  200.2490  148.6270 O   0  0  0  0  0  0  0  0  0  0  0  0
  161.2050  201.8790  150.3590 N   0  0  0  0  0  2  0  0  0  0  0  0
  1  3  2  0  0  0  0
  2  1  2  0  0  0  0
  2 15  1  0  0  0  0
  4 11  1  0  0  0  0
  5  7  2  0  0  0  0
  5 12  1  0  0  0  0
  6  2  1  0  0  0  0
  7 10  1  0  0  0  0
  8 13  1  0  0  0  0
  9  5  1  0  0  0  0
 10  4  2  0  0  0  0
 10 13  1  0  0  0  0
 11  6  1  0  0  0  0
 12  8  2  0  0  0  0
 13  6  2  0  0  0  0
 15 16  1  0  0  0  0
 16 17  2  0  0  0  0
 18 17  1  0  0  0  0
 18 14  1  0  0  0  0
 19 15  2  0  0  0  0
 19 20  1  0  0  0  0
 20 18  2  0  0  0  0
 21  3  1  0  0  0  0
 22 25  1  0  0  0  0
 23 22  1  0  0  0  0
 24 22  2  0  0  0  0
 25 21  1  0  0  0  0
M  END
>  <MODEL>
4

>  <REMARK>
 VINA RESULT:      -9.5      2.248      4.027
  Name = 
  4 active torsions:
  status: ('A' for Active; 'I' for Inactive)
    1  A    between atoms: C_3  and  N_19
    2  A    between atoms: C_3  and  C_24
    3  A    between atoms: C_7  and  C_12
    4  A    between atoms: C_9  and  C_12
                            x       y       z     vdW  Elec       q    Type
                         _______ _______ _______ _____ _____    ______ ____

>  <TORSDO>
F 4

$$$$
=
 OpenBabel11042420163D

 25 27  0  0  0  0  0  0  0  0999 V2000
  161.9060  207.5080  150.0360 C   0  0  0  0  0  0  0  0  0  0  0  0
  161.5210  206.6000  150.9020 C   0  0  0  0  0  0  0  0  0  0  0  0
  162.2880  208.4150  149.1820 C   0  0  0  0  0  3  0  0  0  0  0  0
  161.2060  206.9580  154.6570 C   0  0  0  0  0  3  0  0  0  0  0  0
  160.0200  210.3880  154.2040 C   0  0  0  0  0  0  0  0  0  0  0  0
  161.3320  206.9880  152.3280 C   0  0  0  0  0  0  0  0  0  0  0  0
  160.3860  209.2270  154.9020 C   0  0  0  0  0  3  0  0  0  0  0  0
  160.5330  209.3030  152.0820 C   0  0  0  0  0  2  0  0  0  0  0  0
  159.5540  211.5840  154.9530 C   0  0  0  0  0  1  0  0  0  0  0  0
  160.8190  208.1220  154.1680 C   0  0  0  0  0  0  0  0  0  0  0  0
  161.5850  206.0810  153.5000 C   0  0  0  0  0  3  0  0  0  0  0  0
  160.0950  210.4260  152.8000 C   0  0  0  0  0  3  0  0  0  0  0  0
  160.8880  208.1520  152.7950 C   0  0  0  0  0  0  0  0  0  0  0  0
  160.4330  201.3270  149.0350 N   0  0  0  0  0  1  0  0  0  0  0  0
  161.2230  205.2210  150.4310 C   0  0  0  0  0  0  0  0  0  0  0  0
  161.0910  204.1610  151.3380 C   0  0  0  0  0  3  0  0  0  0  0  0
  160.8290  202.8670  150.8850 C   0  0  0  0  0  3  0  0  0  0  0  0
  160.7020  202.6390  149.5150 C   0  0  0  0  0  0  0  0  0  0  0  0
  161.0940  204.9350  149.0600 C   0  0  0  0  0  3  0  0  0  0  0  0
  160.8380  203.6690  148.6370 N   0  0  0  0  0  0  0  0  0  0  0  0
  161.6720  209.7690  149.2150 C   0  0  0  0  0  2  0  0  0  0  0  0
  162.2330  212.1200  148.4700 C   0  0  0  0  0  0  0  0  0  0  0  0
  161.1970  212.5810  149.0200 O   0  0  0  0  0  1  0  0  0  0  0  0
  163.0970  212.9780  147.8040 O   0  0  0  0  0  0  0  0  0  0  0  0
  162.5230  210.7220  148.5200 N   0  0  0  0  0  2  0  0  0  0  0  0
  1  2  2  0  0  0  0
  2  6  1  0  0  0  0
  3 21  1  0  0  0  0
  3  1  2  0  0  0  0
  5  7  1  0  0  0  0
  5  9  1  0  0  0  0
  6 13  2  0  0  0  0
  6 11  1  0  0  0  0
  8 13  1  0  0  0  0
  8 12  1  0  0  0  0
 10  4  1  0  0  0  0
 10  7  2  0  0  0  0
 11  4  2  0  0  0  0
 12  5  2  0  0  0  0
 13 10  1  0  0  0  0
 14 18  1  0  0  0  0
 15  2  1  0  0  0  0
 15 16  1  0  0  0  0
 17 16  2  0  0  0  0
 18 17  1  0  0  0  0
 19 15  2  0  0  0  0
 20 19  1  0  0  0  0
 20 18  2  0  0  0  0
 22 25  1  0  0  0  0
 22 23  1  0  0  0  0
 24 22  2  0  0  0  0
 25 21  1  0  0  0  0
M  END
>  <MODEL>
5

>  <REMARK>
 VINA RESULT:      -9.4      3.396      6.810
  Name = 
  4 active torsions:
  status: ('A' for Active; 'I' for Inactive)
    1  A    between atoms: C_3  and  N_19
    2  A    between atoms: C_3  and  C_24
    3  A    between atoms: C_7  and  C_12
    4  A    between atoms: C_9  and  C_12
                            x       y       z     vdW  Elec       q    Type
                         _______ _______ _______ _____ _____    ______ ____

>  <TORSDO>
F 4

$$$$
=
 OpenBabel11042420163D

 25 27  0  0  1  0  0  0  0  0999 V2000
  160.9200  202.9030  149.4430 C   0  0  0  0  0  0  0  0  0  0  0  0
  161.1670  203.0010  148.1570 C   0  0  0  0  0  0  0  0  0  0  0  0
  160.6750  202.8140  150.7190 C   0  0  0  0  0  3  0  0  0  0  0  0
  162.3510  206.0030  146.1790 C   0  0  0  0  0  3  0  0  0  0  0  0
  161.7760  208.1230  149.1040 C   0  0  0  0  0  0  0  0  0  0  0  0
  161.5680  204.3190  147.5920 C   0  0  0  0  0  0  0  0  0  0  0  0
  162.1560  207.8040  147.7910 C   0  0  0  0  0  3  0  0  0  0  0  0
  161.1970  205.7930  149.5260 C   0  0  0  0  0  3  0  0  0  0  0  0
  161.8790  209.5260  149.5830 C   0  0  0  0  0  1  0  0  0  0  0  0
  162.0470  206.4780  147.3740 C   0  0  1  0  0  3  0  0  0  0  0  0
  162.0720  204.5290  146.1900 C   0  0  0  0  0  3  0  0  0  0  0  0
  161.2970  207.1210  149.9680 C   0  0  0  0  0  3  0  0  0  0  0  0
  161.5860  205.4940  148.2160 C   0  0  0  0  0  0  0  0  0  0  0  0
  160.8990  198.2890  144.9640 N   0  0  0  0  0  1  0  0  0  0  0  0
  161.1010  201.7830  147.3070 C   0  0  0  0  0  0  0  0  0  0  0  0
  160.4560  201.8050  146.0620 C   0  0  0  0  0  3  0  0  0  0  0  0
  160.3850  200.6520  145.2790 C   0  0  0  0  0  3  0  0  0  0  0  0
  160.9610  199.4730  145.7500 C   0  0  0  0  0  0  0  0  0  0  0  0
  161.6580  200.5650  147.7380 C   0  0  0  0  0  3  0  0  0  0  0  0
  161.5800  199.4530  146.9600 N   0  0  0  0  0  0  0  0  0  0  0  0
  161.5820  203.4800  151.6940 C   0  0  0  0  0  2  0  0  0  0  0  0
  161.3090  205.5060  153.1820 C   0  0  0  0  0  0  0  0  0  0  0  0
  162.4700  205.9110  152.9060 O   0  0  0  0  0  0  0  0  0  0  0  0
  160.5120  206.2440  154.0460 O   0  0  0  0  0  1  0  0  0  0  0  0
  160.8080  204.2920  152.6200 N   0  0  0  0  0  2  0  0  0  0  0  0
  1  3  2  0  0  0  0
  2  1  2  0  0  0  0
  3 21  1  0  0  0  0
  4 11  2  0  0  0  0
  5  9  1  0  0  0  0
  5 12  1  0  0  0  0
  6  2  1  0  0  0  0
  6 13  2  0  0  0  0
  7  5  2  0  0  0  0
  8 12  2  0  0  0  0
 10  4  1  6  0  0  0
 10  7  1  0  0  0  0
 10 13  1  0  0  0  0
 11  6  1  0  0  0  0
 13  8  1  0  0  0  0
 14 18  1  0  0  0  0
 15 19  1  0  0  0  0
 15  2  1  0  0  0  0
 16 15  2  0  0  0  0
 17 18  2  0  0  0  0
 17 16  1  0  0  0  0
 18 20  1  0  0  0  0
 20 19  2  0  0  0  0
 21 25  1  0  0  0  0
 22 24  1  0  0  0  0
 23 22  2  0  0  0  0
 25 22  1  0  0  0  0
M  END
>  <MODEL>
6

>  <REMARK>
 VINA RESULT:      -9.2      3.551      7.909
  Name = 
  4 active torsions:
  status: ('A' for Active; 'I' for Inactive)
    1  A    between atoms: C_3  and  N_19
    2  A    between atoms: C_3  and  C_24
    3  A    between atoms: C_7  and  C_12
    4  A    between atoms: C_9  and  C_12
                            x       y       z     vdW  Elec       q    Type
                         _______ _______ _______ _____ _____    ______ ____

>  <TORSDO>
F 4

$$$$
=
 OpenBabel11042420163D

 25 27  0  0  1  0  0  0  0  0999 V2000
  160.8520  207.2830  154.1750 C   0  0  0  0  0  0  0  0  0  0  0  0
  161.0100  207.3130  152.8720 C   0  0  0  0  0  0  0  0  0  0  0  0
  160.6940  207.2610  155.4670 C   0  0  0  0  0  3  0  0  0  0  0  0
  162.1070  210.3430  150.8860 C   0  0  0  0  0  3  0  0  0  0  0  0
  159.4110  212.2860  152.4110 C   0  0  0  0  0  0  0  0  0  0  0  0
  161.2340  208.6210  152.1960 C   0  0  0  0  0  0  0  0  0  0  0  0
  160.5240  212.0370  151.5940 C   0  0  0  0  0  3  0  0  0  0  0  0
  159.4350  209.9750  153.1880 C   0  0  0  0  0  3  0  0  0  0  0  0
  158.8020  213.6410  152.4380 C   0  0  0  0  0  1  0  0  0  0  0  0
  161.0710  210.7540  151.5940 C   0  0  1  0  0  3  0  0  0  0  0  0
  162.3310  208.8940  151.2050 C   0  0  0  0  0  3  0  0  0  0  0  0
  158.8680  211.2590  153.2040 C   0  0  0  0  0  3  0  0  0  0  0  0
  160.5480  209.7480  152.3720 C   0  0  0  0  0  0  0  0  0  0  0  0
  161.0250  202.3870  150.0070 N   0  0  0  0  0  1  0  0  0  0  0  0
  161.0260  206.0360  152.1090 C   0  0  0  0  0  0  0  0  0  0  0  0
  160.8310  206.0220  150.7210 C   0  0  0  0  0  3  0  0  0  0  0  0
  160.8300  204.8180  150.0160 C   0  0  0  0  0  3  0  0  0  0  0  0
  161.0210  203.6240  150.7090 C   0  0  0  0  0  0  0  0  0  0  0  0
  161.2060  204.8030  152.7610 C   0  0  0  0  0  3  0  0  0  0  0  0
  161.2030  203.6400  152.0570 N   0  0  0  0  0  0  0  0  0  0  0  0
  161.5810  208.0850  156.3350 C   0  0  0  0  0  2  0  0  0  0  0  0
  161.4730  210.5840  155.9600 C   0  0  0  0  0  0  0  0  0  0  0  0
  162.4790  210.5510  155.2020 O   0  0  0  0  0  0  0  0  0  0  0  0
  160.8410  211.7940  156.2090 O   0  0  0  0  0  1  0  0  0  0  0  0
  160.9790  209.3890  156.5680 N   0  0  0  0  0  2  0  0  0  0  0  0
  1  3  2  0  0  0  0
  2  1  2  0  0  0  0
  3 21  1  0  0  0  0
  4 11  2  0  0  0  0
  5  9  1  0  0  0  0
  5 12  1  0  0  0  0
  6 13  2  0  0  0  0
  6  2  1  0  0  0  0
  7 10  1  0  0  0  0
  7  5  2  0  0  0  0
  8 12  2  0  0  0  0
 10  4  1  6  0  0  0
 10 13  1  0  0  0  0
 11  6  1  0  0  0  0
 13  8  1  0  0  0  0
 14 18  1  0  0  0  0
 15 19  1  0  0  0  0
 15  2  1  0  0  0  0
 16 15  2  0  0  0  0
 17 18  2  0  0  0  0
 17 16  1  0  0  0  0
 18 20  1  0  0  0  0
 20 19  2  0  0  0  0
 21 25  1  0  0  0  0
 22 24  1  0  0  0  0
 22 25  1  0  0  0  0
 23 22  2  0  0  0  0
M  END
>  <MODEL>
7

>  <REMARK>
 VINA RESULT:      -8.9      4.319      8.400
  Name = 
  4 active torsions:
  status: ('A' for Active; 'I' for Inactive)
    1  A    between atoms: C_3  and  N_19
    2  A    between atoms: C_3  and  C_24
    3  A    between atoms: C_7  and  C_12
    4  A    between atoms: C_9  and  C_12
                            x       y       z     vdW  Elec       q    Type
                         _______ _______ _______ _____ _____    ______ ____

>  <TORSDO>
F 4

$$$$
=
 OpenBabel11042420163D

 25 27  0  0  0  0  0  0  0  0999 V2000
  162.0490  208.4190  148.8210 C   0  0  0  0  0  0  0  0  0  0  0  0
  161.7510  207.1500  148.6680 C   0  0  0  0  0  0  0  0  0  0  0  0
  162.3460  209.6770  148.9810 C   0  0  0  0  0  3  0  0  0  0  0  0
  161.2030  205.5810  152.0690 C   0  0  0  0  0  3  0  0  0  0  0  0
  160.7950  202.3180  150.4690 C   0  0  0  0  0  0  0  0  0  0  0  0
  161.4910  206.3130  149.8730 C   0  0  0  0  0  0  0  0  0  0  0  0
  160.8680  203.2430  151.5220 C   0  0  0  0  0  3  0  0  0  0  0  0
  161.2040  204.0930  148.8500 C   0  0  0  0  0  3  0  0  0  0  0  0
  160.5390  200.8840  150.7620 C   0  0  0  0  0  1  0  0  0  0  0  0
  161.1100  204.5810  151.2120 C   0  0  0  0  0  0  0  0  0  0  0  0
  161.4670  206.8320  151.2840 C   0  0  0  0  0  2  0  0  0  0  0  0
  160.9610  202.7420  149.1380 C   0  0  0  0  0  3  0  0  0  0  0  0
  161.2800  205.0000  149.9130 C   0  0  0  0  0  0  0  0  0  0  0  0
  161.2000  205.0770  143.3890 N   0  0  0  0  0  1  0  0  0  0  0  0
  161.6180  206.5910  147.2960 C   0  0  0  0  0  0  0  0  0  0  0  0
  162.7000  205.9640  146.6640 C   0  0  0  0  0  3  0  0  0  0  0  0
  162.5700  205.4580  145.3700 C   0  0  0  0  0  3  0  0  0  0  0  0
  161.3510  205.5870  144.7080 C   0  0  0  0  0  0  0  0  0  0  0  0
  160.4120  206.7030  146.5810 C   0  0  0  0  0  3  0  0  0  0  0  0
  160.3050  206.2030  145.3210 N   0  0  0  0  0  0  0  0  0  0  0  0
  161.5820  210.4990  149.9590 C   0  0  0  0  0  2  0  0  0  0  0  0
  160.6940  212.8580  150.1600 C   0  0  0  0  0  0  0  0  0  0  0  0
  160.0690  212.5730  151.2160 O   0  0  0  0  0  1  0  0  0  0  0  0
  160.6340  214.1490  149.6540 O   0  0  0  0  0  0  0  0  0  0  0  0
  161.4600  211.8650  149.4750 N   0  0  0  0  0  2  0  0  0  0  0  0
  1  3  2  0  0  0  0
  2  1  2  0  0  0  0
  2  6  1  0  0  0  0
  3 21  1  0  0  0  0
  5  9  1  0  0  0  0
  5  7  2  0  0  0  0
  6 13  2  0  0  0  0
  6 11  1  0  0  0  0
  8 12  2  0  0  0  0
  8 13  1  0  0  0  0
 10  7  1  0  0  0  0
 10  4  2  0  0  0  0
 11  4  1  0  0  0  0
 12  5  1  0  0  0  0
 13 10  1  0  0  0  0
 14 18  1  0  0  0  0
 15  2  1  0  0  0  0
 16 15  1  0  0  0  0
 17 16  2  0  0  0  0
 18 20  2  0  0  0  0
 18 17  1  0  0  0  0
 19 15  2  0  0  0  0
 20 19  1  0  0  0  0
 22 23  1  0  0  0  0
 24 22  2  0  0  0  0
 25 21  1  0  0  0  0
 25 22  1  0  0  0  0
M  END
>  <MODEL>
8

>  <REMARK>
 VINA RESULT:      -8.8      3.574      6.191
  Name = 
  4 active torsions:
  status: ('A' for Active; 'I' for Inactive)
    1  A    between atoms: C_3  and  N_19
    2  A    between atoms: C_3  and  C_24
    3  A    between atoms: C_7  and  C_12
    4  A    between atoms: C_9  and  C_12
                            x       y       z     vdW  Elec       q    Type
                         _______ _______ _______ _____ _____    ______ ____

>  <TORSDO>
F 4

$$$$
=
 OpenBabel11042420163D

 25 27  0  0  1  0  0  0  0  0999 V2000
  161.7060  209.2710  149.7090 C   0  0  0  0  0  0  0  0  0  0  0  0
  161.6100  208.0330  150.1370 C   0  0  0  0  0  0  0  0  0  0  0  0
  161.8010  210.4950  149.2760 C   0  0  0  0  0  3  0  0  0  0  0  0
  162.1630  205.6510  147.2480 C   0  0  0  0  0  3  0  0  0  0  0  0
  160.6710  202.9560  149.2200 C   0  0  0  0  0  0  0  0  0  0  0  0
  161.7350  206.9140  149.1630 C   0  0  0  0  0  0  0  0  0  0  0  0
  161.2700  203.5670  148.1070 C   0  0  0  0  0  3  0  0  0  0  0  0
  160.7430  205.0620  150.4450 C   0  0  0  0  0  3  0  0  0  0  0  0
  160.3120  201.5150  149.1670 C   0  0  0  0  0  1  0  0  0  0  0  0
  161.5930  204.9220  148.1900 C   0  0  1  0  0  3  0  0  0  0  0  0
  162.3180  207.0450  147.7830 C   0  0  0  0  0  3  0  0  0  0  0  0
  160.4100  203.7010  150.3840 C   0  0  0  0  0  3  0  0  0  0  0  0
  161.3340  205.6550  149.3240 C   0  0  0  0  0  0  0  0  0  0  0  0
  160.8830  207.0690  155.7060 N   0  0  0  0  0  1  0  0  0  0  0  0
  161.4400  207.7760  151.5920 C   0  0  0  0  0  0  0  0  0  0  0  0
  162.0090  206.6470  152.1970 C   0  0  0  0  0  3  0  0  0  0  0  0
  161.8310  206.4050  153.5600 C   0  0  0  0  0  3  0  0  0  0  0  0
  161.0740  207.2990  154.3160 C   0  0  0  0  0  0  0  0  0  0  0  0
  160.6800  208.6420  152.3990 C   0  0  0  0  0  3  0  0  0  0  0  0
  160.5180  208.3900  153.7250 N   0  0  0  0  0  0  0  0  0  0  0  0
  162.8620  210.8530  148.2950 C   0  0  0  0  0  2  0  0  0  0  0  0
  162.1890  213.0730  147.2880 C   0  0  0  0  0  0  0  0  0  0  0  0
  161.3610  212.5150  146.5190 O   0  0  0  0  0  0  0  0  0  0  0  0
  162.3370  214.4520  147.2530 O   0  0  0  0  0  1  0  0  0  0  0  0
  162.9790  212.2990  148.1920 N   0  0  0  0  0  2  0  0  0  0  0  0
  1  2  2  0  0  0  0
  2 15  1  0  0  0  0
  3  1  2  0  0  0  0
  4 11  2  0  0  0  0
  5 12  1  0  0  0  0
  6 13  2  0  0  0  0
  6  2  1  0  0  0  0
  7 10  1  0  0  0  0
  7  5  2  0  0  0  0
  9  5  1  0  0  0  0
 10  4  1  1  0  0  0
 10 13  1  0  0  0  0
 11  6  1  0  0  0  0
 12  8  2  0  0  0  0
 13  8  1  0  0  0  0
 15 16  2  0  0  0  0
 15 19  1  0  0  0  0
 16 17  1  0  0  0  0
 17 18  2  0  0  0  0
 18 14  1  0  0  0  0
 19 20  2  0  0  0  0
 20 18  1  0  0  0  0
 21  3  1  0  0  0  0
 22 25  1  0  0  0  0
 23 22  2  0  0  0  0
 24 22  1  0  0  0  0
 25 21  1  0  0  0  0
M  END
>  <MODEL>
9

>  <REMARK>
 VINA RESULT:      -8.8      3.383      4.203
  Name = 
  4 active torsions:
  status: ('A' for Active; 'I' for Inactive)
    1  A    between atoms: C_3  and  N_19
    2  A    between atoms: C_3  and  C_24
    3  A    between atoms: C_7  and  C_12
    4  A    between atoms: C_9  and  C_12
                            x       y       z     vdW  Elec       q    Type
                         _______ _______ _______ _____ _____    ______ ____

>  <TORSDO>
F 4

$$$$
