=
 OpenBabel11052410233D

 55 60  0  0  1  0  0  0  0  0999 V2000
  157.8430  212.2040  150.0890 N   0  0  0  0  0  2  0  0  0  0  0  0
  159.9560  212.6820  152.3620 C   0  0  2  0  0  3  0  0  0  0  0  0
  158.5510  213.1990  150.8860 C   0  0  1  0  0  3  0  0  0  0  0  0
  158.1980  212.9400  152.6280 S   0  0  0  0  0  0  0  0  0  0  0  0
  160.9200  212.9190  150.0290 O   0  0  0  0  0  0  0  0  0  0  0  0
  160.0380  212.9210  150.8700 C   0  0  0  0  0  0  0  0  0  0  0  0
  160.4340  209.3820  154.3170 C   0  0  0  0  0  0  0  0  0  0  0  0
  159.2850  210.4530  156.0660 C   0  0  0  0  0  2  0  0  0  0  0  0
  160.0390  210.7100  153.9410 C   0  0  0  0  0  0  0  0  0  0  0  0
  161.2190  208.9870  156.6250 C   0  0  0  0  0  1  0  0  0  0  0  0
  161.0300  208.5430  153.5230 N   0  0  0  0  0  0  0  0  0  0  0  0
  159.4060  211.3140  154.8870 N   0  0  0  0  0  0  0  0  0  0  0  0
  160.2940  211.2980  152.6620 N   0  0  0  0  0  2  0  0  0  0  0  0
  160.0050  209.1370  155.7230 C   0  0  2  0  0  3  0  0  0  0  0  0
  161.3820  207.1820  153.8990 C   0  0  0  0  0  2  0  0  0  0  0  0
  162.1590  206.5110  152.7760 C   0  0  0  0  0  2  0  0  0  0  0  0
  160.9580  204.8550  151.6230 O   0  0  0  0  0  0  0  0  0  0  0  0
  161.2790  206.0320  151.6540 C   0  0  0  0  0  0  0  0  0  0  0  0
  160.6530  207.1320  150.3740 S   0  0  0  0  0  0  0  0  0  0  0  0
  160.8960  206.6220  147.7700 C   0  0  2  0  0  3  0  0  0  0  0  0
  162.7550  207.0020  148.4420 C   0  0  0  0  0  2  0  0  0  0  0  0
  161.5970  206.2840  149.0760 C   0  0  1  0  0  0  0  0  0  0  0  0
  160.9330  205.1840  148.2630 C   0  0  2  0  0  3  0  0  0  0  0  0
  162.0860  207.1390  147.2200 O   0  0  0  0  0  0  0  0  0  0  0  0
  161.9450  204.3260  147.5020 C   0  0  0  0  0  2  0  0  0  0  0  0
  160.9830  203.2650  145.5280 C   0  0  0  0  0  2  0  0  0  0  0  0
  161.3050  203.1480  146.8110 C   0  0  0  0  0  0  0  0  0  0  0  0
  161.0270  201.8490  147.5080 C   0  0  0  0  0  1  0  0  0  0  0  0
  157.7750  213.0890  147.7790 C   0  0  0  0  0  0  0  0  0  0  0  0
  157.1770  212.8870  149.0620 N   0  0  0  0  0  2  0  0  0  0  0  0
  158.9400  212.6720  147.5430 O   0  0  0  0  0  0  0  0  0  0  0  0
  156.8570  213.9290  146.4920 S   0  0  0  0  0  0  0  0  0  0  0  0
  158.3510  214.3270  145.5360 C   0  0  0  0  0  2  0  0  0  0  0  0
  157.9330  214.4510  143.7710 S   0  0  0  0  0  0  0  0  0  0  0  0
  159.6090  214.0790  143.2590 C   0  0  0  0  0  0  0  0  0  0  0  0
  160.5920  214.4330  144.0180 N   0  0  0  0  0  2  0  0  0  0  0  0
  161.0870  213.5410  141.3040 N   0  0  0  0  0  2  0  0  0  0  0  0
  159.8620  213.3350  142.0180 C   0  0  0  0  0  0  0  0  0  0  0  0
  159.0060  212.5140  141.5900 O   0  0  0  0  0  0  0  0  0  0  0  0
  160.5990  211.5120  138.1570 C   0  0  1  0  0  3  0  0  0  0  0  0
  163.5790  213.5850  137.0150 O   0  0  0  0  0  0  0  0  0  0  0  0
  161.3630  212.1870  137.1860 O   0  0  0  0  0  0  0  0  0  0  0  0
  162.7770  212.7210  137.9640 P   0  0  2  0  0  0  0  0  0  0  0  0
  162.3010  213.6560  139.3010 O   0  0  0  0  0  0  0  0  0  0  0  0
  160.1810  212.4450  139.2970 C   0  0  0  0  0  2  0  0  0  0  0  0
  161.4410  212.8510  140.0700 C   0  0  2  0  0  3  0  0  0  0  0  0
  163.7110  211.4000  138.4670 O   0  0  0  0  0  1  0  0  0  0  0  0
  159.4600  210.9750  137.5550 O   0  0  0  0  0  0  0  0  0  0  0  0
  157.7300  209.7540  138.7380 C   0  0  1  0  0  3  0  0  0  0  0  0
  158.2160  209.0590  137.6090 O   0  0  0  0  0  0  0  0  0  0  0  0
  159.1630  209.8310  138.3060 C   0  0  1  0  0  3  0  0  0  0  0  0
  156.8230  210.9470  138.3490 C   0  0  1  0  0  3  0  0  0  0  0  0
  155.9430  210.5900  137.3290 O   0  0  0  0  0  1  0  0  0  0  0  0
  156.0670  211.6080  139.4980 C   0  0  0  0  0  2  0  0  0  0  0  0
  154.7730  211.0940  139.5730 O   0  0  0  0  0  1  0  0  0  0  0  0
  2  4  1  0  0  0  0
  2 13  1  6  0  0  0
  3  1  1  6  0  0  0
  3  4  1  0  0  0  0
  5  6  2  0  0  0  0
  6  3  1  0  0  0  0
  6  2  1  0  0  0  0
  7 14  1  0  0  0  0
  9  7  1  0  0  0  0
  9 12  2  0  0  0  0
 11 15  1  0  0  0  0
 11  7  2  0  0  0  0
 12  8  1  0  0  0  0
 13  9  1  0  0  0  0
 14  8  1  0  0  0  0
 14 10  1  1  0  0  0
 16 15  1  0  0  0  0
 17 18  2  0  0  0  0
 18 16  1  0  0  0  0
 19 18  1  0  0  0  0
 20 24  1  6  0  0  0
 20 23  1  0  0  0  0
 20 22  1  0  0  0  0
 21 22  1  0  0  0  0
 22 19  1  1  0  0  0
 23 25  1  6  0  0  0
 23 22  1  0  0  0  0
 24 21  1  0  0  0  0
 26 27  2  0  0  0  0
 27 25  1  0  0  0  0
 27 28  1  0  0  0  0
 29 30  1  0  0  0  0
 30  1  1  0  0  0  0
 31 29  2  0  0  0  0
 32 29  1  0  0  0  0
 33 32  1  0  0  0  0
 34 33  1  0  0  0  0
 35 34  1  0  0  0  0
 35 36  2  0  0  0  0
 37 38  1  0  0  0  0
 38 35  1  0  0  0  0
 39 38  2  0  0  0  0
 40 48  1  6  0  0  0
 40 45  1  0  0  0  0
 42 43  1  0  0  0  0
 42 40  1  0  0  0  0
 43 41  2  6  0  0  0
 43 47  1  0  0  0  0
 43 44  1  0  0  0  0
 44 46  1  0  0  0  0
 45 46  1  0  0  0  0
 46 37  1  1  0  0  0
 49 52  1  6  0  0  0
 50 51  1  0  0  0  0
 50 49  1  0  0  0  0
 51 48  1  6  0  0  0
 51 49  1  0  0  0  0
 52 53  1  6  0  0  0
 52 54  1  0  0  0  0
 54 55  1  0  0  0  0
M  END
>  <MODEL>
1

>  <REMARK>
 VINA RESULT:      -5.2      0.000      0.000
  Name = 
  20 active torsions:
  status: ('A' for Active; 'I' for Inactive)
    1  A    between atoms: C_1  and  C_18
    2  A    between atoms: C_2  and  N_44
    3  A    between atoms: C_3  and  O_22
    4  A    between atoms: C_5  and  N_24
    5  A    between atoms: C_6  and  C_18
    6  A    between atoms: S_8  and  C_16
    7  A    between atoms: S_8  and  C_23
    8  A    between atoms: N_10  and  C_35
    9  A    between atoms: C_16  and  C_31
   10  A    between atoms: O_22  and  C_49
   11  A    between atoms: C_23  and  S_34
   12  A    between atoms: N_24  and  N_29
   13  A    between atoms: C_25  and  S_34
   14  A    between atoms: C_27  and  C_28
   15  A    between atoms: C_27  and  C_40
   16  A    between atoms: C_28  and  N_42
   17  A    between atoms: C_32  and  S_47
   18  A    between atoms: C_36  and  C_55
   19  A    between atoms: C_38  and  C_55
   20  A    between atoms: C_40  and  S_47
                            x       y       z     vdW  Elec       q    Type
                         _______ _______ _______ _____ _____    ______ ____

>  <TORSDO>
F 20

$$$$
=
 OpenBabel11052410233D

 55 60  0  0  1  0  0  0  0  0999 V2000
  160.0170  213.4560  151.7950 N   0  0  0  0  0  2  0  0  0  0  0  0
  158.5050  211.6560  153.8770 C   0  0  2  0  0  3  0  0  0  0  0  0
  158.9620  213.4030  152.8000 C   0  0  1  0  0  3  0  0  0  0  0  0
  157.7430  212.1690  152.3320 S   0  0  0  0  0  0  0  0  0  0  0  0
  160.3180  213.0880  154.9180 O   0  0  0  0  0  0  0  0  0  0  0  0
  159.4880  212.7890  154.0790 C   0  0  0  0  0  0  0  0  0  0  0  0
  160.4760  208.4130  154.6110 C   0  0  0  0  0  0  0  0  0  0  0  0
  160.0200  208.8530  156.8750 C   0  0  0  0  0  2  0  0  0  0  0  0
  159.6870  209.6030  154.7600 C   0  0  0  0  0  0  0  0  0  0  0  0
  162.2610  207.9610  156.2580 C   0  0  0  0  0  1  0  0  0  0  0  0
  160.8220  207.9020  153.4680 N   0  0  0  0  0  0  0  0  0  0  0  0
  159.4250  209.8600  155.9940 N   0  0  0  0  0  0  0  0  0  0  0  0
  159.2230  210.4060  153.6710 N   0  0  0  0  0  2  0  0  0  0  0  0
  160.7720  207.8660  155.9660 C   0  0  2  0  0  3  0  0  0  0  0  0
  161.5810  206.6670  153.3280 C   0  0  0  0  0  2  0  0  0  0  0  0
  162.2110  206.5910  151.9460 C   0  0  0  0  0  2  0  0  0  0  0  0
  160.3100  207.7210  151.1580 O   0  0  0  0  0  0  0  0  0  0  0  0
  161.4510  207.3690  150.9070 C   0  0  0  0  0  0  0  0  0  0  0  0
  162.1680  207.8320  149.3230 S   0  0  0  0  0  0  0  0  0  0  0  0
  160.6450  206.1480  147.9280 C   0  0  2  0  0  3  0  0  0  0  0  0
  162.5340  205.8500  147.2960 C   0  0  0  0  0  2  0  0  0  0  0  0
  161.9780  206.1530  148.6590 C   0  0  1  0  0  0  0  0  0  0  0  0
  160.8410  205.2750  149.1570 C   0  0  2  0  0  3  0  0  0  0  0  0
  161.2580  205.7170  146.7340 O   0  0  0  0  0  0  0  0  0  0  0  0
  161.0430  203.7990  148.8050 C   0  0  0  0  0  2  0  0  0  0  0  0
  161.1590  203.3740  151.2040 C   0  0  0  0  0  2  0  0  0  0  0  0
  160.8840  202.8910  149.9980 C   0  0  0  0  0  0  0  0  0  0  0  0
  160.4190  201.4690  149.8810 C   0  0  0  0  0  1  0  0  0  0  0  0
  160.1850  213.9840  149.3830 C   0  0  0  0  0  0  0  0  0  0  0  0
  159.4260  213.8530  150.5880 N   0  0  0  0  0  2  0  0  0  0  0  0
  161.4250  213.7630  149.3820 O   0  0  0  0  0  0  0  0  0  0  0  0
  159.3660  214.4520  147.8620 S   0  0  0  0  0  0  0  0  0  0  0  0
  159.9430  212.9750  146.9710 C   0  0  0  0  0  2  0  0  0  0  0  0
  161.4020  213.3940  145.9720 S   0  0  0  0  0  0  0  0  0  0  0  0
  160.4640  213.3970  144.4460 C   0  0  0  0  0  0  0  0  0  0  0  0
  159.2890  213.9340  144.4310 N   0  0  0  0  0  2  0  0  0  0  0  0
  160.3220  212.9550  141.9800 N   0  0  0  0  0  2  0  0  0  0  0  0
  161.0410  212.8440  143.2140 C   0  0  0  0  0  0  0  0  0  0  0  0
  162.1690  212.2800  143.2450 O   0  0  0  0  0  0  0  0  0  0  0  0
  160.1760  211.3890  138.5470 C   0  0  1  0  0  3  0  0  0  0  0  0
  163.2110  213.6190  138.0020 O   0  0  0  0  0  0  0  0  0  0  0  0
  161.0160  212.2000  137.7590 O   0  0  0  0  0  0  0  0  0  0  0  0
  162.3390  212.6250  138.7390 P   0  0  2  0  0  0  0  0  0  0  0  0
  161.7190  213.3590  140.1400 O   0  0  0  0  0  0  0  0  0  0  0  0
  159.6330  212.1490  139.7600 C   0  0  0  0  0  2  0  0  0  0  0  0
  160.8050  212.4480  140.7020 C   0  0  2  0  0  3  0  0  0  0  0  0
  163.2450  211.2510  139.1390 O   0  0  0  0  0  1  0  0  0  0  0  0
  159.1090  210.9370  137.7670 O   0  0  0  0  0  0  0  0  0  0  0  0
  157.2270  209.6890  138.6520 C   0  0  1  0  0  3  0  0  0  0  0  0
  157.8080  209.0750  137.5210 O   0  0  0  0  0  0  0  0  0  0  0  0
  158.7000  209.7450  138.3780 C   0  0  1  0  0  3  0  0  0  0  0  0
  156.4040  210.9460  138.2810 C   0  0  1  0  0  3  0  0  0  0  0  0
  155.1640  210.5900  137.7530 O   0  0  0  0  0  1  0  0  0  0  0  0
  156.2330  211.9790  139.3910 C   0  0  0  0  0  2  0  0  0  0  0  0
  154.9270  211.9440  139.8760 O   0  0  0  0  0  1  0  0  0  0  0  0
  2 13  1  6  0  0  0
  2  6  1  0  0  0  0
  3  1  1  6  0  0  0
  3  6  1  0  0  0  0
  4  3  1  0  0  0  0
  4  2  1  0  0  0  0
  6  5  2  0  0  0  0
  7  9  1  0  0  0  0
  7 14  1  0  0  0  0
  9 12  2  0  0  0  0
 11  7  2  0  0  0  0
 12  8  1  0  0  0  0
 13  9  1  0  0  0  0
 14 10  1  1  0  0  0
 14  8  1  0  0  0  0
 15 11  1  0  0  0  0
 16 15  1  0  0  0  0
 18 17  2  0  0  0  0
 18 16  1  0  0  0  0
 19 18  1  0  0  0  0
 20 24  1  6  0  0  0
 20 22  1  0  0  0  0
 20 23  1  0  0  0  0
 21 22  1  0  0  0  0
 22 23  1  0  0  0  0
 22 19  1  1  0  0  0
 23 25  1  6  0  0  0
 24 21  1  0  0  0  0
 25 27  1  0  0  0  0
 27 26  2  0  0  0  0
 28 27  1  0  0  0  0
 29 30  1  0  0  0  0
 30  1  1  0  0  0  0
 31 29  2  0  0  0  0
 32 29  1  0  0  0  0
 33 32  1  0  0  0  0
 34 33  1  0  0  0  0
 35 34  1  0  0  0  0
 36 35  2  0  0  0  0
 37 38  1  0  0  0  0
 38 39  2  0  0  0  0
 38 35  1  0  0  0  0
 40 48  1  6  0  0  0
 40 45  1  0  0  0  0
 42 40  1  0  0  0  0
 42 43  1  0  0  0  0
 43 41  2  6  0  0  0
 43 47  1  0  0  0  0
 43 44  1  0  0  0  0
 44 46  1  0  0  0  0
 45 46  1  0  0  0  0
 46 37  1  1  0  0  0
 49 52  1  6  0  0  0
 50 51  1  0  0  0  0
 50 49  1  0  0  0  0
 51 48  1  6  0  0  0
 51 49  1  0  0  0  0
 52 53  1  1  0  0  0
 52 54  1  0  0  0  0
 54 55  1  0  0  0  0
M  END
>  <MODEL>
2

>  <REMARK>
 VINA RESULT:      -5.2      1.767      2.087
  Name = 
  20 active torsions:
  status: ('A' for Active; 'I' for Inactive)
    1  A    between atoms: C_1  and  C_18
    2  A    between atoms: C_2  and  N_44
    3  A    between atoms: C_3  and  O_22
    4  A    between atoms: C_5  and  N_24
    5  A    between atoms: C_6  and  C_18
    6  A    between atoms: S_8  and  C_16
    7  A    between atoms: S_8  and  C_23
    8  A    between atoms: N_10  and  C_35
    9  A    between atoms: C_16  and  C_31
   10  A    between atoms: O_22  and  C_49
   11  A    between atoms: C_23  and  S_34
   12  A    between atoms: N_24  and  N_29
   13  A    between atoms: C_25  and  S_34
   14  A    between atoms: C_27  and  C_28
   15  A    between atoms: C_27  and  C_40
   16  A    between atoms: C_28  and  N_42
   17  A    between atoms: C_32  and  S_47
   18  A    between atoms: C_36  and  C_55
   19  A    between atoms: C_38  and  C_55
   20  A    between atoms: C_40  and  S_47
                            x       y       z     vdW  Elec       q    Type
                         _______ _______ _______ _____ _____    ______ ____

>  <TORSDO>
F 20

$$$$
=
 OpenBabel11052410233D

 55 60  0  0  1  0  0  0  0  0999 V2000
  159.9610  213.3720  151.7130 N   0  0  0  0  0  2  0  0  0  0  0  0
  158.5620  211.6120  153.9040 C   0  0  2  0  0  3  0  0  0  0  0  0
  158.9520  213.3360  152.7650 C   0  0  1  0  0  3  0  0  0  0  0  0
  157.7260  212.0800  152.3840 S   0  0  0  0  0  0  0  0  0  0  0  0
  160.4050  213.0860  154.8270 O   0  0  0  0  0  0  0  0  0  0  0  0
  159.5410  212.7580  154.0330 C   0  0  0  0  0  0  0  0  0  0  0  0
  160.5070  208.3530  154.6380 C   0  0  0  0  0  0  0  0  0  0  0  0
  159.9940  208.7590  156.8960 C   0  0  0  0  0  2  0  0  0  0  0  0
  159.7170  209.5430  154.7850 C   0  0  0  0  0  0  0  0  0  0  0  0
  162.2490  207.8720  156.3220 C   0  0  0  0  0  1  0  0  0  0  0  0
  160.8800  207.8590  153.4960 N   0  0  0  0  0  0  0  0  0  0  0  0
  159.4240  209.7820  156.0160 N   0  0  0  0  0  0  0  0  0  0  0  0
  159.2820  210.3640  153.6970 N   0  0  0  0  0  2  0  0  0  0  0  0
  160.7670  207.7850  155.9910 C   0  0  2  0  0  3  0  0  0  0  0  0
  161.6400  206.6250  153.3560 C   0  0  0  0  0  2  0  0  0  0  0  0
  162.2610  206.5440  151.9700 C   0  0  0  0  0  2  0  0  0  0  0  0
  160.3350  207.6280  151.1800 O   0  0  0  0  0  0  0  0  0  0  0  0
  161.4830  207.3010  150.9300 C   0  0  0  0  0  0  0  0  0  0  0  0
  162.1900  207.7760  149.3440 S   0  0  0  0  0  0  0  0  0  0  0  0
  160.6510  206.1290  147.9230 C   0  0  2  0  0  3  0  0  0  0  0  0
  162.5380  205.8080  147.3010 C   0  0  0  0  0  2  0  0  0  0  0  0
  161.9780  206.1060  148.6630 C   0  0  1  0  0  0  0  0  0  0  0  0
  160.8240  205.2420  149.1450 C   0  0  2  0  0  3  0  0  0  0  0  0
  161.2640  205.7000  146.7290 O   0  0  0  0  0  0  0  0  0  0  0  0
  161.0060  203.7670  148.7800 C   0  0  0  0  0  2  0  0  0  0  0  0
  160.9370  203.2990  151.1730 C   0  0  0  0  0  2  0  0  0  0  0  0
  160.7370  202.8440  149.9420 C   0  0  0  0  0  0  0  0  0  0  0  0
  160.2440  201.4380  149.7660 C   0  0  0  0  0  1  0  0  0  0  0  0
  159.9970  213.7220  149.2630 C   0  0  0  0  0  0  0  0  0  0  0  0
  159.3030  213.6740  150.5130 N   0  0  0  0  0  2  0  0  0  0  0  0
  161.2380  213.5130  149.2120 O   0  0  0  0  0  0  0  0  0  0  0  0
  159.0940  214.0690  147.7570 S   0  0  0  0  0  0  0  0  0  0  0  0
  159.7440  212.6030  146.9010 C   0  0  0  0  0  2  0  0  0  0  0  0
  160.7970  213.1210  145.5130 S   0  0  0  0  0  0  0  0  0  0  0  0
  159.4320  213.0930  144.3540 C   0  0  0  0  0  0  0  0  0  0  0  0
  158.2280  213.2450  144.7960 N   0  0  0  0  0  2  0  0  0  0  0  0
  158.5850  213.0350  141.9930 N   0  0  0  0  0  2  0  0  0  0  0  0
  159.6800  212.9530  142.9130 C   0  0  0  0  0  0  0  0  0  0  0  0
  160.8540  212.7680  142.4910 O   0  0  0  0  0  0  0  0  0  0  0  0
  159.6110  211.5480  138.6770 C   0  0  1  0  0  3  0  0  0  0  0  0
  156.4620  213.3450  137.5200 O   0  0  0  0  0  0  0  0  0  0  0  0
  158.4680  211.6870  137.8650 O   0  0  0  0  0  0  0  0  0  0  0  0
  157.7790  213.1930  138.2500 P   0  0  2  0  0  0  0  0  0  0  0  0
  157.4930  213.2090  139.9250 O   0  0  0  0  0  0  0  0  0  0  0  0
  159.2480  211.5290  140.1640 C   0  0  0  0  0  2  0  0  0  0  0  0
  158.7200  212.9170  140.5460 C   0  0  2  0  0  3  0  0  0  0  0  0
  158.8260  214.4520  137.8150 O   0  0  0  0  0  1  0  0  0  0  0  0
  160.2690  210.3630  138.3440 O   0  0  0  0  0  0  0  0  0  0  0  0
  162.4850  209.4360  138.6780 C   0  0  1  0  0  3  0  0  0  0  0  0
  162.3470  210.0870  137.4330 O   0  0  0  0  0  0  0  0  0  0  0  0
  161.6300  210.6540  138.5030 C   0  0  1  0  0  3  0  0  0  0  0  0
  161.7530  208.0730  138.7140 C   0  0  1  0  0  3  0  0  0  0  0  0
  162.3220  207.1790  137.8080 O   0  0  0  0  0  1  0  0  0  0  0  0
  161.6230  207.4250  140.0890 C   0  0  0  0  0  2  0  0  0  0  0  0
  162.4600  206.3140  140.1740 O   0  0  0  0  0  1  0  0  0  0  0  0
  2 13  1  6  0  0  0
  2  6  1  0  0  0  0
  3  1  1  6  0  0  0
  3  6  1  0  0  0  0
  4  3  1  0  0  0  0
  4  2  1  0  0  0  0
  6  5  2  0  0  0  0
  7  9  1  0  0  0  0
  7 14  1  0  0  0  0
  9 12  2  0  0  0  0
 11  7  2  0  0  0  0
 12  8  1  0  0  0  0
 13  9  1  0  0  0  0
 14 10  1  1  0  0  0
 14  8  1  0  0  0  0
 15 11  1  0  0  0  0
 16 15  1  0  0  0  0
 18 17  2  0  0  0  0
 18 16  1  0  0  0  0
 19 18  1  0  0  0  0
 20 24  1  6  0  0  0
 20 22  1  0  0  0  0
 20 23  1  0  0  0  0
 21 22  1  0  0  0  0
 22 23  1  0  0  0  0
 22 19  1  1  0  0  0
 23 25  1  6  0  0  0
 24 21  1  0  0  0  0
 25 27  1  0  0  0  0
 27 26  2  0  0  0  0
 28 27  1  0  0  0  0
 29 30  1  0  0  0  0
 30  1  1  0  0  0  0
 31 29  2  0  0  0  0
 32 29  1  0  0  0  0
 33 32  1  0  0  0  0
 34 33  1  0  0  0  0
 35 36  2  0  0  0  0
 35 34  1  0  0  0  0
 37 38  1  0  0  0  0
 38 35  1  0  0  0  0
 39 38  2  0  0  0  0
 40 48  1  6  0  0  0
 40 45  1  0  0  0  0
 42 43  1  0  0  0  0
 42 40  1  0  0  0  0
 43 41  2  6  0  0  0
 43 44  1  0  0  0  0
 44 46  1  0  0  0  0
 45 46  1  0  0  0  0
 46 37  1  1  0  0  0
 47 43  1  0  0  0  0
 49 52  1  6  0  0  0
 50 51  1  0  0  0  0
 50 49  1  0  0  0  0
 51 48  1  6  0  0  0
 51 49  1  0  0  0  0
 52 53  1  6  0  0  0
 52 54  1  0  0  0  0
 54 55  1  0  0  0  0
M  END
>  <MODEL>
3

>  <REMARK>
 VINA RESULT:      -5.1      2.351      3.403
  Name = 
  20 active torsions:
  status: ('A' for Active; 'I' for Inactive)
    1  A    between atoms: C_1  and  C_18
    2  A    between atoms: C_2  and  N_44
    3  A    between atoms: C_3  and  O_22
    4  A    between atoms: C_5  and  N_24
    5  A    between atoms: C_6  and  C_18
    6  A    between atoms: S_8  and  C_16
    7  A    between atoms: S_8  and  C_23
    8  A    between atoms: N_10  and  C_35
    9  A    between atoms: C_16  and  C_31
   10  A    between atoms: O_22  and  C_49
   11  A    between atoms: C_23  and  S_34
   12  A    between atoms: N_24  and  N_29
   13  A    between atoms: C_25  and  S_34
   14  A    between atoms: C_27  and  C_28
   15  A    between atoms: C_27  and  C_40
   16  A    between atoms: C_28  and  N_42
   17  A    between atoms: C_32  and  S_47
   18  A    between atoms: C_36  and  C_55
   19  A    between atoms: C_38  and  C_55
   20  A    between atoms: C_40  and  S_47
                            x       y       z     vdW  Elec       q    Type
                         _______ _______ _______ _____ _____    ______ ____

>  <TORSDO>
F 20

$$$$
=
 OpenBabel11052410233D

 55 60  0  0  1  0  0  0  0  0999 V2000
  159.9470  213.0430  150.7950 N   0  0  0  0  0  2  0  0  0  0  0  0
  158.2240  212.5630  153.3760 C   0  0  2  0  0  3  0  0  0  0  0  0
  158.9060  213.5780  151.6660 C   0  0  1  0  0  3  0  0  0  0  0  0
  157.5230  212.4350  151.7260 S   0  0  0  0  0  0  0  0  0  0  0  0
  160.2300  214.0600  153.7730 O   0  0  0  0  0  0  0  0  0  0  0  0
  159.3560  213.5300  153.1090 C   0  0  0  0  0  0  0  0  0  0  0  0
  160.0070  209.8350  155.4530 C   0  0  0  0  0  0  0  0  0  0  0  0
  160.1230  211.4510  157.1570 C   0  0  0  0  0  2  0  0  0  0  0  0
  159.3840  211.0630  155.0470 C   0  0  0  0  0  0  0  0  0  0  0  0
  162.0730  209.9430  156.8030 C   0  0  0  0  0  1  0  0  0  0  0  0
  160.0330  208.7540  154.7330 N   0  0  0  0  0  0  0  0  0  0  0  0
  159.4370  211.9620  155.9680 N   0  0  0  0  0  0  0  0  0  0  0  0
  158.7580  211.2700  153.7770 N   0  0  0  0  0  2  0  0  0  0  0  0
  160.5540  210.0120  156.8290 C   0  0  2  0  0  3  0  0  0  0  0  0
  160.6240  207.4990  155.1750 C   0  0  0  0  0  2  0  0  0  0  0  0
  161.4640  206.8920  154.0620 C   0  0  0  0  0  2  0  0  0  0  0  0
  160.3600  208.3910  152.6320 O   0  0  0  0  0  0  0  0  0  0  0  0
  161.2300  207.5410  152.7260 C   0  0  0  0  0  0  0  0  0  0  0  0
  162.2050  207.1390  151.2670 S   0  0  0  0  0  0  0  0  0  0  0  0
  162.2190  204.4760  151.1640 C   0  0  2  0  0  3  0  0  0  0  0  0
  160.5090  204.9920  152.0930 C   0  0  0  0  0  2  0  0  0  0  0  0
  161.2500  205.6280  150.9510 C   0  0  1  0  0  0  0  0  0  0  0  0
  161.6320  204.7300  149.7840 C   0  0  2  0  0  3  0  0  0  0  0  0
  161.3680  203.8870  152.1210 O   0  0  0  0  0  0  0  0  0  0  0  0
  160.5260  203.7370  149.4230 C   0  0  0  0  0  2  0  0  0  0  0  0
  161.2630  203.0630  147.1970 C   0  0  0  0  0  2  0  0  0  0  0  0
  160.9840  202.6890  148.4400 C   0  0  0  0  0  0  0  0  0  0  0  0
  161.1490  201.2440  148.8110 C   0  0  0  0  0  1  0  0  0  0  0  0
  160.1730  213.8250  148.4580 C   0  0  0  0  0  0  0  0  0  0  0  0
  159.4690  213.1130  149.4800 N   0  0  0  0  0  2  0  0  0  0  0  0
  161.2440  214.4320  148.7240 O   0  0  0  0  0  0  0  0  0  0  0  0
  159.5370  213.8410  146.7850 S   0  0  0  0  0  0  0  0  0  0  0  0
  160.8600  212.7650  146.1560 C   0  0  0  0  0  2  0  0  0  0  0  0
  161.9300  213.7070  145.0280 S   0  0  0  0  0  0  0  0  0  0  0  0
  160.7140  213.6810  143.7130 C   0  0  0  0  0  0  0  0  0  0  0  0
  159.6790  214.4480  143.7990 N   0  0  0  0  0  2  0  0  0  0  0  0
  159.9100  212.7940  141.5090 N   0  0  0  0  0  2  0  0  0  0  0  0
  160.9150  212.8370  142.5280 C   0  0  0  0  0  0  0  0  0  0  0  0
  161.9730  212.1600  142.4080 O   0  0  0  0  0  0  0  0  0  0  0  0
  158.7570  210.7720  138.5350 C   0  0  1  0  0  3  0  0  0  0  0  0
  161.9610  212.1750  137.0340 O   0  0  0  0  0  0  0  0  0  0  0  0
  159.5440  211.2460  137.4660 O   0  0  0  0  0  0  0  0  0  0  0  0
  161.0990  211.5240  138.0940 P   0  0  2  0  0  0  0  0  0  0  0  0
  160.9350  212.5880  139.4090 O   0  0  0  0  0  0  0  0  0  0  0  0
  158.6310  211.8150  139.6480 C   0  0  0  0  0  2  0  0  0  0  0  0
  160.0110  211.9980  140.2910 C   0  0  2  0  0  3  0  0  0  0  0  0
  161.8050  210.0670  138.5940 O   0  0  0  0  0  1  0  0  0  0  0  0
  157.4860  210.4450  138.0590 O   0  0  0  0  0  0  0  0  0  0  0  0
  155.2850  210.9230  138.9590 C   0  0  1  0  0  3  0  0  0  0  0  0
  155.5930  209.5450  138.9700 O   0  0  0  0  0  0  0  0  0  0  0  0
  156.6740  210.4160  139.2000 C   0  0  1  0  0  3  0  0  0  0  0  0
  154.9740  211.4450  137.5350 C   0  0  1  0  0  3  0  0  0  0  0  0
  153.8250  210.8430  137.0250 O   0  0  0  0  0  1  0  0  0  0  0  0
  154.8920  212.9610  137.3860 C   0  0  0  0  0  2  0  0  0  0  0  0
  156.1510  213.4780  137.0870 O   0  0  0  0  0  1  0  0  0  0  0  0
  2 13  1  6  0  0  0
  3  1  1  6  0  0  0
  3  4  1  0  0  0  0
  3  6  1  0  0  0  0
  4  2  1  0  0  0  0
  6  2  1  0  0  0  0
  6  5  2  0  0  0  0
  7 14  1  0  0  0  0
  9  7  1  0  0  0  0
  9 12  2  0  0  0  0
 11 15  1  0  0  0  0
 11  7  2  0  0  0  0
 12  8  1  0  0  0  0
 13  9  1  0  0  0  0
 14 10  1  6  0  0  0
 14  8  1  0  0  0  0
 16 15  1  0  0  0  0
 17 18  2  0  0  0  0
 18 16  1  0  0  0  0
 19 18  1  0  0  0  0
 20 24  1  1  0  0  0
 21 24  1  0  0  0  0
 22 20  1  0  0  0  0
 22 19  1  1  0  0  0
 22 21  1  0  0  0  0
 23 25  1  1  0  0  0
 23 22  1  0  0  0  0
 23 20  1  0  0  0  0
 26 27  2  0  0  0  0
 27 28  1  0  0  0  0
 27 25  1  0  0  0  0
 29 31  2  0  0  0  0
 29 30  1  0  0  0  0
 30  1  1  0  0  0  0
 32 29  1  0  0  0  0
 33 32  1  0  0  0  0
 34 33  1  0  0  0  0
 35 36  2  0  0  0  0
 35 34  1  0  0  0  0
 37 38  1  0  0  0  0
 38 35  1  0  0  0  0
 39 38  2  0  0  0  0
 40 48  1  6  0  0  0
 40 45  1  0  0  0  0
 42 43  1  0  0  0  0
 42 40  1  0  0  0  0
 43 41  2  6  0  0  0
 43 47  1  0  0  0  0
 43 44  1  0  0  0  0
 44 46  1  0  0  0  0
 45 46  1  0  0  0  0
 46 37  1  1  0  0  0
 49 52  1  6  0  0  0
 49 50  1  0  0  0  0
 49 51  1  0  0  0  0
 50 51  1  0  0  0  0
 51 48  1  6  0  0  0
 52 53  1  1  0  0  0
 54 52  1  0  0  0  0
 55 54  1  0  0  0  0
M  END
>  <MODEL>
4

>  <REMARK>
 VINA RESULT:      -3.5      1.927      2.470
  Name = 
  20 active torsions:
  status: ('A' for Active; 'I' for Inactive)
    1  A    between atoms: C_1  and  C_18
    2  A    between atoms: C_2  and  N_44
    3  A    between atoms: C_3  and  O_22
    4  A    between atoms: C_5  and  N_24
    5  A    between atoms: C_6  and  C_18
    6  A    between atoms: S_8  and  C_16
    7  A    between atoms: S_8  and  C_23
    8  A    between atoms: N_10  and  C_35
    9  A    between atoms: C_16  and  C_31
   10  A    between atoms: O_22  and  C_49
   11  A    between atoms: C_23  and  S_34
   12  A    between atoms: N_24  and  N_29
   13  A    between atoms: C_25  and  S_34
   14  A    between atoms: C_27  and  C_28
   15  A    between atoms: C_27  and  C_40
   16  A    between atoms: C_28  and  N_42
   17  A    between atoms: C_32  and  S_47
   18  A    between atoms: C_36  and  C_55
   19  A    between atoms: C_38  and  C_55
   20  A    between atoms: C_40  and  S_47
                            x       y       z     vdW  Elec       q    Type
                         _______ _______ _______ _____ _____    ______ ____

>  <TORSDO>
F 20

$$$$
=
 OpenBabel11052410233D

 55 60  0  0  1  0  0  0  0  0999 V2000
  161.5860  207.4790  147.5540 N   0  0  0  0  0  2  0  0  0  0  0  0
  162.4030  210.1300  149.0240 C   0  0  2  0  0  3  0  0  0  0  0  0
  162.4310  208.0750  148.5820 C   0  0  1  0  0  3  0  0  0  0  0  0
  163.4910  209.3230  147.8440 S   0  0  0  0  0  0  0  0  0  0  0  0
  160.7010  208.7560  150.3050 O   0  0  0  0  0  0  0  0  0  0  0  0
  161.6010  208.9400  149.5040 C   0  0  0  0  0  0  0  0  0  0  0  0
  159.9480  213.0420  148.3640 C   0  0  0  0  0  0  0  0  0  0  0  0
  160.2910  213.6140  150.6190 C   0  0  0  0  0  2  0  0  0  0  0  0
  160.8820  212.1490  148.9900 C   0  0  0  0  0  0  0  0  0  0  0  0
  157.9990  213.8200  149.6670 C   0  0  0  0  0  1  0  0  0  0  0  0
  159.6200  212.9950  147.1080 N   0  0  0  0  0  0  0  0  0  0  0  0
  161.0850  212.4480  150.2270 N   0  0  0  0  0  0  0  0  0  0  0  0
  161.5350  211.0650  148.3230 N   0  0  0  0  0  2  0  0  0  0  0  0
  159.4780  214.0260  149.3800 C   0  0  2  0  0  3  0  0  0  0  0  0
  158.7090  213.9360  146.4730 C   0  0  0  0  0  2  0  0  0  0  0  0
  159.1900  214.2670  145.0680 C   0  0  0  0  0  2  0  0  0  0  0  0
  159.2980  212.0720  144.2460 O   0  0  0  0  0  0  0  0  0  0  0  0
  159.9000  213.1210  144.4020 C   0  0  0  0  0  0  0  0  0  0  0  0
  161.5900  213.2480  143.7940 S   0  0  0  0  0  0  0  0  0  0  0  0
  162.0480  213.5310  141.1850 C   0  0  2  0  0  3  0  0  0  0  0  0
  161.7230  211.5670  141.4870 C   0  0  0  0  0  2  0  0  0  0  0  0
  161.1000  212.7840  142.1090 C   0  0  1  0  0  0  0  0  0  0  0  0
  160.5620  213.8490  141.1660 C   0  0  2  0  0  3  0  0  0  0  0  0
  162.4520  212.3310  140.5660 O   0  0  0  0  0  0  0  0  0  0  0  0
  159.8460  213.2490  139.9530 C   0  0  0  0  0  2  0  0  0  0  0  0
  157.7350  213.9960  140.9190 C   0  0  0  0  0  2  0  0  0  0  0  0
  158.3620  213.0960  140.1720 C   0  0  0  0  0  0  0  0  0  0  0  0
  157.5630  211.9760  139.5710 C   0  0  0  0  0  1  0  0  0  0  0  0
  161.7410  205.0170  147.7460 C   0  0  0  0  0  0  0  0  0  0  0  0
  161.1090  206.2610  148.0580 N   0  0  0  0  0  2  0  0  0  0  0  0
  162.7420  204.9810  146.9830 O   0  0  0  0  0  0  0  0  0  0  0  0
  161.1130  203.4980  148.4560 S   0  0  0  0  0  0  0  0  0  0  0  0
  160.5270  204.3200  149.9680 C   0  0  0  0  0  2  0  0  0  0  0  0
  161.9220  205.1290  150.8050 S   0  0  0  0  0  0  0  0  0  0  0  0
  161.1710  204.9470  152.4210 C   0  0  0  0  0  0  0  0  0  0  0  0
  160.7060  203.7950  152.7720 N   0  0  0  0  0  2  0  0  0  0  0  0
  161.3310  207.4110  152.8680 N   0  0  0  0  0  2  0  0  0  0  0  0
  161.1310  206.0790  153.3560 C   0  0  0  0  0  0  0  0  0  0  0  0
  160.9120  205.8760  154.5820 O   0  0  0  0  0  0  0  0  0  0  0  0
  159.9590  210.5500  154.4550 C   0  0  1  0  0  3  0  0  0  0  0  0
  162.3070  209.5000  157.2600 O   0  0  0  0  0  1  0  0  0  0  0  0
  160.3350  210.4490  155.8090 O   0  0  0  0  0  0  0  0  0  0  0  0
  161.8970  209.7760  155.8290 P   0  0  2  0  0  0  0  0  0  0  0  0
  161.8300  208.3080  154.9770 O   0  0  0  0  0  0  0  0  0  0  0  0
  159.8830  209.1750  153.7850 C   0  0  0  0  0  2  0  0  0  0  0  0
  161.3040  208.6030  153.7060 C   0  0  2  0  0  3  0  0  0  0  0  0
  163.0060  210.8320  155.1060 O   0  0  0  0  0  0  0  0  0  0  0  0
  158.7140  211.1770  154.3700 O   0  0  0  0  0  0  0  0  0  0  0  0
  158.1040  213.5000  154.0340 C   0  0  1  0  0  3  0  0  0  0  0  0
  159.4400  213.3420  154.4660 O   0  0  0  0  0  0  0  0  0  0  0  0
  158.9470  212.3340  153.6160 C   0  0  1  0  0  3  0  0  0  0  0  0
  157.0850  213.2480  155.1710 C   0  0  1  0  0  3  0  0  0  0  0  0
  156.6650  214.4500  155.7380 O   0  0  0  0  0  1  0  0  0  0  0  0
  155.8830  212.3830  154.8050 C   0  0  0  0  0  2  0  0  0  0  0  0
  155.1950  212.9520  153.7350 O   0  0  0  0  0  1  0  0  0  0  0  0
  1 30  1  0  0  0  0
  2 13  1  6  0  0  0
  2  6  1  0  0  0  0
  3  1  1  6  0  0  0
  3  6  1  0  0  0  0
  4  3  1  0  0  0  0
  4  2  1  0  0  0  0
  6  5  2  0  0  0  0
  7  9  1  0  0  0  0
  7 14  1  0  0  0  0
  9 12  2  0  0  0  0
 11  7  2  0  0  0  0
 12  8  1  0  0  0  0
 13  9  1  0  0  0  0
 14 10  1  1  0  0  0
 14  8  1  0  0  0  0
 15 11  1  0  0  0  0
 16 15  1  0  0  0  0
 17 18  2  0  0  0  0
 18 16  1  0  0  0  0
 19 18  1  0  0  0  0
 20 24  1  6  0  0  0
 20 22  1  0  0  0  0
 21 22  1  0  0  0  0
 22 19  1  1  0  0  0
 23 25  1  6  0  0  0
 23 20  1  0  0  0  0
 23 22  1  0  0  0  0
 24 21  1  0  0  0  0
 25 27  1  0  0  0  0
 27 26  2  0  0  0  0
 28 27  1  0  0  0  0
 29 30  1  0  0  0  0
 29 32  1  0  0  0  0
 31 29  2  0  0  0  0
 32 33  1  0  0  0  0
 33 34  1  0  0  0  0
 34 35  1  0  0  0  0
 35 36  2  0  0  0  0
 35 38  1  0  0  0  0
 37 38  1  0  0  0  0
 38 39  2  0  0  0  0
 40 48  1  1  0  0  0
 40 42  1  0  0  0  0
 42 43  1  0  0  0  0
 43 47  2  6  0  0  0
 43 41  1  0  0  0  0
 44 43  1  0  0  0  0
 45 40  1  0  0  0  0
 46 37  1  6  0  0  0
 46 45  1  0  0  0  0
 46 44  1  0  0  0  0
 49 50  1  0  0  0  0
 49 52  1  1  0  0  0
 51 49  1  0  0  0  0
 51 48  1  1  0  0  0
 51 50  1  0  0  0  0
 52 53  1  6  0  0  0
 54 52  1  0  0  0  0
 55 54  1  0  0  0  0
M  END
>  <MODEL>
5

>  <REMARK>
 VINA RESULT:      -2.9      4.204     12.247
  Name = 
  20 active torsions:
  status: ('A' for Active; 'I' for Inactive)
    1  A    between atoms: C_1  and  C_18
    2  A    between atoms: C_2  and  N_44
    3  A    between atoms: C_3  and  O_22
    4  A    between atoms: C_5  and  N_24
    5  A    between atoms: C_6  and  C_18
    6  A    between atoms: S_8  and  C_16
    7  A    between atoms: S_8  and  C_23
    8  A    between atoms: N_10  and  C_35
    9  A    between atoms: C_16  and  C_31
   10  A    between atoms: O_22  and  C_49
   11  A    between atoms: C_23  and  S_34
   12  A    between atoms: N_24  and  N_29
   13  A    between atoms: C_25  and  S_34
   14  A    between atoms: C_27  and  C_28
   15  A    between atoms: C_27  and  C_40
   16  A    between atoms: C_28  and  N_42
   17  A    between atoms: C_32  and  S_47
   18  A    between atoms: C_36  and  C_55
   19  A    between atoms: C_38  and  C_55
   20  A    between atoms: C_40  and  S_47
                            x       y       z     vdW  Elec       q    Type
                         _______ _______ _______ _____ _____    ______ ____

>  <TORSDO>
F 20

$$$$
