=
 OpenBabel11042421403D

 45 50  0  0  1  0  0  0  0  0999 V2000
  162.3420  209.4570  151.3020 O   0  0  0  0  0  0  0  0  0  0  0  0
  161.1960  210.0260  150.6920 C   0  0  1  0  0  3  0  0  0  0  0  0
  161.2230  208.6180  151.1690 C   0  0  1  0  0  0  0  0  0  0  0  0
  161.4700  205.6240  148.0920 C   0  0  0  0  0  0  0  0  0  0  0  0
  162.4650  207.4520  149.3440 C   0  0  0  0  0  3  0  0  0  0  0  0
  160.3170  205.7270  148.8800 C   0  0  0  0  0  3  0  0  0  0  0  0
  162.5510  206.4840  148.3420 C   0  0  0  0  0  3  0  0  0  0  0  0
  161.3020  207.5640  150.1100 C   0  0  0  0  0  0  0  0  0  0  0  0
  160.2280  206.6980  149.8770 C   0  0  0  0  0  3  0  0  0  0  0  0
  160.7780  204.8470  145.7850 C   0  0  0  0  0  2  0  0  0  0  0  0
  160.9950  205.6990  143.5530 O   0  0  0  0  0  1  0  0  0  0  0  0
  161.5630  204.5320  147.0660 C   0  0  1  0  0  3  0  0  0  0  0  0
  163.4420  204.2050  145.3580 C   0  0  0  0  0  2  0  0  0  0  0  0
  163.0210  204.1170  146.8250 C   0  0  0  0  0  2  0  0  0  0  0  0
  161.5330  205.7960  144.8380 C   0  0  2  0  0  3  0  0  0  0  0  0
  163.0470  205.5660  144.7920 C   0  0  0  0  0  2  0  0  0  0  0  0
  160.3890  207.4240  154.5460 O   0  0  0  0  0  0  0  0  0  0  0  0
  160.5290  208.3540  152.4270 N   0  0  0  0  0  2  0  0  0  0  0  0
  160.9340  207.4010  153.4140 C   0  0  0  0  0  0  0  0  0  0  0  0
  161.9560  206.3550  153.1130 C   0  0  0  0  0  2  0  0  0  0  0  0
  161.3240  204.9670  153.0300 C   0  0  0  0  0  2  0  0  0  0  0  0
  161.7450  204.2230  151.7710 C   0  0  0  0  0  2  0  0  0  0  0  0
  160.6900  203.2290  151.3070 C   0  0  0  0  0  2  0  0  0  0  0  0
  160.0650  201.8690  149.3140 C   0  0  0  0  0  1  0  0  0  0  0  0
  161.2180  202.3680  150.1630 C   0  0  0  0  0  2  0  0  0  0  0  0
  160.5640  210.8900  151.6010 O   0  0  0  0  0  0  0  0  0  0  0  0
  161.0240  212.1760  151.2900 C   0  0  1  0  0  3  0  0  0  0  0  0
  160.0830  214.3580  151.6540 O   0  0  0  0  0  1  0  0  0  0  0  0
  159.5430  213.5940  148.3610 C   0  0  1  0  0  3  0  0  0  0  0  0
  160.2890  213.1340  149.5960 C   0  0  2  0  0  0  0  0  0  0  0  0
  161.4520  212.2150  149.8100 C   0  0  0  0  0  2  0  0  0  0  0  0
  159.8350  213.1310  151.0290 C   0  0  1  0  0  3  0  0  0  0  0  0
  160.6660  214.4530  148.9570 C   0  0  0  0  0  2  0  0  0  0  0  0
  158.7770  212.2020  146.4500 C   0  0  0  0  0  2  0  0  0  0  0  0
  161.1220  213.0110  144.9100 C   0  0  2  0  0  3  0  0  0  0  0  0
  159.8320  212.6390  144.2030 C   0  0  0  0  0  0  0  0  0  0  0  0
  160.0140  212.8200  147.1370 C   0  0  1  0  0  3  0  0  0  0  0  0
  158.7750  212.2680  144.9430 C   0  0  0  0  0  3  0  0  0  0  0  0
  160.8050  213.7400  146.2070 C   0  0  0  0  0  2  0  0  0  0  0  0
  161.9450  213.8230  144.1250 O   0  0  0  0  0  0  0  0  0  0  0  0
  163.2310  213.2910  144.2920 C   0  0  0  0  0  1  0  0  0  0  0  0
  159.7020  212.6440  142.7190 C   0  0  0  0  0  0  0  0  0  0  0  0
  159.0610  213.5610  142.1370 O   0  0  0  0  0  0  0  0  0  0  0  0
  161.5640  211.5140  141.7630 O   0  0  0  0  0  0  0  0  0  0  0  0
  160.3140  211.5810  141.9080 C   0  0  0  0  0  3  0  0  0  0  0  0
  2  3  1  0  0  0  0
  2  1  1  0  0  0  0
  2 26  1  1  0  0  0
  3  1  1  0  0  0  0
  3 18  1  1  0  0  0
  4  7  2  0  0  0  0
  4  6  1  0  0  0  0
  5  8  2  0  0  0  0
  6  9  2  0  0  0  0
  7  5  1  0  0  0  0
  8  3  1  0  0  0  0
  9  8  1  0  0  0  0
 10 12  1  0  0  0  0
 12  4  1  1  0  0  0
 13 14  1  0  0  0  0
 14 12  1  0  0  0  0
 15 11  1  6  0  0  0
 15 10  1  0  0  0  0
 16 15  1  0  0  0  0
 16 13  1  0  0  0  0
 18 19  1  0  0  0  0
 19 17  2  0  0  0  0
 20 19  1  0  0  0  0
 21 20  1  0  0  0  0
 22 21  1  0  0  0  0
 23 22  1  0  0  0  0
 24 25  1  0  0  0  0
 25 23  1  0  0  0  0
 27 26  1  6  0  0  0
 29 33  1  6  0  0  0
 29 30  1  0  0  0  0
 30 33  1  1  0  0  0
 30 31  1  0  0  0  0
 30 32  1  0  0  0  0
 31 27  1  0  0  0  0
 32 27  1  0  0  0  0
 32 28  1  1  0  0  0
 34 37  1  0  0  0  0
 35 40  1  6  0  0  0
 35 39  1  0  0  0  0
 36 35  1  0  0  0  0
 36 38  2  0  0  0  0
 37 39  1  6  0  0  0
 37 29  1  0  0  0  0
 38 34  1  0  0  0  0
 40 41  1  0  0  0  0
 42 36  1  0  0  0  0
 43 42  2  0  0  0  0
 44 45  2  0  0  0  0
 45 42  1  0  0  0  0
M  END
>  <MODEL>
1

>  <REMARK>
 VINA RESULT:      -6.0      0.000      0.000
  Name = 
  14 active torsions:
  status: ('A' for Active; 'I' for Inactive)
    1  A    between atoms: C_2  and  O_32
    2  A    between atoms: C_3  and  C_34
    3  A    between atoms: C_3  and  C_41
    4  A    between atoms: O_4  and  C_24
    5  A    between atoms: C_7  and  C_18
    6  A    between atoms: C_10  and  C_30
    7  A    between atoms: C_13  and  C_29
    8  A    between atoms: C_13  and  C_33
    9  A    between atoms: C_15  and  C_22
   10  A    between atoms: C_15  and  C_40
   11  A    between atoms: C_22  and  C_41
   12  A    between atoms: N_27  and  C_43
   13  A    between atoms: C_31  and  O_32
   14  A    between atoms: C_37  and  C_43
                            x       y       z     vdW  Elec       q    Type
                         _______ _______ _______ _____ _____    ______ ____

>  <TORSDO>
F 14

$$$$
=
 OpenBabel11042421403D

 45 50  0  0  1  0  0  0  0  0999 V2000
  162.7330  207.1170  151.8550 O   0  0  0  0  0  0  0  0  0  0  0  0
  161.9550  207.7880  152.8310 C   0  0  1  0  0  3  0  0  0  0  0  0
  161.5350  207.7010  151.4080 C   0  0  1  0  0  0  0  0  0  0  0  0
  161.9490  211.2860  149.0710 C   0  0  0  0  0  0  0  0  0  0  0  0
  161.9020  208.8640  149.2300 C   0  0  0  0  0  3  0  0  0  0  0  0
  161.6860  211.3700  150.4440 C   0  0  0  0  0  3  0  0  0  0  0  0
  162.0400  210.0230  148.4660 C   0  0  0  0  0  3  0  0  0  0  0  0
  161.6640  208.9550  150.6030 C   0  0  0  0  0  0  0  0  0  0  0  0
  161.5550  210.2120  151.2090 C   0  0  0  0  0  3  0  0  0  0  0  0
  161.6710  212.3320  146.7820 C   0  0  0  0  0  2  0  0  0  0  0  0
  159.8930  212.5050  145.1830 O   0  0  0  0  0  1  0  0  0  0  0  0
  162.0260  212.5480  148.2600 C   0  0  1  0  0  3  0  0  0  0  0  0
  160.1910  214.3190  148.0280 C   0  0  0  0  0  2  0  0  0  0  0  0
  161.2500  213.6890  148.9330 C   0  0  0  0  0  2  0  0  0  0  0  0
  160.1540  212.2670  146.5330 C   0  0  2  0  0  3  0  0  0  0  0  0
  159.3320  213.2230  147.4030 C   0  0  0  0  0  2  0  0  0  0  0  0
  159.7030  204.7570  150.1820 O   0  0  0  0  0  0  0  0  0  0  0  0
  160.4810  206.7340  151.1090 N   0  0  0  0  0  2  0  0  0  0  0  0
  160.5900  205.6470  150.1850 C   0  0  0  0  0  0  0  0  0  0  0  0
  161.7080  205.5730  149.1980 C   0  0  0  0  0  2  0  0  0  0  0  0
  161.2280  205.0250  147.8560 C   0  0  0  0  0  2  0  0  0  0  0  0
  161.9160  203.7160  147.4950 C   0  0  0  0  0  2  0  0  0  0  0  0
  160.9310  202.5640  147.3540 C   0  0  0  0  0  2  0  0  0  0  0  0
  160.1680  201.6060  149.5240 C   0  0  0  0  0  1  0  0  0  0  0  0
  161.1910  201.4940  148.4100 C   0  0  0  0  0  2  0  0  0  0  0  0
  161.3080  206.8420  153.6430 O   0  0  0  0  0  0  0  0  0  0  0  0
  161.4460  207.3070  154.9570 C   0  0  1  0  0  3  0  0  0  0  0  0
  160.2580  206.7950  156.9830 O   0  0  0  0  0  1  0  0  0  0  0  0
  159.0640  209.8090  155.8840 C   0  0  1  0  0  3  0  0  0  0  0  0
  160.1600  208.7910  155.6480 C   0  0  2  0  0  0  0  0  0  0  0  0
  161.4820  208.8490  154.9460 C   0  0  0  0  0  2  0  0  0  0  0  0
  160.0810  207.2900  155.6860 C   0  0  1  0  0  3  0  0  0  0  0  0
  160.1320  209.5530  156.9560 C   0  0  0  0  0  2  0  0  0  0  0  0
  159.3320  210.7390  153.5940 C   0  0  0  0  0  2  0  0  0  0  0  0
  158.5060  213.3690  154.5570 C   0  0  2  0  0  3  0  0  0  0  0  0
  158.2540  212.9660  153.1170 C   0  0  0  0  0  0  0  0  0  0  0  0
  159.3470  211.0840  155.1000 C   0  0  1  0  0  3  0  0  0  0  0  0
  158.6500  211.7510  152.7080 C   0  0  0  0  0  3  0  0  0  0  0  0
  158.3270  212.1620  155.4660 C   0  0  0  0  0  2  0  0  0  0  0  0
  157.6490  214.3870  154.9850 O   0  0  0  0  0  0  0  0  0  0  0  0
  157.2540  214.0010  156.2720 C   0  0  0  0  0  1  0  0  0  0  0  0
  157.6070  213.8780  152.1320 C   0  0  0  0  0  0  0  0  0  0  0  0
  158.1920  214.1750  151.0550 O   0  0  0  0  0  0  0  0  0  0  0  0
  155.3880  213.7790  152.9830 O   0  0  0  0  0  0  0  0  0  0  0  0
  156.2790  214.4520  152.3990 C   0  0  0  0  0  3  0  0  0  0  0  0
  1  2  1  0  0  0  0
  2 26  1  1  0  0  0
  3 18  1  6  0  0  0
  3  1  1  0  0  0  0
  3  2  1  0  0  0  0
  4  6  1  0  0  0  0
  5  8  2  0  0  0  0
  6  9  2  0  0  0  0
  7  4  2  0  0  0  0
  7  5  1  0  0  0  0
  8  9  1  0  0  0  0
  8  3  1  0  0  0  0
 10 12  1  0  0  0  0
 12 14  1  0  0  0  0
 12  4  1  1  0  0  0
 13 14  1  0  0  0  0
 15 11  1  6  0  0  0
 15 10  1  0  0  0  0
 15 16  1  0  0  0  0
 16 13  1  0  0  0  0
 17 19  2  0  0  0  0
 19 18  1  0  0  0  0
 20 19  1  0  0  0  0
 21 20  1  0  0  0  0
 22 21  1  0  0  0  0
 23 22  1  0  0  0  0
 23 25  1  0  0  0  0
 25 24  1  0  0  0  0
 27 26  1  6  0  0  0
 27 32  1  0  0  0  0
 29 33  1  1  0  0  0
 30 31  1  6  0  0  0
 30 32  1  0  0  0  0
 30 29  1  0  0  0  0
 30 33  1  0  0  0  0
 31 27  1  0  0  0  0
 32 28  1  1  0  0  0
 35 40  1  1  0  0  0
 35 39  1  0  0  0  0
 36 35  1  0  0  0  0
 37 34  1  6  0  0  0
 37 39  1  0  0  0  0
 37 29  1  0  0  0  0
 38 36  2  0  0  0  0
 38 34  1  0  0  0  0
 40 41  1  0  0  0  0
 42 45  1  0  0  0  0
 42 36  1  0  0  0  0
 43 42  2  0  0  0  0
 45 44  2  0  0  0  0
M  END
>  <MODEL>
2

>  <REMARK>
 VINA RESULT:      -5.8      2.678      7.409
  Name = 
  14 active torsions:
  status: ('A' for Active; 'I' for Inactive)
    1  A    between atoms: C_2  and  O_32
    2  A    between atoms: C_3  and  C_34
    3  A    between atoms: C_3  and  C_41
    4  A    between atoms: O_4  and  C_24
    5  A    between atoms: C_7  and  C_18
    6  A    between atoms: C_10  and  C_30
    7  A    between atoms: C_13  and  C_29
    8  A    between atoms: C_13  and  C_33
    9  A    between atoms: C_15  and  C_22
   10  A    between atoms: C_15  and  C_40
   11  A    between atoms: C_22  and  C_41
   12  A    between atoms: N_27  and  C_43
   13  A    between atoms: C_31  and  O_32
   14  A    between atoms: C_37  and  C_43
                            x       y       z     vdW  Elec       q    Type
                         _______ _______ _______ _____ _____    ______ ____

>  <TORSDO>
F 14

$$$$
=
 OpenBabel11042421403D

 45 50  0  0  1  0  0  0  0  0999 V2000
  162.3030  208.0480  152.3030 O   0  0  0  0  0  0  0  0  0  0  0  0
  161.0730  208.7410  152.1890 C   0  0  1  0  0  3  0  0  0  0  0  0
  161.2380  207.3400  151.7220 C   0  0  1  0  0  0  0  0  0  0  0  0
  161.4250  206.8200  147.4570 C   0  0  0  0  0  0  0  0  0  0  0  0
  162.3640  207.6880  149.5210 C   0  0  0  0  0  3  0  0  0  0  0  0
  160.3730  206.2540  148.1870 C   0  0  0  0  0  3  0  0  0  0  0  0
  162.4300  207.5250  148.1370 C   0  0  0  0  0  3  0  0  0  0  0  0
  161.2990  207.1410  150.2400 C   0  0  0  0  0  0  0  0  0  0  0  0
  160.3030  206.4220  149.5700 C   0  0  0  0  0  3  0  0  0  0  0  0
  162.7980  205.8520  145.5630 C   0  0  0  0  0  2  0  0  0  0  0  0
  163.7210  203.7010  145.0420 O   0  0  0  0  0  1  0  0  0  0  0  0
  161.5070  206.5730  145.9780 C   0  0  1  0  0  3  0  0  0  0  0  0
  160.4740  204.6060  144.7060 C   0  0  0  0  0  2  0  0  0  0  0  0
  160.2230  205.9170  145.4520 C   0  0  0  0  0  2  0  0  0  0  0  0
  162.7440  204.3350  145.8110 C   0  0  2  0  0  3  0  0  0  0  0  0
  161.3740  203.7030  145.5450 C   0  0  0  0  0  2  0  0  0  0  0  0
  160.7590  204.2600  153.6740 O   0  0  0  0  0  0  0  0  0  0  0  0
  160.6740  206.3050  152.5850 N   0  0  0  0  0  2  0  0  0  0  0  0
  161.1920  204.9810  152.7410 C   0  0  0  0  0  0  0  0  0  0  0  0
  162.2020  204.4230  151.7930 C   0  0  0  0  0  2  0  0  0  0  0  0
  161.7370  203.0940  151.2030 C   0  0  0  0  0  2  0  0  0  0  0  0
  161.0210  203.2800  149.8720 C   0  0  0  0  0  2  0  0  0  0  0  0
  160.1620  202.0780  149.5040 C   0  0  0  0  0  2  0  0  0  0  0  0
  161.4760  200.6750  147.9190 C   0  0  0  0  0  1  0  0  0  0  0  0
  161.0180  200.8230  149.3570 C   0  0  0  0  0  2  0  0  0  0  0  0
  160.4620  208.8180  153.4520 O   0  0  0  0  0  0  0  0  0  0  0  0
  161.3930  209.4470  154.2890 C   0  0  1  0  0  3  0  0  0  0  0  0
  162.1580  208.9490  156.5130 O   0  0  0  0  0  1  0  0  0  0  0  0
  159.9310  211.5330  156.7990 C   0  0  1  0  0  3  0  0  0  0  0  0
  160.7110  210.7250  155.7840 C   0  0  2  0  0  0  0  0  0  0  0  0
  161.0780  210.9550  154.3500 C   0  0  0  0  0  2  0  0  0  0  0  0
  161.0080  209.2510  155.7750 C   0  0  1  0  0  3  0  0  0  0  0  0
  161.4630  211.6100  156.7540 C   0  0  0  0  0  2  0  0  0  0  0  0
  159.1890  212.4620  154.6160 C   0  0  0  0  0  2  0  0  0  0  0  0
  157.2120  214.1190  155.9840 C   0  0  2  0  0  3  0  0  0  0  0  0
  156.9700  213.6550  154.5600 C   0  0  0  0  0  0  0  0  0  0  0  0
  159.2870  212.7410  156.1320 C   0  0  1  0  0  3  0  0  0  0  0  0
  157.9020  212.8970  153.9620 C   0  0  0  0  0  3  0  0  0  0  0  0
  157.9250  213.0260  156.7660 C   0  0  0  0  0  2  0  0  0  0  0  0
  156.0260  214.4490  156.6470 O   0  0  0  0  0  0  0  0  0  0  0  0
  155.6190  213.2560  157.2600 C   0  0  0  0  0  1  0  0  0  0  0  0
  155.7490  214.0300  153.7930 C   0  0  0  0  0  0  0  0  0  0  0  0
  154.6720  214.2930  154.3940 O   0  0  0  0  0  0  0  0  0  0  0  0
  154.7080  214.1950  151.6610 O   0  0  0  0  0  0  0  0  0  0  0  0
  155.7750  214.0960  152.3240 C   0  0  0  0  0  3  0  0  0  0  0  0
  2  1  1  0  0  0  0
  2 26  1  1  0  0  0
  3  2  1  0  0  0  0
  3  1  1  0  0  0  0
  3 18  1  1  0  0  0
  4  7  2  0  0  0  0
  4  6  1  0  0  0  0
  5  8  2  0  0  0  0
  6  9  2  0  0  0  0
  7  5  1  0  0  0  0
  8  3  1  0  0  0  0
  9  8  1  0  0  0  0
 10 15  1  0  0  0  0
 10 12  1  0  0  0  0
 12  4  1  1  0  0  0
 13 14  1  0  0  0  0
 13 16  1  0  0  0  0
 14 12  1  0  0  0  0
 15 11  1  6  0  0  0
 16 15  1  0  0  0  0
 18 19  1  0  0  0  0
 19 17  2  0  0  0  0
 20 19  1  0  0  0  0
 21 20  1  0  0  0  0
 22 21  1  0  0  0  0
 23 22  1  0  0  0  0
 24 25  1  0  0  0  0
 25 23  1  0  0  0  0
 27 26  1  6  0  0  0
 27 31  1  0  0  0  0
 27 32  1  0  0  0  0
 29 33  1  1  0  0  0
 30 31  1  6  0  0  0
 30 33  1  0  0  0  0
 30 29  1  0  0  0  0
 32 30  1  0  0  0  0
 32 28  1  1  0  0  0
 35 40  1  1  0  0  0
 35 39  1  0  0  0  0
 36 35  1  0  0  0  0
 37 34  1  6  0  0  0
 37 39  1  0  0  0  0
 37 29  1  0  0  0  0
 38 36  2  0  0  0  0
 38 34  1  0  0  0  0
 40 41  1  0  0  0  0
 42 43  2  0  0  0  0
 42 36  1  0  0  0  0
 44 45  2  0  0  0  0
 45 42  1  0  0  0  0
M  END
>  <MODEL>
3

>  <REMARK>
 VINA RESULT:      -5.5      4.447      6.796
  Name = 
  14 active torsions:
  status: ('A' for Active; 'I' for Inactive)
    1  A    between atoms: C_2  and  O_32
    2  A    between atoms: C_3  and  C_34
    3  A    between atoms: C_3  and  C_41
    4  A    between atoms: O_4  and  C_24
    5  A    between atoms: C_7  and  C_18
    6  A    between atoms: C_10  and  C_30
    7  A    between atoms: C_13  and  C_29
    8  A    between atoms: C_13  and  C_33
    9  A    between atoms: C_15  and  C_22
   10  A    between atoms: C_15  and  C_40
   11  A    between atoms: C_22  and  C_41
   12  A    between atoms: N_27  and  C_43
   13  A    between atoms: C_31  and  O_32
   14  A    between atoms: C_37  and  C_43
                            x       y       z     vdW  Elec       q    Type
                         _______ _______ _______ _____ _____    ______ ____

>  <TORSDO>
F 14

$$$$
=
 OpenBabel11042421403D

 45 50  0  0  1  0  0  0  0  0999 V2000
  158.8060  211.1310  153.8730 O   0  0  0  0  0  0  0  0  0  0  0  0
  160.0840  210.7810  153.3710 C   0  0  1  0  0  3  0  0  0  0  0  0
  159.6010  212.1870  153.3970 C   0  0  1  0  0  0  0  0  0  0  0  0
  158.5190  213.9100  149.6090 C   0  0  0  0  0  0  0  0  0  0  0  0
  160.1860  212.9570  151.0960 C   0  0  0  0  0  3  0  0  0  0  0  0
  157.5420  213.7020  150.5900 C   0  0  0  0  0  3  0  0  0  0  0  0
  159.8430  213.5180  149.8650 C   0  0  0  0  0  3  0  0  0  0  0  0
  159.2100  212.7750  152.0790 C   0  0  0  0  0  0  0  0  0  0  0  0
  157.8860  213.1470  151.8230 C   0  0  0  0  0  3  0  0  0  0  0  0
  159.1570  214.1950  147.1760 C   0  0  0  0  0  2  0  0  0  0  0  0
  159.7370  212.7240  145.3730 O   0  0  0  0  0  1  0  0  0  0  0  0
  158.1110  214.4530  148.2700 C   0  0  1  0  0  3  0  0  0  0  0  0
  156.6110  213.2890  146.5520 C   0  0  0  0  0  2  0  0  0  0  0  0
  156.6890  214.0060  147.8990 C   0  0  0  0  0  2  0  0  0  0  0  0
  159.0950  212.7650  146.6120 C   0  0  2  0  0  3  0  0  0  0  0  0
  157.6770  212.1980  146.4880 C   0  0  0  0  0  2  0  0  0  0  0  0
  160.0230  214.1290  156.4920 O   0  0  0  0  0  0  0  0  0  0  0  0
  160.1520  213.0340  154.4530 N   0  0  0  0  0  2  0  0  0  0  0  0
  159.4050  213.6100  155.5280 C   0  0  0  0  0  0  0  0  0  0  0  0
  157.9130  213.6470  155.5090 C   0  0  0  0  0  2  0  0  0  0  0  0
  157.3400  213.7120  156.9230 C   0  0  0  0  0  2  0  0  0  0  0  0
  155.8940  214.1880  156.9310 C   0  0  0  0  0  2  0  0  0  0  0  0
  154.9140  213.0660  156.6180 C   0  0  0  0  0  2  0  0  0  0  0  0
  154.9330  210.6080  156.2150 C   0  0  0  0  0  1  0  0  0  0  0  0
  155.4510  211.7230  157.1020 C   0  0  0  0  0  2  0  0  0  0  0  0
  160.9420  210.4870  154.4450 O   0  0  0  0  0  0  0  0  0  0  0  0
  160.5550  209.2220  154.9080 C   0  0  1  0  0  3  0  0  0  0  0  0
  161.7110  207.5520  156.1920 O   0  0  0  0  0  1  0  0  0  0  0  0
  161.7760  206.5020  152.9340 C   0  0  1  0  0  3  0  0  0  0  0  0
  161.1530  207.5300  153.8540 C   0  0  2  0  0  0  0  0  0  0  0  0
  159.9530  208.4190  153.7380 C   0  0  0  0  0  2  0  0  0  0  0  0
  161.7780  208.2790  154.9980 C   0  0  1  0  0  3  0  0  0  0  0  0
  160.8100  206.0680  154.0450 C   0  0  0  0  0  2  0  0  0  0  0  0
  161.7380  207.6500  150.7300 C   0  0  0  0  0  2  0  0  0  0  0  0
  160.6790  205.2320  149.4800 C   0  0  2  0  0  3  0  0  0  0  0  0
  161.5210  206.2040  148.6760 C   0  0  0  0  0  0  0  0  0  0  0  0
  161.0940  206.5260  151.5730 C   0  0  1  0  0  3  0  0  0  0  0  0
  161.9880  207.3070  149.2830 C   0  0  0  0  0  3  0  0  0  0  0  0
  161.2040  205.1550  150.9060 C   0  0  0  0  0  2  0  0  0  0  0  0
  160.6750  203.9470  148.9300 O   0  0  0  0  0  0  0  0  0  0  0  0
  160.7970  203.0900  150.0310 C   0  0  0  0  0  1  0  0  0  0  0  0
  161.8270  205.9950  147.2330 C   0  0  0  0  0  0  0  0  0  0  0  0
  162.9340  205.5060  146.8790 O   0  0  0  0  0  0  0  0  0  0  0  0
  160.4610  205.5100  145.3480 O   0  0  0  0  0  0  0  0  0  0  0  0
  160.8480  206.3560  146.1980 C   0  0  0  0  0  3  0  0  0  0  0  0
  2  3  1  0  0  0  0
  2  1  1  0  0  0  0
  2 26  1  1  0  0  0
  3  1  1  0  0  0  0
  3 18  1  1  0  0  0
  4  7  2  0  0  0  0
  4  6  1  0  0  0  0
  5  8  2  0  0  0  0
  6  9  2  0  0  0  0
  7  5  1  0  0  0  0
  8  3  1  0  0  0  0
  9  8  1  0  0  0  0
 10 12  1  0  0  0  0
 12  4  1  1  0  0  0
 13 14  1  0  0  0  0
 14 12  1  0  0  0  0
 15 11  1  6  0  0  0
 15 10  1  0  0  0  0
 16 13  1  0  0  0  0
 16 15  1  0  0  0  0
 18 19  1  0  0  0  0
 19 17  2  0  0  0  0
 20 19  1  0  0  0  0
 20 21  1  0  0  0  0
 21 22  1  0  0  0  0
 23 22  1  0  0  0  0
 23 25  1  0  0  0  0
 24 25  1  0  0  0  0
 27 26  1  6  0  0  0
 27 32  1  0  0  0  0
 29 30  1  0  0  0  0
 29 33  1  1  0  0  0
 30 31  1  6  0  0  0
 30 33  1  0  0  0  0
 30 32  1  0  0  0  0
 31 27  1  0  0  0  0
 32 28  1  1  0  0  0
 35 40  1  6  0  0  0
 35 39  1  0  0  0  0
 36 38  2  0  0  0  0
 36 35  1  0  0  0  0
 37 34  1  6  0  0  0
 37 29  1  0  0  0  0
 38 34  1  0  0  0  0
 39 37  1  0  0  0  0
 40 41  1  0  0  0  0
 42 36  1  0  0  0  0
 43 42  2  0  0  0  0
 44 45  2  0  0  0  0
 45 42  1  0  0  0  0
M  END
>  <MODEL>
4

>  <REMARK>
 VINA RESULT:      -5.2      3.364      8.596
  Name = 
  14 active torsions:
  status: ('A' for Active; 'I' for Inactive)
    1  A    between atoms: C_2  and  O_32
    2  A    between atoms: C_3  and  C_34
    3  A    between atoms: C_3  and  C_41
    4  A    between atoms: O_4  and  C_24
    5  A    between atoms: C_7  and  C_18
    6  A    between atoms: C_10  and  C_30
    7  A    between atoms: C_13  and  C_29
    8  A    between atoms: C_13  and  C_33
    9  A    between atoms: C_15  and  C_22
   10  A    between atoms: C_15  and  C_40
   11  A    between atoms: C_22  and  C_41
   12  A    between atoms: N_27  and  C_43
   13  A    between atoms: C_31  and  O_32
   14  A    between atoms: C_37  and  C_43
                            x       y       z     vdW  Elec       q    Type
                         _______ _______ _______ _____ _____    ______ ____

>  <TORSDO>
F 14

$$$$
=
 OpenBabel11042421403D

 45 50  0  0  1  0  0  0  0  0999 V2000
  161.8240  208.7670  152.3390 O   0  0  0  0  0  0  0  0  0  0  0  0
  160.4830  209.1810  152.1430 C   0  0  1  0  0  3  0  0  0  0  0  0
  160.9460  207.8100  151.8030 C   0  0  1  0  0  0  0  0  0  0  0  0
  161.3900  206.9920  147.6050 C   0  0  0  0  0  0  0  0  0  0  0  0
  162.0960  208.1570  149.6150 C   0  0  0  0  0  3  0  0  0  0  0  0
  160.4080  206.3270  148.3500 C   0  0  0  0  0  3  0  0  0  0  0  0
  162.2440  207.8980  148.2520 C   0  0  0  0  0  3  0  0  0  0  0  0
  161.0990  207.5080  150.3460 C   0  0  0  0  0  0  0  0  0  0  0  0
  160.2550  206.5890  149.7100 C   0  0  0  0  0  3  0  0  0  0  0  0
  162.8850  205.8990  145.8790 C   0  0  0  0  0  2  0  0  0  0  0  0
  163.8330  203.7190  145.5680 O   0  0  0  0  0  1  0  0  0  0  0  0
  161.5710  206.6450  146.1550 C   0  0  1  0  0  3  0  0  0  0  0  0
  160.6190  204.5950  144.9520 C   0  0  0  0  0  2  0  0  0  0  0  0
  160.3230  205.9530  145.5890 C   0  0  0  0  0  2  0  0  0  0  0  0
  162.8080  204.4030  146.2250 C   0  0  2  0  0  3  0  0  0  0  0  0
  161.4570  203.7520  145.9090 C   0  0  0  0  0  2  0  0  0  0  0  0
  160.9370  204.7380  153.8250 O   0  0  0  0  0  0  0  0  0  0  0  0
  160.5720  206.7560  152.7440 N   0  0  0  0  0  2  0  0  0  0  0  0
  161.1910  205.4690  152.8350 C   0  0  0  0  0  0  0  0  0  0  0  0
  162.0960  204.9610  151.7610 C   0  0  0  0  0  2  0  0  0  0  0  0
  161.9140  203.4600  151.5470 C   0  0  0  0  0  2  0  0  0  0  0  0
  161.2190  203.1520  150.2280 C   0  0  0  0  0  2  0  0  0  0  0  0
  160.7390  201.7100  150.1510 C   0  0  0  0  0  2  0  0  0  0  0  0
  161.2680  200.7680  147.9050 C   0  0  0  0  0  1  0  0  0  0  0  0
  160.1860  201.3940  148.7640 C   0  0  0  0  0  2  0  0  0  0  0  0
  159.8240  209.2350  153.3830 O   0  0  0  0  0  0  0  0  0  0  0  0
  160.5500  210.1460  154.1620 C   0  0  1  0  0  3  0  0  0  0  0  0
  160.6780  210.4930  156.5370 O   0  0  0  0  0  1  0  0  0  0  0  0
  158.6410  212.9490  155.2960 C   0  0  1  0  0  3  0  0  0  0  0  0
  159.5980  211.8530  154.8760 C   0  0  2  0  0  0  0  0  0  0  0  0
  160.3380  211.5680  153.6050 C   0  0  0  0  0  2  0  0  0  0  0  0
  159.7820  210.4820  155.4620 C   0  0  1  0  0  3  0  0  0  0  0  0
  160.1350  213.0460  155.6370 C   0  0  0  0  0  2  0  0  0  0  0  0
  159.1450  213.3840  152.9020 C   0  0  0  0  0  2  0  0  0  0  0  0
  156.4540  214.4530  152.5220 C   0  0  2  0  0  3  0  0  0  0  0  0
  157.1910  213.8030  151.3660 C   0  0  0  0  0  0  0  0  0  0  0  0
  158.2780  213.8230  154.1030 C   0  0  1  0  0  3  0  0  0  0  0  0
  158.4270  213.3260  151.5760 C   0  0  0  0  0  3  0  0  0  0  0  0
  156.7800  213.7210  153.8150 C   0  0  0  0  0  2  0  0  0  0  0  0
  155.0680  214.4530  152.3400 O   0  0  0  0  0  0  0  0  0  0  0  0
  154.5420  214.2300  153.6190 C   0  0  0  0  0  1  0  0  0  0  0  0
  156.6030  213.6990  150.0010 C   0  0  0  0  0  0  0  0  0  0  0  0
  155.3580  213.8060  149.8300 O   0  0  0  0  0  0  0  0  0  0  0  0
  157.1490  212.6100  147.9580 O   0  0  0  0  0  0  0  0  0  0  0  0
  157.4610  213.4650  148.8300 C   0  0  0  0  0  3  0  0  0  0  0  0
  2  1  1  0  0  0  0
  2 26  1  1  0  0  0
  3  2  1  0  0  0  0
  3  1  1  0  0  0  0
  3 18  1  1  0  0  0
  4  7  2  0  0  0  0
  4  6  1  0  0  0  0
  5  8  2  0  0  0  0
  6  9  2  0  0  0  0
  7  5  1  0  0  0  0
  8  3  1  0  0  0  0
  9  8  1  0  0  0  0
 10 12  1  0  0  0  0
 10 15  1  0  0  0  0
 12  4  1  1  0  0  0
 13 14  1  0  0  0  0
 13 16  1  0  0  0  0
 14 12  1  0  0  0  0
 15 11  1  6  0  0  0
 16 15  1  0  0  0  0
 18 19  1  0  0  0  0
 19 17  2  0  0  0  0
 20 19  1  0  0  0  0
 21 20  1  0  0  0  0
 22 21  1  0  0  0  0
 23 22  1  0  0  0  0
 24 25  1  0  0  0  0
 25 23  1  0  0  0  0
 27 26  1  6  0  0  0
 27 32  1  0  0  0  0
 29 33  1  1  0  0  0
 30 31  1  6  0  0  0
 30 29  1  0  0  0  0
 30 32  1  0  0  0  0
 30 33  1  0  0  0  0
 31 27  1  0  0  0  0
 32 28  1  1  0  0  0
 35 40  1  6  0  0  0
 35 39  1  0  0  0  0
 36 38  2  0  0  0  0
 36 35  1  0  0  0  0
 37 34  1  6  0  0  0
 37 29  1  0  0  0  0
 38 34  1  0  0  0  0
 39 37  1  0  0  0  0
 40 41  1  0  0  0  0
 42 36  1  0  0  0  0
 43 42  2  0  0  0  0
 44 45  2  0  0  0  0
 45 42  1  0  0  0  0
M  END
>  <MODEL>
5

>  <REMARK>
 VINA RESULT:      -5.2      3.364      5.226
  Name = 
  14 active torsions:
  status: ('A' for Active; 'I' for Inactive)
    1  A    between atoms: C_2  and  O_32
    2  A    between atoms: C_3  and  C_34
    3  A    between atoms: C_3  and  C_41
    4  A    between atoms: O_4  and  C_24
    5  A    between atoms: C_7  and  C_18
    6  A    between atoms: C_10  and  C_30
    7  A    between atoms: C_13  and  C_29
    8  A    between atoms: C_13  and  C_33
    9  A    between atoms: C_15  and  C_22
   10  A    between atoms: C_15  and  C_40
   11  A    between atoms: C_22  and  C_41
   12  A    between atoms: N_27  and  C_43
   13  A    between atoms: C_31  and  O_32
   14  A    between atoms: C_37  and  C_43
                            x       y       z     vdW  Elec       q    Type
                         _______ _______ _______ _____ _____    ______ ____

>  <TORSDO>
F 14

$$$$
=
 OpenBabel11042421403D

 45 50  0  0  1  0  0  0  0  0999 V2000
  160.6540  211.0620  148.7270 O   0  0  0  0  0  0  0  0  0  0  0  0
  161.7120  211.9960  148.8520 C   0  0  1  0  0  3  0  0  0  0  0  0
  161.7680  210.6490  149.4760 C   0  0  1  0  0  0  0  0  0  0  0  0
  161.2520  210.5630  153.7440 C   0  0  0  0  0  0  0  0  0  0  0  0
  160.4600  211.1840  151.5340 C   0  0  0  0  0  3  0  0  0  0  0  0
  162.3730  209.9610  153.1610 C   0  0  0  0  0  3  0  0  0  0  0  0
  160.2870  211.1620  152.9190 C   0  0  0  0  0  3  0  0  0  0  0  0
  161.5930  210.6010  150.9610 C   0  0  0  0  0  0  0  0  0  0  0  0
  162.5500  209.9880  151.7780 C   0  0  0  0  0  3  0  0  0  0  0  0
  159.8800  209.5620  155.6210 C   0  0  0  0  0  2  0  0  0  0  0  0
  159.3090  207.3430  156.3300 O   0  0  0  0  0  1  0  0  0  0  0  0
  161.0570  210.4670  155.2300 C   0  0  1  0  0  3  0  0  0  0  0  0
  162.2850  208.8840  156.8240 C   0  0  0  0  0  2  0  0  0  0  0  0
  162.3740  210.1300  155.9430 C   0  0  0  0  0  2  0  0  0  0  0  0
  160.2330  208.0650  155.5730 C   0  0  2  0  0  3  0  0  0  0  0  0
  161.6570  207.7390  156.0330 C   0  0  0  0  0  2  0  0  0  0  0  0
  162.9760  207.5790  147.8510 O   0  0  0  0  0  0  0  0  0  0  0  0
  162.6050  209.6620  148.7970 N   0  0  0  0  0  2  0  0  0  0  0  0
  162.2930  208.2750  148.6440 C   0  0  0  0  0  0  0  0  0  0  0  0
  161.2050  207.6280  149.4360 C   0  0  0  0  0  2  0  0  0  0  0  0
  161.7660  206.8690  150.6360 C   0  0  0  0  0  2  0  0  0  0  0  0
  160.9530  205.6220  150.9540 C   0  0  0  0  0  2  0  0  0  0  0  0
  160.5200  204.8780  149.6980 C   0  0  0  0  0  2  0  0  0  0  0  0
  161.1950  203.0280  151.2250 C   0  0  0  0  0  1  0  0  0  0  0  0
  160.8870  203.4000  149.7870 C   0  0  0  0  0  2  0  0  0  0  0  0
  162.4240  212.0600  147.6430 O   0  0  0  0  0  0  0  0  0  0  0  0
  162.0650  213.2770  147.0500 C   0  0  1  0  0  3  0  0  0  0  0  0
  159.9710  214.4500  146.9170 O   0  0  0  0  0  1  0  0  0  0  0  0
  160.4440  212.9420  143.8800 C   0  0  1  0  0  3  0  0  0  0  0  0
  161.1420  213.2640  145.1850 C   0  0  2  0  0  0  0  0  0  0  0  0
  162.5810  213.3040  145.5980 C   0  0  0  0  0  2  0  0  0  0  0  0
  160.5900  213.2410  146.5830 C   0  0  1  0  0  3  0  0  0  0  0  0
  160.7410  214.3980  144.2660 C   0  0  0  0  0  2  0  0  0  0  0  0
  160.8630  211.1280  142.2340 C   0  0  0  0  0  2  0  0  0  0  0  0
  162.6080  212.9040  140.7080 C   0  0  2  0  0  3  0  0  0  0  0  0
  161.8530  211.7870  140.0120 C   0  0  0  0  0  0  0  0  0  0  0  0
  161.4440  212.4140  142.8600 C   0  0  1  0  0  3  0  0  0  0  0  0
  161.0630  210.9880  140.7460 C   0  0  0  0  0  3  0  0  0  0  0  0
  161.7480  213.4910  141.8180 C   0  0  0  0  0  2  0  0  0  0  0  0
  162.9750  213.9280  139.8310 O   0  0  0  0  0  0  0  0  0  0  0  0
  164.2850  213.6140  139.4470 C   0  0  0  0  0  1  0  0  0  0  0  0
  161.9770  211.5280  138.5500 C   0  0  0  0  0  0  0  0  0  0  0  0
  162.8270  210.7040  138.1160 O   0  0  0  0  0  0  0  0  0  0  0  0
  159.9490  211.8180  137.3420 O   0  0  0  0  0  0  0  0  0  0  0  0
  161.1150  212.2290  137.5870 C   0  0  0  0  0  3  0  0  0  0  0  0
  1  2  1  0  0  0  0
  1  3  1  0  0  0  0
  2 26  1  6  0  0  0
  2  3  1  0  0  0  0
  3 18  1  6  0  0  0
  3  8  1  0  0  0  0
  5  7  1  0  0  0  0
  6  4  1  0  0  0  0
  7  4  2  0  0  0  0
  8  5  2  0  0  0  0
  8  9  1  0  0  0  0
  9  6  2  0  0  0  0
 12  4  1  6  0  0  0
 12 10  1  0  0  0  0
 12 14  1  0  0  0  0
 14 13  1  0  0  0  0
 15 10  1  0  0  0  0
 15 16  1  0  0  0  0
 15 11  1  1  0  0  0
 16 13  1  0  0  0  0
 17 19  2  0  0  0  0
 19 18  1  0  0  0  0
 19 20  1  0  0  0  0
 20 21  1  0  0  0  0
 21 22  1  0  0  0  0
 23 25  1  0  0  0  0
 23 22  1  0  0  0  0
 25 24  1  0  0  0  0
 27 26  1  6  0  0  0
 29 33  1  6  0  0  0
 29 30  1  0  0  0  0
 30 33  1  6  0  0  0
 30 31  1  0  0  0  0
 30 32  1  0  0  0  0
 31 27  1  0  0  0  0
 32 28  1  1  0  0  0
 32 27  1  0  0  0  0
 34 37  1  0  0  0  0
 35 40  1  6  0  0  0
 35 39  1  0  0  0  0
 36 35  1  0  0  0  0
 36 38  2  0  0  0  0
 37 39  1  6  0  0  0
 37 29  1  0  0  0  0
 38 34  1  0  0  0  0
 41 40  1  0  0  0  0
 42 36  1  0  0  0  0
 43 42  2  0  0  0  0
 44 45  2  0  0  0  0
 45 42  1  0  0  0  0
M  END
>  <MODEL>
6

>  <REMARK>
 VINA RESULT:      -4.7      2.676      6.198
  Name = 
  14 active torsions:
  status: ('A' for Active; 'I' for Inactive)
    1  A    between atoms: C_2  and  O_32
    2  A    between atoms: C_3  and  C_34
    3  A    between atoms: C_3  and  C_41
    4  A    between atoms: O_4  and  C_24
    5  A    between atoms: C_7  and  C_18
    6  A    between atoms: C_10  and  C_30
    7  A    between atoms: C_13  and  C_29
    8  A    between atoms: C_13  and  C_33
    9  A    between atoms: C_15  and  C_22
   10  A    between atoms: C_15  and  C_40
   11  A    between atoms: C_22  and  C_41
   12  A    between atoms: N_27  and  C_43
   13  A    between atoms: C_31  and  O_32
   14  A    between atoms: C_37  and  C_43
                            x       y       z     vdW  Elec       q    Type
                         _______ _______ _______ _____ _____    ______ ____

>  <TORSDO>
F 14

$$$$
=
 OpenBabel11042421403D

 45 50  0  0  1  0  0  0  0  0999 V2000
  161.7990  209.4890  152.0870 O   0  0  0  0  0  0  0  0  0  0  0  0
  160.4490  209.7540  151.7470 C   0  0  1  0  0  3  0  0  0  0  0  0
  161.0340  208.3910  151.6600 C   0  0  1  0  0  0  0  0  0  0  0  0
  161.8470  206.9710  147.6830 C   0  0  0  0  0  0  0  0  0  0  0  0
  162.4420  208.3390  149.5990 C   0  0  0  0  0  3  0  0  0  0  0  0
  160.7300  206.4970  148.3830 C   0  0  0  0  0  3  0  0  0  0  0  0
  162.7110  207.8840  148.3070 C   0  0  0  0  0  3  0  0  0  0  0  0
  161.3140  207.8800  150.2820 C   0  0  0  0  0  0  0  0  0  0  0  0
  160.4580  206.9550  149.6710 C   0  0  0  0  0  3  0  0  0  0  0  0
  162.7930  205.0220  146.3740 C   0  0  0  0  0  2  0  0  0  0  0  0
  162.3240  202.6750  146.2150 O   0  0  0  0  0  1  0  0  0  0  0  0
  162.1490  206.4150  146.3210 C   0  0  1  0  0  3  0  0  0  0  0  0
  160.5180  205.1650  144.7940 C   0  0  0  0  0  2  0  0  0  0  0  0
  160.9260  206.5080  145.3980 C   0  0  0  0  0  2  0  0  0  0  0  0
  161.7700  203.8970  146.6030 C   0  0  2  0  0  3  0  0  0  0  0  0
  160.4280  204.1130  145.8960 C   0  0  0  0  0  2  0  0  0  0  0  0
  160.9860  205.5410  153.9840 O   0  0  0  0  0  0  0  0  0  0  0  0
  160.6730  207.4680  152.7330 N   0  0  0  0  0  2  0  0  0  0  0  0
  161.2000  206.1490  152.9060 C   0  0  0  0  0  0  0  0  0  0  0  0
  161.9600  205.4650  151.8170 C   0  0  0  0  0  2  0  0  0  0  0  0
  161.6940  203.9610  151.8140 C   0  0  0  0  0  2  0  0  0  0  0  0
  161.3830  203.4400  150.4180 C   0  0  0  0  0  2  0  0  0  0  0  0
  160.3100  202.3610  150.4290 C   0  0  0  0  0  2  0  0  0  0  0  0
  161.2050  200.7850  148.7190 C   0  0  0  0  0  1  0  0  0  0  0  0
  160.1060  201.7810  149.0330 C   0  0  0  0  0  2  0  0  0  0  0  0
  159.7010  209.9440  152.9210 O   0  0  0  0  0  0  0  0  0  0  0  0
  160.1390  211.1600  153.4620 C   0  0  1  0  0  3  0  0  0  0  0  0
  159.3450  212.4870  155.3020 O   0  0  0  0  0  1  0  0  0  0  0  0
  158.2120  213.9950  152.4450 C   0  0  1  0  0  3  0  0  0  0  0  0
  159.1480  212.9150  152.9450 C   0  0  2  0  0  0  0  0  0  0  0  0
  160.3010  212.1880  152.3250 C   0  0  0  0  0  2  0  0  0  0  0  0
  158.9530  211.9420  154.0740 C   0  0  1  0  0  3  0  0  0  0  0  0
  159.4490  214.3610  153.2770 C   0  0  0  0  0  2  0  0  0  0  0  0
  159.9500  214.4520  150.7290 C   0  0  0  0  0  2  0  0  0  0  0  0
  158.2500  213.2590  148.6770 C   0  0  2  0  0  3  0  0  0  0  0  0
  159.7600  213.2280  148.5340 C   0  0  0  0  0  0  0  0  0  0  0  0
  158.4370  214.2470  150.9600 C   0  0  1  0  0  3  0  0  0  0  0  0
  160.5100  213.7900  149.4950 C   0  0  0  0  0  3  0  0  0  0  0  0
  157.8690  213.0880  150.1400 C   0  0  0  0  0  2  0  0  0  0  0  0
  157.6230  212.2600  147.9270 O   0  0  0  0  0  0  0  0  0  0  0  0
  157.0280  212.9400  146.8560 C   0  0  0  0  0  1  0  0  0  0  0  0
  160.4400  212.6210  147.3550 C   0  0  0  0  0  0  0  0  0  0  0  0
  160.9260  211.4600  147.4260 O   0  0  0  0  0  0  0  0  0  0  0  0
  161.5100  214.1730  145.9040 O   0  0  0  0  0  0  0  0  0  0  0  0
  160.5610  213.3650  146.0930 C   0  0  0  0  0  3  0  0  0  0  0  0
  2  1  1  0  0  0  0
  2 26  1  1  0  0  0
  3  2  1  0  0  0  0
  3  1  1  0  0  0  0
  3 18  1  1  0  0  0
  4  7  2  0  0  0  0
  4  6  1  0  0  0  0
  5  8  2  0  0  0  0
  6  9  2  0  0  0  0
  7  5  1  0  0  0  0
  8  3  1  0  0  0  0
  9  8  1  0  0  0  0
 10 15  1  0  0  0  0
 12 10  1  0  0  0  0
 12  4  1  1  0  0  0
 13 14  1  0  0  0  0
 13 16  1  0  0  0  0
 14 12  1  0  0  0  0
 15 11  1  6  0  0  0
 16 15  1  0  0  0  0
 18 19  1  0  0  0  0
 19 17  2  0  0  0  0
 20 19  1  0  0  0  0
 21 20  1  0  0  0  0
 22 23  1  0  0  0  0
 22 21  1  0  0  0  0
 24 25  1  0  0  0  0
 25 23  1  0  0  0  0
 27 26  1  6  0  0  0
 27 32  1  0  0  0  0
 29 30  1  0  0  0  0
 29 33  1  1  0  0  0
 30 31  1  6  0  0  0
 30 33  1  0  0  0  0
 30 32  1  0  0  0  0
 31 27  1  0  0  0  0
 32 28  1  1  0  0  0
 34 37  1  0  0  0  0
 35 40  1  6  0  0  0
 35 39  1  0  0  0  0
 36 35  1  0  0  0  0
 36 38  2  0  0  0  0
 37 39  1  6  0  0  0
 37 29  1  0  0  0  0
 38 34  1  0  0  0  0
 41 40  1  0  0  0  0
 42 43  2  0  0  0  0
 42 36  1  0  0  0  0
 44 45  2  0  0  0  0
 45 42  1  0  0  0  0
M  END
>  <MODEL>
7

>  <REMARK>
 VINA RESULT:      -4.4      2.018      3.381
  Name = 
  14 active torsions:
  status: ('A' for Active; 'I' for Inactive)
    1  A    between atoms: C_2  and  O_32
    2  A    between atoms: C_3  and  C_34
    3  A    between atoms: C_3  and  C_41
    4  A    between atoms: O_4  and  C_24
    5  A    between atoms: C_7  and  C_18
    6  A    between atoms: C_10  and  C_30
    7  A    between atoms: C_13  and  C_29
    8  A    between atoms: C_13  and  C_33
    9  A    between atoms: C_15  and  C_22
   10  A    between atoms: C_15  and  C_40
   11  A    between atoms: C_22  and  C_41
   12  A    between atoms: N_27  and  C_43
   13  A    between atoms: C_31  and  O_32
   14  A    between atoms: C_37  and  C_43
                            x       y       z     vdW  Elec       q    Type
                         _______ _______ _______ _____ _____    ______ ____

>  <TORSDO>
F 14

$$$$
=
 OpenBabel11042421403D

 45 50  0  0  1  0  0  0  0  0999 V2000
  162.6600  209.2400  151.5820 O   0  0  0  0  0  0  0  0  0  0  0  0
  161.6800  210.1020  151.0300 C   0  0  1  0  0  3  0  0  0  0  0  0
  161.5020  208.6280  151.0740 C   0  0  1  0  0  0  0  0  0  0  0  0
  161.8890  206.5120  147.3500 C   0  0  0  0  0  0  0  0  0  0  0  0
  160.5280  207.2890  149.2060 C   0  0  0  0  0  3  0  0  0  0  0  0
  163.0000  207.1530  147.9120 C   0  0  0  0  0  3  0  0  0  0  0  0
  160.6470  206.5980  147.9990 C   0  0  0  0  0  3  0  0  0  0  0  0
  161.6460  207.9060  149.7720 C   0  0  0  0  0  0  0  0  0  0  0  0
  162.8840  207.8380  149.1210 C   0  0  0  0  0  3  0  0  0  0  0  0
  162.6080  204.4150  146.1280 C   0  0  0  0  0  2  0  0  0  0  0  0
  162.0140  202.0940  146.2140 O   0  0  0  0  0  1  0  0  0  0  0  0
  162.0290  205.8340  146.0180 C   0  0  1  0  0  3  0  0  0  0  0  0
  160.1980  204.5580  144.7620 C   0  0  0  0  0  2  0  0  0  0  0  0
  160.7260  205.9210  145.2100 C   0  0  0  0  0  2  0  0  0  0  0  0
  161.5590  203.3710  146.5470 C   0  0  2  0  0  3  0  0  0  0  0  0
  160.1660  203.6040  145.9530 C   0  0  0  0  0  2  0  0  0  0  0  0
  160.1350  206.8760  154.0050 O   0  0  0  0  0  0  0  0  0  0  0  0
  160.5990  208.1220  152.1060 N   0  0  0  0  0  2  0  0  0  0  0  0
  160.8980  207.0680  153.0250 C   0  0  0  0  0  0  0  0  0  0  0  0
  162.0700  206.1650  152.8220 C   0  0  0  0  0  2  0  0  0  0  0  0
  161.6410  204.8160  152.2500 C   0  0  0  0  0  2  0  0  0  0  0  0
  161.9930  204.6830  150.7760 C   0  0  0  0  0  2  0  0  0  0  0  0
  160.9600  203.8750  150.0040 C   0  0  0  0  0  2  0  0  0  0  0  0
  160.9970  201.4150  149.6070 C   0  0  0  0  0  1  0  0  0  0  0  0
  160.7590  202.5010  150.6380 C   0  0  0  0  0  2  0  0  0  0  0  0
  160.9980  210.7590  152.0680 O   0  0  0  0  0  0  0  0  0  0  0  0
  159.9760  211.4920  151.4510 C   0  0  1  0  0  3  0  0  0  0  0  0
  159.9840  213.5700  150.2440 O   0  0  0  0  0  1  0  0  0  0  0  0
  158.7900  214.2610  153.3770 C   0  0  1  0  0  3  0  0  0  0  0  0
  159.1480  213.1170  152.4510 C   0  0  2  0  0  0  0  0  0  0  0  0
  158.8060  211.6590  152.4410 C   0  0  0  0  0  2  0  0  0  0  0  0
  160.2940  213.0050  151.4860 C   0  0  1  0  0  3  0  0  0  0  0  0
  157.9840  214.0170  152.0940 C   0  0  0  0  0  2  0  0  0  0  0  0
  156.5420  213.8730  154.3630 C   0  0  0  0  0  2  0  0  0  0  0  0
  157.6290  211.7250  156.0160 C   0  0  2  0  0  3  0  0  0  0  0  0
  156.1750  211.7000  155.5860 C   0  0  0  0  0  0  0  0  0  0  0  0
  158.0610  213.7390  154.6080 C   0  0  1  0  0  3  0  0  0  0  0  0
  155.7080  212.7060  154.8300 C   0  0  0  0  0  3  0  0  0  0  0  0
  158.4850  212.2980  154.8960 C   0  0  0  0  0  2  0  0  0  0  0  0
  158.1100  210.4550  156.3470 O   0  0  0  0  0  0  0  0  0  0  0  0
  159.1400  210.2150  155.4270 C   0  0  0  0  0  1  0  0  0  0  0  0
  155.2380  210.6150  155.9940 C   0  0  0  0  0  0  0  0  0  0  0  0
  155.0760  209.6020  155.2610 O   0  0  0  0  0  0  0  0  0  0  0  0
  153.2590  211.0000  157.2550 O   0  0  0  0  0  0  0  0  0  0  0  0
  154.4850  210.7070  157.2540 C   0  0  0  0  0  3  0  0  0  0  0  0
  2  3  1  0  0  0  0
  2  1  1  0  0  0  0
  2 26  1  1  0  0  0
  3  1  1  0  0  0  0
  3 18  1  1  0  0  0
  4  6  2  0  0  0  0
  4  7  1  0  0  0  0
  5  8  1  0  0  0  0
  6  9  1  0  0  0  0
  7  5  2  0  0  0  0
  8  3  1  0  0  0  0
  9  8  2  0  0  0  0
 10 15  1  0  0  0  0
 12 10  1  0  0  0  0
 12  4  1  1  0  0  0
 13 14  1  0  0  0  0
 13 16  1  0  0  0  0
 14 12  1  0  0  0  0
 15 11  1  6  0  0  0
 16 15  1  0  0  0  0
 18 19  1  0  0  0  0
 19 17  2  0  0  0  0
 20 19  1  0  0  0  0
 21 20  1  0  0  0  0
 22 21  1  0  0  0  0
 23 25  1  0  0  0  0
 23 22  1  0  0  0  0
 24 25  1  0  0  0  0
 27 32  1  0  0  0  0
 27 26  1  1  0  0  0
 27 31  1  0  0  0  0
 29 33  1  6  0  0  0
 29 37  1  0  0  0  0
 30 33  1  6  0  0  0
 30 29  1  0  0  0  0
 31 30  1  0  0  0  0
 32 28  1  6  0  0  0
 32 30  1  0  0  0  0
 34 38  1  0  0  0  0
 35 40  1  6  0  0  0
 36 42  1  0  0  0  0
 36 35  1  0  0  0  0
 37 34  1  6  0  0  0
 37 39  1  0  0  0  0
 38 36  2  0  0  0  0
 39 35  1  0  0  0  0
 41 40  1  0  0  0  0
 42 45  1  0  0  0  0
 43 42  2  0  0  0  0
 45 44  2  0  0  0  0
M  END
>  <MODEL>
8

>  <REMARK>
 VINA RESULT:      -4.0      3.700      6.818
  Name = 
  14 active torsions:
  status: ('A' for Active; 'I' for Inactive)
    1  A    between atoms: C_2  and  O_32
    2  A    between atoms: C_3  and  C_34
    3  A    between atoms: C_3  and  C_41
    4  A    between atoms: O_4  and  C_24
    5  A    between atoms: C_7  and  C_18
    6  A    between atoms: C_10  and  C_30
    7  A    between atoms: C_13  and  C_29
    8  A    between atoms: C_13  and  C_33
    9  A    between atoms: C_15  and  C_22
   10  A    between atoms: C_15  and  C_40
   11  A    between atoms: C_22  and  C_41
   12  A    between atoms: N_27  and  C_43
   13  A    between atoms: C_31  and  O_32
   14  A    between atoms: C_37  and  C_43
                            x       y       z     vdW  Elec       q    Type
                         _______ _______ _______ _____ _____    ______ ____

>  <TORSDO>
F 14

$$$$
=
 OpenBabel11042421403D

 45 50  0  0  1  0  0  0  0  0999 V2000
  159.8680  208.5580  153.0790 O   0  0  0  0  0  0  0  0  0  0  0  0
  160.9580  209.3950  152.7330 C   0  0  1  0  0  3  0  0  0  0  0  0
  160.4160  209.3320  154.1150 C   0  0  1  0  0  0  0  0  0  0  0  0
  158.0640  212.6920  155.4060 C   0  0  0  0  0  0  0  0  0  0  0  0
  158.7180  210.3640  155.6260 C   0  0  0  0  0  3  0  0  0  0  0  0
  158.9810  212.8390  154.3570 C   0  0  0  0  0  3  0  0  0  0  0  0
  157.9490  211.4490  156.0480 C   0  0  0  0  0  3  0  0  0  0  0  0
  159.6130  210.5110  154.5640 C   0  0  0  0  0  0  0  0  0  0  0  0
  159.7440  211.7530  153.9310 C   0  0  0  0  0  3  0  0  0  0  0  0
  156.3410  214.4520  154.8220 C   0  0  0  0  0  2  0  0  0  0  0  0
  154.0580  214.4380  154.0870 O   0  0  0  0  0  1  0  0  0  0  0  0
  157.2990  213.8920  155.8840 C   0  0  1  0  0  3  0  0  0  0  0  0
  155.1320  213.8680  157.2490 C   0  0  0  0  0  2  0  0  0  0  0  0
  156.6420  213.6260  157.2460 C   0  0  0  0  0  2  0  0  0  0  0  0
  155.0280  213.6580  154.7210 C   0  0  2  0  0  3  0  0  0  0  0  0
  154.4950  213.1480  156.0640 C   0  0  0  0  0  2  0  0  0  0  0  0
  162.5470  208.3730  156.9560 O   0  0  0  0  0  0  0  0  0  0  0  0
  161.2020  208.5610  155.0770 N   0  0  0  0  0  2  0  0  0  0  0  0
  162.1050  209.1120  156.0410 C   0  0  0  0  0  0  0  0  0  0  0  0
  162.5660  210.5300  155.9560 C   0  0  0  0  0  2  0  0  0  0  0  0
  163.5460  210.8630  157.0780 C   0  0  0  0  0  2  0  0  0  0  0  0
  164.3770  212.0990  156.7610 C   0  0  0  0  0  2  0  0  0  0  0  0
  165.8110  211.9750  157.2580 C   0  0  0  0  0  2  0  0  0  0  0  0
  168.1870  212.5090  156.7290 C   0  0  0  0  0  1  0  0  0  0  0  0
  166.8030  212.3010  156.1450 C   0  0  0  0  0  2  0  0  0  0  0  0
  162.1140  208.6120  152.5710 O   0  0  0  0  0  0  0  0  0  0  0  0
  162.7140  209.0560  151.3850 C   0  0  1  0  0  3  0  0  0  0  0  0
  161.9780  210.5770  149.6770 O   0  0  0  0  0  1  0  0  0  0  0  0
  161.5200  207.4190  148.4390 C   0  0  1  0  0  3  0  0  0  0  0  0
  162.1580  208.1830  149.5800 C   0  0  2  0  0  0  0  0  0  0  0  0
  163.2130  207.8360  150.5850 C   0  0  0  0  0  2  0  0  0  0  0  0
  161.6390  209.3830  150.3220 C   0  0  1  0  0  3  0  0  0  0  0  0
  162.6940  208.3720  148.1770 C   0  0  0  0  0  2  0  0  0  0  0  0
  161.2740  205.2580  149.6430 C   0  0  0  0  0  2  0  0  0  0  0  0
  161.9490  203.8100  147.1990 C   0  0  2  0  0  3  0  0  0  0  0  0
  161.0540  203.1730  148.2450 C   0  0  0  0  0  0  0  0  0  0  0  0
  161.9700  205.9640  148.4580 C   0  0  1  0  0  3  0  0  0  0  0  0
  160.7680  203.8670  149.3570 C   0  0  0  0  0  3  0  0  0  0  0  0
  161.6600  205.3010  147.1150 C   0  0  0  0  0  2  0  0  0  0  0  0
  161.7770  203.2450  145.9320 O   0  0  0  0  0  0  0  0  0  0  0  0
  161.1490  204.2460  145.1790 C   0  0  0  0  0  1  0  0  0  0  0  0
  160.5030  201.7970  148.0950 C   0  0  0  0  0  0  0  0  0  0  0  0
  159.8690  201.2560  149.0420 O   0  0  0  0  0  0  0  0  0  0  0  0
  161.1530  199.8710  146.8590 O   0  0  0  0  0  0  0  0  0  0  0  0
  160.6900  201.0440  146.8460 C   0  0  0  0  0  3  0  0  0  0  0  0
  1  3  1  0  0  0  0
  2 26  1  1  0  0  0
  2  1  1  0  0  0  0
  2  3  1  0  0  0  0
  3  8  1  0  0  0  0
  3 18  1  1  0  0  0
  4  7  1  0  0  0  0
  5  7  2  0  0  0  0
  6  4  2  0  0  0  0
  8  5  1  0  0  0  0
  9  6  1  0  0  0  0
  9  8  2  0  0  0  0
 10 12  1  0  0  0  0
 12  4  1  6  0  0  0
 12 14  1  0  0  0  0
 14 13  1  0  0  0  0
 15 11  1  1  0  0  0
 15 10  1  0  0  0  0
 15 16  1  0  0  0  0
 16 13  1  0  0  0  0
 18 19  1  0  0  0  0
 19 17  2  0  0  0  0
 20 19  1  0  0  0  0
 20 21  1  0  0  0  0
 22 21  1  0  0  0  0
 22 23  1  0  0  0  0
 25 24  1  0  0  0  0
 25 23  1  0  0  0  0
 27 26  1  1  0  0  0
 29 33  1  6  0  0  0
 29 37  1  0  0  0  0
 29 30  1  0  0  0  0
 30 33  1  6  0  0  0
 30 32  1  0  0  0  0
 30 31  1  0  0  0  0
 31 27  1  0  0  0  0
 32 28  1  6  0  0  0
 32 27  1  0  0  0  0
 35 40  1  6  0  0  0
 35 36  1  0  0  0  0
 36 38  2  0  0  0  0
 37 39  1  6  0  0  0
 37 34  1  0  0  0  0
 38 34  1  0  0  0  0
 39 35  1  0  0  0  0
 41 40  1  0  0  0  0
 42 36  1  0  0  0  0
 42 43  2  0  0  0  0
 45 44  2  0  0  0  0
 45 42  1  0  0  0  0
M  END
>  <MODEL>
9

>  <REMARK>
 VINA RESULT:      -3.6      4.431      9.827
  Name = 
  14 active torsions:
  status: ('A' for Active; 'I' for Inactive)
    1  A    between atoms: C_2  and  O_32
    2  A    between atoms: C_3  and  C_34
    3  A    between atoms: C_3  and  C_41
    4  A    between atoms: O_4  and  C_24
    5  A    between atoms: C_7  and  C_18
    6  A    between atoms: C_10  and  C_30
    7  A    between atoms: C_13  and  C_29
    8  A    between atoms: C_13  and  C_33
    9  A    between atoms: C_15  and  C_22
   10  A    between atoms: C_15  and  C_40
   11  A    between atoms: C_22  and  C_41
   12  A    between atoms: N_27  and  C_43
   13  A    between atoms: C_31  and  O_32
   14  A    between atoms: C_37  and  C_43
                            x       y       z     vdW  Elec       q    Type
                         _______ _______ _______ _____ _____    ______ ____

>  <TORSDO>
F 14

$$$$
