=
 OpenBabel11052411093D

 44 47  0  0  1  0  0  0  0  0999 V2000
  161.5280  207.9540  148.6190 C   0  0  0  0  0  0  0  0  0  0  0  0
  161.4750  207.2940  149.8480 C   0  0  0  0  0  3  0  0  0  0  0  0
  161.9400  209.3730  151.0090 C   0  0  0  0  0  0  0  0  0  0  0  0
  161.6850  207.9960  151.0340 C   0  0  0  0  0  3  0  0  0  0  0  0
  161.9640  210.0620  149.7770 C   0  0  0  0  0  0  0  0  0  0  0  0
  161.7770  209.3320  148.5900 C   0  0  0  0  0  3  0  0  0  0  0  0
  162.2090  211.5530  149.7460 C   0  0  2  0  0  3  0  0  0  0  0  0
  160.8710  212.8590  148.1630 C   0  0  0  0  0  0  0  0  0  0  0  0
  160.0410  213.3380  147.2880 N   0  0  0  0  0  0  0  0  0  0  0  0
  160.7380  212.5360  149.9580 S   0  0  0  0  0  0  0  0  0  0  0  0
  162.5380  212.0960  148.0910 S   0  0  0  0  0  0  0  0  0  0  0  0
  159.4960  213.0500  145.0250 O   0  0  0  0  0  0  0  0  0  0  0  0
  161.5550  214.0490  145.4810 N   0  0  0  0  0  2  0  0  0  0  0  0
  160.3210  213.4570  145.8900 C   0  0  0  0  0  0  0  0  0  0  0  0
  162.7050  212.9940  143.3420 S   0  0  0  0  0  0  0  0  0  0  0  0
  161.9070  214.1930  144.1070 C   0  0  0  0  0  3  0  0  0  0  0  0
  162.1770  210.0730  152.3090 C   0  0  0  0  0  2  0  0  0  0  0  0
  160.9850  209.9840  153.2060 C   0  0  0  0  0  0  0  0  0  0  0  0
  161.0680  209.4020  154.2770 O   0  0  0  0  0  0  0  0  0  0  0  0
  159.6930  210.6050  152.7840 C   0  0  0  0  0  2  0  0  0  0  0  0
  158.9740  211.1570  154.0060 C   0  0  0  0  0  2  0  0  0  0  0  0
  159.4980  212.5390  154.3610 C   0  0  2  0  0  3  0  0  0  0  0  0
  159.1410  212.5600  156.5480 C   0  0  0  0  0  1  0  0  0  0  0  0
  160.1570  212.4870  155.5910 O   0  0  0  0  0  0  0  0  0  0  0  0
  158.3830  213.4680  154.4510 N   0  0  0  0  0  2  0  0  0  0  0  0
  157.2310  214.4470  149.7870 C   0  0  0  0  0  1  0  0  0  0  0  0
  157.5060  213.7280  153.3520 C   0  0  0  0  0  0  0  0  0  0  0  0
  157.9640  213.9270  152.1350 C   0  0  0  0  0  3  0  0  0  0  0  0
  155.5970  214.1910  151.7250 C   0  0  0  0  0  2  0  0  0  0  0  0
  155.7220  213.8190  153.5130 S   0  0  0  0  0  0  0  0  0  0  0  0
  156.9450  214.1800  151.1840 N   0  0  0  0  0  0  0  0  0  0  0  0
  161.3150  207.2290  147.4480 O   0  0  0  0  0  0  0  0  0  0  0  0
  162.3350  206.4430  146.8400 C   0  0  0  0  0  2  0  0  0  0  0  0
  161.5930  204.2700  147.8110 C   0  0  0  0  0  3  0  0  0  0  0  0
  161.1450  202.9510  147.6780 C   0  0  0  0  0  0  0  0  0  0  0  0
  160.9780  202.3980  146.4040 C   0  0  0  0  0  3  0  0  0  0  0  0
  161.8720  205.0350  146.6760 C   0  0  0  0  0  0  0  0  0  0  0  0
  161.6960  204.4820  145.4010 C   0  0  0  0  0  3  0  0  0  0  0  0
  161.2540  203.1630  145.2660 C   0  0  0  0  0  3  0  0  0  0  0  0
  160.8240  202.1410  148.8890 C   0  0  0  0  0  2  0  0  0  0  0  0
  160.6350  203.0080  150.0450 N   0  0  0  0  0  2  0  0  0  0  0  0
  160.6510  202.8400  152.3720 O   0  0  0  0  0  1  0  0  0  0  0  0
  161.2150  202.3370  151.2000 C   0  0  0  0  0  3  0  0  0  0  0  0
  160.9670  200.9660  151.1150 O   0  0  0  0  0  1  0  0  0  0  0  0
  1  2  1  0  0  0  0
  2  4  2  0  0  0  0
  3  4  1  0  0  0  0
  3 17  1  0  0  0  0
  5  3  2  0  0  0  0
  6  1  2  0  0  0  0
  6  5  1  0  0  0  0
  7  5  1  6  0  0  0
  7 10  1  0  0  0  0
  8 10  1  0  0  0  0
  9  8  2  0  0  0  0
 11  8  1  0  0  0  0
 11  7  1  0  0  0  0
 12 14  2  0  0  0  0
 13 14  1  0  0  0  0
 14  9  1  0  0  0  0
 15 16  2  0  0  0  0
 16 13  1  0  0  0  0
 17 18  1  0  0  0  0
 18 19  2  0  0  0  0
 20 18  1  0  0  0  0
 20 21  1  0  0  0  0
 22 21  1  1  0  0  0
 22 25  1  0  0  0  0
 22 24  1  0  0  0  0
 24 23  1  0  0  0  0
 26 31  1  0  0  0  0
 27 30  1  0  0  0  0
 27 25  1  0  0  0  0
 28 27  2  0  0  0  0
 29 30  1  0  0  0  0
 31 29  1  0  0  0  0
 31 28  1  0  0  0  0
 32  1  1  0  0  0  0
 33 32  1  0  0  0  0
 35 34  1  0  0  0  0
 35 40  1  0  0  0  0
 36 35  2  0  0  0  0
 37 33  1  0  0  0  0
 37 34  2  0  0  0  0
 38 37  1  0  0  0  0
 39 38  2  0  0  0  0
 39 36  1  0  0  0  0
 40 41  1  0  0  0  0
 41 43  1  0  0  0  0
 43 42  1  0  0  0  0
 44 43  1  0  0  0  0
M  END
>  <MODEL>
1

>  <REMARK>
 VINA RESULT:      -6.3      0.000      0.000
  Name = 
  17 active torsions:
  status: ('A' for Active; 'I' for Inactive)
    1  A    between atoms: O_2  and  C_19
    2  A    between atoms: O_3  and  C_9
    3  A    between atoms: O_3  and  C_42
    4  A    between atoms: C_5  and  N_27
    5  A    between atoms: C_6  and  C_8
    6  A    between atoms: C_6  and  C_32
    7  A    between atoms: C_7  and  C_28
    8  A    between atoms: C_8  and  C_13
    9  A    between atoms: C_13  and  C_19
   10  A    between atoms: C_16  and  N_33
   11  A    between atoms: C_17  and  C_20
   12  A    between atoms: C_17  and  N_35
   13  A    between atoms: C_19  and  N_27
   14  A    between atoms: C_24  and  C_32
   15  A    between atoms: N_29  and  C_37
   16  A    between atoms: C_31  and  N_35
   17  A    between atoms: C_36  and  C_42
                            x       y       z     vdW  Elec       q    Type
                         _______ _______ _______ _____ _____    ______ ____

>  <TORSDO>
F 17

$$$$
=
 OpenBabel11052411093D

 44 47  0  0  1  0  0  0  0  0999 V2000
  161.1880  210.9860  151.1340 C   0  0  0  0  0  0  0  0  0  0  0  0
  160.3600  210.8890  152.2530 C   0  0  0  0  0  3  0  0  0  0  0  0
  159.2740  212.9750  151.6560 C   0  0  0  0  0  0  0  0  0  0  0  0
  159.4130  211.8790  152.5170 C   0  0  0  0  0  3  0  0  0  0  0  0
  160.0810  213.0710  150.5020 C   0  0  0  0  0  0  0  0  0  0  0  0
  161.0480  212.0770  150.2680 C   0  0  0  0  0  3  0  0  0  0  0  0
  159.9150  214.2370  149.5540 C   0  0  2  0  0  3  0  0  0  0  0  0
  160.0060  213.7340  147.1580 C   0  0  0  0  0  0  0  0  0  0  0  0
  160.0560  213.2310  145.9640 N   0  0  0  0  0  0  0  0  0  0  0  0
  158.6340  214.0070  148.3370 S   0  0  0  0  0  0  0  0  0  0  0  0
  161.2490  214.2870  148.3890 S   0  0  0  0  0  0  0  0  0  0  0  0
  162.3920  213.1200  145.7760 O   0  0  0  0  0  0  0  0  0  0  0  0
  161.1730  212.7670  143.8180 N   0  0  0  0  0  0  0  0  0  0  0  0
  161.2620  213.0440  145.2160 C   0  0  0  0  0  0  0  0  0  0  0  0
  162.1760  212.4200  141.3920 S   0  0  0  0  0  1  0  0  0  0  0  0
  162.3310  212.5790  143.0080 C   0  0  0  0  0  3  0  0  0  0  0  0
  158.2580  214.0180  151.9970 C   0  0  0  0  0  2  0  0  0  0  0  0
  158.1550  214.2220  153.4740 C   0  0  0  0  0  0  0  0  0  0  0  0
  159.1590  214.4530  154.1310 O   0  0  0  0  0  0  0  0  0  0  0  0
  156.8210  214.1380  154.1420 C   0  0  0  0  0  2  0  0  0  0  0  0
  156.9740  213.4610  155.4950 C   0  0  0  0  0  2  0  0  0  0  0  0
  156.9020  211.9490  155.3520 C   0  0  2  0  0  3  0  0  0  0  0  0
  155.5760  210.1890  155.1100 C   0  0  0  0  0  1  0  0  0  0  0  0
  155.5800  211.5260  155.5160 O   0  0  0  0  0  0  0  0  0  0  0  0
  157.7350  211.3280  156.3680 N   0  0  0  0  0  2  0  0  0  0  0  0
  161.2090  208.0730  155.1950 C   0  0  0  0  0  1  0  0  0  0  0  0
  159.0680  210.8820  156.1050 C   0  0  0  0  0  0  0  0  0  0  0  0
  159.3250  209.6380  155.7640 C   0  0  0  0  0  3  0  0  0  0  0  0
  161.5720  210.5270  155.7720 C   0  0  0  0  0  2  0  0  0  0  0  0
  160.5070  211.9480  156.2180 S   0  0  0  0  0  0  0  0  0  0  0  0
  160.7030  209.3840  155.5560 N   0  0  0  0  0  0  0  0  0  0  0  0
  162.1260  209.9820  150.8930 O   0  0  0  0  0  0  0  0  0  0  0  0
  162.2310  208.8240  151.7140 C   0  0  0  0  0  2  0  0  0  0  0  0
  161.9130  207.5870  149.5730 C   0  0  0  0  0  3  0  0  0  0  0  0
  161.5070  206.4580  148.8500 C   0  0  0  0  0  0  0  0  0  0  0  0
  160.9630  205.3600  149.5240 C   0  0  0  0  0  3  0  0  0  0  0  0
  161.7790  207.6170  150.9630 C   0  0  0  0  0  0  0  0  0  0  0  0
  161.2420  206.5130  151.6360 C   0  0  0  0  0  3  0  0  0  0  0  0
  160.8310  205.3870  150.9170 C   0  0  0  0  0  3  0  0  0  0  0  0
  161.6720  206.4150  147.3690 C   0  0  0  0  0  2  0  0  0  0  0  0
  161.0420  205.2200  146.8220 N   0  0  0  0  0  2  0  0  0  0  0  0
  160.8220  205.8330  144.5820 O   0  0  0  0  0  1  0  0  0  0  0  0
  161.5450  205.0350  145.4680 C   0  0  0  0  0  3  0  0  0  0  0  0
  162.8940  205.3920  145.4200 O   0  0  0  0  0  1  0  0  0  0  0  0
  1  2  1  0  0  0  0
  2  4  2  0  0  0  0
  3 17  1  0  0  0  0
  3  4  1  0  0  0  0
  5  3  2  0  0  0  0
  6  5  1  0  0  0  0
  6  1  2  0  0  0  0
  7  5  1  1  0  0  0
  8 10  1  0  0  0  0
  8 11  1  0  0  0  0
  9  8  2  0  0  0  0
 10  7  1  0  0  0  0
 11  7  1  0  0  0  0
 13 14  1  0  0  0  0
 14 12  2  0  0  0  0
 14  9  1  0  0  0  0
 15 16  1  0  0  0  0
 16 13  2  0  0  0  0
 17 18  1  0  0  0  0
 18 19  2  0  0  0  0
 18 20  1  0  0  0  0
 20 21  1  0  0  0  0
 22 21  1  1  0  0  0
 22 24  1  0  0  0  0
 22 25  1  0  0  0  0
 23 24  1  0  0  0  0
 26 31  1  0  0  0  0
 27 30  1  0  0  0  0
 27 25  1  0  0  0  0
 28 27  2  0  0  0  0
 29 30  1  0  0  0  0
 31 28  1  0  0  0  0
 31 29  1  0  0  0  0
 32  1  1  0  0  0  0
 32 33  1  0  0  0  0
 34 37  1  0  0  0  0
 35 36  1  0  0  0  0
 35 34  2  0  0  0  0
 36 39  2  0  0  0  0
 37 38  2  0  0  0  0
 37 33  1  0  0  0  0
 39 38  1  0  0  0  0
 40 35  1  0  0  0  0
 41 40  1  0  0  0  0
 42 43  1  0  0  0  0
 43 41  1  0  0  0  0
 44 43  1  0  0  0  0
M  END
>  <MODEL>
2

>  <REMARK>
 VINA RESULT:      -6.0      2.865      4.848
  Name = 
  17 active torsions:
  status: ('A' for Active; 'I' for Inactive)
    1  A    between atoms: O_2  and  C_19
    2  A    between atoms: O_3  and  C_9
    3  A    between atoms: O_3  and  C_42
    4  A    between atoms: C_5  and  N_27
    5  A    between atoms: C_6  and  C_8
    6  A    between atoms: C_6  and  C_32
    7  A    between atoms: C_7  and  C_28
    8  A    between atoms: C_8  and  C_13
    9  A    between atoms: C_13  and  C_19
   10  A    between atoms: C_16  and  N_33
   11  A    between atoms: C_17  and  C_20
   12  A    between atoms: C_17  and  N_35
   13  A    between atoms: C_19  and  N_27
   14  A    between atoms: C_24  and  C_32
   15  A    between atoms: N_29  and  C_37
   16  A    between atoms: C_31  and  N_35
   17  A    between atoms: C_36  and  C_42
                            x       y       z     vdW  Elec       q    Type
                         _______ _______ _______ _____ _____    ______ ____

>  <TORSDO>
F 17

$$$$
=
 OpenBabel11052411093D

 44 47  0  0  1  0  0  0  0  0999 V2000
  161.0750  210.3950  151.4870 C   0  0  0  0  0  0  0  0  0  0  0  0
  160.1620  210.1510  152.5140 C   0  0  0  0  0  3  0  0  0  0  0  0
  159.0690  212.2720  152.0750 C   0  0  0  0  0  0  0  0  0  0  0  0
  159.1690  211.0840  152.8110 C   0  0  0  0  0  3  0  0  0  0  0  0
  159.9640  212.5200  151.0120 C   0  0  0  0  0  0  0  0  0  0  0  0
  160.9750  211.5790  150.7450 C   0  0  0  0  0  3  0  0  0  0  0  0
  159.8420  213.7870  150.1960 C   0  0  2  0  0  3  0  0  0  0  0  0
  159.8910  213.5390  147.7590 C   0  0  0  0  0  0  0  0  0  0  0  0
  159.9090  213.1650  146.5170 N   0  0  0  0  0  0  0  0  0  0  0  0
  158.5430  213.7430  148.9780 S   0  0  0  0  0  0  0  0  0  0  0  0
  161.1670  213.9040  149.0260 S   0  0  0  0  0  0  0  0  0  0  0  0
  162.2350  212.9600  146.2900 O   0  0  0  0  0  0  0  0  0  0  0  0
  160.9880  212.9030  144.3180 N   0  0  0  0  0  0  0  0  0  0  0  0
  161.1000  213.0080  145.7390 C   0  0  0  0  0  0  0  0  0  0  0  0
  161.9490  212.2280  141.9450 S   0  0  0  0  0  1  0  0  0  0  0  0
  162.1300  212.7540  143.4780 C   0  0  0  0  0  3  0  0  0  0  0  0
  157.9990  213.2480  152.4490 C   0  0  0  0  0  2  0  0  0  0  0  0
  158.2490  213.8480  153.7950 C   0  0  0  0  0  0  0  0  0  0  0  0
  159.3120  214.4050  154.0280 O   0  0  0  0  0  0  0  0  0  0  0  0
  157.1970  213.7590  154.8530 C   0  0  0  0  0  2  0  0  0  0  0  0
  156.3500  212.5180  154.6200 C   0  0  0  0  0  2  0  0  0  0  0  0
  156.8510  211.3580  155.4650 C   0  0  2  0  0  3  0  0  0  0  0  0
  155.1940  209.9580  155.0060 C   0  0  0  0  0  1  0  0  0  0  0  0
  155.7640  210.6990  156.0460 O   0  0  0  0  0  0  0  0  0  0  0  0
  157.7200  211.8650  156.5130 N   0  0  0  0  0  2  0  0  0  0  0  0
  161.4660  208.7010  156.5420 C   0  0  0  0  0  1  0  0  0  0  0  0
  159.0870  211.4640  156.6430 C   0  0  0  0  0  0  0  0  0  0  0  0
  159.4580  210.2130  156.4780 C   0  0  0  0  0  3  0  0  0  0  0  0
  161.5980  211.2030  157.0030 C   0  0  0  0  0  2  0  0  0  0  0  0
  160.4160  212.6000  157.0450 S   0  0  0  0  0  0  0  0  0  0  0  0
  160.8480  210.0100  156.6560 N   0  0  0  0  0  0  0  0  0  0  0  0
  162.0570  209.4450  151.2100 O   0  0  0  0  0  0  0  0  0  0  0  0
  161.9070  208.0710  151.5500 C   0  0  0  0  0  2  0  0  0  0  0  0
  161.4740  205.8810  150.4410 C   0  0  0  0  0  3  0  0  0  0  0  0
  161.2250  205.1030  149.3040 C   0  0  0  0  0  0  0  0  0  0  0  0
  161.1640  205.7120  148.0460 C   0  0  0  0  0  3  0  0  0  0  0  0
  161.6580  207.2610  150.3230 C   0  0  0  0  0  0  0  0  0  0  0  0
  161.5880  207.8690  149.0630 C   0  0  0  0  0  3  0  0  0  0  0  0
  161.3460  207.0940  147.9250 C   0  0  0  0  0  3  0  0  0  0  0  0
  161.0040  203.6340  149.4310 C   0  0  0  0  0  2  0  0  0  0  0  0
  160.8590  203.0260  148.1140 N   0  0  0  0  0  2  0  0  0  0  0  0
  161.6080  200.8510  148.5030 O   0  0  0  0  0  1  0  0  0  0  0  0
  160.4720  201.6360  148.3100 C   0  0  0  0  0  3  0  0  0  0  0  0
  159.6430  201.5370  149.4290 O   0  0  0  0  0  1  0  0  0  0  0  0
  1  2  1  0  0  0  0
  2  4  2  0  0  0  0
  3 17  1  0  0  0  0
  3  4  1  0  0  0  0
  5  3  2  0  0  0  0
  6  5  1  0  0  0  0
  6  1  2  0  0  0  0
  7  5  1  6  0  0  0
  8 10  1  0  0  0  0
  8 11  1  0  0  0  0
  9  8  2  0  0  0  0
 10  7  1  0  0  0  0
 11  7  1  0  0  0  0
 13 14  1  0  0  0  0
 14 12  2  0  0  0  0
 14  9  1  0  0  0  0
 15 16  1  0  0  0  0
 16 13  2  0  0  0  0
 17 18  1  0  0  0  0
 18 19  2  0  0  0  0
 18 20  1  0  0  0  0
 21 20  1  0  0  0  0
 22 21  1  1  0  0  0
 22 24  1  0  0  0  0
 22 25  1  0  0  0  0
 23 24  1  0  0  0  0
 25 27  1  0  0  0  0
 26 31  1  0  0  0  0
 27 30  1  0  0  0  0
 28 27  2  0  0  0  0
 28 31  1  0  0  0  0
 29 30  1  0  0  0  0
 31 29  1  0  0  0  0
 32  1  1  0  0  0  0
 32 33  1  0  0  0  0
 35 40  1  0  0  0  0
 35 34  2  0  0  0  0
 36 35  1  0  0  0  0
 37 34  1  0  0  0  0
 37 33  1  0  0  0  0
 38 37  2  0  0  0  0
 39 36  2  0  0  0  0
 39 38  1  0  0  0  0
 41 43  1  0  0  0  0
 41 40  1  0  0  0  0
 43 42  1  0  0  0  0
 43 44  1  0  0  0  0
M  END
>  <MODEL>
3

>  <REMARK>
 VINA RESULT:      -6.0      2.372      4.291
  Name = 
  17 active torsions:
  status: ('A' for Active; 'I' for Inactive)
    1  A    between atoms: O_2  and  C_19
    2  A    between atoms: O_3  and  C_9
    3  A    between atoms: O_3  and  C_42
    4  A    between atoms: C_5  and  N_27
    5  A    between atoms: C_6  and  C_8
    6  A    between atoms: C_6  and  C_32
    7  A    between atoms: C_7  and  C_28
    8  A    between atoms: C_8  and  C_13
    9  A    between atoms: C_13  and  C_19
   10  A    between atoms: C_16  and  N_33
   11  A    between atoms: C_17  and  C_20
   12  A    between atoms: C_17  and  N_35
   13  A    between atoms: C_19  and  N_27
   14  A    between atoms: C_24  and  C_32
   15  A    between atoms: N_29  and  C_37
   16  A    between atoms: C_31  and  N_35
   17  A    between atoms: C_36  and  C_42
                            x       y       z     vdW  Elec       q    Type
                         _______ _______ _______ _____ _____    ______ ____

>  <TORSDO>
F 17

$$$$
=
 OpenBabel11052411093D

 44 47  0  0  1  0  0  0  0  0999 V2000
  161.9170  209.4790  149.4490 C   0  0  0  0  0  0  0  0  0  0  0  0
  161.5370  208.1730  149.1350 C   0  0  0  0  0  3  0  0  0  0  0  0
  161.3280  207.6450  151.4940 C   0  0  0  0  0  0  0  0  0  0  0  0
  161.2510  207.2590  150.1500 C   0  0  0  0  0  3  0  0  0  0  0  0
  161.6780  208.9710  151.8280 C   0  0  0  0  0  0  0  0  0  0  0  0
  161.9900  209.8690  150.7910 C   0  0  0  0  0  3  0  0  0  0  0  0
  161.7350  209.4000  153.2760 C   0  0  2  0  0  3  0  0  0  0  0  0
  159.6880  210.3560  154.2250 C   0  0  0  0  0  0  0  0  0  0  0  0
  158.5020  210.7950  154.5120 N   0  0  0  0  0  0  0  0  0  0  0  0
  160.4520  208.6960  154.2920 S   0  0  0  0  0  0  0  0  0  0  0  0
  161.1880  211.0770  153.4510 S   0  0  0  0  0  0  0  0  0  0  0  0
  158.8800  213.0350  153.9260 O   0  0  0  0  0  0  0  0  0  0  0  0
  156.7150  212.4880  154.6060 N   0  0  0  0  0  2  0  0  0  0  0  0
  158.0750  212.1490  154.3280 C   0  0  0  0  0  0  0  0  0  0  0  0
  154.9020  214.0950  153.5370 S   0  0  0  0  0  0  0  0  0  0  0  0
  156.2210  213.8170  154.4550 C   0  0  0  0  0  3  0  0  0  0  0  0
  161.0300  206.6210  152.5420 C   0  0  0  0  0  2  0  0  0  0  0  0
  161.5230  205.2670  152.1430 C   0  0  0  0  0  0  0  0  0  0  0  0
  162.7180  205.0790  151.9690 O   0  0  0  0  0  0  0  0  0  0  0  0
  160.5490  204.1500  151.9540 C   0  0  0  0  0  2  0  0  0  0  0  0
  161.1770  203.0730  151.0830 C   0  0  0  0  0  2  0  0  0  0  0  0
  160.5590  203.0750  149.6940 C   0  0  2  0  0  3  0  0  0  0  0  0
  160.9010  200.8890  149.8300 C   0  0  0  0  0  1  0  0  0  0  0  0
  159.9510  201.8410  149.4510 O   0  0  0  0  0  0  0  0  0  0  0  0
  161.5990  203.3010  148.7040 N   0  0  0  0  0  2  0  0  0  0  0  0
  160.5700  206.5600  145.1890 C   0  0  0  0  0  1  0  0  0  0  0  0
  161.3140  203.7350  147.3720 C   0  0  0  0  0  0  0  0  0  0  0  0
  161.1190  205.0030  147.0850 C   0  0  0  0  0  3  0  0  0  0  0  0
  160.8020  204.0400  144.8920 C   0  0  0  0  0  2  0  0  0  0  0  0
  161.1870  202.6160  145.9750 S   0  0  0  0  0  0  0  0  0  0  0  0
  160.8390  205.2350  145.7160 N   0  0  0  0  0  0  0  0  0  0  0  0
  162.1980  210.3720  148.4160 O   0  0  0  0  0  0  0  0  0  0  0  0
  162.3320  211.7720  148.6330 C   0  0  0  0  0  2  0  0  0  0  0  0
  160.7130  212.2930  146.8100 C   0  0  0  0  0  3  0  0  0  0  0  0
  159.5750  212.9470  146.3220 C   0  0  0  0  0  0  0  0  0  0  0  0
  158.8530  213.8030  147.1600 C   0  0  0  0  0  3  0  0  0  0  0  0
  161.1260  212.4900  148.1300 C   0  0  0  0  0  0  0  0  0  0  0  0
  160.3960  213.3410  148.9700 C   0  0  0  0  0  3  0  0  0  0  0  0
  159.2630  214.0000  148.4830 C   0  0  0  0  0  3  0  0  0  0  0  0
  159.1200  212.7180  144.9210 C   0  0  0  0  0  2  0  0  0  0  0  0
  160.0920  211.9090  144.1970 N   0  0  0  0  0  2  0  0  0  0  0  0
  161.7640  212.2850  142.6130 O   0  0  0  0  0  1  0  0  0  0  0  0
  160.4730  212.6450  142.9990 C   0  0  0  0  0  3  0  0  0  0  0  0
  159.5800  212.3500  141.9680 O   0  0  0  0  0  1  0  0  0  0  0  0
  1  6  1  0  0  0  0
  2  1  2  0  0  0  0
  2  4  1  0  0  0  0
  3  5  1  0  0  0  0
  3 17  1  0  0  0  0
  4  3  2  0  0  0  0
  6  5  2  0  0  0  0
  7  5  1  6  0  0  0
  7 11  1  0  0  0  0
  7 10  1  0  0  0  0
  8 10  1  0  0  0  0
  8  9  2  0  0  0  0
 11  8  1  0  0  0  0
 12 14  2  0  0  0  0
 14  9  1  0  0  0  0
 14 13  1  0  0  0  0
 15 16  2  0  0  0  0
 16 13  1  0  0  0  0
 18 17  1  0  0  0  0
 19 18  2  0  0  0  0
 20 18  1  0  0  0  0
 21 20  1  0  0  0  0
 22 21  1  1  0  0  0
 24 22  1  0  0  0  0
 24 23  1  0  0  0  0
 25 22  1  0  0  0  0
 26 31  1  0  0  0  0
 27 25  1  0  0  0  0
 28 27  2  0  0  0  0
 29 31  1  0  0  0  0
 29 30  1  0  0  0  0
 30 27  1  0  0  0  0
 31 28  1  0  0  0  0
 32 33  1  0  0  0  0
 32  1  1  0  0  0  0
 34 37  1  0  0  0  0
 35 34  2  0  0  0  0
 35 36  1  0  0  0  0
 36 39  2  0  0  0  0
 37 33  1  0  0  0  0
 37 38  2  0  0  0  0
 39 38  1  0  0  0  0
 40 35  1  0  0  0  0
 41 40  1  0  0  0  0
 42 43  1  0  0  0  0
 43 41  1  0  0  0  0
 44 43  1  0  0  0  0
M  END
>  <MODEL>
4

>  <REMARK>
 VINA RESULT:      -5.9      2.685      9.397
  Name = 
  17 active torsions:
  status: ('A' for Active; 'I' for Inactive)
    1  A    between atoms: O_2  and  C_19
    2  A    between atoms: O_3  and  C_9
    3  A    between atoms: O_3  and  C_42
    4  A    between atoms: C_5  and  N_27
    5  A    between atoms: C_6  and  C_8
    6  A    between atoms: C_6  and  C_32
    7  A    between atoms: C_7  and  C_28
    8  A    between atoms: C_8  and  C_13
    9  A    between atoms: C_13  and  C_19
   10  A    between atoms: C_16  and  N_33
   11  A    between atoms: C_17  and  C_20
   12  A    between atoms: C_17  and  N_35
   13  A    between atoms: C_19  and  N_27
   14  A    between atoms: C_24  and  C_32
   15  A    between atoms: N_29  and  C_37
   16  A    between atoms: C_31  and  N_35
   17  A    between atoms: C_36  and  C_42
                            x       y       z     vdW  Elec       q    Type
                         _______ _______ _______ _____ _____    ______ ____

>  <TORSDO>
F 17

$$$$
=
 OpenBabel11052411093D

 44 47  0  0  1  0  0  0  0  0999 V2000
  161.8610  207.5050  150.3660 C   0  0  0  0  0  0  0  0  0  0  0  0
  161.9730  207.8830  149.0270 C   0  0  0  0  0  3  0  0  0  0  0  0
  162.1880  210.2090  149.6810 C   0  0  0  0  0  0  0  0  0  0  0  0
  162.1300  209.2260  148.6850 C   0  0  0  0  0  3  0  0  0  0  0  0
  162.1100  209.8400  151.0410 C   0  0  0  0  0  0  0  0  0  0  0  0
  161.9250  208.4840  151.3640 C   0  0  0  0  0  3  0  0  0  0  0  0
  162.2020  210.8950  152.1210 C   0  0  2  0  0  3  0  0  0  0  0  0
  160.5700  210.7560  153.9420 C   0  0  0  0  0  0  0  0  0  0  0  0
  159.6410  210.4680  154.8010 N   0  0  0  0  0  0  0  0  0  0  0  0
  162.3140  210.2350  153.7720 S   0  0  0  0  0  0  0  0  0  0  0  0
  160.6330  211.6820  152.3590 S   0  0  0  0  0  0  0  0  0  0  0  0
  157.7660  211.2210  153.6100 O   0  0  0  0  0  0  0  0  0  0  0  0
  157.5440  211.0950  155.9300 N   0  0  0  0  0  2  0  0  0  0  0  0
  158.2930  210.9420  154.7230 C   0  0  0  0  0  0  0  0  0  0  0  0
  155.9050  213.1740  155.9720 S   0  0  0  0  0  0  0  0  0  0  0  0
  156.2000  211.5700  155.9300 C   0  0  0  0  0  3  0  0  0  0  0  0
  162.3370  211.6360  149.2580 C   0  0  0  0  0  2  0  0  0  0  0  0
  161.1210  212.1250  148.5390 C   0  0  0  0  0  0  0  0  0  0  0  0
  160.1200  212.4320  149.1690 O   0  0  0  0  0  0  0  0  0  0  0  0
  161.1350  212.2310  147.0480 C   0  0  0  0  0  2  0  0  0  0  0  0
  159.7060  212.2970  146.5320 C   0  0  0  0  0  2  0  0  0  0  0  0
  159.6550  212.9710  145.1710 C   0  0  2  0  0  3  0  0  0  0  0  0
  157.5930  213.0940  145.9740 C   0  0  0  0  0  1  0  0  0  0  0  0
  158.4570  213.6780  145.0440 O   0  0  0  0  0  0  0  0  0  0  0  0
  159.7280  211.9590  144.1300 N   0  0  0  0  0  2  0  0  0  0  0  0
  161.4390  210.9950  139.6370 C   0  0  0  0  0  1  0  0  0  0  0  0
  160.6550  212.0380  143.0430 C   0  0  0  0  0  0  0  0  0  0  0  0
  160.4350  211.4190  141.9030 C   0  0  0  0  0  3  0  0  0  0  0  0
  162.5780  212.4220  141.4130 C   0  0  0  0  0  2  0  0  0  0  0  0
  162.1900  212.9620  143.1180 S   0  0  0  0  0  0  0  0  0  0  0  0
  161.4690  211.6060  140.9530 N   0  0  0  0  0  0  0  0  0  0  0  0
  161.7050  206.1550  150.6810 O   0  0  0  0  0  0  0  0  0  0  0  0
  160.4700  205.4690  150.5090 C   0  0  0  0  0  2  0  0  0  0  0  0
  160.9880  204.2050  148.4230 C   0  0  0  0  0  3  0  0  0  0  0  0
  161.2130  203.0090  147.7310 C   0  0  0  0  0  0  0  0  0  0  0  0
  161.1350  201.7880  148.4100 C   0  0  0  0  0  3  0  0  0  0  0  0
  160.6910  204.1820  149.7880 C   0  0  0  0  0  0  0  0  0  0  0  0
  160.6220  202.9590  150.4670 C   0  0  0  0  0  3  0  0  0  0  0  0
  160.8400  201.7630  149.7770 C   0  0  0  0  0  3  0  0  0  0  0  0
  161.5540  203.0330  146.2800 C   0  0  0  0  0  2  0  0  0  0  0  0
  162.0430  204.3510  145.8950 N   0  0  0  0  0  2  0  0  0  0  0  0
  161.6570  205.7330  144.0550 O   0  0  0  0  0  1  0  0  0  0  0  0
  161.0360  204.9620  145.0380 C   0  0  0  0  0  3  0  0  0  0  0  0
  160.2720  203.9640  144.4340 O   0  0  0  0  0  1  0  0  0  0  0  0
  1 32  1  0  0  0  0
  1  6  1  0  0  0  0
  2  1  2  0  0  0  0
  3  5  1  0  0  0  0
  4  2  1  0  0  0  0
  4  3  2  0  0  0  0
  5  6  2  0  0  0  0
  7  5  1  6  0  0  0
  7 11  1  0  0  0  0
  7 10  1  0  0  0  0
  8  9  2  0  0  0  0
 10  8  1  0  0  0  0
 11  8  1  0  0  0  0
 12 14  2  0  0  0  0
 13 16  1  0  0  0  0
 14  9  1  0  0  0  0
 14 13  1  0  0  0  0
 16 15  2  0  0  0  0
 17  3  1  0  0  0  0
 18 19  2  0  0  0  0
 18 17  1  0  0  0  0
 20 18  1  0  0  0  0
 21 20  1  0  0  0  0
 22 21  1  1  0  0  0
 24 22  1  0  0  0  0
 24 23  1  0  0  0  0
 25 22  1  0  0  0  0
 26 31  1  0  0  0  0
 27 30  1  0  0  0  0
 27 25  1  0  0  0  0
 28 27  2  0  0  0  0
 29 30  1  0  0  0  0
 31 29  1  0  0  0  0
 31 28  1  0  0  0  0
 33 32  1  0  0  0  0
 34 37  1  0  0  0  0
 35 36  1  0  0  0  0
 35 34  2  0  0  0  0
 36 39  2  0  0  0  0
 37 38  2  0  0  0  0
 37 33  1  0  0  0  0
 39 38  1  0  0  0  0
 40 35  1  0  0  0  0
 41 40  1  0  0  0  0
 42 43  1  0  0  0  0
 43 41  1  0  0  0  0
 44 43  1  0  0  0  0
M  END
>  <MODEL>
5

>  <REMARK>
 VINA RESULT:      -5.9      2.657      7.649
  Name = 
  17 active torsions:
  status: ('A' for Active; 'I' for Inactive)
    1  A    between atoms: O_2  and  C_19
    2  A    between atoms: O_3  and  C_9
    3  A    between atoms: O_3  and  C_42
    4  A    between atoms: C_5  and  N_27
    5  A    between atoms: C_6  and  C_8
    6  A    between atoms: C_6  and  C_32
    7  A    between atoms: C_7  and  C_28
    8  A    between atoms: C_8  and  C_13
    9  A    between atoms: C_13  and  C_19
   10  A    between atoms: C_16  and  N_33
   11  A    between atoms: C_17  and  C_20
   12  A    between atoms: C_17  and  N_35
   13  A    between atoms: C_19  and  N_27
   14  A    between atoms: C_24  and  C_32
   15  A    between atoms: N_29  and  C_37
   16  A    between atoms: C_31  and  N_35
   17  A    between atoms: C_36  and  C_42
                            x       y       z     vdW  Elec       q    Type
                         _______ _______ _______ _____ _____    ______ ____

>  <TORSDO>
F 17

$$$$
=
 OpenBabel11052411093D

 44 47  0  0  1  0  0  0  0  0999 V2000
  162.1930  208.7190  149.0780 C   0  0  0  0  0  0  0  0  0  0  0  0
  161.7880  208.4440  150.3850 C   0  0  0  0  0  3  0  0  0  0  0  0
  161.4330  210.8090  150.7930 C   0  0  0  0  0  0  0  0  0  0  0  0
  161.4150  209.4820  151.2390 C   0  0  0  0  0  3  0  0  0  0  0  0
  161.8090  211.1010  149.4640 C   0  0  0  0  0  0  0  0  0  0  0  0
  162.2060  210.0440  148.6260 C   0  0  0  0  0  3  0  0  0  0  0  0
  161.8010  212.5290  148.9680 C   0  0  2  0  0  3  0  0  0  0  0  0
  160.9530  212.9050  146.7000 C   0  0  0  0  0  0  0  0  0  0  0  0
  160.4420  212.8650  145.5090 N   0  0  0  0  0  0  0  0  0  0  0  0
  160.2170  213.0790  148.3650 S   0  0  0  0  0  0  0  0  0  0  0  0
  162.6280  212.6500  147.4050 S   0  0  0  0  0  0  0  0  0  0  0  0
  162.3890  213.0690  144.2160 O   0  0  0  0  0  0  0  0  0  0  0  0
  160.5870  211.9710  143.2180 N   0  0  0  0  0  2  0  0  0  0  0  0
  161.1990  212.6570  144.3120 C   0  0  0  0  0  0  0  0  0  0  0  0
  161.1470  212.8070  140.7690 S   0  0  0  0  0  0  0  0  0  0  0  0
  161.2760  211.7360  141.9920 C   0  0  0  0  0  3  0  0  0  0  0  0
  161.0440  211.8860  151.7560 C   0  0  0  0  0  2  0  0  0  0  0  0
  160.4130  211.3190  152.9870 C   0  0  0  0  0  0  0  0  0  0  0  0
  161.1060  210.7700  153.8320 O   0  0  0  0  0  0  0  0  0  0  0  0
  158.9340  211.4210  153.1760 C   0  0  0  0  0  2  0  0  0  0  0  0
  158.6410  212.1510  154.4780 C   0  0  0  0  0  2  0  0  0  0  0  0
  157.8560  211.2610  155.4290 C   0  0  2  0  0  3  0  0  0  0  0  0
  156.1670  211.2640  156.8650 C   0  0  0  0  0  1  0  0  0  0  0  0
  156.5940  211.8170  155.6540 O   0  0  0  0  0  0  0  0  0  0  0  0
  158.5690  211.1600  156.6920 N   0  0  0  0  0  2  0  0  0  0  0  0
  163.4390  211.0660  157.2530 C   0  0  0  0  0  1  0  0  0  0  0  0
  159.8570  210.5480  156.8030 C   0  0  0  0  0  0  0  0  0  0  0  0
  160.9450  211.2610  156.9950 C   0  0  0  0  0  3  0  0  0  0  0  0
  161.9190  209.0510  156.9010 C   0  0  0  0  0  2  0  0  0  0  0  0
  160.1220  208.7780  156.6870 S   0  0  0  0  0  0  0  0  0  0  0  0
  162.1240  210.4790  157.0680 N   0  0  0  0  0  0  0  0  0  0  0  0
  162.5600  207.6630  148.2450 O   0  0  0  0  0  0  0  0  0  0  0  0
  161.7290  207.2050  147.1830 C   0  0  0  0  0  2  0  0  0  0  0  0
  161.2200  205.0540  148.3380 C   0  0  0  0  0  3  0  0  0  0  0  0
  161.1350  203.6570  148.3590 C   0  0  0  0  0  0  0  0  0  0  0  0
  161.4950  202.9220  147.2240 C   0  0  0  0  0  3  0  0  0  0  0  0
  161.6600  205.7150  147.1880 C   0  0  0  0  0  0  0  0  0  0  0  0
  162.0120  204.9770  146.0510 C   0  0  0  0  0  3  0  0  0  0  0  0
  161.9330  203.5810  146.0710 C   0  0  0  0  0  3  0  0  0  0  0  0
  160.6420  202.9520  149.5770 C   0  0  0  0  0  2  0  0  0  0  0  0
  160.3880  203.9070  150.6480 N   0  0  0  0  0  2  0  0  0  0  0  0
  161.7260  204.8720  152.2990 O   0  0  0  0  0  1  0  0  0  0  0  0
  161.3690  203.6660  151.6970 C   0  0  0  0  0  3  0  0  0  0  0  0
  160.8250  202.8100  152.6550 O   0  0  0  0  0  1  0  0  0  0  0  0
  1  2  1  0  0  0  0
  2  4  2  0  0  0  0
  3  4  1  0  0  0  0
  3 17  1  0  0  0  0
  5  3  2  0  0  0  0
  6  1  2  0  0  0  0
  6  5  1  0  0  0  0
  7  5  1  6  0  0  0
  8 11  1  0  0  0  0
  8 10  1  0  0  0  0
  9  8  2  0  0  0  0
 10  7  1  0  0  0  0
 11  7  1  0  0  0  0
 12 14  2  0  0  0  0
 13 14  1  0  0  0  0
 14  9  1  0  0  0  0
 15 16  2  0  0  0  0
 16 13  1  0  0  0  0
 17 18  1  0  0  0  0
 18 20  1  0  0  0  0
 18 19  2  0  0  0  0
 20 21  1  0  0  0  0
 22 21  1  6  0  0  0
 22 24  1  0  0  0  0
 22 25  1  0  0  0  0
 24 23  1  0  0  0  0
 25 27  1  0  0  0  0
 27 28  2  0  0  0  0
 28 31  1  0  0  0  0
 29 31  1  0  0  0  0
 30 27  1  0  0  0  0
 30 29  1  0  0  0  0
 31 26  1  0  0  0  0
 32  1  1  0  0  0  0
 33 37  1  0  0  0  0
 33 32  1  0  0  0  0
 34 35  1  0  0  0  0
 35 40  1  0  0  0  0
 36 35  2  0  0  0  0
 37 34  2  0  0  0  0
 38 39  2  0  0  0  0
 38 37  1  0  0  0  0
 39 36  1  0  0  0  0
 40 41  1  0  0  0  0
 41 43  1  0  0  0  0
 43 42  1  0  0  0  0
 43 44  1  0  0  0  0
M  END
>  <MODEL>
6

>  <REMARK>
 VINA RESULT:      -5.7      2.395      3.492
  Name = 
  17 active torsions:
  status: ('A' for Active; 'I' for Inactive)
    1  A    between atoms: O_2  and  C_19
    2  A    between atoms: O_3  and  C_9
    3  A    between atoms: O_3  and  C_42
    4  A    between atoms: C_5  and  N_27
    5  A    between atoms: C_6  and  C_8
    6  A    between atoms: C_6  and  C_32
    7  A    between atoms: C_7  and  C_28
    8  A    between atoms: C_8  and  C_13
    9  A    between atoms: C_13  and  C_19
   10  A    between atoms: C_16  and  N_33
   11  A    between atoms: C_17  and  C_20
   12  A    between atoms: C_17  and  N_35
   13  A    between atoms: C_19  and  N_27
   14  A    between atoms: C_24  and  C_32
   15  A    between atoms: N_29  and  C_37
   16  A    between atoms: C_31  and  N_35
   17  A    between atoms: C_36  and  C_42
                            x       y       z     vdW  Elec       q    Type
                         _______ _______ _______ _____ _____    ______ ____

>  <TORSDO>
F 17

$$$$
=
 OpenBabel11052411093D

 44 47  0  0  1  0  0  0  0  0999 V2000
  161.5210  208.1380  150.7080 C   0  0  0  0  0  0  0  0  0  0  0  0
  160.7610  208.3460  151.8600 C   0  0  0  0  0  3  0  0  0  0  0  0
  160.8830  210.7460  151.5310 C   0  0  0  0  0  0  0  0  0  0  0  0
  160.4490  209.6410  152.2730 C   0  0  0  0  0  3  0  0  0  0  0  0
  161.6230  210.5520  150.3450 C   0  0  0  0  0  0  0  0  0  0  0  0
  161.9510  209.2400  149.9600 C   0  0  0  0  0  3  0  0  0  0  0  0
  162.0690  211.7410  149.5240 C   0  0  2  0  0  3  0  0  0  0  0  0
  160.4050  212.7340  148.0260 C   0  0  0  0  0  0  0  0  0  0  0  0
  159.3660  213.1040  147.3420 N   0  0  0  0  0  0  0  0  0  0  0  0
  161.0200  213.1720  149.6910 S   0  0  0  0  0  0  0  0  0  0  0  0
  161.7230  211.4770  147.8070 S   0  0  0  0  0  0  0  0  0  0  0  0
  157.8440  212.2050  145.8000 O   0  0  0  0  0  0  0  0  0  0  0  0
  160.0320  212.5090  145.0470 N   0  0  0  0  0  2  0  0  0  0  0  0
  159.0210  212.5870  146.0530 C   0  0  0  0  0  0  0  0  0  0  0  0
  160.5250  212.6320  142.4480 S   0  0  0  0  0  0  0  0  0  0  0  0
  159.7640  211.9970  143.7440 C   0  0  0  0  0  3  0  0  0  0  0  0
  160.5370  212.1140  152.0300 C   0  0  0  0  0  2  0  0  0  0  0  0
  159.9270  212.0620  153.3930 C   0  0  0  0  0  0  0  0  0  0  0  0
  160.6330  212.1800  154.3840 O   0  0  0  0  0  0  0  0  0  0  0  0
  158.4530  211.8630  153.5380 C   0  0  0  0  0  2  0  0  0  0  0  0
  158.0100  212.3420  154.9110 C   0  0  0  0  0  2  0  0  0  0  0  0
  157.5420  211.1740  155.7650 C   0  0  2  0  0  3  0  0  0  0  0  0
  156.0260  212.7830  155.9180 C   0  0  0  0  0  1  0  0  0  0  0  0
  156.3120  211.4860  156.3500 O   0  0  0  0  0  0  0  0  0  0  0  0
  158.5210  210.9200  156.8090 N   0  0  0  0  0  2  0  0  0  0  0  0
  161.0270  207.0560  155.1270 C   0  0  0  0  0  1  0  0  0  0  0  0
  159.6800  210.1090  156.5980 C   0  0  0  0  0  0  0  0  0  0  0  0
  159.6230  208.9880  155.9120 C   0  0  0  0  0  3  0  0  0  0  0  0
  161.9650  208.9800  156.5090 C   0  0  0  0  0  2  0  0  0  0  0  0
  161.3030  210.5210  157.2420 S   0  0  0  0  0  0  0  0  0  0  0  0
  160.8690  208.3210  155.8210 N   0  0  0  0  0  0  0  0  0  0  0  0
  161.8190  206.8330  150.3170 O   0  0  0  0  0  0  0  0  0  0  0  0
  161.4410  205.6990  151.0910 C   0  0  0  0  0  2  0  0  0  0  0  0
  161.4750  204.6380  148.8350 C   0  0  0  0  0  3  0  0  0  0  0  0
  161.3060  203.5350  147.9900 C   0  0  0  0  0  0  0  0  0  0  0  0
  160.8970  202.3070  148.5220 C   0  0  0  0  0  3  0  0  0  0  0  0
  161.2400  204.5150  150.2070 C   0  0  0  0  0  0  0  0  0  0  0  0
  160.8400  203.2830  150.7390 C   0  0  0  0  0  3  0  0  0  0  0  0
  160.6640  202.1810  149.8960 C   0  0  0  0  0  3  0  0  0  0  0  0
  161.5800  203.6580  146.5290 C   0  0  0  0  0  2  0  0  0  0  0  0
  160.5010  204.3830  145.8700 N   0  0  0  0  0  2  0  0  0  0  0  0
  161.5700  205.2920  144.0050 O   0  0  0  0  0  1  0  0  0  0  0  0
  161.0750  205.5830  145.2770 C   0  0  0  0  0  3  0  0  0  0  0  0
  160.0930  206.5700  145.1790 O   0  0  0  0  0  1  0  0  0  0  0  0
  1  2  1  0  0  0  0
  2  4  2  0  0  0  0
  3 17  1  0  0  0  0
  3  4  1  0  0  0  0
  5  3  2  0  0  0  0
  6  5  1  0  0  0  0
  6  1  2  0  0  0  0
  7 10  1  0  0  0  0
  7  5  1  1  0  0  0
  8 10  1  0  0  0  0
  9  8  2  0  0  0  0
 11  8  1  0  0  0  0
 11  7  1  0  0  0  0
 12 14  2  0  0  0  0
 13 14  1  0  0  0  0
 14  9  1  0  0  0  0
 15 16  2  0  0  0  0
 16 13  1  0  0  0  0
 17 18  1  0  0  0  0
 18 20  1  0  0  0  0
 18 19  2  0  0  0  0
 20 21  1  0  0  0  0
 22 21  1  1  0  0  0
 22 24  1  0  0  0  0
 22 25  1  0  0  0  0
 23 24  1  0  0  0  0
 26 31  1  0  0  0  0
 27 25  1  0  0  0  0
 27 30  1  0  0  0  0
 28 27  2  0  0  0  0
 29 30  1  0  0  0  0
 31 28  1  0  0  0  0
 31 29  1  0  0  0  0
 32  1  1  0  0  0  0
 32 33  1  0  0  0  0
 34 37  1  0  0  0  0
 35 36  1  0  0  0  0
 35 34  2  0  0  0  0
 36 39  2  0  0  0  0
 37 38  2  0  0  0  0
 37 33  1  0  0  0  0
 39 38  1  0  0  0  0
 40 35  1  0  0  0  0
 41 40  1  0  0  0  0
 42 43  1  0  0  0  0
 43 41  1  0  0  0  0
 44 43  1  0  0  0  0
M  END
>  <MODEL>
7

>  <REMARK>
 VINA RESULT:      -5.4      2.550      4.338
  Name = 
  17 active torsions:
  status: ('A' for Active; 'I' for Inactive)
    1  A    between atoms: O_2  and  C_19
    2  A    between atoms: O_3  and  C_9
    3  A    between atoms: O_3  and  C_42
    4  A    between atoms: C_5  and  N_27
    5  A    between atoms: C_6  and  C_8
    6  A    between atoms: C_6  and  C_32
    7  A    between atoms: C_7  and  C_28
    8  A    between atoms: C_8  and  C_13
    9  A    between atoms: C_13  and  C_19
   10  A    between atoms: C_16  and  N_33
   11  A    between atoms: C_17  and  C_20
   12  A    between atoms: C_17  and  N_35
   13  A    between atoms: C_19  and  N_27
   14  A    between atoms: C_24  and  C_32
   15  A    between atoms: N_29  and  C_37
   16  A    between atoms: C_31  and  N_35
   17  A    between atoms: C_36  and  C_42
                            x       y       z     vdW  Elec       q    Type
                         _______ _______ _______ _____ _____    ______ ____

>  <TORSDO>
F 17

$$$$
=
 OpenBabel11052411093D

 44 47  0  0  1  0  0  0  0  0999 V2000
  160.6520  206.7450  154.3620 C   0  0  0  0  0  0  0  0  0  0  0  0
  160.8320  205.6060  153.5760 C   0  0  0  0  0  3  0  0  0  0  0  0
  161.8170  206.9520  151.8140 C   0  0  0  0  0  0  0  0  0  0  0  0
  161.4050  205.7080  152.3080 C   0  0  0  0  0  3  0  0  0  0  0  0
  161.6720  208.1090  152.6090 C   0  0  0  0  0  0  0  0  0  0  0  0
  161.0680  207.9900  153.8740 C   0  0  0  0  0  3  0  0  0  0  0  0
  162.1420  209.4500  152.0930 C   0  0  2  0  0  3  0  0  0  0  0  0
  160.7860  211.4010  152.6900 C   0  0  0  0  0  0  0  0  0  0  0  0
  159.9440  212.2740  153.1500 N   0  0  0  0  0  0  0  0  0  0  0  0
  162.3330  210.6900  153.3590 S   0  0  0  0  0  0  0  0  0  0  0  0
  160.8330  210.2820  151.2370 S   0  0  0  0  0  0  0  0  0  0  0  0
  157.6270  212.1480  152.8090 O   0  0  0  0  0  0  0  0  0  0  0  0
  158.8000  213.6380  151.4480 N   0  0  0  0  0  2  0  0  0  0  0  0
  158.7360  212.6590  152.4870 C   0  0  0  0  0  0  0  0  0  0  0  0
  157.2180  213.3190  149.3480 S   0  0  0  0  0  0  0  0  0  0  0  0
  157.6390  214.0630  150.7370 C   0  0  0  0  0  3  0  0  0  0  0  0
  162.4060  207.0090  150.4400 C   0  0  0  0  0  2  0  0  0  0  0  0
  161.3460  206.9830  149.3870 C   0  0  0  0  0  0  0  0  0  0  0  0
  160.1740  206.8320  149.7020 O   0  0  0  0  0  0  0  0  0  0  0  0
  161.7250  207.1390  147.9500 C   0  0  0  0  0  2  0  0  0  0  0  0
  162.7910  206.1140  147.5940 C   0  0  0  0  0  2  0  0  0  0  0  0
  162.2700  205.1350  146.5550 C   0  0  2  0  0  3  0  0  0  0  0  0
  161.2750  204.9180  144.5860 C   0  0  0  0  0  1  0  0  0  0  0  0
  162.0270  205.8100  145.3560 O   0  0  0  0  0  0  0  0  0  0  0  0
  161.0320  204.5400  147.0310 N   0  0  0  0  0  2  0  0  0  0  0  0
  161.2040  202.1330  151.2990 C   0  0  0  0  0  1  0  0  0  0  0  0
  161.0070  203.3900  147.8810 C   0  0  0  0  0  0  0  0  0  0  0  0
  161.1150  203.4950  149.1880 C   0  0  0  0  0  3  0  0  0  0  0  0
  160.9500  201.0920  148.9880 C   0  0  0  0  0  2  0  0  0  0  0  0
  160.8380  201.7120  147.2690 S   0  0  0  0  0  0  0  0  0  0  0  0
  161.0790  202.2470  149.8580 N   0  0  0  0  0  0  0  0  0  0  0  0
  160.0770  206.6150  155.6260 O   0  0  0  0  0  0  0  0  0  0  0  0
  160.7760  206.9490  156.8200 C   0  0  0  0  0  2  0  0  0  0  0  0
  159.8330  209.2560  156.8830 C   0  0  0  0  0  3  0  0  0  0  0  0
  159.9790  210.6450  156.9850 C   0  0  0  0  0  0  0  0  0  0  0  0
  161.2560  211.2010  157.1180 C   0  0  0  0  0  3  0  0  0  0  0  0
  160.9570  208.4260  156.9160 C   0  0  0  0  0  0  0  0  0  0  0  0
  162.2330  208.9860  157.0570 C   0  0  0  0  0  3  0  0  0  0  0  0
  162.3820  210.3730  157.1540 C   0  0  0  0  0  3  0  0  0  0  0  0
  158.7790  211.5300  156.9750 C   0  0  0  0  0  2  0  0  0  0  0  0
  157.9190  211.2050  155.8440 N   0  0  0  0  0  2  0  0  0  0  0  0
  156.3370  212.7570  156.5750 O   0  0  0  0  0  1  0  0  0  0  0  0
  156.5400  211.4120  156.2640 C   0  0  0  0  0  3  0  0  0  0  0  0
  155.6770  211.0370  155.2340 O   0  0  0  0  0  1  0  0  0  0  0  0
  1 32  1  0  0  0  0
  2  1  2  0  0  0  0
  3  4  2  0  0  0  0
  3  5  1  0  0  0  0
  4  2  1  0  0  0  0
  5  6  2  0  0  0  0
  6  1  1  0  0  0  0
  7  5  1  1  0  0  0
  7 10  1  0  0  0  0
  8  9  2  0  0  0  0
  8 10  1  0  0  0  0
 11  7  1  0  0  0  0
 11  8  1  0  0  0  0
 13 14  1  0  0  0  0
 14 12  2  0  0  0  0
 14  9  1  0  0  0  0
 15 16  2  0  0  0  0
 16 13  1  0  0  0  0
 17  3  1  0  0  0  0
 18 19  2  0  0  0  0
 18 17  1  0  0  0  0
 20 18  1  0  0  0  0
 21 20  1  0  0  0  0
 22 25  1  0  0  0  0
 22 21  1  1  0  0  0
 23 24  1  0  0  0  0
 24 22  1  0  0  0  0
 25 27  1  0  0  0  0
 27 28  2  0  0  0  0
 28 31  1  0  0  0  0
 29 31  1  0  0  0  0
 30 27  1  0  0  0  0
 30 29  1  0  0  0  0
 31 26  1  0  0  0  0
 32 33  1  0  0  0  0
 33 37  1  0  0  0  0
 34 37  2  0  0  0  0
 34 35  1  0  0  0  0
 35 36  2  0  0  0  0
 36 39  1  0  0  0  0
 37 38  1  0  0  0  0
 38 39  2  0  0  0  0
 40 35  1  0  0  0  0
 41 43  1  0  0  0  0
 41 40  1  0  0  0  0
 43 42  1  0  0  0  0
 44 43  1  0  0  0  0
M  END
>  <MODEL>
8

>  <REMARK>
 VINA RESULT:      -5.3      3.395      9.648
  Name = 
  17 active torsions:
  status: ('A' for Active; 'I' for Inactive)
    1  A    between atoms: O_2  and  C_19
    2  A    between atoms: O_3  and  C_9
    3  A    between atoms: O_3  and  C_42
    4  A    between atoms: C_5  and  N_27
    5  A    between atoms: C_6  and  C_8
    6  A    between atoms: C_6  and  C_32
    7  A    between atoms: C_7  and  C_28
    8  A    between atoms: C_8  and  C_13
    9  A    between atoms: C_13  and  C_19
   10  A    between atoms: C_16  and  N_33
   11  A    between atoms: C_17  and  C_20
   12  A    between atoms: C_17  and  N_35
   13  A    between atoms: C_19  and  N_27
   14  A    between atoms: C_24  and  C_32
   15  A    between atoms: N_29  and  C_37
   16  A    between atoms: C_31  and  N_35
   17  A    between atoms: C_36  and  C_42
                            x       y       z     vdW  Elec       q    Type
                         _______ _______ _______ _____ _____    ______ ____

>  <TORSDO>
F 17

$$$$
=
 OpenBabel11052411093D

 44 47  0  0  1  0  0  0  0  0999 V2000
  160.8500  208.7660  152.3660 C   0  0  0  0  0  0  0  0  0  0  0  0
  161.0290  207.5090  151.7860 C   0  0  0  0  0  3  0  0  0  0  0  0
  161.9730  208.5350  149.8010 C   0  0  0  0  0  0  0  0  0  0  0  0
  161.5810  207.3930  150.5110 C   0  0  0  0  0  3  0  0  0  0  0  0
  161.8290  209.8120  150.3860 C   0  0  0  0  0  0  0  0  0  0  0  0
  161.2460  209.9090  151.6620 C   0  0  0  0  0  3  0  0  0  0  0  0
  162.2780  211.0460  149.6360 C   0  0  2  0  0  3  0  0  0  0  0  0
  160.5220  212.4300  148.6360 C   0  0  0  0  0  0  0  0  0  0  0  0
  159.4370  213.0120  148.2270 N   0  0  0  0  0  0  0  0  0  0  0  0
  161.4940  212.5500  150.1800 S   0  0  0  0  0  0  0  0  0  0  0  0
  161.5840  211.0720  148.0070 S   0  0  0  0  0  0  0  0  0  0  0  0
  157.5740  212.3770  146.9500 O   0  0  0  0  0  0  0  0  0  0  0  0
  159.5320  212.8510  145.7710 N   0  0  0  0  0  2  0  0  0  0  0  0
  158.7870  212.7290  146.9840 C   0  0  0  0  0  0  0  0  0  0  0  0
  159.2210  213.5890  143.2470 S   0  0  0  0  0  0  0  0  0  0  0  0
  158.9540  212.5760  144.4980 C   0  0  0  0  0  3  0  0  0  0  0  0
  162.5410  208.3560  148.4290 C   0  0  0  0  0  2  0  0  0  0  0  0
  161.9460  207.1700  147.7400 C   0  0  0  0  0  0  0  0  0  0  0  0
  160.7900  207.2090  147.3430 O   0  0  0  0  0  0  0  0  0  0  0  0
  162.7680  205.9380  147.5430 C   0  0  0  0  0  2  0  0  0  0  0  0
  162.3920  205.2830  146.2240 C   0  0  0  0  0  2  0  0  0  0  0  0
  161.9330  203.8510  146.4440 C   0  0  2  0  0  3  0  0  0  0  0  0
  160.8470  204.3280  144.5720 C   0  0  0  0  0  1  0  0  0  0  0  0
  161.5260  203.2970  145.2270 O   0  0  0  0  0  0  0  0  0  0  0  0
  160.8150  203.8410  147.3730 N   0  0  0  0  0  2  0  0  0  0  0  0
  160.9150  203.1930  152.2330 C   0  0  0  0  0  1  0  0  0  0  0  0
  160.8290  203.0860  148.5880 C   0  0  0  0  0  0  0  0  0  0  0  0
  160.8480  203.6720  149.7650 C   0  0  0  0  0  3  0  0  0  0  0  0
  160.8880  201.3590  150.4640 C   0  0  0  0  0  2  0  0  0  0  0  0
  160.8330  201.2920  148.6360 S   0  0  0  0  0  0  0  0  0  0  0  0
  160.8700  202.7590  150.8480 N   0  0  0  0  0  0  0  0  0  0  0  0
  160.2960  208.8540  153.6420 O   0  0  0  0  0  0  0  0  0  0  0  0
  161.0800  209.1340  154.7970 C   0  0  0  0  0  2  0  0  0  0  0  0
  159.0980  210.4330  155.5700 C   0  0  0  0  0  3  0  0  0  0  0  0
  158.5180  211.4830  156.2930 C   0  0  0  0  0  0  0  0  0  0  0  0
  159.3330  212.3690  157.0060 C   0  0  0  0  0  3  0  0  0  0  0  0
  160.4850  210.2680  155.5610 C   0  0  0  0  0  0  0  0  0  0  0  0
  161.2980  211.1510  156.2830 C   0  0  0  0  0  3  0  0  0  0  0  0
  160.7220  212.2040  157.0010 C   0  0  0  0  0  3  0  0  0  0  0  0
  157.0360  211.6460  156.3230 C   0  0  0  0  0  2  0  0  0  0  0  0
  156.4700  211.3890  155.0050 N   0  0  0  0  0  2  0  0  0  0  0  0
  155.7370  213.5430  155.5250 O   0  0  0  0  0  1  0  0  0  0  0  0
  155.9910  212.6590  154.4760 C   0  0  0  0  0  3  0  0  0  0  0  0
  156.9580  213.2060  153.6310 O   0  0  0  0  0  1  0  0  0  0  0  0
  1 32  1  0  0  0  0
  2  1  1  0  0  0  0
  3  5  2  0  0  0  0
  3  4  1  0  0  0  0
  4  2  2  0  0  0  0
  5  6  1  0  0  0  0
  6  1  2  0  0  0  0
  7 10  1  0  0  0  0
  7  5  1  1  0  0  0
  8 10  1  0  0  0  0
  9  8  2  0  0  0  0
 11  8  1  0  0  0  0
 11  7  1  0  0  0  0
 12 14  2  0  0  0  0
 13 14  1  0  0  0  0
 14  9  1  0  0  0  0
 15 16  2  0  0  0  0
 16 13  1  0  0  0  0
 17  3  1  0  0  0  0
 18 17  1  0  0  0  0
 19 18  2  0  0  0  0
 20 18  1  0  0  0  0
 21 20  1  0  0  0  0
 22 21  1  6  0  0  0
 22 25  1  0  0  0  0
 23 24  1  0  0  0  0
 24 22  1  0  0  0  0
 25 27  1  0  0  0  0
 27 30  1  0  0  0  0
 27 28  2  0  0  0  0
 28 31  1  0  0  0  0
 29 31  1  0  0  0  0
 30 29  1  0  0  0  0
 31 26  1  0  0  0  0
 32 33  1  0  0  0  0
 33 37  1  0  0  0  0
 34 35  1  0  0  0  0
 35 40  1  0  0  0  0
 35 36  2  0  0  0  0
 37 34  2  0  0  0  0
 37 38  1  0  0  0  0
 38 39  2  0  0  0  0
 39 36  1  0  0  0  0
 41 40  1  0  0  0  0
 43 41  1  0  0  0  0
 43 42  1  0  0  0  0
 44 43  1  0  0  0  0
M  END
>  <MODEL>
9

>  <REMARK>
 VINA RESULT:      -4.9      2.552      9.329
  Name = 
  17 active torsions:
  status: ('A' for Active; 'I' for Inactive)
    1  A    between atoms: O_2  and  C_19
    2  A    between atoms: O_3  and  C_9
    3  A    between atoms: O_3  and  C_42
    4  A    between atoms: C_5  and  N_27
    5  A    between atoms: C_6  and  C_8
    6  A    between atoms: C_6  and  C_32
    7  A    between atoms: C_7  and  C_28
    8  A    between atoms: C_8  and  C_13
    9  A    between atoms: C_13  and  C_19
   10  A    between atoms: C_16  and  N_33
   11  A    between atoms: C_17  and  C_20
   12  A    between atoms: C_17  and  N_35
   13  A    between atoms: C_19  and  N_27
   14  A    between atoms: C_24  and  C_32
   15  A    between atoms: N_29  and  C_37
   16  A    between atoms: C_31  and  N_35
   17  A    between atoms: C_36  and  C_42
                            x       y       z     vdW  Elec       q    Type
                         _______ _______ _______ _____ _____    ______ ____

>  <TORSDO>
F 17

$$$$
