=
 OpenBabel11042420413D

 45 51  0  0  1  0  0  0  0  0999 V2000
  161.1670  209.3270  152.3100 C   0  0  1  0  0  3  0  0  0  0  0  0
  162.3270  210.7570  150.5710 C   0  0  0  0  0  1  0  0  0  0  0  0
  162.2130  209.3660  151.1760 C   0  0  2  0  0  3  0  0  0  0  0  0
  160.7520  202.3470  151.3880 N   0  0  0  0  0  0  0  0  0  0  0  0
  161.4870  205.0590  144.8970 C   0  0  0  0  0  0  0  0  0  0  0  0
  161.0810  203.3100  148.1040 N   0  0  0  0  0  0  0  0  0  0  0  0
  161.5660  203.5220  145.5550 S   0  0  0  0  0  0  0  0  0  0  0  0
  161.6710  203.2650  151.9860 C   0  0  0  0  0  3  0  0  0  0  0  0
  161.2570  205.5140  147.1020 C   0  0  0  0  0  0  0  0  0  0  0  0
  161.5890  205.9890  149.5370 C   0  0  0  0  0  0  0  0  0  0  0  0
  161.3220  206.0150  145.8300 N   0  0  0  0  0  2  0  0  0  0  0  0
  161.9540  207.0040  150.4450 C   0  0  0  0  0  3  0  0  0  0  0  0
  160.5480  203.7470  149.3740 C   0  0  2  0  0  3  0  0  0  0  0  0
  161.3300  204.1050  147.1150 C   0  0  0  0  0  0  0  0  0  0  0  0
  161.5790  208.7250  148.8150 C   0  0  0  0  0  3  0  0  0  0  0  0
  162.0060  204.3970  151.3760 C   0  0  0  0  0  3  0  0  0  0  0  0
  161.3130  206.3660  148.1730 C   0  0  0  0  0  0  0  0  0  0  0  0
  161.2900  207.7460  147.8690 C   0  0  0  0  0  3  0  0  0  0  0  0
  161.4560  204.7400  150.0410 C   0  0  0  0  0  0  0  0  0  0  0  0
  160.2240  202.5430  150.2190 C   0  0  0  0  0  3  0  0  0  0  0  0
  161.9490  208.3510  150.1030 C   0  0  0  0  0  0  0  0  0  0  0  0
  161.5820  205.3100  143.6680 O   0  0  0  0  0  0  0  0  0  0  0  0
  159.9360  210.0460  151.9660 N   0  0  0  0  0  2  0  0  0  0  0  0
  158.9880  213.3900  153.1160 O   0  0  0  0  0  0  0  0  0  0  0  0
  158.5720  212.8460  154.3570 C   0  0  2  0  0  3  0  0  0  0  0  0
  159.4760  212.4610  152.2130 C   0  0  0  0  0  0  0  0  0  0  0  0
  159.3550  211.1980  152.6050 C   0  0  0  0  0  0  0  0  0  0  0  0
  158.5050  211.0250  154.1670 S   0  0  0  0  0  0  0  0  0  0  0  0
  156.2620  213.0350  154.0650 O   0  0  0  0  0  0  0  0  0  0  0  0
  157.2680  213.3730  154.7220 N   0  0  0  0  0  0  0  0  0  0  0  0
  157.1120  214.1110  155.8720 O   0  0  0  0  0  0  0  0  0  0  0  0
  160.0730  212.8630  150.9810 N   0  0  0  0  0  2  0  0  0  0  0  0
  160.0350  213.5540  148.6650 C   0  0  0  0  0  1  0  0  0  0  0  0
  159.3910  213.7210  150.0240 C   0  0  0  0  0  3  0  0  0  0  0  0
  157.9240  213.3330  149.9330 C   0  0  0  0  0  1  0  0  0  0  0  0
  160.8470  207.9590  152.7060 N   0  0  0  0  0  2  0  0  0  0  0  0
  160.7090  207.8430  155.0310 C   0  0  0  0  0  0  0  0  0  0  0  0
  162.0130  209.9680  155.3610 C   0  0  0  0  0  3  0  0  0  0  0  0
  161.7430  208.8140  154.7020 C   0  0  0  0  0  0  0  0  0  0  0  0
  161.5670  207.6480  153.9320 C   0  0  2  0  0  3  0  0  0  0  0  0
  161.1080  210.1180  156.4740 C   0  0  0  0  0  0  0  0  0  0  0  0
  160.0640  209.1460  156.8090 C   0  0  0  0  0  3  0  0  0  0  0  0
  161.2390  211.2120  157.2600 F   0  0  0  0  0  0  0  0  0  0  0  0
  159.8350  207.9420  156.0620 C   0  0  0  0  0  0  0  0  0  0  0  0
  158.8680  207.0340  156.3400 F   0  0  0  0  0  0  0  0  0  0  0  0
  1 23  1  6  0  0  0
  1 36  1  0  0  0  0
  3  2  1  6  0  0  0
  3  1  1  0  0  0  0
  4  8  1  0  0  0  0
  5  7  1  0  0  0  0
  5 11  1  0  0  0  0
  6 13  1  0  0  0  0
  7 14  1  0  0  0  0
  9 14  1  0  0  0  0
  9 17  2  0  0  0  0
 10 19  2  0  0  0  0
 10 12  1  0  0  0  0
 11  9  1  0  0  0  0
 13 19  1  0  0  0  0
 13 20  1  1  0  0  0
 14  6  2  0  0  0  0
 15 21  1  0  0  0  0
 16  8  2  0  0  0  0
 17 10  1  0  0  0  0
 18 17  1  0  0  0  0
 18 15  2  0  0  0  0
 19 16  1  0  0  0  0
 20  4  2  0  0  0  0
 21 12  2  0  0  0  0
 21  3  1  0  0  0  0
 22  5  2  0  0  0  0
 23 27  1  0  0  0  0
 24 25  1  0  0  0  0
 25 30  1  6  0  0  0
 26 27  2  0  0  0  0
 26 24  1  0  0  0  0
 27 28  1  0  0  0  0
 28 25  1  0  0  0  0
 29 30  2  0  0  0  0
 30 31  2  0  0  0  0
 32 26  1  0  0  0  0
 33 34  1  0  0  0  0
 34 32  1  0  0  0  0
 35 34  1  0  0  0  0
 37 44  1  0  0  0  0
 38 41  2  0  0  0  0
 39 37  2  0  0  0  0
 39 38  1  0  0  0  0
 40 36  1  6  0  0  0
 40 39  1  0  0  0  0
 40 37  1  0  0  0  0
 41 42  1  0  0  0  0
 41 43  1  0  0  0  0
 44 45  1  0  0  0  0
 44 42  2  0  0  0  0
M  END
>  <MODEL>
1

>  <REMARK>
 VINA RESULT:      -8.1      0.000      0.000
  Name = 
  9 active torsions:
  status: ('A' for Active; 'I' for Inactive)
    1  A    between atoms: C_10  and  N_41
    2  A    between atoms: C_12  and  C_18
    3  A    between atoms: C_12  and  C_40
    4  A    between atoms: C_13  and  N_44
    5  A    between atoms: C_14  and  N_33
    6  A    between atoms: C_18  and  N_25
    7  A    between atoms: C_18  and  N_41
    8  A    between atoms: C_19  and  N_44
    9  A    between atoms: N_25  and  C_26
                            x       y       z     vdW  Elec       q    Type
                         _______ _______ _______ _____ _____    ______ ____

>  <TORSDO>
F 9

$$$$
=
 OpenBabel11042420413D

 45 51  0  0  1  0  0  0  0  0999 V2000
  162.0210  209.5890  151.8180 C   0  0  1  0  0  3  0  0  0  0  0  0
  161.9290  207.4040  153.0960 C   0  0  0  0  0  1  0  0  0  0  0  0
  161.3110  208.2270  151.9760 C   0  0  2  0  0  3  0  0  0  0  0  0
  160.6730  201.2090  150.6430 N   0  0  0  0  0  0  0  0  0  0  0  0
  161.7390  205.2550  144.9420 C   0  0  0  0  0  0  0  0  0  0  0  0
  161.2190  202.8540  147.6740 N   0  0  0  0  0  0  0  0  0  0  0  0
  161.9310  203.6310  145.2940 S   0  0  0  0  0  0  0  0  0  0  0  0
  161.4120  202.0670  151.5170 C   0  0  0  0  0  3  0  0  0  0  0  0
  161.2340  205.2230  147.1480 C   0  0  0  0  0  0  0  0  0  0  0  0
  161.2590  205.2160  149.6500 C   0  0  0  0  0  0  0  0  0  0  0  0
  161.3690  205.9790  146.0150 N   0  0  0  0  0  2  0  0  0  0  0  0
  161.4080  206.0520  150.7750 C   0  0  0  0  0  3  0  0  0  0  0  0
  160.5120  202.9670  148.9290 C   0  0  2  0  0  3  0  0  0  0  0  0
  161.4710  203.8550  146.8960 C   0  0  0  0  0  0  0  0  0  0  0  0
  161.0000  208.0290  149.4760 C   0  0  0  0  0  3  0  0  0  0  0  0
  161.6720  203.3270  151.1830 C   0  0  0  0  0  3  0  0  0  0  0  0
  161.0800  205.8380  148.3620 C   0  0  0  0  0  0  0  0  0  0  0  0
  160.9260  207.2420  148.3300 C   0  0  0  0  0  3  0  0  0  0  0  0
  161.2240  203.8830  149.8820 C   0  0  0  0  0  0  0  0  0  0  0  0
  160.2470  201.5900  149.4780 C   0  0  0  0  0  3  0  0  0  0  0  0
  161.2790  207.4340  150.7030 C   0  0  0  0  0  0  0  0  0  0  0  0
  161.9280  205.7630  143.8060 O   0  0  0  0  0  0  0  0  0  0  0  0
  161.0960  210.6660  151.4540 N   0  0  0  0  0  2  0  0  0  0  0  0
  160.6380  213.3560  149.0120 O   0  0  0  0  0  0  0  0  0  0  0  0
  161.3010  212.5780  148.0300 C   0  0  2  0  0  3  0  0  0  0  0  0
  160.5320  212.7510  150.2530 C   0  0  0  0  0  0  0  0  0  0  0  0
  161.1820  211.5970  150.3590 C   0  0  0  0  0  0  0  0  0  0  0  0
  162.1030  211.1720  148.8880 S   0  0  0  0  0  0  0  0  0  0  0  0
  162.9510  214.2300  147.9730 O   0  0  0  0  0  0  0  0  0  0  0  0
  162.2890  213.3860  147.3360 N   0  0  0  0  0  0  0  0  0  0  0  0
  162.6060  213.1230  146.0230 O   0  0  0  0  0  0  0  0  0  0  0  0
  159.7630  213.3350  151.3030 N   0  0  0  0  0  2  0  0  0  0  0  0
  158.3860  211.9700  152.7480 C   0  0  0  0  0  1  0  0  0  0  0  0
  158.3920  212.9380  151.5840 C   0  0  0  0  0  3  0  0  0  0  0  0
  157.5610  214.1590  151.9450 C   0  0  0  0  0  1  0  0  0  0  0  0
  162.7620  209.9570  153.0210 N   0  0  0  0  0  2  0  0  0  0  0  0
  162.1950  210.4410  155.2310 C   0  0  0  0  0  0  0  0  0  0  0  0
  160.1080  209.0400  155.1580 C   0  0  0  0  0  3  0  0  0  0  0  0
  161.0160  209.8720  154.5920 C   0  0  0  0  0  0  0  0  0  0  0  0
  161.8840  210.7290  153.8890 C   0  0  2  0  0  3  0  0  0  0  0  0
  160.4720  208.7780  156.5290 C   0  0  0  0  0  0  0  0  0  0  0  0
  161.6580  209.3450  157.1770 C   0  0  0  0  0  3  0  0  0  0  0  0
  159.6670  207.9720  157.2610 F   0  0  0  0  0  0  0  0  0  0  0  0
  162.5790  210.2220  156.5130 C   0  0  0  0  0  0  0  0  0  0  0  0
  163.6900  210.7480  157.0820 F   0  0  0  0  0  0  0  0  0  0  0  0
  1 23  1  1  0  0  0
  1  3  1  0  0  0  0
  1 36  1  0  0  0  0
  3  2  1  1  0  0  0
  4  8  1  0  0  0  0
  5  7  1  0  0  0  0
  5 11  1  0  0  0  0
  6 13  1  0  0  0  0
  7 14  1  0  0  0  0
  9 17  2  0  0  0  0
 10 19  2  0  0  0  0
 10 12  1  0  0  0  0
 11  9  1  0  0  0  0
 13 20  1  1  0  0  0
 13 19  1  0  0  0  0
 14  9  1  0  0  0  0
 14  6  2  0  0  0  0
 15 21  1  0  0  0  0
 16  8  2  0  0  0  0
 17 10  1  0  0  0  0
 18 17  1  0  0  0  0
 18 15  2  0  0  0  0
 19 16  1  0  0  0  0
 20  4  2  0  0  0  0
 21 12  2  0  0  0  0
 21  3  1  0  0  0  0
 22  5  2  0  0  0  0
 24 26  1  0  0  0  0
 25 30  1  1  0  0  0
 25 28  1  0  0  0  0
 25 24  1  0  0  0  0
 26 27  2  0  0  0  0
 26 32  1  0  0  0  0
 27 23  1  0  0  0  0
 28 27  1  0  0  0  0
 30 29  2  0  0  0  0
 31 30  2  0  0  0  0
 32 34  1  0  0  0  0
 34 35  1  0  0  0  0
 34 33  1  0  0  0  0
 37 44  1  0  0  0  0
 38 41  2  0  0  0  0
 39 38  1  0  0  0  0
 39 37  2  0  0  0  0
 40 36  1  6  0  0  0
 40 39  1  0  0  0  0
 40 37  1  0  0  0  0
 41 42  1  0  0  0  0
 41 43  1  0  0  0  0
 44 45  1  0  0  0  0
 44 42  2  0  0  0  0
M  END
>  <MODEL>
2

>  <REMARK>
 VINA RESULT:      -7.9      2.335      3.601
  Name = 
  9 active torsions:
  status: ('A' for Active; 'I' for Inactive)
    1  A    between atoms: C_10  and  N_41
    2  A    between atoms: C_12  and  C_18
    3  A    between atoms: C_12  and  C_40
    4  A    between atoms: C_13  and  N_44
    5  A    between atoms: C_14  and  N_33
    6  A    between atoms: C_18  and  N_25
    7  A    between atoms: C_18  and  N_41
    8  A    between atoms: C_19  and  N_44
    9  A    between atoms: N_25  and  C_26
                            x       y       z     vdW  Elec       q    Type
                         _______ _______ _______ _____ _____    ______ ____

>  <TORSDO>
F 9

$$$$
=
 OpenBabel11042420413D

 45 51  0  0  1  0  0  0  0  0999 V2000
  161.0480  210.7900  150.8720 C   0  0  1  0  0  3  0  0  0  0  0  0
  163.0410  209.5370  151.8060 C   0  0  0  0  0  1  0  0  0  0  0  0
  161.6110  209.4180  151.3020 C   0  0  2  0  0  3  0  0  0  0  0  0
  160.7930  202.2940  151.4350 N   0  0  0  0  0  0  0  0  0  0  0  0
  161.7670  205.0770  145.0070 C   0  0  0  0  0  0  0  0  0  0  0  0
  161.2820  203.2900  148.1810 N   0  0  0  0  0  0  0  0  0  0  0  0
  161.9370  203.5530  145.6750 S   0  0  0  0  0  0  0  0  0  0  0  0
  161.5750  203.2910  152.0970 C   0  0  0  0  0  3  0  0  0  0  0  0
  161.3280  205.5040  147.1850 C   0  0  0  0  0  0  0  0  0  0  0  0
  161.4280  206.0020  149.6360 C   0  0  0  0  0  0  0  0  0  0  0  0
  161.4440  206.0120  145.9190 N   0  0  0  0  0  2  0  0  0  0  0  0
  161.6280  207.0440  150.5640 C   0  0  0  0  0  3  0  0  0  0  0  0
  160.6150  203.6730  149.4050 C   0  0  2  0  0  3  0  0  0  0  0  0
  161.5300  204.1070  147.2100 C   0  0  0  0  0  0  0  0  0  0  0  0
  161.2200  208.7270  148.9020 C   0  0  0  0  0  3  0  0  0  0  0  0
  161.8490  204.4510  151.5090 C   0  0  0  0  0  3  0  0  0  0  0  0
  161.2230  206.3550  148.2530 C   0  0  0  0  0  0  0  0  0  0  0  0
  161.0960  207.7280  147.9420 C   0  0  0  0  0  3  0  0  0  0  0  0
  161.3740  204.7440  150.1340 C   0  0  0  0  0  0  0  0  0  0  0  0
  160.3390  202.4430  150.2280 C   0  0  0  0  0  3  0  0  0  0  0  0
  161.5240  208.3850  150.2170 C   0  0  0  0  0  0  0  0  0  0  0  0
  161.9320  205.3390  143.7870 O   0  0  0  0  0  0  0  0  0  0  0  0
  160.9050  211.7170  151.9990 N   0  0  0  0  0  2  0  0  0  0  0  0
  158.5750  211.3200  154.7950 O   0  0  0  0  0  0  0  0  0  0  0  0
  157.5370  211.8830  154.0110 C   0  0  2  0  0  3  0  0  0  0  0  0
  159.8000  211.2340  154.1560 C   0  0  0  0  0  0  0  0  0  0  0  0
  159.8360  211.8110  152.9590 C   0  0  0  0  0  0  0  0  0  0  0  0
  158.3080  212.6300  152.5280 S   0  0  0  0  0  0  0  0  0  0  0  0
  157.3570  213.3920  155.7840 O   0  0  0  0  0  0  0  0  0  0  0  0
  156.8200  212.8860  154.7790 N   0  0  0  0  0  0  0  0  0  0  0  0
  155.6260  213.3930  154.3190 O   0  0  0  0  0  0  0  0  0  0  0  0
  160.9060  210.5570  154.7510 N   0  0  0  0  0  2  0  0  0  0  0  0
  160.9120  208.1490  154.5340 C   0  0  0  0  0  1  0  0  0  0  0  0
  160.7560  209.3130  155.4890 C   0  0  0  0  0  3  0  0  0  0  0  0
  161.8200  209.2180  156.5700 C   0  0  0  0  0  1  0  0  0  0  0  0
  161.8580  211.4040  149.8240 N   0  0  0  0  0  2  0  0  0  0  0  0
  160.8090  212.5810  148.1060 C   0  0  0  0  0  0  0  0  0  0  0  0
  162.8490  213.9650  147.6090 C   0  0  0  0  0  3  0  0  0  0  0  0
  162.0200  213.3080  148.4580 C   0  0  0  0  0  0  0  0  0  0  0  0
  161.2430  212.6670  149.4410 C   0  0  2  0  0  3  0  0  0  0  0  0
  162.3590  213.8450  146.2570 C   0  0  0  0  0  0  0  0  0  0  0  0
  161.1420  213.1120  145.8960 C   0  0  0  0  0  3  0  0  0  0  0  0
  163.0560  214.4530  145.2690 F   0  0  0  0  0  0  0  0  0  0  0  0
  160.3120  212.4380  146.8530 C   0  0  0  0  0  0  0  0  0  0  0  0
  159.1910  211.7410  146.5450 F   0  0  0  0  0  0  0  0  0  0  0  0
  1 36  1  6  0  0  0
  1  3  1  0  0  0  0
  1 23  1  0  0  0  0
  3  2  1  6  0  0  0
  4  8  1  0  0  0  0
  5  7  1  0  0  0  0
  5 11  1  0  0  0  0
  6 13  1  0  0  0  0
  7 14  1  0  0  0  0
  9 14  1  0  0  0  0
  9 17  2  0  0  0  0
 10 19  2  0  0  0  0
 10 12  1  0  0  0  0
 11  9  1  0  0  0  0
 13 19  1  0  0  0  0
 13 20  1  1  0  0  0
 14  6  2  0  0  0  0
 15 21  1  0  0  0  0
 16  8  2  0  0  0  0
 17 10  1  0  0  0  0
 18 17  1  0  0  0  0
 18 15  2  0  0  0  0
 19 16  1  0  0  0  0
 20  4  2  0  0  0  0
 21 12  2  0  0  0  0
 21  3  1  0  0  0  0
 22  5  2  0  0  0  0
 23 27  1  0  0  0  0
 25 30  1  1  0  0  0
 25 24  1  0  0  0  0
 26 32  1  0  0  0  0
 26 24  1  0  0  0  0
 27 26  2  0  0  0  0
 28 27  1  0  0  0  0
 28 25  1  0  0  0  0
 30 29  2  0  0  0  0
 31 30  2  0  0  0  0
 32 34  1  0  0  0  0
 33 34  1  0  0  0  0
 34 35  1  0  0  0  0
 37 39  1  0  0  0  0
 37 40  1  0  0  0  0
 38 39  2  0  0  0  0
 39 40  1  0  0  0  0
 40 36  1  6  0  0  0
 41 38  1  0  0  0  0
 42 41  2  0  0  0  0
 42 44  1  0  0  0  0
 43 41  1  0  0  0  0
 44 37  2  0  0  0  0
 45 44  1  0  0  0  0
M  END
>  <MODEL>
3

>  <REMARK>
 VINA RESULT:      -7.4      2.848      5.090
  Name = 
  9 active torsions:
  status: ('A' for Active; 'I' for Inactive)
    1  A    between atoms: C_10  and  N_41
    2  A    between atoms: C_12  and  C_18
    3  A    between atoms: C_12  and  C_40
    4  A    between atoms: C_13  and  N_44
    5  A    between atoms: C_14  and  N_33
    6  A    between atoms: C_18  and  N_25
    7  A    between atoms: C_18  and  N_41
    8  A    between atoms: C_19  and  N_44
    9  A    between atoms: N_25  and  C_26
                            x       y       z     vdW  Elec       q    Type
                         _______ _______ _______ _____ _____    ______ ____

>  <TORSDO>
F 9

$$$$
=
 OpenBabel11042420413D

 45 51  0  0  1  0  0  0  0  0999 V2000
  161.7670  208.8490  149.0200 C   0  0  1  0  0  3  0  0  0  0  0  0
  162.7730  207.5590  150.9540 C   0  0  0  0  0  1  0  0  0  0  0  0
  162.4130  208.9370  150.4190 C   0  0  2  0  0  3  0  0  0  0  0  0
  160.4470  207.4860  157.1630 N   0  0  0  0  0  0  0  0  0  0  0  0
  157.5720  213.3250  154.3960 C   0  0  0  0  0  0  0  0  0  0  0  0
  158.8410  210.3460  156.1330 N   0  0  0  0  0  0  0  0  0  0  0  0
  157.1940  212.3090  155.6690 S   0  0  0  0  0  0  0  0  0  0  0  0
  160.5320  206.8090  155.9060 C   0  0  0  0  0  3  0  0  0  0  0  0
  159.1470  211.7170  154.1540 C   0  0  0  0  0  0  0  0  0  0  0  0
  160.4570  209.6580  153.6020 C   0  0  0  0  0  0  0  0  0  0  0  0
  158.6260  212.8910  153.6790 N   0  0  0  0  0  2  0  0  0  0  0  0
  161.1470  209.0100  152.5580 C   0  0  0  0  0  3  0  0  0  0  0  0
  160.1090  209.6580  156.0560 C   0  0  0  0  0  0  0  0  0  0  0  0
  158.4760  211.2780  155.3150 C   0  0  0  0  0  0  0  0  0  0  0  0
  161.2840  211.0310  151.2710 C   0  0  0  0  0  3  0  0  0  0  0  0
  160.4620  207.4780  154.7600 C   0  0  0  0  0  3  0  0  0  0  0  0
  160.0720  211.0340  153.4120 C   0  0  0  0  0  0  0  0  0  0  0  0
  160.5350  211.6850  152.2450 C   0  0  0  0  0  2  0  0  0  0  0  0
  160.2720  208.9490  154.7410 C   0  0  0  0  0  0  0  0  0  0  0  0
  160.2680  208.7680  157.2600 C   0  0  0  0  0  3  0  0  0  0  0  0
  161.5610  209.6750  151.4100 C   0  0  0  0  0  0  0  0  0  0  0  0
  156.9430  214.3790  154.1180 O   0  0  0  0  0  0  0  0  0  0  0  0
  160.8620  207.7030  148.8890 N   0  0  0  0  0  2  0  0  0  0  0  0
  161.4690  204.2350  147.8820 O   0  0  0  0  0  0  0  0  0  0  0  0
  162.0200  204.6870  146.6570 C   0  0  2  0  0  3  0  0  0  0  0  0
  161.0300  205.2430  148.7240 C   0  0  0  0  0  0  0  0  0  0  0  0
  161.0760  206.4600  148.1940 C   0  0  0  0  0  0  0  0  0  0  0  0
  161.6110  206.4640  146.4890 S   0  0  0  0  0  0  0  0  0  0  0  0
  161.2520  202.7040  145.6900 O   0  0  0  0  0  0  0  0  0  0  0  0
  161.4660  203.9260  145.5500 N   0  0  0  0  0  0  0  0  0  0  0  0
  161.0350  204.5650  144.4110 O   0  0  0  0  0  0  0  0  0  0  0  0
  160.5900  204.9650  150.0530 N   0  0  0  0  0  2  0  0  0  0  0  0
  161.0590  204.5360  152.3850 C   0  0  0  0  0  1  0  0  0  0  0  0
  161.3350  204.1070  150.9600 C   0  0  0  0  0  3  0  0  0  0  0  0
  160.9030  202.6610  150.7800 C   0  0  0  0  0  1  0  0  0  0  0  0
  161.0630  210.0790  148.6700 N   0  0  0  0  0  2  0  0  0  0  0  0
  161.6230  212.3150  148.3200 C   0  0  0  0  0  0  0  0  0  0  0  0
  160.7640  212.3140  145.9560 C   0  0  0  0  0  3  0  0  0  0  0  0
  161.3660  211.7200  147.0160 C   0  0  0  0  0  0  0  0  0  0  0  0
  162.0050  210.9910  148.0370 C   0  0  2  0  0  3  0  0  0  0  0  0
  160.3950  213.6660  146.2980 C   0  0  0  0  0  0  0  0  0  0  0  0
  160.6480  214.2700  147.6090 C   0  0  0  0  0  3  0  0  0  0  0  0
  159.7900  214.4210  145.3520 F   0  0  0  0  0  0  0  0  0  0  0  0
  161.2920  213.5770  148.6880 C   0  0  0  0  0  0  0  0  0  0  0  0
  161.5250  214.1060  149.9140 F   0  0  0  0  0  0  0  0  0  0  0  0
  1 36  1  1  0  0  0
  1  3  1  0  0  0  0
  3  2  1  1  0  0  0
  3 21  1  0  0  0  0
  4 20  1  0  0  0  0
  5  7  1  0  0  0  0
  8  4  2  0  0  0  0
  9 14  1  0  0  0  0
 10 19  1  0  0  0  0
 11  9  1  0  0  0  0
 11  5  1  0  0  0  0
 12 10  2  0  0  0  0
 13  6  1  0  0  0  0
 13 20  2  0  0  0  0
 14  7  1  0  0  0  0
 14  6  2  0  0  0  0
 15 21  2  0  0  0  0
 15 18  1  0  0  0  0
 16  8  1  0  0  0  0
 17 10  1  0  0  0  0
 17  9  2  0  0  0  0
 18 17  1  0  0  0  0
 19 16  2  0  0  0  0
 19 13  1  0  0  0  0
 21 12  1  0  0  0  0
 22  5  2  0  0  0  0
 23  1  1  0  0  0  0
 24 26  1  0  0  0  0
 25 30  1  6  0  0  0
 25 24  1  0  0  0  0
 26 32  1  0  0  0  0
 27 26  2  0  0  0  0
 27 23  1  0  0  0  0
 28 25  1  0  0  0  0
 28 27  1  0  0  0  0
 30 29  2  0  0  0  0
 31 30  2  0  0  0  0
 32 34  1  0  0  0  0
 34 33  1  0  0  0  0
 35 34  1  0  0  0  0
 37 44  1  0  0  0  0
 38 41  2  0  0  0  0
 38 39  1  0  0  0  0
 39 40  1  0  0  0  0
 39 37  2  0  0  0  0
 40 37  1  0  0  0  0
 40 36  1  1  0  0  0
 41 42  1  0  0  0  0
 42 44  2  0  0  0  0
 43 41  1  0  0  0  0
 44 45  1  0  0  0  0
M  END
>  <MODEL>
4

>  <REMARK>
 VINA RESULT:      -7.3      2.987      9.278
  Name = 
  9 active torsions:
  status: ('A' for Active; 'I' for Inactive)
    1  A    between atoms: C_10  and  N_41
    2  A    between atoms: C_12  and  C_18
    3  A    between atoms: C_12  and  C_40
    4  A    between atoms: C_13  and  N_44
    5  A    between atoms: C_14  and  N_33
    6  A    between atoms: C_18  and  N_25
    7  A    between atoms: C_18  and  N_41
    8  A    between atoms: C_19  and  N_44
    9  A    between atoms: N_25  and  C_26
                            x       y       z     vdW  Elec       q    Type
                         _______ _______ _______ _____ _____    ______ ____

>  <TORSDO>
F 9

$$$$
=
 OpenBabel11042420413D

 45 51  0  0  1  0  0  0  0  0999 V2000
  161.6860  210.8100  151.5860 C   0  0  1  0  0  3  0  0  0  0  0  0
  161.5950  210.7100  149.0570 C   0  0  0  0  0  1  0  0  0  0  0  0
  162.2070  210.1090  150.3130 C   0  0  2  0  0  3  0  0  0  0  0  0
  161.3190  205.2490  145.1140 N   0  0  0  0  0  0  0  0  0  0  0  0
  160.7420  202.7310  151.6970 C   0  0  0  0  0  0  0  0  0  0  0  0
  160.9340  203.6960  148.1570 N   0  0  0  0  0  0  0  0  0  0  0  0
  160.2460  202.2160  150.1850 S   0  0  0  0  0  0  0  0  0  0  0  0
  160.8270  206.5470  145.4570 C   0  0  0  0  0  3  0  0  0  0  0  0
  161.3680  204.4850  150.4110 C   0  0  0  0  0  0  0  0  0  0  0  0
  161.4990  206.5870  149.0600 C   0  0  2  0  0  3  0  0  0  0  0  0
  161.3190  203.9470  151.6690 N   0  0  0  0  0  2  0  0  0  0  0  0
  161.5950  207.9890  149.1670 C   0  0  0  0  0  3  0  0  0  0  0  0
  161.7270  204.6950  147.4770 C   0  0  0  0  0  0  0  0  0  0  0  0
  160.8420  203.6030  149.4430 C   0  0  0  0  0  0  0  0  0  0  0  0
  162.3140  207.8560  151.4530 C   0  0  0  0  0  3  0  0  0  0  0  0
  160.8080  206.9620  146.7200 C   0  0  0  0  0  3  0  0  0  0  0  0
  161.7200  205.7980  150.2460 C   0  0  0  0  0  0  0  0  0  0  0  0
  162.1540  206.4750  151.4080 C   0  0  0  0  0  3  0  0  0  0  0  0
  161.2770  206.0850  147.8220 C   0  0  0  0  0  0  0  0  0  0  0  0
  161.7400  204.3990  146.0000 C   0  0  0  0  0  3  0  0  0  0  0  0
  161.9980  208.6230  150.3370 C   0  0  0  0  0  0  0  0  0  0  0  0
  160.5890  202.0700  152.7570 O   0  0  0  0  0  0  0  0  0  0  0  0
  160.2220  210.8940  151.6220 N   0  0  0  0  0  2  0  0  0  0  0  0
  158.6860  214.1970  151.9880 O   0  0  0  0  0  0  0  0  0  0  0  0
  158.0590  213.7730  153.1860 C   0  0  2  0  0  3  0  0  0  0  0  0
  159.4640  213.2320  151.3710 C   0  0  0  0  0  0  0  0  0  0  0  0
  159.3920  212.0290  151.9300 C   0  0  0  0  0  0  0  0  0  0  0  0
  158.2310  211.9520  153.2860 S   0  0  0  0  0  0  0  0  0  0  0  0
  156.0600  214.2820  152.0910 O   0  0  0  0  0  0  0  0  0  0  0  0
  156.6570  214.1570  153.1790 N   0  0  0  0  0  0  0  0  0  0  0  0
  155.9490  214.2310  154.3560 O   0  0  0  0  0  0  0  0  0  0  0  0
  160.2800  213.5420  150.2420 N   0  0  0  0  0  2  0  0  0  0  0  0
  160.8970  214.4480  148.0880 C   0  0  0  0  0  1  0  0  0  0  0  0
  159.7880  214.3090  149.1080 C   0  0  0  0  0  3  0  0  0  0  0  0
  158.6080  213.5930  148.4710 C   0  0  0  0  0  1  0  0  0  0  0  0
  162.1750  210.1620  152.8000 N   0  0  0  0  0  2  0  0  0  0  0  0
  161.9840  210.2980  155.1200 C   0  0  0  0  0  0  0  0  0  0  0  0
  160.4980  208.2750  155.2640 C   0  0  0  0  0  3  0  0  0  0  0  0
  160.9420  209.3980  154.6480 C   0  0  0  0  0  0  0  0  0  0  0  0
  161.3100  210.5380  153.9090 C   0  0  2  0  0  3  0  0  0  0  0  0
  161.2200  208.0760  156.4970 C   0  0  0  0  0  0  0  0  0  0  0  0
  162.2720  208.9770  156.9770 C   0  0  0  0  0  3  0  0  0  0  0  0
  160.9000  207.0040  157.2590 F   0  0  0  0  0  0  0  0  0  0  0  0
  162.6910  210.1520  156.2680 C   0  0  0  0  0  0  0  0  0  0  0  0
  163.6710  210.9930  156.6790 F   0  0  0  0  0  0  0  0  0  0  0  0
  1 23  1  1  0  0  0
  1 36  1  0  0  0  0
  3  2  1  6  0  0  0
  3 21  1  0  0  0  0
  3  1  1  0  0  0  0
  4  8  2  0  0  0  0
  4 20  1  0  0  0  0
  5 22  2  0  0  0  0
  6 14  2  0  0  0  0
  7  5  1  0  0  0  0
  8 16  1  0  0  0  0
  9 11  1  0  0  0  0
 10 12  1  6  0  0  0
 10 17  1  0  0  0  0
 11  5  1  0  0  0  0
 12 21  2  0  0  0  0
 13 19  1  0  0  0  0
 13  6  1  0  0  0  0
 14  7  1  0  0  0  0
 14  9  1  0  0  0  0
 16 19  2  0  0  0  0
 17  9  2  0  0  0  0
 17 18  1  0  0  0  0
 18 15  2  0  0  0  0
 19 10  1  0  0  0  0
 20 13  2  0  0  0  0
 21 15  1  0  0  0  0
 23 27  1  0  0  0  0
 24 25  1  0  0  0  0
 25 30  1  6  0  0  0
 25 28  1  0  0  0  0
 26 27  2  0  0  0  0
 26 24  1  0  0  0  0
 27 28  1  0  0  0  0
 29 30  2  0  0  0  0
 30 31  2  0  0  0  0
 32 26  1  0  0  0  0
 33 34  1  0  0  0  0
 34 32  1  0  0  0  0
 35 34  1  0  0  0  0
 37 44  1  0  0  0  0
 38 41  2  0  0  0  0
 39 37  2  0  0  0  0
 39 38  1  0  0  0  0
 40 36  1  6  0  0  0
 40 39  1  0  0  0  0
 40 37  1  0  0  0  0
 41 42  1  0  0  0  0
 41 43  1  0  0  0  0
 44 45  1  0  0  0  0
 44 42  2  0  0  0  0
M  END
>  <MODEL>
5

>  <REMARK>
 VINA RESULT:      -6.9      2.081      3.562
  Name = 
  9 active torsions:
  status: ('A' for Active; 'I' for Inactive)
    1  A    between atoms: C_10  and  N_41
    2  A    between atoms: C_12  and  C_18
    3  A    between atoms: C_12  and  C_40
    4  A    between atoms: C_13  and  N_44
    5  A    between atoms: C_14  and  N_33
    6  A    between atoms: C_18  and  N_25
    7  A    between atoms: C_18  and  N_41
    8  A    between atoms: C_19  and  N_44
    9  A    between atoms: N_25  and  C_26
                            x       y       z     vdW  Elec       q    Type
                         _______ _______ _______ _____ _____    ______ ____

>  <TORSDO>
F 9

$$$$
=
 OpenBabel11042420413D

 45 51  0  0  1  0  0  0  0  0999 V2000
  162.0320  211.1010  150.1180 C   0  0  1  0  0  3  0  0  0  0  0  0
  161.1410  210.6580  147.7890 C   0  0  0  0  0  1  0  0  0  0  0  0
  162.1310  210.2170  148.8560 C   0  0  2  0  0  3  0  0  0  0  0  0
  161.1760  204.4890  144.6470 N   0  0  0  0  0  0  0  0  0  0  0  0
  160.9220  203.1780  151.5920 C   0  0  0  0  0  0  0  0  0  0  0  0
  160.9500  203.4980  147.9310 N   0  0  0  0  0  0  0  0  0  0  0  0
  160.3820  202.3910  150.2180 S   0  0  0  0  0  0  0  0  0  0  0  0
  160.6610  205.8180  144.7750 C   0  0  0  0  0  3  0  0  0  0  0  0
  161.4500  204.6860  149.9890 C   0  0  0  0  0  0  0  0  0  0  0  0
  161.4720  206.5140  148.2800 C   0  0  2  0  0  3  0  0  0  0  0  0
  161.4640  204.3800  151.3230 N   0  0  0  0  0  2  0  0  0  0  0  0
  161.5330  207.9150  148.1330 C   0  0  0  0  0  3  0  0  0  0  0  0
  161.6890  204.3740  147.0510 C   0  0  0  0  0  0  0  0  0  0  0  0
  160.9110  203.6340  149.2160 C   0  0  0  0  0  0  0  0  0  0  0  0
  162.3430  208.2070  150.3730 C   0  0  0  0  0  3  0  0  0  0  0  0
  160.6810  206.4510  145.9430 C   0  0  0  0  0  3  0  0  0  0  0  0
  161.7590  205.9550  149.5770 C   0  0  0  0  0  0  0  0  0  0  0  0
  162.2190  206.8370  150.5810 C   0  0  0  0  0  3  0  0  0  0  0  0
  161.2150  205.7950  147.1620 C   0  0  0  0  0  0  0  0  0  0  0  0
  161.6530  203.8200  145.6510 C   0  0  0  0  0  3  0  0  0  0  0  0
  161.9630  208.7560  149.1520 C   0  0  0  0  0  0  0  0  0  0  0  0
  160.8290  202.7150  152.7580 O   0  0  0  0  0  0  0  0  0  0  0  0
  161.5870  212.4650  149.8150 N   0  0  0  0  0  2  0  0  0  0  0  0
  158.3830  214.2160  149.5430 O   0  0  0  0  0  0  0  0  0  0  0  0
  158.3810  214.4310  150.9440 C   0  0  2  0  0  3  0  0  0  0  0  0
  159.4810  213.5210  149.0680 C   0  0  0  0  0  0  0  0  0  0  0  0
  160.2880  213.0550  150.0150 C   0  0  0  0  0  0  0  0  0  0  0  0
  159.6900  213.3740  151.6670 S   0  0  0  0  0  0  0  0  0  0  0  0
  156.0810  214.0700  150.7540 O   0  0  0  0  0  0  0  0  0  0  0  0
  157.0810  214.0920  151.4990 N   0  0  0  0  0  0  0  0  0  0  0  0
  156.9720  213.6480  152.7970 O   0  0  0  0  0  0  0  0  0  0  0  0
  159.7090  213.3550  147.6690 N   0  0  0  0  0  2  0  0  0  0  0  0
  159.1390  212.8590  145.3730 C   0  0  0  0  0  1  0  0  0  0  0  0
  158.6360  213.4100  146.6890 C   0  0  0  0  0  3  0  0  0  0  0  0
  157.4570  212.5760  147.1630 C   0  0  0  0  0  1  0  0  0  0  0  0
  161.1610  210.5080  151.1280 N   0  0  0  0  0  2  0  0  0  0  0  0
  161.3270  209.3160  153.1250 C   0  0  0  0  0  0  0  0  0  0  0  0
  160.4480  211.2230  154.5090 C   0  0  0  0  0  3  0  0  0  0  0  0
  161.1570  210.7210  153.4680 C   0  0  0  0  0  0  0  0  0  0  0  0
  161.9250  210.3300  152.3550 C   0  0  2  0  0  3  0  0  0  0  0  0
  159.8580  210.1450  155.2640 C   0  0  0  0  0  0  0  0  0  0  0  0
  160.0220  208.7290  154.9230 C   0  0  0  0  0  3  0  0  0  0  0  0
  159.1200  210.4580  156.3550 F   0  0  0  0  0  0  0  0  0  0  0  0
  160.7900  208.2700  153.8010 C   0  0  0  0  0  0  0  0  0  0  0  0
  160.9470  206.9700  153.4540 F   0  0  0  0  0  0  0  0  0  0  0  0
  1 23  1  6  0  0  0
  1 36  1  0  0  0  0
  3  2  1  6  0  0  0
  3 21  1  0  0  0  0
  3  1  1  0  0  0  0
  4  8  2  0  0  0  0
  4 20  1  0  0  0  0
  5 22  2  0  0  0  0
  6 14  2  0  0  0  0
  7  5  1  0  0  0  0
  8 16  1  0  0  0  0
  9 11  1  0  0  0  0
 10 12  1  6  0  0  0
 10 17  1  0  0  0  0
 11  5  1  0  0  0  0
 12 21  2  0  0  0  0
 13 19  1  0  0  0  0
 13  6  1  0  0  0  0
 14  9  1  0  0  0  0
 14  7  1  0  0  0  0
 15 18  2  0  0  0  0
 16 19  2  0  0  0  0
 17  9  2  0  0  0  0
 17 18  1  0  0  0  0
 19 10  1  0  0  0  0
 20 13  2  0  0  0  0
 21 15  1  0  0  0  0
 23 27  1  0  0  0  0
 24 25  1  0  0  0  0
 25 30  1  1  0  0  0
 25 28  1  0  0  0  0
 26 24  1  0  0  0  0
 26 27  2  0  0  0  0
 27 28  1  0  0  0  0
 29 30  2  0  0  0  0
 30 31  2  0  0  0  0
 32 26  1  0  0  0  0
 33 34  1  0  0  0  0
 34 35  1  0  0  0  0
 34 32  1  0  0  0  0
 37 39  2  0  0  0  0
 37 44  1  0  0  0  0
 38 41  2  0  0  0  0
 39 38  1  0  0  0  0
 40 36  1  6  0  0  0
 40 37  1  0  0  0  0
 40 39  1  0  0  0  0
 41 43  1  0  0  0  0
 42 41  1  0  0  0  0
 44 42  2  0  0  0  0
 45 44  1  0  0  0  0
M  END
>  <MODEL>
6

>  <REMARK>
 VINA RESULT:      -6.9      2.464      3.840
  Name = 
  9 active torsions:
  status: ('A' for Active; 'I' for Inactive)
    1  A    between atoms: C_10  and  N_41
    2  A    between atoms: C_12  and  C_18
    3  A    between atoms: C_12  and  C_40
    4  A    between atoms: C_13  and  N_44
    5  A    between atoms: C_14  and  N_33
    6  A    between atoms: C_18  and  N_25
    7  A    between atoms: C_18  and  N_41
    8  A    between atoms: C_19  and  N_44
    9  A    between atoms: N_25  and  C_26
                            x       y       z     vdW  Elec       q    Type
                         _______ _______ _______ _____ _____    ______ ____

>  <TORSDO>
F 9

$$$$
=
 OpenBabel11042420413D

 45 51  0  0  1  0  0  0  0  0999 V2000
  161.7840  209.9850  149.0380 C   0  0  1  0  0  3  0  0  0  0  0  0
  162.8140  208.7260  150.9790 C   0  0  0  0  0  1  0  0  0  0  0  0
  162.2880  210.0690  150.4940 C   0  0  2  0  0  3  0  0  0  0  0  0
  160.4390  208.2370  157.1780 N   0  0  0  0  0  0  0  0  0  0  0  0
  156.4160  213.2480  154.2230 C   0  0  0  0  0  0  0  0  0  0  0  0
  158.2620  210.6480  156.0490 N   0  0  0  0  0  0  0  0  0  0  0  0
  156.2300  212.1780  155.4960 S   0  0  0  0  0  0  0  0  0  0  0  0
  160.7260  207.5910  155.9350 C   0  0  0  0  0  3  0  0  0  0  0  0
  158.3250  212.0430  154.0640 C   0  0  0  0  0  0  0  0  0  0  0  0
  160.0930  210.3360  153.5910 C   0  0  0  0  0  0  0  0  0  0  0  0
  157.5690  213.0640  153.5530 N   0  0  0  0  0  2  0  0  0  0  0  0
  160.9540  209.8590  152.5820 C   0  0  0  0  0  3  0  0  0  0  0  0
  159.6570  210.2680  156.0290 C   0  0  0  0  0  0  0  0  0  0  0  0
  157.7260  211.4670  155.2050 C   0  0  0  0  0  0  0  0  0  0  0  0
  160.6760  211.8520  151.2740 C   0  0  0  0  0  3  0  0  0  0  0  0
  160.5510  208.2210  154.7770 C   0  0  0  0  0  3  0  0  0  0  0  0
  159.4120  211.5870  153.3670 C   0  0  0  0  0  0  0  0  0  0  0  0
  159.7590  212.3210  152.2100 C   0  0  0  0  0  2  0  0  0  0  0  0
  160.0300  209.6100  154.7320 C   0  0  0  0  0  0  0  0  0  0  0  0
  159.9660  209.4440  157.2500 C   0  0  0  0  0  3  0  0  0  0  0  0
  161.2510  210.5960  151.4420 C   0  0  0  0  0  0  0  0  0  0  0  0
  155.5740  214.1280  153.9070 O   0  0  0  0  0  0  0  0  0  0  0  0
  162.2020  211.1370  148.2310 N   0  0  0  0  0  2  0  0  0  0  0  0
  160.8890  214.1780  146.6710 O   0  0  0  0  0  0  0  0  0  0  0  0
  159.8080  214.1820  147.5880 C   0  0  2  0  0  3  0  0  0  0  0  0
  161.7760  213.1270  146.8300 C   0  0  0  0  0  0  0  0  0  0  0  0
  161.4010  212.2230  147.7280 C   0  0  0  0  0  0  0  0  0  0  0  0
  159.7950  212.5580  148.4340 S   0  0  0  0  0  0  0  0  0  0  0  0
  158.5470  214.4130  145.6350 O   0  0  0  0  0  0  0  0  0  0  0  0
  158.5560  214.4050  146.8830 N   0  0  0  0  0  0  0  0  0  0  0  0
  157.3670  214.4500  147.5730 O   0  0  0  0  0  0  0  0  0  0  0  0
  162.9940  213.0620  146.0890 N   0  0  0  0  0  2  0  0  0  0  0  0
  161.6040  212.9480  144.1150 C   0  0  0  0  0  1  0  0  0  0  0  0
  163.0240  213.0020  144.6370 C   0  0  0  0  0  3  0  0  0  0  0  0
  163.7140  214.2360  144.0790 C   0  0  0  0  0  1  0  0  0  0  0  0
  162.2060  208.7470  148.3890 N   0  0  0  0  0  2  0  0  0  0  0  0
  160.9390  206.8540  148.8880 C   0  0  0  0  0  0  0  0  0  0  0  0
  161.7710  205.5880  146.8810 C   0  0  0  0  0  3  0  0  0  0  0  0
  161.3900  206.7270  147.5090 C   0  0  0  0  0  0  0  0  0  0  0  0
  161.0200  207.9760  148.0430 C   0  0  2  0  0  3  0  0  0  0  0  0
  161.6690  204.4710  147.7890 C   0  0  0  0  0  0  0  0  0  0  0  0
  161.2180  204.5920  149.1780 C   0  0  0  0  0  3  0  0  0  0  0  0
  161.9970  203.2410  147.3280 F   0  0  0  0  0  0  0  0  0  0  0  0
  160.8310  205.8370  149.7780 C   0  0  0  0  0  0  0  0  0  0  0  0
  160.4250  205.9810  151.0630 F   0  0  0  0  0  0  0  0  0  0  0  0
  1 23  1  6  0  0  0
  1  3  1  0  0  0  0
  3  2  1  1  0  0  0
  3 21  1  0  0  0  0
  4 20  1  0  0  0  0
  5  7  1  0  0  0  0
  8  4  2  0  0  0  0
  9 14  1  0  0  0  0
 10 19  1  0  0  0  0
 11  9  1  0  0  0  0
 11  5  1  0  0  0  0
 12 10  2  0  0  0  0
 13  6  1  0  0  0  0
 13 20  2  0  0  0  0
 14  7  1  0  0  0  0
 14  6  2  0  0  0  0
 15 21  2  0  0  0  0
 15 18  1  0  0  0  0
 16  8  1  0  0  0  0
 17 10  1  0  0  0  0
 17  9  2  0  0  0  0
 18 17  1  0  0  0  0
 19 16  2  0  0  0  0
 19 13  1  0  0  0  0
 21 12  1  0  0  0  0
 22  5  2  0  0  0  0
 24 26  1  0  0  0  0
 24 25  1  0  0  0  0
 25 30  1  6  0  0  0
 25 28  1  0  0  0  0
 26 27  2  0  0  0  0
 27 23  1  0  0  0  0
 27 28  1  0  0  0  0
 29 30  2  0  0  0  0
 30 31  2  0  0  0  0
 32 26  1  0  0  0  0
 33 34  1  0  0  0  0
 34 32  1  0  0  0  0
 35 34  1  0  0  0  0
 36  1  1  0  0  0  0
 37 44  1  0  0  0  0
 38 39  1  0  0  0  0
 38 41  2  0  0  0  0
 39 40  1  0  0  0  0
 39 37  2  0  0  0  0
 40 36  1  1  0  0  0
 40 37  1  0  0  0  0
 41 42  1  0  0  0  0
 42 44  2  0  0  0  0
 43 41  1  0  0  0  0
 44 45  1  0  0  0  0
M  END
>  <MODEL>
7

>  <REMARK>
 VINA RESULT:      -6.8      3.543      8.030
  Name = 
  9 active torsions:
  status: ('A' for Active; 'I' for Inactive)
    1  A    between atoms: C_10  and  N_41
    2  A    between atoms: C_12  and  C_18
    3  A    between atoms: C_12  and  C_40
    4  A    between atoms: C_13  and  N_44
    5  A    between atoms: C_14  and  N_33
    6  A    between atoms: C_18  and  N_25
    7  A    between atoms: C_18  and  N_41
    8  A    between atoms: C_19  and  N_44
    9  A    between atoms: N_25  and  C_26
                            x       y       z     vdW  Elec       q    Type
                         _______ _______ _______ _____ _____    ______ ____

>  <TORSDO>
F 9

$$$$
=
 OpenBabel11042420413D

 45 51  0  0  1  0  0  0  0  0999 V2000
  160.8290  212.1670  149.1010 C   0  0  1  0  0  3  0  0  0  0  0  0
  162.9150  211.4720  147.8440 C   0  0  0  0  0  1  0  0  0  0  0  0
  162.1760  211.4170  149.1730 C   0  0  2  0  0  3  0  0  0  0  0  0
  161.3790  205.2340  145.6260 N   0  0  0  0  0  0  0  0  0  0  0  0
  161.0560  204.7080  152.6710 C   0  0  0  0  0  0  0  0  0  0  0  0
  161.1280  204.6150  148.9980 N   0  0  0  0  0  0  0  0  0  0  0  0
  160.5490  203.7620  151.3890 S   0  0  0  0  0  0  0  0  0  0  0  0
  160.8390  206.5590  145.5980 C   0  0  0  0  0  3  0  0  0  0  0  0
  161.5780  206.0360  150.9140 C   0  0  0  0  0  0  0  0  0  0  0  0
  161.5900  207.6610  149.0110 C   0  0  2  0  0  3  0  0  0  0  0  0
  161.5810  205.8830  152.2750 N   0  0  0  0  0  2  0  0  0  0  0  0
  161.6290  209.0370  148.7070 C   0  0  0  0  0  3  0  0  0  0  0  0
  161.8620  205.4010  148.0330 C   0  0  0  0  0  0  0  0  0  0  0  0
  161.0690  204.8940  150.2590 C   0  0  0  0  0  0  0  0  0  0  0  0
  162.4040  209.5950  150.9090 C   0  0  0  0  0  3  0  0  0  0  0  0
  160.8320  207.3200  146.6870 C   0  0  0  0  0  3  0  0  0  0  0  0
  161.8700  207.2560  150.3660 C   0  0  0  0  0  0  0  0  0  0  0  0
  162.3020  208.2550  151.2690 C   0  0  0  0  0  3  0  0  0  0  0  0
  161.3620  206.8160  147.9780 C   0  0  0  0  0  0  0  0  0  0  0  0
  161.8540  204.6920  146.7040 C   0  0  0  0  0  3  0  0  0  0  0  0
  162.0300  209.9950  149.6300 C   0  0  0  0  0  0  0  0  0  0  0  0
  160.9560  204.3770  153.8810 O   0  0  0  0  0  0  0  0  0  0  0  0
  160.5990  213.0230  150.2690 N   0  0  0  0  0  2  0  0  0  0  0  0
  158.1360  212.3560  152.8940 O   0  0  0  0  0  0  0  0  0  0  0  0
  157.1380  213.0030  152.1230 C   0  0  2  0  0  3  0  0  0  0  0  0
  159.3900  212.3280  152.3090 C   0  0  0  0  0  0  0  0  0  0  0  0
  159.4850  213.0250  151.1810 C   0  0  0  0  0  0  0  0  0  0  0  0
  157.9820  213.8940  150.7630 S   0  0  0  0  0  0  0  0  0  0  0  0
  156.9350  214.4500  153.9450 O   0  0  0  0  0  0  0  0  0  0  0  0
  156.3860  213.9280  152.9540 N   0  0  0  0  0  0  0  0  0  0  0  0
  155.1330  214.3470  152.5720 O   0  0  0  0  0  0  0  0  0  0  0  0
  160.4640  211.5850  152.8840 N   0  0  0  0  0  2  0  0  0  0  0  0
  161.5730  210.0720  154.4080 C   0  0  0  0  0  1  0  0  0  0  0  0
  160.3760  210.9750  154.2010 C   0  0  0  0  0  3  0  0  0  0  0  0
  160.3710  212.0520  155.2730 C   0  0  0  0  0  1  0  0  0  0  0  0
  160.7110  212.9540  147.8780 N   0  0  0  0  0  2  0  0  0  0  0  0
  159.6140  213.0130  145.8210 C   0  0  0  0  0  0  0  0  0  0  0  0
  157.3300  212.9600  146.8710 C   0  0  0  0  0  3  0  0  0  0  0  0
  158.6390  212.6110  146.8250 C   0  0  0  0  0  0  0  0  0  0  0  0
  159.9760  212.1750  146.8920 C   0  0  2  0  0  3  0  0  0  0  0  0
  157.0120  213.8160  145.7540 C   0  0  0  0  0  0  0  0  0  0  0  0
  157.9890  214.2260  144.7420 C   0  0  0  0  0  3  0  0  0  0  0  0
  155.7380  214.2560  145.6280 F   0  0  0  0  0  0  0  0  0  0  0  0
  159.3650  213.8170  144.7580 C   0  0  0  0  0  0  0  0  0  0  0  0
  160.2920  214.1930  143.8450 F   0  0  0  0  0  0  0  0  0  0  0  0
  1 36  1  6  0  0  0
  1  3  1  0  0  0  0
  1 23  1  0  0  0  0
  3  2  1  6  0  0  0
  3 21  1  0  0  0  0
  4 20  1  0  0  0  0
  5 22  2  0  0  0  0
  6 14  2  0  0  0  0
  7  5  1  0  0  0  0
  8  4  2  0  0  0  0
  8 16  1  0  0  0  0
  9 11  1  0  0  0  0
 10 12  1  6  0  0  0
 10 17  1  0  0  0  0
 11  5  1  0  0  0  0
 12 21  2  0  0  0  0
 13  6  1  0  0  0  0
 14  9  1  0  0  0  0
 14  7  1  0  0  0  0
 15 18  2  0  0  0  0
 16 19  2  0  0  0  0
 17  9  2  0  0  0  0
 17 18  1  0  0  0  0
 19 13  1  0  0  0  0
 19 10  1  0  0  0  0
 20 13  2  0  0  0  0
 21 15  1  0  0  0  0
 23 27  1  0  0  0  0
 25 24  1  0  0  0  0
 25 30  1  1  0  0  0
 26 32  1  0  0  0  0
 26 24  1  0  0  0  0
 27 26  2  0  0  0  0
 28 27  1  0  0  0  0
 28 25  1  0  0  0  0
 30 29  2  0  0  0  0
 31 30  2  0  0  0  0
 32 34  1  0  0  0  0
 34 33  1  0  0  0  0
 34 35  1  0  0  0  0
 37 39  1  0  0  0  0
 37 40  1  0  0  0  0
 39 38  2  0  0  0  0
 39 40  1  0  0  0  0
 40 36  1  1  0  0  0
 41 38  1  0  0  0  0
 42 44  1  0  0  0  0
 42 41  2  0  0  0  0
 43 41  1  0  0  0  0
 44 37  2  0  0  0  0
 45 44  1  0  0  0  0
M  END
>  <MODEL>
8

>  <REMARK>
 VINA RESULT:      -6.5      3.860      6.630
  Name = 
  9 active torsions:
  status: ('A' for Active; 'I' for Inactive)
    1  A    between atoms: C_10  and  N_41
    2  A    between atoms: C_12  and  C_18
    3  A    between atoms: C_12  and  C_40
    4  A    between atoms: C_13  and  N_44
    5  A    between atoms: C_14  and  N_33
    6  A    between atoms: C_18  and  N_25
    7  A    between atoms: C_18  and  N_41
    8  A    between atoms: C_19  and  N_44
    9  A    between atoms: N_25  and  C_26
                            x       y       z     vdW  Elec       q    Type
                         _______ _______ _______ _____ _____    ______ ____

>  <TORSDO>
F 9

$$$$
=
 OpenBabel11042420413D

 45 51  0  0  1  0  0  0  0  0999 V2000
  160.8580  211.5340  150.2310 C   0  0  1  0  0  3  0  0  0  0  0  0
  161.1440  214.0500  150.2140 C   0  0  0  0  0  1  0  0  0  0  0  0
  161.5950  212.7340  149.5990 C   0  0  2  0  0  3  0  0  0  0  0  0
  156.0400  214.1020  145.2730 N   0  0  0  0  0  0  0  0  0  0  0  0
  162.0120  212.2320  141.9780 C   0  0  0  0  0  0  0  0  0  0  0  0
  158.7410  213.1910  143.3510 N   0  0  0  0  0  0  0  0  0  0  0  0
  160.3900  212.2520  141.5690 S   0  0  0  0  0  0  0  0  0  0  0  0
  156.3180  213.3220  146.4390 C   0  0  0  0  0  3  0  0  0  0  0  0
  161.0740  212.8690  143.9370 C   0  0  0  0  0  0  0  0  0  0  0  0
  159.9590  212.9960  146.1740 C   0  0  0  0  0  0  0  0  0  0  0  0
  162.2290  212.5800  143.2610 N   0  0  0  0  0  2  0  0  0  0  0  0
  160.1830  212.8190  147.5540 C   0  0  0  0  0  3  0  0  0  0  0  0
  158.3790  213.9550  144.5230 C   0  0  2  0  0  3  0  0  0  0  0  0
  159.9400  212.7780  143.1020 C   0  0  0  0  0  0  0  0  0  0  0  0
  162.5650  212.9160  147.2730 C   0  0  0  0  0  3  0  0  0  0  0  0
  157.5500  212.8980  146.7030 C   0  0  0  0  0  3  0  0  0  0  0  0
  161.1030  213.0240  145.2970 C   0  0  0  0  0  0  0  0  0  0  0  0
  162.3830  213.0110  145.8960 C   0  0  0  0  0  3  0  0  0  0  0  0
  158.6770  213.1990  145.7860 C   0  0  0  0  0  0  0  0  0  0  0  0
  156.9490  214.4100  144.4000 C   0  0  0  0  0  3  0  0  0  0  0  0
  161.4580  212.7820  148.1060 C   0  0  0  0  0  0  0  0  0  0  0  0
  162.9400  211.9180  141.1890 O   0  0  0  0  0  0  0  0  0  0  0  0
  161.7660  210.4360  150.5790 N   0  0  0  0  0  2  0  0  0  0  0  0
  162.1950  206.8570  149.9360 O   0  0  0  0  0  0  0  0  0  0  0  0
  162.3710  207.1260  148.5550 C   0  0  2  0  0  3  0  0  0  0  0  0
  161.9690  207.9770  150.7170 C   0  0  0  0  0  0  0  0  0  0  0  0
  161.8240  209.1060  150.0310 C   0  0  0  0  0  0  0  0  0  0  0  0
  161.8700  208.8630  148.2620 S   0  0  0  0  0  0  0  0  0  0  0  0
  160.4950  205.7740  148.2320 O   0  0  0  0  0  0  0  0  0  0  0  0
  161.5620  206.2160  147.7620 N   0  0  0  0  0  0  0  0  0  0  0  0
  161.8820  205.9640  146.4480 O   0  0  0  0  0  0  0  0  0  0  0  0
  161.9220  207.8950  152.1410 N   0  0  0  0  0  2  0  0  0  0  0  0
  161.5960  205.6030  152.8350 C   0  0  0  0  0  1  0  0  0  0  0  0
  161.0160  207.0010  152.8430 C   0  0  0  0  0  3  0  0  0  0  0  0
  160.8420  207.4610  154.2820 C   0  0  0  0  0  1  0  0  0  0  0  0
  160.0870  211.9290  151.4060 N   0  0  0  0  0  2  0  0  0  0  0  0
  159.0880  211.1120  153.3490 C   0  0  0  0  0  0  0  0  0  0  0  0
  161.2450  211.1270  154.6400 C   0  0  0  0  0  3  0  0  0  0  0  0
  160.5280  210.9630  153.5010 C   0  0  0  0  0  0  0  0  0  0  0  0
  159.9030  210.7620  152.2560 C   0  0  2  0  0  3  0  0  0  0  0  0
  160.3640  211.4840  155.7260 C   0  0  0  0  0  0  0  0  0  0  0  0
  158.9150  211.6380  155.5780 C   0  0  0  0  0  3  0  0  0  0  0  0
  160.9060  211.6760  156.9510 F   0  0  0  0  0  0  0  0  0  0  0  0
  158.2220  211.4490  154.3360 C   0  0  0  0  0  0  0  0  0  0  0  0
  156.8860  211.6000  154.1670 F   0  0  0  0  0  0  0  0  0  0  0  0
  1 23  1  1  0  0  0
  1 36  1  0  0  0  0
  3  2  1  1  0  0  0
  3  1  1  0  0  0  0
  4  8  1  0  0  0  0
  5 11  1  0  0  0  0
  6 13  1  0  0  0  0
  7  5  1  0  0  0  0
  7 14  1  0  0  0  0
  8 16  2  0  0  0  0
  9 17  2  0  0  0  0
 10 12  1  0  0  0  0
 11  9  1  0  0  0  0
 12 21  2  0  0  0  0
 13 20  1  6  0  0  0
 13 19  1  0  0  0  0
 14  6  2  0  0  0  0
 14  9  1  0  0  0  0
 15 21  1  0  0  0  0
 17 18  1  0  0  0  0
 17 10  1  0  0  0  0
 18 15  2  0  0  0  0
 19 10  2  0  0  0  0
 19 16  1  0  0  0  0
 20  4  2  0  0  0  0
 21  3  1  0  0  0  0
 22  5  2  0  0  0  0
 24 26  1  0  0  0  0
 25 30  1  6  0  0  0
 25 24  1  0  0  0  0
 26 32  1  0  0  0  0
 27 23  1  0  0  0  0
 27 26  2  0  0  0  0
 28 25  1  0  0  0  0
 28 27  1  0  0  0  0
 30 29  2  0  0  0  0
 31 30  2  0  0  0  0
 32 34  1  0  0  0  0
 33 34  1  0  0  0  0
 34 35  1  0  0  0  0
 37 39  2  0  0  0  0
 37 44  1  0  0  0  0
 38 41  2  0  0  0  0
 39 38  1  0  0  0  0
 40 36  1  6  0  0  0
 40 37  1  0  0  0  0
 40 39  1  0  0  0  0
 41 43  1  0  0  0  0
 42 41  1  0  0  0  0
 44 42  2  0  0  0  0
 45 44  1  0  0  0  0
M  END
>  <MODEL>
9

>  <REMARK>
 VINA RESULT:      -6.4      4.014      7.742
  Name = 
  9 active torsions:
  status: ('A' for Active; 'I' for Inactive)
    1  A    between atoms: C_10  and  N_41
    2  A    between atoms: C_12  and  C_18
    3  A    between atoms: C_12  and  C_40
    4  A    between atoms: C_13  and  N_44
    5  A    between atoms: C_14  and  N_33
    6  A    between atoms: C_18  and  N_25
    7  A    between atoms: C_18  and  N_41
    8  A    between atoms: C_19  and  N_44
    9  A    between atoms: N_25  and  C_26
                            x       y       z     vdW  Elec       q    Type
                         _______ _______ _______ _____ _____    ______ ____

>  <TORSDO>
F 9

$$$$
