=
 OpenBabel11052410163D

 25 27  0  0  1  0  0  0  0  0999 V2000
  161.5140  209.7890  152.9120 S   0  0  0  0  0  0  0  0  0  0  0  0
  161.7380  207.6050  151.4550 N   0  0  0  0  0  0  0  0  0  0  0  0
  161.5030  207.1910  152.7700 C   0  0  0  0  0  0  0  0  0  0  0  0
  161.1630  205.3700  151.4390 C   0  0  0  0  0  0  0  0  0  0  0  0
  161.3170  208.1580  153.6500 C   0  0  2  0  0  3  0  0  0  0  0  0
  161.5470  209.0240  151.2410 C   0  0  0  0  0  2  0  0  0  0  0  0
  161.4340  206.5360  150.5280 C   0  0  0  0  0  3  0  0  0  0  0  0
  160.8430  204.1710  151.0500 N   0  0  0  0  0  2  0  0  0  0  0  0
  161.1740  205.7500  152.8870 C   0  0  0  0  0  3  0  0  0  0  0  0
  161.8710  207.5230  155.8520 F   0  0  0  0  0  0  0  0  0  0  0  0
  160.8230  207.9400  155.0510 C   0  0  0  0  0  0  0  0  0  0  0  0
  160.3080  209.1160  155.5650 F   0  0  0  0  0  0  0  0  0  0  0  0
  159.8320  206.9770  155.0550 F   0  0  0  0  0  0  0  0  0  0  0  0
  160.8080  203.7300  149.7110 N   0  0  0  0  0  0  0  0  0  0  0  0
  161.1300  204.6730  148.6550 C   0  0  0  0  0  2  0  0  0  0  0  0
  162.0310  204.0110  147.6280 C   0  0  0  0  0  2  0  0  0  0  0  0
  160.7350  204.2890  144.2840 N   0  0  0  0  0  0  0  0  0  0  0  0
  161.7240  205.6570  145.7640 N   0  0  0  0  0  0  0  0  0  0  0  0
  161.6090  204.4090  146.2560 C   0  0  0  0  0  0  0  0  0  0  0  0
  161.1730  205.5450  144.5290 C   0  0  0  0  0  3  0  0  0  0  0  0
  160.7110  202.2470  145.5490 N   0  0  0  0  0  1  0  0  0  0  0  0
  161.0130  203.6010  145.3720 N   0  0  0  0  0  0  0  0  0  0  0  0
  160.2790  202.4280  149.3200 C   0  0  0  0  0  2  0  0  0  0  0  0
  161.1460  201.3190  149.8870 C   0  0  0  0  0  2  0  0  0  0  0  0
  161.4310  200.4050  148.8920 F   0  0  0  0  0  0  0  0  0  0  0  0
  1  5  1  0  0  0  0
  2  3  1  0  0  0  0
  3  9  2  0  0  0  0
  3  5  1  0  0  0  0
  4  9  1  0  0  0  0
  5 11  1  6  0  0  0
  6  2  1  0  0  0  0
  6  1  1  0  0  0  0
  7  4  2  0  0  0  0
  7  2  1  0  0  0  0
  8  4  1  0  0  0  0
 11 13  1  0  0  0  0
 11 12  1  0  0  0  0
 11 10  1  0  0  0  0
 14  8  1  0  0  0  0
 15 14  1  0  0  0  0
 16 15  1  0  0  0  0
 17 20  2  0  0  0  0
 17 22  1  0  0  0  0
 18 19  2  0  0  0  0
 19 16  1  0  0  0  0
 20 18  1  0  0  0  0
 22 21  1  0  0  0  0
 22 19  1  0  0  0  0
 23 14  1  0  0  0  0
 23 24  1  0  0  0  0
 25 24  1  0  0  0  0
M  END
>  <MODEL>
1

>  <REMARK>
 VINA RESULT:      -7.7      0.000      0.000
  Name = 
  7 active torsions:
  status: ('A' for Active; 'I' for Inactive)
    1  A    between atoms: C_6  and  C_10
    2  A    between atoms: C_6  and  C_14
    3  A    between atoms: C_8  and  C_11
    4  A    between atoms: C_14  and  N_23
    5  A    between atoms: C_16  and  C_18
    6  A    between atoms: C_18  and  N_23
    7  A    between atoms: N_21  and  N_23
                            x       y       z     vdW  Elec       q    Type
                         _______ _______ _______ _____ _____    ______ ____

>  <TORSDO>
F 7

$$$$
=
 OpenBabel11052410163D

 25 27  0  0  1  0  0  0  0  0999 V2000
  161.7050  203.4650  146.4000 S   0  0  0  0  0  0  0  0  0  0  0  0
  161.2150  205.0780  148.4260 N   0  0  0  0  0  0  0  0  0  0  0  0
  160.8670  203.7890  148.8420 C   0  0  0  0  0  0  0  0  0  0  0  0
  160.9620  205.0800  150.7190 C   0  0  0  0  0  0  0  0  0  0  0  0
  161.0870  202.8250  147.9650 C   0  0  2  0  0  3  0  0  0  0  0  0
  161.9390  205.1170  147.1720 C   0  0  0  0  0  2  0  0  0  0  0  0
  161.4080  205.9430  149.5700 C   0  0  0  0  0  3  0  0  0  0  0  0
  160.9550  205.4400  151.9700 N   0  0  0  0  0  2  0  0  0  0  0  0
  160.6260  203.6830  150.3010 C   0  0  0  0  0  3  0  0  0  0  0  0
  161.1720  200.6230  147.1270 F   0  0  0  0  0  0  0  0  0  0  0  0
  161.0090  201.3600  148.2850 C   0  0  0  0  0  0  0  0  0  0  0  0
  162.0040  201.0130  149.1810 F   0  0  0  0  0  0  0  0  0  0  0  0
  159.7800  201.0670  148.8460 F   0  0  0  0  0  0  0  0  0  0  0  0
  161.2550  206.7310  152.4480 N   0  0  0  0  0  0  0  0  0  0  0  0
  161.7870  206.8740  153.7920 C   0  0  0  0  0  2  0  0  0  0  0  0
  160.6800  207.2870  154.7450 C   0  0  0  0  0  2  0  0  0  0  0  0
  161.3950  210.3720  156.4500 N   0  0  0  0  0  0  0  0  0  0  0  0
  161.9170  208.2060  156.7210 N   0  0  0  0  0  0  0  0  0  0  0  0
  161.1580  208.3900  155.6250 C   0  0  0  0  0  0  0  0  0  0  0  0
  162.0500  209.4640  157.2090 C   0  0  0  0  0  3  0  0  0  0  0  0
  160.0560  210.2370  154.4600 N   0  0  0  0  0  1  0  0  0  0  0  0
  160.8450  209.6820  155.4720 N   0  0  0  0  0  0  0  0  0  0  0  0
  160.8780  207.9470  151.7350 C   0  0  0  0  0  2  0  0  0  0  0  0
  162.0660  208.8860  151.6390 C   0  0  0  0  0  2  0  0  0  0  0  0
  162.2410  209.2730  150.3250 F   0  0  0  0  0  0  0  0  0  0  0  0
  1  6  1  0  0  0  0
  1  5  1  0  0  0  0
  2  3  1  0  0  0  0
  2  7  1  0  0  0  0
  3  9  2  0  0  0  0
  4  8  1  0  0  0  0
  5 11  1  1  0  0  0
  5  3  1  0  0  0  0
  6  2  1  0  0  0  0
  7  4  2  0  0  0  0
  8 14  1  0  0  0  0
  9  4  1  0  0  0  0
 10 11  1  0  0  0  0
 11 13  1  0  0  0  0
 11 12  1  0  0  0  0
 14 15  1  0  0  0  0
 15 16  1  0  0  0  0
 16 19  1  0  0  0  0
 17 20  2  0  0  0  0
 18 20  1  0  0  0  0
 19 18  2  0  0  0  0
 21 22  1  0  0  0  0
 22 19  1  0  0  0  0
 22 17  1  0  0  0  0
 23 14  1  0  0  0  0
 24 23  1  0  0  0  0
 25 24  1  0  0  0  0
M  END
>  <MODEL>
2

>  <REMARK>
 VINA RESULT:      -7.6      3.277      8.477
  Name = 
  7 active torsions:
  status: ('A' for Active; 'I' for Inactive)
    1  A    between atoms: C_6  and  C_10
    2  A    between atoms: C_6  and  C_14
    3  A    between atoms: C_8  and  C_11
    4  A    between atoms: C_14  and  N_23
    5  A    between atoms: C_16  and  C_18
    6  A    between atoms: C_18  and  N_23
    7  A    between atoms: N_21  and  N_23
                            x       y       z     vdW  Elec       q    Type
                         _______ _______ _______ _____ _____    ______ ____

>  <TORSDO>
F 7

$$$$
=
 OpenBabel11052410163D

 25 27  0  0  1  0  0  0  0  0999 V2000
  160.3140  210.6690  155.1230 S   0  0  0  0  0  0  0  0  0  0  0  0
  161.1400  209.4600  152.9320 N   0  0  0  0  0  0  0  0  0  0  0  0
  161.1880  208.5130  153.9600 C   0  0  0  0  0  0  0  0  0  0  0  0
  161.3730  207.3620  151.9990 C   0  0  0  0  0  0  0  0  0  0  0  0
  160.7630  208.9260  155.1400 C   0  0  2  0  0  3  0  0  0  0  0  0
  160.4510  210.6820  153.2890 C   0  0  0  0  0  2  0  0  0  0  0  0
  161.1380  208.8050  151.6410 C   0  0  0  0  0  3  0  0  0  0  0  0
  161.4530  206.3810  151.1480 N   0  0  0  0  0  2  0  0  0  0  0  0
  161.3900  207.1250  153.4770 C   0  0  0  0  0  3  0  0  0  0  0  0
  159.8300  206.8930  155.8850 F   0  0  0  0  0  0  0  0  0  0  0  0
  160.5100  208.0200  156.3100 C   0  0  0  0  0  0  0  0  0  0  0  0
  161.7070  207.6310  156.8810 F   0  0  0  0  0  0  0  0  0  0  0  0
  159.7540  208.6800  157.2610 F   0  0  0  0  0  0  0  0  0  0  0  0
  161.4460  206.5160  149.7450 N   0  0  0  0  0  0  0  0  0  0  0  0
  160.5110  205.7200  148.9690 C   0  0  0  0  0  2  0  0  0  0  0  0
  161.2680  204.7040  148.1330 C   0  0  0  0  0  2  0  0  0  0  0  0
  160.7450  201.1880  148.6870 N   0  0  0  0  0  0  0  0  0  0  0  0
  160.8820  203.0320  149.9600 N   0  0  0  0  0  0  0  0  0  0  0  0
  161.0090  203.3320  148.6540 C   0  0  0  0  0  0  0  0  0  0  0  0
  160.7140  201.6860  149.9440 C   0  0  0  0  0  3  0  0  0  0  0  0
  161.0430  202.1570  146.5090 N   0  0  0  0  0  1  0  0  0  0  0  0
  160.9330  202.2290  147.9010 N   0  0  0  0  0  0  0  0  0  0  0  0
  162.4620  207.2700  149.0170 C   0  0  0  0  0  2  0  0  0  0  0  0
  161.8120  208.3830  148.2160 C   0  0  0  0  0  2  0  0  0  0  0  0
  162.3330  209.5990  148.6130 F   0  0  0  0  0  0  0  0  0  0  0  0
  1  5  1  0  0  0  0
  2  6  1  0  0  0  0
  2  3  1  0  0  0  0
  3  5  1  0  0  0  0
  4  9  1  0  0  0  0
  5 11  1  6  0  0  0
  6  1  1  0  0  0  0
  7  4  2  0  0  0  0
  7  2  1  0  0  0  0
  8  4  1  0  0  0  0
  9  3  2  0  0  0  0
 10 11  1  0  0  0  0
 11 12  1  0  0  0  0
 11 13  1  0  0  0  0
 14  8  1  0  0  0  0
 15 14  1  0  0  0  0
 16 19  1  0  0  0  0
 16 15  1  0  0  0  0
 17 20  2  0  0  0  0
 19 18  2  0  0  0  0
 20 18  1  0  0  0  0
 21 22  1  0  0  0  0
 22 19  1  0  0  0  0
 22 17  1  0  0  0  0
 23 14  1  0  0  0  0
 24 25  1  0  0  0  0
 24 23  1  0  0  0  0
M  END
>  <MODEL>
3

>  <REMARK>
 VINA RESULT:      -7.5      2.544      3.790
  Name = 
  7 active torsions:
  status: ('A' for Active; 'I' for Inactive)
    1  A    between atoms: C_6  and  C_10
    2  A    between atoms: C_6  and  C_14
    3  A    between atoms: C_8  and  C_11
    4  A    between atoms: C_14  and  N_23
    5  A    between atoms: C_16  and  C_18
    6  A    between atoms: C_18  and  N_23
    7  A    between atoms: N_21  and  N_23
                            x       y       z     vdW  Elec       q    Type
                         _______ _______ _______ _____ _____    ______ ____

>  <TORSDO>
F 7

$$$$
=
 OpenBabel11052410163D

 25 27  0  0  1  0  0  0  0  0999 V2000
  160.6280  208.6950  157.2550 S   0  0  0  0  0  0  0  0  0  0  0  0
  160.4510  207.4130  154.9600 N   0  0  0  0  0  0  0  0  0  0  0  0
  160.8120  208.7310  154.6610 C   0  0  0  0  0  0  0  0  0  0  0  0
  161.1810  207.5050  152.7720 C   0  0  0  0  0  0  0  0  0  0  0  0
  160.9950  209.5240  155.7010 C   0  0  2  0  0  3  0  0  0  0  0  0
  160.5250  207.0870  156.3690 C   0  0  0  0  0  2  0  0  0  0  0  0
  160.7600  206.5400  153.8480 C   0  0  0  0  0  3  0  0  0  0  0  0
  161.5550  207.1750  151.5710 N   0  0  0  0  0  2  0  0  0  0  0  0
  161.2510  208.9200  153.2570 C   0  0  0  0  0  3  0  0  0  0  0  0
  160.8820  211.6720  154.7340 F   0  0  0  0  0  0  0  0  0  0  0  0
  161.6060  210.8930  155.6190 C   0  0  0  0  0  0  0  0  0  0  0  0
  161.5920  211.4980  156.8620 F   0  0  0  0  0  0  0  0  0  0  0  0
  162.9140  210.7990  155.1820 F   0  0  0  0  0  0  0  0  0  0  0  0
  161.5210  205.8710  151.0360 N   0  0  0  0  0  0  0  0  0  0  0  0
  160.6140  205.5880  149.9370 C   0  0  0  0  0  2  0  0  0  0  0  0
  161.2860  205.9170  148.6160 C   0  0  0  0  0  2  0  0  0  0  0  0
  161.6450  203.4470  146.0260 N   0  0  0  0  0  0  0  0  0  0  0  0
  161.0790  203.4550  148.1990 N   0  0  0  0  0  0  0  0  0  0  0  0
  161.3260  204.7020  147.7550 C   0  0  0  0  0  0  0  0  0  0  0  0
  161.2830  202.6970  147.0920 C   0  0  0  0  0  3  0  0  0  0  0  0
  162.0120  205.7960  145.6780 N   0  0  0  0  0  1  0  0  0  0  0  0
  161.6680  204.6900  146.4620 N   0  0  0  0  0  0  0  0  0  0  0  0
  162.2080  204.7430  151.6550 C   0  0  0  0  0  2  0  0  0  0  0  0
  161.3310  203.5060  151.6060 C   0  0  0  0  0  2  0  0  0  0  0  0
  160.4760  203.5050  152.6900 F   0  0  0  0  0  0  0  0  0  0  0  0
  2  6  1  0  0  0  0
  3  2  1  0  0  0  0
  3  5  1  0  0  0  0
  4  9  1  0  0  0  0
  4  7  2  0  0  0  0
  5 11  1  1  0  0  0
  5  1  1  0  0  0  0
  6  1  1  0  0  0  0
  7  2  1  0  0  0  0
  8  4  1  0  0  0  0
  9  3  2  0  0  0  0
 10 11  1  0  0  0  0
 11 12  1  0  0  0  0
 13 11  1  0  0  0  0
 14  8  1  0  0  0  0
 14 23  1  0  0  0  0
 15 14  1  0  0  0  0
 16 15  1  0  0  0  0
 17 22  1  0  0  0  0
 17 20  2  0  0  0  0
 19 18  2  0  0  0  0
 19 16  1  0  0  0  0
 20 18  1  0  0  0  0
 21 22  1  0  0  0  0
 22 19  1  0  0  0  0
 24 23  1  0  0  0  0
 24 25  1  0  0  0  0
M  END
>  <MODEL>
4

>  <REMARK>
 VINA RESULT:      -7.3      2.350      3.409
  Name = 
  7 active torsions:
  status: ('A' for Active; 'I' for Inactive)
    1  A    between atoms: C_6  and  C_10
    2  A    between atoms: C_6  and  C_14
    3  A    between atoms: C_8  and  C_11
    4  A    between atoms: C_14  and  N_23
    5  A    between atoms: C_16  and  C_18
    6  A    between atoms: C_18  and  N_23
    7  A    between atoms: N_21  and  N_23
                            x       y       z     vdW  Elec       q    Type
                         _______ _______ _______ _____ _____    ______ ____

>  <TORSDO>
F 7

$$$$
=
 OpenBabel11052410163D

 25 27  0  0  1  0  0  0  0  0999 V2000
  160.9950  202.7030  146.5640 S   0  0  0  0  0  0  0  0  0  0  0  0
  161.5490  204.2230  148.6450 N   0  0  0  0  0  0  0  0  0  0  0  0
  161.5760  205.0520  147.5190 C   0  0  0  0  0  0  0  0  0  0  0  0
  161.5150  206.4230  149.3410 C   0  0  0  0  0  0  0  0  0  0  0  0
  161.2750  204.4710  146.3720 C   0  0  2  0  0  3  0  0  0  0  0  0
  161.0060  202.9040  148.3910 C   0  0  0  0  0  2  0  0  0  0  0  0
  161.3950  205.0110  149.8480 C   0  0  0  0  0  3  0  0  0  0  0  0
  161.4400  207.4940  150.0760 N   0  0  0  0  0  2  0  0  0  0  0  0
  161.6100  206.4980  147.8490 C   0  0  0  0  0  3  0  0  0  0  0  0
  160.6940  204.3150  144.0910 F   0  0  0  0  0  0  0  0  0  0  0  0
  161.0170  205.2130  145.0920 C   0  0  0  0  0  0  0  0  0  0  0  0
  159.9660  206.0970  145.2560 F   0  0  0  0  0  0  0  0  0  0  0  0
  162.1450  205.9230  144.7250 F   0  0  0  0  0  0  0  0  0  0  0  0
  161.3510  207.5130  151.4830 N   0  0  0  0  0  0  0  0  0  0  0  0
  160.6310  208.5990  152.1240 C   0  0  0  0  0  2  0  0  0  0  0  0
  161.6150  209.5900  152.7190 C   0  0  0  0  0  2  0  0  0  0  0  0
  160.4220  212.0440  155.0630 N   0  0  0  0  0  0  0  0  0  0  0  0
  159.7450  211.2170  153.0900 N   0  0  0  0  0  0  0  0  0  0  0  0
  160.8790  210.6210  153.5040 C   0  0  0  0  0  0  0  0  0  0  0  0
  159.4860  212.0960  154.0900 C   0  0  0  0  0  3  0  0  0  0  0  0
  162.4250  210.7580  155.3940 N   0  0  0  0  0  1  0  0  0  0  0  0
  161.2810  211.1220  154.6770 N   0  0  0  0  0  0  0  0  0  0  0  0
  162.1070  206.6030  152.3370 C   0  0  0  0  0  2  0  0  0  0  0  0
  161.2090  206.0380  153.4220 C   0  0  0  0  0  2  0  0  0  0  0  0
  161.0810  204.6740  153.2490 F   0  0  0  0  0  0  0  0  0  0  0  0
  1  6  1  0  0  0  0
  2  7  1  0  0  0  0
  3  9  2  0  0  0  0
  3  2  1  0  0  0  0
  4  7  2  0  0  0  0
  4  8  1  0  0  0  0
  5 11  1  1  0  0  0
  5  1  1  0  0  0  0
  5  3  1  0  0  0  0
  6  2  1  0  0  0  0
  8 14  1  0  0  0  0
  9  4  1  0  0  0  0
 10 11  1  0  0  0  0
 11 12  1  0  0  0  0
 13 11  1  0  0  0  0
 14 15  1  0  0  0  0
 14 23  1  0  0  0  0
 15 16  1  0  0  0  0
 16 19  1  0  0  0  0
 18 19  2  0  0  0  0
 18 20  1  0  0  0  0
 19 22  1  0  0  0  0
 20 17  2  0  0  0  0
 22 17  1  0  0  0  0
 22 21  1  0  0  0  0
 23 24  1  0  0  0  0
 25 24  1  0  0  0  0
M  END
>  <MODEL>
5

>  <REMARK>
 VINA RESULT:      -7.3      3.923      8.487
  Name = 
  7 active torsions:
  status: ('A' for Active; 'I' for Inactive)
    1  A    between atoms: C_6  and  C_10
    2  A    between atoms: C_6  and  C_14
    3  A    between atoms: C_8  and  C_11
    4  A    between atoms: C_14  and  N_23
    5  A    between atoms: C_16  and  C_18
    6  A    between atoms: C_18  and  N_23
    7  A    between atoms: N_21  and  N_23
                            x       y       z     vdW  Elec       q    Type
                         _______ _______ _______ _____ _____    ______ ____

>  <TORSDO>
F 7

$$$$
=
 OpenBabel11052410163D

 25 27  0  0  1  0  0  0  0  0999 V2000
  160.8640  202.8250  148.2660 S   0  0  0  0  0  0  0  0  0  0  0  0
  161.6510  205.1530  149.2200 N   0  0  0  0  0  0  0  0  0  0  0  0
  161.9530  205.1520  147.8540 C   0  0  0  0  0  0  0  0  0  0  0  0
  162.1240  207.3140  148.5630 C   0  0  0  0  0  0  0  0  0  0  0  0
  161.5870  204.0720  147.1880 C   0  0  2  0  0  3  0  0  0  0  0  0
  160.8140  204.0480  149.6380 C   0  0  0  0  0  2  0  0  0  0  0  0
  161.6250  206.5060  149.7310 C   0  0  0  0  0  3  0  0  0  0  0  0
  162.2740  208.6060  148.5520 N   0  0  0  0  0  2  0  0  0  0  0  0
  162.3260  206.4880  147.3300 C   0  0  0  0  0  3  0  0  0  0  0  0
  160.8010  204.9490  145.1440 F   0  0  0  0  0  0  0  0  0  0  0  0
  161.6010  203.9610  145.6900 C   0  0  0  0  0  0  0  0  0  0  0  0
  162.8890  204.1120  145.2110 F   0  0  0  0  0  0  0  0  0  0  0  0
  161.1240  202.7210  145.3070 F   0  0  0  0  0  0  0  0  0  0  0  0
  162.1060  209.4550  149.6640 N   0  0  0  0  0  0  0  0  0  0  0  0
  162.2770  208.9060  150.9980 C   0  0  0  0  0  2  0  0  0  0  0  0
  161.2320  209.4850  151.9330 C   0  0  0  0  0  2  0  0  0  0  0  0
  161.0190  208.0940  155.2440 N   0  0  0  0  0  0  0  0  0  0  0  0
  160.8900  207.3160  153.1420 N   0  0  0  0  0  0  0  0  0  0  0  0
  161.1280  208.6410  153.1570 C   0  0  0  0  0  0  0  0  0  0  0  0
  160.8320  207.0070  154.4620 C   0  0  0  0  0  3  0  0  0  0  0  0
  161.4110  210.4240  154.8070 N   0  0  0  0  0  1  0  0  0  0  0  0
  161.1980  209.1000  154.4110 N   0  0  0  0  0  0  0  0  0  0  0  0
  161.5800  210.8120  149.5520 C   0  0  0  0  0  2  0  0  0  0  0  0
  162.0630  211.4550  148.2650 C   0  0  0  0  0  2  0  0  0  0  0  0
  163.2760  212.0760  148.4900 F   0  0  0  0  0  0  0  0  0  0  0  0
  1  6  1  0  0  0  0
  2  6  1  0  0  0  0
  2  7  1  0  0  0  0
  3  2  1  0  0  0  0
  4  7  2  0  0  0  0
  5 11  1  6  0  0  0
  5  3  1  0  0  0  0
  5  1  1  0  0  0  0
  8  4  1  0  0  0  0
  8 14  1  0  0  0  0
  9  3  2  0  0  0  0
  9  4  1  0  0  0  0
 10 11  1  0  0  0  0
 12 11  1  0  0  0  0
 13 11  1  0  0  0  0
 14 15  1  0  0  0  0
 15 16  1  0  0  0  0
 16 19  1  0  0  0  0
 18 19  2  0  0  0  0
 18 20  1  0  0  0  0
 19 22  1  0  0  0  0
 20 17  2  0  0  0  0
 22 21  1  0  0  0  0
 22 17  1  0  0  0  0
 23 14  1  0  0  0  0
 24 25  1  0  0  0  0
 24 23  1  0  0  0  0
M  END
>  <MODEL>
6

>  <REMARK>
 VINA RESULT:      -7.2      4.174      8.489
  Name = 
  7 active torsions:
  status: ('A' for Active; 'I' for Inactive)
    1  A    between atoms: C_6  and  C_10
    2  A    between atoms: C_6  and  C_14
    3  A    between atoms: C_8  and  C_11
    4  A    between atoms: C_14  and  N_23
    5  A    between atoms: C_16  and  C_18
    6  A    between atoms: C_18  and  N_23
    7  A    between atoms: N_21  and  N_23
                            x       y       z     vdW  Elec       q    Type
                         _______ _______ _______ _____ _____    ______ ____

>  <TORSDO>
F 7

$$$$
=
 OpenBabel11052410163D

 25 27  0  0  1  0  0  0  0  0999 V2000
  161.3900  202.8940  146.7640 S   0  0  0  0  0  0  0  0  0  0  0  0
  161.2080  205.3270  147.7610 N   0  0  0  0  0  0  0  0  0  0  0  0
  160.8180  204.4440  148.7730 C   0  0  0  0  0  0  0  0  0  0  0  0
  161.1810  206.4640  149.7690 C   0  0  0  0  0  0  0  0  0  0  0  0
  160.8870  203.1600  148.4710 C   0  0  2  0  0  3  0  0  0  0  0  0
  161.8070  204.6780  146.6130 C   0  0  0  0  0  2  0  0  0  0  0  0
  161.5690  206.6100  148.3220 C   0  0  0  0  0  3  0  0  0  0  0  0
  161.3200  207.3810  150.6810 N   0  0  0  0  0  2  0  0  0  0  0  0
  160.7140  205.0830  150.1080 C   0  0  0  0  0  3  0  0  0  0  0  0
  161.3860  200.9180  149.0050 F   0  0  0  0  0  0  0  0  0  0  0  0
  160.7430  202.0500  149.4720 C   0  0  0  0  0  0  0  0  0  0  0  0
  161.3070  202.4180  150.6800 F   0  0  0  0  0  0  0  0  0  0  0  0
  159.4040  201.7670  149.6710 F   0  0  0  0  0  0  0  0  0  0  0  0
  161.7500  208.7030  150.4480 N   0  0  0  0  0  0  0  0  0  0  0  0
  161.7260  209.6520  151.5480 C   0  0  0  0  0  2  0  0  0  0  0  0
  160.4790  209.4390  152.3860 C   0  0  0  0  0  2  0  0  0  0  0  0
  161.4790  208.5900  155.7360 N   0  0  0  0  0  0  0  0  0  0  0  0
  160.9600  210.4680  154.6200 N   0  0  0  0  0  0  0  0  0  0  0  0
  160.8450  209.3840  153.8290 C   0  0  0  0  0  0  0  0  0  0  0  0
  161.3530  209.9350  155.8040 C   0  0  0  0  0  3  0  0  0  0  0  0
  161.1750  206.9660  153.9910 N   0  0  0  0  0  1  0  0  0  0  0  0
  161.1620  208.2690  154.4980 N   0  0  0  0  0  0  0  0  0  0  0  0
  162.0360  209.2200  149.1140 C   0  0  0  0  0  2  0  0  0  0  0  0
  161.9970  210.7360  149.1210 C   0  0  0  0  0  2  0  0  0  0  0  0
  162.9160  211.2240  148.2120 F   0  0  0  0  0  0  0  0  0  0  0  0
  1  5  1  0  0  0  0
  2  7  1  0  0  0  0
  2  3  1  0  0  0  0
  3  9  2  0  0  0  0
  4  9  1  0  0  0  0
  4  8  1  0  0  0  0
  5  3  1  0  0  0  0
  5 11  1  1  0  0  0
  6  1  1  0  0  0  0
  6  2  1  0  0  0  0
  7  4  2  0  0  0  0
 10 11  1  0  0  0  0
 11 13  1  0  0  0  0
 11 12  1  0  0  0  0
 14  8  1  0  0  0  0
 14 15  1  0  0  0  0
 15 16  1  0  0  0  0
 16 19  1  0  0  0  0
 17 20  2  0  0  0  0
 18 20  1  0  0  0  0
 19 22  1  0  0  0  0
 19 18  2  0  0  0  0
 21 22  1  0  0  0  0
 22 17  1  0  0  0  0
 23 24  1  0  0  0  0
 23 14  1  0  0  0  0
 25 24  1  0  0  0  0
M  END
>  <MODEL>
7

>  <REMARK>
 VINA RESULT:      -7.2      3.672      7.962
  Name = 
  7 active torsions:
  status: ('A' for Active; 'I' for Inactive)
    1  A    between atoms: C_6  and  C_10
    2  A    between atoms: C_6  and  C_14
    3  A    between atoms: C_8  and  C_11
    4  A    between atoms: C_14  and  N_23
    5  A    between atoms: C_16  and  C_18
    6  A    between atoms: C_18  and  N_23
    7  A    between atoms: N_21  and  N_23
                            x       y       z     vdW  Elec       q    Type
                         _______ _______ _______ _____ _____    ______ ____

>  <TORSDO>
F 7

$$$$
=
 OpenBabel11052410163D

 25 27  0  0  1  0  0  0  0  0999 V2000
  161.1290  207.4640  153.4480 S   0  0  0  0  0  0  0  0  0  0  0  0
  160.9810  206.5490  150.9810 N   0  0  0  0  0  0  0  0  0  0  0  0
  161.2440  207.9200  150.8890 C   0  0  0  0  0  0  0  0  0  0  0  0
  161.6470  207.0350  148.8260 C   0  0  0  0  0  0  0  0  0  0  0  0
  161.3990  208.5510  152.0390 C   0  0  2  0  0  3  0  0  0  0  0  0
  161.1130  206.0120  152.3200 C   0  0  0  0  0  2  0  0  0  0  0  0
  161.3200  205.8860  149.7410 C   0  0  0  0  0  3  0  0  0  0  0  0
  162.0120  206.9250  147.5820 N   0  0  0  0  0  2  0  0  0  0  0  0
  161.6330  208.3570  149.5270 C   0  0  0  0  0  3  0  0  0  0  0  0
  161.0640  210.8230  151.5040 F   0  0  0  0  0  0  0  0  0  0  0  0
  161.9140  209.9560  152.1670 C   0  0  0  0  0  0  0  0  0  0  0  0
  161.9770  210.3230  153.4980 F   0  0  0  0  0  0  0  0  0  0  0  0
  163.1790  210.0440  151.6170 F   0  0  0  0  0  0  0  0  0  0  0  0
  162.0520  205.7220  146.8470 N   0  0  0  0  0  0  0  0  0  0  0  0
  162.3440  204.4830  147.5470 C   0  0  0  0  0  2  0  0  0  0  0  0
  161.4010  203.3910  147.0780 C   0  0  0  0  0  2  0  0  0  0  0  0
  160.8830  200.6240  149.3180 N   0  0  0  0  0  0  0  0  0  0  0  0
  160.8180  202.8630  149.4580 N   0  0  0  0  0  0  0  0  0  0  0  0
  161.1060  202.4620  148.2050 C   0  0  0  0  0  0  0  0  0  0  0  0
  160.6810  201.6900  150.1250 C   0  0  0  0  0  3  0  0  0  0  0  0
  161.4400  200.3630  146.9950 N   0  0  0  0  0  1  0  0  0  0  0  0
  161.1500  201.1270  148.1300 N   0  0  0  0  0  0  0  0  0  0  0  0
  162.0060  205.6830  145.3900 C   0  0  0  0  0  2  0  0  0  0  0  0
  160.5850  205.9040  144.9060 C   0  0  0  0  0  2  0  0  0  0  0  0
  159.7790  206.2250  145.9800 F   0  0  0  0  0  0  0  0  0  0  0  0
  2  6  1  0  0  0  0
  3  2  1  0  0  0  0
  3  5  1  0  0  0  0
  4  9  1  0  0  0  0
  4  7  2  0  0  0  0
  5 11  1  1  0  0  0
  5  1  1  0  0  0  0
  6  1  1  0  0  0  0
  7  2  1  0  0  0  0
  8  4  1  0  0  0  0
  9  3  2  0  0  0  0
 10 11  1  0  0  0  0
 11 12  1  0  0  0  0
 13 11  1  0  0  0  0
 14 15  1  0  0  0  0
 14  8  1  0  0  0  0
 16 15  1  0  0  0  0
 16 19  1  0  0  0  0
 17 20  2  0  0  0  0
 18 20  1  0  0  0  0
 19 18  2  0  0  0  0
 21 22  1  0  0  0  0
 22 19  1  0  0  0  0
 22 17  1  0  0  0  0
 23 14  1  0  0  0  0
 24 23  1  0  0  0  0
 24 25  1  0  0  0  0
M  END
>  <MODEL>
8

>  <REMARK>
 VINA RESULT:      -7.2      2.492      4.163
  Name = 
  7 active torsions:
  status: ('A' for Active; 'I' for Inactive)
    1  A    between atoms: C_6  and  C_10
    2  A    between atoms: C_6  and  C_14
    3  A    between atoms: C_8  and  C_11
    4  A    between atoms: C_14  and  N_23
    5  A    between atoms: C_16  and  C_18
    6  A    between atoms: C_18  and  N_23
    7  A    between atoms: N_21  and  N_23
                            x       y       z     vdW  Elec       q    Type
                         _______ _______ _______ _____ _____    ______ ____

>  <TORSDO>
F 7

$$$$
=
 OpenBabel11052410163D

 25 27  0  0  1  0  0  0  0  0999 V2000
  161.2170  208.4610  155.0150 S   0  0  0  0  0  0  0  0  0  0  0  0
  160.7450  206.5640  153.2480 N   0  0  0  0  0  0  0  0  0  0  0  0
  160.9050  207.7540  152.5310 C   0  0  0  0  0  0  0  0  0  0  0  0
  161.0370  206.0540  151.0160 C   0  0  0  0  0  0  0  0  0  0  0  0
  161.1950  208.8220  153.2510 C   0  0  2  0  0  3  0  0  0  0  0  0
  161.1170  206.6630  154.6440 C   0  0  0  0  0  2  0  0  0  0  0  0
  160.9290  205.4220  152.3780 C   0  0  0  0  0  3  0  0  0  0  0  0
  161.2110  205.4080  149.9000 N   0  0  0  0  0  2  0  0  0  0  0  0
  161.0490  207.5500  151.0690 C   0  0  0  0  0  3  0  0  0  0  0  0
  161.7700  211.0680  153.6850 F   0  0  0  0  0  0  0  0  0  0  0  0
  161.6340  210.1360  152.6720 C   0  0  0  0  0  0  0  0  0  0  0  0
  162.8500  209.9930  152.0300 F   0  0  0  0  0  0  0  0  0  0  0  0
  160.6960  210.5840  151.7600 F   0  0  0  0  0  0  0  0  0  0  0  0
  161.2130  204.0050  149.7620 N   0  0  0  0  0  0  0  0  0  0  0  0
  161.2470  203.4330  148.4270 C   0  0  0  0  0  2  0  0  0  0  0  0
  162.1980  204.2260  147.5500 C   0  0  0  0  0  2  0  0  0  0  0  0
  160.4790  205.9570  144.9060 N   0  0  0  0  0  0  0  0  0  0  0  0
  161.3280  203.9030  145.2220 N   0  0  0  0  0  0  0  0  0  0  0  0
  161.4910  204.6710  146.3150 C   0  0  0  0  0  0  0  0  0  0  0  0
  160.6890  204.7360  144.3630 C   0  0  0  0  0  3  0  0  0  0  0  0
  160.9980  206.9580  147.0270 N   0  0  0  0  0  1  0  0  0  0  0  0
  160.9880  205.8950  146.1190 N   0  0  0  0  0  0  0  0  0  0  0  0
  160.9870  203.0990  150.8830 C   0  0  0  0  0  2  0  0  0  0  0  0
  161.1710  201.6600  150.4370 C   0  0  0  0  0  2  0  0  0  0  0  0
  159.9360  201.0940  150.1900 F   0  0  0  0  0  0  0  0  0  0  0  0
  2  6  1  0  0  0  0
  3  2  1  0  0  0  0
  3  5  1  0  0  0  0
  4  9  1  0  0  0  0
  4  7  2  0  0  0  0
  5 11  1  6  0  0  0
  5  1  1  0  0  0  0
  6  1  1  0  0  0  0
  7  2  1  0  0  0  0
  8  4  1  0  0  0  0
  9  3  2  0  0  0  0
 11 10  1  0  0  0  0
 12 11  1  0  0  0  0
 13 11  1  0  0  0  0
 14  8  1  0  0  0  0
 14 23  1  0  0  0  0
 15 14  1  0  0  0  0
 16 15  1  0  0  0  0
 17 22  1  0  0  0  0
 18 19  2  0  0  0  0
 19 16  1  0  0  0  0
 20 17  2  0  0  0  0
 20 18  1  0  0  0  0
 22 19  1  0  0  0  0
 22 21  1  0  0  0  0
 24 23  1  0  0  0  0
 25 24  1  0  0  0  0
M  END
>  <MODEL>
9

>  <REMARK>
 VINA RESULT:      -7.2      1.874      2.579
  Name = 
  7 active torsions:
  status: ('A' for Active; 'I' for Inactive)
    1  A    between atoms: C_6  and  C_10
    2  A    between atoms: C_6  and  C_14
    3  A    between atoms: C_8  and  C_11
    4  A    between atoms: C_14  and  N_23
    5  A    between atoms: C_16  and  C_18
    6  A    between atoms: C_18  and  N_23
    7  A    between atoms: N_21  and  N_23
                            x       y       z     vdW  Elec       q    Type
                         _______ _______ _______ _____ _____    ______ ____

>  <TORSDO>
F 7

$$$$
