=
 OpenBabel11042422003D

 46 48  0  0  1  0  0  0  0  0999 V2000
  162.3190  208.6520  149.8400 C   0  0  0  0  0  0  0  0  0  0  0  0
  161.5260  211.6010  152.1000 C   0  0  0  0  0  1  0  0  0  0  0  0
  162.1300  209.4380  150.9900 C   0  0  0  0  0  0  0  0  0  0  0  0
  162.3190  208.8780  152.2500 O   0  0  0  0  0  1  0  0  0  0  0  0
  161.5390  211.3400  149.5890 C   0  0  0  0  0  0  0  0  0  0  0  0
  162.1220  209.2110  148.5750 C   0  0  0  0  0  3  0  0  0  0  0  0
  161.7400  210.7820  150.8670 C   0  0  0  0  0  0  0  0  0  0  0  0
  161.7360  210.5450  148.4510 C   0  0  0  0  0  3  0  0  0  0  0  0
  162.6520  207.1990  149.9570 C   0  0  0  0  0  2  0  0  0  0  0  0
  160.6620  205.6340  149.5310 C   0  0  2  0  0  3  0  0  0  0  0  0
  161.4870  206.4020  150.5580 C   0  0  1  0  0  3  0  0  0  0  0  0
  160.0100  204.5320  150.3450 C   0  0  0  0  0  2  0  0  0  0  0  0
  160.9700  204.2100  151.4800 C   0  0  0  0  0  2  0  0  0  0  0  0
  161.9270  205.3850  151.6000 C   0  0  2  0  0  3  0  0  0  0  0  0
  161.8330  205.9970  152.9870 C   0  0  0  0  0  2  0  0  0  0  0  0
  160.5260  206.7490  153.1370 C   0  0  0  0  0  2  0  0  0  0  0  0
  160.6520  207.6950  154.1520 O   0  0  0  0  0  0  0  0  0  0  0  0
  160.2620  207.0210  155.3090 C   0  0  0  0  0  1  0  0  0  0  0  0
  161.5280  205.0040  148.4380 C   0  0  0  0  0  2  0  0  0  0  0  0
  160.9420  206.7720  146.9560 O   0  0  0  0  0  1  0  0  0  0  0  0
  161.0210  205.3800  147.0530 C   0  0  1  0  0  3  0  0  0  0  0  0
  162.2180  205.8270  145.0300 O   0  0  0  0  0  1  0  0  0  0  0  0
  161.9460  204.8290  145.9670 C   0  0  2  0  0  3  0  0  0  0  0  0
  161.2930  203.6570  145.2490 C   0  0  0  0  0  2  0  0  0  0  0  0
  161.0010  202.5280  146.2260 C   0  0  0  0  0  2  0  0  0  0  0  0
  160.0150  201.5780  145.6330 C   0  0  0  0  0  3  0  0  0  0  0  0
  160.3970  200.6560  144.9290 O   0  0  0  0  0  0  0  0  0  0  0  0
  161.0880  212.7680  149.4420 C   0  0  2  0  0  3  0  0  0  0  0  0
  158.0510  214.4530  154.0410 O   0  0  0  0  0  0  0  0  0  0  0  0
  157.1790  213.8010  151.9150 C   0  0  0  0  0  0  0  0  0  0  0  0
  158.9990  213.3140  150.6840 C   0  0  0  0  0  0  0  0  0  0  0  0
  159.8770  213.7880  152.1860 S   0  0  0  0  0  0  0  0  0  0  0  0
  157.5780  213.3970  150.7550 N   0  0  0  0  0  0  0  0  0  0  0  0
  159.6000  212.8820  149.5780 C   0  0  0  0  0  3  0  0  0  0  0  0
  158.2490  214.0670  152.8610 C   0  0  0  0  0  0  0  0  0  0  0  0
  155.8310  213.9660  152.2350 O   0  0  0  0  0  0  0  0  0  0  0  0
  155.2260  213.2750  153.3180 C   0  0  0  0  0  2  0  0  0  0  0  0
  154.3040  214.2150  154.0660 C   0  0  0  0  0  1  0  0  0  0  0  0
  161.5880  213.3860  148.1650 C   0  0  0  0  0  0  0  0  0  0  0  0
  159.7050  212.5000  147.0550 O   0  0  0  0  0  1  0  0  0  0  0  0
  162.7630  214.1330  148.2000 O   0  0  0  0  0  1  0  0  0  0  0  0
  160.8930  213.2280  147.0240 C   0  0  0  0  0  0  0  0  0  0  0  0
  162.5450  214.1530  145.5050 N   0  0  0  0  0  2  0  0  0  0  0  0
  161.3220  213.7940  145.7200 C   0  0  0  0  0  0  0  0  0  0  0  0
  160.3640  213.8130  144.5770 C   0  0  0  0  0  2  0  0  0  0  0  0
  161.0580  214.0050  143.3830 O   0  0  0  0  0  1  0  0  0  0  0  0
  1  9  1  0  0  0  0
  1  3  1  0  0  0  0
  3  4  1  0  0  0  0
  5  7  1  0  0  0  0
  6  1  2  0  0  0  0
  7  3  2  0  0  0  0
  7  2  1  0  0  0  0
  8  6  1  0  0  0  0
  8  5  2  0  0  0  0
 10 19  1  6  0  0  0
 10 12  1  0  0  0  0
 10 11  1  0  0  0  0
 11  9  1  6  0  0  0
 11 14  1  0  0  0  0
 12 13  1  0  0  0  0
 13 14  1  0  0  0  0
 14 15  1  1  0  0  0
 15 16  1  0  0  0  0
 16 17  1  0  0  0  0
 17 18  1  0  0  0  0
 21 20  1  1  0  0  0
 21 19  1  0  0  0  0
 23 22  1  6  0  0  0
 23 21  1  0  0  0  0
 24 23  1  0  0  0  0
 24 25  1  0  0  0  0
 26 25  1  0  0  0  0
 27 26  2  0  0  0  0
 28 34  1  6  0  0  0
 28  5  1  0  0  0  0
 30 36  1  0  0  0  0
 30 35  1  0  0  0  0
 31 33  1  0  0  0  0
 31 32  1  0  0  0  0
 32 35  1  0  0  0  0
 33 30  2  0  0  0  0
 34 31  2  0  0  0  0
 35 29  2  0  0  0  0
 36 37  1  0  0  0  0
 37 38  1  0  0  0  0
 39 41  1  0  0  0  0
 39 28  1  0  0  0  0
 42 40  1  0  0  0  0
 42 39  2  0  0  0  0
 43 44  2  0  0  0  0
 44 42  1  0  0  0  0
 45 44  1  0  0  0  0
 46 45  1  0  0  0  0
M  END
>  <MODEL>
1

>  <REMARK>
 VINA RESULT:      -5.1      0.000      0.000
  Name = 
  18 active torsions:
  status: ('A' for Active; 'I' for Inactive)
    1  A    between atoms: C_1  and  C_21
    2  A    between atoms: C_3  and  C_11
    3  A    between atoms: C_3  and  C_22
    4  A    between atoms: C_3  and  C_38
    5  A    between atoms: C_4  and  C_23
    6  A    between atoms: C_5  and  C_18
    7  A    between atoms: C_6  and  C_21
    8  A    between atoms: O_8  and  C_14
    9  A    between atoms: O_8  and  C_26
   10  A    between atoms: O_13  and  C_35
   11  A    between atoms: C_18  and  C_45
   12  A    between atoms: C_23  and  C_30
   13  A    between atoms: C_27  and  C_34
   14  A    between atoms: C_27  and  C_40
   15  A    between atoms: C_28  and  C_34
   16  A    between atoms: C_30  and  C_40
   17  A    between atoms: C_31  and  C_33
   18  A    between atoms: C_31  and  C_35
                            x       y       z     vdW  Elec       q    Type
                         _______ _______ _______ _____ _____    ______ ____

>  <TORSDO>
F 18

$$$$
=
 OpenBabel11042422003D

 46 48  0  0  1  0  0  0  0  0999 V2000
  159.9680  210.2140  153.4120 C   0  0  0  0  0  0  0  0  0  0  0  0
  161.8380  210.3340  150.1080 C   0  0  0  0  0  1  0  0  0  0  0  0
  160.5770  210.6970  152.2420 C   0  0  0  0  0  0  0  0  0  0  0  0
  160.5440  212.0590  151.9550 O   0  0  0  0  0  1  0  0  0  0  0  0
  161.2300  208.4280  151.6470 C   0  0  0  0  0  0  0  0  0  0  0  0
  159.9940  208.8460  153.6970 C   0  0  0  0  0  3  0  0  0  0  0  0
  161.2090  209.8060  151.3570 C   0  0  0  0  0  0  0  0  0  0  0  0
  160.6220  207.9600  152.8220 C   0  0  0  0  0  3  0  0  0  0  0  0
  159.2200  211.1380  154.3190 C   0  0  0  0  0  2  0  0  0  0  0  0
  159.5000  213.3970  155.5060 C   0  0  2  0  0  3  0  0  0  0  0  0
  160.1670  212.1100  155.0360 C   0  0  1  0  0  3  0  0  0  0  0  0
  160.4020  213.8810  156.6260 C   0  0  0  0  0  2  0  0  0  0  0  0
  161.0110  212.6380  157.2570 C   0  0  0  0  0  2  0  0  0  0  0  0
  160.8380  211.5040  156.2590 C   0  0  2  0  0  3  0  0  0  0  0  0
  162.1930  210.9360  155.8740 C   0  0  0  0  0  2  0  0  0  0  0  0
  162.5370  209.7600  156.7670 C   0  0  0  0  0  2  0  0  0  0  0  0
  161.3640  209.1270  157.1710 O   0  0  0  0  0  0  0  0  0  0  0  0
  161.5630  207.7830  156.8540 C   0  0  0  0  0  1  0  0  0  0  0  0
  158.0950  213.1580  156.0630 C   0  0  0  0  0  2  0  0  0  0  0  0
  157.3760  213.9800  153.9480 O   0  0  0  0  0  1  0  0  0  0  0  0
  157.0600  213.9810  155.3090 C   0  0  1  0  0  3  0  0  0  0  0  0
  154.7040  214.3570  155.1200 O   0  0  0  0  0  1  0  0  0  0  0  0
  155.6550  213.4170  155.5230 C   0  0  2  0  0  3  0  0  0  0  0  0
  155.4230  213.0960  156.9930 C   0  0  0  0  0  2  0  0  0  0  0  0
  155.4510  211.5930  157.2210 C   0  0  0  0  0  2  0  0  0  0  0  0
  155.0590  210.8760  155.9720 C   0  0  0  0  0  3  0  0  0  0  0  0
  155.9150  210.4160  155.2340 O   0  0  0  0  0  0  0  0  0  0  0  0
  161.8710  207.4570  150.6940 C   0  0  2  0  0  3  0  0  0  0  0  0
  163.4360  204.7880  145.8320 O   0  0  0  0  0  0  0  0  0  0  0  0
  161.4720  206.1050  146.1690 C   0  0  0  0  0  0  0  0  0  0  0  0
  161.5960  206.7630  148.3180 C   0  0  0  0  0  0  0  0  0  0  0  0
  163.1180  205.7960  148.3010 S   0  0  0  0  0  0  0  0  0  0  0  0
  160.8770  206.7900  147.0880 N   0  0  0  0  0  0  0  0  0  0  0  0
  161.1590  207.4420  149.3750 C   0  0  0  0  0  3  0  0  0  0  0  0
  162.7140  205.4810  146.5930 C   0  0  0  0  0  0  0  0  0  0  0  0
  160.9650  205.9750  144.8750 O   0  0  0  0  0  0  0  0  0  0  0  0
  159.8690  205.1220  144.5810 C   0  0  0  0  0  2  0  0  0  0  0  0
  160.3300  203.6800  144.6050 C   0  0  0  0  0  1  0  0  0  0  0  0
  161.9890  206.0800  151.2880 C   0  0  0  0  0  0  0  0  0  0  0  0
  159.9160  205.5310  150.3050 O   0  0  0  0  0  1  0  0  0  0  0  0
  163.1270  205.7680  152.0280 O   0  0  0  0  0  1  0  0  0  0  0  0
  161.0160  205.1740  151.0850 C   0  0  0  0  0  0  0  0  0  0  0  0
  161.1280  203.5860  152.9160 N   0  0  0  0  0  2  0  0  0  0  0  0
  161.0480  203.8000  151.6440 C   0  0  0  0  0  0  0  0  0  0  0  0
  160.8330  202.6330  150.7400 C   0  0  0  0  0  2  0  0  0  0  0  0
  161.3620  202.9100  149.4790 O   0  0  0  0  0  1  0  0  0  0  0  0
  1  6  1  0  0  0  0
  1  9  1  0  0  0  0
  2  7  1  0  0  0  0
  3  1  2  0  0  0  0
  4  3  1  0  0  0  0
  5  8  1  0  0  0  0
  7  5  2  0  0  0  0
  7  3  1  0  0  0  0
  8  6  2  0  0  0  0
 10 19  1  1  0  0  0
 10 12  1  0  0  0  0
 11  9  1  1  0  0  0
 11 10  1  0  0  0  0
 11 14  1  0  0  0  0
 12 13  1  0  0  0  0
 14 15  1  6  0  0  0
 14 13  1  0  0  0  0
 15 16  1  0  0  0  0
 16 17  1  0  0  0  0
 18 17  1  0  0  0  0
 21 20  1  6  0  0  0
 21 23  1  0  0  0  0
 21 19  1  0  0  0  0
 23 22  1  1  0  0  0
 23 24  1  0  0  0  0
 24 25  1  0  0  0  0
 26 25  1  0  0  0  0
 27 26  2  0  0  0  0
 28 34  1  6  0  0  0
 28 39  1  0  0  0  0
 28  5  1  0  0  0  0
 29 35  2  0  0  0  0
 30 35  1  0  0  0  0
 30 33  2  0  0  0  0
 31 34  2  0  0  0  0
 32 31  1  0  0  0  0
 33 31  1  0  0  0  0
 35 32  1  0  0  0  0
 36 30  1  0  0  0  0
 37 38  1  0  0  0  0
 37 36  1  0  0  0  0
 39 41  1  0  0  0  0
 40 42  1  0  0  0  0
 42 39  2  0  0  0  0
 42 44  1  0  0  0  0
 44 43  2  0  0  0  0
 45 44  1  0  0  0  0
 46 45  1  0  0  0  0
M  END
>  <MODEL>
2

>  <REMARK>
 VINA RESULT:      -4.8      3.637     10.034
  Name = 
  18 active torsions:
  status: ('A' for Active; 'I' for Inactive)
    1  A    between atoms: C_1  and  C_21
    2  A    between atoms: C_3  and  C_11
    3  A    between atoms: C_3  and  C_22
    4  A    between atoms: C_3  and  C_38
    5  A    between atoms: C_4  and  C_23
    6  A    between atoms: C_5  and  C_18
    7  A    between atoms: C_6  and  C_21
    8  A    between atoms: O_8  and  C_14
    9  A    between atoms: O_8  and  C_26
   10  A    between atoms: O_13  and  C_35
   11  A    between atoms: C_18  and  C_45
   12  A    between atoms: C_23  and  C_30
   13  A    between atoms: C_27  and  C_34
   14  A    between atoms: C_27  and  C_40
   15  A    between atoms: C_28  and  C_34
   16  A    between atoms: C_30  and  C_40
   17  A    between atoms: C_31  and  C_33
   18  A    between atoms: C_31  and  C_35
                            x       y       z     vdW  Elec       q    Type
                         _______ _______ _______ _____ _____    ______ ____

>  <TORSDO>
F 18

$$$$
=
 OpenBabel11042422003D

 46 48  0  0  1  0  0  0  0  0999 V2000
  161.2800  213.1810  148.2420 C   0  0  0  0  0  0  0  0  0  0  0  0
  160.4770  212.3090  151.8510 C   0  0  0  0  0  1  0  0  0  0  0  0
  160.8150  213.2750  149.5640 C   0  0  0  0  0  0  0  0  0  0  0  0
  160.2180  214.4530  150.0070 O   0  0  0  0  0  1  0  0  0  0  0  0
  161.5760  211.0020  149.9930 C   0  0  0  0  0  0  0  0  0  0  0  0
  161.8860  212.0020  147.8000 C   0  0  0  0  0  3  0  0  0  0  0  0
  160.9620  212.1880  150.4420 C   0  0  0  0  0  0  0  0  0  0  0  0
  162.0310  210.9210  148.6680 C   0  0  0  0  0  3  0  0  0  0  0  0
  161.2070  214.3580  147.3230 C   0  0  0  0  0  2  0  0  0  0  0  0
  160.1370  214.0380  145.0110 C   0  0  2  0  0  3  0  0  0  0  0  0
  159.9190  214.3400  146.4890 C   0  0  1  0  0  3  0  0  0  0  0  0
  158.7920  213.5100  144.5500 C   0  0  0  0  0  2  0  0  0  0  0  0
  158.1610  212.8260  145.7530 C   0  0  0  0  0  2  0  0  0  0  0  0
  158.8940  213.3310  146.9860 C   0  0  2  0  0  3  0  0  0  0  0  0
  157.9200  214.0110  147.9310 C   0  0  0  0  0  2  0  0  0  0  0  0
  157.0150  212.9800  148.5760 C   0  0  0  0  0  2  0  0  0  0  0  0
  157.2020  212.9990  149.9560 O   0  0  0  0  0  0  0  0  0  0  0  0
  156.3910  214.0410  150.4050 C   0  0  0  0  0  1  0  0  0  0  0  0
  161.2020  212.9620  144.7850 C   0  0  0  0  0  2  0  0  0  0  0  0
  163.4280  213.5470  144.1800 O   0  0  0  0  0  1  0  0  0  0  0  0
  162.1460  213.3540  143.6570 C   0  0  1  0  0  3  0  0  0  0  0  0
  162.7140  212.8060  141.3990 O   0  0  0  0  0  1  0  0  0  0  0  0
  162.1760  212.2770  142.5740 C   0  0  2  0  0  3  0  0  0  0  0  0
  160.7700  211.7740  142.2770 C   0  0  0  0  0  2  0  0  0  0  0  0
  160.3610  212.1420  140.8590 C   0  0  0  0  0  2  0  0  0  0  0  0
  159.5000  213.3610  140.8720 C   0  0  0  0  0  3  0  0  0  0  0  0
  158.2970  213.2620  141.0530 O   0  0  0  0  0  0  0  0  0  0  0  0
  161.7720  209.8420  150.9290 C   0  0  2  0  0  3  0  0  0  0  0  0
  161.3260  204.6210  153.3280 O   0  0  0  0  0  0  0  0  0  0  0  0
  160.9630  205.1730  151.0320 C   0  0  0  0  0  0  0  0  0  0  0  0
  161.3160  207.3930  150.9240 C   0  0  0  0  0  0  0  0  0  0  0  0
  161.6120  207.2150  152.6930 S   0  0  0  0  0  0  0  0  0  0  0  0
  160.9830  206.1900  150.2370 N   0  0  0  0  0  0  0  0  0  0  0  0
  161.4210  208.5450  150.2650 C   0  0  0  0  0  3  0  0  0  0  0  0
  161.2820  205.4840  152.4150 C   0  0  0  0  0  0  0  0  0  0  0  0
  160.6620  203.8810  150.6000 O   0  0  0  0  0  0  0  0  0  0  0  0
  160.9380  203.4490  149.2750 C   0  0  0  0  0  2  0  0  0  0  0  0
  160.2680  202.1140  149.0290 C   0  0  0  0  0  1  0  0  0  0  0  0
  161.0300  210.0330  152.2240 C   0  0  0  0  0  0  0  0  0  0  0  0
  163.0980  210.3860  153.3020 O   0  0  0  0  0  1  0  0  0  0  0  0
  159.6400  209.9590  152.2130 O   0  0  0  0  0  1  0  0  0  0  0  0
  161.7090  210.2870  153.3570 C   0  0  0  0  0  0  0  0  0  0  0  0
  160.9130  211.6480  155.2020 N   0  0  0  0  0  2  0  0  0  0  0  0
  161.0560  210.4760  154.6770 C   0  0  0  0  0  0  0  0  0  0  0  0
  160.4130  209.3110  155.3510 C   0  0  0  0  0  2  0  0  0  0  0  0
  160.6750  209.3550  156.7200 O   0  0  0  0  0  1  0  0  0  0  0  0
  1  3  1  0  0  0  0
  3  4  1  0  0  0  0
  3  7  2  0  0  0  0
  5  7  1  0  0  0  0
  5 28  1  0  0  0  0
  6  1  2  0  0  0  0
  6  8  1  0  0  0  0
  7  2  1  0  0  0  0
  8  5  2  0  0  0  0
  9  1  1  0  0  0  0
 10 19  1  1  0  0  0
 10 11  1  0  0  0  0
 11 14  1  0  0  0  0
 11  9  1  1  0  0  0
 12 10  1  0  0  0  0
 12 13  1  0  0  0  0
 13 14  1  0  0  0  0
 14 15  1  1  0  0  0
 15 16  1  0  0  0  0
 16 17  1  0  0  0  0
 17 18  1  0  0  0  0
 21 20  1  1  0  0  0
 21 19  1  0  0  0  0
 23 22  1  6  0  0  0
 23 21  1  0  0  0  0
 24 23  1  0  0  0  0
 25 26  1  0  0  0  0
 25 24  1  0  0  0  0
 26 27  2  0  0  0  0
 28 34  1  6  0  0  0
 28 39  1  0  0  0  0
 30 35  1  0  0  0  0
 31 32  1  0  0  0  0
 33 31  1  0  0  0  0
 33 30  2  0  0  0  0
 34 31  2  0  0  0  0
 35 32  1  0  0  0  0
 35 29  2  0  0  0  0
 36 30  1  0  0  0  0
 37 36  1  0  0  0  0
 38 37  1  0  0  0  0
 39 42  2  0  0  0  0
 40 42  1  0  0  0  0
 41 39  1  0  0  0  0
 42 44  1  0  0  0  0
 44 43  2  0  0  0  0
 44 45  1  0  0  0  0
 45 46  1  0  0  0  0
M  END
>  <MODEL>
3

>  <REMARK>
 VINA RESULT:      -4.7      3.230      8.733
  Name = 
  18 active torsions:
  status: ('A' for Active; 'I' for Inactive)
    1  A    between atoms: C_1  and  C_21
    2  A    between atoms: C_3  and  C_11
    3  A    between atoms: C_3  and  C_22
    4  A    between atoms: C_3  and  C_38
    5  A    between atoms: C_4  and  C_23
    6  A    between atoms: C_5  and  C_18
    7  A    between atoms: C_6  and  C_21
    8  A    between atoms: O_8  and  C_14
    9  A    between atoms: O_8  and  C_26
   10  A    between atoms: O_13  and  C_35
   11  A    between atoms: C_18  and  C_45
   12  A    between atoms: C_23  and  C_30
   13  A    between atoms: C_27  and  C_34
   14  A    between atoms: C_27  and  C_40
   15  A    between atoms: C_28  and  C_34
   16  A    between atoms: C_30  and  C_40
   17  A    between atoms: C_31  and  C_33
   18  A    between atoms: C_31  and  C_35
                            x       y       z     vdW  Elec       q    Type
                         _______ _______ _______ _____ _____    ______ ____

>  <TORSDO>
F 18

$$$$
=
 OpenBabel11042422003D

 46 48  0  0  1  0  0  0  0  0999 V2000
  160.1550  210.8240  152.5690 C   0  0  0  0  0  0  0  0  0  0  0  0
  162.1630  210.5090  149.3600 C   0  0  0  0  0  1  0  0  0  0  0  0
  160.8460  211.1540  151.3920 C   0  0  0  0  0  0  0  0  0  0  0  0
  160.9260  212.4830  150.9850 O   0  0  0  0  0  1  0  0  0  0  0  0
  161.3520  208.7990  151.0310 C   0  0  0  0  0  0  0  0  0  0  0  0
  160.0680  209.4890  152.9750 C   0  0  0  0  0  3  0  0  0  0  0  0
  161.4450  210.1440  150.6200 C   0  0  0  0  0  0  0  0  0  0  0  0
  160.6630  208.4850  152.2120 C   0  0  0  0  0  3  0  0  0  0  0  0
  159.4410  211.8770  153.3550 C   0  0  0  0  0  2  0  0  0  0  0  0
  159.9400  213.1500  155.5270 C   0  0  2  0  0  3  0  0  0  0  0  0
  159.7860  211.7950  154.8480 C   0  0  1  0  0  3  0  0  0  0  0  0
  159.6910  212.8480  156.9930 C   0  0  0  0  0  2  0  0  0  0  0  0
  158.7200  211.6780  157.0330 C   0  0  0  0  0  2  0  0  0  0  0  0
  158.7580  211.0220  155.6610 C   0  0  2  0  0  3  0  0  0  0  0  0
  159.1870  209.5710  155.7870 C   0  0  0  0  0  2  0  0  0  0  0  0
  160.6520  209.4920  156.1650 C   0  0  0  0  0  2  0  0  0  0  0  0
  160.9170  208.2460  156.7310 O   0  0  0  0  0  0  0  0  0  0  0  0
  160.0130  207.3820  156.1130 C   0  0  0  0  0  1  0  0  0  0  0  0
  158.9060  214.1690  155.0430 C   0  0  0  0  0  2  0  0  0  0  0  0
  157.3550  214.4520  156.8270 O   0  0  0  0  0  1  0  0  0  0  0  0
  157.5200  213.8400  155.5820 C   0  0  1  0  0  3  0  0  0  0  0  0
  155.2800  213.5490  154.7930 O   0  0  0  0  0  1  0  0  0  0  0  0
  156.4350  214.3130  154.6150 C   0  0  2  0  0  3  0  0  0  0  0  0
  156.8970  214.1610  153.1720 C   0  0  0  0  0  2  0  0  0  0  0  0
  155.7070  214.1990  152.2250 C   0  0  0  0  0  2  0  0  0  0  0  0
  156.1750  214.1310  150.8100 C   0  0  0  0  0  3  0  0  0  0  0  0
  155.3820  214.2720  149.8930 O   0  0  0  0  0  0  0  0  0  0  0  0
  161.9580  207.7030  150.1980 C   0  0  2  0  0  3  0  0  0  0  0  0
  163.4870  204.5830  145.6000 O   0  0  0  0  0  0  0  0  0  0  0  0
  161.4880  205.8650  145.8550 C   0  0  0  0  0  0  0  0  0  0  0  0
  161.6450  206.7510  147.9180 C   0  0  0  0  0  0  0  0  0  0  0  0
  163.1990  205.8380  147.9580 S   0  0  0  0  0  0  0  0  0  0  0  0
  160.8940  206.6250  146.7140 N   0  0  0  0  0  0  0  0  0  0  0  0
  161.2130  207.5250  148.9110 C   0  0  0  0  0  3  0  0  0  0  0  0
  162.7610  205.3300  146.3050 C   0  0  0  0  0  0  0  0  0  0  0  0
  160.9520  205.5820  144.5980 O   0  0  0  0  0  0  0  0  0  0  0  0
  160.0510  204.5050  144.3920 C   0  0  0  0  0  2  0  0  0  0  0  0
  160.6180  203.2460  145.0140 C   0  0  0  0  0  1  0  0  0  0  0  0
  162.0770  206.4150  150.9660 C   0  0  0  0  0  0  0  0  0  0  0  0
  159.9440  205.7990  150.1670 O   0  0  0  0  0  1  0  0  0  0  0  0
  163.2440  206.1710  151.6850 O   0  0  0  0  0  1  0  0  0  0  0  0
  161.0740  205.5180  150.9330 C   0  0  0  0  0  0  0  0  0  0  0  0
  161.0930  204.1850  152.9620 N   0  0  0  0  0  2  0  0  0  0  0  0
  161.1050  204.2300  151.6700 C   0  0  0  0  0  0  0  0  0  0  0  0
  160.9950  202.9480  150.9140 C   0  0  0  0  0  2  0  0  0  0  0  0
  161.4990  203.1170  149.6240 O   0  0  0  0  0  1  0  0  0  0  0  0
  1  6  1  0  0  0  0
  1  9  1  0  0  0  0
  2  7  1  0  0  0  0
  3  1  2  0  0  0  0
  4  3  1  0  0  0  0
  5  8  1  0  0  0  0
  7  5  2  0  0  0  0
  7  3  1  0  0  0  0
  8  6  2  0  0  0  0
 10 19  1  6  0  0  0
 10 12  1  0  0  0  0
 11  9  1  6  0  0  0
 11 10  1  0  0  0  0
 11 14  1  0  0  0  0
 12 13  1  0  0  0  0
 14 15  1  1  0  0  0
 14 13  1  0  0  0  0
 15 16  1  0  0  0  0
 16 17  1  0  0  0  0
 18 17  1  0  0  0  0
 19 21  1  0  0  0  0
 21 20  1  1  0  0  0
 23 22  1  6  0  0  0
 23 21  1  0  0  0  0
 24 23  1  0  0  0  0
 25 24  1  0  0  0  0
 26 25  1  0  0  0  0
 27 26  2  0  0  0  0
 28 34  1  6  0  0  0
 28 39  1  0  0  0  0
 28  5  1  0  0  0  0
 29 35  2  0  0  0  0
 30 35  1  0  0  0  0
 30 33  2  0  0  0  0
 31 32  1  0  0  0  0
 31 34  2  0  0  0  0
 33 31  1  0  0  0  0
 35 32  1  0  0  0  0
 36 30  1  0  0  0  0
 37 36  1  0  0  0  0
 37 38  1  0  0  0  0
 39 41  1  0  0  0  0
 40 42  1  0  0  0  0
 42 39  2  0  0  0  0
 42 44  1  0  0  0  0
 44 43  2  0  0  0  0
 45 44  1  0  0  0  0
 46 45  1  0  0  0  0
M  END
>  <MODEL>
4

>  <REMARK>
 VINA RESULT:      -4.2      3.417      9.852
  Name = 
  18 active torsions:
  status: ('A' for Active; 'I' for Inactive)
    1  A    between atoms: C_1  and  C_21
    2  A    between atoms: C_3  and  C_11
    3  A    between atoms: C_3  and  C_22
    4  A    between atoms: C_3  and  C_38
    5  A    between atoms: C_4  and  C_23
    6  A    between atoms: C_5  and  C_18
    7  A    between atoms: C_6  and  C_21
    8  A    between atoms: O_8  and  C_14
    9  A    between atoms: O_8  and  C_26
   10  A    between atoms: O_13  and  C_35
   11  A    between atoms: C_18  and  C_45
   12  A    between atoms: C_23  and  C_30
   13  A    between atoms: C_27  and  C_34
   14  A    between atoms: C_27  and  C_40
   15  A    between atoms: C_28  and  C_34
   16  A    between atoms: C_30  and  C_40
   17  A    between atoms: C_31  and  C_33
   18  A    between atoms: C_31  and  C_35
                            x       y       z     vdW  Elec       q    Type
                         _______ _______ _______ _____ _____    ______ ____

>  <TORSDO>
F 18

$$$$
=
 OpenBabel11042422003D

 46 48  0  0  1  0  0  0  0  0999 V2000
  160.4240  213.1630  150.0630 C   0  0  0  0  0  0  0  0  0  0  0  0
  160.0240  211.4390  153.4240 C   0  0  0  0  0  1  0  0  0  0  0  0
  160.0220  212.8890  151.3800 C   0  0  0  0  0  0  0  0  0  0  0  0
  159.2120  213.7950  152.0610 O   0  0  0  0  0  1  0  0  0  0  0  0
  161.2740  210.8010  151.3260 C   0  0  0  0  0  0  0  0  0  0  0  0
  161.2420  212.2580  149.3820 C   0  0  0  0  0  3  0  0  0  0  0  0
  160.4460  211.7090  152.0150 C   0  0  0  0  0  0  0  0  0  0  0  0
  161.6630  211.0860  150.0080 C   0  0  0  0  0  3  0  0  0  0  0  0
  160.0500  214.4530  149.4050 C   0  0  0  0  0  2  0  0  0  0  0  0
  159.3680  213.9890  146.9740 C   0  0  2  0  0  3  0  0  0  0  0  0
  158.9060  214.2610  148.4010 C   0  0  1  0  0  3  0  0  0  0  0  0
  158.1820  213.2850  146.3410 C   0  0  0  0  0  2  0  0  0  0  0  0
  157.4860  212.5230  147.4580 C   0  0  0  0  0  2  0  0  0  0  0  0
  157.9650  213.1240  148.7700 C   0  0  2  0  0  3  0  0  0  0  0  0
  156.7860  213.6670  149.5580 C   0  0  0  0  0  2  0  0  0  0  0  0
  156.9050  213.2670  151.0150 C   0  0  0  0  0  2  0  0  0  0  0  0
  156.0340  214.0410  151.7790 O   0  0  0  0  0  0  0  0  0  0  0  0
  156.2030  213.5750  153.0830 C   0  0  0  0  0  1  0  0  0  0  0  0
  160.5870  213.0660  146.9190 C   0  0  0  0  0  2  0  0  0  0  0  0
  162.8870  213.6800  146.9330 O   0  0  0  0  0  1  0  0  0  0  0  0
  161.7300  213.7140  146.1500 C   0  0  1  0  0  3  0  0  0  0  0  0
  163.3250  213.0600  144.4910 O   0  0  0  0  0  1  0  0  0  0  0  0
  161.9700  212.9920  144.8240 C   0  0  2  0  0  3  0  0  0  0  0  0
  161.1660  213.6390  143.7060 C   0  0  0  0  0  2  0  0  0  0  0  0
  160.0200  212.7340  143.2810 C   0  0  0  0  0  2  0  0  0  0  0  0
  160.3100  212.1280  141.9490 C   0  0  0  0  0  3  0  0  0  0  0  0
  160.0190  212.7260  140.9250 O   0  0  0  0  0  0  0  0  0  0  0  0
  161.7640  209.5500  152.0020 C   0  0  2  0  0  3  0  0  0  0  0  0
  162.6090  206.2470  147.3560 O   0  0  0  0  0  0  0  0  0  0  0  0
  160.9140  205.9690  149.0160 C   0  0  0  0  0  0  0  0  0  0  0  0
  161.2800  207.6390  150.4810 C   0  0  0  0  0  0  0  0  0  0  0  0
  162.6480  208.0240  149.3700 S   0  0  0  0  0  0  0  0  0  0  0  0
  160.4920  206.5110  150.1100 N   0  0  0  0  0  0  0  0  0  0  0  0
  160.9790  208.3530  151.5620 C   0  0  0  0  0  3  0  0  0  0  0  0
  162.0690  206.6250  148.4270 C   0  0  0  0  0  0  0  0  0  0  0  0
  160.3100  204.8480  148.4460 O   0  0  0  0  0  0  0  0  0  0  0  0
  160.9820  203.6010  148.3490 C   0  0  0  0  0  2  0  0  0  0  0  0
  160.7990  202.8270  149.6380 C   0  0  0  0  0  1  0  0  0  0  0  0
  161.7860  209.6930  153.5000 C   0  0  0  0  0  0  0  0  0  0  0  0
  160.4940  207.7260  153.6580 O   0  0  0  0  0  1  0  0  0  0  0  0
  162.4880  210.7580  154.0590 O   0  0  0  0  0  1  0  0  0  0  0  0
  161.1510  208.7920  154.2710 C   0  0  0  0  0  0  0  0  0  0  0  0
  162.1820  208.7370  156.4670 N   0  0  0  0  0  2  0  0  0  0  0  0
  161.1130  208.8650  155.7530 C   0  0  0  0  0  0  0  0  0  0  0  0
  159.8420  209.2450  156.4370 C   0  0  0  0  0  2  0  0  0  0  0  0
  159.7980  210.6270  156.6150 O   0  0  0  0  0  1  0  0  0  0  0  0
  1  3  1  0  0  0  0
  3  7  2  0  0  0  0
  3  4  1  0  0  0  0
  5 28  1  0  0  0  0
  5  7  1  0  0  0  0
  6  8  1  0  0  0  0
  6  1  2  0  0  0  0
  7  2  1  0  0  0  0
  8  5  2  0  0  0  0
  9  1  1  0  0  0  0
 10 19  1  1  0  0  0
 10 11  1  0  0  0  0
 11 14  1  0  0  0  0
 11  9  1  1  0  0  0
 12 10  1  0  0  0  0
 12 13  1  0  0  0  0
 13 14  1  0  0  0  0
 14 15  1  6  0  0  0
 15 16  1  0  0  0  0
 16 17  1  0  0  0  0
 17 18  1  0  0  0  0
 21 19  1  0  0  0  0
 21 20  1  1  0  0  0
 23 22  1  6  0  0  0
 23 21  1  0  0  0  0
 24 23  1  0  0  0  0
 25 24  1  0  0  0  0
 26 25  1  0  0  0  0
 27 26  2  0  0  0  0
 28 34  1  1  0  0  0
 28 39  1  0  0  0  0
 29 35  2  0  0  0  0
 30 33  2  0  0  0  0
 31 34  2  0  0  0  0
 32 31  1  0  0  0  0
 33 31  1  0  0  0  0
 35 30  1  0  0  0  0
 35 32  1  0  0  0  0
 36 30  1  0  0  0  0
 37 36  1  0  0  0  0
 37 38  1  0  0  0  0
 39 41  1  0  0  0  0
 39 42  2  0  0  0  0
 40 42  1  0  0  0  0
 42 44  1  0  0  0  0
 44 45  1  0  0  0  0
 44 43  2  0  0  0  0
 45 46  1  0  0  0  0
M  END
>  <MODEL>
5

>  <REMARK>
 VINA RESULT:      -3.6      2.855      8.715
  Name = 
  18 active torsions:
  status: ('A' for Active; 'I' for Inactive)
    1  A    between atoms: C_1  and  C_21
    2  A    between atoms: C_3  and  C_11
    3  A    between atoms: C_3  and  C_22
    4  A    between atoms: C_3  and  C_38
    5  A    between atoms: C_4  and  C_23
    6  A    between atoms: C_5  and  C_18
    7  A    between atoms: C_6  and  C_21
    8  A    between atoms: O_8  and  C_14
    9  A    between atoms: O_8  and  C_26
   10  A    between atoms: O_13  and  C_35
   11  A    between atoms: C_18  and  C_45
   12  A    between atoms: C_23  and  C_30
   13  A    between atoms: C_27  and  C_34
   14  A    between atoms: C_27  and  C_40
   15  A    between atoms: C_28  and  C_34
   16  A    between atoms: C_30  and  C_40
   17  A    between atoms: C_31  and  C_33
   18  A    between atoms: C_31  and  C_35
                            x       y       z     vdW  Elec       q    Type
                         _______ _______ _______ _____ _____    ______ ____

>  <TORSDO>
F 18

$$$$
=
 OpenBabel11042422003D

 46 48  0  0  1  0  0  0  0  0999 V2000
  160.8160  211.5140  153.2280 C   0  0  0  0  0  0  0  0  0  0  0  0
  159.9940  212.8060  149.7510 C   0  0  0  0  0  1  0  0  0  0  0  0
  160.3050  212.3070  152.1870 C   0  0  0  0  0  0  0  0  0  0  0  0
  159.5370  213.4300  152.4840 O   0  0  0  0  0  1  0  0  0  0  0  0
  161.3270  210.8180  150.5530 C   0  0  0  0  0  0  0  0  0  0  0  0
  161.5800  210.3830  152.9300 C   0  0  0  0  0  3  0  0  0  0  0  0
  160.5580  211.9620  150.8480 C   0  0  0  0  0  0  0  0  0  0  0  0
  161.8350  210.0390  151.6030 C   0  0  0  0  0  3  0  0  0  0  0  0
  160.4840  211.8220  154.6530 C   0  0  0  0  0  2  0  0  0  0  0  0
  158.7060  210.1530  155.4550 C   0  0  2  0  0  3  0  0  0  0  0  0
  159.0020  211.5620  154.9540 C   0  0  1  0  0  3  0  0  0  0  0  0
  157.3960  210.3060  156.2040 C   0  0  0  0  0  2  0  0  0  0  0  0
  157.3820  211.7200  156.7630 C   0  0  0  0  0  2  0  0  0  0  0  0
  158.4220  212.5140  155.9880 C   0  0  2  0  0  3  0  0  0  0  0  0
  157.7660  213.6930  155.2900 C   0  0  0  0  0  2  0  0  0  0  0  0
  156.3020  213.7760  155.6720 C   0  0  0  0  0  2  0  0  0  0  0  0
  155.5230  213.7810  154.5180 O   0  0  0  0  0  0  0  0  0  0  0  0
  156.4050  214.1450  153.5000 C   0  0  0  0  0  1  0  0  0  0  0  0
  159.7770  209.6370  156.4180 C   0  0  0  0  0  2  0  0  0  0  0  0
  158.6890  207.6320  155.7380 O   0  0  0  0  0  1  0  0  0  0  0  0
  159.7660  208.1160  156.4850 C   0  0  1  0  0  3  0  0  0  0  0  0
  161.8810  208.5710  155.4630 O   0  0  0  0  0  1  0  0  0  0  0  0
  161.0780  207.5390  155.9530 C   0  0  2  0  0  3  0  0  0  0  0  0
  160.8130  206.5550  154.8230 C   0  0  0  0  0  2  0  0  0  0  0  0
  161.2600  207.1400  153.4920 C   0  0  0  0  0  2  0  0  0  0  0  0
  161.6090  206.0450  152.5400 C   0  0  0  0  0  3  0  0  0  0  0  0
  162.4230  206.2380  151.6520 O   0  0  0  0  0  0  0  0  0  0  0  0
  161.5790  210.4160  149.1260 C   0  0  2  0  0  3  0  0  0  0  0  0
  160.4880  205.9080  145.7040 O   0  0  0  0  0  0  0  0  0  0  0  0
  162.2450  206.0880  147.3120 C   0  0  0  0  0  0  0  0  0  0  0  0
  161.9910  208.1410  148.1980 C   0  0  0  0  0  0  0  0  0  0  0  0
  160.6180  208.2390  147.0350 S   0  0  0  0  0  0  0  0  0  0  0  0
  162.7220  206.9180  148.1790 N   0  0  0  0  0  0  0  0  0  0  0  0
  162.3110  209.1100  149.0530 C   0  0  0  0  0  3  0  0  0  0  0  0
  161.0940  206.5820  146.5770 C   0  0  0  0  0  0  0  0  0  0  0  0
  162.7890  204.8200  147.1010 O   0  0  0  0  0  0  0  0  0  0  0  0
  161.9900  203.6470  147.1270 C   0  0  0  0  0  2  0  0  0  0  0  0
  161.4190  203.4550  148.5170 C   0  0  0  0  0  1  0  0  0  0  0  0
  162.2770  211.4990  148.3510 C   0  0  0  0  0  0  0  0  0  0  0  0
  160.3460  211.7220  147.0150 O   0  0  0  0  0  1  0  0  0  0  0  0
  163.5660  211.8660  148.7290 O   0  0  0  0  0  1  0  0  0  0  0  0
  161.6490  212.1060  147.3270 C   0  0  0  0  0  0  0  0  0  0  0  0
  162.9520  214.1330  147.0380 N   0  0  0  0  0  2  0  0  0  0  0  0
  162.2700  213.1740  146.5040 C   0  0  0  0  0  0  0  0  0  0  0  0
  162.2400  213.0660  145.0170 C   0  0  0  0  0  2  0  0  0  0  0  0
  163.2060  213.9060  144.4630 O   0  0  0  0  0  1  0  0  0  0  0  0
  1  9  1  0  0  0  0
  2  7  1  0  0  0  0
  3  4  1  0  0  0  0
  3  1  2  0  0  0  0
  5  7  2  0  0  0  0
  5  8  1  0  0  0  0
  6  1  1  0  0  0  0
  7  3  1  0  0  0  0
  8  6  2  0  0  0  0
 10 12  1  0  0  0  0
 10 19  1  1  0  0  0
 11  9  1  1  0  0  0
 11 10  1  0  0  0  0
 11 14  1  0  0  0  0
 12 13  1  0  0  0  0
 14 15  1  6  0  0  0
 14 13  1  0  0  0  0
 15 16  1  0  0  0  0
 17 16  1  0  0  0  0
 18 17  1  0  0  0  0
 19 21  1  0  0  0  0
 21 20  1  6  0  0  0
 23 22  1  6  0  0  0
 23 21  1  0  0  0  0
 24 23  1  0  0  0  0
 25 24  1  0  0  0  0
 26 25  1  0  0  0  0
 27 26  2  0  0  0  0
 28 34  1  1  0  0  0
 28  5  1  0  0  0  0
 29 35  2  0  0  0  0
 30 33  2  0  0  0  0
 31 34  2  0  0  0  0
 32 31  1  0  0  0  0
 33 31  1  0  0  0  0
 35 32  1  0  0  0  0
 35 30  1  0  0  0  0
 36 37  1  0  0  0  0
 36 30  1  0  0  0  0
 37 38  1  0  0  0  0
 39 41  1  0  0  0  0
 39 28  1  0  0  0  0
 40 42  1  0  0  0  0
 42 39  2  0  0  0  0
 44 43  2  0  0  0  0
 44 42  1  0  0  0  0
 45 44  1  0  0  0  0
 46 45  1  0  0  0  0
M  END
>  <MODEL>
6

>  <REMARK>
 VINA RESULT:      -3.5      2.592      7.729
  Name = 
  18 active torsions:
  status: ('A' for Active; 'I' for Inactive)
    1  A    between atoms: C_1  and  C_21
    2  A    between atoms: C_3  and  C_11
    3  A    between atoms: C_3  and  C_22
    4  A    between atoms: C_3  and  C_38
    5  A    between atoms: C_4  and  C_23
    6  A    between atoms: C_5  and  C_18
    7  A    between atoms: C_6  and  C_21
    8  A    between atoms: O_8  and  C_14
    9  A    between atoms: O_8  and  C_26
   10  A    between atoms: O_13  and  C_35
   11  A    between atoms: C_18  and  C_45
   12  A    between atoms: C_23  and  C_30
   13  A    between atoms: C_27  and  C_34
   14  A    between atoms: C_27  and  C_40
   15  A    between atoms: C_28  and  C_34
   16  A    between atoms: C_30  and  C_40
   17  A    between atoms: C_31  and  C_33
   18  A    between atoms: C_31  and  C_35
                            x       y       z     vdW  Elec       q    Type
                         _______ _______ _______ _____ _____    ______ ____

>  <TORSDO>
F 18

$$$$
=
 OpenBabel11042422003D

 46 48  0  0  1  0  0  0  0  0999 V2000
  161.8720  210.7590  153.1380 C   0  0  0  0  0  0  0  0  0  0  0  0
  159.8200  212.3790  150.3820 C   0  0  0  0  0  1  0  0  0  0  0  0
  160.9300  211.5620  152.4750 C   0  0  0  0  0  0  0  0  0  0  0  0
  160.0760  212.3800  153.2110 O   0  0  0  0  0  1  0  0  0  0  0  0
  161.6990  210.6930  150.3340 C   0  0  0  0  0  0  0  0  0  0  0  0
  162.7250  209.9330  152.4010 C   0  0  0  0  0  3  0  0  0  0  0  0
  160.8400  211.5310  151.0730 C   0  0  0  0  0  0  0  0  0  0  0  0
  162.6390  209.9010  151.0100 C   0  0  0  0  0  3  0  0  0  0  0  0
  161.9220  210.7190  154.6320 C   0  0  0  0  0  2  0  0  0  0  0  0
  160.3160  208.7440  154.9650 C   0  0  2  0  0  3  0  0  0  0  0  0
  160.5990  210.2190  155.2260 C   0  0  1  0  0  3  0  0  0  0  0  0
  159.3480  208.3640  156.0690 C   0  0  0  0  0  2  0  0  0  0  0  0
  159.6840  209.2470  157.2610 C   0  0  0  0  0  2  0  0  0  0  0  0
  160.5020  210.4140  156.7310 C   0  0  2  0  0  3  0  0  0  0  0  0
  159.8010  211.7260  157.0360 C   0  0  0  0  0  2  0  0  0  0  0  0
  158.3350  211.6310  156.6640 C   0  0  0  0  0  2  0  0  0  0  0  0
  158.0190  212.6490  155.7660 O   0  0  0  0  0  0  0  0  0  0  0  0
  156.6320  212.5820  155.6340 C   0  0  0  0  0  1  0  0  0  0  0  0
  161.5730  207.8790  155.0800 C   0  0  0  0  0  2  0  0  0  0  0  0
  160.0910  206.1870  154.3000 O   0  0  0  0  0  1  0  0  0  0  0  0
  161.4280  206.5940  154.2760 C   0  0  1  0  0  3  0  0  0  0  0  0
  160.8040  207.1810  152.0420 O   0  0  0  0  0  1  0  0  0  0  0  0
  161.8900  206.8010  152.8330 C   0  0  2  0  0  3  0  0  0  0  0  0
  162.4730  205.5150  152.2660 C   0  0  0  0  0  2  0  0  0  0  0  0
  161.5670  204.9520  151.1820 C   0  0  0  0  0  2  0  0  0  0  0  0
  160.8950  203.7100  151.6660 C   0  0  0  0  0  3  0  0  0  0  0  0
  161.5310  202.6760  151.7910 O   0  0  0  0  0  0  0  0  0  0  0  0
  161.5930  210.6230  148.8360 C   0  0  2  0  0  3  0  0  0  0  0  0
  160.3790  205.0370  148.1000 O   0  0  0  0  0  0  0  0  0  0  0  0
  162.4270  206.1370  147.5530 C   0  0  0  0  0  0  0  0  0  0  0  0
  162.0830  208.2870  148.1240 C   0  0  0  0  0  0  0  0  0  0  0  0
  160.4510  207.6780  148.5890 S   0  0  0  0  0  0  0  0  0  0  0  0
  162.9720  207.3070  147.5940 N   0  0  0  0  0  0  0  0  0  0  0  0
  162.4770  209.5480  148.2800 C   0  0  0  0  0  3  0  0  0  0  0  0
  161.0630  206.0910  148.0500 C   0  0  0  0  0  0  0  0  0  0  0  0
  163.0940  205.0090  147.0710 O   0  0  0  0  0  0  0  0  0  0  0  0
  163.0650  204.6500  145.6980 C   0  0  0  0  0  2  0  0  0  0  0  0
  161.7060  204.0770  145.3550 C   0  0  0  0  0  1  0  0  0  0  0  0
  161.8520  211.9570  148.1900 C   0  0  0  0  0  0  0  0  0  0  0  0
  159.9080  211.6500  146.8880 O   0  0  0  0  0  1  0  0  0  0  0  0
  162.9530  212.6990  148.6090 O   0  0  0  0  0  1  0  0  0  0  0  0
  161.0160  212.4190  147.2420 C   0  0  0  0  0  0  0  0  0  0  0  0
  162.3800  214.1700  146.2620 N   0  0  0  0  0  2  0  0  0  0  0  0
  161.2040  213.7170  146.5480 C   0  0  0  0  0  0  0  0  0  0  0  0
  160.0140  214.4530  146.0300 C   0  0  0  0  0  2  0  0  0  0  0  0
  158.9570  214.3330  146.9320 O   0  0  0  0  0  1  0  0  0  0  0  0
  1  9  1  0  0  0  0
  2  7  1  0  0  0  0
  3  1  1  0  0  0  0
  3  4  1  0  0  0  0
  5  8  2  0  0  0  0
  5  7  1  0  0  0  0
  6  1  2  0  0  0  0
  7  3  2  0  0  0  0
  8  6  1  0  0  0  0
 10 19  1  1  0  0  0
 10 11  1  0  0  0  0
 10 12  1  0  0  0  0
 11  9  1  1  0  0  0
 11 14  1  0  0  0  0
 12 13  1  0  0  0  0
 14 15  1  6  0  0  0
 14 13  1  0  0  0  0
 16 15  1  0  0  0  0
 17 16  1  0  0  0  0
 18 17  1  0  0  0  0
 21 20  1  6  0  0  0
 21 19  1  0  0  0  0
 23 22  1  6  0  0  0
 23 21  1  0  0  0  0
 24 23  1  0  0  0  0
 25 26  1  0  0  0  0
 25 24  1  0  0  0  0
 26 27  2  0  0  0  0
 28 34  1  6  0  0  0
 28  5  1  0  0  0  0
 30 33  2  0  0  0  0
 30 35  1  0  0  0  0
 31 34  2  0  0  0  0
 31 32  1  0  0  0  0
 33 31  1  0  0  0  0
 35 29  2  0  0  0  0
 35 32  1  0  0  0  0
 36 30  1  0  0  0  0
 37 36  1  0  0  0  0
 38 37  1  0  0  0  0
 39 41  1  0  0  0  0
 39 28  1  0  0  0  0
 40 42  1  0  0  0  0
 42 39  2  0  0  0  0
 43 44  2  0  0  0  0
 44 42  1  0  0  0  0
 45 44  1  0  0  0  0
 45 46  1  0  0  0  0
M  END
>  <MODEL>
7

>  <REMARK>
 VINA RESULT:      -3.5      2.564      6.760
  Name = 
  18 active torsions:
  status: ('A' for Active; 'I' for Inactive)
    1  A    between atoms: C_1  and  C_21
    2  A    between atoms: C_3  and  C_11
    3  A    between atoms: C_3  and  C_22
    4  A    between atoms: C_3  and  C_38
    5  A    between atoms: C_4  and  C_23
    6  A    between atoms: C_5  and  C_18
    7  A    between atoms: C_6  and  C_21
    8  A    between atoms: O_8  and  C_14
    9  A    between atoms: O_8  and  C_26
   10  A    between atoms: O_13  and  C_35
   11  A    between atoms: C_18  and  C_45
   12  A    between atoms: C_23  and  C_30
   13  A    between atoms: C_27  and  C_34
   14  A    between atoms: C_27  and  C_40
   15  A    between atoms: C_28  and  C_34
   16  A    between atoms: C_30  and  C_40
   17  A    between atoms: C_31  and  C_33
   18  A    between atoms: C_31  and  C_35
                            x       y       z     vdW  Elec       q    Type
                         _______ _______ _______ _____ _____    ______ ____

>  <TORSDO>
F 18

$$$$
=
 OpenBabel11042422003D

 46 48  0  0  1  0  0  0  0  0999 V2000
  160.1130  212.1520  154.1220 C   0  0  0  0  0  0  0  0  0  0  0  0
  162.9760  209.8310  153.2040 C   0  0  0  0  0  1  0  0  0  0  0  0
  161.2710  211.3630  154.2150 C   0  0  0  0  0  0  0  0  0  0  0  0
  161.9670  211.2940  155.4190 O   0  0  0  0  0  1  0  0  0  0  0  0
  161.0300  210.7360  151.8750 C   0  0  0  0  0  0  0  0  0  0  0  0
  159.4170  212.2280  152.9120 C   0  0  0  0  0  3  0  0  0  0  0  0
  161.7320  210.6540  153.0930 C   0  0  0  0  0  0  0  0  0  0  0  0
  159.8720  211.5240  151.7980 C   0  0  0  0  0  3  0  0  0  0  0  0
  159.6570  212.9780  155.2820 C   0  0  0  0  0  2  0  0  0  0  0  0
  157.1540  213.0650  155.8440 C   0  0  2  0  0  3  0  0  0  0  0  0
  158.4750  212.3230  156.0090 C   0  0  1  0  0  3  0  0  0  0  0  0
  156.1080  211.9990  156.1080 C   0  0  0  0  0  2  0  0  0  0  0  0
  156.7150  210.6780  155.6600 C   0  0  0  0  0  2  0  0  0  0  0  0
  158.2190  210.8890  155.5700 C   0  0  2  0  0  3  0  0  0  0  0  0
  158.9380  209.9300  156.5010 C   0  0  0  0  0  2  0  0  0  0  0  0
  159.6640  208.8700  155.6970 C   0  0  0  0  0  2  0  0  0  0  0  0
  159.3260  207.6090  156.1820 O   0  0  0  0  0  0  0  0  0  0  0  0
  160.5480  206.9550  156.3390 C   0  0  0  0  0  1  0  0  0  0  0  0
  156.9640  213.6150  154.4290 C   0  0  0  0  0  2  0  0  0  0  0  0
  154.8280  214.4530  155.0620 O   0  0  0  0  0  1  0  0  0  0  0  0
  155.4870  213.7150  154.0750 C   0  0  1  0  0  3  0  0  0  0  0  0
  154.3390  213.6780  151.9760 O   0  0  0  0  0  1  0  0  0  0  0  0
  155.2990  214.3770  152.7100 C   0  0  2  0  0  3  0  0  0  0  0  0
  156.6030  214.3710  151.9260 C   0  0  0  0  0  2  0  0  0  0  0  0
  156.3380  214.1060  150.4520 C   0  0  0  0  0  2  0  0  0  0  0  0
  157.6040  213.7170  149.7640 C   0  0  0  0  0  3  0  0  0  0  0  0
  157.5750  212.9690  148.8000 O   0  0  0  0  0  0  0  0  0  0  0  0
  161.5300  210.0110  150.6550 C   0  0  2  0  0  3  0  0  0  0  0  0
  163.5650  214.4530  147.6000 O   0  0  0  0  0  0  0  0  0  0  0  0
  161.6260  213.1500  147.1060 C   0  0  0  0  0  0  0  0  0  0  0  0
  161.5380  211.6210  148.7550 C   0  0  0  0  0  0  0  0  0  0  0  0
  163.0430  212.4460  149.3070 S   0  0  0  0  0  0  0  0  0  0  0  0
  160.9520  212.1500  147.5690 N   0  0  0  0  0  0  0  0  0  0  0  0
  160.9670  210.6070  149.4010 C   0  0  0  0  0  3  0  0  0  0  0  0
  162.7980  213.4990  147.8890 C   0  0  0  0  0  0  0  0  0  0  0  0
  161.2570  213.8390  145.9490 O   0  0  0  0  0  0  0  0  0  0  0  0
  162.1710  214.0620  144.8860 C   0  0  0  0  0  2  0  0  0  0  0  0
  162.0760  212.9240  143.8910 C   0  0  0  0  0  1  0  0  0  0  0  0
  161.2770  208.5300  150.7390 C   0  0  0  0  0  0  0  0  0  0  0  0
  162.6050  208.2430  148.8100 O   0  0  0  0  0  1  0  0  0  0  0  0
  160.5040  208.0430  151.7900 O   0  0  0  0  0  1  0  0  0  0  0  0
  161.8090  207.7030  149.8200 C   0  0  0  0  0  0  0  0  0  0  0  0
  161.9130  205.5050  150.8430 N   0  0  0  0  0  2  0  0  0  0  0  0
  161.6000  206.2340  149.8230 C   0  0  0  0  0  0  0  0  0  0  0  0
  160.8730  205.5940  148.6880 C   0  0  0  0  0  2  0  0  0  0  0  0
  161.7870  204.9900  147.8240 O   0  0  0  0  0  1  0  0  0  0  0  0
  1  3  1  0  0  0  0
  1  9  1  0  0  0  0
  3  4  1  0  0  0  0
  5  7  1  0  0  0  0
  6  1  2  0  0  0  0
  7  2  1  0  0  0  0
  7  3  2  0  0  0  0
  8  5  2  0  0  0  0
  8  6  1  0  0  0  0
 10 19  1  6  0  0  0
 10 11  1  0  0  0  0
 10 12  1  0  0  0  0
 11  9  1  6  0  0  0
 13 12  1  0  0  0  0
 14 13  1  0  0  0  0
 14 11  1  0  0  0  0
 14 15  1  1  0  0  0
 16 17  1  0  0  0  0
 16 15  1  0  0  0  0
 17 18  1  0  0  0  0
 21 19  1  0  0  0  0
 21 20  1  1  0  0  0
 23 22  1  6  0  0  0
 23 21  1  0  0  0  0
 24 23  1  0  0  0  0
 25 24  1  0  0  0  0
 26 25  1  0  0  0  0
 27 26  2  0  0  0  0
 28 34  1  6  0  0  0
 28 39  1  0  0  0  0
 28  5  1  0  0  0  0
 29 35  2  0  0  0  0
 30 33  2  0  0  0  0
 30 35  1  0  0  0  0
 31 32  1  0  0  0  0
 31 34  2  0  0  0  0
 33 31  1  0  0  0  0
 35 32  1  0  0  0  0
 36 30  1  0  0  0  0
 37 36  1  0  0  0  0
 38 37  1  0  0  0  0
 39 41  1  0  0  0  0
 40 42  1  0  0  0  0
 42 44  1  0  0  0  0
 42 39  2  0  0  0  0
 44 43  2  0  0  0  0
 45 44  1  0  0  0  0
 46 45  1  0  0  0  0
M  END
>  <MODEL>
8

>  <REMARK>
 VINA RESULT:      -3.2      2.649      8.449
  Name = 
  18 active torsions:
  status: ('A' for Active; 'I' for Inactive)
    1  A    between atoms: C_1  and  C_21
    2  A    between atoms: C_3  and  C_11
    3  A    between atoms: C_3  and  C_22
    4  A    between atoms: C_3  and  C_38
    5  A    between atoms: C_4  and  C_23
    6  A    between atoms: C_5  and  C_18
    7  A    between atoms: C_6  and  C_21
    8  A    between atoms: O_8  and  C_14
    9  A    between atoms: O_8  and  C_26
   10  A    between atoms: O_13  and  C_35
   11  A    between atoms: C_18  and  C_45
   12  A    between atoms: C_23  and  C_30
   13  A    between atoms: C_27  and  C_34
   14  A    between atoms: C_27  and  C_40
   15  A    between atoms: C_28  and  C_34
   16  A    between atoms: C_30  and  C_40
   17  A    between atoms: C_31  and  C_33
   18  A    between atoms: C_31  and  C_35
                            x       y       z     vdW  Elec       q    Type
                         _______ _______ _______ _____ _____    ______ ____

>  <TORSDO>
F 18

$$$$
=
 OpenBabel11042422003D

 46 48  0  0  1  0  0  0  0  0999 V2000
  160.4480  212.0440  153.0430 C   0  0  0  0  0  0  0  0  0  0  0  0
  160.0070  213.3410  149.5000 C   0  0  0  0  0  1  0  0  0  0  0  0
  160.0780  212.8540  151.9570 C   0  0  0  0  0  0  0  0  0  0  0  0
  159.3580  214.0250  152.1790 O   0  0  0  0  0  1  0  0  0  0  0  0
  161.1410  211.2850  150.4280 C   0  0  0  0  0  0  0  0  0  0  0  0
  161.1630  210.8650  152.8210 C   0  0  0  0  0  3  0  0  0  0  0  0
  160.4230  212.4770  150.6480 C   0  0  0  0  0  0  0  0  0  0  0  0
  161.5090  210.4890  151.5230 C   0  0  0  0  0  3  0  0  0  0  0  0
  160.0150  212.3890  154.4330 C   0  0  0  0  0  2  0  0  0  0  0  0
  158.2910  210.6410  155.1840 C   0  0  2  0  0  3  0  0  0  0  0  0
  158.5360  212.0520  154.6610 C   0  0  1  0  0  3  0  0  0  0  0  0
  156.9350  210.7380  155.8580 C   0  0  0  0  0  2  0  0  0  0  0  0
  156.8110  212.1630  156.3750 C   0  0  0  0  0  2  0  0  0  0  0  0
  157.8470  212.9950  155.6340 C   0  0  2  0  0  3  0  0  0  0  0  0
  157.1660  214.1170  154.8700 C   0  0  0  0  0  2  0  0  0  0  0  0
  156.0040  213.5690  154.0670 C   0  0  0  0  0  2  0  0  0  0  0  0
  156.1560  213.9280  152.7290 O   0  0  0  0  0  0  0  0  0  0  0  0
  154.8580  213.9360  152.2180 C   0  0  0  0  0  1  0  0  0  0  0  0
  159.3350  210.2120  156.2180 C   0  0  0  0  0  2  0  0  0  0  0  0
  159.5950  208.5520  154.5330 O   0  0  0  0  0  1  0  0  0  0  0  0
  159.9620  208.8770  155.8410 C   0  0  1  0  0  3  0  0  0  0  0  0
  161.9510  207.8120  156.6370 O   0  0  0  0  0  1  0  0  0  0  0  0
  161.4850  208.9400  155.9590 C   0  0  2  0  0  3  0  0  0  0  0  0
  161.9130  210.1790  156.7330 C   0  0  0  0  0  2  0  0  0  0  0  0
  163.2660  210.6720  156.2430 C   0  0  0  0  0  2  0  0  0  0  0  0
  163.8820  211.5760  157.2590 C   0  0  0  0  0  3  0  0  0  0  0  0
  165.0780  211.8160  157.2240 O   0  0  0  0  0  0  0  0  0  0  0  0
  161.4890  210.8500  149.0310 C   0  0  2  0  0  3  0  0  0  0  0  0
  160.3850  206.0580  146.0250 O   0  0  0  0  0  0  0  0  0  0  0  0
  162.1890  206.4020  147.5520 C   0  0  0  0  0  0  0  0  0  0  0  0
  161.9200  208.5160  148.2770 C   0  0  0  0  0  0  0  0  0  0  0  0
  160.5080  208.4920  147.1570 S   0  0  0  0  0  0  0  0  0  0  0  0
  162.6760  207.3090  148.3310 N   0  0  0  0  0  0  0  0  0  0  0  0
  162.2460  209.5570  149.0380 C   0  0  0  0  0  3  0  0  0  0  0  0
  161.0040  206.8120  146.8190 C   0  0  0  0  0  0  0  0  0  0  0  0
  162.7530  205.1320  147.4260 O   0  0  0  0  0  0  0  0  0  0  0  0
  163.4420  204.7300  146.2510 C   0  0  0  0  0  2  0  0  0  0  0  0
  162.5130  203.9180  145.3730 C   0  0  0  0  0  1  0  0  0  0  0  0
  162.2160  211.9260  148.2710 C   0  0  0  0  0  0  0  0  0  0  0  0
  160.4810  211.9030  146.6730 O   0  0  0  0  0  1  0  0  0  0  0  0
  163.4110  212.4170  148.7890 O   0  0  0  0  0  1  0  0  0  0  0  0
  161.7000  212.4070  147.1260 C   0  0  0  0  0  0  0  0  0  0  0  0
  162.9770  214.4520  146.8550 N   0  0  0  0  0  2  0  0  0  0  0  0
  162.3580  213.4580  146.3100 C   0  0  0  0  0  0  0  0  0  0  0  0
  162.4410  213.2940  144.8290 C   0  0  0  0  0  2  0  0  0  0  0  0
  163.7600  213.4680  144.4090 O   0  0  0  0  0  1  0  0  0  0  0  0
  1  9  1  0  0  0  0
  2  7  1  0  0  0  0
  3  4  1  0  0  0  0
  3  1  2  0  0  0  0
  5  7  2  0  0  0  0
  5  8  1  0  0  0  0
  6  1  1  0  0  0  0
  7  3  1  0  0  0  0
  8  6  2  0  0  0  0
 10 12  1  0  0  0  0
 10 19  1  1  0  0  0
 11  9  1  1  0  0  0
 11 10  1  0  0  0  0
 11 14  1  0  0  0  0
 12 13  1  0  0  0  0
 14 15  1  6  0  0  0
 14 13  1  0  0  0  0
 16 15  1  0  0  0  0
 17 16  1  0  0  0  0
 18 17  1  0  0  0  0
 21 20  1  6  0  0  0
 21 23  1  0  0  0  0
 21 19  1  0  0  0  0
 23 22  1  1  0  0  0
 23 24  1  0  0  0  0
 25 24  1  0  0  0  0
 25 26  1  0  0  0  0
 27 26  2  0  0  0  0
 28 34  1  1  0  0  0
 28  5  1  0  0  0  0
 29 35  2  0  0  0  0
 30 33  2  0  0  0  0
 31 33  1  0  0  0  0
 31 34  2  0  0  0  0
 32 31  1  0  0  0  0
 35 32  1  0  0  0  0
 35 30  1  0  0  0  0
 36 30  1  0  0  0  0
 37 36  1  0  0  0  0
 38 37  1  0  0  0  0
 39 41  1  0  0  0  0
 39 28  1  0  0  0  0
 40 42  1  0  0  0  0
 42 39  2  0  0  0  0
 44 43  2  0  0  0  0
 44 42  1  0  0  0  0
 45 44  1  0  0  0  0
 46 45  1  0  0  0  0
M  END
>  <MODEL>
9

>  <REMARK>
 VINA RESULT:      -3.2      2.890      8.608
  Name = 
  18 active torsions:
  status: ('A' for Active; 'I' for Inactive)
    1  A    between atoms: C_1  and  C_21
    2  A    between atoms: C_3  and  C_11
    3  A    between atoms: C_3  and  C_22
    4  A    between atoms: C_3  and  C_38
    5  A    between atoms: C_4  and  C_23
    6  A    between atoms: C_5  and  C_18
    7  A    between atoms: C_6  and  C_21
    8  A    between atoms: O_8  and  C_14
    9  A    between atoms: O_8  and  C_26
   10  A    between atoms: O_13  and  C_35
   11  A    between atoms: C_18  and  C_45
   12  A    between atoms: C_23  and  C_30
   13  A    between atoms: C_27  and  C_34
   14  A    between atoms: C_27  and  C_40
   15  A    between atoms: C_28  and  C_34
   16  A    between atoms: C_30  and  C_40
   17  A    between atoms: C_31  and  C_33
   18  A    between atoms: C_31  and  C_35
                            x       y       z     vdW  Elec       q    Type
                         _______ _______ _______ _____ _____    ______ ____

>  <TORSDO>
F 18

$$$$
