=
 OpenBabel11052411163D

 27 32  0  0  1  0  0  0  0  0999 V2000
  161.2030  205.4610  150.0790 N   0  0  0  0  0  0  0  0  0  0  0  0
  162.3720  206.5720  151.8910 C   0  0  0  0  0  2  0  0  0  0  0  0
  161.1660  207.9570  156.6280 C   0  0  0  0  0  3  0  0  0  0  0  0
  160.9130  208.2250  153.8850 C   0  0  0  0  0  0  0  0  0  0  0  0
  162.3740  208.8040  149.1690 C   0  0  0  0  0  2  0  0  0  0  0  0
  162.5390  211.1460  148.2550 C   0  0  0  0  0  3  0  0  0  0  0  0
  161.0230  206.6960  149.3680 C   0  0  0  0  0  0  0  0  0  0  0  0
  161.0930  209.3280  154.7040 C   0  0  0  0  0  0  0  0  0  0  0  0
  161.2660  211.0590  150.0560 C   0  0  0  0  0  0  0  0  0  0  0  0
  161.2140  209.1880  156.0500 N   0  0  0  0  0  0  0  0  0  0  0  0
  160.7070  208.5260  152.4330 C   0  0  2  0  0  3  0  0  0  0  0  0
  161.8070  207.9420  151.4950 C   0  0  2  0  0  3  0  0  0  0  0  0
  160.8220  206.9540  154.4580 C   0  0  0  0  0  3  0  0  0  0  0  0
  161.3680  208.0150  150.0090 C   0  0  1  0  0  3  0  0  0  0  0  0
  161.3950  205.4720  151.5200 C   0  0  0  0  0  2  0  0  0  0  0  0
  160.5700  206.6850  148.1900 O   0  0  0  0  0  0  0  0  0  0  0  0
  161.0100  210.9140  153.9080 S   0  0  0  0  0  0  0  0  0  0  0  0
  160.9360  210.6410  151.2430 C   0  0  0  0  0  0  0  0  0  0  0  0
  160.9640  206.8150  155.8420 C   0  0  0  0  0  3  0  0  0  0  0  0
  162.1170  212.4620  148.6330 N   0  0  0  0  0  0  0  0  0  0  0  0
  162.0280  210.2680  149.1070 C   0  0  0  0  0  0  0  0  0  0  0  0
  161.4030  212.4180  149.6850 N   0  0  0  0  0  0  0  0  0  0  0  0
  160.6840  210.0440  152.3720 C   0  0  0  0  0  0  0  0  0  0  0  0
  161.1070  204.1750  149.4030 C   0  0  0  0  0  2  0  0  0  0  0  0
  160.3740  203.1730  150.2770 C   0  0  0  0  0  3  0  0  0  0  0  0
  161.2490  201.9530  150.4700 C   0  0  0  0  0  2  0  0  0  0  0  0
  160.1060  201.9150  149.4770 C   0  0  0  0  0  2  0  0  0  0  0  0
  1 15  1  0  0  0  0
  4 13  2  0  0  0  0
  4  8  1  0  0  0  0
  6 20  1  0  0  0  0
  6 21  2  0  0  0  0
  7 14  1  0  0  0  0
  7  1  1  0  0  0  0
  8 10  2  0  0  0  0
  9 18  2  0  0  0  0
 10  3  1  0  0  0  0
 11 23  1  1  0  0  0
 11  4  1  0  0  0  0
 12  2  1  1  0  0  0
 12 11  1  0  0  0  0
 13 19  1  0  0  0  0
 14  5  1  6  0  0  0
 14 12  1  0  0  0  0
 15  2  1  0  0  0  0
 16  7  2  0  0  0  0
 17  8  1  0  0  0  0
 18 23  2  0  0  0  0
 19  3  2  0  0  0  0
 20 22  2  0  0  0  0
 21  5  1  0  0  0  0
 21  9  1  0  0  0  0
 22  9  1  0  0  0  0
 23 17  1  0  0  0  0
 24  1  1  0  0  0  0
 24 25  1  0  0  0  0
 25 26  1  0  0  0  0
 27 25  1  0  0  0  0
 27 26  1  0  0  0  0
M  END
>  <MODEL>
1

>  <REMARK>
 VINA RESULT:      -7.8      0.000      0.000
  Name = 
  2 active torsions:
  status: ('A' for Active; 'I' for Inactive)
    1  A    between atoms: C_1  and  N_2
    2  A    between atoms: C_1  and  C_5
                            x       y       z     vdW  Elec       q    Type
                         _______ _______ _______ _____ _____    ______ ____

>  <TORSDO>
F 2

$$$$
=
 OpenBabel11052411163D

 27 32  0  0  1  0  0  0  0  0999 V2000
  161.9990  210.0940  149.9170 N   0  0  0  0  0  0  0  0  0  0  0  0
  160.3200  209.9240  151.6590 C   0  0  0  0  0  2  0  0  0  0  0  0
  160.2300  210.8170  156.6600 C   0  0  0  0  0  3  0  0  0  0  0  0
  161.0720  209.3400  154.4750 C   0  0  0  0  0  0  0  0  0  0  0  0
  160.6720  206.7050  150.2790 C   0  0  0  0  0  2  0  0  0  0  0  0
  160.4390  204.2040  150.4630 C   0  0  0  0  0  3  0  0  0  0  0  0
  162.1870  208.6700  149.8860 C   0  0  0  0  0  0  0  0  0  0  0  0
  160.5760  208.7240  155.6130 C   0  0  0  0  0  0  0  0  0  0  0  0
  161.2650  205.0860  152.3100 C   0  0  0  0  0  0  0  0  0  0  0  0
  160.1670  209.4570  156.6830 N   0  0  0  0  0  0  0  0  0  0  0  0
  161.5660  208.4160  153.4060 C   0  0  2  0  0  3  0  0  0  0  0  0
  160.7900  208.5200  152.0590 C   0  0  2  0  0  3  0  0  0  0  0  0
  161.1820  210.7320  154.4420 C   0  0  0  0  0  3  0  0  0  0  0  0
  161.5460  207.7840  150.9210 C   0  0  1  0  0  3  0  0  0  0  0  0
  161.4810  210.7350  151.1140 C   0  0  0  0  0  2  0  0  0  0  0  0
  162.8950  208.1470  148.9830 O   0  0  0  0  0  0  0  0  0  0  0  0
  160.6470  206.9500  155.6360 S   0  0  0  0  0  0  0  0  0  0  0  0
  161.3620  205.9920  153.2380 C   0  0  0  0  0  0  0  0  0  0  0  0
  160.7440  211.4800  155.5380 C   0  0  0  0  0  3  0  0  0  0  0  0
  160.6010  203.1970  151.4700 N   0  0  0  0  0  0  0  0  0  0  0  0
  160.8430  205.3690  150.9500 C   0  0  0  0  0  0  0  0  0  0  0  0
  161.0540  203.7070  152.5440 N   0  0  0  0  0  0  0  0  0  0  0  0
  161.4190  207.0330  154.0180 C   0  0  0  0  0  0  0  0  0  0  0  0
  162.4030  210.9370  148.8000 C   0  0  0  0  0  2  0  0  0  0  0  0
  161.6770  212.2700  148.8560 C   0  0  0  0  0  3  0  0  0  0  0  0
  161.1230  212.5890  147.4850 C   0  0  0  0  0  2  0  0  0  0  0  0
  162.3900  213.2650  147.9650 C   0  0  0  0  0  2  0  0  0  0  0  0
  1 15  1  0  0  0  0
  3 10  1  0  0  0  0
  4  8  1  0  0  0  0
  5 21  1  0  0  0  0
  6 21  2  0  0  0  0
  6 20  1  0  0  0  0
  7  1  1  0  0  0  0
  7 14  1  0  0  0  0
  8 17  1  0  0  0  0
  8 10  2  0  0  0  0
  9 22  1  0  0  0  0
  9 18  2  0  0  0  0
 11 23  1  1  0  0  0
 11  4  1  0  0  0  0
 12  2  1  6  0  0  0
 12 11  1  0  0  0  0
 13  4  2  0  0  0  0
 13 19  1  0  0  0  0
 14  5  1  6  0  0  0
 14 12  1  0  0  0  0
 15  2  1  0  0  0  0
 16  7  2  0  0  0  0
 18 23  2  0  0  0  0
 19  3  2  0  0  0  0
 20 22  2  0  0  0  0
 21  9  1  0  0  0  0
 23 17  1  0  0  0  0
 24 25  1  0  0  0  0
 24  1  1  0  0  0  0
 26 27  1  0  0  0  0
 26 25  1  0  0  0  0
 27 25  1  0  0  0  0
M  END
>  <MODEL>
2

>  <REMARK>
 VINA RESULT:      -7.2      1.809      5.770
  Name = 
  2 active torsions:
  status: ('A' for Active; 'I' for Inactive)
    1  A    between atoms: C_1  and  N_2
    2  A    between atoms: C_1  and  C_5
                            x       y       z     vdW  Elec       q    Type
                         _______ _______ _______ _____ _____    ______ ____

>  <TORSDO>
F 2

$$$$
=
 OpenBabel11052411163D

 27 32  0  0  1  0  0  0  0  0999 V2000
  161.5660  208.6900  154.9930 N   0  0  0  0  0  0  0  0  0  0  0  0
  160.2300  207.5190  153.3410 C   0  0  0  0  0  2  0  0  0  0  0  0
  160.7870  203.2530  150.6380 C   0  0  0  0  0  3  0  0  0  0  0  0
  161.4970  205.8650  151.2220 C   0  0  0  0  0  0  0  0  0  0  0  0
  160.8650  210.7270  152.0370 C   0  0  0  0  0  2  0  0  0  0  0  0
  161.0610  212.2970  150.0770 C   0  0  0  0  0  3  0  0  0  0  0  0
  161.9690  209.6850  154.0390 C   0  0  0  0  0  0  0  0  0  0  0  0
  161.2900  205.4480  149.9160 C   0  0  0  0  0  0  0  0  0  0  0  0
  162.0180  210.3510  149.6650 C   0  0  0  0  0  0  0  0  0  0  0  0
  160.9440  204.1630  149.6390 N   0  0  0  0  0  0  0  0  0  0  0  0
  161.9580  207.2800  151.3820 C   0  0  2  0  0  3  0  0  0  0  0  0
  160.9730  208.1880  152.1780 C   0  0  2  0  0  3  0  0  0  0  0  0
  161.3790  204.9400  152.2620 C   0  0  0  0  0  3  0  0  0  0  0  0
  161.6470  209.5280  152.5760 C   0  0  1  0  0  3  0  0  0  0  0  0
  161.1490  207.3730  154.5400 C   0  0  0  0  0  2  0  0  0  0  0  0
  162.6000  210.7070  154.4220 O   0  0  0  0  0  0  0  0  0  0  0  0
  161.6430  206.6420  148.6500 S   0  0  0  0  0  0  0  0  0  0  0  0
  162.1150  209.0550  149.7180 C   0  0  0  0  0  0  0  0  0  0  0  0
  161.0070  203.6250  151.9710 C   0  0  0  0  0  3  0  0  0  0  0  0
  161.5360  212.2480  148.7260 N   0  0  0  0  0  0  0  0  0  0  0  0
  161.3480  211.1490  150.6750 C   0  0  0  0  0  0  0  0  0  0  0  0
  162.0660  211.1190  148.4780 N   0  0  0  0  0  0  0  0  0  0  0  0
  162.1280  207.7740  149.9550 C   0  0  0  0  0  0  0  0  0  0  0  0
  161.6510  208.9340  156.4260 C   0  0  0  0  0  2  0  0  0  0  0  0
  160.2690  209.1960  156.9990 C   0  0  0  0  0  3  0  0  0  0  0  0
  159.4860  210.0530  156.0290 C   0  0  0  0  0  2  0  0  0  0  0  0
  160.1100  210.6800  157.2580 C   0  0  0  0  0  2  0  0  0  0  0  0
  1 24  1  0  0  0  0
  2 15  1  0  0  0  0
  3 19  1  0  0  0  0
  4 11  1  0  0  0  0
  4 13  1  0  0  0  0
  6 21  2  0  0  0  0
  7 16  2  0  0  0  0
  7  1  1  0  0  0  0
  8  4  2  0  0  0  0
  9 18  2  0  0  0  0
  9 21  1  0  0  0  0
 10  8  1  0  0  0  0
 10  3  2  0  0  0  0
 11 23  1  6  0  0  0
 11 12  1  0  0  0  0
 12 14  1  0  0  0  0
 12  2  1  1  0  0  0
 14  5  1  1  0  0  0
 14  7  1  0  0  0  0
 15  1  1  0  0  0  0
 17  8  1  0  0  0  0
 17 23  1  0  0  0  0
 18 23  2  0  0  0  0
 19 13  2  0  0  0  0
 20  6  1  0  0  0  0
 21  5  1  0  0  0  0
 22 20  2  0  0  0  0
 22  9  1  0  0  0  0
 24 25  1  0  0  0  0
 25 27  1  0  0  0  0
 26 25  1  0  0  0  0
 26 27  1  0  0  0  0
M  END
>  <MODEL>
3

>  <REMARK>
 VINA RESULT:      -7.1      2.311      5.632
  Name = 
  2 active torsions:
  status: ('A' for Active; 'I' for Inactive)
    1  A    between atoms: C_1  and  N_2
    2  A    between atoms: C_1  and  C_5
                            x       y       z     vdW  Elec       q    Type
                         _______ _______ _______ _____ _____    ______ ____

>  <TORSDO>
F 2

$$$$
=
 OpenBabel11052411163D

 27 32  0  0  1  0  0  0  0  0999 V2000
  161.3000  211.0830  150.2120 N   0  0  0  0  0  0  0  0  0  0  0  0
  162.5400  209.0040  150.3840 C   0  0  0  0  0  2  0  0  0  0  0  0
  161.5810  204.1450  149.2510 C   0  0  0  0  0  3  0  0  0  0  0  0
  161.1510  206.4070  150.7880 C   0  0  0  0  0  0  0  0  0  0  0  0
  162.3010  210.3090  153.6450 C   0  0  0  0  0  2  0  0  0  0  0  0
  162.3310  209.9860  156.1420 C   0  0  0  0  0  3  0  0  0  0  0  0
  161.0360  211.1020  151.6250 C   0  0  0  0  0  0  0  0  0  0  0  0
  161.3450  205.1650  151.3710 C   0  0  0  0  0  0  0  0  0  0  0  0
  161.1750  208.4040  155.1270 C   0  0  0  0  0  0  0  0  0  0  0  0
  161.5520  204.0590  150.6090 N   0  0  0  0  0  0  0  0  0  0  0  0
  160.8480  207.5250  151.7360 C   0  0  2  0  0  3  0  0  0  0  0  0
  161.9070  208.6690  151.7400 C   0  0  2  0  0  3  0  0  0  0  0  0
  161.1380  206.5160  149.3950 C   0  0  0  0  0  3  0  0  0  0  0  0
  161.3760  209.9180  152.4910 C   0  0  1  0  0  3  0  0  0  0  0  0
  161.5800  209.8240  149.5420 C   0  0  0  0  0  2  0  0  0  0  0  0
  160.5130  212.1210  152.1540 O   0  0  0  0  0  0  0  0  0  0  0  0
  161.1600  205.0940  153.1360 S   0  0  0  0  0  0  0  0  0  0  0  0
  160.9320  207.5550  154.1720 C   0  0  0  0  0  0  0  0  0  0  0  0
  161.3700  205.3770  148.6170 C   0  0  0  0  0  3  0  0  0  0  0  0
  161.8890  209.0040  157.0880 N   0  0  0  0  0  0  0  0  0  0  0  0
  161.9030  209.6440  154.9350 C   0  0  0  0  0  0  0  0  0  0  0  0
  161.2430  208.0780  156.5030 N   0  0  0  0  0  0  0  0  0  0  0  0
  160.7700  206.8450  153.0920 C   0  0  0  0  0  0  0  0  0  0  0  0
  161.2060  212.2910  149.4060 C   0  0  0  0  0  2  0  0  0  0  0  0
  161.7310  212.0320  148.0050 C   0  0  0  0  0  3  0  0  0  0  0  0
  163.1270  212.6040  147.8860 C   0  0  0  0  0  2  0  0  0  0  0  0
  161.9490  213.3550  147.3000 C   0  0  0  0  0  2  0  0  0  0  0  0
  1  7  1  0  0  0  0
  3 10  1  0  0  0  0
  4  8  1  0  0  0  0
  5 21  1  0  0  0  0
  6 20  1  0  0  0  0
  7 16  2  0  0  0  0
  7 14  1  0  0  0  0
  8 17  1  0  0  0  0
  9 22  1  0  0  0  0
 10  8  2  0  0  0  0
 11  4  1  6  0  0  0
 11 12  1  0  0  0  0
 11 23  1  0  0  0  0
 12  2  1  6  0  0  0
 12 14  1  0  0  0  0
 13  4  2  0  0  0  0
 14  5  1  1  0  0  0
 15  1  1  0  0  0  0
 15  2  1  0  0  0  0
 18  9  2  0  0  0  0
 19  3  2  0  0  0  0
 19 13  1  0  0  0  0
 21  9  1  0  0  0  0
 21  6  2  0  0  0  0
 22 20  2  0  0  0  0
 23 17  1  0  0  0  0
 23 18  2  0  0  0  0
 24  1  1  0  0  0  0
 25 24  1  0  0  0  0
 26 25  1  0  0  0  0
 27 26  1  0  0  0  0
 27 25  1  0  0  0  0
M  END
>  <MODEL>
4

>  <REMARK>
 VINA RESULT:      -6.4      2.188      6.585
  Name = 
  2 active torsions:
  status: ('A' for Active; 'I' for Inactive)
    1  A    between atoms: C_1  and  N_2
    2  A    between atoms: C_1  and  C_5
                            x       y       z     vdW  Elec       q    Type
                         _______ _______ _______ _____ _____    ______ ____

>  <TORSDO>
F 2

$$$$
=
 OpenBabel11052411163D

 27 32  0  0  1  0  0  0  0  0999 V2000
  161.7900  208.0000  151.6510 N   0  0  0  0  0  0  0  0  0  0  0  0
  161.9120  209.9230  153.1260 C   0  0  0  0  0  2  0  0  0  0  0  0
  158.7640  212.0850  156.4770 C   0  0  0  0  0  3  0  0  0  0  0  0
  159.4740  211.4480  153.8780 C   0  0  0  0  0  0  0  0  0  0  0  0
  162.3720  211.1310  149.8520 C   0  0  0  0  0  2  0  0  0  0  0  0
  162.2930  213.0120  148.1780 C   0  0  0  0  0  3  0  0  0  0  0  0
  161.5910  208.8330  150.4960 C   0  0  0  0  0  0  0  0  0  0  0  0
  159.0720  212.7290  154.2220 C   0  0  0  0  0  0  0  0  0  0  0  0
  160.5100  213.0010  149.4800 C   0  0  0  0  0  0  0  0  0  0  0  0
  158.7230  213.0320  155.5000 N   0  0  0  0  0  0  0  0  0  0  0  0
  159.7480  211.2280  152.4230 C   0  0  2  0  0  3  0  0  0  0  0  0
  161.2200  210.8290  152.1000 C   0  0  2  0  0  3  0  0  0  0  0  0
  159.4890  210.4490  154.8540 C   0  0  0  0  0  3  0  0  0  0  0  0
  161.3510  210.3130  150.6430 C   0  0  1  0  0  3  0  0  0  0  0  0
  161.4340  208.4910  152.9720 C   0  0  0  0  0  2  0  0  0  0  0  0
  161.6170  208.3260  149.3420 O   0  0  0  0  0  0  0  0  0  0  0  0
  158.9070  213.8830  152.8830 S   0  0  0  0  0  0  0  0  0  0  0  0
  159.8800  212.8510  150.6090 C   0  0  0  0  0  0  0  0  0  0  0  0
  159.1440  210.7720  156.1700 C   0  0  0  0  0  3  0  0  0  0  0  0
  161.4580  214.1430  147.8950 N   0  0  0  0  0  0  0  0  0  0  0  0
  161.7320  212.2950  149.1410 C   0  0  0  0  0  0  0  0  0  0  0  0
  160.4430  214.1520  148.6610 N   0  0  0  0  0  0  0  0  0  0  0  0
  159.3850  212.5540  151.7750 C   0  0  0  0  0  0  0  0  0  0  0  0
  162.2590  206.6280  151.5240 C   0  0  0  0  0  2  0  0  0  0  0  0
  161.0980  205.6590  151.6610 C   0  0  0  0  0  3  0  0  0  0  0  0
  161.6230  204.2430  151.5660 C   0  0  0  0  0  2  0  0  0  0  0  0
  160.9440  204.8800  150.3710 C   0  0  0  0  0  2  0  0  0  0  0  0
  1 15  1  0  0  0  0
  4  8  2  0  0  0  0
  4 13  1  0  0  0  0
  6 21  2  0  0  0  0
  7 14  1  0  0  0  0
  7  1  1  0  0  0  0
  8 10  1  0  0  0  0
  9 18  2  0  0  0  0
 10  3  2  0  0  0  0
 11 23  1  6  0  0  0
 11  4  1  0  0  0  0
 12 11  1  0  0  0  0
 12  2  1  1  0  0  0
 13 19  2  0  0  0  0
 14  5  1  1  0  0  0
 14 12  1  0  0  0  0
 15  2  1  0  0  0  0
 16  7  2  0  0  0  0
 17  8  1  0  0  0  0
 18 23  2  0  0  0  0
 19  3  1  0  0  0  0
 20  6  1  0  0  0  0
 20 22  2  0  0  0  0
 21  9  1  0  0  0  0
 21  5  1  0  0  0  0
 22  9  1  0  0  0  0
 23 17  1  0  0  0  0
 24  1  1  0  0  0  0
 24 25  1  0  0  0  0
 26 25  1  0  0  0  0
 27 26  1  0  0  0  0
 27 25  1  0  0  0  0
M  END
>  <MODEL>
5

>  <REMARK>
 VINA RESULT:      -6.1      2.281      3.144
  Name = 
  2 active torsions:
  status: ('A' for Active; 'I' for Inactive)
    1  A    between atoms: C_1  and  N_2
    2  A    between atoms: C_1  and  C_5
                            x       y       z     vdW  Elec       q    Type
                         _______ _______ _______ _____ _____    ______ ____

>  <TORSDO>
F 2

$$$$
=
 OpenBabel11052411163D

 27 32  0  0  1  0  0  0  0  0999 V2000
  161.9620  205.9670  146.7280 N   0  0  0  0  0  0  0  0  0  0  0  0
  160.5050  206.7190  148.5170 C   0  0  0  0  0  2  0  0  0  0  0  0
  161.0690  209.6940  152.5970 C   0  0  0  0  0  3  0  0  0  0  0  0
  161.5770  207.3480  151.2180 C   0  0  0  0  0  0  0  0  0  0  0  0
  160.5600  203.2030  148.6700 C   0  0  0  0  0  2  0  0  0  0  0  0
  160.2560  201.0600  149.9590 C   0  0  0  0  0  3  0  0  0  0  0  0
  162.0890  204.6600  147.3110 C   0  0  0  0  0  0  0  0  0  0  0  0
  161.2020  207.3340  152.5520 C   0  0  0  0  0  0  0  0  0  0  0  0
  161.3380  202.5780  151.1410 C   0  0  0  0  0  0  0  0  0  0  0  0
  160.9580  208.4910  153.2220 N   0  0  0  0  0  0  0  0  0  0  0  0
  161.9000  206.0130  150.6240 C   0  0  2  0  0  3  0  0  0  0  0  0
  160.9670  205.5910  149.4480 C   0  0  2  0  0  3  0  0  0  0  0  0
  161.7350  208.5730  150.5640 C   0  0  0  0  0  3  0  0  0  0  0  0
  161.5480  204.3710  148.6860 C   0  0  1  0  0  3  0  0  0  0  0  0
  161.6210  207.1070  147.5640 C   0  0  0  0  0  2  0  0  0  0  0  0
  162.6590  203.7370  146.6680 O   0  0  0  0  0  0  0  0  0  0  0  0
  161.2070  205.7460  153.3480 S   0  0  0  0  0  0  0  0  0  0  0  0
  161.5830  203.7840  151.5610 C   0  0  0  0  0  0  0  0  0  0  0  0
  161.4650  209.7580  151.2550 C   0  0  0  0  0  3  0  0  0  0  0  0
  160.5020  200.5790  151.2860 N   0  0  0  0  0  0  0  0  0  0  0  0
  160.7610  202.2800  149.8420 C   0  0  0  0  0  0  0  0  0  0  0  0
  161.1040  201.4610  151.9780 N   0  0  0  0  0  0  0  0  0  0  0  0
  161.7760  205.0510  151.7930 C   0  0  0  0  0  0  0  0  0  0  0  0
  162.2560  206.2040  145.3220 C   0  0  0  0  0  2  0  0  0  0  0  0
  160.9740  206.2020  144.5080 C   0  0  0  0  0  3  0  0  0  0  0  0
  160.4840  204.7780  144.3590 C   0  0  0  0  0  2  0  0  0  0  0  0
  161.2060  205.4530  143.2120 C   0  0  0  0  0  2  0  0  0  0  0  0
  1  7  1  0  0  0  0
  1 15  1  0  0  0  0
  3 10  1  0  0  0  0
  4  8  1  0  0  0  0
  5 21  1  0  0  0  0
  6 20  1  0  0  0  0
  7 14  1  0  0  0  0
  8 10  2  0  0  0  0
  8 17  1  0  0  0  0
  9 18  2  0  0  0  0
  9 22  1  0  0  0  0
 11  4  1  1  0  0  0
 11 23  1  0  0  0  0
 12  2  1  6  0  0  0
 12 11  1  0  0  0  0
 13  4  2  0  0  0  0
 13 19  1  0  0  0  0
 14  5  1  6  0  0  0
 14 12  1  0  0  0  0
 15  2  1  0  0  0  0
 16  7  2  0  0  0  0
 18 23  2  0  0  0  0
 19  3  2  0  0  0  0
 20 22  2  0  0  0  0
 21  6  2  0  0  0  0
 21  9  1  0  0  0  0
 23 17  1  0  0  0  0
 24  1  1  0  0  0  0
 25 24  1  0  0  0  0
 26 25  1  0  0  0  0
 27 26  1  0  0  0  0
 27 25  1  0  0  0  0
M  END
>  <MODEL>
6

>  <REMARK>
 VINA RESULT:      -5.9      2.992      6.161
  Name = 
  2 active torsions:
  status: ('A' for Active; 'I' for Inactive)
    1  A    between atoms: C_1  and  N_2
    2  A    between atoms: C_1  and  C_5
                            x       y       z     vdW  Elec       q    Type
                         _______ _______ _______ _____ _____    ______ ____

>  <TORSDO>
F 2

$$$$
=
 OpenBabel11052411163D

 27 32  0  0  1  0  0  0  0  0999 V2000
  161.7140  207.8930  150.2160 N   0  0  0  0  0  0  0  0  0  0  0  0
  160.1830  206.0140  150.1090 C   0  0  0  0  0  2  0  0  0  0  0  0
  160.3350  201.1670  151.6250 C   0  0  0  0  0  3  0  0  0  0  0  0
  161.1810  203.2170  149.9680 C   0  0  0  0  0  0  0  0  0  0  0  0
  160.7830  207.0170  146.7890 C   0  0  0  0  0  2  0  0  0  0  0  0
  160.8310  206.5130  144.3210 C   0  0  0  0  0  3  0  0  0  0  0  0
  162.0500  207.7660  148.8240 C   0  0  0  0  0  0  0  0  0  0  0  0
  160.8310  201.9770  149.4590 C   0  0  0  0  0  0  0  0  0  0  0  0
  161.6810  204.8590  145.5100 C   0  0  0  0  0  0  0  0  0  0  0  0
  160.4200  200.9750  150.2810 N   0  0  0  0  0  0  0  0  0  0  0  0
  161.6980  204.2020  148.9670 C   0  0  2  0  0  3  0  0  0  0  0  0
  160.8270  205.4860  148.8210 C   0  0  2  0  0  3  0  0  0  0  0  0
  161.1390  203.4280  151.3490 C   0  0  0  0  0  3  0  0  0  0  0  0
  161.5790  206.5820  148.0210 C   0  0  1  0  0  3  0  0  0  0  0  0
  161.2120  206.7440  150.9520 C   0  0  0  0  0  2  0  0  0  0  0  0
  162.7470  208.6530  148.2610 O   0  0  0  0  0  0  0  0  0  0  0  0
  161.0920  201.7440  147.7180 S   0  0  0  0  0  0  0  0  0  0  0  0
  161.7430  204.0590  146.5340 C   0  0  0  0  0  0  0  0  0  0  0  0
  160.6990  202.3990  152.1860 C   0  0  0  0  0  3  0  0  0  0  0  0
  161.1670  205.4070  143.4730 N   0  0  0  0  0  0  0  0  0  0  0  0
  161.1410  206.2040  145.5730 C   0  0  0  0  0  0  0  0  0  0  0  0
  161.6350  204.4430  144.1580 N   0  0  0  0  0  0  0  0  0  0  0  0
  161.7410  203.4170  147.6670 C   0  0  0  0  0  0  0  0  0  0  0  0
  161.9490  209.1330  150.9430 C   0  0  0  0  0  2  0  0  0  0  0  0
  161.2710  209.0840  152.3010 C   0  0  0  0  0  3  0  0  0  0  0  0
  160.3180  210.2530  152.4200 C   0  0  0  0  0  2  0  0  0  0  0  0
  161.6700  210.3060  153.1020 C   0  0  0  0  0  2  0  0  0  0  0  0
  1 24  1  0  0  0  0
  1 15  1  0  0  0  0
  2 15  1  0  0  0  0
  3 19  1  0  0  0  0
  4 13  1  0  0  0  0
  6 21  2  0  0  0  0
  7  1  1  0  0  0  0
  8  4  2  0  0  0  0
  8 10  1  0  0  0  0
  9 21  1  0  0  0  0
  9 18  2  0  0  0  0
 10  3  2  0  0  0  0
 11 23  1  6  0  0  0
 11  4  1  0  0  0  0
 12 11  1  0  0  0  0
 12  2  1  1  0  0  0
 13 19  2  0  0  0  0
 14  5  1  6  0  0  0
 14 12  1  0  0  0  0
 14  7  1  0  0  0  0
 16  7  2  0  0  0  0
 17  8  1  0  0  0  0
 18 23  2  0  0  0  0
 20 22  2  0  0  0  0
 20  6  1  0  0  0  0
 21  5  1  0  0  0  0
 22  9  1  0  0  0  0
 23 17  1  0  0  0  0
 24 25  1  0  0  0  0
 25 26  1  0  0  0  0
 25 27  1  0  0  0  0
 26 27  1  0  0  0  0
M  END
>  <MODEL>
7

>  <REMARK>
 VINA RESULT:      -5.7      3.530      6.734
  Name = 
  2 active torsions:
  status: ('A' for Active; 'I' for Inactive)
    1  A    between atoms: C_1  and  N_2
    2  A    between atoms: C_1  and  C_5
                            x       y       z     vdW  Elec       q    Type
                         _______ _______ _______ _____ _____    ______ ____

>  <TORSDO>
F 2

$$$$
=
 OpenBabel11052411163D

 27 32  0  0  1  0  0  0  0  0999 V2000
  161.9950  210.0670  148.9720 N   0  0  0  0  0  0  0  0  0  0  0  0
  163.0190  207.9350  148.4270 C   0  0  0  0  0  2  0  0  0  0  0  0
  161.8830  204.1020  145.2930 C   0  0  0  0  0  3  0  0  0  0  0  0
  161.3790  205.6140  147.5570 C   0  0  0  0  0  0  0  0  0  0  0  0
  162.3340  207.8740  151.8800 C   0  0  0  0  0  2  0  0  0  0  0  0
  161.9150  206.5950  154.0080 C   0  0  0  0  0  3  0  0  0  0  0  0
  161.4970  209.5670  150.2240 C   0  0  0  0  0  0  0  0  0  0  0  0
  161.3720  204.2290  147.5990 C   0  0  0  0  0  0  0  0  0  0  0  0
  160.8250  205.7190  152.3010 C   0  0  0  0  0  0  0  0  0  0  0  0
  161.6170  203.4940  146.4820 N   0  0  0  0  0  0  0  0  0  0  0  0
  161.0090  206.2990  148.8350 C   0  0  2  0  0  3  0  0  0  0  0  0
  162.1390  207.1870  149.4370 C   0  0  2  0  0  3  0  0  0  0  0  0
  161.6120  206.2610  146.3410 C   0  0  0  0  0  3  0  0  0  0  0  0
  161.5900  208.1020  150.5630 C   0  0  1  0  0  3  0  0  0  0  0  0
  162.2840  209.1470  147.8840 C   0  0  0  0  0  2  0  0  0  0  0  0
  160.9740  210.3580  151.0550 O   0  0  0  0  0  0  0  0  0  0  0  0
  160.8850  203.4960  149.1420 S   0  0  0  0  0  0  0  0  0  0  0  0
  160.6810  205.3570  151.0590 C   0  0  0  0  0  0  0  0  0  0  0  0
  161.8800  205.4990  145.2000 C   0  0  0  0  0  3  0  0  0  0  0  0
  161.2420  205.3930  154.4060 N   0  0  0  0  0  0  0  0  0  0  0  0
  161.6720  206.8190  152.7250 C   0  0  0  0  0  0  0  0  0  0  0  0
  160.6330  204.8730  153.4180 N   0  0  0  0  0  0  0  0  0  0  0  0
  160.6490  205.1600  149.7730 C   0  0  0  0  0  0  0  0  0  0  0  0
  162.1350  211.4950  148.7270 C   0  0  0  0  0  2  0  0  0  0  0  0
  161.1680  211.9420  147.6450 C   0  0  0  0  0  3  0  0  0  0  0  0
  161.7340  213.1590  146.9470 C   0  0  0  0  0  2  0  0  0  0  0  0
  160.6430  213.3220  147.9840 C   0  0  0  0  0  2  0  0  0  0  0  0
  1  7  1  0  0  0  0
  3 10  1  0  0  0  0
  4  8  1  0  0  0  0
  5 21  1  0  0  0  0
  6 20  1  0  0  0  0
  7 14  1  0  0  0  0
  7 16  2  0  0  0  0
  8 17  1  0  0  0  0
  9 21  1  0  0  0  0
  9 22  1  0  0  0  0
 10  8  2  0  0  0  0
 11  4  1  6  0  0  0
 11 12  1  0  0  0  0
 11 23  1  0  0  0  0
 12  2  1  6  0  0  0
 12 14  1  0  0  0  0
 13  4  2  0  0  0  0
 14  5  1  1  0  0  0
 15  2  1  0  0  0  0
 15  1  1  0  0  0  0
 17 23  1  0  0  0  0
 18  9  2  0  0  0  0
 19  3  2  0  0  0  0
 19 13  1  0  0  0  0
 21  6  2  0  0  0  0
 22 20  2  0  0  0  0
 23 18  2  0  0  0  0
 24  1  1  0  0  0  0
 25 27  1  0  0  0  0
 25 24  1  0  0  0  0
 26 25  1  0  0  0  0
 26 27  1  0  0  0  0
M  END
>  <MODEL>
8

>  <REMARK>
 VINA RESULT:      -5.6      2.971      7.496
  Name = 
  2 active torsions:
  status: ('A' for Active; 'I' for Inactive)
    1  A    between atoms: C_1  and  N_2
    2  A    between atoms: C_1  and  C_5
                            x       y       z     vdW  Elec       q    Type
                         _______ _______ _______ _____ _____    ______ ____

>  <TORSDO>
F 2

$$$$
=
 OpenBabel11052411163D

 27 32  0  0  1  0  0  0  0  0999 V2000
  160.8220  208.6480  154.6890 N   0  0  0  0  0  0  0  0  0  0  0  0
  162.4130  208.8830  152.8720 C   0  0  0  0  0  2  0  0  0  0  0  0
  162.4730  211.3890  148.4530 C   0  0  0  0  0  3  0  0  0  0  0  0
  161.5090  209.3700  150.0820 C   0  0  0  0  0  0  0  0  0  0  0  0
  161.6810  205.4500  153.1340 C   0  0  0  0  0  2  0  0  0  0  0  0
  161.5780  203.1480  152.1190 C   0  0  0  0  0  3  0  0  0  0  0  0
  160.4500  207.3280  154.2610 C   0  0  0  0  0  0  0  0  0  0  0  0
  161.8860  209.1210  148.7720 C   0  0  0  0  0  0  0  0  0  0  0  0
  160.8210  204.6870  150.7310 C   0  0  0  0  0  0  0  0  0  0  0  0
  162.3550  210.1190  147.9780 N   0  0  0  0  0  0  0  0  0  0  0  0
  160.9280  208.2030  150.8190 C   0  0  2  0  0  3  0  0  0  0  0  0
  161.7500  207.7590  152.0660 C   0  0  2  0  0  3  0  0  0  0  0  0
  161.5840  210.6730  150.5810 C   0  0  0  0  0  3  0  0  0  0  0  0
  160.9380  206.7740  152.9480 C   0  0  1  0  0  3  0  0  0  0  0  0
  161.3850  209.5900  153.7350 C   0  0  0  0  0  2  0  0  0  0  0  0
  159.7060  206.6160  154.9900 O   0  0  0  0  0  0  0  0  0  0  0  0
  161.5810  207.4780  148.1700 S   0  0  0  0  0  0  0  0  0  0  0  0
  160.8170  205.8580  150.1630 C   0  0  0  0  0  0  0  0  0  0  0  0
  162.0840  211.6910  149.7640 C   0  0  0  0  0  3  0  0  0  0  0  0
  161.2560  202.5630  150.8510 N   0  0  0  0  0  0  0  0  0  0  0  0
  161.3160  204.4460  152.0740 C   0  0  0  0  0  0  0  0  0  0  0  0
  160.8420  203.4520  150.0410 N   0  0  0  0  0  0  0  0  0  0  0  0
  160.8750  207.1000  149.7760 C   0  0  0  0  0  0  0  0  0  0  0  0
  160.5660  209.1060  156.0470 C   0  0  0  0  0  2  0  0  0  0  0  0
  160.2100  210.5820  156.0460 C   0  0  0  0  0  3  0  0  0  0  0  0
  160.8310  211.2410  157.2590 C   0  0  0  0  0  2  0  0  0  0  0  0
  159.3570  210.8900  157.2600 C   0  0  0  0  0  2  0  0  0  0  0  0
  1 24  1  0  0  0  0
  2 15  1  0  0  0  0
  3 19  1  0  0  0  0
  4 13  1  0  0  0  0
  4 11  1  0  0  0  0
  7  1  1  0  0  0  0
  7 16  2  0  0  0  0
  8  4  2  0  0  0  0
  9 21  1  0  0  0  0
 10  3  2  0  0  0  0
 10  8  1  0  0  0  0
 11 23  1  6  0  0  0
 11 12  1  0  0  0  0
 12  2  1  1  0  0  0
 12 14  1  0  0  0  0
 14  5  1  1  0  0  0
 14  7  1  0  0  0  0
 15  1  1  0  0  0  0
 17  8  1  0  0  0  0
 17 23  1  0  0  0  0
 18  9  2  0  0  0  0
 19 13  2  0  0  0  0
 20  6  1  0  0  0  0
 21  6  2  0  0  0  0
 21  5  1  0  0  0  0
 22  9  1  0  0  0  0
 22 20  2  0  0  0  0
 23 18  2  0  0  0  0
 25 24  1  0  0  0  0
 25 26  1  0  0  0  0
 25 27  1  0  0  0  0
 26 27  1  0  0  0  0
M  END
>  <MODEL>
9

>  <REMARK>
 VINA RESULT:      -5.3      2.478      7.013
  Name = 
  2 active torsions:
  status: ('A' for Active; 'I' for Inactive)
    1  A    between atoms: C_1  and  N_2
    2  A    between atoms: C_1  and  C_5
                            x       y       z     vdW  Elec       q    Type
                         _______ _______ _______ _____ _____    ______ ____

>  <TORSDO>
F 2

$$$$
