=
 OpenBabel11042422233D

 58 63  0  0  1  0  0  0  0  0999 V2000
  160.3570  203.7320  150.0540 N   0  0  0  0  0  0  0  0  0  0  0  0
  161.4160  206.0460  148.7630 C   0  0  2  0  0  3  0  0  0  0  0  0
  161.4550  204.6810  148.1160 C   0  0  0  0  0  0  0  0  0  0  0  0
  160.9240  203.6220  148.7440 C   0  0  0  0  0  3  0  0  0  0  0  0
  160.4240  204.8300  150.7400 C   0  0  0  0  0  3  0  0  0  0  0  0
  161.0590  205.9970  150.2000 N   0  0  0  0  0  0  0  0  0  0  0  0
  160.4840  208.1930  151.2010 C   0  0  0  0  0  3  0  0  0  0  0  0
  161.9930  209.2780  152.7460 C   0  0  0  0  0  3  0  0  0  0  0  0
  160.7910  209.2690  152.0380 C   0  0  0  0  0  0  0  0  0  0  0  0
  162.8720  208.2020  152.6340 C   0  0  0  0  0  3  0  0  0  0  0  0
  162.5570  207.1240  151.8070 C   0  0  0  0  0  3  0  0  0  0  0  0
  161.3620  207.1030  151.0710 C   0  0  0  0  0  0  0  0  0  0  0  0
  159.7060  210.6970  152.1310 S   0  0  0  0  0  0  0  0  0  0  0  0
  160.0220  211.1710  153.8710 C   0  0  2  0  0  0  0  0  0  0  0  0
  159.6110  212.6320  154.0840 C   0  0  0  0  0  2  0  0  0  0  0  0
  158.3680  212.1250  156.2130 N   0  0  0  0  0  0  0  0  0  0  0  0
  161.3850  211.0330  154.1430 O   0  0  0  0  0  1  0  0  0  0  0  0
  159.4570  212.9030  155.5810 C   0  0  0  0  0  2  0  0  0  0  0  0
  157.9850  210.9160  155.4610 C   0  0  0  0  0  2  0  0  0  0  0  0
  159.1790  210.2270  154.7760 C   0  0  2  0  0  3  0  0  0  0  0  0
  159.5360  207.9640  155.8030 C   0  0  0  0  0  3  0  0  0  0  0  0
  159.9600  209.2970  155.6790 C   0  0  0  0  0  0  0  0  0  0  0  0
  161.4240  207.4980  157.2460 C   0  0  0  0  0  3  0  0  0  0  0  0
  161.8570  208.8200  157.1110 C   0  0  0  0  0  3  0  0  0  0  0  0
  161.1320  209.7120  156.3240 C   0  0  0  0  0  3  0  0  0  0  0  0
  160.2650  207.0640  156.5860 C   0  0  0  0  0  3  0  0  0  0  0  0
  157.1160  212.8700  156.4370 C   0  0  2  0  0  3  0  0  0  0  0  0
  155.8340  212.1020  156.2060 C   0  0  0  0  0  0  0  0  0  0  0  0
  155.6480  211.3660  155.0350 O   0  0  0  0  0  0  0  0  0  0  0  0
  154.8960  212.1590  157.0510 O   0  0  0  0  0  1  0  0  0  0  0  0
  155.8630  214.4170  155.0890 O   0  0  0  0  0  1  0  0  0  0  0  0
  157.1240  214.1690  155.6350 C   0  0  0  0  0  2  0  0  0  0  0  0
  161.0240  204.9010  144.2590 N   0  0  0  0  0  0  0  0  0  0  0  0
  161.1440  204.7260  145.6260 C   0  0  0  0  0  0  0  0  0  0  0  0
  161.9660  204.5650  146.7830 N   0  0  0  0  0  2  0  0  0  0  0  0
  159.9220  204.8120  145.0720 N   0  0  0  0  0  0  0  0  0  0  0  0
  161.5790  205.0250  142.9770 N   0  0  0  0  0  2  0  0  0  0  0  0
  162.0820  206.3920  142.8440 C   0  0  0  0  0  2  0  0  0  0  0  0
  161.9280  206.8780  141.4650 C   0  0  0  0  0  0  0  0  0  0  0  0
  161.7620  207.2810  140.3390 C   0  0  0  0  0  0  0  0  0  0  0  0
  161.5330  207.7450  139.0350 N   0  0  0  0  0  2  0  0  0  0  0  0
  161.1590  209.0720  138.7290 N   0  0  0  0  0  0  0  0  0  0  0  0
  157.0270  209.5360  137.8270 C   0  0  0  0  0  0  0  0  0  0  0  0
  157.7570  208.6900  137.0910 C   0  0  0  0  0  3  0  0  0  0  0  0
  159.2590  208.8340  137.0130 C   0  0  0  0  0  2  0  0  0  0  0  0
  155.6750  209.4130  137.8500 F   0  0  0  0  0  0  0  0  0  0  0  0
  159.8330  209.4020  138.2980 C   0  0  0  0  0  0  0  0  0  0  0  0
  159.0730  210.2300  139.0330 C   0  0  0  0  0  3  0  0  0  0  0  0
  157.6970  210.6470  138.5920 C   0  0  0  0  0  2  0  0  0  0  0  0
  162.2130  210.0930  138.6450 C   0  0  0  0  0  2  0  0  0  0  0  0
  161.6240  211.3680  138.4470 O   0  0  0  0  0  0  0  0  0  0  0  0
  163.2530  212.7490  139.3260 O   0  0  0  0  0  0  0  0  0  0  0  0
  162.0250  212.4880  139.1850 C   0  0  0  0  0  0  0  0  0  0  0  0
  161.1860  213.7840  141.0670 C   0  0  0  0  0  2  0  0  0  0  0  0
  161.0140  213.3460  139.8260 C   0  0  0  0  0  0  0  0  0  0  0  0
  159.8460  213.8490  139.0470 C   0  0  0  0  0  1  0  0  0  0  0  0
  161.2700  207.7910  147.3930 C   0  0  0  0  0  1  0  0  0  0  0  0
  160.5000  206.8570  148.0800 O   0  0  0  0  0  0  0  0  0  0  0  0
  1  5  2  0  0  0  0
  2 58  1  6  0  0  0
  2  6  1  0  0  0  0
  3  4  2  0  0  0  0
  3  2  1  0  0  0  0
  4  1  1  0  0  0  0
  6  5  1  0  0  0  0
  6 12  1  0  0  0  0
  7  9  1  0  0  0  0
  9 13  1  0  0  0  0
  9  8  2  0  0  0  0
 10  8  1  0  0  0  0
 11 10  2  0  0  0  0
 12  7  2  0  0  0  0
 12 11  1  0  0  0  0
 13 14  1  0  0  0  0
 14 15  1  0  0  0  0
 14 17  1  1  0  0  0
 14 20  1  0  0  0  0
 15 18  1  0  0  0  0
 16 27  1  0  0  0  0
 18 16  1  0  0  0  0
 19 16  1  0  0  0  0
 20 19  1  0  0  0  0
 20 22  1  1  0  0  0
 21 26  1  0  0  0  0
 22 21  2  0  0  0  0
 22 25  1  0  0  0  0
 24 23  1  0  0  0  0
 25 24  2  0  0  0  0
 26 23  2  0  0  0  0
 27 32  1  6  0  0  0
 28 27  1  0  0  0  0
 28 30  1  0  0  0  0
 29 28  2  0  0  0  0
 31 32  1  0  0  0  0
 33 36  1  0  0  0  0
 33 34  1  0  0  0  0
 34 35  1  0  0  0  0
 35  3  1  0  0  0  0
 36 34  2  0  0  0  0
 37 33  1  0  0  0  0
 38 37  1  0  0  0  0
 39 38  1  0  0  0  0
 40 39  3  0  0  0  0
 41 40  1  0  0  0  0
 42 41  1  0  0  0  0
 43 46  1  0  0  0  0
 43 49  1  0  0  0  0
 44 43  2  0  0  0  0
 45 44  1  0  0  0  0
 45 47  1  0  0  0  0
 47 42  1  0  0  0  0
 47 48  2  0  0  0  0
 49 48  1  0  0  0  0
 50 42  1  0  0  0  0
 51 50  1  0  0  0  0
 51 53  1  0  0  0  0
 53 52  2  0  0  0  0
 53 55  1  0  0  0  0
 55 54  2  0  0  0  0
 56 55  1  0  0  0  0
 57 58  1  0  0  0  0
M  END
>  <MODEL>
1

>  <REMARK>
 VINA RESULT:      -2.6      0.000      0.000
  Name = 
  19 active torsions:
  status: ('A' for Active; 'I' for Inactive)
    1  A    between atoms: C_4  and  S_14
    2  A    between atoms: N_5  and  N_56
    3  A    between atoms: C_8  and  O_37
    4  A    between atoms: S_14  and  C_27
    5  A    between atoms: C_17  and  N_23
    6  A    between atoms: C_18  and  C_19
    7  A    between atoms: C_19  and  N_56
    8  A    between atoms: C_20  and  C_43
    9  A    between atoms: N_21  and  C_30
   10  A    between atoms: C_25  and  C_49
   11  A    between atoms: C_29  and  N_48
   12  A    between atoms: C_30  and  C_31
   13  A    between atoms: C_30  and  C_40
   14  A    between atoms: N_35  and  C_47
   15  A    between atoms: N_35  and  N_48
   16  A    between atoms: N_45  and  C_55
   17  A    between atoms: C_46  and  N_48
   18  A    between atoms: C_46  and  O_54
   19  A    between atoms: C_49  and  O_54
                            x       y       z     vdW  Elec       q    Type
                         _______ _______ _______ _____ _____    ______ ____

>  <TORSDO>
F 19

$$$$
=
 OpenBabel11042422233D

 58 63  0  0  1  0  0  0  0  0999 V2000
  162.1380  207.6200  147.8510 N   0  0  0  0  0  0  0  0  0  0  0  0
  161.5320  208.0550  150.6060 C   0  0  2  0  0  3  0  0  0  0  0  0
  162.0790  209.1540  149.7240 C   0  0  0  0  0  0  0  0  0  0  0  0
  162.3280  208.9170  148.4280 C   0  0  0  0  0  3  0  0  0  0  0  0
  161.8220  206.5890  148.5710 C   0  0  0  0  0  3  0  0  0  0  0  0
  161.6280  206.7130  149.9880 N   0  0  0  0  0  0  0  0  0  0  0  0
  161.6900  204.2440  150.2300 C   0  0  0  0  0  3  0  0  0  0  0  0
  161.3540  203.2070  152.3880 C   0  0  0  0  0  3  0  0  0  0  0  0
  161.6000  203.0940  151.0190 C   0  0  0  0  0  0  0  0  0  0  0  0
  161.2230  204.4680  152.9670 C   0  0  0  0  0  3  0  0  0  0  0  0
  161.3240  205.6150  152.1780 C   0  0  0  0  0  3  0  0  0  0  0  0
  161.5520  205.5240  150.7970 C   0  0  0  0  0  0  0  0  0  0  0  0
  161.6890  201.4630  150.2740 S   0  0  0  0  0  0  0  0  0  0  0  0
  160.7880  201.8180  148.7210 C   0  0  2  0  0  0  0  0  0  0  0  0
  160.3990  203.3000  148.6840 C   0  0  0  0  0  2  0  0  0  0  0  0
  161.1940  203.6020  146.3150 N   0  0  0  0  0  0  0  0  0  0  0  0
  159.6300  201.0380  148.6740 O   0  0  0  0  0  1  0  0  0  0  0  0
  160.0500  203.6990  147.2500 C   0  0  0  0  0  2  0  0  0  0  0  0
  162.2660  202.7010  146.7760 C   0  0  0  0  0  2  0  0  0  0  0  0
  161.7370  201.4720  147.5370 C   0  0  2  0  0  3  0  0  0  0  0  0
  160.2980  200.5690  145.6880 C   0  0  0  0  0  3  0  0  0  0  0  0
  161.3000  200.3310  146.6440 C   0  0  0  0  0  0  0  0  0  0  0  0
  160.5210  198.2940  144.8890 C   0  0  0  0  0  3  0  0  0  0  0  0
  161.5300  198.0600  145.8280 C   0  0  0  0  0  3  0  0  0  0  0  0
  161.9220  199.0770  146.6950 C   0  0  0  0  0  3  0  0  0  0  0  0
  159.9070  199.5520  144.8120 C   0  0  0  0  0  3  0  0  0  0  0  0
  161.8550  204.8820  146.0010 C   0  0  2  0  0  3  0  0  0  0  0  0
  161.2190  205.7080  144.9060 C   0  0  0  0  0  0  0  0  0  0  0  0
  161.7590  205.7180  143.6180 O   0  0  0  0  0  0  0  0  0  0  0  0
  160.2190  206.4380  145.1580 O   0  0  0  0  0  1  0  0  0  0  0  0
  164.0970  204.8920  146.8690 O   0  0  0  0  0  1  0  0  0  0  0  0
  163.3380  204.6550  145.7210 C   0  0  0  0  0  2  0  0  0  0  0  0
  161.4210  212.9840  149.6230 N   0  0  0  0  0  0  0  0  0  0  0  0
  161.7380  211.6380  149.6010 C   0  0  0  0  0  0  0  0  0  0  0  0
  162.2190  210.4710  150.2700 N   0  0  0  0  0  2  0  0  0  0  0  0
  161.2700  212.2280  148.4870 N   0  0  0  0  0  0  0  0  0  0  0  0
  161.3480  214.2240  150.2730 N   0  0  0  0  0  2  0  0  0  0  0  0
  159.9480  214.4530  150.6300 C   0  0  0  0  0  2  0  0  0  0  0  0
  159.5530  213.6190  151.7740 C   0  0  0  0  0  0  0  0  0  0  0  0
  159.1930  212.9280  152.6970 C   0  0  0  0  0  0  0  0  0  0  0  0
  158.7420  212.1250  153.7550 N   0  0  0  0  0  2  0  0  0  0  0  0
  159.3250  212.1200  155.0410 N   0  0  0  0  0  0  0  0  0  0  0  0
  161.4570  208.5330  155.8760 C   0  0  0  0  0  0  0  0  0  0  0  0
  160.1210  208.5230  155.9570 C   0  0  0  0  0  3  0  0  0  0  0  0
  159.3520  209.8060  156.1650 C   0  0  0  0  0  2  0  0  0  0  0  0
  162.1300  207.3630  155.7290 F   0  0  0  0  0  0  0  0  0  0  0  0
  160.0580  210.9910  155.5320 C   0  0  0  0  0  0  0  0  0  0  0  0
  161.3980  210.9680  155.4390 C   0  0  0  0  0  3  0  0  0  0  0  0
  162.2130  209.8310  155.9900 C   0  0  0  0  0  2  0  0  0  0  0  0
  158.9830  213.2080  155.9670 C   0  0  0  0  0  2  0  0  0  0  0  0
  157.8060  212.8710  156.6830 O   0  0  0  0  0  0  0  0  0  0  0  0
  156.1630  214.0700  155.5910 O   0  0  0  0  0  0  0  0  0  0  0  0
  156.5360  212.9780  156.1050 C   0  0  0  0  0  0  0  0  0  0  0  0
  155.0500  211.4340  157.2600 C   0  0  0  0  0  2  0  0  0  0  0  0
  155.6190  211.8260  156.1270 C   0  0  0  0  0  0  0  0  0  0  0  0
  155.2060  211.1650  154.8550 C   0  0  0  0  0  1  0  0  0  0  0  0
  160.2380  209.3100  151.9080 C   0  0  0  0  0  1  0  0  0  0  0  0
  160.1940  208.3330  150.9160 O   0  0  0  0  0  0  0  0  0  0  0  0
  1  4  1  0  0  0  0
  1  5  2  0  0  0  0
  2 58  1  6  0  0  0
  3 35  1  0  0  0  0
  3  2  1  0  0  0  0
  4  3  2  0  0  0  0
  5  6  1  0  0  0  0
  6  2  1  0  0  0  0
  6 12  1  0  0  0  0
  7 12  2  0  0  0  0
  7  9  1  0  0  0  0
  8 10  1  0  0  0  0
  9  8  2  0  0  0  0
 11 10  2  0  0  0  0
 12 11  1  0  0  0  0
 13  9  1  0  0  0  0
 14 17  1  6  0  0  0
 14 13  1  0  0  0  0
 15 14  1  0  0  0  0
 16 19  1  0  0  0  0
 16 18  1  0  0  0  0
 18 15  1  0  0  0  0
 19 20  1  0  0  0  0
 20 22  1  6  0  0  0
 20 14  1  0  0  0  0
 21 22  1  0  0  0  0
 22 25  2  0  0  0  0
 23 24  2  0  0  0  0
 24 25  1  0  0  0  0
 26 23  1  0  0  0  0
 26 21  2  0  0  0  0
 27 32  1  6  0  0  0
 27 16  1  0  0  0  0
 28 30  1  0  0  0  0
 28 27  1  0  0  0  0
 29 28  2  0  0  0  0
 32 31  1  0  0  0  0
 33 37  1  0  0  0  0
 34 33  1  0  0  0  0
 34 35  1  0  0  0  0
 36 34  2  0  0  0  0
 36 33  1  0  0  0  0
 37 38  1  0  0  0  0
 38 39  1  0  0  0  0
 39 40  3  0  0  0  0
 40 41  1  0  0  0  0
 41 42  1  0  0  0  0
 42 47  1  0  0  0  0
 42 50  1  0  0  0  0
 43 44  2  0  0  0  0
 43 49  1  0  0  0  0
 44 45  1  0  0  0  0
 46 43  1  0  0  0  0
 47 45  1  0  0  0  0
 48 47  2  0  0  0  0
 48 49  1  0  0  0  0
 50 51  1  0  0  0  0
 52 53  2  0  0  0  0
 53 55  1  0  0  0  0
 53 51  1  0  0  0  0
 55 54  2  0  0  0  0
 56 55  1  0  0  0  0
 58 57  1  0  0  0  0
M  END
>  <MODEL>
2

>  <REMARK>
 VINA RESULT:      -2.0      5.505     12.948
  Name = 
  19 active torsions:
  status: ('A' for Active; 'I' for Inactive)
    1  A    between atoms: C_4  and  S_14
    2  A    between atoms: N_5  and  N_56
    3  A    between atoms: C_8  and  O_37
    4  A    between atoms: S_14  and  C_27
    5  A    between atoms: C_17  and  N_23
    6  A    between atoms: C_18  and  C_19
    7  A    between atoms: C_19  and  N_56
    8  A    between atoms: C_20  and  C_43
    9  A    between atoms: N_21  and  C_30
   10  A    between atoms: C_25  and  C_49
   11  A    between atoms: C_29  and  N_48
   12  A    between atoms: C_30  and  C_31
   13  A    between atoms: C_30  and  C_40
   14  A    between atoms: N_35  and  C_47
   15  A    between atoms: N_35  and  N_48
   16  A    between atoms: N_45  and  C_55
   17  A    between atoms: C_46  and  N_48
   18  A    between atoms: C_46  and  O_54
   19  A    between atoms: C_49  and  O_54
                            x       y       z     vdW  Elec       q    Type
                         _______ _______ _______ _____ _____    ______ ____

>  <TORSDO>
F 19

$$$$
=
 OpenBabel11042422233D

 58 63  0  0  1  0  0  0  0  0999 V2000
  163.5380  204.3820  145.0120 N   0  0  0  0  0  0  0  0  0  0  0  0
  161.0130  205.7080  144.9190 C   0  0  2  0  0  3  0  0  0  0  0  0
  161.8390  205.4740  143.6750 C   0  0  0  0  0  0  0  0  0  0  0  0
  163.0100  204.8250  143.7560 C   0  0  0  0  0  3  0  0  0  0  0  0
  162.9700  204.6790  146.1380 C   0  0  0  0  0  3  0  0  0  0  0  0
  161.7630  205.4560  146.1710 N   0  0  0  0  0  0  0  0  0  0  0  0
  161.5670  207.3360  147.7770 C   0  0  0  0  0  3  0  0  0  0  0  0
  160.4470  207.0360  149.8980 C   0  0  0  0  0  3  0  0  0  0  0  0
  161.1340  207.8540  149.0000 C   0  0  0  0  0  0  0  0  0  0  0  0
  160.1750  205.7110  149.5600 C   0  0  0  0  0  3  0  0  0  0  0  0
  160.5990  205.2000  148.3320 C   0  0  0  0  0  3  0  0  0  0  0  0
  161.3080  206.0000  147.4230 C   0  0  0  0  0  0  0  0  0  0  0  0
  161.5450  209.5340  149.4820 S   0  0  0  0  0  0  0  0  0  0  0  0
  162.1730  209.1920  151.1680 C   0  0  2  0  0  0  0  0  0  0  0  0
  162.7120  210.4880  151.7840 C   0  0  0  0  0  2  0  0  0  0  0  0
  161.5260  210.1150  153.9720 N   0  0  0  0  0  0  0  0  0  0  0  0
  163.2060  208.2550  151.0910 O   0  0  0  0  0  1  0  0  0  0  0  0
  162.8290  210.3200  153.2990 C   0  0  0  0  0  2  0  0  0  0  0  0
  160.4650  209.6160  153.0780 C   0  0  0  0  0  2  0  0  0  0  0  0
  160.9850  208.6390  152.0090 C   0  0  2  0  0  3  0  0  0  0  0  0
  162.0090  206.3540  151.8180 C   0  0  0  0  0  3  0  0  0  0  0  0
  161.1160  207.2100  152.4860 C   0  0  0  0  0  0  0  0  0  0  0  0
  161.4870  204.5850  153.3870 C   0  0  0  0  0  3  0  0  0  0  0  0
  160.6110  205.4390  154.0640 C   0  0  0  0  0  3  0  0  0  0  0  0
  160.4340  206.7480  153.6190 C   0  0  0  0  0  3  0  0  0  0  0  0
  162.1930  205.0430  152.2670 C   0  0  0  0  0  3  0  0  0  0  0  0
  160.9660  211.3100  154.6290 C   0  0  2  0  0  3  0  0  0  0  0  0
  160.8850  211.2640  156.1380 C   0  0  0  0  0  0  0  0  0  0  0  0
  162.0310  211.4370  156.9170 O   0  0  0  0  0  1  0  0  0  0  0  0
  159.7860  211.0180  156.7090 O   0  0  0  0  0  0  0  0  0  0  0  0
  159.4990  213.0380  153.8260 O   0  0  0  0  0  1  0  0  0  0  0  0
  159.6100  211.6590  154.0210 C   0  0  0  0  0  2  0  0  0  0  0  0
  162.2410  206.8700  140.0690 N   0  0  0  0  0  0  0  0  0  0  0  0
  162.0880  206.4690  141.3840 C   0  0  0  0  0  0  0  0  0  0  0  0
  161.2990  205.8580  142.4060 N   0  0  0  0  0  2  0  0  0  0  0  0
  163.2230  207.0820  141.0050 N   0  0  0  0  0  0  0  0  0  0  0  0
  161.7610  207.0140  138.7590 N   0  0  0  0  0  2  0  0  0  0  0  0
  160.8920  208.1910  138.7350 C   0  0  0  0  0  2  0  0  0  0  0  0
  161.5840  209.3680  139.2810 C   0  0  0  0  0  0  0  0  0  0  0  0
  162.1170  210.3540  139.7290 C   0  0  0  0  0  0  0  0  0  0  0  0
  162.7060  211.5190  140.2420 N   0  0  0  0  0  2  0  0  0  0  0  0
  161.9800  212.5540  140.8730 N   0  0  0  0  0  0  0  0  0  0  0  0
  160.6900  212.9750  144.9060 C   0  0  0  0  0  0  0  0  0  0  0  0
  161.9180  213.3910  144.5750 C   0  0  0  0  0  3  0  0  0  0  0  0
  162.6120  212.8450  143.3490 C   0  0  0  0  0  2  0  0  0  0  0  0
  160.1010  213.4490  146.0340 F   0  0  0  0  0  0  0  0  0  0  0  0
  161.6200  212.4860  142.2580 C   0  0  0  0  0  0  0  0  0  0  0  0
  160.3850  212.0940  142.6130 C   0  0  0  0  0  3  0  0  0  0  0  0
  159.9810  211.9540  144.0550 C   0  0  0  0  0  2  0  0  0  0  0  0
  161.4010  213.6130  140.0350 C   0  0  0  0  0  2  0  0  0  0  0  0
  160.0500  213.3000  139.7410 O   0  0  0  0  0  0  0  0  0  0  0  0
  159.8920  213.9150  137.5210 O   0  0  0  0  0  0  0  0  0  0  0  0
  159.6110  213.0840  138.4300 C   0  0  0  0  0  0  0  0  0  0  0  0
  159.1020  211.1130  137.0940 C   0  0  0  0  0  2  0  0  0  0  0  0
  158.7910  211.9020  138.1150 C   0  0  0  0  0  0  0  0  0  0  0  0
  157.6770  211.4930  139.0200 C   0  0  0  0  0  1  0  0  0  0  0  0
  160.3610  203.5860  144.7870 C   0  0  0  0  0  1  0  0  0  0  0  0
  159.8770  204.8890  144.8810 O   0  0  0  0  0  0  0  0  0  0  0  0
  1  5  2  0  0  0  0
  2 58  1  6  0  0  0
  2  6  1  0  0  0  0
  3  4  2  0  0  0  0
  3  2  1  0  0  0  0
  4  1  1  0  0  0  0
  5  6  1  0  0  0  0
  6 12  1  0  0  0  0
  7  9  1  0  0  0  0
  9 13  1  0  0  0  0
  9  8  2  0  0  0  0
 10  8  1  0  0  0  0
 11 10  2  0  0  0  0
 12  7  2  0  0  0  0
 12 11  1  0  0  0  0
 13 14  1  0  0  0  0
 14 17  1  6  0  0  0
 14 15  1  0  0  0  0
 14 20  1  0  0  0  0
 15 18  1  0  0  0  0
 16 27  1  0  0  0  0
 18 16  1  0  0  0  0
 19 16  1  0  0  0  0
 20 22  1  1  0  0  0
 20 19  1  0  0  0  0
 21 26  2  0  0  0  0
 21 22  1  0  0  0  0
 22 25  2  0  0  0  0
 23 24  2  0  0  0  0
 25 24  1  0  0  0  0
 26 23  1  0  0  0  0
 27 32  1  6  0  0  0
 27 28  1  0  0  0  0
 28 30  2  0  0  0  0
 28 29  1  0  0  0  0
 31 32  1  0  0  0  0
 33 36  1  0  0  0  0
 33 34  1  0  0  0  0
 34 35  1  0  0  0  0
 35  3  1  0  0  0  0
 36 34  2  0  0  0  0
 37 33  1  0  0  0  0
 38 37  1  0  0  0  0
 38 39  1  0  0  0  0
 39 40  3  0  0  0  0
 40 41  1  0  0  0  0
 41 42  1  0  0  0  0
 42 47  1  0  0  0  0
 43 46  1  0  0  0  0
 44 43  2  0  0  0  0
 45 44  1  0  0  0  0
 47 48  2  0  0  0  0
 47 45  1  0  0  0  0
 48 49  1  0  0  0  0
 49 43  1  0  0  0  0
 50 42  1  0  0  0  0
 51 50  1  0  0  0  0
 52 53  2  0  0  0  0
 53 51  1  0  0  0  0
 54 55  2  0  0  0  0
 55 53  1  0  0  0  0
 55 56  1  0  0  0  0
 57 58  1  0  0  0  0
M  END
>  <MODEL>
3

>  <REMARK>
 VINA RESULT:      -2.0      2.790      4.936
  Name = 
  19 active torsions:
  status: ('A' for Active; 'I' for Inactive)
    1  A    between atoms: C_4  and  S_14
    2  A    between atoms: N_5  and  N_56
    3  A    between atoms: C_8  and  O_37
    4  A    between atoms: S_14  and  C_27
    5  A    between atoms: C_17  and  N_23
    6  A    between atoms: C_18  and  C_19
    7  A    between atoms: C_19  and  N_56
    8  A    between atoms: C_20  and  C_43
    9  A    between atoms: N_21  and  C_30
   10  A    between atoms: C_25  and  C_49
   11  A    between atoms: C_29  and  N_48
   12  A    between atoms: C_30  and  C_31
   13  A    between atoms: C_30  and  C_40
   14  A    between atoms: N_35  and  C_47
   15  A    between atoms: N_35  and  N_48
   16  A    between atoms: N_45  and  C_55
   17  A    between atoms: C_46  and  N_48
   18  A    between atoms: C_46  and  O_54
   19  A    between atoms: C_49  and  O_54
                            x       y       z     vdW  Elec       q    Type
                         _______ _______ _______ _____ _____    ______ ____

>  <TORSDO>
F 19

$$$$
=
 OpenBabel11042422233D

 58 63  0  0  1  0  0  0  0  0999 V2000
  163.0530  209.5070  151.1860 N   0  0  0  0  0  0  0  0  0  0  0  0
  160.8010  207.8930  151.8730 C   0  0  2  0  0  3  0  0  0  0  0  0
  161.2520  208.0690  150.4410 C   0  0  0  0  0  0  0  0  0  0  0  0
  162.3310  208.8150  150.1610 C   0  0  0  0  0  3  0  0  0  0  0  0
  162.6410  209.5350  152.4150 C   0  0  0  0  0  3  0  0  0  0  0  0
  161.4420  208.8500  152.8050 N   0  0  0  0  0  0  0  0  0  0  0  0
  160.8990  210.4070  154.6580 C   0  0  0  0  0  3  0  0  0  0  0  0
  159.7620  209.6180  156.6400 C   0  0  0  0  0  3  0  0  0  0  0  0
  160.3470  210.6590  155.9170 C   0  0  0  0  0  0  0  0  0  0  0  0
  159.7090  208.3370  156.0930 C   0  0  0  0  0  3  0  0  0  0  0  0
  160.2520  208.0920  154.8300 C   0  0  0  0  0  3  0  0  0  0  0  0
  160.8620  209.1190  154.0950 C   0  0  0  0  0  0  0  0  0  0  0  0
  160.4770  212.2840  156.6670 S   0  0  0  0  0  0  0  0  0  0  0  0
  158.9990  213.0570  155.9110 C   0  0  2  0  0  0  0  0  0  0  0  0
  159.4380  214.0080  154.7920 C   0  0  0  0  0  2  0  0  0  0  0  0
  157.7270  213.1250  153.1710 N   0  0  0  0  0  0  0  0  0  0  0  0
  158.3110  213.7820  156.8870 O   0  0  0  0  0  1  0  0  0  0  0  0
  158.2430  214.3130  153.8880 C   0  0  0  0  0  2  0  0  0  0  0  0
  158.0880  211.8430  153.8040 C   0  0  0  0  0  2  0  0  0  0  0  0
  158.1100  211.9130  155.3410 C   0  0  2  0  0  3  0  0  0  0  0  0
  156.1990  212.8190  156.6940 C   0  0  0  0  0  3  0  0  0  0  0  0
  156.7550  211.7380  155.9900 C   0  0  0  0  0  0  0  0  0  0  0  0
  154.2040  211.5140  157.1210 C   0  0  0  0  0  3  0  0  0  0  0  0
  154.7480  210.4420  156.4070 C   0  0  0  0  0  3  0  0  0  0  0  0
  156.0140  210.5580  155.8370 C   0  0  0  0  0  3  0  0  0  0  0  0
  154.9260  212.7080  157.2610 C   0  0  0  0  0  3  0  0  0  0  0  0
  158.1520  213.0100  151.7640 C   0  0  2  0  0  3  0  0  0  0  0  0
  159.6320  213.1610  151.5010 C   0  0  0  0  0  0  0  0  0  0  0  0
  160.1600  214.3860  151.0890 O   0  0  0  0  0  0  0  0  0  0  0  0
  160.4030  212.1650  151.6050 O   0  0  0  0  0  1  0  0  0  0  0  0
  156.0250  214.0510  151.3450 O   0  0  0  0  0  1  0  0  0  0  0  0
  157.3430  213.9640  150.8890 C   0  0  0  0  0  2  0  0  0  0  0  0
  160.5840  207.2640  146.6970 N   0  0  0  0  0  0  0  0  0  0  0  0
  160.7510  207.6230  148.0220 C   0  0  0  0  0  0  0  0  0  0  0  0
  160.5780  207.3370  149.4110 N   0  0  0  0  0  2  0  0  0  0  0  0
  161.1890  208.4440  147.0520 N   0  0  0  0  0  0  0  0  0  0  0  0
  160.1120  206.3930  145.7040 N   0  0  0  0  0  2  0  0  0  0  0  0
  161.2770  205.7680  145.0770 C   0  0  0  0  0  2  0  0  0  0  0  0
  161.8200  204.6970  145.9240 C   0  0  0  0  0  0  0  0  0  0  0  0
  162.2370  203.7920  146.6060 C   0  0  0  0  0  0  0  0  0  0  0  0
  162.6920  202.7220  147.3900 N   0  0  0  0  0  2  0  0  0  0  0  0
  161.8440  201.9000  148.1660 N   0  0  0  0  0  0  0  0  0  0  0  0
  160.7400  203.2820  152.0360 C   0  0  0  0  0  0  0  0  0  0  0  0
  160.8660  201.9650  151.8330 C   0  0  0  0  0  3  0  0  0  0  0  0
  160.7610  201.3870  150.4410 C   0  0  0  0  0  2  0  0  0  0  0  0
  160.7980  203.7760  153.2990 F   0  0  0  0  0  0  0  0  0  0  0  0
  161.2620  202.3610  149.3910 C   0  0  0  0  0  0  0  0  0  0  0  0
  161.1480  203.6790  149.6270 C   0  0  0  0  0  3  0  0  0  0  0  0
  160.4930  204.2080  150.8730 C   0  0  0  0  0  2  0  0  0  0  0  0
  161.7370  200.4770  147.8140 C   0  0  0  0  0  2  0  0  0  0  0  0
  160.5410  200.2570  147.0850 O   0  0  0  0  0  0  0  0  0  0  0  0
  160.0210  200.6170  144.8640 O   0  0  0  0  0  0  0  0  0  0  0  0
  160.5570  199.8780  145.7380 C   0  0  0  0  0  0  0  0  0  0  0  0
  162.3530  198.2370  145.8190 C   0  0  0  0  0  2  0  0  0  0  0  0
  161.1690  198.5990  145.3410 C   0  0  0  0  0  0  0  0  0  0  0  0
  160.4090  197.6260  144.5040 C   0  0  0  0  0  1  0  0  0  0  0  0
  162.2750  206.6550  152.9860 C   0  0  0  0  0  1  0  0  0  0  0  0
  161.0730  206.5830  152.2870 O   0  0  0  0  0  0  0  0  0  0  0  0
  1  5  2  0  0  0  0
  2 58  1  1  0  0  0
  2  6  1  0  0  0  0
  3  2  1  0  0  0  0
  4  3  2  0  0  0  0
  4  1  1  0  0  0  0
  5  6  1  0  0  0  0
  6 12  1  0  0  0  0
  7  9  1  0  0  0  0
  9  8  2  0  0  0  0
  9 13  1  0  0  0  0
 10  8  1  0  0  0  0
 11 10  2  0  0  0  0
 12  7  2  0  0  0  0
 12 11  1  0  0  0  0
 14 13  1  0  0  0  0
 14 17  1  1  0  0  0
 15 14  1  0  0  0  0
 16 19  1  0  0  0  0
 16 18  1  0  0  0  0
 18 15  1  0  0  0  0
 19 20  1  0  0  0  0
 20 14  1  0  0  0  0
 20 22  1  6  0  0  0
 21 26  1  0  0  0  0
 22 21  2  0  0  0  0
 23 26  2  0  0  0  0
 24 23  1  0  0  0  0
 25 22  1  0  0  0  0
 25 24  2  0  0  0  0
 27 32  1  6  0  0  0
 27 16  1  0  0  0  0
 28 30  1  0  0  0  0
 28 27  1  0  0  0  0
 29 28  2  0  0  0  0
 32 31  1  0  0  0  0
 33 36  1  0  0  0  0
 33 34  1  0  0  0  0
 34 35  1  0  0  0  0
 35  3  1  0  0  0  0
 36 34  2  0  0  0  0
 37 33  1  0  0  0  0
 38 37  1  0  0  0  0
 38 39  1  0  0  0  0
 39 40  3  0  0  0  0
 40 41  1  0  0  0  0
 41 42  1  0  0  0  0
 42 47  1  0  0  0  0
 43 46  1  0  0  0  0
 44 43  2  0  0  0  0
 45 44  1  0  0  0  0
 47 48  2  0  0  0  0
 47 45  1  0  0  0  0
 48 49  1  0  0  0  0
 49 43  1  0  0  0  0
 50 42  1  0  0  0  0
 51 50  1  0  0  0  0
 52 53  2  0  0  0  0
 53 51  1  0  0  0  0
 55 53  1  0  0  0  0
 55 54  2  0  0  0  0
 56 55  1  0  0  0  0
 58 57  1  0  0  0  0
M  END
>  <MODEL>
4

>  <REMARK>
 VINA RESULT:      -1.0      5.573      8.727
  Name = 
  19 active torsions:
  status: ('A' for Active; 'I' for Inactive)
    1  A    between atoms: C_4  and  S_14
    2  A    between atoms: N_5  and  N_56
    3  A    between atoms: C_8  and  O_37
    4  A    between atoms: S_14  and  C_27
    5  A    between atoms: C_17  and  N_23
    6  A    between atoms: C_18  and  C_19
    7  A    between atoms: C_19  and  N_56
    8  A    between atoms: C_20  and  C_43
    9  A    between atoms: N_21  and  C_30
   10  A    between atoms: C_25  and  C_49
   11  A    between atoms: C_29  and  N_48
   12  A    between atoms: C_30  and  C_31
   13  A    between atoms: C_30  and  C_40
   14  A    between atoms: N_35  and  C_47
   15  A    between atoms: N_35  and  N_48
   16  A    between atoms: N_45  and  C_55
   17  A    between atoms: C_46  and  N_48
   18  A    between atoms: C_46  and  O_54
   19  A    between atoms: C_49  and  O_54
                            x       y       z     vdW  Elec       q    Type
                         _______ _______ _______ _____ _____    ______ ____

>  <TORSDO>
F 19

$$$$
=
 OpenBabel11042422233D

 58 63  0  0  1  0  0  0  0  0999 V2000
  162.4530  208.4650  147.5430 N   0  0  0  0  0  0  0  0  0  0  0  0
  161.7890  209.9400  149.8950 C   0  0  2  0  0  3  0  0  0  0  0  0
  162.0090  208.4450  149.9240 C   0  0  0  0  0  0  0  0  0  0  0  0
  162.3450  207.7910  148.8030 C   0  0  0  0  0  3  0  0  0  0  0  0
  162.1290  209.7120  147.4040 C   0  0  0  0  0  3  0  0  0  0  0  0
  161.6630  210.4810  148.5220 N   0  0  0  0  0  0  0  0  0  0  0  0
  160.1360  211.9630  147.2460 C   0  0  0  0  0  3  0  0  0  0  0  0
  159.9110  214.2990  147.8290 C   0  0  0  0  0  3  0  0  0  0  0  0
  159.5600  213.2160  147.0200 C   0  0  0  0  0  0  0  0  0  0  0  0
  160.8150  214.1190  148.8740 C   0  0  0  0  0  3  0  0  0  0  0  0
  161.3790  212.8630  149.1050 C   0  0  0  0  0  3  0  0  0  0  0  0
  161.0550  211.7660  148.2920 C   0  0  0  0  0  0  0  0  0  0  0  0
  158.4560  213.4810  145.6300 S   0  0  0  0  0  0  0  0  0  0  0  0
  159.5570  212.8990  144.2870 C   0  0  2  0  0  0  0  0  0  0  0  0
  158.7380  212.1030  143.2660 C   0  0  0  0  0  2  0  0  0  0  0  0
  159.7600  213.2950  141.2990 N   0  0  0  0  0  0  0  0  0  0  0  0
  160.5440  212.0730  144.8300 O   0  0  0  0  0  1  0  0  0  0  0  0
  159.5260  211.9910  141.9600 C   0  0  0  0  0  2  0  0  0  0  0  0
  159.6600  214.4520  142.2080 C   0  0  0  0  0  2  0  0  0  0  0  0
  160.1910  214.1560  143.6220 C   0  0  2  0  0  3  0  0  0  0  0  0
  162.2480  214.3000  145.0540 C   0  0  0  0  0  3  0  0  0  0  0  0
  161.6900  214.2990  143.7640 C   0  0  0  0  0  0  0  0  0  0  0  0
  164.4660  214.4520  144.0930 C   0  0  0  0  0  3  0  0  0  0  0  0
  163.9140  214.4350  142.8080 C   0  0  0  0  0  3  0  0  0  0  0  0
  162.5330  214.3500  142.6460 C   0  0  0  0  0  3  0  0  0  0  0  0
  163.6340  214.3780  145.2190 C   0  0  0  0  0  3  0  0  0  0  0  0
  158.8580  213.5950  140.1710 C   0  0  2  0  0  3  0  0  0  0  0  0
  157.8420  212.5290  139.8300 C   0  0  0  0  0  0  0  0  0  0  0  0
  158.2480  211.3020  139.3010 O   0  0  0  0  0  0  0  0  0  0  0  0
  156.6070  212.7560  139.9750 O   0  0  0  0  0  1  0  0  0  0  0  0
  159.0430  213.5370  137.7740 O   0  0  0  0  0  1  0  0  0  0  0  0
  159.6690  213.9880  138.9380 C   0  0  0  0  0  2  0  0  0  0  0  0
  161.0240  205.4010  152.1320 N   0  0  0  0  0  0  0  0  0  0  0  0
  161.2820  206.5230  151.3650 C   0  0  0  0  0  0  0  0  0  0  0  0
  161.9630  207.7660  151.1840 N   0  0  0  0  0  2  0  0  0  0  0  0
  160.4190  205.5950  150.9160 N   0  0  0  0  0  0  0  0  0  0  0  0
  161.1920  204.6360  153.2960 N   0  0  0  0  0  2  0  0  0  0  0  0
  161.3450  203.2400  152.8880 C   0  0  0  0  0  2  0  0  0  0  0  0
  160.7750  203.0170  151.5510 C   0  0  0  0  0  0  0  0  0  0  0  0
  160.3440  202.8370  150.4370 C   0  0  0  0  0  0  0  0  0  0  0  0
  159.8760  202.6380  149.1300 N   0  0  0  0  0  2  0  0  0  0  0  0
  160.7200  202.4970  148.0060 N   0  0  0  0  0  0  0  0  0  0  0  0
  161.3920  199.1610  145.4510 C   0  0  0  0  0  0  0  0  0  0  0  0
  160.6390  200.1740  145.0050 C   0  0  0  0  0  3  0  0  0  0  0  0
  159.9620  201.1150  145.9740 C   0  0  0  0  0  2  0  0  0  0  0  0
  161.9580  198.3040  144.5640 F   0  0  0  0  0  0  0  0  0  0  0  0
  160.7680  201.2820  147.2480 C   0  0  0  0  0  0  0  0  0  0  0  0
  161.5360  200.2600  147.6640 C   0  0  0  0  0  3  0  0  0  0  0  0
  161.5750  198.9480  146.9310 C   0  0  0  0  0  2  0  0  0  0  0  0
  161.7200  203.5420  147.7480 C   0  0  0  0  0  2  0  0  0  0  0  0
  161.0770  204.8020  147.6580 O   0  0  0  0  0  0  0  0  0  0  0  0
  160.0350  206.3590  146.3080 O   0  0  0  0  0  0  0  0  0  0  0  0
  160.9150  205.4620  146.4340 C   0  0  0  0  0  0  0  0  0  0  0  0
  161.2110  204.9310  144.0770 C   0  0  0  0  0  2  0  0  0  0  0  0
  161.7490  205.0850  145.2800 C   0  0  0  0  0  0  0  0  0  0  0  0
  163.2330  205.0040  145.4150 C   0  0  0  0  0  1  0  0  0  0  0  0
  162.3490  210.9340  151.8040 C   0  0  0  0  0  1  0  0  0  0  0  0
  162.8490  210.5770  150.5540 O   0  0  0  0  0  0  0  0  0  0  0  0
  1  4  1  0  0  0  0
  2  3  1  0  0  0  0
  2 58  1  6  0  0  0
  3 35  1  0  0  0  0
  4  3  2  0  0  0  0
  5  1  2  0  0  0  0
  5  6  1  0  0  0  0
  6  2  1  0  0  0  0
  7 12  1  0  0  0  0
  8 10  2  0  0  0  0
  9  7  2  0  0  0  0
  9  8  1  0  0  0  0
 10 11  1  0  0  0  0
 12  6  1  0  0  0  0
 12 11  2  0  0  0  0
 13  9  1  0  0  0  0
 14 17  1  1  0  0  0
 14 13  1  0  0  0  0
 15 14  1  0  0  0  0
 16 18  1  0  0  0  0
 16 19  1  0  0  0  0
 18 15  1  0  0  0  0
 19 20  1  0  0  0  0
 20 22  1  6  0  0  0
 20 14  1  0  0  0  0
 21 26  1  0  0  0  0
 22 21  2  0  0  0  0
 23 26  2  0  0  0  0
 24 23  1  0  0  0  0
 25 24  2  0  0  0  0
 25 22  1  0  0  0  0
 27 32  1  6  0  0  0
 27 16  1  0  0  0  0
 28 30  1  0  0  0  0
 28 27  1  0  0  0  0
 29 28  2  0  0  0  0
 31 32  1  0  0  0  0
 33 37  1  0  0  0  0
 34 33  1  0  0  0  0
 35 34  1  0  0  0  0
 36 34  2  0  0  0  0
 36 33  1  0  0  0  0
 38 37  1  0  0  0  0
 39 38  1  0  0  0  0
 40 39  3  0  0  0  0
 41 40  1  0  0  0  0
 42 41  1  0  0  0  0
 43 49  1  0  0  0  0
 44 43  2  0  0  0  0
 44 45  1  0  0  0  0
 45 47  1  0  0  0  0
 46 43  1  0  0  0  0
 47 48  2  0  0  0  0
 47 42  1  0  0  0  0
 49 48  1  0  0  0  0
 50 42  1  0  0  0  0
 51 50  1  0  0  0  0
 52 53  2  0  0  0  0
 53 51  1  0  0  0  0
 54 55  2  0  0  0  0
 55 56  1  0  0  0  0
 55 53  1  0  0  0  0
 58 57  1  0  0  0  0
M  END
>  <MODEL>
5

>  <REMARK>
 VINA RESULT:      -0.7      4.936     11.240
  Name = 
  19 active torsions:
  status: ('A' for Active; 'I' for Inactive)
    1  A    between atoms: C_4  and  S_14
    2  A    between atoms: N_5  and  N_56
    3  A    between atoms: C_8  and  O_37
    4  A    between atoms: S_14  and  C_27
    5  A    between atoms: C_17  and  N_23
    6  A    between atoms: C_18  and  C_19
    7  A    between atoms: C_19  and  N_56
    8  A    between atoms: C_20  and  C_43
    9  A    between atoms: N_21  and  C_30
   10  A    between atoms: C_25  and  C_49
   11  A    between atoms: C_29  and  N_48
   12  A    between atoms: C_30  and  C_31
   13  A    between atoms: C_30  and  C_40
   14  A    between atoms: N_35  and  C_47
   15  A    between atoms: N_35  and  N_48
   16  A    between atoms: N_45  and  C_55
   17  A    between atoms: C_46  and  N_48
   18  A    between atoms: C_46  and  O_54
   19  A    between atoms: C_49  and  O_54
                            x       y       z     vdW  Elec       q    Type
                         _______ _______ _______ _____ _____    ______ ____

>  <TORSDO>
F 19

$$$$
