=
 OpenBabel11042423113D

 29 30  0  0  1  0  0  0  0  0999 V2000
  161.2630  206.8620  153.3850 C   0  0  0  0  0  3  0  0  0  0  0  0
  161.2300  205.5350  153.6680 N   0  0  0  0  0  0  0  0  0  0  0  0
  161.1760  204.6170  152.7010 N   0  0  0  0  0  0  0  0  0  0  0  0
  161.2390  207.2880  152.0540 C   0  0  0  0  0  0  0  0  0  0  0  0
  161.1530  204.9650  151.3840 C   0  0  0  0  0  0  0  0  0  0  0  0
  161.1800  206.3210  151.0490 C   0  0  0  0  0  3  0  0  0  0  0  0
  160.9480  202.5560  150.6940 C   0  0  0  0  0  0  0  0  0  0  0  0
  160.9770  201.9050  148.3630 C   0  0  0  0  0  3  0  0  0  0  0  0
  160.8910  201.5660  149.7110 C   0  0  0  0  0  3  0  0  0  0  0  0
  161.1820  204.2530  148.9600 C   0  0  0  0  0  0  0  0  0  0  0  0
  160.8400  202.1740  152.0270 O   0  0  0  0  0  1  0  0  0  0  0  0
  161.0910  203.9150  150.3340 C   0  0  0  0  0  0  0  0  0  0  0  0
  161.1200  203.2390  147.9910 C   0  0  0  0  0  3  0  0  0  0  0  0
  161.3510  205.5890  148.5760 O   0  0  0  0  0  0  0  0  0  0  0  0
  160.4580  206.2650  147.7020 C   0  0  0  0  0  2  0  0  0  0  0  0
  161.1520  206.5510  146.3850 C   0  0  1  0  0  3  0  0  0  0  0  0
  162.4490  206.0350  146.4160 O   0  0  0  0  0  1  0  0  0  0  0  0
  160.3710  205.9050  145.2560 C   0  0  0  0  0  2  0  0  0  0  0  0
  161.2670  205.1290  144.4160 N   0  0  0  0  0  1  0  0  0  0  0  0
  160.2810  209.4570  151.9410 O   0  0  0  0  0  0  0  0  0  0  0  0
  161.2810  208.7230  151.7110 C   0  0  0  0  0  0  0  0  0  0  0  0
  162.4820  209.3280  151.0580 C   0  0  0  0  0  2  0  0  0  0  0  0
  161.9810  211.2590  149.5150 N   0  0  0  0  0  2  0  0  0  0  0  0
  162.1280  209.8530  149.7100 C   0  0  0  0  0  0  0  0  0  0  0  0
  161.9860  209.0530  148.7460 O   0  0  0  0  0  0  0  0  0  0  0  0
  161.6520  211.8280  148.2180 C   0  0  0  0  0  2  0  0  0  0  0  0
  161.8830  213.3300  148.2340 C   0  0  0  0  0  2  0  0  0  0  0  0
  162.5300  214.4510  146.2250 O   0  0  0  0  0  1  0  0  0  0  0  0
  161.4280  213.9660  146.9300 C   0  0  0  0  0  2  0  0  0  0  0  0
  1  2  1  0  0  0  0
  3  2  2  0  0  0  0
  4  1  2  0  0  0  0
  5  3  1  0  0  0  0
  6  5  2  0  0  0  0
  6  4  1  0  0  0  0
  7 11  1  0  0  0  0
  8  9  1  0  0  0  0
  9  7  2  0  0  0  0
 10 12  2  0  0  0  0
 12  7  1  0  0  0  0
 12  5  1  0  0  0  0
 13  8  2  0  0  0  0
 13 10  1  0  0  0  0
 14 10  1  0  0  0  0
 15 14  1  0  0  0  0
 16 17  1  1  0  0  0
 16 15  1  0  0  0  0
 18 16  1  0  0  0  0
 19 18  1  0  0  0  0
 21 20  2  0  0  0  0
 21  4  1  0  0  0  0
 22 21  1  0  0  0  0
 23 24  1  0  0  0  0
 24 22  1  0  0  0  0
 25 24  2  0  0  0  0
 26 27  1  0  0  0  0
 26 23  1  0  0  0  0
 28 29  1  0  0  0  0
 29 27  1  0  0  0  0
M  END
>  <MODEL>
1

>  <REMARK>
 VINA RESULT:      -7.8      0.000      0.000
  Name = 
  11 active torsions:
  status: ('A' for Active; 'I' for Inactive)
    1  A    between atoms: C_3  and  C_19
    2  A    between atoms: C_5  and  O_6
    3  A    between atoms: C_5  and  C_9
    4  A    between atoms: O_6  and  C_14
    5  A    between atoms: C_9  and  C_25
    6  A    between atoms: C_11  and  C_18
    7  A    between atoms: C_11  and  C_24
    8  A    between atoms: C_13  and  N_17
    9  A    between atoms: C_13  and  C_19
   10  A    between atoms: C_15  and  C_24
   11  A    between atoms: C_20  and  C_22
                            x       y       z     vdW  Elec       q    Type
                         _______ _______ _______ _____ _____    ______ ____

>  <TORSDO>
F 11

$$$$
=
 OpenBabel11042423113D

 29 30  0  0  1  0  0  0  0  0999 V2000
  161.9100  209.1950  150.5960 C   0  0  0  0  0  3  0  0  0  0  0  0
  162.2600  208.3820  149.5660 N   0  0  0  0  0  0  0  0  0  0  0  0
  162.0390  207.0670  149.6100 N   0  0  0  0  0  0  0  0  0  0  0  0
  161.3060  208.6520  151.7330 C   0  0  0  0  0  0  0  0  0  0  0  0
  161.4520  206.4750  150.6870 C   0  0  0  0  0  0  0  0  0  0  0  0
  161.0810  207.2740  151.7720 C   0  0  0  0  0  3  0  0  0  0  0  0
  161.1760  204.3070  151.9280 C   0  0  0  0  0  0  0  0  0  0  0  0
  160.8000  202.2210  150.7570 C   0  0  0  0  0  3  0  0  0  0  0  0
  160.9650  202.9260  151.9470 C   0  0  0  0  0  3  0  0  0  0  0  0
  161.0610  204.2820  149.4940 C   0  0  0  0  0  0  0  0  0  0  0  0
  161.3160  204.9720  153.1410 O   0  0  0  0  0  1  0  0  0  0  0  0
  161.2240  205.0060  150.7020 C   0  0  0  0  0  0  0  0  0  0  0  0
  160.8470  202.8950  149.5390 C   0  0  0  0  0  3  0  0  0  0  0  0
  161.1310  204.9460  148.2630 O   0  0  0  0  0  0  0  0  0  0  0  0
  161.4980  204.3000  147.0520 C   0  0  0  0  0  2  0  0  0  0  0  0
  162.2360  205.2770  146.1570 C   0  0  1  0  0  3  0  0  0  0  0  0
  163.5080  204.7800  145.8670 O   0  0  0  0  0  1  0  0  0  0  0  0
  161.4540  205.4650  144.8700 C   0  0  0  0  0  2  0  0  0  0  0  0
  160.2460  206.2260  145.1320 N   0  0  0  0  0  1  0  0  0  0  0  0
  160.6110  208.9870  153.9780 O   0  0  0  0  0  0  0  0  0  0  0  0
  160.9070  209.5070  152.8680 C   0  0  0  0  0  0  0  0  0  0  0  0
  160.8110  210.9920  152.7200 C   0  0  0  0  0  2  0  0  0  0  0  0
  159.5860  212.1690  154.5850 N   0  0  0  0  0  2  0  0  0  0  0  0
  159.5460  211.4910  153.3300 C   0  0  0  0  0  0  0  0  0  0  0  0
  158.4540  211.3330  152.7190 O   0  0  0  0  0  0  0  0  0  0  0  0
  158.3850  212.6900  155.2180 C   0  0  0  0  0  2  0  0  0  0  0  0
  157.7600  211.6250  156.1040 C   0  0  0  0  0  2  0  0  0  0  0  0
  155.8720  210.6430  155.0180 O   0  0  0  0  0  1  0  0  0  0  0  0
  156.2470  211.6090  155.9520 C   0  0  0  0  0  2  0  0  0  0  0  0
  1  4  1  0  0  0  0
  2  3  1  0  0  0  0
  2  1  2  0  0  0  0
  3  5  2  0  0  0  0
  4  6  2  0  0  0  0
  4 21  1  0  0  0  0
  5 12  1  0  0  0  0
  5  6  1  0  0  0  0
  7  9  1  0  0  0  0
  7 11  1  0  0  0  0
  8  9  2  0  0  0  0
 10 13  2  0  0  0  0
 10 12  1  0  0  0  0
 12  7  2  0  0  0  0
 13  8  1  0  0  0  0
 14 10  1  0  0  0  0
 15 14  1  0  0  0  0
 16 17  1  6  0  0  0
 16 15  1  0  0  0  0
 18 19  1  0  0  0  0
 18 16  1  0  0  0  0
 21 20  2  0  0  0  0
 22 21  1  0  0  0  0
 22 24  1  0  0  0  0
 23 26  1  0  0  0  0
 24 23  1  0  0  0  0
 25 24  2  0  0  0  0
 26 27  1  0  0  0  0
 28 29  1  0  0  0  0
 29 27  1  0  0  0  0
M  END
>  <MODEL>
2

>  <REMARK>
 VINA RESULT:      -7.7      3.090      4.565
  Name = 
  11 active torsions:
  status: ('A' for Active; 'I' for Inactive)
    1  A    between atoms: C_3  and  C_19
    2  A    between atoms: C_5  and  O_6
    3  A    between atoms: C_5  and  C_9
    4  A    between atoms: O_6  and  C_14
    5  A    between atoms: C_9  and  C_25
    6  A    between atoms: C_11  and  C_18
    7  A    between atoms: C_11  and  C_24
    8  A    between atoms: C_13  and  N_17
    9  A    between atoms: C_13  and  C_19
   10  A    between atoms: C_15  and  C_24
   11  A    between atoms: C_20  and  C_22
                            x       y       z     vdW  Elec       q    Type
                         _______ _______ _______ _____ _____    ______ ____

>  <TORSDO>
F 11

$$$$
=
 OpenBabel11042423113D

 29 30  0  0  1  0  0  0  0  0999 V2000
  162.0490  208.6180  148.2350 C   0  0  0  0  0  3  0  0  0  0  0  0
  162.2890  209.4990  149.2390 N   0  0  0  0  0  0  0  0  0  0  0  0
  162.0140  209.1990  150.5100 N   0  0  0  0  0  0  0  0  0  0  0  0
  161.5000  207.3670  148.5270 C   0  0  0  0  0  0  0  0  0  0  0  0
  161.4800  207.9970  150.8630 C   0  0  0  0  0  0  0  0  0  0  0  0
  161.2120  207.0630  149.8590 C   0  0  0  0  0  3  0  0  0  0  0  0
  161.3970  206.4000  152.8020 C   0  0  0  0  0  0  0  0  0  0  0  0
  160.6230  207.1060  154.9850 C   0  0  0  0  0  3  0  0  0  0  0  0
  161.1170  206.1140  154.1410 C   0  0  0  0  0  3  0  0  0  0  0  0
  160.6760  208.7020  153.1520 C   0  0  0  0  0  0  0  0  0  0  0  0
  161.9070  205.3850  152.0000 O   0  0  0  0  0  1  0  0  0  0  0  0
  161.1840  207.6990  152.2890 C   0  0  0  0  0  0  0  0  0  0  0  0
  160.4050  208.3910  154.4940 C   0  0  0  0  0  3  0  0  0  0  0  0
  160.4290  209.9910  152.6620 O   0  0  0  0  0  0  0  0  0  0  0  0
  160.7910  211.1720  153.3650 C   0  0  0  0  0  2  0  0  0  0  0  0
  159.7300  212.2340  153.1570 C   0  0  1  0  0  3  0  0  0  0  0  0
  159.8110  212.7290  151.8530 O   0  0  0  0  0  1  0  0  0  0  0  0
  158.3600  211.6270  153.3900 C   0  0  0  0  0  2  0  0  0  0  0  0
  158.1460  211.4200  154.8120 N   0  0  0  0  0  1  0  0  0  0  0  0
  160.0620  206.2330  147.0170 O   0  0  0  0  0  0  0  0  0  0  0  0
  161.2330  206.3820  147.4600 C   0  0  0  0  0  0  0  0  0  0  0  0
  162.3260  205.5240  146.9080 C   0  0  0  0  0  2  0  0  0  0  0  0
  161.5070  203.2790  147.7150 N   0  0  0  0  0  2  0  0  0  0  0  0
  161.8150  204.1520  146.6300 C   0  0  0  0  0  0  0  0  0  0  0  0
  161.6330  203.7840  145.4380 O   0  0  0  0  0  0  0  0  0  0  0  0
  160.9910  201.9360  147.5030 C   0  0  0  0  0  2  0  0  0  0  0  0
  161.0990  201.1280  148.7850 C   0  0  0  0  0  2  0  0  0  0  0  0
  161.1670  202.1090  150.9630 O   0  0  0  0  0  1  0  0  0  0  0  0
  160.3120  201.7820  149.9100 C   0  0  0  0  0  2  0  0  0  0  0  0
  1  4  2  0  0  0  0
  1  2  1  0  0  0  0
  2  3  2  0  0  0  0
  3  5  1  0  0  0  0
  4  6  1  0  0  0  0
  5 12  1  0  0  0  0
  6  5  2  0  0  0  0
  7  9  1  0  0  0  0
  9  8  2  0  0  0  0
 10 13  2  0  0  0  0
 11  7  1  0  0  0  0
 12  7  2  0  0  0  0
 12 10  1  0  0  0  0
 13  8  1  0  0  0  0
 14 10  1  0  0  0  0
 14 15  1  0  0  0  0
 16 17  1  6  0  0  0
 16 15  1  0  0  0  0
 16 18  1  0  0  0  0
 18 19  1  0  0  0  0
 20 21  2  0  0  0  0
 21  4  1  0  0  0  0
 22 21  1  0  0  0  0
 24 22  1  0  0  0  0
 24 23  1  0  0  0  0
 25 24  2  0  0  0  0
 26 23  1  0  0  0  0
 26 27  1  0  0  0  0
 27 29  1  0  0  0  0
 29 28  1  0  0  0  0
M  END
>  <MODEL>
3

>  <REMARK>
 VINA RESULT:      -7.7      2.872      7.705
  Name = 
  11 active torsions:
  status: ('A' for Active; 'I' for Inactive)
    1  A    between atoms: C_3  and  C_19
    2  A    between atoms: C_5  and  O_6
    3  A    between atoms: C_5  and  C_9
    4  A    between atoms: O_6  and  C_14
    5  A    between atoms: C_9  and  C_25
    6  A    between atoms: C_11  and  C_18
    7  A    between atoms: C_11  and  C_24
    8  A    between atoms: C_13  and  N_17
    9  A    between atoms: C_13  and  C_19
   10  A    between atoms: C_15  and  C_24
   11  A    between atoms: C_20  and  C_22
                            x       y       z     vdW  Elec       q    Type
                         _______ _______ _______ _____ _____    ______ ____

>  <TORSDO>
F 11

$$$$
=
 OpenBabel11042423113D

 29 30  0  0  1  0  0  0  0  0999 V2000
  161.6120  207.1250  152.8740 C   0  0  0  0  0  3  0  0  0  0  0  0
  161.3830  205.8650  153.3260 N   0  0  0  0  0  0  0  0  0  0  0  0
  161.2470  204.8370  152.4860 N   0  0  0  0  0  0  0  0  0  0  0  0
  161.7080  207.3610  151.5000 C   0  0  0  0  0  0  0  0  0  0  0  0
  161.3310  204.9990  151.1370 C   0  0  0  0  0  0  0  0  0  0  0  0
  161.5610  206.2810  150.6280 C   0  0  0  0  0  3  0  0  0  0  0  0
  160.9150  202.5480  150.7650 C   0  0  0  0  0  0  0  0  0  0  0  0
  160.8730  201.5990  148.5380 C   0  0  0  0  0  3  0  0  0  0  0  0
  160.7670  201.4470  149.9180 C   0  0  0  0  0  3  0  0  0  0  0  0
  161.2840  203.9780  148.8260 C   0  0  0  0  0  0  0  0  0  0  0  0
  160.7820  202.3530  152.1350 O   0  0  0  0  0  1  0  0  0  0  0  0
  161.1720  203.8310  150.2310 C   0  0  0  0  0  0  0  0  0  0  0  0
  161.1290  202.8570  147.9960 C   0  0  0  0  0  3  0  0  0  0  0  0
  161.5650  205.2330  148.2720 O   0  0  0  0  0  0  0  0  0  0  0  0
  160.9670  205.7060  147.0730 C   0  0  0  0  0  2  0  0  0  0  0  0
  162.0310  205.8890  146.0090 C   0  0  1  0  0  3  0  0  0  0  0  0
  163.1070  205.0390  146.2710 O   0  0  0  0  0  1  0  0  0  0  0  0
  161.4410  205.5640  144.6500 C   0  0  0  0  0  2  0  0  0  0  0  0
  160.7920  204.2650  144.6900 N   0  0  0  0  0  1  0  0  0  0  0  0
  161.7940  208.9620  149.7500 O   0  0  0  0  0  0  0  0  0  0  0  0
  161.9630  208.7170  150.9750 C   0  0  0  0  0  0  0  0  0  0  0  0
  162.4550  209.8120  151.8670 C   0  0  0  0  0  2  0  0  0  0  0  0
  161.6280  210.6040  154.1150 N   0  0  0  0  0  2  0  0  0  0  0  0
  161.3550  210.2930  152.7500 C   0  0  0  0  0  0  0  0  0  0  0  0
  160.1970  210.4470  152.2750 O   0  0  0  0  0  0  0  0  0  0  0  0
  160.5960  211.0930  155.0160 C   0  0  0  0  0  2  0  0  0  0  0  0
  160.6660  210.3480  156.3390 C   0  0  0  0  0  2  0  0  0  0  0  0
  162.0490  208.4290  156.6790 O   0  0  0  0  0  1  0  0  0  0  0  0
  160.8460  208.8550  156.1160 C   0  0  0  0  0  2  0  0  0  0  0  0
  1  2  1  0  0  0  0
  3  2  2  0  0  0  0
  4  1  2  0  0  0  0
  5  3  1  0  0  0  0
  6  5  2  0  0  0  0
  6  4  1  0  0  0  0
  7 11  1  0  0  0  0
  8  9  1  0  0  0  0
  9  7  2  0  0  0  0
 10 12  2  0  0  0  0
 12  7  1  0  0  0  0
 12  5  1  0  0  0  0
 13  8  2  0  0  0  0
 13 10  1  0  0  0  0
 14 10  1  0  0  0  0
 15 14  1  0  0  0  0
 16 17  1  1  0  0  0
 16 15  1  0  0  0  0
 18 19  1  0  0  0  0
 18 16  1  0  0  0  0
 20 21  2  0  0  0  0
 21  4  1  0  0  0  0
 21 22  1  0  0  0  0
 22 24  1  0  0  0  0
 23 26  1  0  0  0  0
 24 23  1  0  0  0  0
 25 24  2  0  0  0  0
 26 27  1  0  0  0  0
 29 27  1  0  0  0  0
 29 28  1  0  0  0  0
M  END
>  <MODEL>
4

>  <REMARK>
 VINA RESULT:      -7.7      2.395      3.931
  Name = 
  11 active torsions:
  status: ('A' for Active; 'I' for Inactive)
    1  A    between atoms: C_3  and  C_19
    2  A    between atoms: C_5  and  O_6
    3  A    between atoms: C_5  and  C_9
    4  A    between atoms: O_6  and  C_14
    5  A    between atoms: C_9  and  C_25
    6  A    between atoms: C_11  and  C_18
    7  A    between atoms: C_11  and  C_24
    8  A    between atoms: C_13  and  N_17
    9  A    between atoms: C_13  and  C_19
   10  A    between atoms: C_15  and  C_24
   11  A    between atoms: C_20  and  C_22
                            x       y       z     vdW  Elec       q    Type
                         _______ _______ _______ _____ _____    ______ ____

>  <TORSDO>
F 11

$$$$
=
 OpenBabel11042423113D

 29 30  0  0  1  0  0  0  0  0999 V2000
  161.5390  207.1590  152.7620 C   0  0  0  0  0  3  0  0  0  0  0  0
  161.3040  205.9050  153.2290 N   0  0  0  0  0  0  0  0  0  0  0  0
  161.1860  204.8650  152.4010 N   0  0  0  0  0  0  0  0  0  0  0  0
  161.6600  207.3750  151.3870 C   0  0  0  0  0  0  0  0  0  0  0  0
  161.2960  205.0070  151.0520 C   0  0  0  0  0  0  0  0  0  0  0  0
  161.5320  206.2820  150.5290 C   0  0  0  0  0  3  0  0  0  0  0  0
  160.9060  202.5470  150.7090 C   0  0  0  0  0  0  0  0  0  0  0  0
  160.8940  201.5680  148.4950 C   0  0  0  0  0  3  0  0  0  0  0  0
  160.7760  201.4330  149.8760 C   0  0  0  0  0  3  0  0  0  0  0  0
  161.2800  203.9550  148.7550 C   0  0  0  0  0  0  0  0  0  0  0  0
  160.7620  202.3690  152.0810 O   0  0  0  0  0  1  0  0  0  0  0  0
  161.1560  203.8250  150.1610 C   0  0  0  0  0  0  0  0  0  0  0  0
  161.1430  202.8200  147.9390 C   0  0  0  0  0  3  0  0  0  0  0  0
  161.5540  205.2050  148.1870 O   0  0  0  0  0  0  0  0  0  0  0  0
  161.0030  205.6340  146.9490 C   0  0  0  0  0  2  0  0  0  0  0  0
  162.1130  205.8200  145.9330 C   0  0  1  0  0  3  0  0  0  0  0  0
  163.1920  204.9970  146.2610 O   0  0  0  0  0  1  0  0  0  0  0  0
  161.5950  205.4580  144.5540 C   0  0  0  0  0  2  0  0  0  0  0  0
  160.6550  204.3550  144.6520 N   0  0  0  0  0  1  0  0  0  0  0  0
  161.9490  208.9110  149.6000 O   0  0  0  0  0  0  0  0  0  0  0  0
  161.9220  208.7240  150.8470 C   0  0  0  0  0  0  0  0  0  0  0  0
  162.1930  209.8810  151.7540 C   0  0  0  0  0  2  0  0  0  0  0  0
  160.0350  210.5100  152.8990 N   0  0  0  0  0  2  0  0  0  0  0  0
  160.9850  210.7470  151.8610 C   0  0  0  0  0  0  0  0  0  0  0  0
  160.8260  211.6990  151.0500 O   0  0  0  0  0  0  0  0  0  0  0  0
  158.8470  211.3340  153.0600 C   0  0  0  0  0  2  0  0  0  0  0  0
  158.3590  211.2680  154.4980 C   0  0  0  0  0  2  0  0  0  0  0  0
  160.0250  211.2500  156.2120 O   0  0  0  0  0  1  0  0  0  0  0  0
  159.2950  210.4280  155.3530 C   0  0  0  0  0  2  0  0  0  0  0  0
  1  2  1  0  0  0  0
  3  2  2  0  0  0  0
  4  1  2  0  0  0  0
  5  3  1  0  0  0  0
  6  5  2  0  0  0  0
  6  4  1  0  0  0  0
  7 11  1  0  0  0  0
  8  9  1  0  0  0  0
  9  7  2  0  0  0  0
 10 12  2  0  0  0  0
 12  7  1  0  0  0  0
 12  5  1  0  0  0  0
 13  8  2  0  0  0  0
 13 10  1  0  0  0  0
 14 10  1  0  0  0  0
 15 14  1  0  0  0  0
 16 17  1  1  0  0  0
 16 15  1  0  0  0  0
 18 19  1  0  0  0  0
 18 16  1  0  0  0  0
 20 21  2  0  0  0  0
 21  4  1  0  0  0  0
 21 22  1  0  0  0  0
 22 24  1  0  0  0  0
 23 26  1  0  0  0  0
 24 23  1  0  0  0  0
 25 24  2  0  0  0  0
 26 27  1  0  0  0  0
 27 29  1  0  0  0  0
 29 28  1  0  0  0  0
M  END
>  <MODEL>
5

>  <REMARK>
 VINA RESULT:      -7.6      2.211      3.471
  Name = 
  11 active torsions:
  status: ('A' for Active; 'I' for Inactive)
    1  A    between atoms: C_3  and  C_19
    2  A    between atoms: C_5  and  O_6
    3  A    between atoms: C_5  and  C_9
    4  A    between atoms: O_6  and  C_14
    5  A    between atoms: C_9  and  C_25
    6  A    between atoms: C_11  and  C_18
    7  A    between atoms: C_11  and  C_24
    8  A    between atoms: C_13  and  N_17
    9  A    between atoms: C_13  and  C_19
   10  A    between atoms: C_15  and  C_24
   11  A    between atoms: C_20  and  C_22
                            x       y       z     vdW  Elec       q    Type
                         _______ _______ _______ _____ _____    ______ ____

>  <TORSDO>
F 11

$$$$
=
 OpenBabel11042423113D

 29 30  0  0  1  0  0  0  0  0999 V2000
  162.0820  209.0240  148.6300 C   0  0  0  0  0  3  0  0  0  0  0  0
  162.3160  209.9590  149.5870 N   0  0  0  0  0  0  0  0  0  0  0  0
  162.0130  209.7360  150.8670 N   0  0  0  0  0  0  0  0  0  0  0  0
  161.5120  207.7980  148.9830 C   0  0  0  0  0  0  0  0  0  0  0  0
  161.4580  208.5630  151.2790 C   0  0  0  0  0  0  0  0  0  0  0  0
  161.1950  207.5750  150.3250 C   0  0  0  0  0  3  0  0  0  0  0  0
  160.7340  209.4400  153.5200 C   0  0  0  0  0  0  0  0  0  0  0  0
  160.5160  207.9780  155.4370 C   0  0  0  0  0  3  0  0  0  0  0  0
  160.4290  209.2470  154.8690 C   0  0  0  0  0  3  0  0  0  0  0  0
  161.2230  207.0630  153.2980 C   0  0  0  0  0  0  0  0  0  0  0  0
  160.6150  210.7210  152.9910 O   0  0  0  0  0  1  0  0  0  0  0  0
  161.1320  208.3510  152.7130 C   0  0  0  0  0  0  0  0  0  0  0  0
  160.9090  206.8940  154.6560 C   0  0  0  0  0  3  0  0  0  0  0  0
  161.6410  205.9710  152.5280 O   0  0  0  0  0  0  0  0  0  0  0  0
  161.1930  204.6420  152.7570 C   0  0  0  0  0  2  0  0  0  0  0  0
  161.5540  203.7700  151.5700 C   0  0  1  0  0  3  0  0  0  0  0  0
  161.7500  202.4550  151.9960 O   0  0  0  0  0  1  0  0  0  0  0  0
  160.4290  203.8170  150.5540 C   0  0  0  0  0  2  0  0  0  0  0  0
  160.8470  203.1660  149.3240 N   0  0  0  0  0  1  0  0  0  0  0  0
  160.1210  206.2000  147.9120 O   0  0  0  0  0  0  0  0  0  0  0  0
  161.2510  206.7570  147.9700 C   0  0  0  0  0  0  0  0  0  0  0  0
  162.3190  206.3190  147.0190 C   0  0  0  0  0  2  0  0  0  0  0  0
  161.7510  203.9810  146.2600 N   0  0  0  0  0  2  0  0  0  0  0  0
  161.7550  205.3840  146.0040 C   0  0  0  0  0  0  0  0  0  0  0  0
  161.2610  205.8450  144.9400 O   0  0  0  0  0  0  0  0  0  0  0  0
  161.2000  203.0250  145.3120 C   0  0  0  0  0  2  0  0  0  0  0  0
  160.2760  202.0550  146.0300 C   0  0  0  0  0  2  0  0  0  0  0  0
  161.3990  200.3190  147.2270 O   0  0  0  0  0  1  0  0  0  0  0  0
  160.8350  200.6420  145.9930 C   0  0  0  0  0  2  0  0  0  0  0  0
  1  4  2  0  0  0  0
  1  2  1  0  0  0  0
  2  3  2  0  0  0  0
  3  5  1  0  0  0  0
  4  6  1  0  0  0  0
  5 12  1  0  0  0  0
  6  5  2  0  0  0  0
  7  9  1  0  0  0  0
  9  8  2  0  0  0  0
 10 13  2  0  0  0  0
 11  7  1  0  0  0  0
 12 10  1  0  0  0  0
 12  7  2  0  0  0  0
 13  8  1  0  0  0  0
 14 15  1  0  0  0  0
 14 10  1  0  0  0  0
 16 17  1  1  0  0  0
 16 15  1  0  0  0  0
 18 16  1  0  0  0  0
 19 18  1  0  0  0  0
 20 21  2  0  0  0  0
 21  4  1  0  0  0  0
 22 21  1  0  0  0  0
 24 23  1  0  0  0  0
 24 22  1  0  0  0  0
 25 24  2  0  0  0  0
 26 27  1  0  0  0  0
 26 23  1  0  0  0  0
 29 27  1  0  0  0  0
 29 28  1  0  0  0  0
M  END
>  <MODEL>
6

>  <REMARK>
 VINA RESULT:      -7.4      2.775      7.219
  Name = 
  11 active torsions:
  status: ('A' for Active; 'I' for Inactive)
    1  A    between atoms: C_3  and  C_19
    2  A    between atoms: C_5  and  O_6
    3  A    between atoms: C_5  and  C_9
    4  A    between atoms: O_6  and  C_14
    5  A    between atoms: C_9  and  C_25
    6  A    between atoms: C_11  and  C_18
    7  A    between atoms: C_11  and  C_24
    8  A    between atoms: C_13  and  N_17
    9  A    between atoms: C_13  and  C_19
   10  A    between atoms: C_15  and  C_24
   11  A    between atoms: C_20  and  C_22
                            x       y       z     vdW  Elec       q    Type
                         _______ _______ _______ _____ _____    ______ ____

>  <TORSDO>
F 11

$$$$
=
 OpenBabel11042423113D

 29 30  0  0  1  0  0  0  0  0999 V2000
  161.6570  207.0360  152.7010 C   0  0  0  0  0  3  0  0  0  0  0  0
  161.4570  205.7730  153.1590 N   0  0  0  0  0  0  0  0  0  0  0  0
  161.3030  204.7450  152.3220 N   0  0  0  0  0  0  0  0  0  0  0  0
  161.7010  207.2750  151.3250 C   0  0  0  0  0  0  0  0  0  0  0  0
  161.3380  204.9090  150.9710 C   0  0  0  0  0  0  0  0  0  0  0  0
  161.5350  206.1950  150.4570 C   0  0  0  0  0  3  0  0  0  0  0  0
  160.8910  202.4630  150.6070 C   0  0  0  0  0  0  0  0  0  0  0  0
  160.8230  201.5090  148.3830 C   0  0  0  0  0  3  0  0  0  0  0  0
  160.7250  201.3610  149.7650 C   0  0  0  0  0  3  0  0  0  0  0  0
  161.2640  203.8840  148.6630 C   0  0  0  0  0  0  0  0  0  0  0  0
  160.7640  202.2730  151.9790 O   0  0  0  0  0  1  0  0  0  0  0  0
  161.1590  203.7410  150.0690 C   0  0  0  0  0  0  0  0  0  0  0  0
  161.0910  202.7620  147.8370 C   0  0  0  0  0  3  0  0  0  0  0  0
  161.5560  205.1340  148.1040 O   0  0  0  0  0  0  0  0  0  0  0  0
  160.9310  205.6250  146.9260 C   0  0  0  0  0  2  0  0  0  0  0  0
  161.9720  205.8270  145.8430 C   0  0  1  0  0  3  0  0  0  0  0  0
  163.0820  205.0220  146.1020 O   0  0  0  0  0  1  0  0  0  0  0  0
  161.3730  205.4570  144.4990 C   0  0  0  0  0  2  0  0  0  0  0  0
  160.5330  204.2800  144.6390 N   0  0  0  0  0  1  0  0  0  0  0  0
  161.8940  208.8400  149.5500 O   0  0  0  0  0  0  0  0  0  0  0  0
  161.9230  208.6350  150.7940 C   0  0  0  0  0  0  0  0  0  0  0  0
  162.2180  209.7830  151.7060 C   0  0  0  0  0  2  0  0  0  0  0  0
  160.7570  211.8200  151.4230 N   0  0  0  0  0  2  0  0  0  0  0  0
  160.9680  210.5360  152.0090 C   0  0  0  0  0  0  0  0  0  0  0  0
  160.0950  210.0200  152.7580 O   0  0  0  0  0  0  0  0  0  0  0  0
  159.5500  212.5910  151.6710 C   0  0  0  0  0  2  0  0  0  0  0  0
  159.7080  213.9980  151.1170 C   0  0  0  0  0  2  0  0  0  0  0  0
  159.0410  213.4870  148.8800 O   0  0  0  0  0  1  0  0  0  0  0  0
  160.1030  213.9640  149.6490 C   0  0  0  0  0  2  0  0  0  0  0  0
  1  2  1  0  0  0  0
  3  2  2  0  0  0  0
  4  1  2  0  0  0  0
  5  3  1  0  0  0  0
  6  5  2  0  0  0  0
  6  4  1  0  0  0  0
  7 11  1  0  0  0  0
  8  9  1  0  0  0  0
  9  7  2  0  0  0  0
 10 12  2  0  0  0  0
 12  7  1  0  0  0  0
 12  5  1  0  0  0  0
 13  8  2  0  0  0  0
 13 10  1  0  0  0  0
 14 10  1  0  0  0  0
 15 14  1  0  0  0  0
 16 17  1  1  0  0  0
 16 15  1  0  0  0  0
 18 19  1  0  0  0  0
 18 16  1  0  0  0  0
 20 21  2  0  0  0  0
 21  4  1  0  0  0  0
 21 22  1  0  0  0  0
 22 24  1  0  0  0  0
 23 26  1  0  0  0  0
 23 24  1  0  0  0  0
 24 25  2  0  0  0  0
 27 26  1  0  0  0  0
 28 29  1  0  0  0  0
 29 27  1  0  0  0  0
M  END
>  <MODEL>
7

>  <REMARK>
 VINA RESULT:      -7.4      1.657      1.990
  Name = 
  11 active torsions:
  status: ('A' for Active; 'I' for Inactive)
    1  A    between atoms: C_3  and  C_19
    2  A    between atoms: C_5  and  O_6
    3  A    between atoms: C_5  and  C_9
    4  A    between atoms: O_6  and  C_14
    5  A    between atoms: C_9  and  C_25
    6  A    between atoms: C_11  and  C_18
    7  A    between atoms: C_11  and  C_24
    8  A    between atoms: C_13  and  N_17
    9  A    between atoms: C_13  and  C_19
   10  A    between atoms: C_15  and  C_24
   11  A    between atoms: C_20  and  C_22
                            x       y       z     vdW  Elec       q    Type
                         _______ _______ _______ _____ _____    ______ ____

>  <TORSDO>
F 11

$$$$
=
 OpenBabel11042423113D

 29 30  0  0  1  0  0  0  0  0999 V2000
  161.2340  208.0710  150.4490 C   0  0  0  0  0  3  0  0  0  0  0  0
  161.2600  207.5620  149.1910 N   0  0  0  0  0  0  0  0  0  0  0  0
  161.2120  206.2470  148.9700 N   0  0  0  0  0  0  0  0  0  0  0  0
  161.1570  207.2070  151.5450 C   0  0  0  0  0  0  0  0  0  0  0  0
  161.1340  205.3510  149.9930 C   0  0  0  0  0  0  0  0  0  0  0  0
  161.1110  205.8330  151.3050 C   0  0  0  0  0  3  0  0  0  0  0  0
  160.8980  202.9700  150.7620 C   0  0  0  0  0  0  0  0  0  0  0  0
  160.9960  201.1230  149.2000 C   0  0  0  0  0  3  0  0  0  0  0  0
  160.8540  201.5980  150.5010 C   0  0  0  0  0  3  0  0  0  0  0  0
  161.2340  203.4020  148.3870 C   0  0  0  0  0  0  0  0  0  0  0  0
  160.7330  203.4000  152.0740 O   0  0  0  0  0  1  0  0  0  0  0  0
  161.0850  203.8930  149.7090 C   0  0  0  0  0  0  0  0  0  0  0  0
  161.1840  202.0200  148.1500 C   0  0  0  0  0  3  0  0  0  0  0  0
  161.4480  204.2940  147.3290 O   0  0  0  0  0  0  0  0  0  0  0  0
  162.1100  203.9270  146.1260 C   0  0  0  0  0  2  0  0  0  0  0  0
  161.1280  203.9630  144.9710 C   0  0  1  0  0  3  0  0  0  0  0  0
  160.4280  202.7570  144.9120 O   0  0  0  0  0  1  0  0  0  0  0  0
  160.1560  205.1100  145.1770 C   0  0  0  0  0  2  0  0  0  0  0  0
  160.7380  206.3460  144.6840 N   0  0  0  0  0  1  0  0  0  0  0  0
  160.7240  206.9900  153.8690 O   0  0  0  0  0  0  0  0  0  0  0  0
  161.1200  207.7270  152.9260 C   0  0  0  0  0  0  0  0  0  0  0  0
  161.5160  209.1370  153.2320 C   0  0  0  0  0  2  0  0  0  0  0  0
  159.9260  210.1880  154.8840 N   0  0  0  0  0  2  0  0  0  0  0  0
  160.3090  209.9590  153.5290 C   0  0  0  0  0  0  0  0  0  0  0  0
  159.6520  210.4670  152.5800 O   0  0  0  0  0  0  0  0  0  0  0  0
  158.7670  210.9950  155.2320 C   0  0  0  0  0  2  0  0  0  0  0  0
  159.1780  212.4470  155.4080 C   0  0  0  0  0  2  0  0  0  0  0  0
  157.4580  212.6680  153.7630 O   0  0  0  0  0  1  0  0  0  0  0  0
  158.2010  213.3780  154.7060 C   0  0  0  0  0  2  0  0  0  0  0  0
  1  4  1  0  0  0  0
  2  1  2  0  0  0  0
  3  2  1  0  0  0  0
  3  5  2  0  0  0  0
  4 21  1  0  0  0  0
  5  6  1  0  0  0  0
  6  4  2  0  0  0  0
  7 11  1  0  0  0  0
  8  9  2  0  0  0  0
  9  7  1  0  0  0  0
 10 12  1  0  0  0  0
 12  5  1  0  0  0  0
 12  7  2  0  0  0  0
 13 10  2  0  0  0  0
 13  8  1  0  0  0  0
 14 10  1  0  0  0  0
 15 14  1  0  0  0  0
 16 17  1  1  0  0  0
 16 18  1  0  0  0  0
 16 15  1  0  0  0  0
 19 18  1  0  0  0  0
 21 22  1  0  0  0  0
 21 20  2  0  0  0  0
 22 24  1  0  0  0  0
 23 26  1  0  0  0  0
 24 23  1  0  0  0  0
 25 24  2  0  0  0  0
 26 27  1  0  0  0  0
 28 29  1  0  0  0  0
 29 27  1  0  0  0  0
M  END
>  <MODEL>
8

>  <REMARK>
 VINA RESULT:      -7.3      3.102      4.024
  Name = 
  11 active torsions:
  status: ('A' for Active; 'I' for Inactive)
    1  A    between atoms: C_3  and  C_19
    2  A    between atoms: C_5  and  O_6
    3  A    between atoms: C_5  and  C_9
    4  A    between atoms: O_6  and  C_14
    5  A    between atoms: C_9  and  C_25
    6  A    between atoms: C_11  and  C_18
    7  A    between atoms: C_11  and  C_24
    8  A    between atoms: C_13  and  N_17
    9  A    between atoms: C_13  and  C_19
   10  A    between atoms: C_15  and  C_24
   11  A    between atoms: C_20  and  C_22
                            x       y       z     vdW  Elec       q    Type
                         _______ _______ _______ _____ _____    ______ ____

>  <TORSDO>
F 11

$$$$
=
 OpenBabel11042423113D

 29 30  0  0  1  0  0  0  0  0999 V2000
  162.2930  208.0600  150.6470 C   0  0  0  0  0  3  0  0  0  0  0  0
  162.4660  209.3440  151.0550 N   0  0  0  0  0  0  0  0  0  0  0  0
  161.8970  209.8030  152.1710 N   0  0  0  0  0  0  0  0  0  0  0  0
  161.5020  207.1930  151.4050 C   0  0  0  0  0  0  0  0  0  0  0  0
  161.1160  209.0100  152.9550 C   0  0  0  0  0  0  0  0  0  0  0  0
  160.9070  207.6830  152.5690 C   0  0  0  0  0  3  0  0  0  0  0  0
  160.7980  208.9910  155.4490 C   0  0  0  0  0  0  0  0  0  0  0  0
  159.3270  210.5700  156.5460 C   0  0  0  0  0  3  0  0  0  0  0  0
  160.2160  209.4990  156.6120 C   0  0  0  0  0  3  0  0  0  0  0  0
  159.5860  210.6430  154.1290 C   0  0  0  0  0  0  0  0  0  0  0  0
  161.6940  207.9330  155.5640 O   0  0  0  0  0  1  0  0  0  0  0  0
  160.4950  209.5570  154.1900 C   0  0  0  0  0  0  0  0  0  0  0  0
  159.0160  211.1380  155.3130 C   0  0  0  0  0  3  0  0  0  0  0  0
  159.2480  211.2050  152.8920 O   0  0  0  0  0  0  0  0  0  0  0  0
  159.2060  212.6070  152.6620 C   0  0  0  0  0  2  0  0  0  0  0  0
  158.6050  212.8820  151.2970 C   0  0  1  0  0  3  0  0  0  0  0  0
  157.5210  213.7520  151.4280 O   0  0  0  0  0  1  0  0  0  0  0  0
  159.6580  213.5070  150.4030 C   0  0  0  0  0  2  0  0  0  0  0  0
  159.0730  213.8620  149.1220 N   0  0  0  0  0  1  0  0  0  0  0  0
  161.9300  204.8640  151.5720 O   0  0  0  0  0  0  0  0  0  0  0  0
  161.2990  205.7900  150.9940 C   0  0  0  0  0  0  0  0  0  0  0  0
  160.3750  205.4390  149.8710 C   0  0  0  0  0  2  0  0  0  0  0  0
  161.8160  205.5850  147.8060 N   0  0  0  0  0  2  0  0  0  0  0  0
  161.1310  204.7830  148.7670 C   0  0  0  0  0  0  0  0  0  0  0  0
  161.1800  203.5250  148.7060 O   0  0  0  0  0  0  0  0  0  0  0  0
  162.5820  204.9980  146.7170 C   0  0  0  0  0  2  0  0  0  0  0  0
  162.2490  205.6990  145.4100 C   0  0  0  0  0  2  0  0  0  0  0  0
  160.5410  204.2920  144.5100 O   0  0  0  0  0  1  0  0  0  0  0  0
  160.7750  205.5480  145.0710 C   0  0  0  0  0  2  0  0  0  0  0  0
  1  2  2  0  0  0  0
  1  4  1  0  0  0  0
  2  3  1  0  0  0  0
  3  5  2  0  0  0  0
  4  6  2  0  0  0  0
  5 12  1  0  0  0  0
  6  5  1  0  0  0  0
  7 11  1  0  0  0  0
  7  9  1  0  0  0  0
  8  9  2  0  0  0  0
 10 12  1  0  0  0  0
 10 13  2  0  0  0  0
 12  7  2  0  0  0  0
 13  8  1  0  0  0  0
 14 10  1  0  0  0  0
 15 14  1  0  0  0  0
 16 17  1  1  0  0  0
 16 15  1  0  0  0  0
 18 16  1  0  0  0  0
 19 18  1  0  0  0  0
 21  4  1  0  0  0  0
 21 20  2  0  0  0  0
 22 21  1  0  0  0  0
 23 24  1  0  0  0  0
 24 22  1  0  0  0  0
 25 24  2  0  0  0  0
 26 23  1  0  0  0  0
 27 26  1  0  0  0  0
 28 29  1  0  0  0  0
 29 27  1  0  0  0  0
M  END
>  <MODEL>
9

>  <REMARK>
 VINA RESULT:      -7.2      3.103      7.487
  Name = 
  11 active torsions:
  status: ('A' for Active; 'I' for Inactive)
    1  A    between atoms: C_3  and  C_19
    2  A    between atoms: C_5  and  O_6
    3  A    between atoms: C_5  and  C_9
    4  A    between atoms: O_6  and  C_14
    5  A    between atoms: C_9  and  C_25
    6  A    between atoms: C_11  and  C_18
    7  A    between atoms: C_11  and  C_24
    8  A    between atoms: C_13  and  N_17
    9  A    between atoms: C_13  and  C_19
   10  A    between atoms: C_15  and  C_24
   11  A    between atoms: C_20  and  C_22
                            x       y       z     vdW  Elec       q    Type
                         _______ _______ _______ _____ _____    ______ ____

>  <TORSDO>
F 11

$$$$
