=
 OpenBabel11042421063D

 36 38  0  0  1  0  0  0  0  0999 V2000
  160.7220  209.2790  153.3290 C   0  0  2  0  0  3  0  0  0  0  0  0
  161.2160  209.0130  154.7440 C   0  0  0  0  0  0  0  0  0  0  0  0
  160.7080  206.6470  154.2250 C   0  0  0  0  0  2  0  0  0  0  0  0
  161.1540  208.2160  152.2910 C   0  0  2  0  0  3  0  0  0  0  0  0
  161.4170  206.8110  152.8880 C   0  0  2  0  0  3  0  0  0  0  0  0
  161.1700  207.7270  155.1670 C   0  0  0  0  0  0  0  0  0  0  0  0
  161.5730  207.3630  156.4030 F   0  0  0  0  0  0  0  0  0  0  0  0
  161.6510  210.1490  155.6520 C   0  0  0  0  0  0  0  0  0  0  0  0
  162.6870  209.7740  156.4760 F   0  0  0  0  0  0  0  0  0  0  0  0
  162.0940  211.1980  154.8820 F   0  0  0  0  0  0  0  0  0  0  0  0
  160.4830  210.6280  156.4900 C   0  0  0  0  0  3  0  0  0  0  0  0
  159.3800  209.8240  156.3140 F   0  0  0  0  0  0  0  0  0  0  0  0
  160.1550  211.9270  156.1610 F   0  0  0  0  0  0  0  0  0  0  0  0
  162.1800  208.6310  151.4160 O   0  0  0  0  0  0  0  0  0  0  0  0
  161.7110  208.5610  150.1000 C   0  0  0  0  0  1  0  0  0  0  0  0
  160.6610  210.6990  152.8460 C   0  0  0  0  0  0  0  0  0  0  0  0
  161.6470  211.2140  152.2480 O   0  0  0  0  0  0  0  0  0  0  0  0
  159.4720  211.5120  153.0800 C   0  0  0  0  0  0  0  0  0  0  0  0
  158.0550  213.3430  153.3290 N   0  0  0  0  0  0  0  0  0  0  0  0
  157.5150  212.1200  153.7550 N   0  0  0  0  0  0  0  0  0  0  0  0
  158.4070  211.0640  153.6320 N   0  0  0  0  0  2  0  0  0  0  0  0
  159.3710  212.9670  152.7860 C   0  0  0  0  0  3  0  0  0  0  0  0
  161.0040  205.8220  151.9930 O   0  0  0  0  0  0  0  0  0  0  0  0
  161.5010  204.6160  152.5150 C   0  0  0  0  0  2  0  0  0  0  0  0
  160.5720  203.4780  152.1260 C   0  0  0  0  0  2  0  0  0  0  0  0
  161.3000  202.4660  151.2510 C   0  0  0  0  0  2  0  0  0  0  0  0
  160.5740  202.1920  150.0510 O   0  0  0  0  0  0  0  0  0  0  0  0
  161.1630  202.4840  146.3950 C   0  0  0  0  0  3  0  0  0  0  0  0
  161.6170  203.8110  146.3050 C   0  0  0  0  0  0  0  0  0  0  0  0
  160.9080  202.7060  148.7940 C   0  0  0  0  0  0  0  0  0  0  0  0
  162.1770  206.0030  147.4290 C   0  0  0  0  0  1  0  0  0  0  0  0
  161.3460  204.0300  148.7050 C   0  0  0  0  0  3  0  0  0  0  0  0
  161.7010  204.5860  147.4740 C   0  0  0  0  0  0  0  0  0  0  0  0
  160.8160  201.9380  147.6310 C   0  0  0  0  0  3  0  0  0  0  0  0
  162.0300  204.3680  145.0930 O   0  0  0  0  0  0  0  0  0  0  0  0
  161.1310  205.0220  144.2080 C   0  0  0  0  0  1  0  0  0  0  0  0
  1 16  1  6  0  0  0
  1  2  1  0  0  0  0
  2  6  2  0  0  0  0
  2  8  1  0  0  0  0
  3  6  1  0  0  0  0
  4 14  1  1  0  0  0
  4  5  1  0  0  0  0
  4  1  1  0  0  0  0
  5 23  1  6  0  0  0
  5  3  1  0  0  0  0
  6  7  1  0  0  0  0
  8  9  1  0  0  0  0
  8 11  1  0  0  0  0
 10  8  1  0  0  0  0
 12 11  1  0  0  0  0
 13 11  1  0  0  0  0
 15 14  1  0  0  0  0
 16 18  1  0  0  0  0
 17 16  2  0  0  0  0
 18 21  1  0  0  0  0
 19 20  2  0  0  0  0
 21 20  1  0  0  0  0
 22 18  2  0  0  0  0
 22 19  1  0  0  0  0
 23 24  1  0  0  0  0
 25 24  1  0  0  0  0
 26 25  1  0  0  0  0
 27 26  1  0  0  0  0
 28 34  1  0  0  0  0
 29 28  2  0  0  0  0
 29 33  1  0  0  0  0
 30 27  1  0  0  0  0
 31 33  1  0  0  0  0
 32 30  1  0  0  0  0
 33 32  2  0  0  0  0
 34 30  2  0  0  0  0
 35 29  1  0  0  0  0
 36 35  1  0  0  0  0
M  END
>  <MODEL>
1

>  <REMARK>
 VINA RESULT:      -7.5      0.000      0.000
  Name = 
  12 active torsions:
  status: ('A' for Active; 'I' for Inactive)
    1  A    between atoms: C_2  and  O_22
    2  A    between atoms: C_3  and  C_18
    3  A    between atoms: C_4  and  C_6
    4  A    between atoms: C_5  and  C_18
    5  A    between atoms: C_6  and  C_8
    6  A    between atoms: O_7  and  C_9
    7  A    between atoms: O_7  and  C_14
    8  A    between atoms: C_9  and  C_16
    9  A    between atoms: O_10  and  C_19
   10  A    between atoms: C_16  and  C_30
   11  A    between atoms: C_23  and  O_36
   12  A    between atoms: C_30  and  O_36
                            x       y       z     vdW  Elec       q    Type
                         _______ _______ _______ _____ _____    ______ ____

>  <TORSDO>
F 12

$$$$
=
 OpenBabel11042421063D

 36 38  0  0  1  0  0  0  0  0999 V2000
  160.0910  209.8370  153.8310 C   0  0  2  0  0  3  0  0  0  0  0  0
  160.9590  209.6290  155.0650 C   0  0  0  0  0  0  0  0  0  0  0  0
  160.9140  207.2430  154.4040 C   0  0  0  0  0  2  0  0  0  0  0  0
  160.5010  208.9790  152.6100 C   0  0  2  0  0  3  0  0  0  0  0  0
  161.2220  207.6570  152.9720 C   0  0  2  0  0  3  0  0  0  0  0  0
  161.3190  208.3520  155.3390 C   0  0  0  0  0  0  0  0  0  0  0  0
  162.0810  208.0360  156.4080 F   0  0  0  0  0  0  0  0  0  0  0  0
  161.3180  210.7860  155.9780 C   0  0  0  0  0  0  0  0  0  0  0  0
  160.6820  211.9470  155.6040 F   0  0  0  0  0  0  0  0  0  0  0  0
  160.9210  210.4900  157.2610 F   0  0  0  0  0  0  0  0  0  0  0  0
  162.8180  211.0070  155.9790 C   0  0  0  0  0  3  0  0  0  0  0  0
  163.3740  210.6560  154.7700 F   0  0  0  0  0  0  0  0  0  0  0  0
  163.4130  210.2720  156.9840 F   0  0  0  0  0  0  0  0  0  0  0  0
  161.1590  209.6900  151.5850 O   0  0  0  0  0  0  0  0  0  0  0  0
  162.5410  209.5960  151.7810 C   0  0  0  0  0  1  0  0  0  0  0  0
  159.5840  211.2190  153.5370 C   0  0  0  0  0  0  0  0  0  0  0  0
  160.2900  212.0330  152.8780 O   0  0  0  0  0  0  0  0  0  0  0  0
  158.2780  211.6490  154.0250 C   0  0  0  0  0  0  0  0  0  0  0  0
  156.2230  211.6780  155.1180 N   0  0  0  0  0  0  0  0  0  0  0  0
  156.4030  212.7070  154.1820 N   0  0  0  0  0  0  0  0  0  0  0  0
  157.6210  212.6250  153.5210 N   0  0  0  0  0  0  0  0  0  0  0  0
  157.5120  210.9680  155.1040 C   0  0  0  0  0  2  0  0  0  0  0  0
  160.8530  206.6460  152.0830 O   0  0  0  0  0  0  0  0  0  0  0  0
  161.1980  205.4430  152.7210 C   0  0  0  0  0  2  0  0  0  0  0  0
  160.4280  204.2970  152.0860 C   0  0  0  0  0  2  0  0  0  0  0  0
  161.3810  203.2060  151.6160 C   0  0  0  0  0  2  0  0  0  0  0  0
  160.8390  202.4750  150.5140 O   0  0  0  0  0  0  0  0  0  0  0  0
  161.0400  202.2850  146.8100 C   0  0  0  0  0  3  0  0  0  0  0  0
  161.4370  203.5970  146.4980 C   0  0  0  0  0  0  0  0  0  0  0  0
  161.0250  202.8220  149.1720 C   0  0  0  0  0  0  0  0  0  0  0  0
  162.0320  205.9310  147.2590 C   0  0  0  0  0  1  0  0  0  0  0  0
  161.4050  204.1310  148.8640 C   0  0  0  0  0  3  0  0  0  0  0  0
  161.6130  204.5230  147.5400 C   0  0  0  0  0  0  0  0  0  0  0  0
  160.8410  201.9030  148.1370 C   0  0  0  0  0  3  0  0  0  0  0  0
  161.7040  203.9940  145.1870 O   0  0  0  0  0  0  0  0  0  0  0  0
  160.7430  204.6650  144.3820 C   0  0  0  0  0  1  0  0  0  0  0  0
  1 16  1  6  0  0  0
  1  2  1  0  0  0  0
  2  6  2  0  0  0  0
  2  8  1  0  0  0  0
  3  6  1  0  0  0  0
  4 14  1  6  0  0  0
  4  5  1  0  0  0  0
  4  1  1  0  0  0  0
  5 23  1  6  0  0  0
  5  3  1  0  0  0  0
  6  7  1  0  0  0  0
  8 11  1  0  0  0  0
  8 10  1  0  0  0  0
  9  8  1  0  0  0  0
 11 13  1  0  0  0  0
 12 11  1  0  0  0  0
 14 15  1  0  0  0  0
 16 18  1  0  0  0  0
 17 16  2  0  0  0  0
 18 22  1  0  0  0  0
 20 19  2  0  0  0  0
 21 18  2  0  0  0  0
 21 20  1  0  0  0  0
 22 19  1  0  0  0  0
 23 24  1  0  0  0  0
 25 24  1  0  0  0  0
 26 25  1  0  0  0  0
 27 26  1  0  0  0  0
 28 34  1  0  0  0  0
 29 28  2  0  0  0  0
 29 33  1  0  0  0  0
 30 27  1  0  0  0  0
 31 33  1  0  0  0  0
 32 30  1  0  0  0  0
 33 32  2  0  0  0  0
 34 30  2  0  0  0  0
 35 29  1  0  0  0  0
 36 35  1  0  0  0  0
M  END
>  <MODEL>
2

>  <REMARK>
 VINA RESULT:      -7.2      1.121      1.725
  Name = 
  12 active torsions:
  status: ('A' for Active; 'I' for Inactive)
    1  A    between atoms: C_2  and  O_22
    2  A    between atoms: C_3  and  C_18
    3  A    between atoms: C_4  and  C_6
    4  A    between atoms: C_5  and  C_18
    5  A    between atoms: C_6  and  C_8
    6  A    between atoms: O_7  and  C_9
    7  A    between atoms: O_7  and  C_14
    8  A    between atoms: C_9  and  C_16
    9  A    between atoms: O_10  and  C_19
   10  A    between atoms: C_16  and  C_30
   11  A    between atoms: C_23  and  O_36
   12  A    between atoms: C_30  and  O_36
                            x       y       z     vdW  Elec       q    Type
                         _______ _______ _______ _____ _____    ______ ____

>  <TORSDO>
F 12

$$$$
=
 OpenBabel11042421063D

 36 38  0  0  1  0  0  0  0  0999 V2000
  159.9450  210.1780  153.9320 C   0  0  2  0  0  3  0  0  0  0  0  0
  160.7190  209.3740  154.9680 C   0  0  0  0  0  0  0  0  0  0  0  0
  160.8570  207.6590  153.1880 C   0  0  0  0  0  2  0  0  0  0  0  0
  160.4990  210.0640  152.4920 C   0  0  2  0  0  3  0  0  0  0  0  0
  161.2590  208.7460  152.2020 C   0  0  2  0  0  3  0  0  0  0  0  0
  161.1240  208.1380  154.5910 C   0  0  0  0  0  0  0  0  0  0  0  0
  161.8120  207.3240  155.4200 F   0  0  0  0  0  0  0  0  0  0  0  0
  160.9390  209.9050  156.3720 C   0  0  0  0  0  0  0  0  0  0  0  0
  159.9400  210.7710  156.7520 F   0  0  0  0  0  0  0  0  0  0  0  0
  160.9360  208.8540  157.2590 F   0  0  0  0  0  0  0  0  0  0  0  0
  162.2800  210.6050  156.4640 C   0  0  0  0  0  3  0  0  0  0  0  0
  162.8030  210.8470  155.2140 F   0  0  0  0  0  0  0  0  0  0  0  0
  163.1730  209.8440  157.1900 F   0  0  0  0  0  0  0  0  0  0  0  0
  161.2000  211.2030  152.0400 O   0  0  0  0  0  0  0  0  0  0  0  0
  160.4060  211.8870  151.1140 C   0  0  0  0  0  1  0  0  0  0  0  0
  159.3900  211.5140  154.3320 C   0  0  0  0  0  0  0  0  0  0  0  0
  160.1610  212.4940  154.5290 O   0  0  0  0  0  0  0  0  0  0  0  0
  157.9530  211.6940  154.5180 C   0  0  0  0  0  0  0  0  0  0  0  0
  155.7250  211.2990  155.0630 N   0  0  0  0  0  0  0  0  0  0  0  0
  155.9460  212.4580  154.3040 N   0  0  0  0  0  0  0  0  0  0  0  0
  157.2810  212.6310  153.9620 N   0  0  0  0  0  0  0  0  0  0  0  0
  157.0810  210.7780  155.3010 C   0  0  0  0  0  2  0  0  0  0  0  0
  161.0190  208.3280  150.8920 O   0  0  0  0  0  0  0  0  0  0  0  0
  162.2720  207.9460  150.3860 C   0  0  0  0  0  2  0  0  0  0  0  0
  162.3670  208.3430  148.9220 C   0  0  0  0  0  2  0  0  0  0  0  0
  161.2300  207.7180  148.1230 C   0  0  0  0  0  2  0  0  0  0  0  0
  161.7040  206.6820  147.2600 O   0  0  0  0  0  0  0  0  0  0  0  0
  161.4700  203.0080  146.7600 C   0  0  0  0  0  3  0  0  0  0  0  0
  161.1160  202.5870  148.0540 C   0  0  0  0  0  0  0  0  0  0  0  0
  161.5210  205.3160  147.4970 C   0  0  0  0  0  0  0  0  0  0  0  0
  160.6040  203.1460  150.4630 C   0  0  0  0  0  1  0  0  0  0  0  0
  161.1830  204.8970  148.7870 C   0  0  0  0  0  3  0  0  0  0  0  0
  160.9780  203.5450  149.0710 C   0  0  0  0  0  0  0  0  0  0  0  0
  161.6660  204.3620  146.4870 C   0  0  0  0  0  3  0  0  0  0  0  0
  160.8530  201.2470  148.3450 O   0  0  0  0  0  0  0  0  0  0  0  0
  161.5180  200.1780  147.6870 C   0  0  0  0  0  1  0  0  0  0  0  0
  1 16  1  1  0  0  0
  1  2  1  0  0  0  0
  2  8  1  0  0  0  0
  3  6  1  0  0  0  0
  4 14  1  1  0  0  0
  4  1  1  0  0  0  0
  5 23  1  6  0  0  0
  5  4  1  0  0  0  0
  5  3  1  0  0  0  0
  6  2  2  0  0  0  0
  6  7  1  0  0  0  0
  8 11  1  0  0  0  0
  8  9  1  0  0  0  0
  8 10  1  0  0  0  0
 11 13  1  0  0  0  0
 12 11  1  0  0  0  0
 15 14  1  0  0  0  0
 16 18  1  0  0  0  0
 16 17  2  0  0  0  0
 18 22  1  0  0  0  0
 19 22  1  0  0  0  0
 20 19  2  0  0  0  0
 21 20  1  0  0  0  0
 21 18  2  0  0  0  0
 24 23  1  0  0  0  0
 25 24  1  0  0  0  0
 26 25  1  0  0  0  0
 27 30  1  0  0  0  0
 27 26  1  0  0  0  0
 28 29  1  0  0  0  0
 29 35  1  0  0  0  0
 29 33  2  0  0  0  0
 30 32  2  0  0  0  0
 32 33  1  0  0  0  0
 33 31  1  0  0  0  0
 34 28  2  0  0  0  0
 34 30  1  0  0  0  0
 36 35  1  0  0  0  0
M  END
>  <MODEL>
3

>  <REMARK>
 VINA RESULT:      -7.1      1.536      3.228
  Name = 
  12 active torsions:
  status: ('A' for Active; 'I' for Inactive)
    1  A    between atoms: C_2  and  O_22
    2  A    between atoms: C_3  and  C_18
    3  A    between atoms: C_4  and  C_6
    4  A    between atoms: C_5  and  C_18
    5  A    between atoms: C_6  and  C_8
    6  A    between atoms: O_7  and  C_9
    7  A    between atoms: O_7  and  C_14
    8  A    between atoms: C_9  and  C_16
    9  A    between atoms: O_10  and  C_19
   10  A    between atoms: C_16  and  C_30
   11  A    between atoms: C_23  and  O_36
   12  A    between atoms: C_30  and  O_36
                            x       y       z     vdW  Elec       q    Type
                         _______ _______ _______ _____ _____    ______ ____

>  <TORSDO>
F 12

$$$$
=
 OpenBabel11042421063D

 36 38  0  0  1  0  0  0  0  0999 V2000
  160.0580  209.7630  154.4570 C   0  0  2  0  0  3  0  0  0  0  0  0
  160.2330  208.3350  154.9560 C   0  0  0  0  0  0  0  0  0  0  0  0
  161.2250  207.9270  152.7250 C   0  0  0  0  0  2  0  0  0  0  0  0
  161.2420  210.2950  153.6150 C   0  0  2  0  0  3  0  0  0  0  0  0
  162.0520  209.1950  152.8850 C   0  0  2  0  0  3  0  0  0  0  0  0
  160.7760  207.4540  154.0820 C   0  0  0  0  0  0  0  0  0  0  0  0
  160.9760  206.1580  154.4020 F   0  0  0  0  0  0  0  0  0  0  0  0
  159.7420  207.9160  156.3290 C   0  0  0  0  0  0  0  0  0  0  0  0
  159.0890  208.9430  156.9720 F   0  0  0  0  0  0  0  0  0  0  0  0
  158.8510  206.8780  156.1930 F   0  0  0  0  0  0  0  0  0  0  0  0
  160.9040  207.4430  157.1800 C   0  0  0  0  0  3  0  0  0  0  0  0
  162.1060  207.8740  156.6670 F   0  0  0  0  0  0  0  0  0  0  0  0
  160.9120  206.0650  157.2610 F   0  0  0  0  0  0  0  0  0  0  0  0
  162.0700  211.2210  154.2840 O   0  0  0  0  0  0  0  0  0  0  0  0
  163.1600  210.5410  154.8360 C   0  0  0  0  0  1  0  0  0  0  0  0
  159.3730  210.7560  155.3510 C   0  0  0  0  0  0  0  0  0  0  0  0
  159.9180  211.1280  156.4280 O   0  0  0  0  0  0  0  0  0  0  0  0
  158.0610  211.2880  155.0000 C   0  0  0  0  0  0  0  0  0  0  0  0
  156.3550  212.7520  154.3950 N   0  0  0  0  0  0  0  0  0  0  0  0
  155.9190  211.4910  154.8270 N   0  0  0  0  0  0  0  0  0  0  0  0
  156.9640  210.6660  155.2220 N   0  0  0  0  0  2  0  0  0  0  0  0
  157.8220  212.6390  154.4230 C   0  0  0  0  0  3  0  0  0  0  0  0
  162.4800  209.6570  151.6390 O   0  0  0  0  0  0  0  0  0  0  0  0
  161.6490  209.0240  150.6990 C   0  0  0  0  0  2  0  0  0  0  0  0
  162.1580  209.3170  149.2980 C   0  0  0  0  0  2  0  0  0  0  0  0
  162.3790  208.0230  148.5260 C   0  0  0  0  0  2  0  0  0  0  0  0
  161.1780  207.2530  148.4380 O   0  0  0  0  0  0  0  0  0  0  0  0
  161.1400  203.5790  147.8950 C   0  0  0  0  0  3  0  0  0  0  0  0
  160.9370  203.1190  149.2080 C   0  0  0  0  0  0  0  0  0  0  0  0
  161.1080  205.8750  148.6660 C   0  0  0  0  0  0  0  0  0  0  0  0
  160.6180  203.6130  151.6640 C   0  0  0  0  0  1  0  0  0  0  0  0
  160.9200  205.4190  149.9740 C   0  0  0  0  0  3  0  0  0  0  0  0
  160.8320  204.0530  150.2510 C   0  0  0  0  0  0  0  0  0  0  0  0
  161.2200  204.9460  147.6300 C   0  0  0  0  0  3  0  0  0  0  0  0
  160.7920  201.7610  149.4980 O   0  0  0  0  0  0  0  0  0  0  0  0
  161.4770  200.7480  148.7740 C   0  0  0  0  0  1  0  0  0  0  0  0
  1  2  1  0  0  0  0
  1 16  1  1  0  0  0
  2  8  1  0  0  0  0
  3  5  1  0  0  0  0
  3  6  1  0  0  0  0
  4 14  1  1  0  0  0
  4  1  1  0  0  0  0
  5 23  1  6  0  0  0
  5  4  1  0  0  0  0
  6  7  1  0  0  0  0
  6  2  2  0  0  0  0
  8  9  1  0  0  0  0
  8 11  1  0  0  0  0
 10  8  1  0  0  0  0
 11 13  1  0  0  0  0
 12 11  1  0  0  0  0
 14 15  1  0  0  0  0
 16 17  2  0  0  0  0
 18 21  1  0  0  0  0
 18 16  1  0  0  0  0
 19 22  1  0  0  0  0
 19 20  2  0  0  0  0
 20 21  1  0  0  0  0
 22 18  2  0  0  0  0
 24 23  1  0  0  0  0
 25 24  1  0  0  0  0
 26 25  1  0  0  0  0
 27 26  1  0  0  0  0
 27 30  1  0  0  0  0
 28 29  1  0  0  0  0
 29 35  1  0  0  0  0
 29 33  2  0  0  0  0
 30 32  2  0  0  0  0
 32 33  1  0  0  0  0
 33 31  1  0  0  0  0
 34 28  2  0  0  0  0
 34 30  1  0  0  0  0
 36 35  1  0  0  0  0
M  END
>  <MODEL>
4

>  <REMARK>
 VINA RESULT:      -6.8      1.939      3.819
  Name = 
  12 active torsions:
  status: ('A' for Active; 'I' for Inactive)
    1  A    between atoms: C_2  and  O_22
    2  A    between atoms: C_3  and  C_18
    3  A    between atoms: C_4  and  C_6
    4  A    between atoms: C_5  and  C_18
    5  A    between atoms: C_6  and  C_8
    6  A    between atoms: O_7  and  C_9
    7  A    between atoms: O_7  and  C_14
    8  A    between atoms: C_9  and  C_16
    9  A    between atoms: O_10  and  C_19
   10  A    between atoms: C_16  and  C_30
   11  A    between atoms: C_23  and  O_36
   12  A    between atoms: C_30  and  O_36
                            x       y       z     vdW  Elec       q    Type
                         _______ _______ _______ _____ _____    ______ ____

>  <TORSDO>
F 12

$$$$
=
 OpenBabel11042421063D

 36 38  0  0  1  0  0  0  0  0999 V2000
  160.7270  211.2060  154.3330 C   0  0  2  0  0  3  0  0  0  0  0  0
  159.3620  211.6660  153.8390 C   0  0  0  0  0  0  0  0  0  0  0  0
  160.4840  211.8600  151.6410 C   0  0  0  0  0  2  0  0  0  0  0  0
  161.4840  210.2830  153.3480 C   0  0  2  0  0  3  0  0  0  0  0  0
  161.1020  210.4870  151.8610 C   0  0  2  0  0  3  0  0  0  0  0  0
  159.2780  212.0080  152.5320 C   0  0  0  0  0  0  0  0  0  0  0  0
  158.1260  212.4390  151.9750 F   0  0  0  0  0  0  0  0  0  0  0  0
  158.1900  211.8130  154.7920 C   0  0  0  0  0  0  0  0  0  0  0  0
  157.0070  211.4200  154.2090 F   0  0  0  0  0  0  0  0  0  0  0  0
  158.3970  211.0130  155.8910 F   0  0  0  0  0  0  0  0  0  0  0  0
  158.0720  213.2500  155.2600 C   0  0  0  0  0  3  0  0  0  0  0  0
  157.0870  213.9200  154.5700 F   0  0  0  0  0  0  0  0  0  0  0  0
  159.2720  213.9110  155.0950 F   0  0  0  0  0  0  0  0  0  0  0  0
  161.5080  208.9220  153.7180 O   0  0  0  0  0  0  0  0  0  0  0  0
  160.7610  208.1850  152.7930 C   0  0  0  0  0  1  0  0  0  0  0  0
  160.8980  210.9080  155.7940 C   0  0  0  0  0  0  0  0  0  0  0  0
  161.1480  211.8370  156.6110 O   0  0  0  0  0  0  0  0  0  0  0  0
  160.7980  209.5380  156.2880 C   0  0  0  0  0  0  0  0  0  0  0  0
  161.3630  207.4350  157.1110 N   0  0  0  0  0  0  0  0  0  0  0  0
  160.0370  207.5550  156.6690 N   0  0  0  0  0  0  0  0  0  0  0  0
  159.7560  208.8090  156.1440 N   0  0  0  0  0  0  0  0  0  0  0  0
  161.9070  208.7920  156.9410 C   0  0  0  0  0  2  0  0  0  0  0  0
  162.2250  210.3230  151.0470 O   0  0  0  0  0  0  0  0  0  0  0  0
  161.8030  210.6670  149.7530 C   0  0  0  0  0  2  0  0  0  0  0  0
  162.1710  209.5520  148.7890 C   0  0  0  0  0  2  0  0  0  0  0  0
  161.7920  208.1950  149.3690 C   0  0  0  0  0  2  0  0  0  0  0  0
  161.4650  207.2580  148.3400 O   0  0  0  0  0  0  0  0  0  0  0  0
  161.4760  203.5940  147.7310 C   0  0  0  0  0  3  0  0  0  0  0  0
  161.1340  203.1130  149.0070 C   0  0  0  0  0  0  0  0  0  0  0  0
  161.3680  205.8770  148.5350 C   0  0  0  0  0  0  0  0  0  0  0  0
  160.5580  203.5660  151.4250 C   0  0  0  0  0  1  0  0  0  0  0  0
  161.0420  205.4000  149.8080 C   0  0  0  0  0  3  0  0  0  0  0  0
  160.9220  204.0300  150.0500 C   0  0  0  0  0  0  0  0  0  0  0  0
  161.5870  204.9650  147.5000 C   0  0  0  0  0  3  0  0  0  0  0  0
  160.9550  201.7510  149.2570 O   0  0  0  0  0  0  0  0  0  0  0  0
  161.2460  200.7530  148.2880 C   0  0  0  0  0  1  0  0  0  0  0  0
  1 16  1  1  0  0  0
  2  1  1  0  0  0  0
  2  8  1  0  0  0  0
  3  5  1  0  0  0  0
  3  6  1  0  0  0  0
  4 14  1  1  0  0  0
  4  1  1  0  0  0  0
  5 23  1  6  0  0  0
  5  4  1  0  0  0  0
  6  2  2  0  0  0  0
  7  6  1  0  0  0  0
  8 11  1  0  0  0  0
  8 10  1  0  0  0  0
  9  8  1  0  0  0  0
 12 11  1  0  0  0  0
 13 11  1  0  0  0  0
 15 14  1  0  0  0  0
 16 18  1  0  0  0  0
 16 17  2  0  0  0  0
 18 22  1  0  0  0  0
 20 19  2  0  0  0  0
 21 18  2  0  0  0  0
 21 20  1  0  0  0  0
 22 19  1  0  0  0  0
 24 23  1  0  0  0  0
 25 26  1  0  0  0  0
 25 24  1  0  0  0  0
 27 30  1  0  0  0  0
 27 26  1  0  0  0  0
 28 29  1  0  0  0  0
 29 35  1  0  0  0  0
 29 33  2  0  0  0  0
 30 32  2  0  0  0  0
 32 33  1  0  0  0  0
 33 31  1  0  0  0  0
 34 28  2  0  0  0  0
 34 30  1  0  0  0  0
 36 35  1  0  0  0  0
M  END
>  <MODEL>
5

>  <REMARK>
 VINA RESULT:      -6.4      2.461      4.686
  Name = 
  12 active torsions:
  status: ('A' for Active; 'I' for Inactive)
    1  A    between atoms: C_2  and  O_22
    2  A    between atoms: C_3  and  C_18
    3  A    between atoms: C_4  and  C_6
    4  A    between atoms: C_5  and  C_18
    5  A    between atoms: C_6  and  C_8
    6  A    between atoms: O_7  and  C_9
    7  A    between atoms: O_7  and  C_14
    8  A    between atoms: C_9  and  C_16
    9  A    between atoms: O_10  and  C_19
   10  A    between atoms: C_16  and  C_30
   11  A    between atoms: C_23  and  O_36
   12  A    between atoms: C_30  and  O_36
                            x       y       z     vdW  Elec       q    Type
                         _______ _______ _______ _____ _____    ______ ____

>  <TORSDO>
F 12

$$$$
=
 OpenBabel11042421063D

 36 38  0  0  1  0  0  0  0  0999 V2000
  160.6530  209.2290  152.4010 C   0  0  2  0  0  3  0  0  0  0  0  0
  160.9800  207.9510  153.1620 C   0  0  0  0  0  0  0  0  0  0  0  0
  160.6670  206.8450  150.9690 C   0  0  0  0  0  2  0  0  0  0  0  0
  161.2690  209.3020  150.9830 C   0  0  2  0  0  3  0  0  0  0  0  0
  161.5280  207.9240  150.3270 C   0  0  2  0  0  3  0  0  0  0  0  0
  160.9490  206.8000  152.4480 C   0  0  0  0  0  0  0  0  0  0  0  0
  161.2120  205.6010  153.0080 F   0  0  0  0  0  0  0  0  0  0  0  0
  161.2370  207.9690  154.6570 C   0  0  0  0  0  0  0  0  0  0  0  0
  161.9550  206.8690  155.0650 F   0  0  0  0  0  0  0  0  0  0  0  0
  161.9730  209.0860  154.9750 F   0  0  0  0  0  0  0  0  0  0  0  0
  159.9250  208.0280  155.4140 C   0  0  0  0  0  3  0  0  0  0  0  0
  160.0280  208.8300  156.5280 F   0  0  0  0  0  0  0  0  0  0  0  0
  159.5340  206.7620  155.8000 F   0  0  0  0  0  0  0  0  0  0  0  0
  162.3730  210.1730  150.8650 O   0  0  0  0  0  0  0  0  0  0  0  0
  162.1130  211.1020  149.8530 C   0  0  0  0  0  1  0  0  0  0  0  0
  160.5790  210.5190  153.1650 C   0  0  0  0  0  0  0  0  0  0  0  0
  161.6230  211.0310  153.6590 O   0  0  0  0  0  0  0  0  0  0  0  0
  159.2980  211.1880  153.3680 C   0  0  0  0  0  0  0  0  0  0  0  0
  157.4940  212.6380  153.1200 N   0  0  0  0  0  0  0  0  0  0  0  0
  157.4950  211.9020  154.3140 N   0  0  0  0  0  0  0  0  0  0  0  0
  158.6100  211.0860  154.4430 N   0  0  0  0  0  2  0  0  0  0  0  0
  158.6720  212.1280  152.4000 C   0  0  0  0  0  3  0  0  0  0  0  0
  161.2840  207.9880  148.9540 O   0  0  0  0  0  0  0  0  0  0  0  0
  162.2470  207.1530  148.3640 C   0  0  0  0  0  2  0  0  0  0  0  0
  161.8250  206.8250  146.9420 C   0  0  0  0  0  2  0  0  0  0  0  0
  162.7180  205.7380  146.3550 C   0  0  0  0  0  2  0  0  0  0  0  0
  161.9650  204.5750  146.0040 O   0  0  0  0  0  0  0  0  0  0  0  0
  160.8570  201.3340  147.4410 C   0  0  0  0  0  3  0  0  0  0  0  0
  160.7730  201.6630  148.8050 C   0  0  0  0  0  0  0  0  0  0  0  0
  161.5730  203.5870  146.9130 C   0  0  0  0  0  0  0  0  0  0  0  0
  161.0350  203.3630  150.6550 C   0  0  0  0  0  1  0  0  0  0  0  0
  161.5040  203.9130  148.2700 C   0  0  0  0  0  3  0  0  0  0  0  0
  161.1060  202.9650  149.2150 C   0  0  0  0  0  0  0  0  0  0  0  0
  161.2500  202.2910  146.5050 C   0  0  0  0  0  3  0  0  0  0  0  0
  160.3250  200.7470  149.7580 O   0  0  0  0  0  0  0  0  0  0  0  0
  158.9570  200.6340  150.1240 C   0  0  0  0  0  1  0  0  0  0  0  0
  1  2  1  0  0  0  0
  1 16  1  1  0  0  0
  2  8  1  0  0  0  0
  3  6  1  0  0  0  0
  4 14  1  1  0  0  0
  4  1  1  0  0  0  0
  5 23  1  6  0  0  0
  5  3  1  0  0  0  0
  5  4  1  0  0  0  0
  6  7  1  0  0  0  0
  6  2  2  0  0  0  0
  8 10  1  0  0  0  0
  8  9  1  0  0  0  0
  8 11  1  0  0  0  0
 11 13  1  0  0  0  0
 11 12  1  0  0  0  0
 15 14  1  0  0  0  0
 16 18  1  0  0  0  0
 16 17  2  0  0  0  0
 18 21  1  0  0  0  0
 19 20  2  0  0  0  0
 20 21  1  0  0  0  0
 22 19  1  0  0  0  0
 22 18  2  0  0  0  0
 24 23  1  0  0  0  0
 25 24  1  0  0  0  0
 26 25  1  0  0  0  0
 27 26  1  0  0  0  0
 27 30  1  0  0  0  0
 28 29  1  0  0  0  0
 29 33  2  0  0  0  0
 29 35  1  0  0  0  0
 30 32  2  0  0  0  0
 32 33  1  0  0  0  0
 33 31  1  0  0  0  0
 34 30  1  0  0  0  0
 34 28  2  0  0  0  0
 35 36  1  0  0  0  0
M  END
>  <MODEL>
6

>  <REMARK>
 VINA RESULT:      -6.2      1.554      3.345
  Name = 
  12 active torsions:
  status: ('A' for Active; 'I' for Inactive)
    1  A    between atoms: C_2  and  O_22
    2  A    between atoms: C_3  and  C_18
    3  A    between atoms: C_4  and  C_6
    4  A    between atoms: C_5  and  C_18
    5  A    between atoms: C_6  and  C_8
    6  A    between atoms: O_7  and  C_9
    7  A    between atoms: O_7  and  C_14
    8  A    between atoms: C_9  and  C_16
    9  A    between atoms: O_10  and  C_19
   10  A    between atoms: C_16  and  C_30
   11  A    between atoms: C_23  and  O_36
   12  A    between atoms: C_30  and  O_36
                            x       y       z     vdW  Elec       q    Type
                         _______ _______ _______ _____ _____    ______ ____

>  <TORSDO>
F 12

$$$$
=
 OpenBabel11042421063D

 36 38  0  0  1  0  0  0  0  0999 V2000
  161.8090  203.9650  148.2030 C   0  0  2  0  0  3  0  0  0  0  0  0
  161.0480  202.6590  148.0150 C   0  0  0  0  0  0  0  0  0  0  0  0
  160.7520  202.7520  150.4710 C   0  0  0  0  0  2  0  0  0  0  0  0
  161.1850  204.9220  149.2460 C   0  0  2  0  0  3  0  0  0  0  0  0
  160.3540  204.2150  150.3450 C   0  0  2  0  0  3  0  0  0  0  0  0
  160.5710  202.0730  149.1380 C   0  0  0  0  0  0  0  0  0  0  0  0
  159.8860  200.9100  149.1050 F   0  0  0  0  0  0  0  0  0  0  0  0
  160.9160  202.0160  146.6470 C   0  0  0  0  0  0  0  0  0  0  0  0
  159.7710  202.4210  146.0010 F   0  0  0  0  0  0  0  0  0  0  0  0
  161.9850  202.3880  145.8670 F   0  0  0  0  0  0  0  0  0  0  0  0
  160.9190  200.5050  146.7750 C   0  0  0  0  0  3  0  0  0  0  0  0
  162.0330  200.0640  147.4500 F   0  0  0  0  0  0  0  0  0  0  0  0
  160.8810  199.9160  145.5270 F   0  0  0  0  0  0  0  0  0  0  0  0
  160.5160  206.0360  148.6960 O   0  0  0  0  0  0  0  0  0  0  0  0
  161.1140  207.2070  149.1730 C   0  0  0  0  0  1  0  0  0  0  0  0
  162.4420  204.6050  147.0010 C   0  0  0  0  0  0  0  0  0  0  0  0
  163.6980  204.6980  146.9130 O   0  0  0  0  0  0  0  0  0  0  0  0
  161.6140  205.1480  145.9290 C   0  0  0  0  0  0  0  0  0  0  0  0
  160.9060  205.8910  143.8390 N   0  0  0  0  0  0  0  0  0  0  0  0
  160.0500  206.2210  144.9000 N   0  0  0  0  0  0  0  0  0  0  0  0
  160.5320  205.8000  146.1320 N   0  0  0  0  0  2  0  0  0  0  0  0
  161.9580  205.0880  144.4820 C   0  0  0  0  0  3  0  0  0  0  0  0
  160.5160  204.8700  151.5680 O   0  0  0  0  0  0  0  0  0  0  0  0
  161.8980  204.8630  151.8170 C   0  0  0  0  0  2  0  0  0  0  0  0
  162.2630  206.0650  152.6700 C   0  0  0  0  0  2  0  0  0  0  0  0
  161.1510  206.3750  153.6650 C   0  0  0  0  0  2  0  0  0  0  0  0
  161.4050  207.5890  154.3740 O   0  0  0  0  0  0  0  0  0  0  0  0
  159.9530  210.5750  152.7080 C   0  0  0  0  0  3  0  0  0  0  0  0
  159.3330  211.2110  153.7970 C   0  0  0  0  0  0  0  0  0  0  0  0
  160.7190  208.7870  154.1530 C   0  0  0  0  0  0  0  0  0  0  0  0
  158.7590  211.2520  156.2570 C   0  0  0  0  0  1  0  0  0  0  0  0
  160.0920  209.4110  155.2350 C   0  0  0  0  0  3  0  0  0  0  0  0
  159.4040  210.6150  155.0680 C   0  0  0  0  0  0  0  0  0  0  0  0
  160.6420  209.3750  152.8890 C   0  0  0  0  0  3  0  0  0  0  0  0
  158.6880  212.4410  153.6620 O   0  0  0  0  0  0  0  0  0  0  0  0
  159.0350  213.3780  152.6510 C   0  0  0  0  0  1  0  0  0  0  0  0
  1 16  1  6  0  0  0
  1  4  1  0  0  0  0
  2  1  1  0  0  0  0
  2  6  2  0  0  0  0
  4 14  1  6  0  0  0
  4  5  1  0  0  0  0
  5  3  1  0  0  0  0
  5 23  1  1  0  0  0
  6  3  1  0  0  0  0
  7  6  1  0  0  0  0
  8 11  1  0  0  0  0
  8  2  1  0  0  0  0
  9  8  1  0  0  0  0
 10  8  1  0  0  0  0
 11 12  1  0  0  0  0
 13 11  1  0  0  0  0
 14 15  1  0  0  0  0
 17 16  2  0  0  0  0
 18 21  1  0  0  0  0
 18 16  1  0  0  0  0
 19 22  1  0  0  0  0
 19 20  2  0  0  0  0
 20 21  1  0  0  0  0
 22 18  2  0  0  0  0
 23 24  1  0  0  0  0
 24 25  1  0  0  0  0
 25 26  1  0  0  0  0
 26 27  1  0  0  0  0
 28 34  2  0  0  0  0
 28 29  1  0  0  0  0
 29 33  2  0  0  0  0
 30 27  1  0  0  0  0
 30 32  2  0  0  0  0
 33 32  1  0  0  0  0
 33 31  1  0  0  0  0
 34 30  1  0  0  0  0
 35 29  1  0  0  0  0
 36 35  1  0  0  0  0
M  END
>  <MODEL>
7

>  <REMARK>
 VINA RESULT:      -6.1      5.445      9.559
  Name = 
  12 active torsions:
  status: ('A' for Active; 'I' for Inactive)
    1  A    between atoms: C_2  and  O_22
    2  A    between atoms: C_3  and  C_18
    3  A    between atoms: C_4  and  C_6
    4  A    between atoms: C_5  and  C_18
    5  A    between atoms: C_6  and  C_8
    6  A    between atoms: O_7  and  C_9
    7  A    between atoms: O_7  and  C_14
    8  A    between atoms: C_9  and  C_16
    9  A    between atoms: O_10  and  C_19
   10  A    between atoms: C_16  and  C_30
   11  A    between atoms: C_23  and  O_36
   12  A    between atoms: C_30  and  O_36
                            x       y       z     vdW  Elec       q    Type
                         _______ _______ _______ _____ _____    ______ ____

>  <TORSDO>
F 12

$$$$
=
 OpenBabel11042421063D

 36 38  0  0  1  0  0  0  0  0999 V2000
  159.6280  210.9120  153.7380 C   0  0  2  0  0  3  0  0  0  0  0  0
  159.9640  210.9250  155.2230 C   0  0  0  0  0  0  0  0  0  0  0  0
  160.0930  208.4650  154.9750 C   0  0  0  0  0  2  0  0  0  0  0  0
  160.4360  209.8850  152.9090 C   0  0  2  0  0  3  0  0  0  0  0  0
  160.9270  208.6580  153.7160 C   0  0  2  0  0  3  0  0  0  0  0  0
  160.1560  209.7190  155.8080 C   0  0  0  0  0  0  0  0  0  0  0  0
  160.4530  209.5970  157.1190 F   0  0  0  0  0  0  0  0  0  0  0  0
  159.9940  212.2210  156.0110 C   0  0  0  0  0  0  0  0  0  0  0  0
  161.1130  212.3090  156.8070 F   0  0  0  0  0  0  0  0  0  0  0  0
  160.0230  213.2820  155.1360 F   0  0  0  0  0  0  0  0  0  0  0  0
  158.7500  212.3420  156.8690 C   0  0  0  0  0  3  0  0  0  0  0  0
  157.8710  211.3130  156.6200 F   0  0  0  0  0  0  0  0  0  0  0  0
  158.1180  213.5460  156.6360 F   0  0  0  0  0  0  0  0  0  0  0  0
  161.4520  210.4460  152.1060 O   0  0  0  0  0  0  0  0  0  0  0  0
  161.5870  209.6810  150.9440 C   0  0  0  0  0  1  0  0  0  0  0  0
  159.3110  212.2150  153.0630 C   0  0  0  0  0  0  0  0  0  0  0  0
  160.2040  212.8370  152.4230 O   0  0  0  0  0  0  0  0  0  0  0  0
  157.9740  212.7920  153.1550 C   0  0  0  0  0  0  0  0  0  0  0  0
  156.1860  214.2730  152.9890 N   0  0  0  0  0  0  0  0  0  0  0  0
  155.9440  213.1510  153.7950 N   0  0  0  0  0  0  0  0  0  0  0  0
  157.0500  212.3190  153.9050 N   0  0  0  0  0  2  0  0  0  0  0  0
  157.5400  214.0370  152.4640 C   0  0  0  0  0  3  0  0  0  0  0  0
  160.8840  207.5100  152.9240 O   0  0  0  0  0  0  0  0  0  0  0  0
  161.4620  206.4950  153.7040 C   0  0  0  0  0  2  0  0  0  0  0  0
  161.1620  205.1440  153.0770 C   0  0  0  0  0  2  0  0  0  0  0  0
  161.8800  205.0010  151.7410 C   0  0  0  0  0  2  0  0  0  0  0  0
  161.2560  205.7850  150.7230 O   0  0  0  0  0  0  0  0  0  0  0  0
  161.2760  206.0670  147.0200 C   0  0  0  0  0  3  0  0  0  0  0  0
  161.2420  204.7110  146.6500 C   0  0  0  0  0  0  0  0  0  0  0  0
  161.2580  205.4570  149.3640 C   0  0  0  0  0  0  0  0  0  0  0  0
  161.1940  202.2730  147.3130 C   0  0  0  0  0  1  0  0  0  0  0  0
  161.2390  204.1080  149.0000 C   0  0  0  0  0  3  0  0  0  0  0  0
  161.2290  203.7290  147.6550 C   0  0  0  0  0  0  0  0  0  0  0  0
  161.2800  206.4330  148.3660 C   0  0  0  0  0  3  0  0  0  0  0  0
  161.1760  204.3130  145.3140 O   0  0  0  0  0  0  0  0  0  0  0  0
  161.2150  205.2400  144.2380 C   0  0  0  0  0  1  0  0  0  0  0  0
  1 16  1  6  0  0  0
  1  2  1  0  0  0  0
  2  6  2  0  0  0  0
  2  8  1  0  0  0  0
  3  6  1  0  0  0  0
  4 14  1  1  0  0  0
  4  5  1  0  0  0  0
  4  1  1  0  0  0  0
  5 23  1  6  0  0  0
  5  3  1  0  0  0  0
  6  7  1  0  0  0  0
  8  9  1  0  0  0  0
  8 11  1  0  0  0  0
 10  8  1  0  0  0  0
 12 11  1  0  0  0  0
 13 11  1  0  0  0  0
 15 14  1  0  0  0  0
 16 18  1  0  0  0  0
 17 16  2  0  0  0  0
 18 21  1  0  0  0  0
 19 20  2  0  0  0  0
 20 21  1  0  0  0  0
 22 19  1  0  0  0  0
 22 18  2  0  0  0  0
 23 24  1  0  0  0  0
 25 24  1  0  0  0  0
 26 25  1  0  0  0  0
 27 26  1  0  0  0  0
 28 34  1  0  0  0  0
 29 28  2  0  0  0  0
 29 33  1  0  0  0  0
 30 27  1  0  0  0  0
 31 33  1  0  0  0  0
 32 30  1  0  0  0  0
 33 32  2  0  0  0  0
 34 30  2  0  0  0  0
 35 29  1  0  0  0  0
 36 35  1  0  0  0  0
M  END
>  <MODEL>
8

>  <REMARK>
 VINA RESULT:      -6.0      1.511      2.388
  Name = 
  12 active torsions:
  status: ('A' for Active; 'I' for Inactive)
    1  A    between atoms: C_2  and  O_22
    2  A    between atoms: C_3  and  C_18
    3  A    between atoms: C_4  and  C_6
    4  A    between atoms: C_5  and  C_18
    5  A    between atoms: C_6  and  C_8
    6  A    between atoms: O_7  and  C_9
    7  A    between atoms: O_7  and  C_14
    8  A    between atoms: C_9  and  C_16
    9  A    between atoms: O_10  and  C_19
   10  A    between atoms: C_16  and  C_30
   11  A    between atoms: C_23  and  O_36
   12  A    between atoms: C_30  and  O_36
                            x       y       z     vdW  Elec       q    Type
                         _______ _______ _______ _____ _____    ______ ____

>  <TORSDO>
F 12

$$$$
=
 OpenBabel11042421063D

 36 38  0  0  1  0  0  0  0  0999 V2000
  161.9570  204.2480  148.3700 C   0  0  2  0  0  3  0  0  0  0  0  0
  161.1230  202.9910  148.5860 C   0  0  0  0  0  0  0  0  0  0  0  0
  161.0680  203.7180  150.9510 C   0  0  0  0  0  2  0  0  0  0  0  0
  161.4800  205.4770  149.1800 C   0  0  2  0  0  3  0  0  0  0  0  0
  160.7270  205.1270  150.4880 C   0  0  2  0  0  3  0  0  0  0  0  0
  160.7290  202.7410  149.8570 C   0  0  0  0  0  0  0  0  0  0  0  0
  159.9930  201.6560  150.1790 F   0  0  0  0  0  0  0  0  0  0  0  0
  160.8320  202.0360  147.4440 C   0  0  0  0  0  0  0  0  0  0  0  0
  159.5080  202.0750  147.0710 F   0  0  0  0  0  0  0  0  0  0  0  0
  161.5810  202.3970  146.3490 F   0  0  0  0  0  0  0  0  0  0  0  0
  161.2060  200.6200  147.8360 C   0  0  0  0  0  3  0  0  0  0  0  0
  162.3280  200.6040  148.6330 F   0  0  0  0  0  0  0  0  0  0  0  0
  161.4360  199.8540  146.7110 F   0  0  0  0  0  0  0  0  0  0  0  0
  160.8130  206.4600  148.4190 O   0  0  0  0  0  0  0  0  0  0  0  0
  161.4930  207.6740  148.5480 C   0  0  0  0  0  1  0  0  0  0  0  0
  162.5000  204.5200  146.9980 C   0  0  0  0  0  0  0  0  0  0  0  0
  163.7290  204.3650  146.7540 O   0  0  0  0  0  0  0  0  0  0  0  0
  161.6200  204.9890  145.9320 C   0  0  0  0  0  0  0  0  0  0  0  0
  160.8510  205.7610  143.8740 N   0  0  0  0  0  0  0  0  0  0  0  0
  159.9150  205.8370  144.9160 N   0  0  0  0  0  0  0  0  0  0  0  0
  160.4280  205.4110  146.1340 N   0  0  0  0  0  2  0  0  0  0  0  0
  162.0150  205.1150  144.5030 C   0  0  0  0  0  3  0  0  0  0  0  0
  161.0340  206.0560  151.4840 O   0  0  0  0  0  0  0  0  0  0  0  0
  161.2050  205.3020  152.6570 C   0  0  0  0  0  2  0  0  0  0  0  0
  161.2210  206.2330  153.8570 C   0  0  0  0  0  2  0  0  0  0  0  0
  161.2070  207.6890  153.4070 C   0  0  0  0  0  2  0  0  0  0  0  0
  161.0540  208.5790  154.5140 O   0  0  0  0  0  0  0  0  0  0  0  0
  158.4560  210.9520  155.7040 C   0  0  0  0  0  3  0  0  0  0  0  0
  158.2820  211.7500  154.5600 C   0  0  0  0  0  0  0  0  0  0  0  0
  160.1310  209.6290  154.5590 C   0  0  0  0  0  0  0  0  0  0  0  0
  158.9040  212.3040  152.1750 C   0  0  0  0  0  1  0  0  0  0  0  0
  159.9700  210.4290  153.4250 C   0  0  0  0  0  3  0  0  0  0  0  0
  159.0530  211.4820  153.4160 C   0  0  0  0  0  0  0  0  0  0  0  0
  159.3710  209.8990  155.6990 C   0  0  0  0  0  3  0  0  0  0  0  0
  157.3320  212.7720  154.5120 O   0  0  0  0  0  0  0  0  0  0  0  0
  155.9690  212.5640  154.8570 C   0  0  0  0  0  1  0  0  0  0  0  0
  1 16  1  6  0  0  0
  1  2  1  0  0  0  0
  1  4  1  0  0  0  0
  2  6  2  0  0  0  0
  4 14  1  6  0  0  0
  4  5  1  0  0  0  0
  5  3  1  0  0  0  0
  5 23  1  1  0  0  0
  6  7  1  0  0  0  0
  6  3  1  0  0  0  0
  8 11  1  0  0  0  0
  8  2  1  0  0  0  0
  9  8  1  0  0  0  0
 10  8  1  0  0  0  0
 11 12  1  0  0  0  0
 13 11  1  0  0  0  0
 14 15  1  0  0  0  0
 17 16  2  0  0  0  0
 18 21  1  0  0  0  0
 18 16  1  0  0  0  0
 19 22  1  0  0  0  0
 19 20  2  0  0  0  0
 20 21  1  0  0  0  0
 22 18  2  0  0  0  0
 23 24  1  0  0  0  0
 24 25  1  0  0  0  0
 26 25  1  0  0  0  0
 26 27  1  0  0  0  0
 27 30  1  0  0  0  0
 29 28  2  0  0  0  0
 30 34  2  0  0  0  0
 31 33  1  0  0  0  0
 32 30  1  0  0  0  0
 33 32  2  0  0  0  0
 33 29  1  0  0  0  0
 34 28  1  0  0  0  0
 35 29  1  0  0  0  0
 35 36  1  0  0  0  0
M  END
>  <MODEL>
9

>  <REMARK>
 VINA RESULT:      -6.0      5.300      9.602
  Name = 
  12 active torsions:
  status: ('A' for Active; 'I' for Inactive)
    1  A    between atoms: C_2  and  O_22
    2  A    between atoms: C_3  and  C_18
    3  A    between atoms: C_4  and  C_6
    4  A    between atoms: C_5  and  C_18
    5  A    between atoms: C_6  and  C_8
    6  A    between atoms: O_7  and  C_9
    7  A    between atoms: O_7  and  C_14
    8  A    between atoms: C_9  and  C_16
    9  A    between atoms: O_10  and  C_19
   10  A    between atoms: C_16  and  C_30
   11  A    between atoms: C_23  and  O_36
   12  A    between atoms: C_30  and  O_36
                            x       y       z     vdW  Elec       q    Type
                         _______ _______ _______ _____ _____    ______ ____

>  <TORSDO>
F 12

$$$$
