=
 OpenBabel11042421323D

 27 29  0  0  1  0  0  0  0  0999 V2000
  160.4850  206.3890  148.9270 C   0  0  1  0  0  3  0  0  0  0  0  0
  162.0610  206.1400  145.8790 O   0  0  0  0  0  0  0  0  0  0  0  0
  160.2270  205.1530  149.6180 C   0  0  2  0  0  3  0  0  0  0  0  0
  160.7200  206.3480  150.4380 C   0  0  0  0  0  0  0  0  0  0  0  0
  161.3410  204.1040  149.5220 C   0  0  2  0  0  3  0  0  0  0  0  0
  161.6180  204.1340  147.0730 C   0  0  0  0  0  0  0  0  0  0  0  0
  161.8350  206.4760  148.2110 C   0  0  0  0  0  2  0  0  0  0  0  0
  161.8470  205.6020  146.9970 C   0  0  0  0  0  0  0  0  0  0  0  0
  161.3820  203.5040  148.1890 N   0  0  0  0  0  0  0  0  0  0  0  0
  161.0830  206.9060  151.5860 C   0  0  0  0  0  3  0  0  0  0  0  0
  161.6290  203.3390  145.8140 C   0  0  0  0  0  1  0  0  0  0  0  0
  160.6180  201.7790  150.1710 N   0  0  0  0  0  1  0  0  0  0  0  0
  161.1460  203.0430  150.5540 C   0  0  0  0  0  0  0  0  0  0  0  0
  161.4610  203.2520  151.7550 O   0  0  0  0  0  0  0  0  0  0  0  0
  162.5570  208.6920  151.0580 O   0  0  0  0  0  0  0  0  0  0  0  0
  161.5240  208.3020  151.6690 C   0  0  0  0  0  0  0  0  0  0  0  0
  160.7440  209.2430  152.4750 C   0  0  0  0  0  3  0  0  0  0  0  0
  160.8620  210.5200  152.3080 N   0  0  0  0  0  0  0  0  0  0  0  0
  160.0850  211.4520  153.1080 C   0  0  0  0  0  3  0  0  0  0  0  0
  155.5030  213.1070  154.2520 O   0  0  0  0  0  0  0  0  0  0  0  0
  156.3890  212.5130  154.9230 C   0  0  0  0  0  0  0  0  0  0  0  0
  158.0760  212.9430  153.1110 C   0  0  0  0  0  2  0  0  0  0  0  0
  157.7060  212.3340  154.3870 N   0  0  0  0  0  0  0  0  0  0  0  0
  158.9030  211.9600  152.2870 C   0  0  0  0  0  2  0  0  0  0  0  0
  158.7560  211.7410  155.2110 C   0  0  0  0  0  2  0  0  0  0  0  0
  156.0750  212.0260  156.1860 O   0  0  0  0  0  1  0  0  0  0  0  0
  159.5790  210.7640  154.3770 C   0  0  0  0  0  2  0  0  0  0  0  0
  1  7  1  6  0  0  0
  1  3  1  0  0  0  0
  1  4  1  0  0  0  0
  2  8  2  0  0  0  0
  3  4  1  1  0  0  0
  4 10  2  0  0  0  0
  5  3  1  0  0  0  0
  5 13  1  1  0  0  0
  6  9  2  0  0  0  0
  8  6  1  0  0  0  0
  8  7  1  0  0  0  0
  9  5  1  0  0  0  0
 10 16  1  0  0  0  0
 11  6  1  0  0  0  0
 12 13  1  0  0  0  0
 13 14  2  0  0  0  0
 15 16  2  0  0  0  0
 16 17  1  0  0  0  0
 18 17  2  0  0  0  0
 18 19  1  0  0  0  0
 19 27  1  0  0  0  0
 20 21  2  0  0  0  0
 21 26  1  0  0  0  0
 22 23  1  0  0  0  0
 23 21  1  0  0  0  0
 23 25  1  0  0  0  0
 24 19  1  0  0  0  0
 24 22  1  0  0  0  0
 27 25  1  0  0  0  0
M  END
>  <MODEL>
1

>  <REMARK>
 VINA RESULT:      -8.3      0.000      0.000
  Name = 
  4 active torsions:
  status: ('A' for Active; 'I' for Inactive)
    1  A    between atoms: C_4  and  C_11
    2  A    between atoms: C_5  and  N_27
    3  A    between atoms: C_14  and  C_20
    4  A    between atoms: C_14  and  C_24
                            x       y       z     vdW  Elec       q    Type
                         _______ _______ _______ _____ _____    ______ ____

>  <TORSDO>
F 4

$$$$
=
 OpenBabel11042421323D

 27 29  0  0  1  0  0  0  0  0999 V2000
  160.9370  207.1780  148.4050 C   0  0  1  0  0  3  0  0  0  0  0  0
  162.4930  206.0940  145.5340 O   0  0  0  0  0  0  0  0  0  0  0  0
  160.4580  206.1560  149.3000 C   0  0  2  0  0  3  0  0  0  0  0  0
  161.1380  207.3860  149.9080 C   0  0  0  0  0  0  0  0  0  0  0  0
  161.3760  204.9370  149.4520 C   0  0  2  0  0  3  0  0  0  0  0  0
  161.6910  204.4550  147.0560 C   0  0  0  0  0  0  0  0  0  0  0  0
  162.2920  206.9000  147.7510 C   0  0  0  0  0  2  0  0  0  0  0  0
  162.1710  205.8220  146.7210 C   0  0  0  0  0  0  0  0  0  0  0  0
  161.3330  204.0970  148.2570 N   0  0  0  0  0  0  0  0  0  0  0  0
  161.5750  208.0830  150.9490 C   0  0  0  0  0  3  0  0  0  0  0  0
  161.5840  203.4440  145.9670 C   0  0  0  0  0  1  0  0  0  0  0  0
  161.2000  204.6740  151.9520 N   0  0  0  0  0  1  0  0  0  0  0  0
  160.9850  204.1390  150.6520 C   0  0  0  0  0  0  0  0  0  0  0  0
  160.4530  203.0050  150.5210 O   0  0  0  0  0  0  0  0  0  0  0  0
  163.0810  209.7790  151.6530 O   0  0  0  0  0  0  0  0  0  0  0  0
  162.2490  209.3760  150.7940 C   0  0  0  0  0  0  0  0  0  0  0  0
  161.9420  210.1970  149.6210 C   0  0  0  0  0  3  0  0  0  0  0  0
  161.9560  211.4890  149.6900 N   0  0  0  0  0  0  0  0  0  0  0  0
  161.6530  212.3020  148.5240 C   0  0  0  0  0  3  0  0  0  0  0  0
  163.0050  213.5260  143.8650 O   0  0  0  0  0  1  0  0  0  0  0  0
  161.9860  212.9540  144.3360 C   0  0  0  0  0  0  0  0  0  0  0  0
  162.6560  213.6340  146.6600 C   0  0  0  0  0  2  0  0  0  0  0  0
  161.7680  212.9110  145.7520 N   0  0  0  0  0  0  0  0  0  0  0  0
  162.9550  212.7760  147.8860 C   0  0  0  0  0  2  0  0  0  0  0  0
  160.5340  212.3420  146.2850 C   0  0  0  0  0  2  0  0  0  0  0  0
  161.0780  212.3570  143.4700 O   0  0  0  0  0  0  0  0  0  0  0  0
  160.8430  211.4900  147.5120 C   0  0  0  0  0  2  0  0  0  0  0  0
  1  7  1  6  0  0  0
  1  3  1  0  0  0  0
  1  4  1  0  0  0  0
  2  8  2  0  0  0  0
  3  5  1  0  0  0  0
  3  4  1  1  0  0  0
  4 10  2  0  0  0  0
  5 13  1  1  0  0  0
  6  9  2  0  0  0  0
  8  6  1  0  0  0  0
  8  7  1  0  0  0  0
  9  5  1  0  0  0  0
 11  6  1  0  0  0  0
 13 12  1  0  0  0  0
 14 13  2  0  0  0  0
 16 10  1  0  0  0  0
 16 15  2  0  0  0  0
 17 18  2  0  0  0  0
 17 16  1  0  0  0  0
 19 18  1  0  0  0  0
 20 21  1  0  0  0  0
 21 23  1  0  0  0  0
 22 24  1  0  0  0  0
 23 25  1  0  0  0  0
 23 22  1  0  0  0  0
 24 19  1  0  0  0  0
 25 27  1  0  0  0  0
 26 21  2  0  0  0  0
 27 19  1  0  0  0  0
M  END
>  <MODEL>
2

>  <REMARK>
 VINA RESULT:      -8.0      3.974      5.741
  Name = 
  4 active torsions:
  status: ('A' for Active; 'I' for Inactive)
    1  A    between atoms: C_4  and  C_11
    2  A    between atoms: C_5  and  N_27
    3  A    between atoms: C_14  and  C_20
    4  A    between atoms: C_14  and  C_24
                            x       y       z     vdW  Elec       q    Type
                         _______ _______ _______ _____ _____    ______ ____

>  <TORSDO>
F 4

$$$$
=
 OpenBabel11042421323D

 27 29  0  0  1  0  0  0  0  0999 V2000
  160.4430  205.0100  149.3140 C   0  0  1  0  0  3  0  0  0  0  0  0
  161.8590  206.3510  146.4800 O   0  0  0  0  0  0  0  0  0  0  0  0
  160.2450  203.5840  149.3190 C   0  0  2  0  0  3  0  0  0  0  0  0
  160.7590  204.2440  150.6010 C   0  0  0  0  0  0  0  0  0  0  0  0
  161.3720  202.7640  148.6790 C   0  0  2  0  0  3  0  0  0  0  0  0
  161.5170  204.0010  146.5520 C   0  0  0  0  0  0  0  0  0  0  0  0
  161.7510  205.4930  148.6830 C   0  0  0  0  0  2  0  0  0  0  0  0
  161.7140  205.3260  147.1970 C   0  0  0  0  0  0  0  0  0  0  0  0
  161.3520  202.8960  147.2230 N   0  0  0  0  0  0  0  0  0  0  0  0
  161.1730  204.1840  151.8610 C   0  0  0  0  0  3  0  0  0  0  0  0
  161.4760  203.9250  145.0650 C   0  0  0  0  0  1  0  0  0  0  0  0
  161.5130  200.3170  148.0970 N   0  0  0  0  0  1  0  0  0  0  0  0
  161.2520  201.3270  149.0640 C   0  0  0  0  0  0  0  0  0  0  0  0
  160.9370  201.0030  150.2390 O   0  0  0  0  0  0  0  0  0  0  0  0
  161.4630  205.4390  153.8560 O   0  0  0  0  0  0  0  0  0  0  0  0
  161.5920  205.3780  152.6020 C   0  0  0  0  0  0  0  0  0  0  0  0
  162.1650  206.5040  151.8620 C   0  0  0  0  0  3  0  0  0  0  0  0
  161.4900  207.5910  151.6750 N   0  0  0  0  0  0  0  0  0  0  0  0
  162.0620  208.7080  150.9410 C   0  0  0  0  0  3  0  0  0  0  0  0
  161.3890  212.0130  147.2450 O   0  0  0  0  0  0  0  0  0  0  0  0
  161.5080  212.1400  148.4930 C   0  0  0  0  0  0  0  0  0  0  0  0
  162.2780  209.7550  148.6800 C   0  0  0  0  0  2  0  0  0  0  0  0
  161.8970  211.0220  149.3010 N   0  0  0  0  0  0  0  0  0  0  0  0
  161.6840  208.5920  149.4670 C   0  0  0  0  0  2  0  0  0  0  0  0
  162.1380  211.2020  150.7300 C   0  0  0  0  0  2  0  0  0  0  0  0
  161.2530  213.3740  149.0800 O   0  0  0  0  0  1  0  0  0  0  0  0
  161.5440  210.0320  151.5070 C   0  0  0  0  0  2  0  0  0  0  0  0
  1  7  1  6  0  0  0
  1  3  1  0  0  0  0
  1  4  1  0  0  0  0
  2  8  2  0  0  0  0
  3  4  1  1  0  0  0
  4 10  2  0  0  0  0
  5 13  1  6  0  0  0
  5  3  1  0  0  0  0
  6  8  1  0  0  0  0
  6  9  2  0  0  0  0
  8  7  1  0  0  0  0
  9  5  1  0  0  0  0
 10 16  1  0  0  0  0
 11  6  1  0  0  0  0
 12 13  1  0  0  0  0
 13 14  2  0  0  0  0
 16 15  2  0  0  0  0
 17 16  1  0  0  0  0
 18 17  2  0  0  0  0
 19 27  1  0  0  0  0
 19 18  1  0  0  0  0
 20 21  2  0  0  0  0
 21 26  1  0  0  0  0
 21 23  1  0  0  0  0
 22 23  1  0  0  0  0
 22 24  1  0  0  0  0
 23 25  1  0  0  0  0
 24 19  1  0  0  0  0
 25 27  1  0  0  0  0
M  END
>  <MODEL>
3

>  <REMARK>
 VINA RESULT:      -8.0      3.680      4.319
  Name = 
  4 active torsions:
  status: ('A' for Active; 'I' for Inactive)
    1  A    between atoms: C_4  and  C_11
    2  A    between atoms: C_5  and  N_27
    3  A    between atoms: C_14  and  C_20
    4  A    between atoms: C_14  and  C_24
                            x       y       z     vdW  Elec       q    Type
                         _______ _______ _______ _____ _____    ______ ____

>  <TORSDO>
F 4

$$$$
=
 OpenBabel11042421323D

 27 29  0  0  1  0  0  0  0  0999 V2000
  160.4460  206.0010  149.2170 C   0  0  1  0  0  3  0  0  0  0  0  0
  161.7720  206.1150  146.0450 O   0  0  0  0  0  0  0  0  0  0  0  0
  160.2390  204.6910  149.7790 C   0  0  2  0  0  3  0  0  0  0  0  0
  160.8010  205.7850  150.6900 C   0  0  0  0  0  0  0  0  0  0  0  0
  161.3380  203.6660  149.4730 C   0  0  2  0  0  3  0  0  0  0  0  0
  161.4180  203.9820  147.0300 C   0  0  0  0  0  0  0  0  0  0  0  0
  161.7350  206.1760  148.4110 C   0  0  0  0  0  2  0  0  0  0  0  0
  161.6460  205.4490  147.1070 C   0  0  0  0  0  0  0  0  0  0  0  0
  161.2690  203.2250  148.0810 N   0  0  0  0  0  0  0  0  0  0  0  0
  161.2580  206.2080  151.8620 C   0  0  0  0  0  3  0  0  0  0  0  0
  161.3250  203.3380  145.6900 C   0  0  0  0  0  1  0  0  0  0  0  0
  160.9950  201.1970  149.8430 N   0  0  0  0  0  1  0  0  0  0  0  0
  161.2220  202.4910  150.3870 C   0  0  0  0  0  0  0  0  0  0  0  0
  161.3400  202.6350  151.6330 O   0  0  0  0  0  0  0  0  0  0  0  0
  162.4640  208.1550  151.2340 O   0  0  0  0  0  0  0  0  0  0  0  0
  161.7100  207.5880  152.0720 C   0  0  0  0  0  0  0  0  0  0  0  0
  161.2690  208.3010  153.2710 C   0  0  0  0  0  3  0  0  0  0  0  0
  160.6050  209.4080  153.1820 N   0  0  0  0  0  0  0  0  0  0  0  0
  160.1680  210.1140  154.3750 C   0  0  0  0  0  3  0  0  0  0  0  0
  160.4260  214.3700  156.9940 O   0  0  0  0  0  1  0  0  0  0  0  0
  159.4790  213.7880  156.4000 C   0  0  0  0  0  0  0  0  0  0  0  0
  160.8770  211.7140  156.1620 C   0  0  0  0  0  2  0  0  0  0  0  0
  159.6490  212.4600  155.8920 N   0  0  0  0  0  0  0  0  0  0  0  0
  161.3170  210.9670  154.9070 C   0  0  0  0  0  2  0  0  0  0  0  0
  158.5160  211.7520  155.3010 C   0  0  0  0  0  2  0  0  0  0  0  0
  158.2680  214.4520  156.2350 O   0  0  0  0  0  0  0  0  0  0  0  0
  158.9670  211.0050  154.0500 C   0  0  0  0  0  2  0  0  0  0  0  0
  1  7  1  6  0  0  0
  1  3  1  0  0  0  0
  1  4  1  0  0  0  0
  2  8  2  0  0  0  0
  3  4  1  1  0  0  0
  4 10  2  0  0  0  0
  5  3  1  0  0  0  0
  5 13  1  1  0  0  0
  6  8  1  0  0  0  0
  6  9  2  0  0  0  0
  8  7  1  0  0  0  0
  9  5  1  0  0  0  0
 10 16  1  0  0  0  0
 11  6  1  0  0  0  0
 12 13  1  0  0  0  0
 13 14  2  0  0  0  0
 15 16  2  0  0  0  0
 16 17  1  0  0  0  0
 18 17  2  0  0  0  0
 18 19  1  0  0  0  0
 19 24  1  0  0  0  0
 21 20  1  0  0  0  0
 23 22  1  0  0  0  0
 23 21  1  0  0  0  0
 24 22  1  0  0  0  0
 25 23  1  0  0  0  0
 26 21  2  0  0  0  0
 27 19  1  0  0  0  0
 27 25  1  0  0  0  0
M  END
>  <MODEL>
4

>  <REMARK>
 VINA RESULT:      -7.8      1.570      2.003
  Name = 
  4 active torsions:
  status: ('A' for Active; 'I' for Inactive)
    1  A    between atoms: C_4  and  C_11
    2  A    between atoms: C_5  and  N_27
    3  A    between atoms: C_14  and  C_20
    4  A    between atoms: C_14  and  C_24
                            x       y       z     vdW  Elec       q    Type
                         _______ _______ _______ _____ _____    ______ ____

>  <TORSDO>
F 4

$$$$
=
 OpenBabel11042421323D

 27 29  0  0  1  0  0  0  0  0999 V2000
  160.5300  203.8540  148.4950 C   0  0  1  0  0  3  0  0  0  0  0  0
  162.1230  206.3810  146.7900 O   0  0  0  0  0  0  0  0  0  0  0  0
  160.1940  202.6780  147.7330 C   0  0  2  0  0  3  0  0  0  0  0  0
  160.7440  202.4870  149.1490 C   0  0  0  0  0  0  0  0  0  0  0  0
  161.2490  202.2380  146.7110 C   0  0  2  0  0  3  0  0  0  0  0  0
  161.5540  204.4110  145.5890 C   0  0  0  0  0  0  0  0  0  0  0  0
  161.8900  204.4790  148.1790 C   0  0  0  0  0  2  0  0  0  0  0  0
  161.8660  205.1490  146.8420 C   0  0  0  0  0  0  0  0  0  0  0  0
  161.2700  203.1390  145.5600 N   0  0  0  0  0  0  0  0  0  0  0  0
  161.1260  201.7150  150.1590 C   0  0  0  0  0  3  0  0  0  0  0  0
  161.5350  205.1580  144.3010 C   0  0  0  0  0  1  0  0  0  0  0  0
  160.1890  200.6150  145.1010 N   0  0  0  0  0  1  0  0  0  0  0  0
  160.9830  200.8400  146.2600 C   0  0  0  0  0  0  0  0  0  0  0  0
  161.4680  199.8610  146.8860 O   0  0  0  0  0  0  0  0  0  0  0  0
  162.6020  201.7180  152.0190 O   0  0  0  0  0  0  0  0  0  0  0  0
  161.6440  202.2720  151.4130 C   0  0  0  0  0  0  0  0  0  0  0  0
  161.0300  203.4850  151.9540 C   0  0  0  0  0  3  0  0  0  0  0  0
  161.6080  204.6360  151.8300 N   0  0  0  0  0  0  0  0  0  0  0  0
  160.9960  205.8400  152.3670 C   0  0  0  0  0  3  0  0  0  0  0  0
  161.5370  209.7260  155.4730 O   0  0  0  0  0  1  0  0  0  0  0  0
  161.4260  209.6430  154.2210 C   0  0  0  0  0  0  0  0  0  0  0  0
  160.7280  207.2370  154.4250 C   0  0  0  0  0  2  0  0  0  0  0  0
  161.0780  208.3960  153.6050 N   0  0  0  0  0  0  0  0  0  0  0  0
  161.3640  205.9790  153.8420 C   0  0  0  0  0  2  0  0  0  0  0  0
  160.8450  208.3310  152.1650 C   0  0  0  0  0  2  0  0  0  0  0  0
  161.6500  210.7710  153.4390 O   0  0  0  0  0  0  0  0  0  0  0  0
  161.4800  207.0680  151.5940 C   0  0  0  0  0  2  0  0  0  0  0  0
  1  7  1  6  0  0  0
  1  4  1  0  0  0  0
  2  8  2  0  0  0  0
  3  1  1  0  0  0  0
  3  4  1  1  0  0  0
  4 10  2  0  0  0  0
  5 13  1  6  0  0  0
  5  3  1  0  0  0  0
  6  8  1  0  0  0  0
  8  7  1  0  0  0  0
  9  6  2  0  0  0  0
  9  5  1  0  0  0  0
 10 16  1  0  0  0  0
 11  6  1  0  0  0  0
 12 13  1  0  0  0  0
 13 14  2  0  0  0  0
 16 17  1  0  0  0  0
 16 15  2  0  0  0  0
 18 17  2  0  0  0  0
 18 19  1  0  0  0  0
 19 24  1  0  0  0  0
 21 20  1  0  0  0  0
 23 21  1  0  0  0  0
 23 22  1  0  0  0  0
 24 22  1  0  0  0  0
 25 23  1  0  0  0  0
 26 21  2  0  0  0  0
 27 25  1  0  0  0  0
 27 19  1  0  0  0  0
M  END
>  <MODEL>
5

>  <REMARK>
 VINA RESULT:      -7.7      3.145      4.921
  Name = 
  4 active torsions:
  status: ('A' for Active; 'I' for Inactive)
    1  A    between atoms: C_4  and  C_11
    2  A    between atoms: C_5  and  N_27
    3  A    between atoms: C_14  and  C_20
    4  A    between atoms: C_14  and  C_24
                            x       y       z     vdW  Elec       q    Type
                         _______ _______ _______ _____ _____    ______ ____

>  <TORSDO>
F 4

$$$$
=
 OpenBabel11042421323D

 27 29  0  0  1  0  0  0  0  0999 V2000
  162.0330  203.7960  148.3010 C   0  0  1  0  0  3  0  0  0  0  0  0
  160.8240  200.5770  148.4090 O   0  0  0  0  0  0  0  0  0  0  0  0
  162.0280  204.4410  147.0130 C   0  0  2  0  0  3  0  0  0  0  0  0
  161.6110  205.2660  148.2330 C   0  0  0  0  0  0  0  0  0  0  0  0
  160.7970  204.1560  146.1440 C   0  0  2  0  0  3  0  0  0  0  0  0
  160.8300  201.6970  146.3130 C   0  0  0  0  0  0  0  0  0  0  0  0
  160.8070  202.9350  148.6130 C   0  0  0  0  0  2  0  0  0  0  0  0
  160.8220  201.6800  147.8000 C   0  0  0  0  0  0  0  0  0  0  0  0
  160.8370  202.7950  145.6110 N   0  0  0  0  0  0  0  0  0  0  0  0
  161.1920  206.3940  148.7920 C   0  0  0  0  0  3  0  0  0  0  0  0
  160.8620  200.4010  145.5800 C   0  0  0  0  0  1  0  0  0  0  0  0
  160.0820  206.3960  145.2410 N   0  0  0  0  0  1  0  0  0  0  0  0
  160.7130  205.1400  145.0250 C   0  0  0  0  0  0  0  0  0  0  0  0
  161.2090  204.8740  143.8980 O   0  0  0  0  0  0  0  0  0  0  0  0
  160.4830  205.5310  150.8880 O   0  0  0  0  0  0  0  0  0  0  0  0
  160.9450  206.5060  150.2330 C   0  0  0  0  0  0  0  0  0  0  0  0
  161.2440  207.7720  150.9050 C   0  0  0  0  0  3  0  0  0  0  0  0
  160.9060  207.9670  152.1380 N   0  0  0  0  0  0  0  0  0  0  0  0
  161.2060  209.2240  152.8040 C   0  0  0  0  0  3  0  0  0  0  0  0
  159.3090  213.2620  155.0710 O   0  0  0  0  0  0  0  0  0  0  0  0
  160.0310  212.3130  155.4790 C   0  0  0  0  0  0  0  0  0  0  0  0
  160.4520  211.5900  153.1100 C   0  0  0  0  0  2  0  0  0  0  0  0
  160.5990  211.3820  154.5490 N   0  0  0  0  0  0  0  0  0  0  0  0
  160.1530  210.2610  152.4220 C   0  0  0  0  0  2  0  0  0  0  0  0
  161.5200  210.3510  155.0180 C   0  0  0  0  0  2  0  0  0  0  0  0
  160.2660  212.1730  156.8420 O   0  0  0  0  0  1  0  0  0  0  0  0
  161.2160  209.0280  154.3210 C   0  0  0  0  0  2  0  0  0  0  0  0
  1  7  1  6  0  0  0
  3  4  1  1  0  0  0
  3  1  1  0  0  0  0
  4  1  1  0  0  0  0
  4 10  2  0  0  0  0
  5 13  1  6  0  0  0
  5  3  1  0  0  0  0
  6  8  1  0  0  0  0
  8  2  2  0  0  0  0
  8  7  1  0  0  0  0
  9  5  1  0  0  0  0
  9  6  2  0  0  0  0
 10 16  1  0  0  0  0
 11  6  1  0  0  0  0
 13 12  1  0  0  0  0
 14 13  2  0  0  0  0
 16 15  2  0  0  0  0
 16 17  1  0  0  0  0
 17 18  2  0  0  0  0
 18 19  1  0  0  0  0
 19 27  1  0  0  0  0
 20 21  2  0  0  0  0
 21 26  1  0  0  0  0
 22 23  1  0  0  0  0
 23 25  1  0  0  0  0
 23 21  1  0  0  0  0
 24 19  1  0  0  0  0
 24 22  1  0  0  0  0
 27 25  1  0  0  0  0
M  END
>  <MODEL>
6

>  <REMARK>
 VINA RESULT:      -7.6      2.337      3.882
  Name = 
  4 active torsions:
  status: ('A' for Active; 'I' for Inactive)
    1  A    between atoms: C_4  and  C_11
    2  A    between atoms: C_5  and  N_27
    3  A    between atoms: C_14  and  C_20
    4  A    between atoms: C_14  and  C_24
                            x       y       z     vdW  Elec       q    Type
                         _______ _______ _______ _____ _____    ______ ____

>  <TORSDO>
F 4

$$$$
=
 OpenBabel11042421323D

 27 29  0  0  1  0  0  0  0  0999 V2000
  162.0400  204.7880  151.2880 C   0  0  1  0  0  3  0  0  0  0  0  0
  160.7200  201.6280  150.9550 O   0  0  0  0  0  0  0  0  0  0  0  0
  162.0980  205.5890  150.0920 C   0  0  2  0  0  3  0  0  0  0  0  0
  161.6710  206.2690  151.3960 C   0  0  0  0  0  0  0  0  0  0  0  0
  160.8870  205.4610  149.1610 C   0  0  2  0  0  3  0  0  0  0  0  0
  160.8310  203.0020  149.0190 C   0  0  0  0  0  0  0  0  0  0  0  0
  160.7770  203.9410  151.4550 C   0  0  0  0  0  2  0  0  0  0  0  0
  160.7740  202.7980  150.4910 C   0  0  0  0  0  0  0  0  0  0  0  0
  160.8970  204.1780  148.4610 N   0  0  0  0  0  0  0  0  0  0  0  0
  161.2720  207.3330  152.0810 C   0  0  0  0  0  3  0  0  0  0  0  0
  160.8420  201.8080  148.1280 C   0  0  0  0  0  1  0  0  0  0  0  0
  160.4570  206.3320  146.8360 N   0  0  0  0  0  1  0  0  0  0  0  0
  160.8710  206.5810  148.1740 C   0  0  0  0  0  0  0  0  0  0  0  0
  161.2060  207.7450  148.5200 O   0  0  0  0  0  0  0  0  0  0  0  0
  161.1870  206.2140  154.1740 O   0  0  0  0  0  0  0  0  0  0  0  0
  160.9830  207.2730  153.5170 C   0  0  0  0  0  0  0  0  0  0  0  0
  160.4540  208.4640  154.1830 C   0  0  0  0  0  3  0  0  0  0  0  0
  160.4560  209.6150  153.5910 N   0  0  0  0  0  0  0  0  0  0  0  0
  159.9290  210.7960  154.2530 C   0  0  0  0  0  3  0  0  0  0  0  0
  155.8590  213.5610  155.1650 O   0  0  0  0  0  0  0  0  0  0  0  0
  156.6170  212.8840  155.9100 C   0  0  0  0  0  0  0  0  0  0  0  0
  158.2940  212.6780  154.0500 C   0  0  0  0  0  2  0  0  0  0  0  0
  157.8440  212.3470  155.4010 N   0  0  0  0  0  0  0  0  0  0  0  0
  158.8580  211.4330  153.3720 C   0  0  0  0  0  2  0  0  0  0  0  0
  158.7680  211.6570  156.2970 C   0  0  0  0  0  2  0  0  0  0  0  0
  156.2480  212.6570  157.2310 O   0  0  0  0  0  1  0  0  0  0  0  0
  159.3290  210.4170  155.6080 C   0  0  0  0  0  2  0  0  0  0  0  0
  1  4  1  0  0  0  0
  1  7  1  6  0  0  0
  3  1  1  0  0  0  0
  3  4  1  1  0  0  0
  4 10  2  0  0  0  0
  5 13  1  6  0  0  0
  5  3  1  0  0  0  0
  6  8  1  0  0  0  0
  8  2  2  0  0  0  0
  8  7  1  0  0  0  0
  9  6  2  0  0  0  0
  9  5  1  0  0  0  0
 10 16  1  0  0  0  0
 11  6  1  0  0  0  0
 12 13  1  0  0  0  0
 13 14  2  0  0  0  0
 16 15  2  0  0  0  0
 16 17  1  0  0  0  0
 18 17  2  0  0  0  0
 18 19  1  0  0  0  0
 19 27  1  0  0  0  0
 20 21  2  0  0  0  0
 21 26  1  0  0  0  0
 22 23  1  0  0  0  0
 23 21  1  0  0  0  0
 23 25  1  0  0  0  0
 24 22  1  0  0  0  0
 24 19  1  0  0  0  0
 27 25  1  0  0  0  0
M  END
>  <MODEL>
7

>  <REMARK>
 VINA RESULT:      -7.5      1.720      2.997
  Name = 
  4 active torsions:
  status: ('A' for Active; 'I' for Inactive)
    1  A    between atoms: C_4  and  C_11
    2  A    between atoms: C_5  and  N_27
    3  A    between atoms: C_14  and  C_20
    4  A    between atoms: C_14  and  C_24
                            x       y       z     vdW  Elec       q    Type
                         _______ _______ _______ _____ _____    ______ ____

>  <TORSDO>
F 4

$$$$
=
 OpenBabel11042421323D

 27 29  0  0  1  0  0  0  0  0999 V2000
  162.5630  207.0590  151.1890 C   0  0  1  0  0  3  0  0  0  0  0  0
  162.2840  208.5200  148.0880 O   0  0  0  0  0  0  0  0  0  0  0  0
  162.3350  207.9160  152.3250 C   0  0  2  0  0  3  0  0  0  0  0  0
  161.7530  206.5000  152.3620 C   0  0  0  0  0  0  0  0  0  0  0  0
  161.1990  208.9320  152.1610 C   0  0  2  0  0  3  0  0  0  0  0  0
  161.9090  209.8800  150.0000 C   0  0  0  0  0  0  0  0  0  0  0  0
  161.6310  207.2830  149.9970 C   0  0  0  0  0  2  0  0  0  0  0  0
  161.9590  208.5670  149.3030 C   0  0  0  0  0  0  0  0  0  0  0  0
  161.5900  210.0120  151.2560 N   0  0  0  0  0  0  0  0  0  0  0  0
  161.0610  205.5380  152.9580 C   0  0  0  0  0  3  0  0  0  0  0  0
  162.2680  211.1100  149.2400 C   0  0  0  0  0  1  0  0  0  0  0  0
  160.8380  210.9010  153.6910 N   0  0  0  0  0  1  0  0  0  0  0  0
  160.8090  209.4930  153.4880 C   0  0  0  0  0  0  0  0  0  0  0  0
  160.4390  208.7330  154.4210 O   0  0  0  0  0  0  0  0  0  0  0  0
  160.3820  203.2620  152.9970 O   0  0  0  0  0  0  0  0  0  0  0  0
  160.8440  204.2300  152.3310 C   0  0  0  0  0  0  0  0  0  0  0  0
  161.1720  204.0620  150.9150 C   0  0  0  0  0  3  0  0  0  0  0  0
  161.2070  202.8870  150.3730 N   0  0  0  0  0  0  0  0  0  0  0  0
  161.5320  202.7230  148.9660 C   0  0  0  0  0  3  0  0  0  0  0  0
  159.7180  202.2410  144.3280 O   0  0  0  0  0  1  0  0  0  0  0  0
  160.4120  203.1330  144.8850 C   0  0  0  0  0  0  0  0  0  0  0  0
  160.8350  201.6090  146.8380 C   0  0  0  0  0  2  0  0  0  0  0  0
  160.9640  202.9120  146.1890 N   0  0  0  0  0  0  0  0  0  0  0  0
  160.5090  201.7950  148.3160 C   0  0  0  0  0  2  0  0  0  0  0  0
  161.8550  203.9050  146.7830 C   0  0  0  0  0  2  0  0  0  0  0  0
  160.6310  204.3370  144.2260 O   0  0  0  0  0  0  0  0  0  0  0  0
  161.5240  204.0810  148.2610 C   0  0  0  0  0  2  0  0  0  0  0  0
  1  7  1  6  0  0  0
  1  3  1  0  0  0  0
  1  4  1  0  0  0  0
  2  8  2  0  0  0  0
  3  4  1  1  0  0  0
  4 10  2  0  0  0  0
  5  3  1  0  0  0  0
  5 13  1  1  0  0  0
  6  9  2  0  0  0  0
  8  7  1  0  0  0  0
  8  6  1  0  0  0  0
  9  5  1  0  0  0  0
 11  6  1  0  0  0  0
 13 12  1  0  0  0  0
 13 14  2  0  0  0  0
 16 10  1  0  0  0  0
 16 15  2  0  0  0  0
 17 16  1  0  0  0  0
 18 17  2  0  0  0  0
 19 18  1  0  0  0  0
 20 21  1  0  0  0  0
 21 23  1  0  0  0  0
 22 24  1  0  0  0  0
 23 25  1  0  0  0  0
 23 22  1  0  0  0  0
 24 19  1  0  0  0  0
 25 27  1  0  0  0  0
 26 21  2  0  0  0  0
 27 19  1  0  0  0  0
M  END
>  <MODEL>
8

>  <REMARK>
 VINA RESULT:      -7.3      2.861      8.699
  Name = 
  4 active torsions:
  status: ('A' for Active; 'I' for Inactive)
    1  A    between atoms: C_4  and  C_11
    2  A    between atoms: C_5  and  N_27
    3  A    between atoms: C_14  and  C_20
    4  A    between atoms: C_14  and  C_24
                            x       y       z     vdW  Elec       q    Type
                         _______ _______ _______ _____ _____    ______ ____

>  <TORSDO>
F 4

$$$$
=
 OpenBabel11042421323D

 27 29  0  0  1  0  0  0  0  0999 V2000
  160.8500  207.0630  148.5260 C   0  0  1  0  0  3  0  0  0  0  0  0
  162.4020  206.0670  145.6220 O   0  0  0  0  0  0  0  0  0  0  0  0
  160.4150  206.0140  149.4130 C   0  0  2  0  0  3  0  0  0  0  0  0
  161.0640  207.2570  150.0290 C   0  0  0  0  0  0  0  0  0  0  0  0
  161.3730  204.8230  149.5370 C   0  0  2  0  0  3  0  0  0  0  0  0
  161.6730  204.3830  147.1310 C   0  0  0  0  0  0  0  0  0  0  0  0
  162.2050  206.8370  147.8510 C   0  0  0  0  0  2  0  0  0  0  0  0
  162.1050  205.7690  146.8090 C   0  0  0  0  0  0  0  0  0  0  0  0
  161.3410  203.9980  148.3310 N   0  0  0  0  0  0  0  0  0  0  0  0
  161.4920  207.9540  151.0740 C   0  0  0  0  0  3  0  0  0  0  0  0
  161.5830  203.3840  146.0290 C   0  0  0  0  0  1  0  0  0  0  0  0
  160.7970  202.6020  150.5770 N   0  0  0  0  0  1  0  0  0  0  0  0
  161.0230  203.9970  150.7300 C   0  0  0  0  0  0  0  0  0  0  0  0
  160.9410  204.5230  151.8720 O   0  0  0  0  0  0  0  0  0  0  0  0
  163.0810  209.6130  151.6750 O   0  0  0  0  0  0  0  0  0  0  0  0
  162.1230  209.2690  150.9280 C   0  0  0  0  0  0  0  0  0  0  0  0
  161.6240  210.1830  149.8990 C   0  0  0  0  0  3  0  0  0  0  0  0
  162.1270  211.3670  149.7580 N   0  0  0  0  0  0  0  0  0  0  0  0
  161.6300  212.2710  148.7350 C   0  0  0  0  0  3  0  0  0  0  0  0
  158.2520  212.9670  145.1090 O   0  0  0  0  0  0  0  0  0  0  0  0
  158.4550  213.5440  146.2110 C   0  0  0  0  0  0  0  0  0  0  0  0
  160.6800  212.3980  146.4240 C   0  0  0  0  0  2  0  0  0  0  0  0
  159.6360  213.2630  146.9710 N   0  0  0  0  0  0  0  0  0  0  0  0
  161.2030  211.4640  147.5120 C   0  0  0  0  0  2  0  0  0  0  0  0
  159.9170  214.0140  148.1910 C   0  0  0  0  0  2  0  0  0  0  0  0
  157.5160  214.4530  146.6860 O   0  0  0  0  0  1  0  0  0  0  0  0
  160.4430  213.0730  149.2700 C   0  0  0  0  0  2  0  0  0  0  0  0
  1  7  1  6  0  0  0
  1  3  1  0  0  0  0
  1  4  1  0  0  0  0
  2  8  2  0  0  0  0
  3  5  1  0  0  0  0
  3  4  1  1  0  0  0
  4 10  2  0  0  0  0
  5 13  1  1  0  0  0
  6  9  2  0  0  0  0
  8  6  1  0  0  0  0
  8  7  1  0  0  0  0
  9  5  1  0  0  0  0
 11  6  1  0  0  0  0
 12 13  1  0  0  0  0
 13 14  2  0  0  0  0
 16 10  1  0  0  0  0
 16 15  2  0  0  0  0
 17 16  1  0  0  0  0
 18 17  2  0  0  0  0
 19 27  1  0  0  0  0
 19 18  1  0  0  0  0
 20 21  2  0  0  0  0
 21 26  1  0  0  0  0
 21 23  1  0  0  0  0
 22 23  1  0  0  0  0
 22 24  1  0  0  0  0
 23 25  1  0  0  0  0
 24 19  1  0  0  0  0
 25 27  1  0  0  0  0
M  END
>  <MODEL>
9

>  <REMARK>
 VINA RESULT:      -7.3      3.633      4.515
  Name = 
  4 active torsions:
  status: ('A' for Active; 'I' for Inactive)
    1  A    between atoms: C_4  and  C_11
    2  A    between atoms: C_5  and  N_27
    3  A    between atoms: C_14  and  C_20
    4  A    between atoms: C_14  and  C_24
                            x       y       z     vdW  Elec       q    Type
                         _______ _______ _______ _____ _____    ______ ____

>  <TORSDO>
F 4

$$$$
