=
 OpenBabel11042420343D

 49 53  0  0  1  0  0  0  0  0999 V2000
  160.8210  204.8340  149.5920 N   0  0  0  0  0  0  0  0  0  0  0  0
  161.3600  204.8970  148.3800 C   0  0  0  0  0  0  0  0  0  0  0  0
  161.8580  206.1420  147.8200 N   0  0  0  0  0  0  0  0  0  0  0  0
  161.3990  206.8240  151.2410 C   0  0  2  0  0  0  0  0  0  0  0  0
  161.2250  207.0650  149.8070 N   0  0  0  0  0  0  0  0  0  0  0  0
  161.8010  207.2190  148.5370 C   0  0  0  0  0  0  0  0  0  0  0  0
  161.5160  203.7000  147.6340 N   0  0  0  0  0  1  0  0  0  0  0  0
  161.4160  205.2020  151.9840 S   0  0  0  0  0  0  0  0  0  0  0  0
  160.5490  205.9460  150.5420 C   0  0  2  0  0  0  0  0  0  0  0  0
  161.0020  207.8110  153.3770 O   0  0  0  0  0  0  0  0  0  0  0  0
  160.5380  207.7790  152.0520 C   0  0  1  0  0  3  0  0  0  0  0  0
  161.3500  208.9100  152.5730 C   0  0  1  0  0  3  0  0  0  0  0  0
  161.0370  211.3410  152.2730 C   0  0  0  0  0  1  0  0  0  0  0  0
  160.4260  210.0860  152.8770 C   0  0  2  0  0  3  0  0  0  0  0  0
  160.1900  210.3280  154.3730 C   0  0  2  0  0  3  0  0  0  0  0  0
  159.0240  211.2200  154.6640 C   0  0  0  0  0  0  0  0  0  0  0  0
  156.6640  212.9030  154.8000 O   0  0  0  0  0  0  0  0  0  0  0  0
  158.3880  211.0550  155.7300 O   0  0  0  0  0  0  0  0  0  0  0  0
  158.6730  212.2670  153.7590 N   0  0  0  0  0  2  0  0  0  0  0  0
  157.4960  213.0820  153.8600 C   0  0  0  0  0  0  0  0  0  0  0  0
  157.2490  214.1490  152.8540 C   0  0  0  0  0  1  0  0  0  0  0  0
  161.4560  210.9160  154.9870 C   0  0  0  0  0  2  0  0  0  0  0  0
  162.0000  210.0010  156.0800 C   0  0  0  0  0  2  0  0  0  0  0  0
  160.8890  209.3380  156.7450 N   0  0  0  0  0  2  0  0  0  0  0  0
  160.2300  207.0040  156.7410 C   0  0  0  0  0  2  0  0  0  0  0  0
  160.9790  207.9870  157.2280 C   0  0  0  0  0  3  0  0  0  0  0  0
  162.3250  208.5300  148.0580 C   0  0  0  0  0  2  0  0  0  0  0  0
  161.7470  210.7590  148.8320 C   0  0  0  0  0  0  0  0  0  0  0  0
  162.1640  209.5560  149.1210 C   0  0  0  0  0  3  0  0  0  0  0  0
  161.3320  211.9750  148.5810 C   0  0  0  0  0  3  0  0  0  0  0  0
  160.9680  212.4270  147.2040 C   0  0  1  0  0  3  0  0  0  0  0  0
  159.5400  212.7760  147.1140 C   0  0  0  0  0  0  0  0  0  0  0  0
  158.3610  213.0530  147.0710 C   0  0  0  0  0  3  0  0  0  0  0  0
  162.5210  214.1570  147.6640 O   0  0  0  0  0  0  0  0  0  0  0  0
  161.8250  213.6020  146.8280 C   0  0  0  0  0  0  0  0  0  0  0  0
  161.8870  214.0420  145.4020 C   0  0  0  0  0  2  0  0  0  0  0  0
  163.9870  212.9300  145.2280 O   0  0  0  0  0  0  0  0  0  0  0  0
  162.9280  213.2720  144.6470 C   0  0  0  0  0  0  0  0  0  0  0  0
  162.7470  212.9360  143.2660 N   0  0  0  0  0  2  0  0  0  0  0  0
  161.4920  213.1610  142.5450 C   0  0  1  0  0  3  0  0  0  0  0  0
  161.7020  213.6620  141.2370 O   0  0  0  0  0  0  0  0  0  0  0  0
  162.7450  212.9500  140.6150 C   0  0  0  0  0  2  0  0  0  0  0  0
  163.1730  213.5370  138.3330 O   0  0  0  0  0  1  0  0  0  0  0  0
  163.5010  213.8520  139.6530 C   0  0  0  0  0  2  0  0  0  0  0  0
  160.5370  211.9590  142.6150 C   0  0  0  0  0  2  0  0  0  0  0  0
  159.1400  212.3690  142.5960 N   0  0  0  0  0  2  0  0  0  0  0  0
  158.0320  214.4530  142.1460 C   0  0  0  0  0  2  0  0  0  0  0  0
  159.0910  213.7780  142.9360 C   0  0  1  0  0  3  0  0  0  0  0  0
  157.8320  214.0760  143.4840 O   0  0  0  0  0  0  0  0  0  0  0  0
  2  1  2  0  0  0  0
  3  2  1  0  0  0  0
  3  6  2  0  0  0  0
  4  8  1  1  0  0  0
  4 11  1  0  0  0  0
  5  9  1  0  0  0  0
  5  4  1  0  0  0  0
  6  5  1  0  0  0  0
  7  2  1  0  0  0  0
  9  1  1  1  0  0  0
  9  4  1  0  0  0  0
  9  8  1  0  0  0  0
 11 12  1  0  0  0  0
 11 10  1  1  0  0  0
 12 14  1  1  0  0  0
 12 10  1  0  0  0  0
 14 13  1  1  0  0  0
 14 15  1  0  0  0  0
 15 16  1  0  0  0  0
 15 22  1  6  0  0  0
 16 18  2  0  0  0  0
 19 20  1  0  0  0  0
 19 16  1  0  0  0  0
 20 17  2  0  0  0  0
 21 20  1  0  0  0  0
 22 23  1  0  0  0  0
 23 24  1  0  0  0  0
 24 26  1  0  0  0  0
 25 26  2  0  0  0  0
 27  6  1  0  0  0  0
 27 29  1  0  0  0  0
 28 29  2  0  0  0  0
 30 28  2  0  0  0  0
 31 32  1  1  0  0  0
 31 30  1  0  0  0  0
 33 32  3  0  0  0  0
 35 31  1  0  0  0  0
 35 34  2  0  0  0  0
 36 35  1  0  0  0  0
 38 37  2  0  0  0  0
 38 36  1  0  0  0  0
 39 38  1  0  0  0  0
 40 45  1  6  0  0  0
 40 39  1  0  0  0  0
 41 40  1  0  0  0  0
 42 41  1  0  0  0  0
 43 44  1  0  0  0  0
 44 42  1  0  0  0  0
 46 45  1  0  0  0  0
 47 48  1  0  0  0  0
 47 49  1  0  0  0  0
 48 46  1  6  0  0  0
 48 49  1  0  0  0  0
M  END
>  <MODEL>
1

>  <REMARK>
 VINA RESULT:      -5.1      0.000      0.000
  Name = 
  22 active torsions:
  status: ('A' for Active; 'I' for Inactive)
    1  A    between atoms: C_3  and  C_36
    2  A    between atoms: C_5  and  O_37
    3  A    between atoms: C_5  and  N_39
    4  A    between atoms: C_5  and  C_46
    5  A    between atoms: C_7  and  C_8
    6  A    between atoms: C_7  and  O_37
    7  A    between atoms: C_10  and  C_41
    8  A    between atoms: N_12  and  C_18
    9  A    between atoms: N_12  and  C_20
   10  A    between atoms: C_15  and  C_24
   11  A    between atoms: C_17  and  C_23
   12  A    between atoms: C_18  and  C_44
   13  A    between atoms: C_22  and  C_26
   14  A    between atoms: C_23  and  C_28
   15  A    between atoms: C_23  and  C_43
   16  A    between atoms: C_26  and  C_43
   17  A    between atoms: C_27  and  C_47
   18  A    between atoms: N_29  and  C_42
   19  A    between atoms: N_29  and  C_46
   20  A    between atoms: C_31  and  C_36
   21  A    between atoms: C_41  and  C_44
   22  A    between atoms: C_41  and  C_47
                            x       y       z     vdW  Elec       q    Type
                         _______ _______ _______ _____ _____    ______ ____

>  <TORSDO>
F 22

$$$$
=
 OpenBabel11042420343D

 49 53  0  0  1  0  0  0  0  0999 V2000
  161.1960  205.3040  149.2000 N   0  0  0  0  0  0  0  0  0  0  0  0
  161.8650  205.4550  148.0640 C   0  0  0  0  0  0  0  0  0  0  0  0
  162.3510  206.7520  147.6210 N   0  0  0  0  0  0  0  0  0  0  0  0
  161.4640  207.2370  150.9910 C   0  0  2  0  0  0  0  0  0  0  0  0
  161.4420  207.5390  149.5590 N   0  0  0  0  0  0  0  0  0  0  0  0
  162.1490  207.7870  148.3730 C   0  0  0  0  0  0  0  0  0  0  0  0
  162.1750  204.3080  147.2890 N   0  0  0  0  0  1  0  0  0  0  0  0
  161.4920  205.5820  151.6600 S   0  0  0  0  0  0  0  0  0  0  0  0
  160.7530  206.3510  150.1600 C   0  0  2  0  0  0  0  0  0  0  0  0
  160.3930  207.6850  153.0760 O   0  0  0  0  0  0  0  0  0  0  0  0
  160.4620  208.1030  151.7370 C   0  0  1  0  0  3  0  0  0  0  0  0
  161.1270  208.8590  152.8300 C   0  0  1  0  0  3  0  0  0  0  0  0
  160.9120  211.2990  152.5220 C   0  0  0  0  0  1  0  0  0  0  0  0
  160.2800  210.0800  153.1760 C   0  0  2  0  0  3  0  0  0  0  0  0
  160.1480  210.3460  154.6810 C   0  0  2  0  0  3  0  0  0  0  0  0
  159.3580  211.5730  155.0100 C   0  0  0  0  0  0  0  0  0  0  0  0
  157.6360  213.7060  155.9620 O   0  0  0  0  0  0  0  0  0  0  0  0
  159.9360  212.6840  155.0040 O   0  0  0  0  0  0  0  0  0  0  0  0
  157.9590  211.4800  155.2840 N   0  0  0  0  0  2  0  0  0  0  0  0
  157.1390  212.5590  155.7520 C   0  0  0  0  0  0  0  0  0  0  0  0
  155.6880  212.3320  155.9920 C   0  0  0  0  0  1  0  0  0  0  0  0
  161.5420  210.4500  155.2910 C   0  0  0  0  0  2  0  0  0  0  0  0
  161.9460  209.1300  155.9410 C   0  0  0  0  0  2  0  0  0  0  0  0
  161.1450  208.9210  157.1360 N   0  0  0  0  0  2  0  0  0  0  0  0
  159.8760  207.0640  156.2270 C   0  0  0  0  0  2  0  0  0  0  0  0
  160.2150  207.8300  157.2580 C   0  0  0  0  0  3  0  0  0  0  0  0
  162.6470  209.1470  148.0160 C   0  0  0  0  0  2  0  0  0  0  0  0
  161.4140  211.2090  148.3720 C   0  0  0  0  0  0  0  0  0  0  0  0
  162.0030  210.1640  148.8870 C   0  0  0  0  0  3  0  0  0  0  0  0
  160.8160  212.2700  147.8930 C   0  0  0  0  0  3  0  0  0  0  0  0
  160.7140  212.5370  146.4260 C   0  0  1  0  0  3  0  0  0  0  0  0
  159.3290  212.8420  146.0310 C   0  0  0  0  0  0  0  0  0  0  0  0
  158.1990  213.1070  145.6790 C   0  0  0  0  0  3  0  0  0  0  0  0
  162.3650  214.1680  146.9060 O   0  0  0  0  0  0  0  0  0  0  0  0
  161.6300  213.6710  146.0670 C   0  0  0  0  0  0  0  0  0  0  0  0
  161.6990  214.1410  144.6510 C   0  0  0  0  0  2  0  0  0  0  0  0
  163.8950  213.2660  144.3520 O   0  0  0  0  0  0  0  0  0  0  0  0
  162.7370  213.3800  143.8820 C   0  0  0  0  0  0  0  0  0  0  0  0
  162.4380  212.7970  142.6080 N   0  0  0  0  0  2  0  0  0  0  0  0
  161.0870  212.7500  142.0460 C   0  0  1  0  0  3  0  0  0  0  0  0
  160.3690  213.9520  142.2610 O   0  0  0  0  0  0  0  0  0  0  0  0
  159.6450  214.2890  141.1010 C   0  0  0  0  0  2  0  0  0  0  0  0
  157.2500  214.2890  141.0880 O   0  0  0  0  0  1  0  0  0  0  0  0
  158.3720  213.4620  141.0130 C   0  0  0  0  0  2  0  0  0  0  0  0
  161.0590  212.2500  140.5920 C   0  0  0  0  0  2  0  0  0  0  0  0
  162.3980  212.0600  140.0530 N   0  0  0  0  0  2  0  0  0  0  0  0
  163.7870  213.8690  139.2970 C   0  0  0  0  0  2  0  0  0  0  0  0
  162.5910  213.0410  139.0030 C   0  0  1  0  0  3  0  0  0  0  0  0
  163.8290  212.8080  138.3780 O   0  0  0  0  0  0  0  0  0  0  0  0
  2  1  2  0  0  0  0
  3  2  1  0  0  0  0
  3  6  2  0  0  0  0
  4  8  1  1  0  0  0
  4 11  1  0  0  0  0
  5  9  1  0  0  0  0
  5  4  1  0  0  0  0
  6  5  1  0  0  0  0
  7  2  1  0  0  0  0
  9  1  1  1  0  0  0
  9  4  1  0  0  0  0
  9  8  1  0  0  0  0
 11 12  1  0  0  0  0
 11 10  1  1  0  0  0
 12 10  1  0  0  0  0
 12 14  1  1  0  0  0
 14 13  1  6  0  0  0
 14 15  1  0  0  0  0
 15 16  1  0  0  0  0
 15 22  1  6  0  0  0
 16 19  1  0  0  0  0
 18 16  2  0  0  0  0
 19 20  1  0  0  0  0
 20 17  2  0  0  0  0
 20 21  1  0  0  0  0
 22 23  1  0  0  0  0
 23 24  1  0  0  0  0
 24 26  1  0  0  0  0
 25 26  2  0  0  0  0
 27  6  1  0  0  0  0
 27 29  1  0  0  0  0
 28 29  2  0  0  0  0
 30 28  2  0  0  0  0
 31 32  1  1  0  0  0
 31 30  1  0  0  0  0
 33 32  3  0  0  0  0
 35 31  1  0  0  0  0
 35 34  2  0  0  0  0
 36 35  1  0  0  0  0
 38 37  2  0  0  0  0
 38 36  1  0  0  0  0
 39 38  1  0  0  0  0
 40 45  1  6  0  0  0
 40 41  1  0  0  0  0
 40 39  1  0  0  0  0
 42 41  1  0  0  0  0
 44 43  1  0  0  0  0
 44 42  1  0  0  0  0
 46 45  1  0  0  0  0
 48 47  1  0  0  0  0
 48 46  1  1  0  0  0
 49 48  1  0  0  0  0
 49 47  1  0  0  0  0
M  END
>  <MODEL>
2

>  <REMARK>
 VINA RESULT:      -4.1      1.253      2.440
  Name = 
  22 active torsions:
  status: ('A' for Active; 'I' for Inactive)
    1  A    between atoms: C_3  and  C_36
    2  A    between atoms: C_5  and  O_37
    3  A    between atoms: C_5  and  N_39
    4  A    between atoms: C_5  and  C_46
    5  A    between atoms: C_7  and  C_8
    6  A    between atoms: C_7  and  O_37
    7  A    between atoms: C_10  and  C_41
    8  A    between atoms: N_12  and  C_18
    9  A    between atoms: N_12  and  C_20
   10  A    between atoms: C_15  and  C_24
   11  A    between atoms: C_17  and  C_23
   12  A    between atoms: C_18  and  C_44
   13  A    between atoms: C_22  and  C_26
   14  A    between atoms: C_23  and  C_28
   15  A    between atoms: C_23  and  C_43
   16  A    between atoms: C_26  and  C_43
   17  A    between atoms: C_27  and  C_47
   18  A    between atoms: N_29  and  C_42
   19  A    between atoms: N_29  and  C_46
   20  A    between atoms: C_31  and  C_36
   21  A    between atoms: C_41  and  C_44
   22  A    between atoms: C_41  and  C_47
                            x       y       z     vdW  Elec       q    Type
                         _______ _______ _______ _____ _____    ______ ____

>  <TORSDO>
F 22

$$$$
=
 OpenBabel11042420343D

 49 53  0  0  1  0  0  0  0  0999 V2000
  159.8350  209.1650  155.9030 N   0  0  0  0  0  0  0  0  0  0  0  0
  160.2820  207.9180  155.8190 C   0  0  0  0  0  0  0  0  0  0  0  0
  160.8610  207.3860  154.5970 N   0  0  0  0  0  0  0  0  0  0  0  0
  160.7410  210.8650  154.0840 C   0  0  2  0  0  0  0  0  0  0  0  0
  160.4820  209.4650  153.7400 N   0  0  0  0  0  0  0  0  0  0  0  0
  160.9700  208.1620  153.5650 C   0  0  0  0  0  0  0  0  0  0  0  0
  160.2560  207.0990  156.9770 N   0  0  0  0  0  1  0  0  0  0  0  0
  160.6490  211.5160  155.7440 S   0  0  0  0  0  0  0  0  0  0  0  0
  159.7540  210.1930  154.8300 C   0  0  2  0  0  0  0  0  0  0  0  0
  158.9520  211.1310  152.5280 O   0  0  0  0  0  0  0  0  0  0  0  0
  160.0480  211.7950  153.1020 C   0  0  1  0  0  3  0  0  0  0  0  0
  158.6510  212.0700  153.5290 C   0  0  1  0  0  3  0  0  0  0  0  0
  159.2270  214.4450  153.1770 C   0  0  0  0  0  1  0  0  0  0  0  0
  158.1840  213.3750  152.8910 C   0  0  2  0  0  3  0  0  0  0  0  0
  156.8250  213.8700  153.3990 C   0  0  2  0  0  3  0  0  0  0  0  0
  156.3550  213.1760  154.6400 C   0  0  0  0  0  0  0  0  0  0  0  0
  155.6280  211.4690  156.8710 O   0  0  0  0  0  0  0  0  0  0  0  0
  156.4600  213.7670  155.7390 O   0  0  0  0  0  0  0  0  0  0  0  0
  155.7590  211.8810  154.5620 N   0  0  0  0  0  2  0  0  0  0  0  0
  155.4110  211.0660  155.6900 C   0  0  0  0  0  0  0  0  0  0  0  0
  154.7860  209.7340  155.4710 C   0  0  0  0  0  1  0  0  0  0  0  0
  155.7890  213.7030  152.2920 C   0  0  0  0  0  2  0  0  0  0  0  0
  156.2470  214.4060  151.0170 C   0  0  0  0  0  2  0  0  0  0  0  0
  156.1990  213.4650  149.9090 N   0  0  0  0  0  2  0  0  0  0  0  0
  158.3300  214.1020  148.9410 C   0  0  0  0  0  2  0  0  0  0  0  0
  157.1540  213.4940  148.8340 C   0  0  0  0  0  3  0  0  0  0  0  0
  161.5880  207.7120  152.2850 C   0  0  0  0  0  2  0  0  0  0  0  0
  162.1490  205.3580  152.0690 C   0  0  0  0  0  0  0  0  0  0  0  0
  162.4630  206.5370  152.5340 C   0  0  0  0  0  3  0  0  0  0  0  0
  161.8660  204.1610  151.6210 C   0  0  0  0  0  3  0  0  0  0  0  0
  160.6470  203.8810  150.8020 C   0  0  1  0  0  3  0  0  0  0  0  0
  160.5100  204.8440  149.6970 C   0  0  0  0  0  0  0  0  0  0  0  0
  160.3770  205.6160  148.7720 C   0  0  0  0  0  3  0  0  0  0  0  0
  161.0550  201.5550  151.0040 O   0  0  0  0  0  0  0  0  0  0  0  0
  160.7200  202.4760  150.2760 C   0  0  0  0  0  0  0  0  0  0  0  0
  160.3020  202.1940  148.8710 C   0  0  0  0  0  2  0  0  0  0  0  0
  161.9340  200.4580  148.8690 O   0  0  0  0  0  0  0  0  0  0  0  0
  161.2830  201.2890  148.1890 C   0  0  0  0  0  0  0  0  0  0  0  0
  161.5090  201.3660  146.7760 N   0  0  0  0  0  2  0  0  0  0  0  0
  160.7000  202.1960  145.8810 C   0  0  1  0  0  3  0  0  0  0  0  0
  161.4830  203.1060  145.1310 O   0  0  0  0  0  0  0  0  0  0  0  0
  161.9040  204.1660  145.9560 C   0  0  0  0  0  2  0  0  0  0  0  0
  161.2410  205.2940  143.9500 O   0  0  0  0  0  1  0  0  0  0  0  0
  161.8100  205.4880  145.2100 C   0  0  0  0  0  2  0  0  0  0  0  0
  159.7050  201.3780  145.0410 C   0  0  0  0  0  2  0  0  0  0  0  0
  160.3210  200.1890  144.4690 N   0  0  0  0  0  2  0  0  0  0  0  0
  160.8510  197.9050  144.9970 C   0  0  0  0  0  2  0  0  0  0  0  0
  160.5440  199.2470  145.5500 C   0  0  1  0  0  3  0  0  0  0  0  0
  161.8600  198.7590  145.4710 O   0  0  0  0  0  0  0  0  0  0  0  0
  2  1  2  0  0  0  0
  2  7  1  0  0  0  0
  3  2  1  0  0  0  0
  4  9  1  0  0  0  0
  4  8  1  1  0  0  0
  5  4  1  0  0  0  0
  5  9  1  0  0  0  0
  6  5  1  0  0  0  0
  6  3  2  0  0  0  0
  9  8  1  1  0  0  0
  9  1  1  0  0  0  0
 10 12  1  0  0  0  0
 11 10  1  6  0  0  0
 11 12  1  0  0  0  0
 11  4  1  0  0  0  0
 12 14  1  6  0  0  0
 14 13  1  1  0  0  0
 14 15  1  0  0  0  0
 15 22  1  6  0  0  0
 15 16  1  0  0  0  0
 16 18  2  0  0  0  0
 19 16  1  0  0  0  0
 19 20  1  0  0  0  0
 20 17  2  0  0  0  0
 21 20  1  0  0  0  0
 23 22  1  0  0  0  0
 24 23  1  0  0  0  0
 26 25  2  0  0  0  0
 26 24  1  0  0  0  0
 27 29  1  0  0  0  0
 27  6  1  0  0  0  0
 28 29  2  0  0  0  0
 30 28  2  0  0  0  0
 31 32  1  6  0  0  0
 31 30  1  0  0  0  0
 33 32  3  0  0  0  0
 35 31  1  0  0  0  0
 35 34  2  0  0  0  0
 36 35  1  0  0  0  0
 38 37  2  0  0  0  0
 38 36  1  0  0  0  0
 39 38  1  0  0  0  0
 40 45  1  6  0  0  0
 40 39  1  0  0  0  0
 41 40  1  0  0  0  0
 41 42  1  0  0  0  0
 43 44  1  0  0  0  0
 44 42  1  0  0  0  0
 46 45  1  0  0  0  0
 47 49  1  0  0  0  0
 47 48  1  0  0  0  0
 48 46  1  6  0  0  0
 49 48  1  0  0  0  0
M  END
>  <MODEL>
3

>  <REMARK>
 VINA RESULT:      -3.4      5.080      9.025
  Name = 
  22 active torsions:
  status: ('A' for Active; 'I' for Inactive)
    1  A    between atoms: C_3  and  C_36
    2  A    between atoms: C_5  and  O_37
    3  A    between atoms: C_5  and  N_39
    4  A    between atoms: C_5  and  C_46
    5  A    between atoms: C_7  and  C_8
    6  A    between atoms: C_7  and  O_37
    7  A    between atoms: C_10  and  C_41
    8  A    between atoms: N_12  and  C_18
    9  A    between atoms: N_12  and  C_20
   10  A    between atoms: C_15  and  C_24
   11  A    between atoms: C_17  and  C_23
   12  A    between atoms: C_18  and  C_44
   13  A    between atoms: C_22  and  C_26
   14  A    between atoms: C_23  and  C_28
   15  A    between atoms: C_23  and  C_43
   16  A    between atoms: C_26  and  C_43
   17  A    between atoms: C_27  and  C_47
   18  A    between atoms: N_29  and  C_42
   19  A    between atoms: N_29  and  C_46
   20  A    between atoms: C_31  and  C_36
   21  A    between atoms: C_41  and  C_44
   22  A    between atoms: C_41  and  C_47
                            x       y       z     vdW  Elec       q    Type
                         _______ _______ _______ _____ _____    ______ ____

>  <TORSDO>
F 22

$$$$
=
 OpenBabel11042420343D

 49 53  0  0  1  0  0  0  0  0999 V2000
  160.7640  203.3510  146.3990 N   0  0  0  0  0  0  0  0  0  0  0  0
  160.4770  203.1020  145.1270 C   0  0  0  0  0  0  0  0  0  0  0  0
  160.5760  204.1250  144.0990 N   0  0  0  0  0  0  0  0  0  0  0  0
  162.2600  205.4850  146.8730 C   0  0  2  0  0  0  0  0  0  0  0  0
  161.2730  205.4860  145.7920 N   0  0  0  0  0  0  0  0  0  0  0  0
  160.9840  205.3100  144.4300 C   0  0  0  0  0  0  0  0  0  0  0  0
  160.1280  201.7810  144.7460 N   0  0  0  0  0  1  0  0  0  0  0  0
  162.6750  204.0440  147.8420 S   0  0  0  0  0  0  0  0  0  0  0  0
  161.1390  204.6470  147.0270 C   0  0  2  0  0  0  0  0  0  0  0  0
  160.7660  207.1880  147.6250 O   0  0  0  0  0  0  0  0  0  0  0  0
  162.0750  206.7000  147.7680 C   0  0  1  0  0  3  0  0  0  0  0  0
  161.0270  206.4480  148.7910 C   0  0  1  0  0  3  0  0  0  0  0  0
  162.7080  207.8020  149.9900 C   0  0  0  0  0  1  0  0  0  0  0  0
  161.2430  207.3960  149.9670 C   0  0  2  0  0  3  0  0  0  0  0  0
  160.8800  206.7960  151.3310 C   0  0  2  0  0  3  0  0  0  0  0  0
  160.9420  207.7780  152.4590 C   0  0  0  0  0  0  0  0  0  0  0  0
  160.6660  209.8200  154.5020 O   0  0  0  0  0  0  0  0  0  0  0  0
  161.3900  207.4010  153.5660 O   0  0  0  0  0  0  0  0  0  0  0  0
  160.5360  209.1330  152.2590 N   0  0  0  0  0  2  0  0  0  0  0  0
  160.4140  210.1160  153.2970 C   0  0  0  0  0  0  0  0  0  0  0  0
  159.9880  211.5000  152.9540 C   0  0  0  0  0  1  0  0  0  0  0  0
  161.8090  205.6210  151.6200 C   0  0  0  0  0  2  0  0  0  0  0  0
  161.0060  204.3850  152.0180 C   0  0  0  0  0  2  0  0  0  0  0  0
  160.5740  203.6890  150.8160 N   0  0  0  0  0  2  0  0  0  0  0  0
  160.2480  201.5700  149.6820 C   0  0  0  0  0  2  0  0  0  0  0  0
  160.9050  202.3120  150.5660 C   0  0  0  0  0  3  0  0  0  0  0  0
  161.1530  206.4070  143.4350 C   0  0  0  0  0  2  0  0  0  0  0  0
  161.9550  206.5870  141.1490 C   0  0  0  0  0  0  0  0  0  0  0  0
  161.9260  205.9120  142.2670 C   0  0  0  0  0  3  0  0  0  0  0  0
  162.0070  207.2350  140.0130 C   0  0  0  0  0  3  0  0  0  0  0  0
  161.3080  208.5390  139.8040 C   0  0  1  0  0  3  0  0  0  0  0  0
  162.1910  209.6770  140.1110 C   0  0  0  0  0  0  0  0  0  0  0  0
  162.9380  210.6030  140.3420 C   0  0  0  0  0  3  0  0  0  0  0  0
  160.7590  207.6090  137.6940 O   0  0  0  0  0  0  0  0  0  0  0  0
  160.8210  208.6140  138.3850 C   0  0  0  0  0  0  0  0  0  0  0  0
  160.3320  209.9170  137.8420 C   0  0  0  0  0  2  0  0  0  0  0  0
  158.1400  209.5770  138.7130 O   0  0  0  0  0  0  0  0  0  0  0  0
  159.1000  210.3730  138.5650 C   0  0  0  0  0  0  0  0  0  0  0  0
  158.9880  211.7070  139.0730 N   0  0  0  0  0  2  0  0  0  0  0  0
  160.1010  212.6580  139.0790 C   0  0  1  0  0  3  0  0  0  0  0  0
  160.2430  213.3340  137.8430 O   0  0  0  0  0  0  0  0  0  0  0  0
  161.5130  213.9380  137.7720 C   0  0  0  0  0  2  0  0  0  0  0  0
  163.7870  213.2190  137.9940 O   0  0  0  0  0  1  0  0  0  0  0  0
  162.5670  212.9120  137.3880 C   0  0  0  0  0  2  0  0  0  0  0  0
  160.0930  213.5830  140.3070 C   0  0  0  0  0  2  0  0  0  0  0  0
  159.4160  212.9770  141.4440 N   0  0  0  0  0  2  0  0  0  0  0  0
  159.7580  212.2200  143.6990 C   0  0  0  0  0  2  0  0  0  0  0  0
  160.4110  212.7410  142.4730 C   0  0  1  0  0  3  0  0  0  0  0  0
  160.4230  211.3730  142.7960 O   0  0  0  0  0  0  0  0  0  0  0  0
  2  1  2  0  0  0  0
  3  6  2  0  0  0  0
  3  2  1  0  0  0  0
  4  9  1  0  0  0  0
  4 11  1  0  0  0  0
  4  8  1  6  0  0  0
  5  4  1  0  0  0  0
  5  9  1  0  0  0  0
  6  5  1  0  0  0  0
  7  2  1  0  0  0  0
  9  1  1  1  0  0  0
  9  8  1  0  0  0  0
 10 12  1  0  0  0  0
 11 10  1  6  0  0  0
 11 12  1  0  0  0  0
 12 14  1  1  0  0  0
 14 13  1  1  0  0  0
 14 15  1  0  0  0  0
 15 22  1  1  0  0  0
 15 16  1  0  0  0  0
 16 18  2  0  0  0  0
 19 16  1  0  0  0  0
 19 20  1  0  0  0  0
 20 17  2  0  0  0  0
 21 20  1  0  0  0  0
 22 23  1  0  0  0  0
 24 23  1  0  0  0  0
 25 26  2  0  0  0  0
 26 24  1  0  0  0  0
 27  6  1  0  0  0  0
 28 29  2  0  0  0  0
 29 27  1  0  0  0  0
 30 28  2  0  0  0  0
 31 30  1  6  0  0  0
 31 32  1  0  0  0  0
 32 33  3  0  0  0  0
 34 35  2  0  0  0  0
 35 31  1  0  0  0  0
 36 35  1  0  0  0  0
 36 38  1  0  0  0  0
 38 37  2  0  0  0  0
 38 39  1  0  0  0  0
 39 40  1  0  0  0  0
 40 45  1  1  0  0  0
 41 40  1  0  0  0  0
 42 41  1  0  0  0  0
 44 42  1  0  0  0  0
 44 43  1  0  0  0  0
 45 46  1  0  0  0  0
 48 46  1  6  0  0  0
 48 49  1  0  0  0  0
 48 47  1  0  0  0  0
 49 47  1  0  0  0  0
M  END
>  <MODEL>
4

>  <REMARK>
 VINA RESULT:      -3.3      3.403      6.021
  Name = 
  22 active torsions:
  status: ('A' for Active; 'I' for Inactive)
    1  A    between atoms: C_3  and  C_36
    2  A    between atoms: C_5  and  O_37
    3  A    between atoms: C_5  and  N_39
    4  A    between atoms: C_5  and  C_46
    5  A    between atoms: C_7  and  C_8
    6  A    between atoms: C_7  and  O_37
    7  A    between atoms: C_10  and  C_41
    8  A    between atoms: N_12  and  C_18
    9  A    between atoms: N_12  and  C_20
   10  A    between atoms: C_15  and  C_24
   11  A    between atoms: C_17  and  C_23
   12  A    between atoms: C_18  and  C_44
   13  A    between atoms: C_22  and  C_26
   14  A    between atoms: C_23  and  C_28
   15  A    between atoms: C_23  and  C_43
   16  A    between atoms: C_26  and  C_43
   17  A    between atoms: C_27  and  C_47
   18  A    between atoms: N_29  and  C_42
   19  A    between atoms: N_29  and  C_46
   20  A    between atoms: C_31  and  C_36
   21  A    between atoms: C_41  and  C_44
   22  A    between atoms: C_41  and  C_47
                            x       y       z     vdW  Elec       q    Type
                         _______ _______ _______ _____ _____    ______ ____

>  <TORSDO>
F 22

$$$$
=
 OpenBabel11042420343D

 49 53  0  0  1  0  0  0  0  0999 V2000
  160.0120  209.0800  155.7260 N   0  0  0  0  0  0  0  0  0  0  0  0
  160.5120  207.8500  155.7190 C   0  0  0  0  0  0  0  0  0  0  0  0
  161.1020  207.2630  154.5270 N   0  0  0  0  0  0  0  0  0  0  0  0
  160.8250  210.6910  153.7870 C   0  0  2  0  0  0  0  0  0  0  0  0
  160.6240  209.2630  153.5400 N   0  0  0  0  0  0  0  0  0  0  0  0
  161.1670  207.9720  153.4450 C   0  0  0  0  0  0  0  0  0  0  0  0
  160.5330  207.1090  156.9280 N   0  0  0  0  0  1  0  0  0  0  0  0
  160.7200  211.4480  155.4010 S   0  0  0  0  0  0  0  0  0  0  0  0
  159.8750  210.0290  154.5880 C   0  0  2  0  0  0  0  0  0  0  0  0
  158.7890  211.0050  152.5820 O   0  0  0  0  0  0  0  0  0  0  0  0
  160.0830  211.5230  152.7540 C   0  0  1  0  0  3  0  0  0  0  0  0
  158.8900  212.1740  153.3570 C   0  0  1  0  0  3  0  0  0  0  0  0
  159.6600  214.3770  152.5510 C   0  0  0  0  0  1  0  0  0  0  0  0
  158.5070  213.3870  152.5140 C   0  0  2  0  0  3  0  0  0  0  0  0
  157.2340  214.1010  152.9860 C   0  0  2  0  0  3  0  0  0  0  0  0
  156.6630  213.5430  154.2520 C   0  0  0  0  0  0  0  0  0  0  0  0
  155.7630  212.0870  156.5950 O   0  0  0  0  0  0  0  0  0  0  0  0
  156.6470  214.2620  155.2770 O   0  0  0  0  0  0  0  0  0  0  0  0
  156.1080  212.2270  154.2750 N   0  0  0  0  0  2  0  0  0  0  0  0
  155.6710  211.5400  155.4560 C   0  0  0  0  0  0  0  0  0  0  0  0
  155.1010  210.1700  155.3430 C   0  0  0  0  0  1  0  0  0  0  0  0
  156.1890  214.0400  151.8770 C   0  0  0  0  0  2  0  0  0  0  0  0
  156.8070  214.4150  150.5330 C   0  0  0  0  0  2  0  0  0  0  0  0
  156.4040  213.4390  149.5340 N   0  0  0  0  0  2  0  0  0  0  0  0
  158.2800  213.5620  148.0000 C   0  0  0  0  0  2  0  0  0  0  0  0
  156.9790  213.4070  148.2150 C   0  0  0  0  0  3  0  0  0  0  0  0
  161.7920  207.4650  152.1900 C   0  0  0  0  0  2  0  0  0  0  0  0
  162.1060  205.0580  152.0950 C   0  0  0  0  0  0  0  0  0  0  0  0
  162.5570  206.2230  152.4750 C   0  0  0  0  0  3  0  0  0  0  0  0
  161.6850  203.8730  151.7320 C   0  0  0  0  0  3  0  0  0  0  0  0
  160.4080  203.6730  150.9810 C   0  0  1  0  0  3  0  0  0  0  0  0
  160.0320  204.8820  150.2300 C   0  0  0  0  0  0  0  0  0  0  0  0
  159.7390  205.8960  149.6330 C   0  0  0  0  0  3  0  0  0  0  0  0
  160.7910  201.3850  150.4950 O   0  0  0  0  0  0  0  0  0  0  0  0
  160.5600  202.5000  150.0550 C   0  0  0  0  0  0  0  0  0  0  0  0
  160.3480  202.6880  148.5890 C   0  0  0  0  0  2  0  0  0  0  0  0
  161.6790  200.8250  147.9250 O   0  0  0  0  0  0  0  0  0  0  0  0
  161.4550  202.0550  147.8000 C   0  0  0  0  0  0  0  0  0  0  0  0
  162.2780  202.8300  146.9210 N   0  0  0  0  0  2  0  0  0  0  0  0
  162.0060  204.2320  146.5980 C   0  0  1  0  0  3  0  0  0  0  0  0
  160.6850  204.4340  146.1310 O   0  0  0  0  0  0  0  0  0  0  0  0
  160.6290  204.1990  144.7430 C   0  0  0  0  0  2  0  0  0  0  0  0
  160.9720  206.5210  144.2660 O   0  0  0  0  0  1  0  0  0  0  0  0
  161.4510  205.2370  143.9960 C   0  0  0  0  0  2  0  0  0  0  0  0
  162.4340  205.1980  147.7140 C   0  0  0  0  0  2  0  0  0  0  0  0
  161.8670  206.5270  147.5350 N   0  0  0  0  0  2  0  0  0  0  0  0
  162.2230  208.8500  148.0360 C   0  0  0  0  0  2  0  0  0  0  0  0
  162.7170  207.4670  148.2410 C   0  0  1  0  0  3  0  0  0  0  0  0
  161.9550  208.1360  149.2140 O   0  0  0  0  0  0  0  0  0  0  0  0
  2  1  2  0  0  0  0
  2  7  1  0  0  0  0
  3  2  1  0  0  0  0
  4  9  1  0  0  0  0
  4  8  1  1  0  0  0
  5  4  1  0  0  0  0
  5  9  1  0  0  0  0
  6  5  1  0  0  0  0
  6  3  2  0  0  0  0
  9  8  1  1  0  0  0
  9  1  1  0  0  0  0
 10 12  1  0  0  0  0
 11 10  1  6  0  0  0
 11 12  1  0  0  0  0
 11  4  1  0  0  0  0
 12 14  1  6  0  0  0
 14 13  1  1  0  0  0
 14 15  1  0  0  0  0
 15 22  1  6  0  0  0
 15 16  1  0  0  0  0
 16 19  1  0  0  0  0
 16 18  2  0  0  0  0
 19 20  1  0  0  0  0
 20 17  2  0  0  0  0
 21 20  1  0  0  0  0
 23 22  1  0  0  0  0
 24 23  1  0  0  0  0
 25 26  2  0  0  0  0
 26 24  1  0  0  0  0
 27 29  1  0  0  0  0
 27  6  1  0  0  0  0
 28 29  2  0  0  0  0
 30 28  2  0  0  0  0
 31 32  1  6  0  0  0
 31 30  1  0  0  0  0
 33 32  3  0  0  0  0
 35 34  2  0  0  0  0
 35 31  1  0  0  0  0
 36 35  1  0  0  0  0
 38 37  2  0  0  0  0
 38 36  1  0  0  0  0
 39 38  1  0  0  0  0
 40 39  1  0  0  0  0
 40 45  1  1  0  0  0
 41 40  1  0  0  0  0
 42 41  1  0  0  0  0
 44 43  1  0  0  0  0
 44 42  1  0  0  0  0
 46 45  1  0  0  0  0
 47 48  1  0  0  0  0
 47 49  1  0  0  0  0
 48 46  1  6  0  0  0
 48 49  1  0  0  0  0
M  END
>  <MODEL>
5

>  <REMARK>
 VINA RESULT:      -3.0      4.404      8.053
  Name = 
  22 active torsions:
  status: ('A' for Active; 'I' for Inactive)
    1  A    between atoms: C_3  and  C_36
    2  A    between atoms: C_5  and  O_37
    3  A    between atoms: C_5  and  N_39
    4  A    between atoms: C_5  and  C_46
    5  A    between atoms: C_7  and  C_8
    6  A    between atoms: C_7  and  O_37
    7  A    between atoms: C_10  and  C_41
    8  A    between atoms: N_12  and  C_18
    9  A    between atoms: N_12  and  C_20
   10  A    between atoms: C_15  and  C_24
   11  A    between atoms: C_17  and  C_23
   12  A    between atoms: C_18  and  C_44
   13  A    between atoms: C_22  and  C_26
   14  A    between atoms: C_23  and  C_28
   15  A    between atoms: C_23  and  C_43
   16  A    between atoms: C_26  and  C_43
   17  A    between atoms: C_27  and  C_47
   18  A    between atoms: N_29  and  C_42
   19  A    between atoms: N_29  and  C_46
   20  A    between atoms: C_31  and  C_36
   21  A    between atoms: C_41  and  C_44
   22  A    between atoms: C_41  and  C_47
                            x       y       z     vdW  Elec       q    Type
                         _______ _______ _______ _____ _____    ______ ____

>  <TORSDO>
F 22

$$$$
=
 OpenBabel11042420343D

 49 53  0  0  1  0  0  0  0  0999 V2000
  161.5600  207.2040  154.0140 N   0  0  0  0  0  0  0  0  0  0  0  0
  161.2290  208.1850  154.8440 C   0  0  0  0  0  0  0  0  0  0  0  0
  160.9510  209.5330  154.3760 N   0  0  0  0  0  0  0  0  0  0  0  0
  160.9260  207.5550  151.4660 C   0  0  2  0  0  0  0  0  0  0  0  0
  161.3480  208.6850  152.2960 N   0  0  0  0  0  0  0  0  0  0  0  0
  160.9990  209.7770  153.1050 C   0  0  0  0  0  0  0  0  0  0  0  0
  161.0760  207.8960  156.2250 N   0  0  0  0  0  1  0  0  0  0  0  0
  160.6310  205.9110  152.0950 S   0  0  0  0  0  0  0  0  0  0  0  0
  161.7850  207.2720  152.5440 C   0  0  2  0  0  0  0  0  0  0  0  0
  162.9170  206.7760  150.4060 O   0  0  0  0  0  0  0  0  0  0  0  0
  161.7370  207.5030  150.1810 C   0  0  1  0  0  3  0  0  0  0  0  0
  161.8970  206.1010  149.7140 C   0  0  1  0  0  3  0  0  0  0  0  0
  161.1010  206.8950  147.5160 C   0  0  0  0  0  1  0  0  0  0  0  0
  162.1950  206.1060  148.2180 C   0  0  2  0  0  3  0  0  0  0  0  0
  162.2720  204.7100  147.5890 C   0  0  2  0  0  3  0  0  0  0  0  0
  161.9680  204.6900  146.1240 C   0  0  0  0  0  0  0  0  0  0  0  0
  160.9780  204.7980  143.3980 O   0  0  0  0  0  0  0  0  0  0  0  0
  162.8430  205.0850  145.3190 O   0  0  0  0  0  0  0  0  0  0  0  0
  160.7170  204.1890  145.6520 N   0  0  0  0  0  2  0  0  0  0  0  0
  160.2620  204.2580  144.2930 C   0  0  0  0  0  0  0  0  0  0  0  0
  158.9370  203.6890  143.9300 C   0  0  0  0  0  1  0  0  0  0  0  0
  161.3160  203.7790  148.3270 C   0  0  0  0  0  2  0  0  0  0  0  0
  161.5140  202.3350  147.8750 C   0  0  0  0  0  2  0  0  0  0  0  0
  160.7870  201.4500  148.7710 N   0  0  0  0  0  2  0  0  0  0  0  0
  160.8000  201.9130  151.1520 C   0  0  0  0  0  2  0  0  0  0  0  0
  161.2210  201.1940  150.1180 C   0  0  0  0  0  3  0  0  0  0  0  0
  160.6890  211.1190  152.5340 C   0  0  0  0  0  2  0  0  0  0  0  0
  158.7560  212.5210  152.9780 C   0  0  0  0  0  0  0  0  0  0  0  0
  159.7770  211.8560  153.4470 C   0  0  0  0  0  3  0  0  0  0  0  0
  157.7230  213.1990  152.5450 C   0  0  0  0  0  3  0  0  0  0  0  0
  157.3640  213.2720  151.0960 C   0  0  1  0  0  3  0  0  0  0  0  0
  156.0560  213.9180  150.8990 C   0  0  0  0  0  0  0  0  0  0  0  0
  154.9760  214.4520  150.7680 C   0  0  0  0  0  3  0  0  0  0  0  0
  159.5290  214.2120  150.8770 O   0  0  0  0  0  0  0  0  0  0  0  0
  158.4400  214.0170  150.3600 C   0  0  0  0  0  0  0  0  0  0  0  0
  158.2020  214.4530  148.9510 C   0  0  0  0  0  2  0  0  0  0  0  0
  156.5630  212.8950  148.1960 O   0  0  0  0  0  0  0  0  0  0  0  0
  157.7470  213.3030  148.1020 C   0  0  0  0  0  0  0  0  0  0  0  0
  158.6440  212.6460  147.1990 N   0  0  0  0  0  2  0  0  0  0  0  0
  159.9940  213.1370  146.9130 C   0  0  1  0  0  3  0  0  0  0  0  0
  160.9860  212.1510  147.1300 O   0  0  0  0  0  0  0  0  0  0  0  0
  161.4510  212.2250  148.4570 C   0  0  0  0  0  2  0  0  0  0  0  0
  163.7630  212.6160  147.9730 O   0  0  0  0  0  1  0  0  0  0  0  0
  162.8760  211.7050  148.5490 C   0  0  0  0  0  2  0  0  0  0  0  0
  160.0980  213.8490  145.5550 C   0  0  0  0  0  2  0  0  0  0  0  0
  159.3000  213.1910  144.5300 N   0  0  0  0  0  2  0  0  0  0  0  0
  159.7060  212.2910  142.3390 C   0  0  0  0  0  2  0  0  0  0  0  0
  159.9390  213.4380  143.2510 C   0  0  1  0  0  3  0  0  0  0  0  0
  158.9560  213.4750  142.2460 O   0  0  0  0  0  0  0  0  0  0  0  0
  1  2  2  0  0  0  0
  2  7  1  0  0  0  0
  3  2  1  0  0  0  0
  4  8  1  1  0  0  0
  4  5  1  0  0  0  0
  4  9  1  0  0  0  0
  5  9  1  0  0  0  0
  5  6  1  0  0  0  0
  6  3  2  0  0  0  0
  9  8  1  1  0  0  0
  9  1  1  0  0  0  0
 11 10  1  1  0  0  0
 11  4  1  0  0  0  0
 12 14  1  6  0  0  0
 12 11  1  0  0  0  0
 12 10  1  0  0  0  0
 14 13  1  6  0  0  0
 15 14  1  0  0  0  0
 15 22  1  1  0  0  0
 16 15  1  0  0  0  0
 17 20  2  0  0  0  0
 18 16  2  0  0  0  0
 19 16  1  0  0  0  0
 20 19  1  0  0  0  0
 21 20  1  0  0  0  0
 23 22  1  0  0  0  0
 23 24  1  0  0  0  0
 24 26  1  0  0  0  0
 26 25  2  0  0  0  0
 27  6  1  0  0  0  0
 27 29  1  0  0  0  0
 28 29  2  0  0  0  0
 30 28  2  0  0  0  0
 31 32  1  1  0  0  0
 31 30  1  0  0  0  0
 33 32  3  0  0  0  0
 35 34  2  0  0  0  0
 35 31  1  0  0  0  0
 36 35  1  0  0  0  0
 38 37  2  0  0  0  0
 38 36  1  0  0  0  0
 39 38  1  0  0  0  0
 40 45  1  6  0  0  0
 40 41  1  0  0  0  0
 40 39  1  0  0  0  0
 41 42  1  0  0  0  0
 42 44  1  0  0  0  0
 43 44  1  0  0  0  0
 46 45  1  0  0  0  0
 47 48  1  0  0  0  0
 48 46  1  1  0  0  0
 49 47  1  0  0  0  0
 49 48  1  0  0  0  0
M  END
>  <MODEL>
6

>  <REMARK>
 VINA RESULT:      -2.7      2.993      7.445
  Name = 
  22 active torsions:
  status: ('A' for Active; 'I' for Inactive)
    1  A    between atoms: C_3  and  C_36
    2  A    between atoms: C_5  and  O_37
    3  A    between atoms: C_5  and  N_39
    4  A    between atoms: C_5  and  C_46
    5  A    between atoms: C_7  and  C_8
    6  A    between atoms: C_7  and  O_37
    7  A    between atoms: C_10  and  C_41
    8  A    between atoms: N_12  and  C_18
    9  A    between atoms: N_12  and  C_20
   10  A    between atoms: C_15  and  C_24
   11  A    between atoms: C_17  and  C_23
   12  A    between atoms: C_18  and  C_44
   13  A    between atoms: C_22  and  C_26
   14  A    between atoms: C_23  and  C_28
   15  A    between atoms: C_23  and  C_43
   16  A    between atoms: C_26  and  C_43
   17  A    between atoms: C_27  and  C_47
   18  A    between atoms: N_29  and  C_42
   19  A    between atoms: N_29  and  C_46
   20  A    between atoms: C_31  and  C_36
   21  A    between atoms: C_41  and  C_44
   22  A    between atoms: C_41  and  C_47
                            x       y       z     vdW  Elec       q    Type
                         _______ _______ _______ _____ _____    ______ ____

>  <TORSDO>
F 22

$$$$
=
 OpenBabel11042420343D

 49 53  0  0  1  0  0  0  0  0999 V2000
  161.7810  212.1610  149.9690 N   0  0  0  0  0  0  0  0  0  0  0  0
  161.3770  213.2030  149.2540 C   0  0  0  0  0  0  0  0  0  0  0  0
  161.0470  213.0900  147.8420 N   0  0  0  0  0  0  0  0  0  0  0  0
  161.2120  209.7670  148.9880 C   0  0  2  0  0  0  0  0  0  0  0  0
  161.5510  210.8800  148.1000 N   0  0  0  0  0  0  0  0  0  0  0  0
  161.1240  211.9290  147.2720 C   0  0  0  0  0  0  0  0  0  0  0  0
  161.1950  214.4530  149.9000 N   0  0  0  0  0  1  0  0  0  0  0  0
  160.9790  209.9340  150.7500 S   0  0  0  0  0  0  0  0  0  0  0  0
  162.0490  210.7710  149.5100 C   0  0  2  0  0  0  0  0  0  0  0  0
  162.2370  207.7860  149.8370 O   0  0  0  0  0  0  0  0  0  0  0  0
  162.0640  208.5490  148.6710 C   0  0  1  0  0  3  0  0  0  0  0  0
  161.3030  207.2950  148.9080 C   0  0  1  0  0  3  0  0  0  0  0  0
  161.9590  206.6010  146.6310 C   0  0  0  0  0  1  0  0  0  0  0  0
  161.9310  206.1700  148.0890 C   0  0  2  0  0  3  0  0  0  0  0  0
  161.1890  204.8320  148.1900 C   0  0  2  0  0  3  0  0  0  0  0  0
  161.2040  204.2350  149.5620 C   0  0  0  0  0  0  0  0  0  0  0  0
  160.9590  203.4040  152.3310 O   0  0  0  0  0  0  0  0  0  0  0  0
  161.1700  202.9880  149.6790 O   0  0  0  0  0  0  0  0  0  0  0  0
  161.3010  205.0740  150.7140 N   0  0  0  0  0  2  0  0  0  0  0  0
  161.1760  204.6250  152.0710 C   0  0  0  0  0  0  0  0  0  0  0  0
  161.3050  205.6030  153.1850 C   0  0  0  0  0  1  0  0  0  0  0  0
  161.7960  203.8500  147.1930 C   0  0  0  0  0  2  0  0  0  0  0  0
  161.2330  202.4480  147.4070 C   0  0  0  0  0  2  0  0  0  0  0  0
  160.1420  202.2230  146.4730 N   0  0  0  0  0  2  0  0  0  0  0  0
  160.1350  200.1510  145.2110 C   0  0  0  0  0  2  0  0  0  0  0  0
  160.3110  201.4660  145.2610 C   0  0  0  0  0  3  0  0  0  0  0  0
  160.7660  211.7140  145.8400 C   0  0  0  0  0  2  0  0  0  0  0  0
  159.2420  212.8710  144.3440 C   0  0  0  0  0  0  0  0  0  0  0  0
  159.4790  212.3920  145.5360 C   0  0  0  0  0  3  0  0  0  0  0  0
  158.9690  213.3660  143.1630 C   0  0  0  0  0  3  0  0  0  0  0  0
  159.9220  213.2700  142.0170 C   0  0  1  0  0  3  0  0  0  0  0  0
  161.2340  212.7600  142.4500 C   0  0  0  0  0  0  0  0  0  0  0  0
  162.3250  212.3460  142.7780 C   0  0  0  0  0  3  0  0  0  0  0  0
  159.8800  211.3390  140.6430 O   0  0  0  0  0  0  0  0  0  0  0  0
  159.3310  212.3830  140.9580 C   0  0  0  0  0  0  0  0  0  0  0  0
  158.0190  212.7440  140.3440 C   0  0  0  0  0  2  0  0  0  0  0  0
  158.9160  213.9970  138.5260 O   0  0  0  0  0  0  0  0  0  0  0  0
  158.1750  213.0490  138.8840 C   0  0  0  0  0  0  0  0  0  0  0  0
  157.4770  212.2920  137.8880 N   0  0  0  0  0  2  0  0  0  0  0  0
  156.7090  211.0830  138.1940 C   0  0  1  0  0  3  0  0  0  0  0  0
  155.3160  211.2670  138.0200 O   0  0  0  0  0  0  0  0  0  0  0  0
  154.6520  210.0310  138.1400 C   0  0  0  0  0  2  0  0  0  0  0  0
  153.2190  209.6270  140.0160 O   0  0  0  0  0  1  0  0  0  0  0  0
  154.5520  209.6230  139.6020 C   0  0  0  0  0  2  0  0  0  0  0  0
  157.2700  209.8260  137.5090 C   0  0  0  0  0  2  0  0  0  0  0  0
  158.3220  209.1980  138.2940 N   0  0  0  0  0  2  0  0  0  0  0  0
  160.7040  208.8970  138.4000 C   0  0  0  0  0  2  0  0  0  0  0  0
  159.5660  209.3480  137.5630 C   0  0  1  0  0  3  0  0  0  0  0  0
  160.1560  208.0840  137.3950 O   0  0  0  0  0  0  0  0  0  0  0  0
  2  7  1  0  0  0  0
  2  1  2  0  0  0  0
  3  2  1  0  0  0  0
  4  9  1  0  0  0  0
  4  8  1  1  0  0  0
  5  4  1  0  0  0  0
  5  9  1  0  0  0  0
  6  3  2  0  0  0  0
  6  5  1  0  0  0  0
  9  1  1  1  0  0  0
  9  8  1  0  0  0  0
 11 12  1  0  0  0  0
 11  4  1  0  0  0  0
 11 10  1  1  0  0  0
 12 14  1  6  0  0  0
 12 10  1  0  0  0  0
 14 13  1  6  0  0  0
 14 15  1  0  0  0  0
 15 22  1  6  0  0  0
 15 16  1  0  0  0  0
 16 18  2  0  0  0  0
 16 19  1  0  0  0  0
 19 20  1  0  0  0  0
 20 17  2  0  0  0  0
 20 21  1  0  0  0  0
 22 23  1  0  0  0  0
 24 23  1  0  0  0  0
 25 26  2  0  0  0  0
 26 24  1  0  0  0  0
 27  6  1  0  0  0  0
 28 29  2  0  0  0  0
 29 27  1  0  0  0  0
 30 28  2  0  0  0  0
 31 32  1  1  0  0  0
 31 30  1  0  0  0  0
 32 33  3  0  0  0  0
 34 35  2  0  0  0  0
 35 31  1  0  0  0  0
 36 35  1  0  0  0  0
 37 38  2  0  0  0  0
 38 36  1  0  0  0  0
 39 40  1  0  0  0  0
 39 38  1  0  0  0  0
 40 45  1  6  0  0  0
 41 42  1  0  0  0  0
 41 40  1  0  0  0  0
 42 44  1  0  0  0  0
 44 43  1  0  0  0  0
 45 46  1  0  0  0  0
 48 46  1  1  0  0  0
 48 47  1  0  0  0  0
 49 48  1  0  0  0  0
 49 47  1  0  0  0  0
M  END
>  <MODEL>
7

>  <REMARK>
 VINA RESULT:      -2.5      4.009      7.965
  Name = 
  22 active torsions:
  status: ('A' for Active; 'I' for Inactive)
    1  A    between atoms: C_3  and  C_36
    2  A    between atoms: C_5  and  O_37
    3  A    between atoms: C_5  and  N_39
    4  A    between atoms: C_5  and  C_46
    5  A    between atoms: C_7  and  C_8
    6  A    between atoms: C_7  and  O_37
    7  A    between atoms: C_10  and  C_41
    8  A    between atoms: N_12  and  C_18
    9  A    between atoms: N_12  and  C_20
   10  A    between atoms: C_15  and  C_24
   11  A    between atoms: C_17  and  C_23
   12  A    between atoms: C_18  and  C_44
   13  A    between atoms: C_22  and  C_26
   14  A    between atoms: C_23  and  C_28
   15  A    between atoms: C_23  and  C_43
   16  A    between atoms: C_26  and  C_43
   17  A    between atoms: C_27  and  C_47
   18  A    between atoms: N_29  and  C_42
   19  A    between atoms: N_29  and  C_46
   20  A    between atoms: C_31  and  C_36
   21  A    between atoms: C_41  and  C_44
   22  A    between atoms: C_41  and  C_47
                            x       y       z     vdW  Elec       q    Type
                         _______ _______ _______ _____ _____    ______ ____

>  <TORSDO>
F 22

$$$$
=
 OpenBabel11042420343D

 49 53  0  0  1  0  0  0  0  0999 V2000
  161.8780  212.2060  150.0690 N   0  0  0  0  0  0  0  0  0  0  0  0
  161.2390  213.2280  149.5140 C   0  0  0  0  0  0  0  0  0  0  0  0
  160.6530  213.1440  148.1860 N   0  0  0  0  0  0  0  0  0  0  0  0
  161.3710  209.8110  149.0560 C   0  0  2  0  0  0  0  0  0  0  0  0
  161.4170  210.9940  148.1960 N   0  0  0  0  0  0  0  0  0  0  0  0
  160.7330  212.0260  147.5350 C   0  0  0  0  0  0  0  0  0  0  0  0
  161.0620  214.4190  150.2640 N   0  0  0  0  0  1  0  0  0  0  0  0
  161.4710  209.8690  150.8370 S   0  0  0  0  0  0  0  0  0  0  0  0
  162.1890  210.8770  149.4750 C   0  0  2  0  0  0  0  0  0  0  0  0
  162.6860  207.8820  149.5540 O   0  0  0  0  0  0  0  0  0  0  0  0
  162.2630  208.7120  148.5030 C   0  0  1  0  0  3  0  0  0  0  0  0
  161.6610  207.3730  148.7380 C   0  0  1  0  0  3  0  0  0  0  0  0
  161.3710  206.3970  146.4890 C   0  0  0  0  0  1  0  0  0  0  0  0
  162.2440  206.3830  147.7340 C   0  0  2  0  0  3  0  0  0  0  0  0
  162.3310  204.9420  148.2540 C   0  0  2  0  0  3  0  0  0  0  0  0
  162.1410  203.9050  147.1910 C   0  0  0  0  0  0  0  0  0  0  0  0
  161.3420  201.9330  145.2180 O   0  0  0  0  0  0  0  0  0  0  0  0
  162.8350  203.9720  146.1510 O   0  0  0  0  0  0  0  0  0  0  0  0
  161.2160  202.8340  147.3840 N   0  0  0  0  0  2  0  0  0  0  0  0
  160.8470  201.8760  146.3830 C   0  0  0  0  0  0  0  0  0  0  0  0
  159.8740  200.8010  146.7150 C   0  0  0  0  0  1  0  0  0  0  0  0
  161.2950  204.7470  149.3560 C   0  0  0  0  0  2  0  0  0  0  0  0
  161.8970  205.0630  150.7220 C   0  0  0  0  0  2  0  0  0  0  0  0
  161.3330  204.1600  151.7130 N   0  0  0  0  0  2  0  0  0  0  0  0
  161.0550  205.7310  153.5400 C   0  0  0  0  0  2  0  0  0  0  0  0
  160.6680  204.6360  152.8960 C   0  0  0  0  0  3  0  0  0  0  0  0
  160.1260  211.8380  146.1860 C   0  0  0  0  0  2  0  0  0  0  0  0
  159.5570  213.7210  144.7610 C   0  0  0  0  0  0  0  0  0  0  0  0
  159.3020  213.0240  145.8350 C   0  0  0  0  0  3  0  0  0  0  0  0
  159.7820  214.4460  143.6940 C   0  0  0  0  0  3  0  0  0  0  0  0
  160.8770  214.1270  142.7290 C   0  0  1  0  0  3  0  0  0  0  0  0
  162.1710  213.9740  143.4150 C   0  0  0  0  0  0  0  0  0  0  0  0
  163.2410  213.8790  143.9770 C   0  0  0  0  0  3  0  0  0  0  0  0
  161.2150  211.8740  142.0770 O   0  0  0  0  0  0  0  0  0  0  0  0
  160.5230  212.8750  141.9790 C   0  0  0  0  0  0  0  0  0  0  0  0
  159.2680  212.8310  141.1710 C   0  0  0  0  0  2  0  0  0  0  0  0
  160.4350  213.6430  139.2580 O   0  0  0  0  0  0  0  0  0  0  0  0
  159.5730  212.8460  139.7030 C   0  0  0  0  0  0  0  0  0  0  0  0
  158.8850  211.9800  138.7920 N   0  0  0  0  0  2  0  0  0  0  0  0
  157.9740  210.9200  139.2290 C   0  0  1  0  0  3  0  0  0  0  0  0
  156.6340  211.3650  139.3300 O   0  0  0  0  0  0  0  0  0  0  0  0
  155.7550  210.3100  139.0150 C   0  0  0  0  0  2  0  0  0  0  0  0
  153.5100  210.2640  138.1840 O   0  0  0  0  0  1  0  0  0  0  0  0
  154.3130  210.7430  139.2220 C   0  0  0  0  0  2  0  0  0  0  0  0
  158.1470  209.6160  138.4350 C   0  0  0  0  0  2  0  0  0  0  0  0
  159.3610  209.6220  137.6310 N   0  0  0  0  0  2  0  0  0  0  0  0
  161.5430  208.6330  137.4400 C   0  0  0  0  0  2  0  0  0  0  0  0
  160.3030  208.7100  138.2520 C   0  0  1  0  0  3  0  0  0  0  0  0
  161.4660  209.4190  138.6020 O   0  0  0  0  0  0  0  0  0  0  0  0
  2  1  2  0  0  0  0
  2  7  1  0  0  0  0
  3  2  1  0  0  0  0
  4  9  1  0  0  0  0
  4  8  1  1  0  0  0
  5  4  1  0  0  0  0
  5  9  1  0  0  0  0
  6  3  2  0  0  0  0
  6  5  1  0  0  0  0
  9  1  1  6  0  0  0
  9  8  1  0  0  0  0
 11 12  1  0  0  0  0
 11  4  1  0  0  0  0
 11 10  1  1  0  0  0
 12 14  1  6  0  0  0
 12 10  1  0  0  0  0
 14 13  1  6  0  0  0
 14 15  1  0  0  0  0
 15 22  1  1  0  0  0
 16 19  1  0  0  0  0
 16 15  1  0  0  0  0
 17 20  2  0  0  0  0
 18 16  2  0  0  0  0
 20 21  1  0  0  0  0
 20 19  1  0  0  0  0
 22 23  1  0  0  0  0
 23 24  1  0  0  0  0
 24 26  1  0  0  0  0
 26 25  2  0  0  0  0
 27  6  1  0  0  0  0
 28 29  2  0  0  0  0
 29 27  1  0  0  0  0
 30 28  2  0  0  0  0
 31 32  1  1  0  0  0
 31 30  1  0  0  0  0
 32 33  3  0  0  0  0
 35 34  2  0  0  0  0
 35 31  1  0  0  0  0
 36 35  1  0  0  0  0
 37 38  2  0  0  0  0
 38 36  1  0  0  0  0
 39 40  1  0  0  0  0
 39 38  1  0  0  0  0
 40 45  1  6  0  0  0
 40 41  1  0  0  0  0
 42 44  1  0  0  0  0
 42 41  1  0  0  0  0
 43 44  1  0  0  0  0
 46 45  1  0  0  0  0
 47 48  1  0  0  0  0
 47 49  1  0  0  0  0
 48 46  1  6  0  0  0
 48 49  1  0  0  0  0
M  END
>  <MODEL>
8

>  <REMARK>
 VINA RESULT:      -2.5      3.905      7.659
  Name = 
  22 active torsions:
  status: ('A' for Active; 'I' for Inactive)
    1  A    between atoms: C_3  and  C_36
    2  A    between atoms: C_5  and  O_37
    3  A    between atoms: C_5  and  N_39
    4  A    between atoms: C_5  and  C_46
    5  A    between atoms: C_7  and  C_8
    6  A    between atoms: C_7  and  O_37
    7  A    between atoms: C_10  and  C_41
    8  A    between atoms: N_12  and  C_18
    9  A    between atoms: N_12  and  C_20
   10  A    between atoms: C_15  and  C_24
   11  A    between atoms: C_17  and  C_23
   12  A    between atoms: C_18  and  C_44
   13  A    between atoms: C_22  and  C_26
   14  A    between atoms: C_23  and  C_28
   15  A    between atoms: C_23  and  C_43
   16  A    between atoms: C_26  and  C_43
   17  A    between atoms: C_27  and  C_47
   18  A    between atoms: N_29  and  C_42
   19  A    between atoms: N_29  and  C_46
   20  A    between atoms: C_31  and  C_36
   21  A    between atoms: C_41  and  C_44
   22  A    between atoms: C_41  and  C_47
                            x       y       z     vdW  Elec       q    Type
                         _______ _______ _______ _____ _____    ______ ____

>  <TORSDO>
F 22

$$$$
=
 OpenBabel11042420343D

 49 53  0  0  1  0  0  0  0  0999 V2000
  160.8200  203.6730  146.6950 N   0  0  0  0  0  0  0  0  0  0  0  0
  160.8350  203.2540  145.4360 C   0  0  0  0  0  0  0  0  0  0  0  0
  160.9400  204.1750  144.3160 N   0  0  0  0  0  0  0  0  0  0  0  0
  161.7790  206.1030  147.1370 C   0  0  2  0  0  0  0  0  0  0  0  0
  161.0360  205.8010  145.9120 N   0  0  0  0  0  0  0  0  0  0  0  0
  161.0520  205.4430  144.5560 C   0  0  0  0  0  0  0  0  0  0  0  0
  160.8140  201.8600  145.1750 N   0  0  0  0  0  1  0  0  0  0  0  0
  162.2570  204.8740  148.3410 S   0  0  0  0  0  0  0  0  0  0  0  0
  160.8230  205.0720  147.2050 C   0  0  2  0  0  0  0  0  0  0  0  0
  160.5240  206.9410  148.9860 O   0  0  0  0  0  0  0  0  0  0  0  0
  161.2060  207.3320  147.8220 C   0  0  1  0  0  3  0  0  0  0  0  0
  161.7960  207.5070  149.1760 C   0  0  1  0  0  3  0  0  0  0  0  0
  162.6470  209.7930  148.7890 C   0  0  0  0  0  1  0  0  0  0  0  0
  161.6550  208.9680  149.5940 C   0  0  2  0  0  3  0  0  0  0  0  0
  161.9070  209.2190  151.0860 C   0  0  2  0  0  3  0  0  0  0  0  0
  161.9490  207.9700  151.9100 C   0  0  0  0  0  0  0  0  0  0  0  0
  161.5930  205.5990  153.5440 O   0  0  0  0  0  0  0  0  0  0  0  0
  162.6930  207.0310  151.5460 O   0  0  0  0  0  0  0  0  0  0  0  0
  161.1850  207.8720  153.1130 N   0  0  0  0  0  2  0  0  0  0  0  0
  161.0340  206.6800  153.8960 C   0  0  0  0  0  0  0  0  0  0  0  0
  160.2140  206.7130  155.1370 C   0  0  0  0  0  1  0  0  0  0  0  0
  160.8280  210.1550  151.6220 C   0  0  0  0  0  2  0  0  0  0  0  0
  161.2980  210.8420  152.9010 C   0  0  0  0  0  2  0  0  0  0  0  0
  160.2940  211.8070  153.3210 N   0  0  0  0  0  2  0  0  0  0  0  0
  158.0620  211.6150  154.2510 C   0  0  0  0  0  2  0  0  0  0  0  0
  158.8840  211.5470  153.2100 C   0  0  0  0  0  3  0  0  0  0  0  0
  161.2060  206.4540  143.4700 C   0  0  0  0  0  2  0  0  0  0  0  0
  161.9580  206.4590  141.1610 C   0  0  0  0  0  0  0  0  0  0  0  0
  161.9130  205.8470  142.3130 C   0  0  0  0  0  3  0  0  0  0  0  0
  162.0230  207.0410  139.9900 C   0  0  0  0  0  3  0  0  0  0  0  0
  161.4070  208.3770  139.7270 C   0  0  1  0  0  3  0  0  0  0  0  0
  162.3280  209.4710  140.0780 C   0  0  0  0  0  0  0  0  0  0  0  0
  163.0990  210.3700  140.3380 C   0  0  0  0  0  3  0  0  0  0  0  0
  161.1650  207.5040  137.5370 O   0  0  0  0  0  0  0  0  0  0  0  0
  161.0130  208.4610  138.2800 C   0  0  0  0  0  0  0  0  0  0  0  0
  160.3560  209.7000  137.7660 C   0  0  0  0  0  2  0  0  0  0  0  0
  158.2740  209.2210  138.8210 O   0  0  0  0  0  0  0  0  0  0  0  0
  159.1740  210.0710  138.6100 C   0  0  0  0  0  0  0  0  0  0  0  0
  159.0400  211.3840  139.1650 N   0  0  0  0  0  2  0  0  0  0  0  0
  160.1000  212.3930  139.0990 C   0  0  1  0  0  3  0  0  0  0  0  0
  159.7930  213.4420  138.1980 O   0  0  0  0  0  0  0  0  0  0  0  0
  158.4030  213.4920  137.9790 C   0  0  0  0  0  2  0  0  0  0  0  0
  156.6370  213.8180  139.5630 O   0  0  0  0  0  1  0  0  0  0  0  0
  157.7430  214.4330  138.9740 C   0  0  0  0  0  2  0  0  0  0  0  0
  160.5640  212.8680  140.4850 C   0  0  0  0  0  2  0  0  0  0  0  0
  159.6530  212.4490  141.5400 N   0  0  0  0  0  2  0  0  0  0  0  0
  159.3110  213.1420  143.8150 C   0  0  0  0  0  2  0  0  0  0  0  0
  160.3070  212.6980  142.8110 C   0  0  1  0  0  3  0  0  0  0  0  0
  159.7850  211.8210  143.7770 O   0  0  0  0  0  0  0  0  0  0  0  0
  2  1  2  0  0  0  0
  3  6  2  0  0  0  0
  3  2  1  0  0  0  0
  4  9  1  0  0  0  0
  4 11  1  0  0  0  0
  4  8  1  1  0  0  0
  5  4  1  0  0  0  0
  5  9  1  0  0  0  0
  6  5  1  0  0  0  0
  7  2  1  0  0  0  0
  9  1  1  1  0  0  0
  9  8  1  0  0  0  0
 10 12  1  0  0  0  0
 11 10  1  1  0  0  0
 11 12  1  0  0  0  0
 12 14  1  1  0  0  0
 14 13  1  6  0  0  0
 14 15  1  0  0  0  0
 15 22  1  1  0  0  0
 15 16  1  0  0  0  0
 16 19  1  0  0  0  0
 17 20  2  0  0  0  0
 18 16  2  0  0  0  0
 19 20  1  0  0  0  0
 20 21  1  0  0  0  0
 22 23  1  0  0  0  0
 23 24  1  0  0  0  0
 26 24  1  0  0  0  0
 26 25  2  0  0  0  0
 27  6  1  0  0  0  0
 28 29  2  0  0  0  0
 29 27  1  0  0  0  0
 30 28  2  0  0  0  0
 31 30  1  6  0  0  0
 31 32  1  0  0  0  0
 32 33  3  0  0  0  0
 34 35  2  0  0  0  0
 35 31  1  0  0  0  0
 36 35  1  0  0  0  0
 36 38  1  0  0  0  0
 38 37  2  0  0  0  0
 38 39  1  0  0  0  0
 40 39  1  0  0  0  0
 40 45  1  1  0  0  0
 41 40  1  0  0  0  0
 42 41  1  0  0  0  0
 42 44  1  0  0  0  0
 44 43  1  0  0  0  0
 45 46  1  0  0  0  0
 48 46  1  6  0  0  0
 48 49  1  0  0  0  0
 48 47  1  0  0  0  0
 49 47  1  0  0  0  0
M  END
>  <MODEL>
9

>  <REMARK>
 VINA RESULT:      -2.4      3.389      6.035
  Name = 
  22 active torsions:
  status: ('A' for Active; 'I' for Inactive)
    1  A    between atoms: C_3  and  C_36
    2  A    between atoms: C_5  and  O_37
    3  A    between atoms: C_5  and  N_39
    4  A    between atoms: C_5  and  C_46
    5  A    between atoms: C_7  and  C_8
    6  A    between atoms: C_7  and  O_37
    7  A    between atoms: C_10  and  C_41
    8  A    between atoms: N_12  and  C_18
    9  A    between atoms: N_12  and  C_20
   10  A    between atoms: C_15  and  C_24
   11  A    between atoms: C_17  and  C_23
   12  A    between atoms: C_18  and  C_44
   13  A    between atoms: C_22  and  C_26
   14  A    between atoms: C_23  and  C_28
   15  A    between atoms: C_23  and  C_43
   16  A    between atoms: C_26  and  C_43
   17  A    between atoms: C_27  and  C_47
   18  A    between atoms: N_29  and  C_42
   19  A    between atoms: N_29  and  C_46
   20  A    between atoms: C_31  and  C_36
   21  A    between atoms: C_41  and  C_44
   22  A    between atoms: C_41  and  C_47
                            x       y       z     vdW  Elec       q    Type
                         _______ _______ _______ _____ _____    ______ ____

>  <TORSDO>
F 22

$$$$
