=
 OpenBabel11052410053D

 33 35  0  0  1  0  0  0  0  0999 V2000
  160.6460  203.9560  150.4670 C   0  0  0  0  0  3  0  0  0  0  0  0
  162.1230  208.7140  150.5630 C   0  0  1  0  0  3  0  0  0  0  0  0
  160.8470  206.0420  148.1960 C   0  0  0  0  0  2  0  0  0  0  0  0
  160.8520  208.7990  152.6720 N   0  0  0  0  0  2  0  0  0  0  0  0
  161.0910  204.5590  148.0470 C   0  0  0  0  0  0  0  0  0  0  0  0
  162.1130  209.1550  152.0320 C   0  0  0  0  0  2  0  0  0  0  0  0
  161.0410  207.5810  153.4620 C   0  0  0  0  0  2  0  0  0  0  0  0
  160.9550  205.1110  150.9790 C   0  0  0  0  0  0  0  0  0  0  0  0
  161.4150  207.3680  150.2360 C   0  0  1  0  0  3  0  0  0  0  0  0
  161.8440  206.5040  152.7210 C   0  0  0  0  0  2  0  0  0  0  0  0
  161.9680  206.7720  148.9350 C   0  0  0  0  0  2  0  0  0  0  0  0
  160.9070  203.6700  149.0410 C   0  0  0  0  0  3  0  0  0  0  0  0
  161.3440  206.3050  151.3270 C   0  0  0  0  0  0  0  0  0  0  0  0
  161.8270  209.6950  148.3430 O   0  0  0  0  0  1  0  0  0  0  0  0
  161.6010  209.8820  149.7160 C   0  0  2  0  0  3  0  0  0  0  0  0
  162.0570  211.1900  150.2060 N   0  0  0  0  0  2  0  0  0  0  0  0
  161.1580  212.2690  149.8030 C   0  0  0  0  0  2  0  0  0  0  0  0
  162.9530  213.1330  146.6770 N   0  0  0  0  0  0  0  0  0  0  0  0
  161.9590  213.2420  145.7520 C   0  0  0  0  0  0  0  0  0  0  0  0
  160.6350  213.0350  146.1500 C   0  0  0  0  0  3  0  0  0  0  0  0
  161.4180  212.6330  148.3850 C   0  0  0  0  0  0  0  0  0  0  0  0
  160.3640  212.7240  147.4800 C   0  0  0  0  0  3  0  0  0  0  0  0
  162.6910  212.8350  147.9520 N   0  0  0  0  0  0  0  0  0  0  0  0
  163.4100  213.2770  143.8780 O   0  0  0  0  0  0  0  0  0  0  0  0
  161.3170  214.2150  143.5220 N   0  0  0  0  0  1  0  0  0  0  0  0
  162.2790  213.5700  144.3530 C   0  0  0  0  0  0  0  0  0  0  0  0
  161.3390  204.0020  146.6740 C   0  0  1  0  0  3  0  0  0  0  0  0
  162.4750  204.7090  145.9990 C   0  0  0  0  0  0  0  0  0  0  0  0
  163.6530  204.5970  146.4340 O   0  0  0  0  0  1  0  0  0  0  0  0
  162.2180  205.5240  144.9070 O   0  0  0  0  0  0  0  0  0  0  0  0
  161.5650  202.4920  146.6890 C   0  0  0  0  0  2  0  0  0  0  0  0
  159.9740  201.2990  144.9760 N   0  0  0  0  0  0  0  0  0  0  0  0
  160.6770  201.8250  145.7310 C   0  0  0  0  0  0  0  0  0  0  0  0
  1  8  2  0  0  0  0
  2 15  1  6  0  0  0
  2  6  1  0  0  0  0
  3 11  1  0  0  0  0
  4  7  1  0  0  0  0
  5  3  1  0  0  0  0
  5 12  2  0  0  0  0
  6  4  1  0  0  0  0
  8 13  2  0  0  0  0
  9 11  1  6  0  0  0
  9  2  1  0  0  0  0
  9 13  1  0  0  0  0
 10  7  1  0  0  0  0
 12  1  1  0  0  0  0
 13 10  1  0  0  0  0
 15 14  1  6  0  0  0
 15 16  1  0  0  0  0
 17 16  1  0  0  0  0
 18 23  1  0  0  0  0
 19 20  1  0  0  0  0
 19 18  2  0  0  0  0
 20 22  2  0  0  0  0
 21 17  1  0  0  0  0
 22 21  1  0  0  0  0
 23 21  2  0  0  0  0
 24 26  2  0  0  0  0
 25 26  1  0  0  0  0
 26 19  1  0  0  0  0
 27 31  1  1  0  0  0
 27  5  1  0  0  0  0
 28 29  1  0  0  0  0
 28 27  1  0  0  0  0
 30 28  2  0  0  0  0
 32 33  3  0  0  0  0
 33 31  1  0  0  0  0
M  END
>  <MODEL>
1

>  <REMARK>
 VINA RESULT:      -8.4      0.000      0.000
  Name = 
  9 active torsions:
  status: ('A' for Active; 'I' for Inactive)
    1  A    between atoms: C_3  and  C_18
    2  A    between atoms: C_5  and  C_6
    3  A    between atoms: C_5  and  C_13
    4  A    between atoms: C_5  and  C_15
    5  A    between atoms: C_11  and  C_25
    6  A    between atoms: C_13  and  C_20
    7  A    between atoms: C_14  and  N_16
    8  A    between atoms: C_14  and  C_28
    9  A    between atoms: N_16  and  C_18
                            x       y       z     vdW  Elec       q    Type
                         _______ _______ _______ _____ _____    ______ ____

>  <TORSDO>
F 9

$$$$
=
 OpenBabel11052410053D

 33 35  0  0  1  0  0  0  0  0999 V2000
  160.6330  203.6560  150.8560 C   0  0  0  0  0  3  0  0  0  0  0  0
  161.8900  208.4060  151.6820 C   0  0  1  0  0  3  0  0  0  0  0  0
  160.7200  206.0730  148.9330 C   0  0  0  0  0  2  0  0  0  0  0  0
  160.6320  208.1070  153.7800 N   0  0  0  0  0  2  0  0  0  0  0  0
  161.0320  204.6440  148.5570 C   0  0  0  0  0  0  0  0  0  0  0  0
  161.8700  208.6150  153.2020 C   0  0  0  0  0  2  0  0  0  0  0  0
  160.8830  206.7920  154.3730 C   0  0  0  0  0  2  0  0  0  0  0  0
  160.8930  204.7320  151.5390 C   0  0  0  0  0  0  0  0  0  0  0  0
  161.2420  207.0950  151.1530 C   0  0  1  0  0  3  0  0  0  0  0  0
  161.7290  205.8800  153.4740 C   0  0  0  0  0  2  0  0  0  0  0  0
  161.8120  206.7320  149.7750 C   0  0  0  0  0  2  0  0  0  0  0  0
  160.8960  203.6040  149.4030 C   0  0  0  0  0  3  0  0  0  0  0  0
  161.2280  205.8750  152.0660 C   0  0  0  0  0  0  0  0  0  0  0  0
  162.0510  210.0830  149.9100 O   0  0  0  0  0  1  0  0  0  0  0  0
  161.3080  209.6650  151.0250 C   0  0  2  0  0  3  0  0  0  0  0  0
  161.0500  210.7440  151.9880 N   0  0  0  0  0  2  0  0  0  0  0  0
  160.3150  211.8530  151.3850 C   0  0  0  0  0  2  0  0  0  0  0  0
  157.3580  213.6500  152.7140 N   0  0  0  0  0  0  0  0  0  0  0  0
  156.9770  212.8990  153.7840 C   0  0  0  0  0  0  0  0  0  0  0  0
  157.7100  211.7540  154.1070 C   0  0  0  0  0  3  0  0  0  0  0  0
  159.1620  212.2180  152.2510 C   0  0  0  0  0  0  0  0  0  0  0  0
  158.8130  211.4100  153.3290 C   0  0  0  0  0  3  0  0  0  0  0  0
  158.4160  213.3180  151.9690 N   0  0  0  0  0  0  0  0  0  0  0  0
  155.6440  212.8180  155.7440 O   0  0  0  0  0  0  0  0  0  0  0  0
  154.8440  214.2050  154.0640 N   0  0  0  0  0  1  0  0  0  0  0  0
  155.8040  213.2900  154.5850 C   0  0  0  0  0  0  0  0  0  0  0  0
  161.2950  204.3160  147.1140 C   0  0  1  0  0  3  0  0  0  0  0  0
  162.3930  205.1690  146.5570 C   0  0  0  0  0  0  0  0  0  0  0  0
  162.1300  206.2390  145.9450 O   0  0  0  0  0  0  0  0  0  0  0  0
  163.7100  204.7560  146.6880 O   0  0  0  0  0  1  0  0  0  0  0  0
  161.5880  202.8340  146.8980 C   0  0  0  0  0  2  0  0  0  0  0  0
  160.1100  201.8720  144.9530 N   0  0  0  0  0  0  0  0  0  0  0  0
  160.7610  202.2950  145.8110 C   0  0  0  0  0  0  0  0  0  0  0  0
  1  8  2  0  0  0  0
  2 15  1  6  0  0  0
  2  6  1  0  0  0  0
  3 11  1  0  0  0  0
  4  7  1  0  0  0  0
  5  3  1  0  0  0  0
  5 12  2  0  0  0  0
  6  4  1  0  0  0  0
  8 13  2  0  0  0  0
  9 11  1  6  0  0  0
  9  2  1  0  0  0  0
  9 13  1  0  0  0  0
 10  7  1  0  0  0  0
 12  1  1  0  0  0  0
 13 10  1  0  0  0  0
 15 14  1  6  0  0  0
 15 16  1  0  0  0  0
 17 16  1  0  0  0  0
 17 21  1  0  0  0  0
 18 19  1  0  0  0  0
 19 20  2  0  0  0  0
 19 26  1  0  0  0  0
 21 22  2  0  0  0  0
 22 20  1  0  0  0  0
 23 21  1  0  0  0  0
 23 18  2  0  0  0  0
 25 26  1  0  0  0  0
 26 24  2  0  0  0  0
 27 31  1  1  0  0  0
 27  5  1  0  0  0  0
 28 30  1  0  0  0  0
 28 27  1  0  0  0  0
 29 28  2  0  0  0  0
 32 33  3  0  0  0  0
 33 31  1  0  0  0  0
M  END
>  <MODEL>
2

>  <REMARK>
 VINA RESULT:      -8.2      3.455      5.110
  Name = 
  9 active torsions:
  status: ('A' for Active; 'I' for Inactive)
    1  A    between atoms: C_3  and  C_18
    2  A    between atoms: C_5  and  C_6
    3  A    between atoms: C_5  and  C_13
    4  A    between atoms: C_5  and  C_15
    5  A    between atoms: C_11  and  C_25
    6  A    between atoms: C_13  and  C_20
    7  A    between atoms: C_14  and  N_16
    8  A    between atoms: C_14  and  C_28
    9  A    between atoms: N_16  and  C_18
                            x       y       z     vdW  Elec       q    Type
                         _______ _______ _______ _____ _____    ______ ____

>  <TORSDO>
F 9

$$$$
=
 OpenBabel11052410053D

 33 35  0  0  1  0  0  0  0  0999 V2000
  160.6150  204.2530  151.9950 C   0  0  0  0  0  3  0  0  0  0  0  0
  162.1650  208.8300  150.7820 C   0  0  1  0  0  3  0  0  0  0  0  0
  160.9510  205.5910  149.2300 C   0  0  0  0  0  2  0  0  0  0  0  0
  160.8020  209.5260  152.7140 N   0  0  0  0  0  2  0  0  0  0  0  0
  161.1770  204.1280  149.5280 C   0  0  0  0  0  0  0  0  0  0  0  0
  162.0960  209.6770  152.0590 C   0  0  0  0  0  2  0  0  0  0  0  0
  160.9360  208.5870  153.8310 C   0  0  0  0  0  2  0  0  0  0  0  0
  160.9200  205.5050  152.1650 C   0  0  0  0  0  0  0  0  0  0  0  0
  161.4490  207.4490  150.8250 C   0  0  1  0  0  3  0  0  0  0  0  0
  161.7530  207.3400  153.4710 C   0  0  0  0  0  2  0  0  0  0  0  0
  162.0500  206.5010  149.7790 C   0  0  0  0  0  2  0  0  0  0  0  0
  160.9340  203.5650  150.7260 C   0  0  0  0  0  3  0  0  0  0  0  0
  161.3120  206.7480  152.1710 C   0  0  0  0  0  0  0  0  0  0  0  0
  161.8990  209.0870  148.3660 O   0  0  0  0  0  1  0  0  0  0  0  0
  161.7000  209.7050  149.6100 C   0  0  2  0  0  3  0  0  0  0  0  0
  162.2350  211.0720  149.6710 N   0  0  0  0  0  2  0  0  0  0  0  0
  161.2300  212.0700  149.3140 C   0  0  0  0  0  2  0  0  0  0  0  0
  160.3110  212.4870  145.7470 N   0  0  0  0  0  0  0  0  0  0  0  0
  161.4370  213.0010  145.1800 C   0  0  0  0  0  0  0  0  0  0  0  0
  162.5600  213.2240  145.9820 C   0  0  0  0  0  3  0  0  0  0  0  0
  161.3280  212.3800  147.8620 C   0  0  0  0  0  0  0  0  0  0  0  0
  162.5020  212.9110  147.3370 C   0  0  0  0  0  3  0  0  0  0  0  0
  160.2570  212.1880  147.0470 N   0  0  0  0  0  0  0  0  0  0  0  0
  160.6190  214.1230  143.2580 O   0  0  0  0  0  0  0  0  0  0  0  0
  162.4460  212.7410  142.8900 N   0  0  0  0  0  1  0  0  0  0  0  0
  161.4650  213.3230  143.7430 C   0  0  0  0  0  0  0  0  0  0  0  0
  161.4770  203.1960  148.3870 C   0  0  1  0  0  3  0  0  0  0  0  0
  160.7920  201.8770  148.5730 C   0  0  0  0  0  0  0  0  0  0  0  0
  159.5360  201.7880  148.5150 O   0  0  0  0  0  0  0  0  0  0  0  0
  161.5510  200.7480  148.8470 O   0  0  0  0  0  1  0  0  0  0  0  0
  161.1330  203.8060  147.0310 C   0  0  0  0  0  2  0  0  0  0  0  0
  163.2800  204.7980  145.8920 N   0  0  0  0  0  0  0  0  0  0  0  0
  162.3330  204.3600  146.3930 C   0  0  0  0  0  0  0  0  0  0  0  0
  1  8  2  0  0  0  0
  2 15  1  6  0  0  0
  2  9  1  0  0  0  0
  2  6  1  0  0  0  0
  3  5  1  0  0  0  0
  3 11  1  0  0  0  0
  4  7  1  0  0  0  0
  5 12  2  0  0  0  0
  6  4  1  0  0  0  0
  8 13  2  0  0  0  0
  9 11  1  6  0  0  0
  9 13  1  0  0  0  0
 10  7  1  0  0  0  0
 12  1  1  0  0  0  0
 13 10  1  0  0  0  0
 15 14  1  6  0  0  0
 15 16  1  0  0  0  0
 17 16  1  0  0  0  0
 18 23  1  0  0  0  0
 19 18  2  0  0  0  0
 19 20  1  0  0  0  0
 20 22  2  0  0  0  0
 21 17  1  0  0  0  0
 22 21  1  0  0  0  0
 23 21  2  0  0  0  0
 24 26  2  0  0  0  0
 25 26  1  0  0  0  0
 26 19  1  0  0  0  0
 27 31  1  6  0  0  0
 27 28  1  0  0  0  0
 27  5  1  0  0  0  0
 28 30  1  0  0  0  0
 29 28  2  0  0  0  0
 32 33  3  0  0  0  0
 33 31  1  0  0  0  0
M  END
>  <MODEL>
3

>  <REMARK>
 VINA RESULT:      -8.2      1.963      2.337
  Name = 
  9 active torsions:
  status: ('A' for Active; 'I' for Inactive)
    1  A    between atoms: C_3  and  C_18
    2  A    between atoms: C_5  and  C_6
    3  A    between atoms: C_5  and  C_13
    4  A    between atoms: C_5  and  C_15
    5  A    between atoms: C_11  and  C_25
    6  A    between atoms: C_13  and  C_20
    7  A    between atoms: C_14  and  N_16
    8  A    between atoms: C_14  and  C_28
    9  A    between atoms: N_16  and  C_18
                            x       y       z     vdW  Elec       q    Type
                         _______ _______ _______ _____ _____    ______ ____

>  <TORSDO>
F 9

$$$$
=
 OpenBabel11052410053D

 33 35  0  0  1  0  0  0  0  0999 V2000
  160.0700  212.0840  152.3960 C   0  0  0  0  0  3  0  0  0  0  0  0
  161.9780  207.4820  152.3070 C   0  0  1  0  0  3  0  0  0  0  0  0
  159.6850  209.7130  154.3410 C   0  0  0  0  0  2  0  0  0  0  0  0
  161.5370  207.6220  149.8870 N   0  0  0  0  0  2  0  0  0  0  0  0
  159.7060  211.1720  154.7320 C   0  0  0  0  0  0  0  0  0  0  0  0
  162.5260  207.2530  150.8930 C   0  0  0  0  0  2  0  0  0  0  0  0
  161.8610  208.9490  149.3580 C   0  0  0  0  0  2  0  0  0  0  0  0
  160.6580  211.0330  151.9040 C   0  0  0  0  0  0  0  0  0  0  0  0
  161.0630  208.7240  152.5060 C   0  0  1  0  0  3  0  0  0  0  0  0
  162.2380  209.9550  150.4540 C   0  0  0  0  0  2  0  0  0  0  0  0
  161.0630  209.1610  153.9770 C   0  0  0  0  0  2  0  0  0  0  0  0
  159.7870  212.1800  153.8440 C   0  0  0  0  0  3  0  0  0  0  0  0
  161.2650  209.9250  151.5880 C   0  0  0  0  0  0  0  0  0  0  0  0
  161.3180  206.0450  154.1710 O   0  0  0  0  0  1  0  0  0  0  0  0
  161.3190  206.1770  152.7740 C   0  0  2  0  0  3  0  0  0  0  0  0
  161.8420  204.9930  152.0800 N   0  0  0  0  0  2  0  0  0  0  0  0
  160.8500  203.9240  151.9960 C   0  0  0  0  0  2  0  0  0  0  0  0
  161.0030  201.2920  149.3900 N   0  0  0  0  0  0  0  0  0  0  0  0
  161.0310  201.9930  148.2230 C   0  0  0  0  0  0  0  0  0  0  0  0
  161.0070  203.3890  148.2680 C   0  0  0  0  0  3  0  0  0  0  0  0
  160.9380  203.2640  150.6660 C   0  0  0  0  0  0  0  0  0  0  0  0
  160.9570  204.0300  149.5040 C   0  0  0  0  0  3  0  0  0  0  0  0
  160.9550  201.9080  150.5740 N   0  0  0  0  0  0  0  0  0  0  0  0
  161.3200  200.0460  146.9010 O   0  0  0  0  0  0  0  0  0  0  0  0
  160.8600  201.9860  145.7130 N   0  0  0  0  0  1  0  0  0  0  0  0
  161.0820  201.2840  146.9330 C   0  0  0  0  0  0  0  0  0  0  0  0
  159.4000  211.5430  156.1560 C   0  0  1  0  0  3  0  0  0  0  0  0
  160.5820  212.1880  156.8120 C   0  0  0  0  0  0  0  0  0  0  0  0
  161.6440  211.5380  157.0080 O   0  0  0  0  0  0  0  0  0  0  0  0
  160.4900  213.5040  157.2400 O   0  0  0  0  0  1  0  0  0  0  0  0
  158.1590  212.4220  156.2750 C   0  0  0  0  0  2  0  0  0  0  0  0
  156.0180  211.1140  155.5010 N   0  0  0  0  0  0  0  0  0  0  0  0
  156.9620  211.6920  155.8410 C   0  0  0  0  0  0  0  0  0  0  0  0
  1 12  1  0  0  0  0
  2  9  1  0  0  0  0
  2 15  1  6  0  0  0
  3  5  1  0  0  0  0
  4  6  1  0  0  0  0
  5 27  1  0  0  0  0
  6  2  1  0  0  0  0
  7  4  1  0  0  0  0
  7 10  1  0  0  0  0
  8  1  2  0  0  0  0
  9 11  1  1  0  0  0
 10 13  1  0  0  0  0
 11  3  1  0  0  0  0
 12  5  2  0  0  0  0
 13  8  2  0  0  0  0
 13  9  1  0  0  0  0
 15 14  1  1  0  0  0
 16 15  1  0  0  0  0
 17 16  1  0  0  0  0
 18 23  1  0  0  0  0
 19 20  1  0  0  0  0
 19 18  2  0  0  0  0
 20 22  2  0  0  0  0
 21 17  1  0  0  0  0
 22 21  1  0  0  0  0
 23 21  2  0  0  0  0
 24 26  2  0  0  0  0
 25 26  1  0  0  0  0
 26 19  1  0  0  0  0
 27 31  1  6  0  0  0
 27 28  1  0  0  0  0
 28 29  2  0  0  0  0
 28 30  1  0  0  0  0
 32 33  3  0  0  0  0
 33 31  1  0  0  0  0
M  END
>  <MODEL>
4

>  <REMARK>
 VINA RESULT:      -7.8      4.407      9.811
  Name = 
  9 active torsions:
  status: ('A' for Active; 'I' for Inactive)
    1  A    between atoms: C_3  and  C_18
    2  A    between atoms: C_5  and  C_6
    3  A    between atoms: C_5  and  C_13
    4  A    between atoms: C_5  and  C_15
    5  A    between atoms: C_11  and  C_25
    6  A    between atoms: C_13  and  C_20
    7  A    between atoms: C_14  and  N_16
    8  A    between atoms: C_14  and  C_28
    9  A    between atoms: N_16  and  C_18
                            x       y       z     vdW  Elec       q    Type
                         _______ _______ _______ _____ _____    ______ ____

>  <TORSDO>
F 9

$$$$
=
 OpenBabel11052410053D

 33 35  0  0  1  0  0  0  0  0999 V2000
  161.0460  207.7520  155.3500 C   0  0  0  0  0  3  0  0  0  0  0  0
  160.9000  206.7850  150.4640 C   0  0  1  0  0  3  0  0  0  0  0  0
  161.4760  209.6140  152.9210 C   0  0  0  0  0  2  0  0  0  0  0  0
  162.0880  204.7210  151.0970 N   0  0  0  0  0  2  0  0  0  0  0  0
  160.8460  210.0170  154.2330 C   0  0  0  0  0  0  0  0  0  0  0  0
  160.9870  205.2610  150.3080 C   0  0  0  0  0  2  0  0  0  0  0  0
  161.5560  204.1550  152.3390 C   0  0  0  0  0  2  0  0  0  0  0  0
  161.0440  207.0380  154.2630 C   0  0  0  0  0  0  0  0  0  0  0  0
  161.2290  207.3590  151.8720 C   0  0  1  0  0  3  0  0  0  0  0  0
  160.5140  205.0580  153.0110 C   0  0  0  0  0  2  0  0  0  0  0  0
  160.5730  208.7340  152.0580 C   0  0  0  0  0  2  0  0  0  0  0  0
  160.7570  209.2010  155.3000 C   0  0  0  0  0  3  0  0  0  0  0  0
  160.9810  206.4760  153.0890 C   0  0  0  0  0  0  0  0  0  0  0  0
  161.9970  208.7830  149.5810 O   0  0  0  0  0  1  0  0  0  0  0  0
  161.7400  207.4230  149.3500 C   0  0  2  0  0  3  0  0  0  0  0  0
  161.2060  207.1520  148.0080 N   0  0  0  0  0  2  0  0  0  0  0  0
  162.2220  206.5950  147.1170 C   0  0  0  0  0  2  0  0  0  0  0  0
  161.5810  202.9490  147.3090 N   0  0  0  0  0  0  0  0  0  0  0  0
  161.0820  202.6420  146.0800 C   0  0  0  0  0  0  0  0  0  0  0  0
  160.9460  203.6580  145.1290 C   0  0  0  0  0  3  0  0  0  0  0  0
  161.8400  205.2110  146.7280 C   0  0  0  0  0  0  0  0  0  0  0  0
  161.3280  204.9560  145.4590 C   0  0  0  0  0  3  0  0  0  0  0  0
  161.9460  204.1940  147.6240 N   0  0  0  0  0  0  0  0  0  0  0  0
  161.2060  200.2950  146.3860 O   0  0  0  0  0  0  0  0  0  0  0  0
  159.7130  200.9990  144.7550 N   0  0  0  0  0  1  0  0  0  0  0  0
  160.6860  201.2600  145.7630 C   0  0  0  0  0  0  0  0  0  0  0  0
  160.4960  211.4620  154.4520 C   0  0  1  0  0  3  0  0  0  0  0  0
  159.5170  211.9440  153.4250 C   0  0  0  0  0  0  0  0  0  0  0  0
  159.8680  212.7630  152.5340 O   0  0  0  0  0  0  0  0  0  0  0  0
  158.2020  211.5070  153.4790 O   0  0  0  0  0  1  0  0  0  0  0  0
  159.9850  211.7300  155.8650 C   0  0  0  0  0  2  0  0  0  0  0  0
  159.7060  214.3070  156.2770 N   0  0  0  0  0  0  0  0  0  0  0  0
  159.8300  213.1710  156.0960 C   0  0  0  0  0  0  0  0  0  0  0  0
  2 15  1  6  0  0  0
  2  9  1  0  0  0  0
  3  5  1  0  0  0  0
  4  7  1  0  0  0  0
  5 27  1  0  0  0  0
  5 12  2  0  0  0  0
  6  2  1  0  0  0  0
  6  4  1  0  0  0  0
  7 10  1  0  0  0  0
  8  1  2  0  0  0  0
  9 11  1  1  0  0  0
  9 13  1  0  0  0  0
 10 13  1  0  0  0  0
 11  3  1  0  0  0  0
 12  1  1  0  0  0  0
 13  8  2  0  0  0  0
 15 14  1  1  0  0  0
 16 15  1  0  0  0  0
 17 16  1  0  0  0  0
 18 23  1  0  0  0  0
 19 18  2  0  0  0  0
 20 22  2  0  0  0  0
 20 19  1  0  0  0  0
 21 17  1  0  0  0  0
 21 23  2  0  0  0  0
 22 21  1  0  0  0  0
 25 26  1  0  0  0  0
 26 19  1  0  0  0  0
 26 24  2  0  0  0  0
 27 31  1  1  0  0  0
 28 30  1  0  0  0  0
 28 27  1  0  0  0  0
 29 28  2  0  0  0  0
 31 33  1  0  0  0  0
 33 32  3  0  0  0  0
M  END
>  <MODEL>
5

>  <REMARK>
 VINA RESULT:      -7.7      4.099      8.851
  Name = 
  9 active torsions:
  status: ('A' for Active; 'I' for Inactive)
    1  A    between atoms: C_3  and  C_18
    2  A    between atoms: C_5  and  C_6
    3  A    between atoms: C_5  and  C_13
    4  A    between atoms: C_5  and  C_15
    5  A    between atoms: C_11  and  C_25
    6  A    between atoms: C_13  and  C_20
    7  A    between atoms: C_14  and  N_16
    8  A    between atoms: C_14  and  C_28
    9  A    between atoms: N_16  and  C_18
                            x       y       z     vdW  Elec       q    Type
                         _______ _______ _______ _____ _____    ______ ____

>  <TORSDO>
F 9

$$$$
=
 OpenBabel11052410053D

 33 35  0  0  1  0  0  0  0  0999 V2000
  162.2740  205.5030  146.9270 C   0  0  0  0  0  3  0  0  0  0  0  0
  160.8320  206.9670  151.4660 C   0  0  1  0  0  3  0  0  0  0  0  0
  161.8280  203.8730  149.5150 C   0  0  0  0  0  2  0  0  0  0  0  0
  162.3300  208.8780  151.0450 N   0  0  0  0  0  2  0  0  0  0  0  0
  161.5640  203.3790  148.1120 C   0  0  0  0  0  0  0  0  0  0  0  0
  161.0070  208.4910  151.5190 C   0  0  0  0  0  2  0  0  0  0  0  0
  162.2260  209.3470  149.6620 C   0  0  0  0  0  2  0  0  0  0  0  0
  162.0270  206.3220  147.9060 C   0  0  0  0  0  0  0  0  0  0  0  0
  161.4950  206.2340  150.2650 C   0  0  1  0  0  3  0  0  0  0  0  0
  161.3420  208.4470  148.7880 C   0  0  0  0  0  2  0  0  0  0  0  0
  160.7990  204.8910  150.0050 C   0  0  0  0  0  2  0  0  0  0  0  0
  161.8550  204.0870  147.0050 C   0  0  0  0  0  3  0  0  0  0  0  0
  161.6840  207.0030  148.9620 C   0  0  0  0  0  0  0  0  0  0  0  0
  161.3580  204.9950  152.8100 O   0  0  0  0  0  1  0  0  0  0  0  0
  161.2600  206.3950  152.8230 C   0  0  2  0  0  3  0  0  0  0  0  0
  160.4550  206.9100  153.9390 N   0  0  0  0  0  2  0  0  0  0  0  0
  161.2840  207.5210  154.9760 C   0  0  0  0  0  2  0  0  0  0  0  0
  161.2430  211.2250  154.8340 N   0  0  0  0  0  0  0  0  0  0  0  0
  160.0940  211.5620  155.4820 C   0  0  0  0  0  0  0  0  0  0  0  0
  159.2850  210.5470  156.0020 C   0  0  0  0  0  3  0  0  0  0  0  0
  160.8640  208.9330  155.1830 C   0  0  0  0  0  0  0  0  0  0  0  0
  159.6740  209.2190  155.8470 C   0  0  0  0  0  3  0  0  0  0  0  0
  161.6150  209.9510  154.6870 N   0  0  0  0  0  0  0  0  0  0  0  0
  160.0510  213.6220  156.6550 O   0  0  0  0  0  0  0  0  0  0  0  0
  158.9550  213.6280  154.6090 N   0  0  0  0  0  1  0  0  0  0  0  0
  159.7100  212.9760  155.6260 C   0  0  0  0  0  0  0  0  0  0  0  0
  161.1630  201.9440  147.9150 C   0  0  1  0  0  3  0  0  0  0  0  0
  160.2940  201.4660  149.0380 C   0  0  0  0  0  0  0  0  0  0  0  0
  159.0470  201.6480  149.0100 O   0  0  0  0  0  0  0  0  0  0  0  0
  160.8750  200.8490  150.1360 O   0  0  0  0  0  1  0  0  0  0  0  0
  160.4950  201.7060  146.5650 C   0  0  0  0  0  2  0  0  0  0  0  0
  161.1000  199.3260  145.6360 N   0  0  0  0  0  0  0  0  0  0  0  0
  160.8320  200.3750  146.0460 C   0  0  0  0  0  0  0  0  0  0  0  0
  1 12  1  0  0  0  0
  1  8  2  0  0  0  0
  2  6  1  0  0  0  0
  2 15  1  1  0  0  0
  3 11  1  0  0  0  0
  4  6  1  0  0  0  0
  5  3  1  0  0  0  0
  7  4  1  0  0  0  0
  8 13  2  0  0  0  0
  9 11  1  6  0  0  0
  9  2  1  0  0  0  0
 10 13  1  0  0  0  0
 10  7  1  0  0  0  0
 12  5  2  0  0  0  0
 13  9  1  0  0  0  0
 15 14  1  6  0  0  0
 15 16  1  0  0  0  0
 16 17  1  0  0  0  0
 17 21  1  0  0  0  0
 18 19  1  0  0  0  0
 19 26  1  0  0  0  0
 19 20  2  0  0  0  0
 21 22  2  0  0  0  0
 22 20  1  0  0  0  0
 23 18  2  0  0  0  0
 23 21  1  0  0  0  0
 25 26  1  0  0  0  0
 26 24  2  0  0  0  0
 27 31  1  6  0  0  0
 27  5  1  0  0  0  0
 27 28  1  0  0  0  0
 28 30  1  0  0  0  0
 29 28  2  0  0  0  0
 32 33  3  0  0  0  0
 33 31  1  0  0  0  0
M  END
>  <MODEL>
6

>  <REMARK>
 VINA RESULT:      -7.6      4.279      6.273
  Name = 
  9 active torsions:
  status: ('A' for Active; 'I' for Inactive)
    1  A    between atoms: C_3  and  C_18
    2  A    between atoms: C_5  and  C_6
    3  A    between atoms: C_5  and  C_13
    4  A    between atoms: C_5  and  C_15
    5  A    between atoms: C_11  and  C_25
    6  A    between atoms: C_13  and  C_20
    7  A    between atoms: C_14  and  N_16
    8  A    between atoms: C_14  and  C_28
    9  A    between atoms: N_16  and  C_18
                            x       y       z     vdW  Elec       q    Type
                         _______ _______ _______ _____ _____    ______ ____

>  <TORSDO>
F 9

$$$$
=
 OpenBabel11052410053D

 33 35  0  0  1  0  0  0  0  0999 V2000
  160.8830  204.6050  150.6250 C   0  0  0  0  0  3  0  0  0  0  0  0
  161.7560  209.1880  152.3760 C   0  0  1  0  0  3  0  0  0  0  0  0
  160.9130  207.3360  149.1770 C   0  0  0  0  0  2  0  0  0  0  0  0
  160.4030  208.4350  154.2930 N   0  0  0  0  0  2  0  0  0  0  0  0
  161.3440  206.0200  148.5740 C   0  0  0  0  0  0  0  0  0  0  0  0
  161.6340  209.1120  153.9030 C   0  0  0  0  0  2  0  0  0  0  0  0
  160.7100  207.0500  154.6570 C   0  0  0  0  0  2  0  0  0  0  0  0
  161.0270  205.5500  151.5060 C   0  0  0  0  0  0  0  0  0  0  0  0
  161.2320  207.9600  151.5760 C   0  0  1  0  0  3  0  0  0  0  0  0
  161.6690  206.3710  153.6700 C   0  0  0  0  0  2  0  0  0  0  0  0
  161.9050  207.8910  150.1980 C   0  0  0  0  0  2  0  0  0  0  0  0
  161.2330  204.8370  149.2070 C   0  0  0  0  0  3  0  0  0  0  0  0
  161.2510  206.5950  152.2520 C   0  0  0  0  0  0  0  0  0  0  0  0
  159.7390  210.5460  152.1250 O   0  0  0  0  0  1  0  0  0  0  0  0
  161.1260  210.5100  151.9160 C   0  0  2  0  0  3  0  0  0  0  0  0
  161.5180  210.8830  150.5510 N   0  0  0  0  0  2  0  0  0  0  0  0
  161.1250  212.2520  150.2230 C   0  0  0  0  0  2  0  0  0  0  0  0
  162.9640  212.8650  147.0640 N   0  0  0  0  0  0  0  0  0  0  0  0
  161.9790  212.9560  146.1280 C   0  0  0  0  0  0  0  0  0  0  0  0
  160.6470  212.8200  146.5280 C   0  0  0  0  0  3  0  0  0  0  0  0
  161.4050  212.5220  148.7880 C   0  0  0  0  0  0  0  0  0  0  0  0
  160.3590  212.5980  147.8720 C   0  0  0  0  0  3  0  0  0  0  0  0
  162.6860  212.6530  148.3520 N   0  0  0  0  0  0  0  0  0  0  0  0
  163.5200  213.1430  144.3360 O   0  0  0  0  0  0  0  0  0  0  0  0
  161.2950  213.4640  143.7610 N   0  0  0  0  0  1  0  0  0  0  0  0
  162.3180  213.1890  144.7140 C   0  0  0  0  0  0  0  0  0  0  0  0
  161.7120  205.9790  147.1180 C   0  0  1  0  0  3  0  0  0  0  0  0
  162.3810  204.6850  146.7650 C   0  0  0  0  0  0  0  0  0  0  0  0
  163.5950  204.6570  146.4300 O   0  0  0  0  0  0  0  0  0  0  0  0
  161.6410  203.5110  146.7740 O   0  0  0  0  0  1  0  0  0  0  0  0
  160.5170  206.2450  146.2070 C   0  0  0  0  0  2  0  0  0  0  0  0
  161.1150  205.6960  143.7110 N   0  0  0  0  0  0  0  0  0  0  0  0
  160.8510  205.9390  144.8110 C   0  0  0  0  0  0  0  0  0  0  0  0
  1  8  2  0  0  0  0
  2 15  1  6  0  0  0
  2  6  1  0  0  0  0
  3 11  1  0  0  0  0
  4  7  1  0  0  0  0
  5  3  1  0  0  0  0
  5 12  2  0  0  0  0
  6  4  1  0  0  0  0
  8 13  2  0  0  0  0
  9 11  1  6  0  0  0
  9 13  1  0  0  0  0
  9  2  1  0  0  0  0
 10  7  1  0  0  0  0
 12  1  1  0  0  0  0
 13 10  1  0  0  0  0
 15 14  1  6  0  0  0
 16 15  1  0  0  0  0
 17 16  1  0  0  0  0
 18 23  1  0  0  0  0
 19 20  1  0  0  0  0
 19 18  2  0  0  0  0
 20 22  2  0  0  0  0
 21 17  1  0  0  0  0
 22 21  1  0  0  0  0
 23 21  2  0  0  0  0
 24 26  2  0  0  0  0
 25 26  1  0  0  0  0
 26 19  1  0  0  0  0
 27 31  1  6  0  0  0
 27  5  1  0  0  0  0
 28 30  1  0  0  0  0
 28 27  1  0  0  0  0
 29 28  2  0  0  0  0
 32 33  3  0  0  0  0
 33 31  1  0  0  0  0
M  END
>  <MODEL>
7

>  <REMARK>
 VINA RESULT:      -7.5      1.620      1.928
  Name = 
  9 active torsions:
  status: ('A' for Active; 'I' for Inactive)
    1  A    between atoms: C_3  and  C_18
    2  A    between atoms: C_5  and  C_6
    3  A    between atoms: C_5  and  C_13
    4  A    between atoms: C_5  and  C_15
    5  A    between atoms: C_11  and  C_25
    6  A    between atoms: C_13  and  C_20
    7  A    between atoms: C_14  and  N_16
    8  A    between atoms: C_14  and  C_28
    9  A    between atoms: N_16  and  C_18
                            x       y       z     vdW  Elec       q    Type
                         _______ _______ _______ _____ _____    ______ ____

>  <TORSDO>
F 9

$$$$
=
 OpenBabel11052410053D

 33 35  0  0  1  0  0  0  0  0999 V2000
  161.2510  206.2130  154.0420 C   0  0  0  0  0  3  0  0  0  0  0  0
  160.7600  211.1690  153.8690 C   0  0  1  0  0  3  0  0  0  0  0  0
  160.6770  208.0920  151.6560 C   0  0  0  0  0  2  0  0  0  0  0  0
  159.5080  210.8610  155.9690 N   0  0  0  0  0  2  0  0  0  0  0  0
  161.4820  206.8150  151.5920 C   0  0  0  0  0  0  0  0  0  0  0  0
  160.5450  211.6460  155.3110 C   0  0  0  0  0  2  0  0  0  0  0  0
  160.1380  209.8560  156.8270 C   0  0  0  0  0  2  0  0  0  0  0  0
  161.0760  207.4230  154.4880 C   0  0  0  0  0  0  0  0  0  0  0  0
  160.6380  209.6380  153.6190 C   0  0  1  0  0  3  0  0  0  0  0  0
  161.3130  209.1400  156.1490 C   0  0  0  0  0  2  0  0  0  0  0  0
  161.4090  209.2380  152.3540 C   0  0  0  0  0  2  0  0  0  0  0  0
  161.6360  205.9770  152.6340 C   0  0  0  0  0  3  0  0  0  0  0  0
  160.9610  208.6900  154.7670 C   0  0  0  0  0  0  0  0  0  0  0  0
  158.5850  211.4010  152.7770 O   0  0  0  0  0  1  0  0  0  0  0  0
  159.8440  211.9950  152.9570 C   0  0  2  0  0  3  0  0  0  0  0  0
  160.4910  212.3760  151.6940 N   0  0  0  0  0  2  0  0  0  0  0  0
  159.7610  213.4380  151.0030 C   0  0  0  0  0  2  0  0  0  0  0  0
  161.2730  212.5990  147.7240 N   0  0  0  0  0  0  0  0  0  0  0  0
  160.3140  212.9540  146.8250 C   0  0  0  0  0  0  0  0  0  0  0  0
  159.1140  213.5000  147.2910 C   0  0  0  0  0  3  0  0  0  0  0  0
  159.9470  213.2970  149.5340 C   0  0  0  0  0  0  0  0  0  0  0  0
  158.9300  213.6700  148.6600 C   0  0  0  0  0  3  0  0  0  0  0  0
  161.0940  212.7630  149.0370 N   0  0  0  0  0  0  0  0  0  0  0  0
  161.6750  212.9860  144.8840 O   0  0  0  0  0  0  0  0  0  0  0  0
  159.4830  212.3090  144.5400 N   0  0  0  0  0  1  0  0  0  0  0  0
  160.5390  212.7590  145.3830 C   0  0  0  0  0  0  0  0  0  0  0  0
  161.9580  206.3280  150.2530 C   0  0  1  0  0  3  0  0  0  0  0  0
  161.0190  205.3100  149.6820 C   0  0  0  0  0  0  0  0  0  0  0  0
  159.8500  205.6330  149.3390 O   0  0  0  0  0  0  0  0  0  0  0  0
  161.4310  203.9910  149.5650 O   0  0  0  0  0  1  0  0  0  0  0  0
  162.1950  207.4690  149.2680 C   0  0  0  0  0  2  0  0  0  0  0  0
  162.2650  206.5700  146.8030 N   0  0  0  0  0  0  0  0  0  0  0  0
  162.2340  206.9650  147.8900 C   0  0  0  0  0  0  0  0  0  0  0  0
  1  8  2  0  0  0  0
  2 15  1  6  0  0  0
  2  6  1  0  0  0  0
  3 11  1  0  0  0  0
  4  7  1  0  0  0  0
  5  3  1  0  0  0  0
  5 12  2  0  0  0  0
  6  4  1  0  0  0  0
  8 13  2  0  0  0  0
  9 11  1  6  0  0  0
  9  2  1  0  0  0  0
  9 13  1  0  0  0  0
 10  7  1  0  0  0  0
 12  1  1  0  0  0  0
 13 10  1  0  0  0  0
 15 14  1  6  0  0  0
 16 15  1  0  0  0  0
 17 16  1  0  0  0  0
 18 23  1  0  0  0  0
 19 20  1  0  0  0  0
 19 18  2  0  0  0  0
 20 22  2  0  0  0  0
 21 17  1  0  0  0  0
 22 21  1  0  0  0  0
 23 21  2  0  0  0  0
 24 26  2  0  0  0  0
 25 26  1  0  0  0  0
 26 19  1  0  0  0  0
 27 31  1  6  0  0  0
 27  5  1  0  0  0  0
 28 27  1  0  0  0  0
 29 28  2  0  0  0  0
 30 28  1  0  0  0  0
 32 33  3  0  0  0  0
 33 31  1  0  0  0  0
M  END
>  <MODEL>
8

>  <REMARK>
 VINA RESULT:      -7.1      2.730      3.973
  Name = 
  9 active torsions:
  status: ('A' for Active; 'I' for Inactive)
    1  A    between atoms: C_3  and  C_18
    2  A    between atoms: C_5  and  C_6
    3  A    between atoms: C_5  and  C_13
    4  A    between atoms: C_5  and  C_15
    5  A    between atoms: C_11  and  C_25
    6  A    between atoms: C_13  and  C_20
    7  A    between atoms: C_14  and  N_16
    8  A    between atoms: C_14  and  C_28
    9  A    between atoms: N_16  and  C_18
                            x       y       z     vdW  Elec       q    Type
                         _______ _______ _______ _____ _____    ______ ____

>  <TORSDO>
F 9

$$$$
=
 OpenBabel11052410053D

 33 35  0  0  1  0  0  0  0  0999 V2000
  160.5430  202.6280  149.8870 C   0  0  0  0  0  3  0  0  0  0  0  0
  162.1380  207.3380  150.2130 C   0  0  1  0  0  3  0  0  0  0  0  0
  160.8120  204.8120  147.7170 C   0  0  0  0  0  2  0  0  0  0  0  0
  160.8550  207.3560  152.3170 N   0  0  0  0  0  2  0  0  0  0  0  0
  161.0200  203.3320  147.5000 C   0  0  0  0  0  0  0  0  0  0  0  0
  162.1290  207.7090  151.7020 C   0  0  0  0  0  2  0  0  0  0  0  0
  161.0090  206.0980  153.0510 C   0  0  0  0  0  2  0  0  0  0  0  0
  160.8780  203.7500  150.4530 C   0  0  0  0  0  0  0  0  0  0  0  0
  161.3990  206.0270  149.8200 C   0  0  1  0  0  3  0  0  0  0  0  0
  161.7890  205.0370  152.2640 C   0  0  0  0  0  2  0  0  0  0  0  0
  161.9450  205.4780  148.4950 C   0  0  0  0  0  2  0  0  0  0  0  0
  160.8060  202.4020  148.4500 C   0  0  0  0  0  3  0  0  0  0  0  0
  161.2930  204.9160  150.8590 C   0  0  0  0  0  0  0  0  0  0  0  0
  161.2960  208.2330  148.1010 O   0  0  0  0  0  1  0  0  0  0  0  0
  161.6510  208.5570  149.4190 C   0  0  2  0  0  3  0  0  0  0  0  0
  162.5710  209.6990  149.5080 N   0  0  0  0  0  2  0  0  0  0  0  0
  161.8590  210.9610  149.7000 C   0  0  0  0  0  2  0  0  0  0  0  0
  163.0820  212.8130  146.7310 N   0  0  0  0  0  0  0  0  0  0  0  0
  161.9440  213.1200  146.0490 C   0  0  0  0  0  0  0  0  0  0  0  0
  160.7100  212.7190  146.5700 C   0  0  0  0  0  3  0  0  0  0  0  0
  161.8680  211.7370  148.4320 C   0  0  0  0  0  0  0  0  0  0  0  0
  160.6750  212.0180  147.7730 C   0  0  0  0  0  3  0  0  0  0  0  0
  163.0460  212.1410  147.8840 N   0  0  0  0  0  0  0  0  0  0  0  0
  163.0840  214.4460  144.4480 O   0  0  0  0  0  0  0  0  0  0  0  0
  160.8880  213.9200  143.9100 N   0  0  0  0  0  1  0  0  0  0  0  0
  162.0160  213.8610  144.7790 C   0  0  0  0  0  0  0  0  0  0  0  0
  161.2630  202.8330  146.1030 C   0  0  1  0  0  3  0  0  0  0  0  0
  160.7890  201.4210  145.9430 C   0  0  0  0  0  0  0  0  0  0  0  0
  161.2110  200.5090  146.7040 O   0  0  0  0  0  1  0  0  0  0  0  0
  159.9020  201.1110  144.9220 O   0  0  0  0  0  0  0  0  0  0  0  0
  160.6460  203.7420  145.0440 C   0  0  0  0  0  2  0  0  0  0  0  0
  162.2510  205.7440  144.4920 N   0  0  0  0  0  0  0  0  0  0  0  0
  161.5430  204.8610  144.7340 C   0  0  0  0  0  0  0  0  0  0  0  0
  1  8  2  0  0  0  0
  2 15  1  6  0  0  0
  2  6  1  0  0  0  0
  3 11  1  0  0  0  0
  4  7  1  0  0  0  0
  5  3  1  0  0  0  0
  5 12  2  0  0  0  0
  6  4  1  0  0  0  0
  8 13  2  0  0  0  0
  9 11  1  6  0  0  0
  9  2  1  0  0  0  0
  9 13  1  0  0  0  0
 10  7  1  0  0  0  0
 12  1  1  0  0  0  0
 13 10  1  0  0  0  0
 15 14  1  6  0  0  0
 15 16  1  0  0  0  0
 16 17  1  0  0  0  0
 18 23  1  0  0  0  0
 19 20  1  0  0  0  0
 19 18  2  0  0  0  0
 20 22  2  0  0  0  0
 21 17  1  0  0  0  0
 22 21  1  0  0  0  0
 23 21  2  0  0  0  0
 24 26  2  0  0  0  0
 25 26  1  0  0  0  0
 26 19  1  0  0  0  0
 27 31  1  6  0  0  0
 27  5  1  0  0  0  0
 28 27  1  0  0  0  0
 28 29  1  0  0  0  0
 30 28  2  0  0  0  0
 32 33  3  0  0  0  0
 33 31  1  0  0  0  0
M  END
>  <MODEL>
9

>  <REMARK>
 VINA RESULT:      -7.1      1.826      2.103
  Name = 
  9 active torsions:
  status: ('A' for Active; 'I' for Inactive)
    1  A    between atoms: C_3  and  C_18
    2  A    between atoms: C_5  and  C_6
    3  A    between atoms: C_5  and  C_13
    4  A    between atoms: C_5  and  C_15
    5  A    between atoms: C_11  and  C_25
    6  A    between atoms: C_13  and  C_20
    7  A    between atoms: C_14  and  N_16
    8  A    between atoms: C_14  and  C_28
    9  A    between atoms: N_16  and  C_18
                            x       y       z     vdW  Elec       q    Type
                         _______ _______ _______ _____ _____    ______ ____

>  <TORSDO>
F 9

$$$$
