=
 OpenBabel11052410473D

 37 39  0  0  1  0  0  0  0  0999 V2000
  162.1370  210.0930  148.6610 N   0  0  0  0  0  2  0  0  0  0  0  0
  162.1340  208.8360  149.3380 C   0  0  0  0  0  0  0  0  0  0  0  0
  162.2230  207.5650  148.5340 C   0  0  0  0  0  2  0  0  0  0  0  0
  162.0750  207.5160  151.3640 C   0  0  2  0  0  3  0  0  0  0  0  0
  162.0400  208.7890  150.6370 N   0  0  0  0  0  0  0  0  0  0  0  0
  161.5000  206.4410  149.2320 C   0  0  0  0  0  0  0  0  0  0  0  0
  161.4020  206.4290  150.5700 C   0  0  0  0  0  3  0  0  0  0  0  0
  161.4570  207.6470  152.7180 C   0  0  0  0  0  0  0  0  0  0  0  0
  160.5700  208.4320  154.8960 C   0  0  0  0  0  0  0  0  0  0  0  0
  160.6400  207.0470  154.8130 C   0  0  0  0  0  3  0  0  0  0  0  0
  161.1430  209.1140  153.4740 S   0  0  0  0  0  0  0  0  0  0  0  0
  161.1450  206.6030  153.5830 C   0  0  0  0  0  3  0  0  0  0  0  0
  160.1490  209.2080  156.0990 C   0  0  0  0  0  2  0  0  0  0  0  0
  159.0870  210.2430  155.7400 C   0  0  0  0  0  2  0  0  0  0  0  0
  160.6870  211.9020  156.2250 O   0  0  0  0  0  0  0  0  0  0  0  0
  159.6790  211.6120  155.6040 C   0  0  0  0  0  0  0  0  0  0  0  0
  159.8510  212.5020  153.1150 O   0  0  0  0  0  1  0  0  0  0  0  0
  157.5230  211.9320  154.0210 O   0  0  0  0  0  1  0  0  0  0  0  0
  158.8950  212.8720  154.5140 P   0  0  0  0  0  0  0  0  0  0  0  0
  160.8480  205.3730  148.4160 C   0  0  0  0  0  2  0  0  0  0  0  0
  160.9260  204.0330  149.1230 C   0  0  0  0  0  2  0  0  0  0  0  0
  161.2450  202.9530  148.1110 C   0  0  0  0  0  2  0  0  0  0  0  0
  160.7800  201.4570  149.6630 C   0  0  0  0  0  1  0  0  0  0  0  0
  160.4570  201.8310  148.3570 O   0  0  0  0  0  0  0  0  0  0  0  0
  161.9620  211.2580  149.3300 O   0  0  0  0  0  0  0  0  0  0  0  0
  162.1080  212.2550  148.3640 C   0  0  0  0  0  2  0  0  0  0  0  0
  160.8230  212.3890  147.5730 C   0  0  0  0  0  2  0  0  0  0  0  0
  160.9860  213.3710  146.5560 O   0  0  0  0  0  0  0  0  0  0  0  0
  160.6370  212.2370  143.0500 C   0  0  0  0  0  3  0  0  0  0  0  0
  161.9350  212.4310  142.5670 C   0  0  0  0  0  0  0  0  0  0  0  0
  162.9280  212.9250  143.4160 C   0  0  0  0  0  3  0  0  0  0  0  0
  160.3210  212.5420  144.3860 C   0  0  0  0  0  0  0  0  0  0  0  0
  162.2610  212.0890  141.1580 C   0  0  0  0  0  1  0  0  0  0  0  0
  161.3170  213.0490  145.2360 C   0  0  0  0  0  0  0  0  0  0  0  0
  162.6220  213.2330  144.7450 C   0  0  0  0  0  3  0  0  0  0  0  0
  159.0270  212.3510  144.8870 O   0  0  0  0  0  0  0  0  0  0  0  0
  158.1130  213.4220  145.0850 C   0  0  0  0  0  1  0  0  0  0  0  0
  1 25  1  0  0  0  0
  1  2  1  0  0  0  0
  2  5  2  0  0  0  0
  3  6  1  0  0  0  0
  3  2  1  0  0  0  0
  4  8  1  1  0  0  0
  5  4  1  0  0  0  0
  6  7  2  0  0  0  0
  7  4  1  0  0  0  0
  8 11  1  0  0  0  0
  8 12  2  0  0  0  0
  9 13  1  0  0  0  0
 10  9  2  0  0  0  0
 11  9  1  0  0  0  0
 12 10  1  0  0  0  0
 14 13  1  0  0  0  0
 16 14  1  0  0  0  0
 16 15  2  0  0  0  0
 17 19  1  0  0  0  0
 18 19  1  0  0  0  0
 19 16  1  0  0  0  0
 20 21  1  0  0  0  0
 20  6  1  0  0  0  0
 22 24  1  0  0  0  0
 22 21  1  0  0  0  0
 24 23  1  0  0  0  0
 26 25  1  0  0  0  0
 27 26  1  0  0  0  0
 28 27  1  0  0  0  0
 29 32  1  0  0  0  0
 30 29  2  0  0  0  0
 30 31  1  0  0  0  0
 31 35  2  0  0  0  0
 32 36  1  0  0  0  0
 32 34  2  0  0  0  0
 33 30  1  0  0  0  0
 34 28  1  0  0  0  0
 35 34  1  0  0  0  0
 36 37  1  0  0  0  0
M  END
>  <MODEL>
1

>  <REMARK>
 VINA RESULT:      -7.5      0.000      0.000
  Name = 
  15 active torsions:
  status: ('A' for Active; 'I' for Inactive)
    1  A    between atoms: N_1  and  O_21
    2  A    between atoms: C_3  and  C_23
    3  A    between atoms: C_3  and  O_37
    4  A    between atoms: C_6  and  C_19
    5  A    between atoms: O_7  and  C_22
    6  A    between atoms: O_7  and  C_31
    7  A    between atoms: C_10  and  C_24
    8  A    between atoms: C_13  and  C_23
    9  A    between atoms: C_13  and  C_32
   10  A    between atoms: C_17  and  O_20
   11  A    between atoms: P_18  and  C_33
   12  A    between atoms: O_21  and  C_35
   13  A    between atoms: C_22  and  C_35
   14  A    between atoms: C_24  and  C_30
   15  A    between atoms: C_30  and  C_33
                            x       y       z     vdW  Elec       q    Type
                         _______ _______ _______ _____ _____    ______ ____

>  <TORSDO>
F 15

$$$$
=
 OpenBabel11052410473D

 37 39  0  0  1  0  0  0  0  0999 V2000
  162.1410  210.6640  150.4230 N   0  0  0  0  0  2  0  0  0  0  0  0
  161.4960  209.6270  151.1620 C   0  0  0  0  0  0  0  0  0  0  0  0
  161.0950  209.8790  152.5920 C   0  0  0  0  0  2  0  0  0  0  0  0
  160.5750  207.3960  151.3290 C   0  0  2  0  0  3  0  0  0  0  0  0
  161.2710  208.4680  150.6090 N   0  0  0  0  0  0  0  0  0  0  0  0
  161.1400  208.6020  153.3930 C   0  0  0  0  0  0  0  0  0  0  0  0
  160.9240  207.4220  152.7930 C   0  0  0  0  0  3  0  0  0  0  0  0
  160.8750  206.0590  150.7330 C   0  0  0  0  0  0  0  0  0  0  0  0
  161.2080  204.1040  149.2450 C   0  0  0  0  0  0  0  0  0  0  0  0
  161.2680  203.7700  150.5910 C   0  0  0  0  0  3  0  0  0  0  0  0
  160.9020  205.7460  149.0830 S   0  0  0  0  0  0  0  0  0  0  0  0
  161.0760  204.8740  151.4330 C   0  0  0  0  0  3  0  0  0  0  0  0
  161.2980  203.1410  148.1070 C   0  0  0  0  0  2  0  0  0  0  0  0
  162.1050  203.7300  146.9550 C   0  0  0  0  0  2  0  0  0  0  0  0
  160.7270  202.6720  145.3630 O   0  0  0  0  0  0  0  0  0  0  0  0
  161.3390  203.6810  145.6680 C   0  0  0  0  0  0  0  0  0  0  0  0
  159.9790  205.9230  145.2950 O   0  0  0  0  0  1  0  0  0  0  0  0
  162.5360  206.0710  145.3310 O   0  0  0  0  0  1  0  0  0  0  0  0
  161.3180  205.1290  144.5310 P   0  0  0  0  0  0  0  0  0  0  0  0
  161.4830  208.6610  154.8450 C   0  0  0  0  0  2  0  0  0  0  0  0
  160.2320  208.8370  155.6860 C   0  0  0  0  0  2  0  0  0  0  0  0
  160.3270  210.1370  156.4540 C   0  0  0  0  0  2  0  0  0  0  0  0
  158.4750  210.7730  155.4390 C   0  0  0  0  0  1  0  0  0  0  0  0
  159.7880  211.1730  155.6950 O   0  0  0  0  0  0  0  0  0  0  0  0
  162.6070  210.4550  149.1680 O   0  0  0  0  0  0  0  0  0  0  0  0
  161.9320  211.3830  148.3730 C   0  0  0  0  0  2  0  0  0  0  0  0
  162.8750  212.5070  147.9920 C   0  0  0  0  0  2  0  0  0  0  0  0
  162.1930  213.4460  147.1690 O   0  0  0  0  0  0  0  0  0  0  0  0
  160.3610  212.9100  143.9980 C   0  0  0  0  0  3  0  0  0  0  0  0
  161.4140  212.8260  143.0810 C   0  0  0  0  0  0  0  0  0  0  0  0
  162.7340  212.9340  143.5250 C   0  0  0  0  0  3  0  0  0  0  0  0
  160.6200  213.1070  145.3660 C   0  0  0  0  0  0  0  0  0  0  0  0
  161.1270  212.6010  141.6410 C   0  0  0  0  0  1  0  0  0  0  0  0
  161.9470  213.2260  145.8090 C   0  0  0  0  0  0  0  0  0  0  0  0
  163.0010  213.1340  144.8830 C   0  0  0  0  0  3  0  0  0  0  0  0
  159.5780  213.1890  146.2980 O   0  0  0  0  0  0  0  0  0  0  0  0
  158.3110  212.5770  146.0920 C   0  0  0  0  0  1  0  0  0  0  0  0
  1  2  1  0  0  0  0
  2  3  1  0  0  0  0
  3  6  1  0  0  0  0
  4  8  1  6  0  0  0
  4  7  1  0  0  0  0
  5  2  2  0  0  0  0
  5  4  1  0  0  0  0
  6 20  1  0  0  0  0
  7  6  2  0  0  0  0
  8 12  2  0  0  0  0
  9 10  2  0  0  0  0
 10 12  1  0  0  0  0
 11  9  1  0  0  0  0
 11  8  1  0  0  0  0
 13  9  1  0  0  0  0
 14 13  1  0  0  0  0
 15 16  2  0  0  0  0
 16 14  1  0  0  0  0
 19 17  1  0  0  0  0
 19 18  1  0  0  0  0
 19 16  1  0  0  0  0
 20 21  1  0  0  0  0
 21 22  1  0  0  0  0
 23 24  1  0  0  0  0
 24 22  1  0  0  0  0
 25  1  1  0  0  0  0
 26 25  1  0  0  0  0
 27 26  1  0  0  0  0
 28 27  1  0  0  0  0
 29 32  1  0  0  0  0
 30 31  1  0  0  0  0
 30 29  2  0  0  0  0
 31 35  2  0  0  0  0
 32 34  2  0  0  0  0
 32 36  1  0  0  0  0
 33 30  1  0  0  0  0
 34 28  1  0  0  0  0
 35 34  1  0  0  0  0
 37 36  1  0  0  0  0
M  END
>  <MODEL>
2

>  <REMARK>
 VINA RESULT:      -7.3      2.912      6.814
  Name = 
  15 active torsions:
  status: ('A' for Active; 'I' for Inactive)
    1  A    between atoms: N_1  and  O_21
    2  A    between atoms: C_3  and  C_23
    3  A    between atoms: C_3  and  O_37
    4  A    between atoms: C_6  and  C_19
    5  A    between atoms: O_7  and  C_22
    6  A    between atoms: O_7  and  C_31
    7  A    between atoms: C_10  and  C_24
    8  A    between atoms: C_13  and  C_23
    9  A    between atoms: C_13  and  C_32
   10  A    between atoms: C_17  and  O_20
   11  A    between atoms: P_18  and  C_33
   12  A    between atoms: O_21  and  C_35
   13  A    between atoms: C_22  and  C_35
   14  A    between atoms: C_24  and  C_30
   15  A    between atoms: C_30  and  C_33
                            x       y       z     vdW  Elec       q    Type
                         _______ _______ _______ _____ _____    ______ ____

>  <TORSDO>
F 15

$$$$
=
 OpenBabel11052410473D

 37 39  0  0  1  0  0  0  0  0999 V2000
  161.9390  210.8030  149.3970 N   0  0  0  0  0  2  0  0  0  0  0  0
  161.6010  212.0070  148.7110 C   0  0  0  0  0  0  0  0  0  0  0  0
  160.8520  213.0890  149.4440 C   0  0  0  0  0  2  0  0  0  0  0  0
  161.6250  213.4030  146.7350 C   0  0  2  0  0  3  0  0  0  0  0  0
  161.9230  212.1620  147.4570 N   0  0  0  0  0  0  0  0  0  0  0  0
  159.9770  213.8690  148.4960 C   0  0  0  0  0  0  0  0  0  0  0  0
  160.3230  213.9960  147.2060 C   0  0  0  0  0  3  0  0  0  0  0  0
  161.6060  213.1810  145.2580 C   0  0  0  0  0  0  0  0  0  0  0  0
  161.0430  212.5850  142.9180 C   0  0  0  0  0  0  0  0  0  0  0  0
  162.3790  212.9310  143.0770 C   0  0  0  0  0  3  0  0  0  0  0  0
  160.2570  212.6690  144.3980 S   0  0  0  0  0  0  0  0  0  0  0  0
  162.6980  213.2650  144.4010 C   0  0  0  0  0  3  0  0  0  0  0  0
  160.4150  212.1110  141.6490 C   0  0  0  0  0  2  0  0  0  0  0  0
  161.2790  212.4680  140.4440 C   0  0  0  0  0  2  0  0  0  0  0  0
  161.7520  210.1620  140.3530 O   0  0  0  0  0  0  0  0  0  0  0  0
  161.8600  211.2450  139.8030 C   0  0  0  0  0  0  0  0  0  0  0  0
  162.5440  213.0690  138.0090 O   0  0  0  0  0  1  0  0  0  0  0  0
  164.3600  211.4590  138.8270 O   0  0  0  0  0  1  0  0  0  0  0  0
  162.7480  211.3570  138.1950 P   0  0  0  0  0  0  0  0  0  0  0  0
  158.6940  214.4500  148.9940 C   0  0  0  0  0  2  0  0  0  0  0  0
  157.5880  213.4120  148.9700 C   0  0  0  0  0  2  0  0  0  0  0  0
  157.1190  213.2170  147.5440 C   0  0  0  0  0  2  0  0  0  0  0  0
  156.4870  214.1580  145.6540 C   0  0  0  0  0  1  0  0  0  0  0  0
  156.7880  214.4480  146.9850 O   0  0  0  0  0  0  0  0  0  0  0  0
  162.5250  209.7630  148.7570 O   0  0  0  0  0  0  0  0  0  0  0  0
  161.9930  208.6210  149.3590 C   0  0  0  0  0  2  0  0  0  0  0  0
  162.3130  207.4050  148.5140 C   0  0  0  0  0  2  0  0  0  0  0  0
  161.1410  206.6160  148.3470 O   0  0  0  0  0  0  0  0  0  0  0  0
  161.2660  202.9180  148.2400 C   0  0  0  0  0  3  0  0  0  0  0  0
  160.9450  202.5920  149.5610 C   0  0  0  0  0  0  0  0  0  0  0  0
  160.6720  203.6060  150.4820 C   0  0  0  0  0  3  0  0  0  0  0  0
  161.3230  204.2620  147.8300 C   0  0  0  0  0  0  0  0  0  0  0  0
  160.8710  201.1680  149.9770 C   0  0  0  0  0  1  0  0  0  0  0  0
  161.0590  205.2810  148.7590 C   0  0  0  0  0  0  0  0  0  0  0  0
  160.7290  204.9460  150.0840 C   0  0  0  0  0  3  0  0  0  0  0  0
  161.6390  204.6060  146.5090 O   0  0  0  0  0  0  0  0  0  0  0  0
  162.9780  204.7000  146.0390 C   0  0  0  0  0  1  0  0  0  0  0  0
  2  1  1  0  0  0  0
  2  3  1  0  0  0  0
  4  8  1  6  0  0  0
  4  7  1  0  0  0  0
  4  5  1  0  0  0  0
  5  2  2  0  0  0  0
  6 20  1  0  0  0  0
  6  3  1  0  0  0  0
  7  6  2  0  0  0  0
  9 10  2  0  0  0  0
  9 11  1  0  0  0  0
 10 12  1  0  0  0  0
 11  8  1  0  0  0  0
 12  8  2  0  0  0  0
 13  9  1  0  0  0  0
 14 13  1  0  0  0  0
 16 15  2  0  0  0  0
 16 14  1  0  0  0  0
 17 19  1  0  0  0  0
 19 18  1  0  0  0  0
 19 16  1  0  0  0  0
 21 20  1  0  0  0  0
 22 21  1  0  0  0  0
 23 24  1  0  0  0  0
 24 22  1  0  0  0  0
 25 26  1  0  0  0  0
 25  1  1  0  0  0  0
 27 26  1  0  0  0  0
 28 27  1  0  0  0  0
 28 34  1  0  0  0  0
 29 30  1  0  0  0  0
 30 33  1  0  0  0  0
 30 31  2  0  0  0  0
 32 29  2  0  0  0  0
 32 34  1  0  0  0  0
 34 35  2  0  0  0  0
 35 31  1  0  0  0  0
 36 32  1  0  0  0  0
 37 36  1  0  0  0  0
M  END
>  <MODEL>
3

>  <REMARK>
 VINA RESULT:      -7.0      4.767     10.990
  Name = 
  15 active torsions:
  status: ('A' for Active; 'I' for Inactive)
    1  A    between atoms: N_1  and  O_21
    2  A    between atoms: C_3  and  C_23
    3  A    between atoms: C_3  and  O_37
    4  A    between atoms: C_6  and  C_19
    5  A    between atoms: O_7  and  C_22
    6  A    between atoms: O_7  and  C_31
    7  A    between atoms: C_10  and  C_24
    8  A    between atoms: C_13  and  C_23
    9  A    between atoms: C_13  and  C_32
   10  A    between atoms: C_17  and  O_20
   11  A    between atoms: P_18  and  C_33
   12  A    between atoms: O_21  and  C_35
   13  A    between atoms: C_22  and  C_35
   14  A    between atoms: C_24  and  C_30
   15  A    between atoms: C_30  and  C_33
                            x       y       z     vdW  Elec       q    Type
                         _______ _______ _______ _____ _____    ______ ____

>  <TORSDO>
F 15

$$$$
=
 OpenBabel11052410473D

 37 39  0  0  1  0  0  0  0  0999 V2000
  161.9680  211.0630  149.3380 N   0  0  0  0  0  2  0  0  0  0  0  0
  161.4570  212.1990  148.6430 C   0  0  0  0  0  0  0  0  0  0  0  0
  160.7230  213.2670  149.4130 C   0  0  0  0  0  2  0  0  0  0  0  0
  161.1310  213.4790  146.6160 C   0  0  2  0  0  3  0  0  0  0  0  0
  161.6090  212.3050  147.3530 N   0  0  0  0  0  0  0  0  0  0  0  0
  159.6810  213.9290  148.5470 C   0  0  0  0  0  0  0  0  0  0  0  0
  159.8560  214.0050  147.2190 C   0  0  0  0  0  3  0  0  0  0  0  0
  160.9480  213.1720  145.1650 C   0  0  0  0  0  0  0  0  0  0  0  0
  161.2220  212.7650  142.7360 C   0  0  0  0  0  0  0  0  0  0  0  0
  159.8900  212.8570  143.1170 C   0  0  0  0  0  3  0  0  0  0  0  0
  162.2100  212.9880  144.0730 S   0  0  0  0  0  0  0  0  0  0  0  0
  159.7340  213.0910  144.4910 C   0  0  0  0  0  3  0  0  0  0  0  0
  161.7130  212.5960  141.3360 C   0  0  0  0  0  2  0  0  0  0  0  0
  161.8520  211.1190  140.9790 C   0  0  0  0  0  2  0  0  0  0  0  0
  159.8170  211.1530  139.7930 O   0  0  0  0  0  0  0  0  0  0  0  0
  160.9660  210.7470  139.8310 C   0  0  0  0  0  0  0  0  0  0  0  0
  160.5400  208.3330  138.8270 O   0  0  0  0  0  1  0  0  0  0  0  0
  160.5990  210.3100  137.1980 O   0  0  0  0  0  1  0  0  0  0  0  0
  161.5870  209.6700  138.4730 P   0  0  0  0  0  0  0  0  0  0  0  0
  158.4290  214.4470  149.1760 C   0  0  0  0  0  2  0  0  0  0  0  0
  158.1320  213.7090  150.4680 C   0  0  0  0  0  2  0  0  0  0  0  0
  156.9720  214.3820  151.1700 C   0  0  0  0  0  2  0  0  0  0  0  0
  155.5470  214.2120  152.8440 C   0  0  0  0  0  1  0  0  0  0  0  0
  156.8470  213.8760  152.4620 O   0  0  0  0  0  0  0  0  0  0  0  0
  162.5480  210.0310  148.6790 O   0  0  0  0  0  0  0  0  0  0  0  0
  161.9470  208.8840  149.2010 C   0  0  0  0  0  2  0  0  0  0  0  0
  162.4100  207.6690  148.4240 C   0  0  0  0  0  2  0  0  0  0  0  0
  161.2820  206.9050  148.0130 O   0  0  0  0  0  0  0  0  0  0  0  0
  161.5330  203.3110  147.1650 C   0  0  0  0  0  3  0  0  0  0  0  0
  161.1490  202.7150  148.3700 C   0  0  0  0  0  0  0  0  0  0  0  0
  160.7910  203.5140  149.4590 C   0  0  0  0  0  3  0  0  0  0  0  0
  161.5690  204.7110  147.0410 C   0  0  0  0  0  0  0  0  0  0  0  0
  161.0990  201.2350  148.4840 C   0  0  0  0  0  1  0  0  0  0  0  0
  161.2200  205.5130  148.1400 C   0  0  0  0  0  0  0  0  0  0  0  0
  160.8270  204.9070  149.3460 C   0  0  0  0  0  3  0  0  0  0  0  0
  161.9490  205.3240  145.8400 O   0  0  0  0  0  0  0  0  0  0  0  0
  161.0570  205.4910  144.7460 C   0  0  0  0  0  1  0  0  0  0  0  0
  2  1  1  0  0  0  0
  2  3  1  0  0  0  0
  4  8  1  6  0  0  0
  4  7  1  0  0  0  0
  4  5  1  0  0  0  0
  5  2  2  0  0  0  0
  6 20  1  0  0  0  0
  6  3  1  0  0  0  0
  7  6  2  0  0  0  0
  9 10  2  0  0  0  0
  9 11  1  0  0  0  0
 10 12  1  0  0  0  0
 11  8  1  0  0  0  0
 12  8  2  0  0  0  0
 13  9  1  0  0  0  0
 14 13  1  0  0  0  0
 15 16  2  0  0  0  0
 16 14  1  0  0  0  0
 18 19  1  0  0  0  0
 19 17  1  0  0  0  0
 19 16  1  0  0  0  0
 20 21  1  0  0  0  0
 21 22  1  0  0  0  0
 22 24  1  0  0  0  0
 24 23  1  0  0  0  0
 25 26  1  0  0  0  0
 25  1  1  0  0  0  0
 27 26  1  0  0  0  0
 28 34  1  0  0  0  0
 28 27  1  0  0  0  0
 29 30  1  0  0  0  0
 30 33  1  0  0  0  0
 30 31  2  0  0  0  0
 32 29  2  0  0  0  0
 32 34  1  0  0  0  0
 34 35  2  0  0  0  0
 35 31  1  0  0  0  0
 36 32  1  0  0  0  0
 37 36  1  0  0  0  0
M  END
>  <MODEL>
4

>  <REMARK>
 VINA RESULT:      -6.8      4.533     10.892
  Name = 
  15 active torsions:
  status: ('A' for Active; 'I' for Inactive)
    1  A    between atoms: N_1  and  O_21
    2  A    between atoms: C_3  and  C_23
    3  A    between atoms: C_3  and  O_37
    4  A    between atoms: C_6  and  C_19
    5  A    between atoms: O_7  and  C_22
    6  A    between atoms: O_7  and  C_31
    7  A    between atoms: C_10  and  C_24
    8  A    between atoms: C_13  and  C_23
    9  A    between atoms: C_13  and  C_32
   10  A    between atoms: C_17  and  O_20
   11  A    between atoms: P_18  and  C_33
   12  A    between atoms: O_21  and  C_35
   13  A    between atoms: C_22  and  C_35
   14  A    between atoms: C_24  and  C_30
   15  A    between atoms: C_30  and  C_33
                            x       y       z     vdW  Elec       q    Type
                         _______ _______ _______ _____ _____    ______ ____

>  <TORSDO>
F 15

$$$$
=
 OpenBabel11052410473D

 37 39  0  0  1  0  0  0  0  0999 V2000
  160.8740  204.1900  152.2420 N   0  0  0  0  0  2  0  0  0  0  0  0
  161.1670  205.4570  152.8290 C   0  0  0  0  0  0  0  0  0  0  0  0
  161.0180  205.6340  154.3170 C   0  0  0  0  0  2  0  0  0  0  0  0
  161.8920  207.7590  152.6580 C   0  0  2  0  0  3  0  0  0  0  0  0
  161.5450  206.4570  152.0810 N   0  0  0  0  0  0  0  0  0  0  0  0
  160.6410  207.0550  154.6510 C   0  0  0  0  0  0  0  0  0  0  0  0
  161.0270  208.0620  153.8520 C   0  0  0  0  0  3  0  0  0  0  0  0
  161.7930  208.8480  151.6390 C   0  0  0  0  0  0  0  0  0  0  0  0
  161.8820  210.2540  149.5990 C   0  0  0  0  0  0  0  0  0  0  0  0
  161.5560  210.9800  150.7370 C   0  0  0  0  0  3  0  0  0  0  0  0
  162.1310  208.6450  150.0060 S   0  0  0  0  0  0  0  0  0  0  0  0
  161.5090  210.1860  151.8920 C   0  0  0  0  0  3  0  0  0  0  0  0
  162.0830  210.8250  148.2340 C   0  0  0  0  0  2  0  0  0  0  0  0
  161.2910  212.1160  148.0580 C   0  0  0  0  0  2  0  0  0  0  0  0
  162.8620  212.9420  146.5090 O   0  0  0  0  0  0  0  0  0  0  0  0
  161.6840  212.8340  146.8040 C   0  0  0  0  0  0  0  0  0  0  0  0
  161.2430  213.2230  144.2210 O   0  0  0  0  0  1  0  0  0  0  0  0
  159.3560  212.1890  145.6110 O   0  0  0  0  0  1  0  0  0  0  0  0
  160.4060  213.5680  145.7000 P   0  0  0  0  0  0  0  0  0  0  0  0
  159.7870  207.3240  155.8470 C   0  0  0  0  0  2  0  0  0  0  0  0
  160.5620  208.0960  156.8980 C   0  0  0  0  0  2  0  0  0  0  0  0
  160.2010  209.5630  156.8060 C   0  0  0  0  0  2  0  0  0  0  0  0
  161.4960  211.0720  155.8540 C   0  0  0  0  0  1  0  0  0  0  0  0
  161.3330  210.3410  157.0330 O   0  0  0  0  0  0  0  0  0  0  0  0
  160.9000  204.0080  150.9000 O   0  0  0  0  0  0  0  0  0  0  0  0
  160.8720  202.6230  150.7220 C   0  0  0  0  0  2  0  0  0  0  0  0
  160.4340  202.3000  149.3090 C   0  0  0  0  0  2  0  0  0  0  0  0
  161.5300  202.4720  148.4170 O   0  0  0  0  0  0  0  0  0  0  0  0
  160.9950  203.7210  144.9740 C   0  0  0  0  0  3  0  0  0  0  0  0
  161.3530  205.0660  145.1090 C   0  0  0  0  0  0  0  0  0  0  0  0
  161.7870  205.5500  146.3460 C   0  0  0  0  0  3  0  0  0  0  0  0
  161.0630  202.8510  146.0760 C   0  0  0  0  0  0  0  0  0  0  0  0
  161.2940  205.9720  143.9330 C   0  0  0  0  0  1  0  0  0  0  0  0
  161.4890  203.3410  147.3210 C   0  0  0  0  0  0  0  0  0  0  0  0
  161.8550  204.6920  147.4480 C   0  0  0  0  0  3  0  0  0  0  0  0
  160.7100  201.5000  145.9570 O   0  0  0  0  0  0  0  0  0  0  0  0
  159.9440  200.9980  144.8700 C   0  0  0  0  0  1  0  0  0  0  0  0
  1  2  1  0  0  0  0
  2  3  1  0  0  0  0
  3  6  1  0  0  0  0
  4  8  1  6  0  0  0
  4  7  1  0  0  0  0
  5  4  1  0  0  0  0
  5  2  2  0  0  0  0
  6 20  1  0  0  0  0
  7  6  2  0  0  0  0
  8 12  2  0  0  0  0
  9 11  1  0  0  0  0
  9 10  2  0  0  0  0
 10 12  1  0  0  0  0
 11  8  1  0  0  0  0
 13  9  1  0  0  0  0
 14 13  1  0  0  0  0
 15 16  2  0  0  0  0
 16 14  1  0  0  0  0
 17 19  1  0  0  0  0
 18 19  1  0  0  0  0
 19 16  1  0  0  0  0
 20 21  1  0  0  0  0
 22 21  1  0  0  0  0
 22 24  1  0  0  0  0
 23 24  1  0  0  0  0
 25  1  1  0  0  0  0
 26 25  1  0  0  0  0
 27 26  1  0  0  0  0
 28 27  1  0  0  0  0
 29 30  2  0  0  0  0
 29 32  1  0  0  0  0
 30 31  1  0  0  0  0
 31 35  2  0  0  0  0
 32 34  2  0  0  0  0
 33 30  1  0  0  0  0
 34 35  1  0  0  0  0
 34 28  1  0  0  0  0
 36 32  1  0  0  0  0
 37 36  1  0  0  0  0
M  END
>  <MODEL>
5

>  <REMARK>
 VINA RESULT:      -6.8      3.081      8.291
  Name = 
  15 active torsions:
  status: ('A' for Active; 'I' for Inactive)
    1  A    between atoms: N_1  and  O_21
    2  A    between atoms: C_3  and  C_23
    3  A    between atoms: C_3  and  O_37
    4  A    between atoms: C_6  and  C_19
    5  A    between atoms: O_7  and  C_22
    6  A    between atoms: O_7  and  C_31
    7  A    between atoms: C_10  and  C_24
    8  A    between atoms: C_13  and  C_23
    9  A    between atoms: C_13  and  C_32
   10  A    between atoms: C_17  and  O_20
   11  A    between atoms: P_18  and  C_33
   12  A    between atoms: O_21  and  C_35
   13  A    between atoms: C_22  and  C_35
   14  A    between atoms: C_24  and  C_30
   15  A    between atoms: C_30  and  C_33
                            x       y       z     vdW  Elec       q    Type
                         _______ _______ _______ _____ _____    ______ ____

>  <TORSDO>
F 15

$$$$
=
 OpenBabel11052410473D

 37 39  0  0  1  0  0  0  0  0999 V2000
  161.7610  211.1130  149.1960 N   0  0  0  0  0  2  0  0  0  0  0  0
  161.3460  212.2160  148.3930 C   0  0  0  0  0  0  0  0  0  0  0  0
  160.4980  213.3000  149.0060 C   0  0  0  0  0  2  0  0  0  0  0  0
  161.3080  213.4170  146.2930 C   0  0  2  0  0  3  0  0  0  0  0  0
  161.6840  212.2770  147.1350 N   0  0  0  0  0  0  0  0  0  0  0  0
  159.5870  213.9140  147.9740 C   0  0  0  0  0  0  0  0  0  0  0  0
  159.9540  213.9460  146.6840 C   0  0  0  0  0  3  0  0  0  0  0  0
  161.3410  213.0550  144.8430 C   0  0  0  0  0  0  0  0  0  0  0  0
  160.8490  212.2670  142.5450 C   0  0  0  0  0  0  0  0  0  0  0  0
  162.1930  212.5600  142.7360 C   0  0  0  0  0  3  0  0  0  0  0  0
  160.0050  212.5310  143.9710 S   0  0  0  0  0  0  0  0  0  0  0  0
  162.4730  213.0020  144.0360 C   0  0  0  0  0  3  0  0  0  0  0  0
  160.2520  211.7060  141.2970 C   0  0  0  0  0  2  0  0  0  0  0  0
  161.1730  210.6640  140.6700 C   0  0  0  0  0  2  0  0  0  0  0  0
  160.2890  209.7360  138.6930 O   0  0  0  0  0  0  0  0  0  0  0  0
  160.9950  210.6000  139.1830 C   0  0  0  0  0  0  0  0  0  0  0  0
  163.2320  212.0170  139.0980 O   0  0  0  0  0  1  0  0  0  0  0  0
  162.5960  210.6630  137.0180 O   0  0  0  0  0  1  0  0  0  0  0  0
  161.8420  211.8080  138.0820 P   0  0  0  0  0  0  0  0  0  0  0  0
  158.2520  214.4360  148.3940 C   0  0  0  0  0  2  0  0  0  0  0  0
  157.5540  213.4490  149.3110 C   0  0  0  0  0  2  0  0  0  0  0  0
  157.8800  213.7900  150.7500 C   0  0  0  0  0  2  0  0  0  0  0  0
  157.1260  214.3250  152.7510 C   0  0  0  0  0  1  0  0  0  0  0  0
  156.7030  214.0300  151.4540 O   0  0  0  0  0  0  0  0  0  0  0  0
  162.4410  210.0670  148.6680 O   0  0  0  0  0  0  0  0  0  0  0  0
  161.9290  208.9390  149.3130 C   0  0  0  0  0  2  0  0  0  0  0  0
  162.4210  207.6880  148.6150 C   0  0  0  0  0  2  0  0  0  0  0  0
  161.3110  206.9480  148.1200 O   0  0  0  0  0  0  0  0  0  0  0  0
  160.7650  203.6300  149.6670 C   0  0  0  0  0  3  0  0  0  0  0  0
  160.9280  202.7820  148.5680 C   0  0  0  0  0  0  0  0  0  0  0  0
  161.2350  203.3180  147.3150 C   0  0  0  0  0  3  0  0  0  0  0  0
  160.9020  205.0220  149.5220 C   0  0  0  0  0  0  0  0  0  0  0  0
  160.7980  201.3120  148.7380 C   0  0  0  0  0  1  0  0  0  0  0  0
  161.2000  205.5600  148.2590 C   0  0  0  0  0  0  0  0  0  0  0  0
  161.3710  204.7010  147.1600 C   0  0  0  0  0  3  0  0  0  0  0  0
  160.7450  205.8850  150.6130 O   0  0  0  0  0  0  0  0  0  0  0  0
  161.6410  205.9020  151.7170 C   0  0  0  0  0  1  0  0  0  0  0  0
  2  3  1  0  0  0  0
  2  1  1  0  0  0  0
  4  8  1  6  0  0  0
  4  7  1  0  0  0  0
  4  5  1  0  0  0  0
  5  2  2  0  0  0  0
  6 20  1  0  0  0  0
  6  3  1  0  0  0  0
  7  6  2  0  0  0  0
  9 10  2  0  0  0  0
  9 11  1  0  0  0  0
 10 12  1  0  0  0  0
 11  8  1  0  0  0  0
 12  8  2  0  0  0  0
 13  9  1  0  0  0  0
 14 13  1  0  0  0  0
 15 16  2  0  0  0  0
 16 14  1  0  0  0  0
 18 19  1  0  0  0  0
 19 17  1  0  0  0  0
 19 16  1  0  0  0  0
 20 21  1  0  0  0  0
 21 22  1  0  0  0  0
 22 24  1  0  0  0  0
 24 23  1  0  0  0  0
 25  1  1  0  0  0  0
 25 26  1  0  0  0  0
 27 26  1  0  0  0  0
 28 34  1  0  0  0  0
 28 27  1  0  0  0  0
 30 33  1  0  0  0  0
 30 29  2  0  0  0  0
 31 30  1  0  0  0  0
 32 29  1  0  0  0  0
 32 36  1  0  0  0  0
 34 32  2  0  0  0  0
 35 31  2  0  0  0  0
 35 34  1  0  0  0  0
 36 37  1  0  0  0  0
M  END
>  <MODEL>
6

>  <REMARK>
 VINA RESULT:      -6.6      4.438     11.045
  Name = 
  15 active torsions:
  status: ('A' for Active; 'I' for Inactive)
    1  A    between atoms: N_1  and  O_21
    2  A    between atoms: C_3  and  C_23
    3  A    between atoms: C_3  and  O_37
    4  A    between atoms: C_6  and  C_19
    5  A    between atoms: O_7  and  C_22
    6  A    between atoms: O_7  and  C_31
    7  A    between atoms: C_10  and  C_24
    8  A    between atoms: C_13  and  C_23
    9  A    between atoms: C_13  and  C_32
   10  A    between atoms: C_17  and  O_20
   11  A    between atoms: P_18  and  C_33
   12  A    between atoms: O_21  and  C_35
   13  A    between atoms: C_22  and  C_35
   14  A    between atoms: C_24  and  C_30
   15  A    between atoms: C_30  and  C_33
                            x       y       z     vdW  Elec       q    Type
                         _______ _______ _______ _____ _____    ______ ____

>  <TORSDO>
F 15

$$$$
=
 OpenBabel11052410473D

 37 39  0  0  1  0  0  0  0  0999 V2000
  162.1150  207.4560  148.4800 N   0  0  0  0  0  2  0  0  0  0  0  0
  162.1680  208.6820  149.2100 C   0  0  0  0  0  0  0  0  0  0  0  0
  162.2480  208.6430  150.7140 C   0  0  0  0  0  2  0  0  0  0  0  0
  162.2240  211.0990  149.2990 C   0  0  2  0  0  3  0  0  0  0  0  0
  162.1310  209.8230  148.5810 N   0  0  0  0  0  0  0  0  0  0  0  0
  161.5800  209.8530  151.3160 C   0  0  0  0  0  0  0  0  0  0  0  0
  161.5400  211.0100  150.6370 C   0  0  0  0  0  3  0  0  0  0  0  0
  161.6630  212.2200  148.4870 C   0  0  0  0  0  0  0  0  0  0  0  0
  160.5540  213.6450  146.7880 C   0  0  0  0  0  0  0  0  0  0  0  0
  161.3300  214.3760  147.6770 C   0  0  0  0  0  3  0  0  0  0  0  0
  160.6520  212.0120  147.1620 S   0  0  0  0  0  0  0  0  0  0  0  0
  161.9610  213.5710  148.6360 C   0  0  0  0  0  3  0  0  0  0  0  0
  159.8220  214.2040  145.6140 C   0  0  0  0  0  2  0  0  0  0  0  0
  160.7550  214.3830  144.4200 C   0  0  0  0  0  2  0  0  0  0  0  0
  159.0720  213.4880  143.0360 O   0  0  0  0  0  0  0  0  0  0  0  0
  160.2690  213.6230  143.2250 C   0  0  0  0  0  0  0  0  0  0  0  0
  162.7030  212.5790  143.2100 O   0  0  0  0  0  1  0  0  0  0  0  0
  160.8320  211.2590  142.0630 O   0  0  0  0  0  1  0  0  0  0  0  0
  161.4600  212.8750  142.0370 P   0  0  0  0  0  0  0  0  0  0  0  0
  160.9150  209.7350  152.6480 C   0  0  0  0  0  2  0  0  0  0  0  0
  159.7490  210.7000  152.7540 C   0  0  0  0  0  2  0  0  0  0  0  0
  159.7850  211.3770  154.1080 C   0  0  0  0  0  2  0  0  0  0  0  0
  160.8990  211.4400  156.0090 C   0  0  0  0  0  1  0  0  0  0  0  0
  161.0750  211.3190  154.6290 O   0  0  0  0  0  0  0  0  0  0  0  0
  161.9450  207.4390  147.1370 O   0  0  0  0  0  0  0  0  0  0  0  0
  160.7560  206.7350  146.9320 C   0  0  0  0  0  2  0  0  0  0  0  0
  160.9940  205.6130  145.9420 C   0  0  0  0  0  2  0  0  0  0  0  0
  161.9060  204.6710  146.4960 O   0  0  0  0  0  0  0  0  0  0  0  0
  160.8300  201.4710  148.0130 C   0  0  0  0  0  3  0  0  0  0  0  0
  160.8190  201.8000  149.3730 C   0  0  0  0  0  0  0  0  0  0  0  0
  161.1550  203.0930  149.7790 C   0  0  0  0  0  3  0  0  0  0  0  0
  161.1840  202.4320  147.0500 C   0  0  0  0  0  0  0  0  0  0  0  0
  160.4270  200.7800  150.3790 C   0  0  0  0  0  1  0  0  0  0  0  0
  161.5320  203.7290  147.4610 C   0  0  0  0  0  0  0  0  0  0  0  0
  161.5110  204.0550  148.8280 C   0  0  0  0  0  3  0  0  0  0  0  0
  161.1970  202.1210  145.6840 O   0  0  0  0  0  0  0  0  0  0  0  0
  160.0810  201.5490  145.0150 C   0  0  0  0  0  1  0  0  0  0  0  0
  1  2  1  0  0  0  0
  2  3  1  0  0  0  0
  3  6  1  0  0  0  0
  4  8  1  6  0  0  0
  4  7  1  0  0  0  0
  5  2  2  0  0  0  0
  5  4  1  0  0  0  0
  6 20  1  0  0  0  0
  7  6  2  0  0  0  0
  8 12  2  0  0  0  0
  9 11  1  0  0  0  0
  9 10  2  0  0  0  0
 10 12  1  0  0  0  0
 11  8  1  0  0  0  0
 13  9  1  0  0  0  0
 14 13  1  0  0  0  0
 15 16  2  0  0  0  0
 16 14  1  0  0  0  0
 19 18  1  0  0  0  0
 19 17  1  0  0  0  0
 19 16  1  0  0  0  0
 20 21  1  0  0  0  0
 21 22  1  0  0  0  0
 22 24  1  0  0  0  0
 24 23  1  0  0  0  0
 25  1  1  0  0  0  0
 26 25  1  0  0  0  0
 27 28  1  0  0  0  0
 27 26  1  0  0  0  0
 28 34  1  0  0  0  0
 29 30  1  0  0  0  0
 30 31  2  0  0  0  0
 30 33  1  0  0  0  0
 32 34  1  0  0  0  0
 32 29  2  0  0  0  0
 34 35  2  0  0  0  0
 35 31  1  0  0  0  0
 36 32  1  0  0  0  0
 37 36  1  0  0  0  0
M  END
>  <MODEL>
7

>  <REMARK>
 VINA RESULT:      -6.6      3.245      9.507
  Name = 
  15 active torsions:
  status: ('A' for Active; 'I' for Inactive)
    1  A    between atoms: N_1  and  O_21
    2  A    between atoms: C_3  and  C_23
    3  A    between atoms: C_3  and  O_37
    4  A    between atoms: C_6  and  C_19
    5  A    between atoms: O_7  and  C_22
    6  A    between atoms: O_7  and  C_31
    7  A    between atoms: C_10  and  C_24
    8  A    between atoms: C_13  and  C_23
    9  A    between atoms: C_13  and  C_32
   10  A    between atoms: C_17  and  O_20
   11  A    between atoms: P_18  and  C_33
   12  A    between atoms: O_21  and  C_35
   13  A    between atoms: C_22  and  C_35
   14  A    between atoms: C_24  and  C_30
   15  A    between atoms: C_30  and  C_33
                            x       y       z     vdW  Elec       q    Type
                         _______ _______ _______ _____ _____    ______ ____

>  <TORSDO>
F 15

$$$$
=
 OpenBabel11052410473D

 37 39  0  0  1  0  0  0  0  0999 V2000
  160.7370  207.0780  153.9620 N   0  0  0  0  0  2  0  0  0  0  0  0
  160.8090  208.4990  154.0750 C   0  0  0  0  0  0  0  0  0  0  0  0
  160.5220  209.1500  155.4030 C   0  0  0  0  0  2  0  0  0  0  0  0
  161.2280  210.6850  153.1280 C   0  0  2  0  0  3  0  0  0  0  0  0
  161.1060  209.2270  153.0350 N   0  0  0  0  0  0  0  0  0  0  0  0
  159.9310  210.5230  155.2070 C   0  0  0  0  0  0  0  0  0  0  0  0
  160.2390  211.2420  154.1170 C   0  0  0  0  0  3  0  0  0  0  0  0
  161.0630  211.3290  151.7900 C   0  0  0  0  0  0  0  0  0  0  0  0
  161.2680  212.0850  149.4380 C   0  0  0  0  0  0  0  0  0  0  0  0
  160.3550  212.8370  150.1650 C   0  0  0  0  0  3  0  0  0  0  0  0
  161.9500  210.9130  150.4260 S   0  0  0  0  0  0  0  0  0  0  0  0
  160.2410  212.4130  151.4960 C   0  0  0  0  0  3  0  0  0  0  0  0
  161.6660  212.3360  148.0210 C   0  0  0  0  0  2  0  0  0  0  0  0
  160.4400  212.5050  147.1290 C   0  0  0  0  0  2  0  0  0  0  0  0
  162.0000  213.0600  145.4530 O   0  0  0  0  0  0  0  0  0  0  0  0
  160.8250  212.9050  145.7380 C   0  0  0  0  0  0  0  0  0  0  0  0
  160.0000  211.8290  143.4620 O   0  0  0  0  0  1  0  0  0  0  0  0
  158.2350  212.3550  145.2420 O   0  0  0  0  0  1  0  0  0  0  0  0
  159.5390  213.1790  144.4490 P   0  0  0  0  0  0  0  0  0  0  0  0
  158.9570  211.0500  156.2100 C   0  0  0  0  0  2  0  0  0  0  0  0
  158.0290  212.0680  155.5740 C   0  0  0  0  0  2  0  0  0  0  0  0
  156.7270  211.3910  155.2010 C   0  0  0  0  0  2  0  0  0  0  0  0
  156.9120  213.1480  153.8830 C   0  0  0  0  0  1  0  0  0  0  0  0
  155.9860  212.2230  154.3670 O   0  0  0  0  0  0  0  0  0  0  0  0
  160.8920  206.4530  152.7700 O   0  0  0  0  0  0  0  0  0  0  0  0
  161.2030  205.1310  153.0930 C   0  0  0  0  0  2  0  0  0  0  0  0
  161.6220  204.3880  151.8410 C   0  0  0  0  0  2  0  0  0  0  0  0
  160.6600  204.5980  150.8140 O   0  0  0  0  0  0  0  0  0  0  0  0
  161.5290  203.9470  147.2760 C   0  0  0  0  0  3  0  0  0  0  0  0
  161.6760  205.2480  146.7840 C   0  0  0  0  0  0  0  0  0  0  0  0
  161.5000  206.3400  147.6370 C   0  0  0  0  0  3  0  0  0  0  0  0
  161.2000  203.7280  148.6250 C   0  0  0  0  0  0  0  0  0  0  0  0
  162.0420  205.4660  145.3600 C   0  0  0  0  0  1  0  0  0  0  0  0
  161.0120  204.8260  149.4790 C   0  0  0  0  0  0  0  0  0  0  0  0
  161.1680  206.1310  148.9800 C   0  0  0  0  0  3  0  0  0  0  0  0
  161.0520  202.4320  149.1350 O   0  0  0  0  0  0  0  0  0  0  0  0
  161.1560  201.2690  148.3230 C   0  0  0  0  0  1  0  0  0  0  0  0
  1  2  1  0  0  0  0
  2  3  1  0  0  0  0
  4  8  1  6  0  0  0
  4  7  1  0  0  0  0
  5  4  1  0  0  0  0
  5  2  2  0  0  0  0
  6  3  1  0  0  0  0
  6 20  1  0  0  0  0
  7  6  2  0  0  0  0
  9 10  2  0  0  0  0
  9 11  1  0  0  0  0
 10 12  1  0  0  0  0
 11  8  1  0  0  0  0
 12  8  2  0  0  0  0
 13  9  1  0  0  0  0
 14 13  1  0  0  0  0
 15 16  2  0  0  0  0
 16 14  1  0  0  0  0
 17 19  1  0  0  0  0
 19 18  1  0  0  0  0
 19 16  1  0  0  0  0
 21 20  1  0  0  0  0
 22 21  1  0  0  0  0
 23 24  1  0  0  0  0
 24 22  1  0  0  0  0
 25 26  1  0  0  0  0
 25  1  1  0  0  0  0
 27 26  1  0  0  0  0
 28 27  1  0  0  0  0
 29 32  1  0  0  0  0
 30 29  2  0  0  0  0
 30 31  1  0  0  0  0
 31 35  2  0  0  0  0
 32 36  1  0  0  0  0
 32 34  2  0  0  0  0
 33 30  1  0  0  0  0
 34 28  1  0  0  0  0
 35 34  1  0  0  0  0
 37 36  1  0  0  0  0
M  END
>  <MODEL>
8

>  <REMARK>
 VINA RESULT:      -6.4      2.928      8.764
  Name = 
  15 active torsions:
  status: ('A' for Active; 'I' for Inactive)
    1  A    between atoms: N_1  and  O_21
    2  A    between atoms: C_3  and  C_23
    3  A    between atoms: C_3  and  O_37
    4  A    between atoms: C_6  and  C_19
    5  A    between atoms: O_7  and  C_22
    6  A    between atoms: O_7  and  C_31
    7  A    between atoms: C_10  and  C_24
    8  A    between atoms: C_13  and  C_23
    9  A    between atoms: C_13  and  C_32
   10  A    between atoms: C_17  and  O_20
   11  A    between atoms: P_18  and  C_33
   12  A    between atoms: O_21  and  C_35
   13  A    between atoms: C_22  and  C_35
   14  A    between atoms: C_24  and  C_30
   15  A    between atoms: C_30  and  C_33
                            x       y       z     vdW  Elec       q    Type
                         _______ _______ _______ _____ _____    ______ ____

>  <TORSDO>
F 15

$$$$
=
 OpenBabel11052410473D

 37 39  0  0  1  0  0  0  0  0999 V2000
  161.2500  206.9560  154.9050 N   0  0  0  0  0  2  0  0  0  0  0  0
  161.0610  206.5510  153.5500 C   0  0  0  0  0  0  0  0  0  0  0  0
  160.8510  205.0920  153.2380 C   0  0  0  0  0  2  0  0  0  0  0  0
  160.8540  207.0550  151.1930 C   0  0  2  0  0  3  0  0  0  0  0  0
  161.0850  207.4340  152.5910 N   0  0  0  0  0  0  0  0  0  0  0  0
  161.3920  204.7560  151.8710 C   0  0  0  0  0  0  0  0  0  0  0  0
  161.4230  205.6910  150.9090 C   0  0  0  0  0  3  0  0  0  0  0  0
  161.4180  208.0730  150.2550 C   0  0  0  0  0  0  0  0  0  0  0  0
  162.2730  210.1240  149.1560 C   0  0  0  0  0  0  0  0  0  0  0  0
  162.0720  209.0800  148.2620 C   0  0  0  0  0  3  0  0  0  0  0  0
  161.8380  209.6360  150.7020 S   0  0  0  0  0  0  0  0  0  0  0  0
  161.5850  207.9210  148.8830 C   0  0  0  0  0  3  0  0  0  0  0  0
  162.7120  211.5040  148.7930 C   0  0  0  0  0  2  0  0  0  0  0  0
  161.5150  212.3900  148.4640 C   0  0  0  0  0  2  0  0  0  0  0  0
  162.6840  213.0290  146.5200 O   0  0  0  0  0  0  0  0  0  0  0  0
  161.5990  212.9290  147.0680 C   0  0  0  0  0  0  0  0  0  0  0  0
  160.9140  214.0730  144.7790 O   0  0  0  0  0  1  0  0  0  0  0  0
  159.6940  211.9230  145.4510 O   0  0  0  0  0  1  0  0  0  0  0  0
  160.0810  213.4540  146.1690 P   0  0  0  0  0  0  0  0  0  0  0  0
  161.9430  203.3910  151.6170 C   0  0  0  0  0  2  0  0  0  0  0  0
  160.8220  202.3810  151.4560 C   0  0  0  0  0  2  0  0  0  0  0  0
  160.9600  201.6950  150.1140 C   0  0  0  0  0  2  0  0  0  0  0  0
  161.2000  202.5530  148.0980 C   0  0  0  0  0  1  0  0  0  0  0  0
  160.2810  202.4240  149.1410 O   0  0  0  0  0  0  0  0  0  0  0  0
  161.5380  208.2400  155.2280 O   0  0  0  0  0  0  0  0  0  0  0  0
  160.6050  208.5850  156.2080 C   0  0  0  0  0  2  0  0  0  0  0  0
  160.5380  210.0930  156.3370 C   0  0  0  0  0  2  0  0  0  0  0  0
  159.2560  210.5530  155.9250 O   0  0  0  0  0  0  0  0  0  0  0  0
  157.5540  212.4880  153.2690 C   0  0  0  0  0  3  0  0  0  0  0  0
  158.6010  212.7000  152.3670 C   0  0  0  0  0  0  0  0  0  0  0  0
  159.8700  212.1830  152.6390 C   0  0  0  0  0  3  0  0  0  0  0  0
  157.7690  211.7630  154.4540 C   0  0  0  0  0  0  0  0  0  0  0  0
  158.3580  213.4530  151.1100 C   0  0  0  0  0  1  0  0  0  0  0  0
  159.0470  211.2530  154.7320 C   0  0  0  0  0  0  0  0  0  0  0  0
  160.0940  211.4620  153.8170 C   0  0  0  0  0  3  0  0  0  0  0  0
  156.7300  211.5390  155.3670 O   0  0  0  0  0  0  0  0  0  0  0  0
  155.5840  210.7580  155.0520 C   0  0  0  0  0  1  0  0  0  0  0  0
  1 25  1  0  0  0  0
  2  1  1  0  0  0  0
  3  2  1  0  0  0  0
  4  8  1  6  0  0  0
  4  5  1  0  0  0  0
  5  2  2  0  0  0  0
  6  3  1  0  0  0  0
  7  4  1  0  0  0  0
  7  6  2  0  0  0  0
  8 11  1  0  0  0  0
  9 11  1  0  0  0  0
 10 12  1  0  0  0  0
 10  9  2  0  0  0  0
 12  8  2  0  0  0  0
 13  9  1  0  0  0  0
 14 13  1  0  0  0  0
 15 16  2  0  0  0  0
 16 14  1  0  0  0  0
 17 19  1  0  0  0  0
 18 19  1  0  0  0  0
 19 16  1  0  0  0  0
 20  6  1  0  0  0  0
 21 20  1  0  0  0  0
 22 21  1  0  0  0  0
 23 24  1  0  0  0  0
 24 22  1  0  0  0  0
 25 26  1  0  0  0  0
 26 27  1  0  0  0  0
 28 27  1  0  0  0  0
 29 32  1  0  0  0  0
 30 31  1  0  0  0  0
 30 29  2  0  0  0  0
 31 35  2  0  0  0  0
 32 34  2  0  0  0  0
 32 36  1  0  0  0  0
 33 30  1  0  0  0  0
 34 28  1  0  0  0  0
 35 34  1  0  0  0  0
 37 36  1  0  0  0  0
M  END
>  <MODEL>
9

>  <REMARK>
 VINA RESULT:      -6.4      2.838      7.487
  Name = 
  15 active torsions:
  status: ('A' for Active; 'I' for Inactive)
    1  A    between atoms: N_1  and  O_21
    2  A    between atoms: C_3  and  C_23
    3  A    between atoms: C_3  and  O_37
    4  A    between atoms: C_6  and  C_19
    5  A    between atoms: O_7  and  C_22
    6  A    between atoms: O_7  and  C_31
    7  A    between atoms: C_10  and  C_24
    8  A    between atoms: C_13  and  C_23
    9  A    between atoms: C_13  and  C_32
   10  A    between atoms: C_17  and  O_20
   11  A    between atoms: P_18  and  C_33
   12  A    between atoms: O_21  and  C_35
   13  A    between atoms: C_22  and  C_35
   14  A    between atoms: C_24  and  C_30
   15  A    between atoms: C_30  and  C_33
                            x       y       z     vdW  Elec       q    Type
                         _______ _______ _______ _____ _____    ______ ____

>  <TORSDO>
F 15

$$$$
