=
 OpenBabel11042421223D

 33 36  0  0  1  0  0  0  0  0999 V2000
  162.2270  209.3700  149.6290 C   0  0  1  0  0  3  0  0  0  0  0  0
  162.9290  210.0280  151.8220 O   0  0  0  0  0  1  0  0  0  0  0  0
  162.3080  208.9940  151.1130 C   0  0  1  0  0  3  0  0  0  0  0  0
  160.9790  209.2200  154.2040 C   0  0  0  0  0  0  0  0  0  0  0  0
  161.2480  210.1160  155.3320 C   0  0  0  0  0  2  0  0  0  0  0  0
  161.1600  207.9490  154.4110 N   0  0  0  0  0  2  0  0  0  0  0  0
  160.9620  206.9700  153.3820 C   0  0  0  0  0  3  0  0  0  0  0  0
  159.6120  211.9290  153.4130 C   0  0  0  0  0  3  0  0  0  0  0  0
  160.8120  211.3570  155.5240 C   0  0  0  0  0  3  0  0  0  0  0  0
  159.9270  212.1710  154.6840 C   0  0  0  0  0  0  0  0  0  0  0  0
  160.9100  208.7260  151.7030 C   0  0  2  0  0  3  0  0  0  0  0  0
  160.6110  209.6700  152.8430 C   0  0  0  0  0  0  0  0  0  0  0  0
  159.4090  213.3630  155.2640 N   0  0  0  0  0  1  0  0  0  0  0  0
  160.0150  210.8220  152.5390 C   0  0  0  0  0  3  0  0  0  0  0  0
  160.7990  207.3310  152.1450 N   0  0  0  0  0  0  0  0  0  0  0  0
  161.9880  207.1670  148.7870 N   0  0  0  0  0  0  0  0  0  0  0  0
  161.5110  208.3400  148.8880 N   0  0  0  0  0  0  0  0  0  0  0  0
  160.7890  206.4320  146.7430 C   0  0  0  0  0  1  0  0  0  0  0  0
  161.3200  206.1560  148.0760 N   0  0  0  0  0  0  0  0  0  0  0  0
  160.9740  203.3480  150.7090 C   0  0  0  0  0  2  0  0  0  0  0  0
  160.7750  204.7440  150.1200 C   0  0  0  0  0  2  0  0  0  0  0  0
  161.3270  203.7480  147.9100 C   0  0  0  0  0  3  0  0  0  0  0  0
  161.2380  202.3530  148.4610 C   0  0  0  0  0  2  0  0  0  0  0  0
  161.1910  204.8510  148.6670 C   0  0  0  0  0  0  0  0  0  0  0  0
  160.4240  202.3070  149.7470 C   0  0  0  0  0  2  0  0  0  0  0  0
  161.5340  210.6450  149.4740 N   0  0  0  0  0  2  0  0  0  0  0  0
  162.1820  213.3090  146.2490 C   0  0  0  0  0  0  0  0  0  0  0  0
  160.9230  212.7360  146.4510 C   0  0  0  0  0  3  0  0  0  0  0  0
  163.0310  212.1270  148.1840 C   0  0  0  0  0  3  0  0  0  0  0  0
  161.7700  211.5450  148.3870 C   0  0  0  0  0  0  0  0  0  0  0  0
  163.2360  213.0060  147.1160 C   0  0  0  0  0  3  0  0  0  0  0  0
  160.7180  211.8570  147.5200 C   0  0  0  0  0  3  0  0  0  0  0  0
  162.3850  214.1800  145.1870 O   0  0  0  0  0  1  0  0  0  0  0  0
  1 17  1  6  0  0  0
  1  3  1  0  0  0  0
  3  2  1  1  0  0  0
  4  6  1  0  0  0  0
  4  5  1  0  0  0  0
  5  9  1  0  0  0  0
  7  6  1  0  0  0  0
  8 10  1  0  0  0  0
 10 13  1  0  0  0  0
 10  9  2  0  0  0  0
 11  3  1  1  0  0  0
 11 15  1  0  0  0  0
 11 12  1  0  0  0  0
 12  4  2  0  0  0  0
 14 12  1  0  0  0  0
 14  8  2  0  0  0  0
 15  7  2  0  0  0  0
 16 17  2  0  0  0  0
 18 19  1  0  0  0  0
 19 24  1  0  0  0  0
 19 16  1  0  0  0  0
 21 20  1  0  0  0  0
 22 23  1  0  0  0  0
 22 24  2  0  0  0  0
 23 25  1  0  0  0  0
 24 21  1  0  0  0  0
 25 20  1  0  0  0  0
 26  1  1  0  0  0  0
 27 28  2  0  0  0  0
 27 31  1  0  0  0  0
 28 32  1  0  0  0  0
 29 30  1  0  0  0  0
 30 26  1  0  0  0  0
 31 29  2  0  0  0  0
 32 30  2  0  0  0  0
 33 27  1  0  0  0  0
M  END
>  <MODEL>
1

>  <REMARK>
 VINA RESULT:      -8.6      0.000      0.000
  Name = 
  7 active torsions:
  status: ('A' for Active; 'I' for Inactive)
    1  A    between atoms: N_6  and  N_24
    2  A    between atoms: N_6  and  C_26
    3  A    between atoms: C_17  and  C_23
    4  A    between atoms: C_18  and  N_19
    5  A    between atoms: N_19  and  C_22
    6  A    between atoms: C_22  and  C_23
    7  A    between atoms: C_22  and  N_25
                            x       y       z     vdW  Elec       q    Type
                         _______ _______ _______ _____ _____    ______ ____

>  <TORSDO>
F 7

$$$$
=
 OpenBabel11042421223D

 33 36  0  0  1  0  0  0  0  0999 V2000
  162.2850  207.4420  150.4950 C   0  0  1  0  0  3  0  0  0  0  0  0
  162.0890  209.7830  150.9570 O   0  0  0  0  0  1  0  0  0  0  0  0
  162.0870  208.5220  151.5640 C   0  0  1  0  0  3  0  0  0  0  0  0
  160.8960  209.6300  154.5180 C   0  0  0  0  0  0  0  0  0  0  0  0
  161.0990  210.8760  155.2600 C   0  0  0  0  0  2  0  0  0  0  0  0
  161.2540  208.5300  155.1120 N   0  0  0  0  0  2  0  0  0  0  0  0
  161.1360  207.2460  154.4840 C   0  0  0  0  0  3  0  0  0  0  0  0
  159.1440  211.7500  153.0100 C   0  0  0  0  0  3  0  0  0  0  0  0
  160.5130  212.0550  155.0740 C   0  0  0  0  0  3  0  0  0  0  0  0
  159.4870  212.4380  154.0970 C   0  0  0  0  0  0  0  0  0  0  0  0
  160.7690  208.3190  152.3340 C   0  0  2  0  0  3  0  0  0  0  0  0
  160.4040  209.5530  153.1240 C   0  0  0  0  0  0  0  0  0  0  0  0
  158.8450  213.6920  154.3000 N   0  0  0  0  0  1  0  0  0  0  0  0
  159.6470  210.4640  152.5140 C   0  0  0  0  0  3  0  0  0  0  0  0
  160.8650  207.1510  153.2170 N   0  0  0  0  0  0  0  0  0  0  0  0
  162.0450  205.1170  150.8960 N   0  0  0  0  0  0  0  0  0  0  0  0
  161.4960  206.2610  150.8230 N   0  0  0  0  0  0  0  0  0  0  0  0
  160.7380  203.8000  152.5430 C   0  0  0  0  0  1  0  0  0  0  0  0
  161.3080  203.9620  151.2070 N   0  0  0  0  0  0  0  0  0  0  0  0
  160.6990  202.3150  147.7650 C   0  0  0  0  0  2  0  0  0  0  0  0
  161.2340  203.3660  148.7360 C   0  0  0  0  0  2  0  0  0  0  0  0
  160.9220  201.6780  150.5330 C   0  0  0  0  0  3  0  0  0  0  0  0
  160.6730  200.5850  149.5310 C   0  0  0  0  0  2  0  0  0  0  0  0
  161.1060  202.9640  150.1910 C   0  0  0  0  0  0  0  0  0  0  0  0
  161.2260  200.9440  148.1590 C   0  0  0  0  0  2  0  0  0  0  0  0
  161.8740  207.9490  149.1900 N   0  0  0  0  0  2  0  0  0  0  0  0
  161.4640  205.4810  145.7760 C   0  0  0  0  0  0  0  0  0  0  0  0
  162.7070  205.6250  146.3990 C   0  0  0  0  0  3  0  0  0  0  0  0
  160.4720  206.9670  147.4100 C   0  0  0  0  0  3  0  0  0  0  0  0
  161.7200  207.1200  148.0340 C   0  0  0  0  0  0  0  0  0  0  0  0
  160.3460  206.1500  146.2820 C   0  0  0  0  0  3  0  0  0  0  0  0
  162.8330  206.4430  147.5270 C   0  0  0  0  0  3  0  0  0  0  0  0
  161.3390  204.6700  144.6560 O   0  0  0  0  0  1  0  0  0  0  0  0
  1 26  1  6  0  0  0
  1 17  1  0  0  0  0
  1  3  1  0  0  0  0
  3  2  1  6  0  0  0
  4  6  1  0  0  0  0
  4  5  1  0  0  0  0
  7  6  1  0  0  0  0
  8 10  1  0  0  0  0
  9  5  1  0  0  0  0
 10 13  1  0  0  0  0
 10  9  2  0  0  0  0
 11  3  1  1  0  0  0
 11 12  1  0  0  0  0
 11 15  1  0  0  0  0
 12  4  2  0  0  0  0
 14  8  2  0  0  0  0
 14 12  1  0  0  0  0
 15  7  2  0  0  0  0
 16 19  1  0  0  0  0
 17 16  2  0  0  0  0
 19 18  1  0  0  0  0
 20 25  1  0  0  0  0
 20 21  1  0  0  0  0
 21 24  1  0  0  0  0
 23 22  1  0  0  0  0
 24 22  2  0  0  0  0
 24 19  1  0  0  0  0
 25 23  1  0  0  0  0
 27 31  2  0  0  0  0
 27 28  1  0  0  0  0
 28 32  2  0  0  0  0
 29 30  2  0  0  0  0
 30 26  1  0  0  0  0
 31 29  1  0  0  0  0
 32 30  1  0  0  0  0
 33 27  1  0  0  0  0
M  END
>  <MODEL>
2

>  <REMARK>
 VINA RESULT:      -8.1      2.870      3.837
  Name = 
  7 active torsions:
  status: ('A' for Active; 'I' for Inactive)
    1  A    between atoms: N_6  and  N_24
    2  A    between atoms: N_6  and  C_26
    3  A    between atoms: C_17  and  C_23
    4  A    between atoms: C_18  and  N_19
    5  A    between atoms: N_19  and  C_22
    6  A    between atoms: C_22  and  C_23
    7  A    between atoms: C_22  and  N_25
                            x       y       z     vdW  Elec       q    Type
                         _______ _______ _______ _____ _____    ______ ____

>  <TORSDO>
F 7

$$$$
=
 OpenBabel11042421223D

 33 36  0  0  1  0  0  0  0  0999 V2000
  162.2880  208.1910  148.9570 C   0  0  1  0  0  3  0  0  0  0  0  0
  163.1930  206.0880  148.2570 O   0  0  0  0  0  1  0  0  0  0  0  0
  162.3100  207.1030  147.8770 C   0  0  1  0  0  3  0  0  0  0  0  0
  161.1670  204.1130  146.8170 C   0  0  0  0  0  0  0  0  0  0  0  0
  161.6820  202.7500  146.9650 C   0  0  0  0  0  3  0  0  0  0  0  0
  161.0310  204.5580  145.6030 N   0  0  0  0  0  2  0  0  0  0  0  0
  160.5650  205.8850  145.3210 C   0  0  0  0  0  3  0  0  0  0  0  0
  160.4990  203.3250  149.7780 C   0  0  0  0  0  3  0  0  0  0  0  0
  161.5770  201.9340  148.0090 C   0  0  0  0  0  3  0  0  0  0  0  0
  160.9000  202.1510  149.2930 C   0  0  0  0  0  0  0  0  0  0  0  0
  160.9070  206.5110  147.6450 C   0  0  2  0  0  3  0  0  0  0  0  0
  160.8850  205.0310  147.9440 C   0  0  1  0  0  3  0  0  0  0  0  0
  160.7130  201.0100  150.1210 N   0  0  0  0  0  1  0  0  0  0  0  0
  160.5880  204.6660  149.1890 C   0  0  0  0  0  3  0  0  0  0  0  0
  160.4630  206.7670  146.2700 N   0  0  0  0  0  0  0  0  0  0  0  0
  162.1300  210.5550  149.0490 N   0  0  0  0  0  0  0  0  0  0  0  0
  162.2800  209.5110  148.3400 N   0  0  0  0  0  0  0  0  0  0  0  0
  163.3500  212.4150  147.9490 C   0  0  0  0  0  1  0  0  0  0  0  0
  162.1150  211.8400  148.4790 N   0  0  0  0  0  0  0  0  0  0  0  0
  158.9770  213.8400  149.5230 C   0  0  0  0  0  2  0  0  0  0  0  0
  160.4340  213.3830  149.6000 C   0  0  0  0  0  2  0  0  0  0  0  0
  160.1760  212.5940  147.2570 C   0  0  0  0  0  3  0  0  0  0  0  0
  158.8550  213.2980  147.1130 C   0  0  0  0  0  2  0  0  0  0  0  0
  160.8730  212.5610  148.4060 C   0  0  0  0  0  0  0  0  0  0  0  0
  158.6960  214.4100  148.1410 C   0  0  0  0  0  2  0  0  0  0  0  0
  161.0990  208.0430  149.7910 N   0  0  0  0  0  2  0  0  0  0  0  0
  161.2170  207.6250  154.0010 C   0  0  0  0  0  0  0  0  0  0  0  0
  160.8340  208.8370  153.4220 C   0  0  0  0  0  3  0  0  0  0  0  0
  161.5250  206.6680  151.7980 C   0  0  0  0  0  3  0  0  0  0  0  0
  161.1470  207.8870  151.2120 C   0  0  0  0  0  0  0  0  0  0  0  0
  161.5610  206.5400  153.1900 C   0  0  0  0  0  3  0  0  0  0  0  0
  160.7970  208.9660  152.0290 C   0  0  0  0  0  3  0  0  0  0  0  0
  161.2540  207.4970  155.3830 O   0  0  0  0  0  1  0  0  0  0  0  0
  1 17  1  6  0  0  0
  1 26  1  0  0  0  0
  3  2  1  1  0  0  0
  3  1  1  0  0  0  0
  4  5  2  0  0  0  0
  4 12  1  0  0  0  0
  5  9  1  0  0  0  0
  6  4  1  0  0  0  0
  7  6  1  0  0  0  0
  7 15  2  0  0  0  0
  9 10  2  0  0  0  0
 10  8  1  0  0  0  0
 10 13  1  0  0  0  0
 11  3  1  6  0  0  0
 11 12  1  0  0  0  0
 12 14  1  6  0  0  0
 14  8  2  0  0  0  0
 15 11  1  0  0  0  0
 17 16  2  0  0  0  0
 18 19  1  0  0  0  0
 19 16  1  0  0  0  0
 20 21  1  0  0  0  0
 22 24  2  0  0  0  0
 23 22  1  0  0  0  0
 23 25  1  0  0  0  0
 24 19  1  0  0  0  0
 24 21  1  0  0  0  0
 25 20  1  0  0  0  0
 26 30  1  0  0  0  0
 27 33  1  0  0  0  0
 28 27  1  0  0  0  0
 29 31  1  0  0  0  0
 30 29  2  0  0  0  0
 30 32  1  0  0  0  0
 31 27  2  0  0  0  0
 32 28  2  0  0  0  0
M  END
>  <MODEL>
3

>  <REMARK>
 VINA RESULT:      -8.0      2.784      8.335
  Name = 
  7 active torsions:
  status: ('A' for Active; 'I' for Inactive)
    1  A    between atoms: N_6  and  N_24
    2  A    between atoms: N_6  and  C_26
    3  A    between atoms: C_17  and  C_23
    4  A    between atoms: C_18  and  N_19
    5  A    between atoms: N_19  and  C_22
    6  A    between atoms: C_22  and  C_23
    7  A    between atoms: C_22  and  N_25
                            x       y       z     vdW  Elec       q    Type
                         _______ _______ _______ _____ _____    ______ ____

>  <TORSDO>
F 7

$$$$
=
 OpenBabel11042421223D

 33 36  0  0  1  0  0  0  0  0999 V2000
  161.7160  208.7910  149.6970 C   0  0  1  0  0  3  0  0  0  0  0  0
  162.6960  209.7150  151.6770 O   0  0  0  0  0  1  0  0  0  0  0  0
  162.0450  208.5810  151.1790 C   0  0  1  0  0  3  0  0  0  0  0  0
  161.1750  209.1030  154.3960 C   0  0  0  0  0  0  0  0  0  0  0  0
  161.5400  210.1430  155.3610 C   0  0  0  0  0  2  0  0  0  0  0  0
  161.4790  207.8790  154.7110 N   0  0  0  0  0  2  0  0  0  0  0  0
  161.2040  206.7730  153.8410 C   0  0  0  0  0  3  0  0  0  0  0  0
  159.5090  211.6160  153.5310 C   0  0  0  0  0  3  0  0  0  0  0  0
  161.0470  211.3720  155.4800 C   0  0  0  0  0  3  0  0  0  0  0  0
  159.9890  212.0270  154.7020 C   0  0  0  0  0  0  0  0  0  0  0  0
  160.7740  208.3080  152.0060 C   0  0  2  0  0  3  0  0  0  0  0  0
  160.5770  209.3650  153.0660 C   0  0  0  0  0  0  0  0  0  0  0  0
  159.4760  213.2490  155.2200 N   0  0  0  0  0  1  0  0  0  0  0  0
  159.8590  210.4350  152.7330 C   0  0  0  0  0  3  0  0  0  0  0  0
  160.8330  206.9730  152.6120 N   0  0  0  0  0  0  0  0  0  0  0  0
  161.5770  210.6160  148.1900 N   0  0  0  0  0  0  0  0  0  0  0  0
  161.9590  210.1770  149.3200 N   0  0  0  0  0  0  0  0  0  0  0  0
  163.1520  212.5040  147.8520 C   0  0  0  0  0  1  0  0  0  0  0  0
  161.8010  211.9470  147.8000 N   0  0  0  0  0  0  0  0  0  0  0  0
  159.2350  213.6140  145.4400 C   0  0  0  0  0  2  0  0  0  0  0  0
  160.1880  212.5200  145.9190 C   0  0  0  0  0  2  0  0  0  0  0  0
  160.0520  213.5680  148.1690 C   0  0  0  0  0  3  0  0  0  0  0  0
  158.9090  214.4480  147.7440 C   0  0  0  0  0  2  0  0  0  0  0  0
  160.6940  212.7370  147.3300 C   0  0  0  0  0  0  0  0  0  0  0  0
  158.1980  213.8930  146.5170 C   0  0  0  0  0  2  0  0  0  0  0  0
  162.5430  207.9150  148.8730 N   0  0  0  0  0  2  0  0  0  0  0  0
  161.4010  204.0240  147.6610 C   0  0  0  0  0  0  0  0  0  0  0  0
  162.0950  204.8620  146.7840 C   0  0  0  0  0  3  0  0  0  0  0  0
  161.4570  205.7510  149.3570 C   0  0  0  0  0  3  0  0  0  0  0  0
  162.1480  206.5990  148.4770 C   0  0  0  0  0  0  0  0  0  0  0  0
  161.0830  204.4670  148.9480 C   0  0  0  0  0  3  0  0  0  0  0  0
  162.4690  206.1470  147.1930 C   0  0  0  0  0  3  0  0  0  0  0  0
  161.0300  202.7500  147.2540 O   0  0  0  0  0  1  0  0  0  0  0  0
  1 26  1  6  0  0  0
  1  3  1  0  0  0  0
  3  2  1  1  0  0  0
  4  6  1  0  0  0  0
  4  5  1  0  0  0  0
  5  9  1  0  0  0  0
  7  6  1  0  0  0  0
  8 10  1  0  0  0  0
 10 13  1  0  0  0  0
 10  9  2  0  0  0  0
 11  3  1  1  0  0  0
 11 15  1  0  0  0  0
 11 12  1  0  0  0  0
 12  4  2  0  0  0  0
 14 12  1  0  0  0  0
 14  8  2  0  0  0  0
 15  7  2  0  0  0  0
 16 17  2  0  0  0  0
 17  1  1  0  0  0  0
 19 18  1  0  0  0  0
 19 16  1  0  0  0  0
 20 21  1  0  0  0  0
 20 25  1  0  0  0  0
 21 24  1  0  0  0  0
 23 22  1  0  0  0  0
 24 19  1  0  0  0  0
 24 22  2  0  0  0  0
 25 23  1  0  0  0  0
 27 31  1  0  0  0  0
 28 32  1  0  0  0  0
 28 27  2  0  0  0  0
 30 26  1  0  0  0  0
 30 29  1  0  0  0  0
 31 29  2  0  0  0  0
 32 30  2  0  0  0  0
 33 27  1  0  0  0  0
M  END
>  <MODEL>
4

>  <REMARK>
 VINA RESULT:      -7.9      1.967      6.177
  Name = 
  7 active torsions:
  status: ('A' for Active; 'I' for Inactive)
    1  A    between atoms: N_6  and  N_24
    2  A    between atoms: N_6  and  C_26
    3  A    between atoms: C_17  and  C_23
    4  A    between atoms: C_18  and  N_19
    5  A    between atoms: N_19  and  C_22
    6  A    between atoms: C_22  and  C_23
    7  A    between atoms: C_22  and  N_25
                            x       y       z     vdW  Elec       q    Type
                         _______ _______ _______ _____ _____    ______ ____

>  <TORSDO>
F 7

$$$$
=
 OpenBabel11042421223D

 33 36  0  0  1  0  0  0  0  0999 V2000
  161.6050  209.7640  149.2360 C   0  0  1  0  0  3  0  0  0  0  0  0
  160.8790  211.0670  147.3620 O   0  0  0  0  0  1  0  0  0  0  0  0
  161.9380  210.8990  148.2610 C   0  0  1  0  0  3  0  0  0  0  0  0
  160.5420  213.9680  148.1680 C   0  0  0  0  0  0  0  0  0  0  0  0
  159.1740  214.4230  147.9120 C   0  0  0  0  0  3  0  0  0  0  0  0
  161.4640  214.3990  147.3580 N   0  0  0  0  0  2  0  0  0  0  0  0
  162.8370  214.0050  147.4810 C   0  0  0  0  0  3  0  0  0  0  0  0
  158.9810  213.3320  150.8130 C   0  0  0  0  0  3  0  0  0  0  0  0
  158.1410  214.4520  148.7480 C   0  0  0  0  0  3  0  0  0  0  0  0
  158.0800  214.0640  150.1620 C   0  0  0  0  0  0  0  0  0  0  0  0
  162.2020  212.2220  149.0060 C   0  0  2  0  0  3  0  0  0  0  0  0
  160.9200  212.9930  149.2160 C   0  0  1  0  0  3  0  0  0  0  0  0
  156.9170  214.4530  150.8840 N   0  0  0  0  0  1  0  0  0  0  0  0
  160.2450  212.7560  150.3390 C   0  0  0  0  0  3  0  0  0  0  0  0
  163.1800  213.0360  148.2750 N   0  0  0  0  0  0  0  0  0  0  0  0
  161.1360  207.5250  148.6130 N   0  0  0  0  0  0  0  0  0  0  0  0
  161.9740  208.4790  148.6550 N   0  0  0  0  0  0  0  0  0  0  0  0
  162.1270  206.2050  146.7590 C   0  0  0  0  0  1  0  0  0  0  0  0
  161.4660  206.2750  148.0610 N   0  0  0  0  0  0  0  0  0  0  0  0
  160.7420  202.5730  148.9000 C   0  0  0  0  0  2  0  0  0  0  0  0
  161.3780  203.7350  148.1380 C   0  0  0  0  0  2  0  0  0  0  0  0
  160.8210  205.1570  150.1000 C   0  0  0  0  0  3  0  0  0  0  0  0
  160.4640  203.9560  150.9310 C   0  0  0  0  0  2  0  0  0  0  0  0
  161.1680  205.0800  148.8040 C   0  0  0  0  0  0  0  0  0  0  0  0
  161.0890  202.6830  150.3770 C   0  0  0  0  0  2  0  0  0  0  0  0
  162.3300  209.9520  150.4880 N   0  0  0  0  0  2  0  0  0  0  0  0
  160.8580  208.6580  154.2400 C   0  0  0  0  0  0  0  0  0  0  0  0
  161.1240  207.7320  153.2270 C   0  0  0  0  0  3  0  0  0  0  0  0
  161.5690  210.4560  152.7830 C   0  0  0  0  0  3  0  0  0  0  0  0
  161.8300  209.5310  151.7600 C   0  0  0  0  0  0  0  0  0  0  0  0
  161.0820  210.0200  154.0190 C   0  0  0  0  0  3  0  0  0  0  0  0
  161.6100  208.1690  151.9900 C   0  0  0  0  0  3  0  0  0  0  0  0
  160.3750  208.2240  155.4660 O   0  0  0  0  0  1  0  0  0  0  0  0
  1 17  1  6  0  0  0
  1 26  1  0  0  0  0
  3  2  1  6  0  0  0
  3  1  1  0  0  0  0
  4 12  1  0  0  0  0
  5  4  2  0  0  0  0
  5  9  1  0  0  0  0
  6  7  1  0  0  0  0
  6  4  1  0  0  0  0
  7 15  2  0  0  0  0
  9 10  2  0  0  0  0
 10  8  1  0  0  0  0
 10 13  1  0  0  0  0
 11  3  1  6  0  0  0
 11 12  1  0  0  0  0
 12 14  1  1  0  0  0
 14  8  2  0  0  0  0
 15 11  1  0  0  0  0
 16 17  2  0  0  0  0
 18 19  1  0  0  0  0
 19 16  1  0  0  0  0
 19 24  1  0  0  0  0
 20 25  1  0  0  0  0
 21 24  1  0  0  0  0
 21 20  1  0  0  0  0
 22 23  1  0  0  0  0
 24 22  2  0  0  0  0
 25 23  1  0  0  0  0
 26 30  1  0  0  0  0
 27 33  1  0  0  0  0
 28 27  2  0  0  0  0
 29 31  2  0  0  0  0
 30 32  2  0  0  0  0
 30 29  1  0  0  0  0
 31 27  1  0  0  0  0
 32 28  1  0  0  0  0
M  END
>  <MODEL>
5

>  <REMARK>
 VINA RESULT:      -7.8      2.307      5.666
  Name = 
  7 active torsions:
  status: ('A' for Active; 'I' for Inactive)
    1  A    between atoms: N_6  and  N_24
    2  A    between atoms: N_6  and  C_26
    3  A    between atoms: C_17  and  C_23
    4  A    between atoms: C_18  and  N_19
    5  A    between atoms: N_19  and  C_22
    6  A    between atoms: C_22  and  C_23
    7  A    between atoms: C_22  and  N_25
                            x       y       z     vdW  Elec       q    Type
                         _______ _______ _______ _____ _____    ______ ____

>  <TORSDO>
F 7

$$$$
=
 OpenBabel11042421223D

 33 36  0  0  1  0  0  0  0  0999 V2000
  161.1070  206.6690  151.9360 C   0  0  1  0  0  3  0  0  0  0  0  0
  161.7800  208.8920  152.5210 O   0  0  0  0  0  1  0  0  0  0  0  0
  161.4820  207.6370  153.0640 C   0  0  1  0  0  3  0  0  0  0  0  0
  161.1230  209.3210  155.9640 C   0  0  0  0  0  0  0  0  0  0  0  0
  161.6590  210.6000  156.4360 C   0  0  0  0  0  2  0  0  0  0  0  0
  161.4360  208.2640  156.6550 N   0  0  0  0  0  2  0  0  0  0  0  0
  161.0020  206.9500  156.2830 C   0  0  0  0  0  3  0  0  0  0  0  0
  159.4170  211.4960  154.4830 C   0  0  0  0  0  3  0  0  0  0  0  0
  161.2250  211.8280  156.1700 C   0  0  0  0  0  3  0  0  0  0  0  0
  160.0800  212.2520  155.3550 C   0  0  0  0  0  0  0  0  0  0  0  0
  160.3440  207.7740  154.0930 C   0  0  2  0  0  3  0  0  0  0  0  0
  160.3390  209.1470  154.7200 C   0  0  0  0  0  0  0  0  0  0  0  0
  159.6860  213.6150  155.4640 N   0  0  0  0  0  1  0  0  0  0  0  0
  159.6100  210.0870  154.1220 C   0  0  0  0  0  3  0  0  0  0  0  0
  160.4560  206.7350  155.1240 N   0  0  0  0  0  0  0  0  0  0  0  0
  160.9640  207.1670  149.6230 N   0  0  0  0  0  0  0  0  0  0  0  0
  161.6770  207.1230  150.6750 N   0  0  0  0  0  0  0  0  0  0  0  0
  162.0160  208.9540  148.2600 C   0  0  0  0  0  1  0  0  0  0  0  0
  161.4890  207.5970  148.3930 N   0  0  0  0  0  0  0  0  0  0  0  0
  162.7750  205.0570  145.7800 C   0  0  0  0  0  2  0  0  0  0  0  0
  162.7060  205.7480  147.1410 C   0  0  0  0  0  2  0  0  0  0  0  0
  160.4640  206.5790  146.4600 C   0  0  0  0  0  3  0  0  0  0  0  0
  160.4350  205.6680  145.2640 C   0  0  0  0  0  2  0  0  0  0  0  0
  161.5210  206.6810  147.2840 C   0  0  0  0  0  0  0  0  0  0  0  0
  161.4040  204.5040  145.4200 C   0  0  0  0  0  2  0  0  0  0  0  0
  161.6070  205.3320  152.2380 N   0  0  0  0  0  2  0  0  0  0  0  0
  160.8950  201.9310  149.8210 C   0  0  0  0  0  0  0  0  0  0  0  0
  161.1890  201.7840  151.1800 C   0  0  0  0  0  3  0  0  0  0  0  0
  161.0640  204.3360  150.0450 C   0  0  0  0  0  3  0  0  0  0  0  0
  161.3670  204.1930  151.4080 C   0  0  0  0  0  0  0  0  0  0  0  0
  160.8310  203.2070  149.2540 C   0  0  0  0  0  3  0  0  0  0  0  0
  161.4230  202.9140  151.9710 C   0  0  0  0  0  3  0  0  0  0  0  0
  160.6640  200.8100  149.0370 O   0  0  0  0  0  1  0  0  0  0  0  0
  1 17  1  6  0  0  0
  1 26  1  0  0  0  0
  1  3  1  0  0  0  0
  3  2  1  6  0  0  0
  4  5  1  0  0  0  0
  4  6  1  0  0  0  0
  7  6  1  0  0  0  0
  8 10  1  0  0  0  0
  9  5  1  0  0  0  0
 10 13  1  0  0  0  0
 10  9  2  0  0  0  0
 11  3  1  6  0  0  0
 11 12  1  0  0  0  0
 11 15  1  0  0  0  0
 12  4  2  0  0  0  0
 14  8  2  0  0  0  0
 14 12  1  0  0  0  0
 15  7  2  0  0  0  0
 16 17  2  0  0  0  0
 18 19  1  0  0  0  0
 19 16  1  0  0  0  0
 20 21  1  0  0  0  0
 21 24  1  0  0  0  0
 22 24  2  0  0  0  0
 23 25  1  0  0  0  0
 23 22  1  0  0  0  0
 24 19  1  0  0  0  0
 25 20  1  0  0  0  0
 27 28  1  0  0  0  0
 28 32  2  0  0  0  0
 29 30  2  0  0  0  0
 30 32  1  0  0  0  0
 30 26  1  0  0  0  0
 31 27  2  0  0  0  0
 31 29  1  0  0  0  0
 33 27  1  0  0  0  0
M  END
>  <MODEL>
6

>  <REMARK>
 VINA RESULT:      -7.5      2.615      5.641
  Name = 
  7 active torsions:
  status: ('A' for Active; 'I' for Inactive)
    1  A    between atoms: N_6  and  N_24
    2  A    between atoms: N_6  and  C_26
    3  A    between atoms: C_17  and  C_23
    4  A    between atoms: C_18  and  N_19
    5  A    between atoms: N_19  and  C_22
    6  A    between atoms: C_22  and  C_23
    7  A    between atoms: C_22  and  N_25
                            x       y       z     vdW  Elec       q    Type
                         _______ _______ _______ _____ _____    ______ ____

>  <TORSDO>
F 7

$$$$
=
 OpenBabel11042421223D

 33 36  0  0  1  0  0  0  0  0999 V2000
  161.6940  207.0310  150.1820 C   0  0  1  0  0  3  0  0  0  0  0  0
  160.8560  206.6730  152.3970 O   0  0  0  0  0  1  0  0  0  0  0  0
  161.0450  207.6580  151.4220 C   0  0  1  0  0  3  0  0  0  0  0  0
  160.4130  210.8180  152.4160 C   0  0  0  0  0  0  0  0  0  0  0  0
  159.2390  211.4440  153.0300 C   0  0  0  0  0  2  0  0  0  0  0  0
  160.7940  211.2910  151.2670 N   0  0  0  0  0  2  0  0  0  0  0  0
  161.9090  210.7480  150.5470 C   0  0  0  0  0  3  0  0  0  0  0  0
  160.4840  209.8840  155.4100 C   0  0  0  0  0  3  0  0  0  0  0  0
  158.8640  211.4270  154.3050 C   0  0  0  0  0  3  0  0  0  0  0  0
  159.5230  210.8040  155.4590 C   0  0  0  0  0  0  0  0  0  0  0  0
  161.9100  208.7970  151.9960 C   0  0  2  0  0  3  0  0  0  0  0  0
  161.1210  209.6410  152.9680 C   0  0  0  0  0  0  0  0  0  0  0  0
  159.0450  211.1740  156.7470 N   0  0  0  0  0  1  0  0  0  0  0  0
  161.1470  209.2780  154.2490 C   0  0  0  0  0  3  0  0  0  0  0  0
  162.4510  209.6260  150.9130 N   0  0  0  0  0  0  0  0  0  0  0  0
  160.7630  204.8790  150.5310 N   0  0  0  0  0  0  0  0  0  0  0  0
  161.8020  205.5880  150.3480 N   0  0  0  0  0  0  0  0  0  0  0  0
  160.8160  202.9100  152.0400 C   0  0  0  0  0  1  0  0  0  0  0  0
  160.8390  203.4860  150.6970 N   0  0  0  0  0  0  0  0  0  0  0  0
  160.7190  202.3070  147.0180 C   0  0  0  0  0  2  0  0  0  0  0  0
  160.9530  203.2910  148.1640 C   0  0  0  0  0  2  0  0  0  0  0  0
  161.0620  201.3150  149.6670 C   0  0  0  0  0  3  0  0  0  0  0  0
  161.1150  200.3680  148.5010 C   0  0  0  0  0  2  0  0  0  0  0  0
  160.9140  202.6440  149.5330 C   0  0  0  0  0  0  0  0  0  0  0  0
  161.5760  201.0680  147.2290 C   0  0  0  0  0  2  0  0  0  0  0  0
  160.8920  207.3220  148.9980 N   0  0  0  0  0  2  0  0  0  0  0  0
  161.5950  205.6340  145.1810 C   0  0  0  0  0  0  0  0  0  0  0  0
  160.3060  206.0210  145.5560 C   0  0  0  0  0  3  0  0  0  0  0  0
  162.4400  206.3630  147.3290 C   0  0  0  0  0  3  0  0  0  0  0  0
  161.1460  206.7470  147.7130 C   0  0  0  0  0  0  0  0  0  0  0  0
  162.6630  205.8060  146.0660 C   0  0  0  0  0  3  0  0  0  0  0  0
  160.0830  206.5790  146.8200 C   0  0  0  0  0  3  0  0  0  0  0  0
  161.8160  205.0800  143.9280 O   0  0  0  0  0  1  0  0  0  0  0  0
  1 26  1  6  0  0  0
  1 17  1  0  0  0  0
  1  3  1  0  0  0  0
  3  2  1  1  0  0  0
  4 12  2  0  0  0  0
  4  5  1  0  0  0  0
  5  9  1  0  0  0  0
  6  4  1  0  0  0  0
  7 15  2  0  0  0  0
  7  6  1  0  0  0  0
  8 10  1  0  0  0  0
  9 10  2  0  0  0  0
 10 13  1  0  0  0  0
 11  3  1  6  0  0  0
 11 12  1  0  0  0  0
 12 14  1  0  0  0  0
 14  8  2  0  0  0  0
 15 11  1  0  0  0  0
 16 19  1  0  0  0  0
 17 16  2  0  0  0  0
 19 18  1  0  0  0  0
 20 25  1  0  0  0  0
 20 21  1  0  0  0  0
 21 24  1  0  0  0  0
 23 22  1  0  0  0  0
 24 22  2  0  0  0  0
 24 19  1  0  0  0  0
 25 23  1  0  0  0  0
 27 28  2  0  0  0  0
 27 31  1  0  0  0  0
 28 32  1  0  0  0  0
 29 30  1  0  0  0  0
 30 26  1  0  0  0  0
 31 29  2  0  0  0  0
 32 30  2  0  0  0  0
 33 27  1  0  0  0  0
M  END
>  <MODEL>
7

>  <REMARK>
 VINA RESULT:      -7.3      2.799      4.245
  Name = 
  7 active torsions:
  status: ('A' for Active; 'I' for Inactive)
    1  A    between atoms: N_6  and  N_24
    2  A    between atoms: N_6  and  C_26
    3  A    between atoms: C_17  and  C_23
    4  A    between atoms: C_18  and  N_19
    5  A    between atoms: N_19  and  C_22
    6  A    between atoms: C_22  and  C_23
    7  A    between atoms: C_22  and  N_25
                            x       y       z     vdW  Elec       q    Type
                         _______ _______ _______ _____ _____    ______ ____

>  <TORSDO>
F 7

$$$$
=
 OpenBabel11042421223D

 33 36  0  0  1  0  0  0  0  0999 V2000
  162.5400  208.8060  150.5300 C   0  0  1  0  0  3  0  0  0  0  0  0
  162.6400  210.2920  152.4060 O   0  0  0  0  0  1  0  0  0  0  0  0
  162.3350  208.9760  152.0400 C   0  0  1  0  0  3  0  0  0  0  0  0
  160.5300  209.4320  154.8530 C   0  0  0  0  0  0  0  0  0  0  0  0
  160.5500  210.4760  155.8800 C   0  0  0  0  0  2  0  0  0  0  0  0
  160.7770  208.2170  155.2470 N   0  0  0  0  0  2  0  0  0  0  0  0
  160.8180  207.1100  154.3370 C   0  0  0  0  0  3  0  0  0  0  0  0
  159.0940  211.8840  153.5270 C   0  0  0  0  0  3  0  0  0  0  0  0
  159.9940  211.6830  155.8450 C   0  0  0  0  0  3  0  0  0  0  0  0
  159.1880  212.3030  154.7870 C   0  0  0  0  0  0  0  0  0  0  0  0
  160.8880  208.6450  152.4530 C   0  0  2  0  0  3  0  0  0  0  0  0
  160.3430  209.6820  153.4050 C   0  0  0  0  0  0  0  0  0  0  0  0
  158.4950  213.4980  155.1270 N   0  0  0  0  0  1  0  0  0  0  0  0
  159.7130  210.7270  152.8710 C   0  0  0  0  0  3  0  0  0  0  0  0
  160.8200  207.3070  153.0530 N   0  0  0  0  0  0  0  0  0  0  0  0
  161.3840  207.0220  149.4820 N   0  0  0  0  0  0  0  0  0  0  0  0
  162.3890  207.4060  150.1580 N   0  0  0  0  0  0  0  0  0  0  0  0
  161.0170  204.6580  150.1410 C   0  0  0  0  0  1  0  0  0  0  0  0
  161.2110  205.6770  149.1120 N   0  0  0  0  0  0  0  0  0  0  0  0
  160.6390  205.8670  145.2950 C   0  0  0  0  0  2  0  0  0  0  0  0
  160.9250  206.4110  146.6940 C   0  0  0  0  0  2  0  0  0  0  0  0
  161.5550  204.0910  147.3260 C   0  0  0  0  0  3  0  0  0  0  0  0
  161.5410  203.6440  145.8910 C   0  0  0  0  0  2  0  0  0  0  0  0
  161.2050  205.3290  147.7160 C   0  0  0  0  0  0  0  0  0  0  0  0
  161.6810  204.8200  144.9340 C   0  0  0  0  0  2  0  0  0  0  0  0
  161.5630  209.6070  149.8000 N   0  0  0  0  0  2  0  0  0  0  0  0
  162.5250  213.2600  147.8900 C   0  0  0  0  0  0  0  0  0  0  0  0
  163.2690  212.1070  147.6270 C   0  0  0  0  0  3  0  0  0  0  0  0
  161.1270  212.0080  149.4210 C   0  0  0  0  0  3  0  0  0  0  0  0
  161.8770  210.8500  149.1650 C   0  0  0  0  0  0  0  0  0  0  0  0
  161.4530  213.2110  148.7860 C   0  0  0  0  0  3  0  0  0  0  0  0
  162.9440  210.9040  148.2630 C   0  0  0  0  0  3  0  0  0  0  0  0
  162.8490  214.4530  147.2600 O   0  0  0  0  0  1  0  0  0  0  0  0
  1 26  1  6  0  0  0
  1  3  1  0  0  0  0
  3  2  1  6  0  0  0
  4  6  1  0  0  0  0
  4  5  1  0  0  0  0
  7  6  1  0  0  0  0
  8 10  1  0  0  0  0
  9  5  1  0  0  0  0
 10 13  1  0  0  0  0
 10  9  2  0  0  0  0
 11  3  1  1  0  0  0
 11 15  1  0  0  0  0
 11 12  1  0  0  0  0
 12  4  2  0  0  0  0
 14 12  1  0  0  0  0
 14  8  2  0  0  0  0
 15  7  2  0  0  0  0
 16 17  2  0  0  0  0
 17  1  1  0  0  0  0
 19 16  1  0  0  0  0
 19 18  1  0  0  0  0
 20 21  1  0  0  0  0
 21 24  1  0  0  0  0
 22 24  2  0  0  0  0
 23 22  1  0  0  0  0
 24 19  1  0  0  0  0
 25 20  1  0  0  0  0
 25 23  1  0  0  0  0
 27 31  1  0  0  0  0
 28 27  2  0  0  0  0
 28 32  1  0  0  0  0
 30 29  1  0  0  0  0
 30 26  1  0  0  0  0
 31 29  2  0  0  0  0
 32 30  2  0  0  0  0
 33 27  1  0  0  0  0
M  END
>  <MODEL>
8

>  <REMARK>
 VINA RESULT:      -7.1      1.213      2.180
  Name = 
  7 active torsions:
  status: ('A' for Active; 'I' for Inactive)
    1  A    between atoms: N_6  and  N_24
    2  A    between atoms: N_6  and  C_26
    3  A    between atoms: C_17  and  C_23
    4  A    between atoms: C_18  and  N_19
    5  A    between atoms: N_19  and  C_22
    6  A    between atoms: C_22  and  C_23
    7  A    between atoms: C_22  and  N_25
                            x       y       z     vdW  Elec       q    Type
                         _______ _______ _______ _____ _____    ______ ____

>  <TORSDO>
F 7

$$$$
=
 OpenBabel11042421223D

 33 36  0  0  1  0  0  0  0  0999 V2000
  160.9000  207.3230  149.5380 C   0  0  1  0  0  3  0  0  0  0  0  0
  159.4710  205.4150  149.3050 O   0  0  0  0  0  1  0  0  0  0  0  0
  160.4560  205.9780  150.1240 C   0  0  1  0  0  3  0  0  0  0  0  0
  160.7250  202.6240  150.3580 C   0  0  0  0  0  0  0  0  0  0  0  0
  159.9260  201.5280  149.8030 C   0  0  0  0  0  2  0  0  0  0  0  0
  160.8100  202.6890  151.6540 N   0  0  0  0  0  2  0  0  0  0  0  0
  161.5350  203.7290  152.3230 C   0  0  0  0  0  3  0  0  0  0  0  0
  161.5520  202.4850  147.3360 C   0  0  0  0  0  3  0  0  0  0  0  0
  159.9670  201.0130  148.5780 C   0  0  0  0  0  3  0  0  0  0  0  0
  160.8300  201.3720  147.4470 C   0  0  0  0  0  0  0  0  0  0  0  0
  161.6410  205.0020  150.2560 C   0  0  2  0  0  3  0  0  0  0  0  0
  161.3520  203.6970  149.5530 C   0  0  0  0  0  0  0  0  0  0  0  0
  160.8460  200.4760  146.3430 N   0  0  0  0  0  1  0  0  0  0  0  0
  161.7080  203.6030  148.2740 C   0  0  0  0  0  3  0  0  0  0  0  0
  161.9580  204.7680  151.6700 N   0  0  0  0  0  0  0  0  0  0  0  0
  160.8310  208.1740  151.7500 N   0  0  0  0  0  0  0  0  0  0  0  0
  161.3710  208.2020  150.6000 N   0  0  0  0  0  0  0  0  0  0  0  0
  162.1160  210.1620  152.4940 C   0  0  0  0  0  1  0  0  0  0  0  0
  161.2640  209.0120  152.7910 N   0  0  0  0  0  0  0  0  0  0  0  0
  160.0770  207.1060  155.9360 C   0  0  0  0  0  2  0  0  0  0  0  0
  160.8310  207.3010  154.6220 C   0  0  0  0  0  2  0  0  0  0  0  0
  160.5630  209.7460  154.9810 C   0  0  0  0  0  3  0  0  0  0  0  0
  160.0830  209.5370  156.3900 C   0  0  0  0  0  2  0  0  0  0  0  0
  160.8380  208.7360  154.1370 C   0  0  0  0  0  0  0  0  0  0  0  0
  160.5020  208.1760  156.9300 C   0  0  0  0  0  2  0  0  0  0  0  0
  161.9730  207.1170  148.5710 N   0  0  0  0  0  2  0  0  0  0  0  0
  161.3880  205.5830  144.6700 C   0  0  0  0  0  0  0  0  0  0  0  0
  162.6320  205.4690  145.2950 C   0  0  0  0  0  3  0  0  0  0  0  0
  160.5100  206.7120  146.6230 C   0  0  0  0  0  3  0  0  0  0  0  0
  161.7600  206.6060  147.2520 C   0  0  0  0  0  0  0  0  0  0  0  0
  160.3260  206.2030  145.3340 C   0  0  0  0  0  3  0  0  0  0  0  0
  162.8170  205.9790  146.5850 C   0  0  0  0  0  3  0  0  0  0  0  0
  161.2060  205.0780  143.3900 O   0  0  0  0  0  1  0  0  0  0  0  0
  1 26  1  6  0  0  0
  1  3  1  0  0  0  0
  1 17  1  0  0  0  0
  3  2  1  6  0  0  0
  4  6  1  0  0  0  0
  5  4  1  0  0  0  0
  6  7  1  0  0  0  0
  8 10  1  0  0  0  0
  8 14  2  0  0  0  0
  9  5  1  0  0  0  0
 10  9  2  0  0  0  0
 11  3  1  1  0  0  0
 11 15  1  0  0  0  0
 12 11  1  0  0  0  0
 12  4  2  0  0  0  0
 13 10  1  0  0  0  0
 14 12  1  0  0  0  0
 15  7  2  0  0  0  0
 16 19  1  0  0  0  0
 17 16  2  0  0  0  0
 18 19  1  0  0  0  0
 19 24  1  0  0  0  0
 20 25  1  0  0  0  0
 21 20  1  0  0  0  0
 22 23  1  0  0  0  0
 23 25  1  0  0  0  0
 24 21  1  0  0  0  0
 24 22  2  0  0  0  0
 27 28  2  0  0  0  0
 27 31  1  0  0  0  0
 28 32  1  0  0  0  0
 29 30  1  0  0  0  0
 30 26  1  0  0  0  0
 31 29  2  0  0  0  0
 32 30  2  0  0  0  0
 33 27  1  0  0  0  0
M  END
>  <MODEL>
9

>  <REMARK>
 VINA RESULT:      -7.1      3.505      7.780
  Name = 
  7 active torsions:
  status: ('A' for Active; 'I' for Inactive)
    1  A    between atoms: N_6  and  N_24
    2  A    between atoms: N_6  and  C_26
    3  A    between atoms: C_17  and  C_23
    4  A    between atoms: C_18  and  N_19
    5  A    between atoms: N_19  and  C_22
    6  A    between atoms: C_22  and  C_23
    7  A    between atoms: C_22  and  N_25
                            x       y       z     vdW  Elec       q    Type
                         _______ _______ _______ _____ _____    ______ ____

>  <TORSDO>
F 7

$$$$
