=
 OpenBabel11052411163D

 27 28  0  0  1  0  0  0  0  0999 V2000
  161.8760  209.6360  148.3540 O   0  0  0  0  0  0  0  0  0  0  0  0
  161.9730  210.4570  150.4850 O   0  0  0  0  0  1  0  0  0  0  0  0
  162.0160  209.4530  149.7250 C   0  0  0  0  0  0  0  0  0  0  0  0
  162.2060  208.1310  150.2640 N   0  0  0  0  0  0  0  0  0  0  0  0
  161.7850  206.1740  153.3330 C   0  0  0  0  0  2  0  0  0  0  0  0
  162.3970  206.3740  151.9930 C   0  0  0  0  0  2  0  0  0  0  0  0
  160.9990  207.1670  153.7290 C   0  0  2  0  0  3  0  0  0  0  0  0
  162.2860  207.8650  151.7000 C   0  0  2  0  0  3  0  0  0  0  0  0
  160.8320  208.5250  152.5840 S   0  0  0  0  0  0  0  0  0  0  0  0
  160.3050  207.1670  155.0540 C   0  0  0  0  0  2  0  0  0  0  0  0
  161.0730  207.9840  156.0870 C   0  0  0  0  0  2  0  0  0  0  0  0
  162.3570  210.4390  155.3680 O   0  0  0  0  0  0  0  0  0  0  0  0
  160.5700  211.7360  155.9790 O   0  0  0  0  0  1  0  0  0  0  0  0
  160.4970  209.3140  156.2280 N   0  0  0  0  0  2  0  0  0  0  0  0
  161.1890  210.5010  155.8370 C   0  0  0  0  0  0  0  0  0  0  0  0
  162.2550  206.9820  149.3720 C   0  0  0  0  0  2  0  0  0  0  0  0
  160.8760  206.3550  149.2480 C   0  0  0  0  0  2  0  0  0  0  0  0
  160.6440  203.8920  149.6330 C   0  0  0  0  0  3  0  0  0  0  0  0
  160.7440  202.5760  149.1820 C   0  0  0  0  0  3  0  0  0  0  0  0
  161.1940  202.3240  147.8780 C   0  0  0  0  0  0  0  0  0  0  0  0
  161.4330  204.6600  147.4910 C   0  0  0  0  0  3  0  0  0  0  0  0
  161.5230  203.3700  147.0710 N   0  0  0  0  0  0  0  0  0  0  0  0
  160.9950  204.9450  148.7860 C   0  0  0  0  0  0  0  0  0  0  0  0
  160.8800  200.5170  146.0850 C   0  0  0  0  0  0  0  0  0  0  0  0
  161.0900  199.0910  145.7250 C   0  0  0  0  0  1  0  0  0  0  0  0
  161.3150  200.9890  147.3660 N   0  0  0  0  0  2  0  0  0  0  0  0
  160.3220  201.2870  145.2590 O   0  0  0  0  0  0  0  0  0  0  0  0
  1  3  2  0  0  0  0
  3  4  1  0  0  0  0
  3  2  1  0  0  0  0
  5  7  1  0  0  0  0
  6  5  1  0  0  0  0
  7 10  1  1  0  0  0
  8  4  1  6  0  0  0
  8  6  1  0  0  0  0
  8  9  1  0  0  0  0
  9  7  1  0  0  0  0
 10 11  1  0  0  0  0
 11 14  1  0  0  0  0
 12 15  2  0  0  0  0
 15 13  1  0  0  0  0
 15 14  1  0  0  0  0
 16  4  1  0  0  0  0
 17 16  1  0  0  0  0
 19 18  2  0  0  0  0
 20 19  1  0  0  0  0
 21 23  2  0  0  0  0
 22 21  1  0  0  0  0
 22 20  2  0  0  0  0
 23 17  1  0  0  0  0
 23 18  1  0  0  0  0
 24 26  1  0  0  0  0
 25 24  1  0  0  0  0
 26 20  1  0  0  0  0
 27 24  2  0  0  0  0
M  END
>  <MODEL>
1

>  <REMARK>
 VINA RESULT:      -7.6      0.000      0.000
  Name = 
  8 active torsions:
  status: ('A' for Active; 'I' for Inactive)
    1  A    between atoms: C_6  and  N_18
    2  A    between atoms: C_7  and  N_14
    3  A    between atoms: C_7  and  C_27
    4  A    between atoms: C_8  and  C_12
    5  A    between atoms: C_8  and  C_26
    6  A    between atoms: C_12  and  N_24
    7  A    between atoms: C_16  and  C_27
    8  A    between atoms: C_21  and  N_24
                            x       y       z     vdW  Elec       q    Type
                         _______ _______ _______ _____ _____    ______ ____

>  <TORSDO>
F 8

$$$$
=
 OpenBabel11052411163D

 27 28  0  0  1  0  0  0  0  0999 V2000
  162.5950  207.4920  148.0320 O   0  0  0  0  0  0  0  0  0  0  0  0
  162.0060  209.5620  148.8010 O   0  0  0  0  0  1  0  0  0  0  0  0
  162.1150  208.3280  149.0330 C   0  0  0  0  0  0  0  0  0  0  0  0
  161.7470  207.7870  150.3150 N   0  0  0  0  0  0  0  0  0  0  0  0
  161.7720  210.2130  153.0620 C   0  0  0  0  0  2  0  0  0  0  0  0
  161.9800  209.8670  151.6300 C   0  0  0  0  0  2  0  0  0  0  0  0
  161.3150  209.2130  153.8040 C   0  0  2  0  0  3  0  0  0  0  0  0
  161.1670  208.6020  151.3820 C   0  0  2  0  0  3  0  0  0  0  0  0
  161.0480  207.6710  152.9460 S   0  0  0  0  0  0  0  0  0  0  0  0
  161.0200  209.3610  155.2630 C   0  0  0  0  0  2  0  0  0  0  0  0
  160.6200  210.7900  155.6110 C   0  0  0  0  0  2  0  0  0  0  0  0
  158.3800  211.3240  153.9110 O   0  0  0  0  0  0  0  0  0  0  0  0
  156.8480  211.1280  155.6030 O   0  0  0  0  0  1  0  0  0  0  0  0
  159.2290  210.8490  156.0370 N   0  0  0  0  0  2  0  0  0  0  0  0
  158.1540  211.1090  155.1320 C   0  0  0  0  0  0  0  0  0  0  0  0
  161.8800  206.3600  150.5680 C   0  0  0  0  0  2  0  0  0  0  0  0
  160.5530  205.6590  150.3290 C   0  0  0  0  0  2  0  0  0  0  0  0
  160.4890  203.1560  150.3300 C   0  0  0  0  0  3  0  0  0  0  0  0
  160.6910  201.9340  149.6880 C   0  0  0  0  0  3  0  0  0  0  0  0
  161.1830  201.9150  148.3750 C   0  0  0  0  0  0  0  0  0  0  0  0
  161.2640  204.2940  148.3540 C   0  0  0  0  0  3  0  0  0  0  0  0
  161.4540  203.0920  147.7460 N   0  0  0  0  0  0  0  0  0  0  0  0
  160.7810  204.3470  149.6630 C   0  0  0  0  0  0  0  0  0  0  0  0
  161.0150  200.3800  146.3280 C   0  0  0  0  0  0  0  0  0  0  0  0
  161.3360  199.0440  145.7610 C   0  0  0  0  0  1  0  0  0  0  0  0
  161.4090  200.6850  147.6710 N   0  0  0  0  0  2  0  0  0  0  0  0
  160.4000  201.2190  145.6190 O   0  0  0  0  0  0  0  0  0  0  0  0
  1  3  2  0  0  0  0
  2  3  1  0  0  0  0
  3  4  1  0  0  0  0
  4 16  1  0  0  0  0
  5  7  1  0  0  0  0
  6  5  1  0  0  0  0
  7 10  1  6  0  0  0
  8  4  1  6  0  0  0
  8  6  1  0  0  0  0
  8  9  1  0  0  0  0
  9  7  1  0  0  0  0
 10 11  1  0  0  0  0
 11 14  1  0  0  0  0
 12 15  2  0  0  0  0
 15 13  1  0  0  0  0
 15 14  1  0  0  0  0
 17 16  1  0  0  0  0
 19 18  2  0  0  0  0
 20 19  1  0  0  0  0
 21 23  2  0  0  0  0
 22 21  1  0  0  0  0
 22 20  2  0  0  0  0
 23 17  1  0  0  0  0
 23 18  1  0  0  0  0
 24 26  1  0  0  0  0
 25 24  1  0  0  0  0
 26 20  1  0  0  0  0
 27 24  2  0  0  0  0
M  END
>  <MODEL>
2

>  <REMARK>
 VINA RESULT:      -7.3      1.652      2.079
  Name = 
  8 active torsions:
  status: ('A' for Active; 'I' for Inactive)
    1  A    between atoms: C_6  and  N_18
    2  A    between atoms: C_7  and  N_14
    3  A    between atoms: C_7  and  C_27
    4  A    between atoms: C_8  and  C_12
    5  A    between atoms: C_8  and  C_26
    6  A    between atoms: C_12  and  N_24
    7  A    between atoms: C_16  and  C_27
    8  A    between atoms: C_21  and  N_24
                            x       y       z     vdW  Elec       q    Type
                         _______ _______ _______ _____ _____    ______ ____

>  <TORSDO>
F 8

$$$$
=
 OpenBabel11052411163D

 27 28  0  0  1  0  0  0  0  0999 V2000
  162.0960  208.3530  149.9050 O   0  0  0  0  0  1  0  0  0  0  0  0
  160.7410  206.9670  148.6930 O   0  0  0  0  0  0  0  0  0  0  0  0
  161.3750  207.1730  149.7620 C   0  0  0  0  0  0  0  0  0  0  0  0
  161.3590  206.2010  150.8250 N   0  0  0  0  0  0  0  0  0  0  0  0
  160.9180  202.5950  151.3110 C   0  0  0  0  0  2  0  0  0  0  0  0
  161.0440  203.9750  151.8530 C   0  0  0  0  0  2  0  0  0  0  0  0
  160.9250  202.5270  149.9860 C   0  0  2  0  0  3  0  0  0  0  0  0
  160.6810  204.9110  150.7060 C   0  0  2  0  0  3  0  0  0  0  0  0
  161.0860  204.0850  149.1300 S   0  0  0  0  0  0  0  0  0  0  0  0
  160.7890  201.2340  149.2450 C   0  0  0  0  0  2  0  0  0  0  0  0
  161.5160  201.2780  147.9060 C   0  0  0  0  0  2  0  0  0  0  0  0
  161.3950  202.9410  145.5800 O   0  0  0  0  0  1  0  0  0  0  0  0
  159.6740  201.7620  144.6330 O   0  0  0  0  0  0  0  0  0  0  0  0
  160.5800  201.1230  146.8020 N   0  0  0  0  0  2  0  0  0  0  0  0
  160.5810  201.9830  145.6610 C   0  0  0  0  0  0  0  0  0  0  0  0
  162.0950  206.4540  152.0540 C   0  0  0  0  0  2  0  0  0  0  0  0
  161.1390  206.5110  153.2360 C   0  0  0  0  0  2  0  0  0  0  0  0
  160.7790  208.9620  152.8700 C   0  0  0  0  0  3  0  0  0  0  0  0
  160.6720  210.2620  153.3650 C   0  0  0  0  0  3  0  0  0  0  0  0
  160.8250  210.4950  154.7390 C   0  0  0  0  0  0  0  0  0  0  0  0
  161.1810  208.1710  155.1100 C   0  0  0  0  0  3  0  0  0  0  0  0
  161.0730  209.4460  155.5710 N   0  0  0  0  0  0  0  0  0  0  0  0
  161.0400  207.9060  153.7460 C   0  0  0  0  0  0  0  0  0  0  0  0
  159.5200  212.5360  155.5810 C   0  0  0  0  0  0  0  0  0  0  0  0
  159.6100  213.9000  156.1620 C   0  0  0  0  0  1  0  0  0  0  0  0
  160.7240  211.8130  155.2970 N   0  0  0  0  0  2  0  0  0  0  0  0
  158.3870  212.0390  155.3460 O   0  0  0  0  0  0  0  0  0  0  0  0
  2  3  2  0  0  0  0
  3  1  1  0  0  0  0
  3  4  1  0  0  0  0
  4 16  1  0  0  0  0
  5  6  1  0  0  0  0
  7 10  1  6  0  0  0
  7  5  1  0  0  0  0
  8  4  1  1  0  0  0
  8  6  1  0  0  0  0
  9  7  1  0  0  0  0
  9  8  1  0  0  0  0
 11 10  1  0  0  0  0
 12 15  1  0  0  0  0
 13 15  2  0  0  0  0
 14 11  1  0  0  0  0
 15 14  1  0  0  0  0
 16 17  1  0  0  0  0
 17 23  1  0  0  0  0
 18 19  2  0  0  0  0
 18 23  1  0  0  0  0
 19 20  1  0  0  0  0
 20 26  1  0  0  0  0
 20 22  2  0  0  0  0
 21 22  1  0  0  0  0
 23 21  2  0  0  0  0
 24 25  1  0  0  0  0
 26 24  1  0  0  0  0
 27 24  2  0  0  0  0
M  END
>  <MODEL>
3

>  <REMARK>
 VINA RESULT:      -7.2      2.131      9.552
  Name = 
  8 active torsions:
  status: ('A' for Active; 'I' for Inactive)
    1  A    between atoms: C_6  and  N_18
    2  A    between atoms: C_7  and  N_14
    3  A    between atoms: C_7  and  C_27
    4  A    between atoms: C_8  and  C_12
    5  A    between atoms: C_8  and  C_26
    6  A    between atoms: C_12  and  N_24
    7  A    between atoms: C_16  and  C_27
    8  A    between atoms: C_21  and  N_24
                            x       y       z     vdW  Elec       q    Type
                         _______ _______ _______ _____ _____    ______ ____

>  <TORSDO>
F 8

$$$$
=
 OpenBabel11052411163D

 27 28  0  0  1  0  0  0  0  0999 V2000
  161.5020  206.2010  154.1310 O   0  0  0  0  0  1  0  0  0  0  0  0
  160.8470  208.3440  153.6810 O   0  0  0  0  0  0  0  0  0  0  0  0
  161.2170  207.2240  153.2350 C   0  0  0  0  0  0  0  0  0  0  0  0
  161.3460  207.0040  151.8180 N   0  0  0  0  0  0  0  0  0  0  0  0
  161.8460  208.7720  148.6470 C   0  0  0  0  0  2  0  0  0  0  0  0
  161.4100  207.5750  149.4140 C   0  0  0  0  0  2  0  0  0  0  0  0
  162.2460  209.7870  149.4020 C   0  0  2  0  0  3  0  0  0  0  0  0
  161.1320  208.0610  150.8300 C   0  0  2  0  0  3  0  0  0  0  0  0
  162.1860  209.5130  151.1640 S   0  0  0  0  0  0  0  0  0  0  0  0
  162.7040  211.0890  148.8250 C   0  0  0  0  0  2  0  0  0  0  0  0
  161.5440  211.8740  148.2250 C   0  0  0  0  0  2  0  0  0  0  0  0
  160.0860  212.4080  145.8200 O   0  0  0  0  0  1  0  0  0  0  0  0
  161.7020  213.7850  144.9590 O   0  0  0  0  0  0  0  0  0  0  0  0
  162.0000  212.7160  147.1280 N   0  0  0  0  0  2  0  0  0  0  0  0
  161.2150  212.9510  145.9570 C   0  0  0  0  0  0  0  0  0  0  0  0
  161.7730  205.7060  151.3190 C   0  0  0  0  0  2  0  0  0  0  0  0
  160.6450  204.6960  151.4520 C   0  0  0  0  0  2  0  0  0  0  0  0
  161.0210  203.8810  149.1150 C   0  0  0  0  0  3  0  0  0  0  0  0
  161.2080  202.8390  148.2060 C   0  0  0  0  0  3  0  0  0  0  0  0
  161.2020  201.5130  148.6610 C   0  0  0  0  0  0  0  0  0  0  0  0
  160.8330  202.2630  150.8890 C   0  0  0  0  0  3  0  0  0  0  0  0
  161.0160  201.2630  149.9870 N   0  0  0  0  0  0  0  0  0  0  0  0
  160.8270  203.5940  150.4670 C   0  0  0  0  0  0  0  0  0  0  0  0
  160.9330  200.3120  146.4120 C   0  0  0  0  0  0  0  0  0  0  0  0
  161.2210  199.0800  145.6320 C   0  0  0  0  0  1  0  0  0  0  0  0
  161.3890  200.4070  147.7660 N   0  0  0  0  0  2  0  0  0  0  0  0
  160.2910  201.2500  145.8690 O   0  0  0  0  0  0  0  0  0  0  0  0
  3  2  2  0  0  0  0
  3  1  1  0  0  0  0
  4  3  1  0  0  0  0
  5  7  1  0  0  0  0
  5  6  1  0  0  0  0
  6  8  1  0  0  0  0
  7 10  1  1  0  0  0
  7  9  1  0  0  0  0
  8  9  1  0  0  0  0
  8  4  1  1  0  0  0
 11 10  1  0  0  0  0
 12 15  1  0  0  0  0
 13 15  2  0  0  0  0
 14 11  1  0  0  0  0
 15 14  1  0  0  0  0
 16 17  1  0  0  0  0
 16  4  1  0  0  0  0
 18 23  1  0  0  0  0
 19 20  1  0  0  0  0
 19 18  2  0  0  0  0
 20 22  2  0  0  0  0
 22 21  1  0  0  0  0
 23 21  2  0  0  0  0
 23 17  1  0  0  0  0
 24 26  1  0  0  0  0
 25 24  1  0  0  0  0
 26 20  1  0  0  0  0
 27 24  2  0  0  0  0
M  END
>  <MODEL>
4

>  <REMARK>
 VINA RESULT:      -7.1      2.582      5.350
  Name = 
  8 active torsions:
  status: ('A' for Active; 'I' for Inactive)
    1  A    between atoms: C_6  and  N_18
    2  A    between atoms: C_7  and  N_14
    3  A    between atoms: C_7  and  C_27
    4  A    between atoms: C_8  and  C_12
    5  A    between atoms: C_8  and  C_26
    6  A    between atoms: C_12  and  N_24
    7  A    between atoms: C_16  and  C_27
    8  A    between atoms: C_21  and  N_24
                            x       y       z     vdW  Elec       q    Type
                         _______ _______ _______ _____ _____    ______ ____

>  <TORSDO>
F 8

$$$$
=
 OpenBabel11052411163D

 27 28  0  0  1  0  0  0  0  0999 V2000
  161.9370  208.4410  149.8580 O   0  0  0  0  0  0  0  0  0  0  0  0
  162.6460  209.7940  151.5580 O   0  0  0  0  0  1  0  0  0  0  0  0
  162.0510  208.7390  151.2110 C   0  0  0  0  0  0  0  0  0  0  0  0
  161.4930  207.8530  152.1980 N   0  0  0  0  0  0  0  0  0  0  0  0
  160.2750  207.7600  155.6530 C   0  0  0  0  0  2  0  0  0  0  0  0
  160.7940  207.0760  154.4390 C   0  0  0  0  0  2  0  0  0  0  0  0
  160.2100  209.0810  155.5500 C   0  0  2  0  0  3  0  0  0  0  0  0
  161.5150  208.1480  153.6300 C   0  0  2  0  0  3  0  0  0  0  0  0
  160.7480  209.7640  153.9920 S   0  0  0  0  0  0  0  0  0  0  0  0
  159.7340  209.9540  156.6680 C   0  0  0  0  0  2  0  0  0  0  0  0
  159.0960  211.2350  156.1440 C   0  0  0  0  0  2  0  0  0  0  0  0
  157.6550  212.0370  153.8050 O   0  0  0  0  0  0  0  0  0  0  0  0
  155.6510  211.2370  154.5730 O   0  0  0  0  0  1  0  0  0  0  0  0
  157.6690  211.0510  155.9240 N   0  0  0  0  0  2  0  0  0  0  0  0
  157.0120  211.4650  154.7240 C   0  0  0  0  0  0  0  0  0  0  0  0
  160.8090  206.6370  151.7810 C   0  0  0  0  0  2  0  0  0  0  0  0
  161.7600  205.4520  151.8460 C   0  0  0  0  0  2  0  0  0  0  0  0
  161.1290  203.1500  151.0930 C   0  0  0  0  0  3  0  0  0  0  0  0
  160.8060  202.2480  150.0780 C   0  0  0  0  0  3  0  0  0  0  0  0
  160.7850  202.6840  148.7460 C   0  0  0  0  0  0  0  0  0  0  0  0
  161.3950  204.8780  149.4360 C   0  0  0  0  0  3  0  0  0  0  0  0
  161.0780  203.9830  148.4630 N   0  0  0  0  0  0  0  0  0  0  0  0
  161.4310  204.4740  150.7730 C   0  0  0  0  0  0  0  0  0  0  0  0
  160.7240  202.0040  146.2740 C   0  0  0  0  0  0  0  0  0  0  0  0
  160.3120  200.9670  145.2930 C   0  0  0  0  0  1  0  0  0  0  0  0
  160.4590  201.7960  147.6670 N   0  0  0  0  0  2  0  0  0  0  0  0
  161.2980  203.0470  145.8650 O   0  0  0  0  0  0  0  0  0  0  0  0
  1  3  2  0  0  0  0
  3  2  1  0  0  0  0
  3  4  1  0  0  0  0
  6  5  1  0  0  0  0
  7  5  1  0  0  0  0
  7 10  1  1  0  0  0
  8  4  1  6  0  0  0
  8  9  1  0  0  0  0
  8  6  1  0  0  0  0
  9  7  1  0  0  0  0
 11 10  1  0  0  0  0
 12 15  2  0  0  0  0
 13 15  1  0  0  0  0
 14 11  1  0  0  0  0
 15 14  1  0  0  0  0
 16 17  1  0  0  0  0
 16  4  1  0  0  0  0
 19 18  2  0  0  0  0
 20 19  1  0  0  0  0
 21 23  2  0  0  0  0
 22 20  2  0  0  0  0
 22 21  1  0  0  0  0
 23 18  1  0  0  0  0
 23 17  1  0  0  0  0
 24 26  1  0  0  0  0
 25 24  1  0  0  0  0
 26 20  1  0  0  0  0
 27 24  2  0  0  0  0
M  END
>  <MODEL>
5

>  <REMARK>
 VINA RESULT:      -7.1      2.113      2.731
  Name = 
  8 active torsions:
  status: ('A' for Active; 'I' for Inactive)
    1  A    between atoms: C_6  and  N_18
    2  A    between atoms: C_7  and  N_14
    3  A    between atoms: C_7  and  C_27
    4  A    between atoms: C_8  and  C_12
    5  A    between atoms: C_8  and  C_26
    6  A    between atoms: C_12  and  N_24
    7  A    between atoms: C_16  and  C_27
    8  A    between atoms: C_21  and  N_24
                            x       y       z     vdW  Elec       q    Type
                         _______ _______ _______ _____ _____    ______ ____

>  <TORSDO>
F 8

$$$$
=
 OpenBabel11052411163D

 27 28  0  0  1  0  0  0  0  0999 V2000
  160.5540  206.5920  154.0860 O   0  0  0  0  0  1  0  0  0  0  0  0
  161.7420  205.1470  152.7720 O   0  0  0  0  0  0  0  0  0  0  0  0
  161.2130  206.2840  152.9020 C   0  0  0  0  0  0  0  0  0  0  0  0
  161.2860  207.2530  151.8400 N   0  0  0  0  0  0  0  0  0  0  0  0
  162.1910  207.8970  148.3470 C   0  0  0  0  0  2  0  0  0  0  0  0
  162.2600  208.2390  149.7930 C   0  0  0  0  0  2  0  0  0  0  0  0
  161.5010  206.7960  148.0800 C   0  0  2  0  0  3  0  0  0  0  0  0
  161.9000  206.9640  150.5440 C   0  0  2  0  0  3  0  0  0  0  0  0
  160.7980  205.9600  149.4910 S   0  0  0  0  0  0  0  0  0  0  0  0
  161.3300  206.2690  146.6900 C   0  0  0  0  0  2  0  0  0  0  0  0
  162.3780  205.2130  146.3600 C   0  0  0  0  0  2  0  0  0  0  0  0
  161.2630  202.8000  147.4200 O   0  0  0  0  0  1  0  0  0  0  0  0
  160.6850  201.9760  145.3620 O   0  0  0  0  0  0  0  0  0  0  0  0
  161.7970  204.1330  145.5750 N   0  0  0  0  0  2  0  0  0  0  0  0
  161.2450  202.9570  146.1700 C   0  0  0  0  0  0  0  0  0  0  0  0
  160.6710  208.5620  152.0060 C   0  0  0  0  0  2  0  0  0  0  0  0
  161.3460  209.3180  153.1390 C   0  0  0  0  0  2  0  0  0  0  0  0
  159.4400  210.9360  153.2800 C   0  0  0  0  0  3  0  0  0  0  0  0
  158.4830  211.6250  154.0250 C   0  0  0  0  0  3  0  0  0  0  0  0
  158.4230  211.4430  155.4140 C   0  0  0  0  0  0  0  0  0  0  0  0
  160.2410  209.9100  155.3070 C   0  0  0  0  0  3  0  0  0  0  0  0
  159.3010  210.5920  156.0140 N   0  0  0  0  0  0  0  0  0  0  0  0
  160.3310  210.0750  153.9230 C   0  0  0  0  0  0  0  0  0  0  0  0
  156.0690  211.8080  156.3620 C   0  0  0  0  0  0  0  0  0  0  0  0
  155.2150  212.6350  157.2530 C   0  0  0  0  0  1  0  0  0  0  0  0
  157.4580  212.1290  156.2240 N   0  0  0  0  0  2  0  0  0  0  0  0
  155.5560  210.8390  155.7410 O   0  0  0  0  0  0  0  0  0  0  0  0
  2  3  2  0  0  0  0
  3  1  1  0  0  0  0
  4 16  1  0  0  0  0
  4  3  1  0  0  0  0
  5  6  1  0  0  0  0
  6  8  1  0  0  0  0
  7 10  1  1  0  0  0
  7  5  1  0  0  0  0
  7  9  1  0  0  0  0
  8  4  1  1  0  0  0
  9  8  1  0  0  0  0
 11 10  1  0  0  0  0
 13 15  2  0  0  0  0
 14 15  1  0  0  0  0
 14 11  1  0  0  0  0
 15 12  1  0  0  0  0
 16 17  1  0  0  0  0
 17 23  1  0  0  0  0
 18 23  1  0  0  0  0
 18 19  2  0  0  0  0
 19 20  1  0  0  0  0
 20 22  2  0  0  0  0
 20 26  1  0  0  0  0
 21 22  1  0  0  0  0
 23 21  2  0  0  0  0
 24 25  1  0  0  0  0
 26 24  1  0  0  0  0
 27 24  2  0  0  0  0
M  END
>  <MODEL>
6

>  <REMARK>
 VINA RESULT:      -6.9      3.119      9.954
  Name = 
  8 active torsions:
  status: ('A' for Active; 'I' for Inactive)
    1  A    between atoms: C_6  and  N_18
    2  A    between atoms: C_7  and  N_14
    3  A    between atoms: C_7  and  C_27
    4  A    between atoms: C_8  and  C_12
    5  A    between atoms: C_8  and  C_26
    6  A    between atoms: C_12  and  N_24
    7  A    between atoms: C_16  and  C_27
    8  A    between atoms: C_21  and  N_24
                            x       y       z     vdW  Elec       q    Type
                         _______ _______ _______ _____ _____    ______ ____

>  <TORSDO>
F 8

$$$$
=
 OpenBabel11052411163D

 27 28  0  0  1  0  0  0  0  0999 V2000
  161.1980  204.8150  153.0320 O   0  0  0  0  0  0  0  0  0  0  0  0
  161.2780  206.8160  154.1350 O   0  0  0  0  0  1  0  0  0  0  0  0
  161.3900  206.1920  153.0460 C   0  0  0  0  0  0  0  0  0  0  0  0
  161.7140  206.8900  151.8290 N   0  0  0  0  0  0  0  0  0  0  0  0
  160.9030  210.4620  151.6980 C   0  0  0  0  0  2  0  0  0  0  0  0
  160.8590  209.1420  152.3840 C   0  0  0  0  0  2  0  0  0  0  0  0
  161.5870  210.4640  150.5620 C   0  0  2  0  0  3  0  0  0  0  0  0
  162.0000  208.3240  151.7920 C   0  0  2  0  0  3  0  0  0  0  0  0
  162.3060  208.9010  150.0880 S   0  0  0  0  0  0  0  0  0  0  0  0
  161.7670  211.6950  149.7310 C   0  0  0  0  0  2  0  0  0  0  0  0
  162.2920  211.3590  148.3400 C   0  0  0  0  0  2  0  0  0  0  0  0
  160.8990  212.6820  146.2180 O   0  0  0  0  0  1  0  0  0  0  0  0
  162.4680  214.3380  146.0080 O   0  0  0  0  0  0  0  0  0  0  0  0
  162.7420  212.5610  147.6520 N   0  0  0  0  0  2  0  0  0  0  0  0
  161.9900  213.1790  146.6050 C   0  0  0  0  0  0  0  0  0  0  0  0
  161.8390  206.1560  150.5790 C   0  0  0  0  0  2  0  0  0  0  0  0
  160.5180  205.4910  150.2270 C   0  0  0  0  0  2  0  0  0  0  0  0
  160.4310  202.9890  150.1940 C   0  0  0  0  0  3  0  0  0  0  0  0
  160.6530  201.7740  149.5470 C   0  0  0  0  0  3  0  0  0  0  0  0
  161.2060  201.7650  148.2590 C   0  0  0  0  0  0  0  0  0  0  0  0
  161.3090  204.1430  148.2710 C   0  0  0  0  0  3  0  0  0  0  0  0
  161.5170  202.9470  147.6580 N   0  0  0  0  0  0  0  0  0  0  0  0
  160.7650  204.1850  149.5560 C   0  0  0  0  0  0  0  0  0  0  0  0
  161.0420  200.2240  146.2160 C   0  0  0  0  0  0  0  0  0  0  0  0
  161.3910  198.8980  145.6440 C   0  0  0  0  0  1  0  0  0  0  0  0
  161.4540  200.5420  147.5510 N   0  0  0  0  0  2  0  0  0  0  0  0
  160.3890  201.0440  145.5190 O   0  0  0  0  0  0  0  0  0  0  0  0
  1  3  2  0  0  0  0
  3  2  1  0  0  0  0
  4  3  1  0  0  0  0
  5  6  1  0  0  0  0
  7 10  1  1  0  0  0
  7  5  1  0  0  0  0
  8  4  1  6  0  0  0
  8  6  1  0  0  0  0
  9  7  1  0  0  0  0
  9  8  1  0  0  0  0
 11 10  1  0  0  0  0
 12 15  1  0  0  0  0
 13 15  2  0  0  0  0
 14 11  1  0  0  0  0
 15 14  1  0  0  0  0
 16  4  1  0  0  0  0
 17 16  1  0  0  0  0
 19 18  2  0  0  0  0
 20 19  1  0  0  0  0
 21 23  2  0  0  0  0
 22 20  2  0  0  0  0
 22 21  1  0  0  0  0
 23 18  1  0  0  0  0
 23 17  1  0  0  0  0
 24 26  1  0  0  0  0
 25 24  1  0  0  0  0
 26 20  1  0  0  0  0
 27 24  2  0  0  0  0
M  END
>  <MODEL>
7

>  <REMARK>
 VINA RESULT:      -6.7      2.669      5.010
  Name = 
  8 active torsions:
  status: ('A' for Active; 'I' for Inactive)
    1  A    between atoms: C_6  and  N_18
    2  A    between atoms: C_7  and  N_14
    3  A    between atoms: C_7  and  C_27
    4  A    between atoms: C_8  and  C_12
    5  A    between atoms: C_8  and  C_26
    6  A    between atoms: C_12  and  N_24
    7  A    between atoms: C_16  and  C_27
    8  A    between atoms: C_21  and  N_24
                            x       y       z     vdW  Elec       q    Type
                         _______ _______ _______ _____ _____    ______ ____

>  <TORSDO>
F 8

$$$$
=
 OpenBabel11052411163D

 27 28  0  0  1  0  0  0  0  0999 V2000
  160.9230  205.9010  153.9360 O   0  0  0  0  0  0  0  0  0  0  0  0
  160.2790  207.7410  155.1300 O   0  0  0  0  0  1  0  0  0  0  0  0
  160.8320  207.2790  154.0960 C   0  0  0  0  0  0  0  0  0  0  0  0
  161.3650  208.1620  153.0920 N   0  0  0  0  0  0  0  0  0  0  0  0
  161.0900  211.3460  154.8850 C   0  0  0  0  0  2  0  0  0  0  0  0
  161.7670  210.0440  154.6430 C   0  0  0  0  0  2  0  0  0  0  0  0
  160.0750  211.5930  154.0670 C   0  0  2  0  0  3  0  0  0  0  0  0
  161.3650  209.6170  153.2370 C   0  0  2  0  0  3  0  0  0  0  0  0
  159.7270  210.3270  152.8590 S   0  0  0  0  0  0  0  0  0  0  0  0
  159.2760  212.8570  154.1330 C   0  0  0  0  0  2  0  0  0  0  0  0
  158.3340  212.8610  155.3320 C   0  0  0  0  0  2  0  0  0  0  0  0
  155.5850  212.5970  154.5800 O   0  0  0  0  0  0  0  0  0  0  0  0
  155.5120  210.3530  155.0360 O   0  0  0  0  0  1  0  0  0  0  0  0
  157.5570  211.6310  155.3840 N   0  0  0  0  0  2  0  0  0  0  0  0
  156.1870  211.5650  154.9810 C   0  0  0  0  0  0  0  0  0  0  0  0
  162.0000  207.6130  151.9030 C   0  0  0  0  0  2  0  0  0  0  0  0
  161.0240  207.6190  150.7370 C   0  0  0  0  0  2  0  0  0  0  0  0
  160.8660  205.1200  150.7040 C   0  0  0  0  0  3  0  0  0  0  0  0
  160.9050  203.9090  150.0130 C   0  0  0  0  0  3  0  0  0  0  0  0
  161.1560  203.9050  148.6340 C   0  0  0  0  0  0  0  0  0  0  0  0
  161.3220  206.2790  148.6420 C   0  0  0  0  0  3  0  0  0  0  0  0
  161.3550  205.0880  147.9890 N   0  0  0  0  0  0  0  0  0  0  0  0
  161.0800  206.3170  150.0170 C   0  0  0  0  0  0  0  0  0  0  0  0
  161.2060  201.3520  148.4010 C   0  0  0  0  0  0  0  0  0  0  0  0
  161.2630  200.2030  147.4600 C   0  0  0  0  0  1  0  0  0  0  0  0
  161.2060  202.6860  147.8790 N   0  0  0  0  0  2  0  0  0  0  0  0
  161.1610  201.1330  149.6400 O   0  0  0  0  0  0  0  0  0  0  0  0
  1  3  2  0  0  0  0
  3  2  1  0  0  0  0
  4  3  1  0  0  0  0
  6  5  1  0  0  0  0
  7 10  1  6  0  0  0
  7  5  1  0  0  0  0
  8  4  1  1  0  0  0
  8  6  1  0  0  0  0
  9  8  1  0  0  0  0
  9  7  1  0  0  0  0
 10 11  1  0  0  0  0
 11 14  1  0  0  0  0
 12 15  2  0  0  0  0
 15 13  1  0  0  0  0
 15 14  1  0  0  0  0
 16  4  1  0  0  0  0
 17 16  1  0  0  0  0
 19 18  2  0  0  0  0
 20 19  1  0  0  0  0
 21 23  2  0  0  0  0
 22 20  2  0  0  0  0
 22 21  1  0  0  0  0
 23 18  1  0  0  0  0
 23 17  1  0  0  0  0
 24 27  2  0  0  0  0
 25 24  1  0  0  0  0
 26 24  1  0  0  0  0
 26 20  1  0  0  0  0
M  END
>  <MODEL>
8

>  <REMARK>
 VINA RESULT:      -6.6      2.888      4.058
  Name = 
  8 active torsions:
  status: ('A' for Active; 'I' for Inactive)
    1  A    between atoms: C_6  and  N_18
    2  A    between atoms: C_7  and  N_14
    3  A    between atoms: C_7  and  C_27
    4  A    between atoms: C_8  and  C_12
    5  A    between atoms: C_8  and  C_26
    6  A    between atoms: C_12  and  N_24
    7  A    between atoms: C_16  and  C_27
    8  A    between atoms: C_21  and  N_24
                            x       y       z     vdW  Elec       q    Type
                         _______ _______ _______ _____ _____    ______ ____

>  <TORSDO>
F 8

$$$$
=
 OpenBabel11052411163D

 27 28  0  0  1  0  0  0  0  0999 V2000
  160.7500  202.9200  151.6630 O   0  0  0  0  0  1  0  0  0  0  0  0
  160.5430  202.9750  149.3870 O   0  0  0  0  0  0  0  0  0  0  0  0
  160.9010  203.5650  150.4410 C   0  0  0  0  0  0  0  0  0  0  0  0
  161.4560  204.8930  150.3870 N   0  0  0  0  0  0  0  0  0  0  0  0
  160.2740  206.3800  147.2530 C   0  0  0  0  0  2  0  0  0  0  0  0
  160.2410  206.2750  148.7360 C   0  0  0  0  0  2  0  0  0  0  0  0
  161.1810  205.6060  146.6710 C   0  0  2  0  0  3  0  0  0  0  0  0
  161.5710  205.6520  149.1420 C   0  0  2  0  0  3  0  0  0  0  0  0
  162.1650  204.6040  147.7710 S   0  0  0  0  0  0  0  0  0  0  0  0
  161.3870  205.5800  145.1890 C   0  0  0  0  0  2  0  0  0  0  0  0
  160.8960  204.2720  144.5800 C   0  0  0  0  0  2  0  0  0  0  0  0
  159.4940  201.7810  144.7140 O   0  0  0  0  0  0  0  0  0  0  0  0
  160.9390  200.8690  146.2400 O   0  0  0  0  0  1  0  0  0  0  0  0
  161.2600  203.1400  145.4200 N   0  0  0  0  0  2  0  0  0  0  0  0
  160.5210  201.9170  145.4300 C   0  0  0  0  0  0  0  0  0  0  0  0
  161.8660  205.5610  151.6120 C   0  0  0  0  0  2  0  0  0  0  0  0
  162.5230  206.8940  151.2890 C   0  0  0  0  0  2  0  0  0  0  0  0
  161.1290  207.6890  153.2100 C   0  0  0  0  0  3  0  0  0  0  0  0
  160.5430  208.7230  153.9420 C   0  0  0  0  0  3  0  0  0  0  0  0
  160.7140  210.0500  153.5240 C   0  0  0  0  0  0  0  0  0  0  0  0
  162.0330  209.3180  151.6830 C   0  0  0  0  0  3  0  0  0  0  0  0
  161.4540  210.3100  152.4110 N   0  0  0  0  0  0  0  0  0  0  0  0
  161.8760  207.9850  152.0690 C   0  0  0  0  0  0  0  0  0  0  0  0
  160.6100  211.7260  155.4620 C   0  0  0  0  0  0  0  0  0  0  0  0
  159.8730  212.8670  156.0650 C   0  0  0  0  0  1  0  0  0  0  0  0
  160.1320  211.1480  154.2420 N   0  0  0  0  0  2  0  0  0  0  0  0
  161.6410  211.2860  156.0360 O   0  0  0  0  0  0  0  0  0  0  0  0
  2  3  2  0  0  0  0
  3  1  1  0  0  0  0
  4  3  1  0  0  0  0
  4 16  1  0  0  0  0
  5  6  1  0  0  0  0
  6  8  1  0  0  0  0
  7 10  1  1  0  0  0
  7  5  1  0  0  0  0
  7  9  1  0  0  0  0
  8  4  1  1  0  0  0
  9  8  1  0  0  0  0
 11 10  1  0  0  0  0
 11 14  1  0  0  0  0
 12 15  2  0  0  0  0
 14 15  1  0  0  0  0
 15 13  1  0  0  0  0
 17 16  1  0  0  0  0
 17 23  1  0  0  0  0
 18 19  2  0  0  0  0
 20 19  1  0  0  0  0
 20 26  1  0  0  0  0
 21 23  2  0  0  0  0
 21 22  1  0  0  0  0
 22 20  2  0  0  0  0
 23 18  1  0  0  0  0
 24 27  2  0  0  0  0
 24 25  1  0  0  0  0
 26 24  1  0  0  0  0
M  END
>  <MODEL>
9

>  <REMARK>
 VINA RESULT:      -6.6      2.707      9.682
  Name = 
  8 active torsions:
  status: ('A' for Active; 'I' for Inactive)
    1  A    between atoms: C_6  and  N_18
    2  A    between atoms: C_7  and  N_14
    3  A    between atoms: C_7  and  C_27
    4  A    between atoms: C_8  and  C_12
    5  A    between atoms: C_8  and  C_26
    6  A    between atoms: C_12  and  N_24
    7  A    between atoms: C_16  and  C_27
    8  A    between atoms: C_21  and  N_24
                            x       y       z     vdW  Elec       q    Type
                         _______ _______ _______ _____ _____    ______ ____

>  <TORSDO>
F 8

$$$$
