=
 OpenBabel11052410073D

 54 59  0  0  1  0  0  0  0  0999 V2000
  160.7980  212.5320  149.6270 C   0  0  0  0  0  0  0  0  0  0  0  0
  161.2310  211.5100  150.4840 C   0  0  0  0  0  3  0  0  0  0  0  0
  161.8010  211.3320  147.7690 C   0  0  0  0  0  3  0  0  0  0  0  0
  161.0730  212.4330  148.2510 C   0  0  0  0  0  0  0  0  0  0  0  0
  161.9190  210.3920  149.9940 C   0  0  0  0  0  0  0  0  0  0  0  0
  162.2150  210.3190  148.6340 C   0  0  0  0  0  3  0  0  0  0  0  0
  162.4470  209.3280  150.9100 C   0  0  0  0  0  2  0  0  0  0  0  0
  161.4890  205.2130  148.0740 N   0  0  0  0  0  0  0  0  0  0  0  0
  161.9940  207.3310  149.3090 C   0  0  0  0  0  0  0  0  0  0  0  0
  160.6240  205.9930  151.4080 C   0  0  0  0  0  3  0  0  0  0  0  0
  160.9980  206.2640  148.9610 C   0  0  2  0  0  3  0  0  0  0  0  0
  160.6350  205.4890  150.1740 C   0  0  1  0  0  3  0  0  0  0  0  0
  161.1680  207.3550  151.6150 C   0  0  0  0  0  3  0  0  0  0  0  0
  162.8160  207.7560  148.4550 O   0  0  0  0  0  0  0  0  0  0  0  0
  161.1690  204.0690  148.5990 C   0  0  0  0  0  0  0  0  0  0  0  0
  161.8620  207.9760  150.6410 C   0  0  2  0  0  3  0  0  0  0  0  0
  160.5850  204.1480  149.8610 O   0  0  0  0  0  0  0  0  0  0  0  0
  161.1670  201.6210  148.5830 C   0  0  0  0  0  1  0  0  0  0  0  0
  161.4400  202.8630  147.9580 O   0  0  0  0  0  0  0  0  0  0  0  0
  160.1100  213.6590  150.1060 O   0  0  0  0  0  0  0  0  0  0  0  0
  157.8940  213.0570  150.4570 O   0  0  0  0  0  0  0  0  0  0  0  0
  158.9300  213.6510  150.8640 C   0  0  0  0  0  0  0  0  0  0  0  0
  158.9270  214.3680  152.1520 C   0  0  0  0  0  3  0  0  0  0  0  0
  158.3180  213.9760  153.2750 C   0  0  0  0  0  3  0  0  0  0  0  0
  158.0830  211.6320  154.1850 C   0  0  2  0  0  3  0  0  0  0  0  0
  156.5910  211.2160  156.2110 O   0  0  0  0  0  0  0  0  0  0  0  0
  156.4240  212.9140  154.3440 N   0  0  0  0  0  2  0  0  0  0  0  0
  157.5070  212.7150  153.4080 C   0  0  1  0  0  3  0  0  0  0  0  0
  156.9540  211.7960  155.1540 C   0  0  0  0  0  0  0  0  0  0  0  0
  160.6720  212.0470  153.5920 O   0  0  0  0  0  1  0  0  0  0  0  0
  159.7240  211.9640  155.0420 P   0  0  2  0  0  0  0  0  0  0  0  0
  160.2090  209.9410  155.4680 S   0  0  0  0  0  0  0  0  0  0  0  0
  159.0210  209.2560  156.0840 O   0  0  0  0  0  0  0  0  0  0  0  0
  160.5750  209.2390  154.1900 O   0  0  0  0  0  0  0  0  0  0  0  0
  161.8890  208.4170  156.9390 C   0  0  0  0  0  1  0  0  0  0  0  0
  161.5780  209.8620  156.6030 C   0  0  0  0  0  2  0  0  0  0  0  0
  160.6900  213.5640  147.3310 C   0  0  2  0  0  3  0  0  0  0  0  0
  159.9860  212.7010  144.8990 C   0  0  0  0  0  0  0  0  0  0  0  0
  160.2810  213.0930  145.9990 C   0  0  0  0  0  0  0  0  0  0  0  0
  159.6690  212.2140  143.5550 C   0  0  0  0  0  2  0  0  0  0  0  0
  162.6710  211.4420  140.5710 O   0  0  0  0  0  0  0  0  0  0  0  0
  159.9320  212.4640  140.2960 C   0  0  2  0  0  3  0  0  0  0  0  0
  161.7070  211.1480  139.1870 P   0  0  2  0  0  0  0  0  0  0  0  0
  161.7040  214.1240  140.9950 C   0  0  0  0  0  1  0  0  0  0  0  0
  159.9410  213.3170  142.5300 C   0  0  2  0  0  3  0  0  0  0  0  0
  161.0190  209.8070  139.3110 O   0  0  0  0  0  1  0  0  0  0  0  0
  162.6890  211.1430  137.8140 O   0  0  0  0  0  0  0  0  0  0  0  0
  161.8150  211.7100  141.6660 C   0  0  0  0  0  2  0  0  0  0  0  0
  160.5490  212.3940  139.0390 O   0  0  0  0  0  0  0  0  0  0  0  0
  158.7730  213.4290  140.3570 C   0  0  0  0  0  2  0  0  0  0  0  0
  158.6290  213.7320  141.8450 C   0  0  0  0  0  2  0  0  0  0  0  0
  160.8800  212.9010  141.3960 C   0  0  1  0  0  0  0  0  0  0  0  0
  162.1430  214.3740  145.8630 C   0  0  0  0  0  1  0  0  0  0  0  0
  161.7590  214.4530  147.2060 O   0  0  0  0  0  0  0  0  0  0  0  0
  1 20  1  0  0  0  0
  1  2  1  0  0  0  0
  3  4  1  0  0  0  0
  3  6  2  0  0  0  0
  4  1  2  0  0  0  0
  5  2  2  0  0  0  0
  5  7  1  0  0  0  0
  6  5  1  0  0  0  0
  8 15  2  0  0  0  0
  9 16  1  0  0  0  0
 10 13  2  0  0  0  0
 11  8  1  6  0  0  0
 11  9  1  0  0  0  0
 11 12  1  0  0  0  0
 12 10  1  1  0  0  0
 14  9  2  0  0  0  0
 15 17  1  0  0  0  0
 16  7  1  6  0  0  0
 16 13  1  0  0  0  0
 17 12  1  0  0  0  0
 19 18  1  0  0  0  0
 19 15  1  0  0  0  0
 20 22  1  0  0  0  0
 21 22  2  0  0  0  0
 22 23  1  0  0  0  0
 23 24  2  0  0  0  0
 25 31  1  1  0  0  0
 25 29  1  0  0  0  0
 27 29  1  0  0  0  0
 28 24  1  1  0  0  0
 28 25  1  0  0  0  0
 28 27  1  0  0  0  0
 29 26  2  0  0  0  0
 31 30  1  6  0  0  0
 31 32  1  0  0  0  0
 32 33  2  0  0  0  0
 32 36  1  0  0  0  0
 34 32  2  0  0  0  0
 36 35  1  0  0  0  0
 37 39  1  6  0  0  0
 37  4  1  0  0  0  0
 38 39  3  0  0  0  0
 40 38  1  0  0  0  0
 41 48  1  0  0  0  0
 42 50  1  6  0  0  0
 42 52  1  0  0  0  0
 43 47  2  6  0  0  0
 43 46  1  0  0  0  0
 43 41  1  0  0  0  0
 45 40  1  1  0  0  0
 49 43  1  0  0  0  0
 49 42  1  0  0  0  0
 50 51  1  0  0  0  0
 51 45  1  0  0  0  0
 52 44  1  6  0  0  0
 52 48  1  0  0  0  0
 52 45  1  0  0  0  0
 53 54  1  0  0  0  0
 54 37  1  0  0  0  0
M  END
>  <MODEL>
1

>  <REMARK>
 VINA RESULT:      -7.0      0.000      0.000
  Name = 
  15 active torsions:
  status: ('A' for Active; 'I' for Inactive)
    1  A    between atoms: C_2  and  C_9
    2  A    between atoms: C_7  and  P_23
    3  A    between atoms: C_9  and  C_22
    4  A    between atoms: C_14  and  O_21
    5  A    between atoms: C_17  and  C_37
    6  A    between atoms: C_17  and  C_51
    7  A    between atoms: C_19  and  C_44
    8  A    between atoms: O_21  and  C_35
    9  A    between atoms: P_23  and  S_27
   10  A    between atoms: C_24  and  C_44
   11  A    between atoms: S_27  and  C_36
   12  A    between atoms: C_32  and  C_35
   13  A    between atoms: O_42  and  C_44
   14  A    between atoms: C_43  and  O_45
   15  A    between atoms: C_46  and  C_47
                            x       y       z     vdW  Elec       q    Type
                         _______ _______ _______ _____ _____    ______ ____

>  <TORSDO>
F 15

$$$$
=
 OpenBabel11052410073D

 54 59  0  0  1  0  0  0  0  0999 V2000
  160.9310  212.9830  148.3360 C   0  0  0  0  0  0  0  0  0  0  0  0
  161.6970  211.8470  148.0350 C   0  0  0  0  0  3  0  0  0  0  0  0
  160.5810  212.0950  150.5690 C   0  0  0  0  0  3  0  0  0  0  0  0
  160.3800  213.1140  149.6230 C   0  0  0  0  0  0  0  0  0  0  0  0
  161.9310  210.8520  148.9930 C   0  0  0  0  0  0  0  0  0  0  0  0
  161.3540  210.9760  150.2560 C   0  0  0  0  0  3  0  0  0  0  0  0
  162.6890  209.6010  148.6630 C   0  0  0  0  0  2  0  0  0  0  0  0
  160.6110  204.9650  148.9450 N   0  0  0  0  0  0  0  0  0  0  0  0
  161.5610  207.2590  148.6330 C   0  0  0  0  0  0  0  0  0  0  0  0
  161.7760  207.1490  151.4640 C   0  0  0  0  0  3  0  0  0  0  0  0
  160.6400  206.3530  149.3950 C   0  0  2  0  0  3  0  0  0  0  0  0
  161.1120  206.2060  150.7950 C   0  0  1  0  0  3  0  0  0  0  0  0
  162.2240  208.3510  150.7230 C   0  0  0  0  0  3  0  0  0  0  0  0
  161.6970  207.1470  147.3870 O   0  0  0  0  0  0  0  0  0  0  0  0
  160.7510  204.2050  149.9900 C   0  0  0  0  0  0  0  0  0  0  0  0
  162.1710  208.3910  149.3780 C   0  0  2  0  0  3  0  0  0  0  0  0
  161.0020  204.8870  151.1780 O   0  0  0  0  0  0  0  0  0  0  0  0
  160.6630  202.1610  148.6460 C   0  0  0  0  0  1  0  0  0  0  0  0
  160.6990  202.8170  149.9020 O   0  0  0  0  0  0  0  0  0  0  0  0
  160.6870  213.9850  147.3820 O   0  0  0  0  0  0  0  0  0  0  0  0
  162.5090  214.2440  145.9660 O   0  0  0  0  0  0  0  0  0  0  0  0
  161.2660  214.0790  146.1090 C   0  0  0  0  0  0  0  0  0  0  0  0
  160.3800  213.9860  144.9350 C   0  0  0  0  0  3  0  0  0  0  0  0
  160.7390  213.6300  143.6970 C   0  0  0  0  0  3  0  0  0  0  0  0
  162.3020  212.5050  142.0640 C   0  0  2  0  0  3  0  0  0  0  0  0
  163.6140  213.9260  140.4010 O   0  0  0  0  0  0  0  0  0  0  0  0
  162.8190  214.4250  142.7490 N   0  0  0  0  0  2  0  0  0  0  0  0
  162.1410  213.2680  143.2900 C   0  0  1  0  0  3  0  0  0  0  0  0
  163.0360  213.6780  141.4920 C   0  0  0  0  0  0  0  0  0  0  0  0
  160.1670  210.8730  142.0630 O   0  0  0  0  0  1  0  0  0  0  0  0
  160.7530  212.1570  141.0570 P   0  0  2  0  0  0  0  0  0  0  0  0
  161.6570  210.8750  139.6250 S   0  0  0  0  0  0  0  0  0  0  0  0
  163.0540  210.5330  140.0650 O   0  0  0  0  0  0  0  0  0  0  0  0
  160.8520  209.6100  139.5130 O   0  0  0  0  0  0  0  0  0  0  0  0
  160.3440  211.7380  137.4250 C   0  0  0  0  0  1  0  0  0  0  0  0
  161.7290  211.6770  138.0370 C   0  0  0  0  0  2  0  0  0  0  0  0
  159.4840  214.2860  149.9340 C   0  0  2  0  0  3  0  0  0  0  0  0
  158.9030  214.4210  152.5420 C   0  0  0  0  0  0  0  0  0  0  0  0
  159.1480  214.3740  151.3640 C   0  0  0  0  0  0  0  0  0  0  0  0
  158.6430  214.4530  153.9820 C   0  0  0  0  0  2  0  0  0  0  0  0
  160.1770  210.4610  154.4460 O   0  0  0  0  0  0  0  0  0  0  0  0
  158.4200  212.0390  156.1910 C   0  0  2  0  0  3  0  0  0  0  0  0
  160.1640  210.2870  156.1500 P   0  0  2  0  0  0  0  0  0  0  0  0
  157.3390  210.9040  154.2090 C   0  0  0  0  0  1  0  0  0  0  0  0
  157.6430  213.3540  154.3510 C   0  0  2  0  0  3  0  0  0  0  0  0
  161.2580  211.1290  156.7650 O   0  0  0  0  0  1  0  0  0  0  0  0
  160.4210  208.6660  156.5470 O   0  0  0  0  0  0  0  0  0  0  0  0
  159.6980  211.7530  154.1230 C   0  0  0  0  0  2  0  0  0  0  0  0
  158.6390  210.7710  156.7470 O   0  0  0  0  0  0  0  0  0  0  0  0
  157.1690  212.7200  156.6900 C   0  0  0  0  0  2  0  0  0  0  0  0
  156.8630  213.7560  155.6130 C   0  0  0  0  0  2  0  0  0  0  0  0
  158.2880  212.0060  154.6800 C   0  0  1  0  0  0  0  0  0  0  0  0
  157.7000  213.0100  149.6020 C   0  0  0  0  0  1  0  0  0  0  0  0
  158.3110  214.1960  149.1820 O   0  0  0  0  0  0  0  0  0  0  0  0
  1  4  1  0  0  0  0
  2  1  2  0  0  0  0
  2  5  1  0  0  0  0
  4 37  1  0  0  0  0
  4  3  2  0  0  0  0
  5  6  2  0  0  0  0
  6  3  1  0  0  0  0
  7  5  1  0  0  0  0
  8 11  1  0  0  0  0
  8 15  2  0  0  0  0
  9 16  1  0  0  0  0
 11  9  1  6  0  0  0
 11 12  1  0  0  0  0
 12 17  1  0  0  0  0
 12 10  1  6  0  0  0
 13 10  2  0  0  0  0
 14  9  2  0  0  0  0
 15 17  1  0  0  0  0
 16  7  1  1  0  0  0
 16 13  1  0  0  0  0
 18 19  1  0  0  0  0
 19 15  1  0  0  0  0
 20  1  1  0  0  0  0
 21 22  2  0  0  0  0
 22 20  1  0  0  0  0
 23 22  1  0  0  0  0
 24 23  2  0  0  0  0
 25 31  1  6  0  0  0
 25 28  1  0  0  0  0
 26 29  2  0  0  0  0
 27 28  1  0  0  0  0
 28 24  1  6  0  0  0
 29 25  1  0  0  0  0
 29 27  1  0  0  0  0
 31 30  1  1  0  0  0
 32 33  2  0  0  0  0
 32 31  1  0  0  0  0
 34 32  2  0  0  0  0
 35 36  1  0  0  0  0
 36 32  1  0  0  0  0
 37 39  1  1  0  0  0
 38 40  1  0  0  0  0
 39 38  3  0  0  0  0
 41 43  1  0  0  0  0
 42 50  1  1  0  0  0
 42 49  1  0  0  0  0
 43 47  2  1  0  0  0
 43 49  1  0  0  0  0
 43 46  1  0  0  0  0
 45 40  1  1  0  0  0
 45 52  1  0  0  0  0
 45 51  1  0  0  0  0
 48 41  1  0  0  0  0
 48 52  1  0  0  0  0
 51 50  1  0  0  0  0
 52 44  1  6  0  0  0
 52 42  1  0  0  0  0
 54 53  1  0  0  0  0
 54 37  1  0  0  0  0
M  END
>  <MODEL>
2

>  <REMARK>
 VINA RESULT:      -6.3      3.105     10.769
  Name = 
  15 active torsions:
  status: ('A' for Active; 'I' for Inactive)
    1  A    between atoms: C_2  and  C_9
    2  A    between atoms: C_7  and  P_23
    3  A    between atoms: C_9  and  C_22
    4  A    between atoms: C_14  and  O_21
    5  A    between atoms: C_17  and  C_37
    6  A    between atoms: C_17  and  C_51
    7  A    between atoms: C_19  and  C_44
    8  A    between atoms: O_21  and  C_35
    9  A    between atoms: P_23  and  S_27
   10  A    between atoms: C_24  and  C_44
   11  A    between atoms: S_27  and  C_36
   12  A    between atoms: C_32  and  C_35
   13  A    between atoms: O_42  and  C_44
   14  A    between atoms: C_43  and  O_45
   15  A    between atoms: C_46  and  C_47
                            x       y       z     vdW  Elec       q    Type
                         _______ _______ _______ _____ _____    ______ ____

>  <TORSDO>
F 15

$$$$
=
 OpenBabel11052410073D

 54 59  0  0  1  0  0  0  0  0999 V2000
  161.4450  208.7780  152.3490 C   0  0  0  0  0  0  0  0  0  0  0  0
  161.0100  209.8280  153.1730 C   0  0  0  0  0  3  0  0  0  0  0  0
  161.1640  207.2570  154.2200 C   0  0  0  0  0  3  0  0  0  0  0  0
  161.5070  207.4760  152.8760 C   0  0  0  0  0  0  0  0  0  0  0  0
  160.6280  209.5990  154.5010 C   0  0  0  0  0  0  0  0  0  0  0  0
  160.7240  208.3100  155.0240 C   0  0  0  0  0  3  0  0  0  0  0  0
  160.2280  210.7230  155.4110 C   0  0  0  0  0  2  0  0  0  0  0  0
  156.8320  214.0910  153.6770 N   0  0  0  0  0  0  0  0  0  0  0  0
  158.6290  212.5740  154.5330 C   0  0  0  0  0  0  0  0  0  0  0  0
  156.4070  210.9310  155.1940 C   0  0  0  0  0  3  0  0  0  0  0  0
  157.2900  213.2170  154.7510 C   0  0  2  0  0  3  0  0  0  0  0  0
  156.2250  212.1830  154.7740 C   0  0  1  0  0  3  0  0  0  0  0  0
  157.7860  210.4850  155.4960 C   0  0  0  0  0  3  0  0  0  0  0  0
  159.5680  213.2030  153.9800 O   0  0  0  0  0  0  0  0  0  0  0  0
  155.6100  213.7570  153.3860 C   0  0  0  0  0  0  0  0  0  0  0  0
  158.8470  211.2360  155.1410 C   0  0  2  0  0  3  0  0  0  0  0  0
  155.1370  212.6320  154.0580 O   0  0  0  0  0  0  0  0  0  0  0  0
  154.7840  214.0050  151.0950 C   0  0  0  0  0  1  0  0  0  0  0  0
  154.8630  214.4500  152.4390 O   0  0  0  0  0  0  0  0  0  0  0  0
  161.8340  208.9950  151.0170 O   0  0  0  0  0  0  0  0  0  0  0  0
  163.4480  210.3290  150.0130 O   0  0  0  0  0  0  0  0  0  0  0  0
  162.2780  210.2070  150.4680 C   0  0  0  0  0  0  0  0  0  0  0  0
  161.3400  211.3440  150.4450 C   0  0  0  0  0  3  0  0  0  0  0  0
  161.0010  212.0690  149.3750 C   0  0  0  0  0  3  0  0  0  0  0  0
  160.9430  212.6080  146.9090 C   0  0  2  0  0  3  0  0  0  0  0  0
  162.7280  214.1350  145.9150 O   0  0  0  0  0  0  0  0  0  0  0  0
  162.8240  212.5000  147.8430 N   0  0  0  0  0  2  0  0  0  0  0  0
  161.5430  211.8460  147.9890 C   0  0  1  0  0  3  0  0  0  0  0  0
  162.2680  213.2780  146.7140 C   0  0  0  0  0  0  0  0  0  0  0  0
  158.6980  212.8190  148.3720 O   0  0  0  0  0  1  0  0  0  0  0  0
  159.6380  213.8800  147.3730 P   0  0  2  0  0  0  0  0  0  0  0  0
  158.4190  213.6430  145.6490 S   0  0  0  0  0  0  0  0  0  0  0  0
  158.2580  212.1800  145.3430 O   0  0  0  0  0  0  0  0  0  0  0  0
  157.0660  214.2440  145.9120 O   0  0  0  0  0  0  0  0  0  0  0  0
  158.8840  213.6640  142.9860 C   0  0  0  0  0  1  0  0  0  0  0  0
  159.1670  214.4510  144.2500 C   0  0  0  0  0  2  0  0  0  0  0  0
  162.0540  206.3550  152.0290 C   0  0  2  0  0  3  0  0  0  0  0  0
  160.8950  206.2850  149.6190 C   0  0  0  0  0  0  0  0  0  0  0  0
  161.4270  206.2970  150.7000 C   0  0  0  0  0  0  0  0  0  0  0  0
  160.2330  206.3110  148.3140 C   0  0  0  0  0  2  0  0  0  0  0  0
  161.6020  202.2470  147.9680 O   0  0  0  0  0  0  0  0  0  0  0  0
  160.6000  204.0980  145.9210 C   0  0  2  0  0  3  0  0  0  0  0  0
  160.7540  201.7190  146.5780 P   0  0  2  0  0  0  0  0  0  0  0  0
  163.0120  204.3710  146.6230 C   0  0  0  0  0  1  0  0  0  0  0  0
  161.2500  206.0030  147.2130 C   0  0  2  0  0  3  0  0  0  0  0  0
  159.2890  201.5420  146.9000 O   0  0  0  0  0  1  0  0  0  0  0  0
  161.3920  200.2430  146.0620 O   0  0  0  0  0  0  0  0  0  0  0  0
  161.2470  203.5920  148.2270 C   0  0  0  0  0  2  0  0  0  0  0  0
  160.9500  202.8740  145.3340 O   0  0  0  0  0  0  0  0  0  0  0  0
  160.5790  205.2570  144.9550 C   0  0  0  0  0  2  0  0  0  0  0  0
  160.7140  206.4820  145.8540 C   0  0  0  0  0  2  0  0  0  0  0  0
  161.5460  204.5130  147.0320 C   0  0  1  0  0  0  0  0  0  0  0  0
  161.7780  204.1830  151.6660 C   0  0  0  0  0  1  0  0  0  0  0  0
  161.8720  205.1360  152.6860 O   0  0  0  0  0  0  0  0  0  0  0  0
  1  4  2  0  0  0  0
  1  2  1  0  0  0  0
  2  5  2  0  0  0  0
  3  6  2  0  0  0  0
  4  3  1  0  0  0  0
  5  6  1  0  0  0  0
  5  7  1  0  0  0  0
  9 11  1  0  0  0  0
  9 16  1  0  0  0  0
 10 13  2  0  0  0  0
 11  8  1  6  0  0  0
 11 12  1  0  0  0  0
 12 10  1  6  0  0  0
 14  9  2  0  0  0  0
 15  8  2  0  0  0  0
 15 17  1  0  0  0  0
 16  7  1  1  0  0  0
 16 13  1  0  0  0  0
 17 12  1  0  0  0  0
 18 19  1  0  0  0  0
 19 15  1  0  0  0  0
 20  1  1  0  0  0  0
 21 22  2  0  0  0  0
 22 20  1  0  0  0  0
 23 22  1  0  0  0  0
 24 23  2  0  0  0  0
 25 31  1  1  0  0  0
 25 28  1  0  0  0  0
 26 29  2  0  0  0  0
 27 28  1  0  0  0  0
 28 24  1  1  0  0  0
 29 25  1  0  0  0  0
 29 27  1  0  0  0  0
 31 30  1  1  0  0  0
 32 34  2  0  0  0  0
 32 31  1  0  0  0  0
 33 32  2  0  0  0  0
 35 36  1  0  0  0  0
 36 32  1  0  0  0  0
 37 39  1  6  0  0  0
 37 54  1  0  0  0  0
 37  4  1  0  0  0  0
 38 39  3  0  0  0  0
 40 38  1  0  0  0  0
 41 48  1  0  0  0  0
 42 50  1  6  0  0  0
 42 52  1  0  0  0  0
 43 47  2  6  0  0  0
 43 46  1  0  0  0  0
 43 41  1  0  0  0  0
 45 40  1  1  0  0  0
 49 42  1  0  0  0  0
 49 43  1  0  0  0  0
 50 51  1  0  0  0  0
 51 45  1  0  0  0  0
 52 44  1  6  0  0  0
 52 45  1  0  0  0  0
 52 48  1  0  0  0  0
 53 54  1  0  0  0  0
M  END
>  <MODEL>
3

>  <REMARK>
 VINA RESULT:      -5.9      3.629      9.472
  Name = 
  15 active torsions:
  status: ('A' for Active; 'I' for Inactive)
    1  A    between atoms: C_2  and  C_9
    2  A    between atoms: C_7  and  P_23
    3  A    between atoms: C_9  and  C_22
    4  A    between atoms: C_14  and  O_21
    5  A    between atoms: C_17  and  C_37
    6  A    between atoms: C_17  and  C_51
    7  A    between atoms: C_19  and  C_44
    8  A    between atoms: O_21  and  C_35
    9  A    between atoms: P_23  and  S_27
   10  A    between atoms: C_24  and  C_44
   11  A    between atoms: S_27  and  C_36
   12  A    between atoms: C_32  and  C_35
   13  A    between atoms: O_42  and  C_44
   14  A    between atoms: C_43  and  O_45
   15  A    between atoms: C_46  and  C_47
                            x       y       z     vdW  Elec       q    Type
                         _______ _______ _______ _____ _____    ______ ____

>  <TORSDO>
F 15

$$$$
=
 OpenBabel11052410073D

 54 59  0  0  1  0  0  0  0  0999 V2000
  160.5750  212.2690  150.2070 C   0  0  0  0  0  0  0  0  0  0  0  0
  160.6990  211.1820  151.0860 C   0  0  0  0  0  3  0  0  0  0  0  0
  162.2500  211.2430  148.7800 C   0  0  0  0  0  3  0  0  0  0  0  0
  161.3490  212.2910  149.0330 C   0  0  0  0  0  0  0  0  0  0  0  0
  161.5670  210.1180  150.8090 C   0  0  0  0  0  0  0  0  0  0  0  0
  162.3530  210.1640  149.6590 C   0  0  0  0  0  3  0  0  0  0  0  0
  161.7590  208.9850  151.7730 C   0  0  0  0  0  2  0  0  0  0  0  0
  161.9940  203.9060  151.5780 N   0  0  0  0  0  0  0  0  0  0  0  0
  162.0220  206.3990  151.7960 C   0  0  0  0  0  0  0  0  0  0  0  0
  160.5280  206.2520  149.3830 C   0  0  0  0  0  3  0  0  0  0  0  0
  162.1810  205.1940  150.9160 C   0  0  2  0  0  3  0  0  0  0  0  0
  161.1060  205.1640  149.8920 C   0  0  1  0  0  3  0  0  0  0  0  0
  160.8450  207.5650  149.9910 C   0  0  0  0  0  3  0  0  0  0  0  0
  162.4380  206.3960  152.9840 O   0  0  0  0  0  0  0  0  0  0  0  0
  161.1770  203.2020  150.8530 C   0  0  0  0  0  0  0  0  0  0  0  0
  161.5100  207.6410  151.1600 C   0  0  2  0  0  3  0  0  0  0  0  0
  160.6320  203.8780  149.7640 O   0  0  0  0  0  0  0  0  0  0  0  0
  160.5180  200.9420  150.1810 C   0  0  0  0  0  1  0  0  0  0  0  0
  160.8460  201.8900  151.1820 O   0  0  0  0  0  0  0  0  0  0  0  0
  159.7110  213.3430  150.4760 O   0  0  0  0  0  0  0  0  0  0  0  0
  157.5250  213.2010  151.2490 O   0  0  0  0  0  0  0  0  0  0  0  0
  158.7470  213.3990  151.4930 C   0  0  0  0  0  0  0  0  0  0  0  0
  159.2000  213.7060  152.8620 C   0  0  0  0  0  3  0  0  0  0  0  0
  158.8190  213.0800  153.9810 C   0  0  0  0  0  3  0  0  0  0  0  0
  157.9050  211.0500  155.1710 C   0  0  2  0  0  3  0  0  0  0  0  0
  155.7140  211.2340  156.4640 O   0  0  0  0  0  0  0  0  0  0  0  0
  156.5250  212.4290  154.3870 N   0  0  0  0  0  2  0  0  0  0  0  0
  157.8370  211.9420  154.0270 C   0  0  1  0  0  3  0  0  0  0  0  0
  156.5330  211.5140  155.5490 C   0  0  0  0  0  0  0  0  0  0  0  0
  159.8100  212.8630  155.7270 O   0  0  0  0  0  1  0  0  0  0  0  0
  159.1310  211.4840  156.5300 P   0  0  2  0  0  0  0  0  0  0  0  0
  160.6670  210.1440  155.9310 S   0  0  0  0  0  0  0  0  0  0  0  0
  160.6320  209.9720  154.4390 O   0  0  0  0  0  0  0  0  0  0  0  0
  162.0020  210.7090  156.3320 O   0  0  0  0  0  0  0  0  0  0  0  0
  160.0130  207.5340  155.6710 C   0  0  0  0  0  1  0  0  0  0  0  0
  160.4370  208.5580  156.7050 C   0  0  0  0  0  2  0  0  0  0  0  0
  161.2910  213.4920  148.1250 C   0  0  2  0  0  3  0  0  0  0  0  0
  160.7230  212.8320  145.5950 C   0  0  0  0  0  0  0  0  0  0  0  0
  160.9570  213.1330  146.7380 C   0  0  0  0  0  0  0  0  0  0  0  0
  160.4820  212.4550  144.2010 C   0  0  0  0  0  2  0  0  0  0  0  0
  162.3360  211.7720  140.3790 O   0  0  0  0  0  0  0  0  0  0  0  0
  159.9010  213.2580  141.0760 C   0  0  2  0  0  3  0  0  0  0  0  0
  160.9940  211.8990  139.3230 P   0  0  2  0  0  0  0  0  0  0  0  0
  162.1030  214.4500  141.4190 C   0  0  0  0  0  1  0  0  0  0  0  0
  160.6920  213.6690  143.2940 C   0  0  2  0  0  3  0  0  0  0  0  0
  160.1010  210.6890  139.4720 O   0  0  0  0  0  1  0  0  0  0  0  0
  161.5460  211.9900  137.7290 O   0  0  0  0  0  0  0  0  0  0  0  0
  161.8830  211.9670  141.7060 C   0  0  0  0  0  2  0  0  0  0  0  0
  160.1270  213.3230  139.6930 O   0  0  0  0  0  0  0  0  0  0  0  0
  159.0300  214.3700  141.6070 C   0  0  0  0  0  2  0  0  0  0  0  0
  159.3600  214.4120  143.0950 C   0  0  0  0  0  2  0  0  0  0  0  0
  161.1810  213.3240  141.8870 C   0  0  1  0  0  0  0  0  0  0  0  0
  162.8110  214.4380  146.8140 C   0  0  0  0  0  1  0  0  0  0  0  0
  162.5130  214.1650  148.1530 O   0  0  0  0  0  0  0  0  0  0  0  0
  1 20  1  0  0  0  0
  1  2  1  0  0  0  0
  3  4  1  0  0  0  0
  3  6  2  0  0  0  0
  4  1  2  0  0  0  0
  5  2  2  0  0  0  0
  5  7  1  0  0  0  0
  6  5  1  0  0  0  0
  9 14  2  0  0  0  0
 10 13  2  0  0  0  0
 11  8  1  1  0  0  0
 11  9  1  0  0  0  0
 12 10  1  1  0  0  0
 12 11  1  0  0  0  0
 13 16  1  0  0  0  0
 15 19  1  0  0  0  0
 15  8  2  0  0  0  0
 16  7  1  6  0  0  0
 16  9  1  0  0  0  0
 17 12  1  0  0  0  0
 17 15  1  0  0  0  0
 18 19  1  0  0  0  0
 20 22  1  0  0  0  0
 21 22  2  0  0  0  0
 22 23  1  0  0  0  0
 23 24  2  0  0  0  0
 25 29  1  0  0  0  0
 25 31  1  1  0  0  0
 27 29  1  0  0  0  0
 28 24  1  1  0  0  0
 28 27  1  0  0  0  0
 28 25  1  0  0  0  0
 29 26  2  0  0  0  0
 31 30  1  6  0  0  0
 32 34  2  0  0  0  0
 32 31  1  0  0  0  0
 32 36  1  0  0  0  0
 33 32  2  0  0  0  0
 35 36  1  0  0  0  0
 37 39  1  6  0  0  0
 37 54  1  0  0  0  0
 37  4  1  0  0  0  0
 38 39  3  0  0  0  0
 40 38  1  0  0  0  0
 41 48  1  0  0  0  0
 42 50  1  1  0  0  0
 42 52  1  0  0  0  0
 43 47  2  6  0  0  0
 43 46  1  0  0  0  0
 43 49  1  0  0  0  0
 43 41  1  0  0  0  0
 45 40  1  1  0  0  0
 48 52  1  0  0  0  0
 49 42  1  0  0  0  0
 50 51  1  0  0  0  0
 51 45  1  0  0  0  0
 52 44  1  6  0  0  0
 52 45  1  0  0  0  0
 53 54  1  0  0  0  0
M  END
>  <MODEL>
4

>  <REMARK>
 VINA RESULT:      -5.6      1.418      1.659
  Name = 
  15 active torsions:
  status: ('A' for Active; 'I' for Inactive)
    1  A    between atoms: C_2  and  C_9
    2  A    between atoms: C_7  and  P_23
    3  A    between atoms: C_9  and  C_22
    4  A    between atoms: C_14  and  O_21
    5  A    between atoms: C_17  and  C_37
    6  A    between atoms: C_17  and  C_51
    7  A    between atoms: C_19  and  C_44
    8  A    between atoms: O_21  and  C_35
    9  A    between atoms: P_23  and  S_27
   10  A    between atoms: C_24  and  C_44
   11  A    between atoms: S_27  and  C_36
   12  A    between atoms: C_32  and  C_35
   13  A    between atoms: O_42  and  C_44
   14  A    between atoms: C_43  and  O_45
   15  A    between atoms: C_46  and  C_47
                            x       y       z     vdW  Elec       q    Type
                         _______ _______ _______ _____ _____    ______ ____

>  <TORSDO>
F 15

$$$$
=
 OpenBabel11052410073D

 54 59  0  0  1  0  0  0  0  0999 V2000
  161.6730  211.9040  149.0980 C   0  0  0  0  0  0  0  0  0  0  0  0
  162.1520  210.7500  148.4600 C   0  0  0  0  0  3  0  0  0  0  0  0
  161.2250  210.5660  151.0740 C   0  0  0  0  0  3  0  0  0  0  0  0
  161.2180  211.8130  150.4260 C   0  0  0  0  0  0  0  0  0  0  0  0
  162.1970  209.5180  149.1240 C   0  0  0  0  0  0  0  0  0  0  0  0
  161.7150  209.4300  150.4290 C   0  0  0  0  0  3  0  0  0  0  0  0
  162.6420  208.2640  148.4300 C   0  0  0  0  0  2  0  0  0  0  0  0
  160.7240  203.5600  148.7040 N   0  0  0  0  0  0  0  0  0  0  0  0
  161.5810  205.8910  148.4030 C   0  0  0  0  0  0  0  0  0  0  0  0
  162.0200  205.6910  151.2030 C   0  0  0  0  0  3  0  0  0  0  0  0
  160.7490  204.9310  149.2010 C   0  0  2  0  0  3  0  0  0  0  0  0
  161.3330  204.7510  150.5540 C   0  0  1  0  0  3  0  0  0  0  0  0
  162.3750  206.9310  150.4740 C   0  0  0  0  0  3  0  0  0  0  0  0
  161.6230  205.8260  147.1470 O   0  0  0  0  0  0  0  0  0  0  0  0
  160.9660  202.7690  149.7070 C   0  0  0  0  0  0  0  0  0  0  0  0
  162.2160  207.0150  149.1390 C   0  0  2  0  0  3  0  0  0  0  0  0
  161.2900  203.4180  150.8950 O   0  0  0  0  0  0  0  0  0  0  0  0
  160.8930  200.7690  148.2970 C   0  0  0  0  0  1  0  0  0  0  0  0
  160.9470  201.3840  149.5730 O   0  0  0  0  0  0  0  0  0  0  0  0
  161.6200  213.1450  148.4410 O   0  0  0  0  0  0  0  0  0  0  0  0
  163.2590  213.3290  146.8070 O   0  0  0  0  0  0  0  0  0  0  0  0
  162.0430  213.4100  147.1310 C   0  0  0  0  0  0  0  0  0  0  0  0
  161.0240  213.7950  146.1380 C   0  0  0  0  0  3  0  0  0  0  0  0
  161.1580  213.7540  144.8080 C   0  0  0  0  0  3  0  0  0  0  0  0
  162.2490  212.8020  142.7400 C   0  0  2  0  0  3  0  0  0  0  0  0
  163.5050  214.3570  141.1550 O   0  0  0  0  0  0  0  0  0  0  0  0
  163.1700  214.4530  143.6600 N   0  0  0  0  0  2  0  0  0  0  0  0
  162.4030  213.3070  144.0930 C   0  0  1  0  0  3  0  0  0  0  0  0
  163.0680  213.9640  142.2690 C   0  0  0  0  0  0  0  0  0  0  0  0
  159.8570  211.5920  142.9370 O   0  0  0  0  0  1  0  0  0  0  0  0
  160.5280  212.8760  141.9840 P   0  0  2  0  0  0  0  0  0  0  0  0
  160.9360  211.6590  140.2920 S   0  0  0  0  0  0  0  0  0  0  0  0
  161.8860  212.3750  139.3730 O   0  0  0  0  0  0  0  0  0  0  0  0
  161.5650  210.3710  140.7460 O   0  0  0  0  0  0  0  0  0  0  0  0
  159.7310  211.0710  137.9430 C   0  0  0  0  0  1  0  0  0  0  0  0
  159.4300  211.3060  139.4100 C   0  0  0  0  0  2  0  0  0  0  0  0
  160.6200  213.0250  151.0940 C   0  0  2  0  0  3  0  0  0  0  0  0
  159.0840  212.3450  153.1760 C   0  0  0  0  0  0  0  0  0  0  0  0
  159.7730  212.6720  152.2430 C   0  0  0  0  0  0  0  0  0  0  0  0
  158.2580  211.9050  154.3020 C   0  0  0  0  0  2  0  0  0  0  0  0
  159.1390  207.8420  155.4090 O   0  0  0  0  0  0  0  0  0  0  0  0
  160.9190  210.1550  155.0830 C   0  0  2  0  0  3  0  0  0  0  0  0
  160.7650  207.6940  154.8940 P   0  0  2  0  0  0  0  0  0  0  0  0
  159.6470  209.9910  157.2610 C   0  0  0  0  0  1  0  0  0  0  0  0
  159.1390  211.6870  155.5340 C   0  0  2  0  0  3  0  0  0  0  0  0
  160.8290  207.6410  153.3850 O   0  0  0  0  0  0  0  0  0  0  0  0
  161.4240  206.2740  155.5280 O   0  0  0  0  0  1  0  0  0  0  0  0
  158.6880  209.1480  155.1010 C   0  0  0  0  0  2  0  0  0  0  0  0
  161.6570  209.0290  155.4760 O   0  0  0  0  0  0  0  0  0  0  0  0
  161.5950  211.4690  155.3890 C   0  0  0  0  0  2  0  0  0  0  0  0
  160.4500  212.4760  155.3870 C   0  0  0  0  0  2  0  0  0  0  0  0
  159.5610  210.2330  155.7540 C   0  0  1  0  0  0  0  0  0  0  0  0
  158.8840  214.3940  150.9200 C   0  0  0  0  0  1  0  0  0  0  0  0
  159.8730  213.7540  150.1670 O   0  0  0  0  0  0  0  0  0  0  0  0
  1  4  1  0  0  0  0
  2  1  2  0  0  0  0
  2  5  1  0  0  0  0
  4  3  2  0  0  0  0
  4 37  1  0  0  0  0
  5  6  2  0  0  0  0
  6  3  1  0  0  0  0
  7  5  1  0  0  0  0
  8 11  1  0  0  0  0
  8 15  2  0  0  0  0
  9 16  1  0  0  0  0
 11  9  1  6  0  0  0
 11 12  1  0  0  0  0
 12 17  1  0  0  0  0
 12 10  1  6  0  0  0
 13 10  2  0  0  0  0
 14  9  2  0  0  0  0
 15 17  1  0  0  0  0
 16  7  1  1  0  0  0
 16 13  1  0  0  0  0
 18 19  1  0  0  0  0
 19 15  1  0  0  0  0
 20  1  1  0  0  0  0
 21 22  2  0  0  0  0
 22 20  1  0  0  0  0
 23 22  1  0  0  0  0
 24 23  2  0  0  0  0
 25 31  1  6  0  0  0
 25 28  1  0  0  0  0
 26 29  2  0  0  0  0
 27 28  1  0  0  0  0
 28 24  1  6  0  0  0
 29 25  1  0  0  0  0
 29 27  1  0  0  0  0
 31 30  1  1  0  0  0
 32 34  2  0  0  0  0
 32 31  1  0  0  0  0
 33 32  2  0  0  0  0
 35 36  1  0  0  0  0
 36 32  1  0  0  0  0
 37 39  1  1  0  0  0
 38 40  1  0  0  0  0
 39 38  3  0  0  0  0
 42 50  1  1  0  0  0
 42 49  1  0  0  0  0
 42 52  1  0  0  0  0
 43 46  2  6  0  0  0
 43 41  1  0  0  0  0
 43 49  1  0  0  0  0
 43 47  1  0  0  0  0
 45 40  1  6  0  0  0
 45 52  1  0  0  0  0
 48 41  1  0  0  0  0
 48 52  1  0  0  0  0
 51 50  1  0  0  0  0
 51 45  1  0  0  0  0
 52 44  1  1  0  0  0
 54 53  1  0  0  0  0
 54 37  1  0  0  0  0
M  END
>  <MODEL>
5

>  <REMARK>
 VINA RESULT:      -4.8      3.230     10.538
  Name = 
  15 active torsions:
  status: ('A' for Active; 'I' for Inactive)
    1  A    between atoms: C_2  and  C_9
    2  A    between atoms: C_7  and  P_23
    3  A    between atoms: C_9  and  C_22
    4  A    between atoms: C_14  and  O_21
    5  A    between atoms: C_17  and  C_37
    6  A    between atoms: C_17  and  C_51
    7  A    between atoms: C_19  and  C_44
    8  A    between atoms: O_21  and  C_35
    9  A    between atoms: P_23  and  S_27
   10  A    between atoms: C_24  and  C_44
   11  A    between atoms: S_27  and  C_36
   12  A    between atoms: C_32  and  C_35
   13  A    between atoms: O_42  and  C_44
   14  A    between atoms: C_43  and  O_45
   15  A    between atoms: C_46  and  C_47
                            x       y       z     vdW  Elec       q    Type
                         _______ _______ _______ _____ _____    ______ ____

>  <TORSDO>
F 15

$$$$
=
 OpenBabel11052410073D

 54 59  0  0  1  0  0  0  0  0999 V2000
  160.6580  212.2490  148.9900 C   0  0  0  0  0  0  0  0  0  0  0  0
  160.5340  212.0480  147.6070 C   0  0  0  0  0  3  0  0  0  0  0  0
  158.5790  213.5020  148.9450 C   0  0  0  0  0  3  0  0  0  0  0  0
  159.6600  212.9720  149.6680 C   0  0  0  0  0  0  0  0  0  0  0  0
  159.4330  212.5420  146.8960 C   0  0  0  0  0  0  0  0  0  0  0  0
  158.4650  213.2850  147.5710 C   0  0  0  0  0  3  0  0  0  0  0  0
  159.3240  212.3940  145.4070 C   0  0  0  0  0  2  0  0  0  0  0  0
  162.4600  212.7780  141.4180 N   0  0  0  0  0  0  0  0  0  0  0  0
  160.8570  212.4260  143.3070 C   0  0  0  0  0  0  0  0  0  0  0  0
  162.5100  214.3580  144.5760 C   0  0  0  0  0  3  0  0  0  0  0  0
  162.2780  212.5750  142.8520 C   0  0  2  0  0  3  0  0  0  0  0  0
  162.8640  213.8210  143.4080 C   0  0  1  0  0  3  0  0  0  0  0  0
  161.3440  213.7840  145.2870 C   0  0  0  0  0  3  0  0  0  0  0  0
  160.0160  211.7960  142.6150 O   0  0  0  0  0  0  0  0  0  0  0  0
  163.2560  213.7920  141.2580 C   0  0  0  0  0  0  0  0  0  0  0  0
  160.5270  212.9050  144.6750 C   0  0  2  0  0  3  0  0  0  0  0  0
  163.6030  214.4530  142.4330 O   0  0  0  0  0  0  0  0  0  0  0  0
  163.3720  213.4490  138.8370 C   0  0  0  0  0  1  0  0  0  0  0  0
  163.6810  214.2020  139.9970 O   0  0  0  0  0  0  0  0  0  0  0  0
  161.7590  211.7610  149.7130 O   0  0  0  0  0  0  0  0  0  0  0  0
  162.7750  209.9940  148.6010 O   0  0  0  0  0  0  0  0  0  0  0  0
  162.2750  210.4580  149.6620 C   0  0  0  0  0  0  0  0  0  0  0  0
  162.2110  209.6370  150.8850 C   0  0  0  0  0  3  0  0  0  0  0  0
  162.3190  208.3070  150.9520 C   0  0  0  0  0  3  0  0  0  0  0  0
  161.8550  206.1180  149.7830 C   0  0  2  0  0  3  0  0  0  0  0  0
  160.1730  206.0510  147.8660 O   0  0  0  0  0  0  0  0  0  0  0  0
  161.7370  207.8800  148.6420 N   0  0  0  0  0  2  0  0  0  0  0  0
  162.5200  207.4080  149.7620 C   0  0  1  0  0  3  0  0  0  0  0  0
  161.0530  206.5700  148.6020 C   0  0  0  0  0  0  0  0  0  0  0  0
  161.9130  206.0100  152.4680 O   0  0  0  0  0  1  0  0  0  0  0  0
  160.7180  205.7580  151.2360 P   0  0  2  0  0  0  0  0  0  0  0  0
  160.9210  203.6440  151.2080 S   0  0  0  0  0  0  0  0  0  0  0  0
  162.3770  203.2760  151.2690 O   0  0  0  0  0  0  0  0  0  0  0  0
  160.2150  203.0610  152.4020 O   0  0  0  0  0  0  0  0  0  0  0  0
  161.2930  202.3060  148.8890 C   0  0  0  0  0  1  0  0  0  0  0  0
  160.2150  202.9770  149.7160 C   0  0  0  0  0  2  0  0  0  0  0  0
  159.8230  213.2690  151.1370 C   0  0  2  0  0  3  0  0  0  0  0  0
  158.9140  211.2900  152.6900 C   0  0  0  0  0  0  0  0  0  0  0  0
  159.3430  212.1710  151.9900 C   0  0  0  0  0  0  0  0  0  0  0  0
  158.3510  210.2370  153.5380 C   0  0  0  0  0  2  0  0  0  0  0  0
  161.7760  209.1960  155.9240 O   0  0  0  0  0  0  0  0  0  0  0  0
  160.4100  211.7720  155.5770 C   0  0  2  0  0  3  0  0  0  0  0  0
  162.5920  210.6990  156.0210 P   0  0  2  0  0  0  0  0  0  0  0  0
  159.3600  210.1320  157.1870 C   0  0  0  0  0  1  0  0  0  0  0  0
  158.3550  210.6940  154.9980 C   0  0  2  0  0  3  0  0  0  0  0  0
  163.2160  211.0370  154.6860 O   0  0  0  0  0  0  0  0  0  0  0  0
  163.8050  210.6000  157.1920 O   0  0  0  0  0  1  0  0  0  0  0  0
  160.6060  209.3710  155.1470 C   0  0  0  0  0  2  0  0  0  0  0  0
  161.4770  211.9100  156.4750 O   0  0  0  0  0  0  0  0  0  0  0  0
  159.3500  212.8380  155.7170 C   0  0  0  0  0  2  0  0  0  0  0  0
  158.1170  212.2110  155.0750 C   0  0  0  0  0  2  0  0  0  0  0  0
  159.6790  210.4520  155.7270 C   0  0  1  0  0  0  0  0  0  0  0  0
  157.9570  214.0240  152.0700 C   0  0  0  0  0  1  0  0  0  0  0  0
  159.1430  214.4450  151.4580 O   0  0  0  0  0  0  0  0  0  0  0  0
  1  4  1  0  0  0  0
  1 20  1  0  0  0  0
  2  1  2  0  0  0  0
  3  4  2  0  0  0  0
  4 37  1  0  0  0  0
  5  6  2  0  0  0  0
  5  2  1  0  0  0  0
  6  3  1  0  0  0  0
  7  5  1  0  0  0  0
  9 16  1  0  0  0  0
 10 13  2  0  0  0  0
 11  8  1  6  0  0  0
 11  9  1  0  0  0  0
 11 12  1  0  0  0  0
 12 10  1  6  0  0  0
 14  9  2  0  0  0  0
 15  8  2  0  0  0  0
 15 17  1  0  0  0  0
 16 13  1  0  0  0  0
 16  7  1  1  0  0  0
 17 12  1  0  0  0  0
 18 19  1  0  0  0  0
 19 15  1  0  0  0  0
 21 22  2  0  0  0  0
 22 20  1  0  0  0  0
 22 23  1  0  0  0  0
 23 24  2  0  0  0  0
 25 31  1  1  0  0  0
 26 29  2  0  0  0  0
 27 28  1  0  0  0  0
 28 25  1  0  0  0  0
 28 24  1  1  0  0  0
 29 27  1  0  0  0  0
 29 25  1  0  0  0  0
 31 30  1  1  0  0  0
 32 31  1  0  0  0  0
 32 33  2  0  0  0  0
 32 34  2  0  0  0  0
 35 36  1  0  0  0  0
 36 32  1  0  0  0  0
 37 54  1  0  0  0  0
 37 39  1  1  0  0  0
 38 40  1  0  0  0  0
 39 38  3  0  0  0  0
 41 43  1  0  0  0  0
 42 50  1  1  0  0  0
 42 52  1  0  0  0  0
 42 49  1  0  0  0  0
 43 46  2  6  0  0  0
 43 49  1  0  0  0  0
 43 47  1  0  0  0  0
 45 40  1  6  0  0  0
 45 51  1  0  0  0  0
 45 52  1  0  0  0  0
 48 52  1  0  0  0  0
 48 41  1  0  0  0  0
 51 50  1  0  0  0  0
 52 44  1  1  0  0  0
 54 53  1  0  0  0  0
M  END
>  <MODEL>
6

>  <REMARK>
 VINA RESULT:      -4.3      3.255     10.411
  Name = 
  15 active torsions:
  status: ('A' for Active; 'I' for Inactive)
    1  A    between atoms: C_2  and  C_9
    2  A    between atoms: C_7  and  P_23
    3  A    between atoms: C_9  and  C_22
    4  A    between atoms: C_14  and  O_21
    5  A    between atoms: C_17  and  C_37
    6  A    between atoms: C_17  and  C_51
    7  A    between atoms: C_19  and  C_44
    8  A    between atoms: O_21  and  C_35
    9  A    between atoms: P_23  and  S_27
   10  A    between atoms: C_24  and  C_44
   11  A    between atoms: S_27  and  C_36
   12  A    between atoms: C_32  and  C_35
   13  A    between atoms: O_42  and  C_44
   14  A    between atoms: C_43  and  O_45
   15  A    between atoms: C_46  and  C_47
                            x       y       z     vdW  Elec       q    Type
                         _______ _______ _______ _____ _____    ______ ____

>  <TORSDO>
F 15

$$$$
=
 OpenBabel11052410073D

 54 59  0  0  1  0  0  0  0  0999 V2000
  161.4820  207.8980  151.9520 C   0  0  0  0  0  0  0  0  0  0  0  0
  161.2100  208.0390  153.3210 C   0  0  0  0  0  3  0  0  0  0  0  0
  162.3950  210.1480  151.9510 C   0  0  0  0  0  3  0  0  0  0  0  0
  162.0960  208.9600  151.2640 C   0  0  0  0  0  0  0  0  0  0  0  0
  161.5490  209.2100  154.0130 C   0  0  0  0  0  0  0  0  0  0  0  0
  162.1270  210.2690  153.3150 C   0  0  0  0  0  3  0  0  0  0  0  0
  161.2010  209.3990  155.4600 C   0  0  0  0  0  2  0  0  0  0  0  0
  157.4090  212.7650  155.0340 N   0  0  0  0  0  0  0  0  0  0  0  0
  159.2120  211.0300  155.0840 C   0  0  0  0  0  0  0  0  0  0  0  0
  160.4090  212.8650  156.8930 C   0  0  0  0  0  3  0  0  0  0  0  0
  158.8400  212.4810  154.9980 C   0  0  2  0  0  3  0  0  0  0  0  0
  159.3200  213.2030  156.2030 C   0  0  1  0  0  3  0  0  0  0  0  0
  161.0900  211.5950  156.5520 C   0  0  0  0  0  3  0  0  0  0  0  0
  158.5240  210.1480  154.5060 O   0  0  0  0  0  0  0  0  0  0  0  0
  157.2110  213.7010  155.9120 C   0  0  0  0  0  0  0  0  0  0  0  0
  160.5060  210.6980  155.7330 C   0  0  2  0  0  3  0  0  0  0  0  0
  158.3430  214.0730  156.6330 O   0  0  0  0  0  0  0  0  0  0  0  0
  154.9820  214.3110  155.1030 C   0  0  0  0  0  1  0  0  0  0  0  0
  155.9490  214.2450  156.1370 O   0  0  0  0  0  0  0  0  0  0  0  0
  161.1440  206.7310  151.2470 O   0  0  0  0  0  0  0  0  0  0  0  0
  162.7740  205.2470  151.9780 O   0  0  0  0  0  0  0  0  0  0  0  0
  161.6200  205.4380  151.5050 C   0  0  0  0  0  0  0  0  0  0  0  0
  160.7340  204.2990  151.2010 C   0  0  0  0  0  3  0  0  0  0  0  0
  160.6700  203.6330  150.0440 C   0  0  0  0  0  3  0  0  0  0  0  0
  161.3400  203.0960  147.6690 C   0  0  2  0  0  3  0  0  0  0  0  0
  160.4230  204.5110  145.7560 O   0  0  0  0  0  0  0  0  0  0  0  0
  160.9730  205.1090  148.1510 N   0  0  0  0  0  2  0  0  0  0  0  0
  161.5040  203.9500  148.8320 C   0  0  1  0  0  3  0  0  0  0  0  0
  160.8170  204.2890  146.9310 C   0  0  0  0  0  0  0  0  0  0  0  0
  160.9790  200.6140  148.6360 O   0  0  0  0  0  1  0  0  0  0  0  0
  160.0180  201.7610  147.7600 P   0  0  2  0  0  0  0  0  0  0  0  0
  160.3880  200.8990  145.8540 S   0  0  0  0  0  0  0  0  0  0  0  0
  159.0820  200.5740  145.1860 O   0  0  0  0  0  0  0  0  0  0  0  0
  161.1460  201.8810  145.0040 O   0  0  0  0  0  0  0  0  0  0  0  0
  161.1340  198.5160  144.8180 C   0  0  0  0  0  1  0  0  0  0  0  0
  161.3390  199.4050  146.0290 C   0  0  0  0  0  2  0  0  0  0  0  0
  162.3150  208.8560  149.7760 C   0  0  2  0  0  3  0  0  0  0  0  0
  162.4640  211.2440  148.5800 C   0  0  0  0  0  0  0  0  0  0  0  0
  162.4160  210.1730  149.1280 C   0  0  0  0  0  0  0  0  0  0  0  0
  162.4820  212.5390  147.8960 C   0  0  0  0  0  2  0  0  0  0  0  0
  161.9580  214.3300  144.0200 O   0  0  0  0  0  0  0  0  0  0  0  0
  160.5210  212.1130  145.3030 C   0  0  2  0  0  3  0  0  0  0  0  0
  161.2760  213.0320  143.1350 P   0  0  2  0  0  0  0  0  0  0  0  0
  159.8410  214.4530  145.9710 C   0  0  0  0  0  1  0  0  0  0  0  0
  161.0590  212.9250  147.4870 C   0  0  2  0  0  3  0  0  0  0  0  0
  162.3270  211.9790  142.8670 O   0  0  0  0  0  1  0  0  0  0  0  0
  160.6830  213.6110  141.6630 O   0  0  0  0  0  0  0  0  0  0  0  0
  162.2040  213.8910  145.3430 C   0  0  0  0  0  2  0  0  0  0  0  0
  159.9850  212.3640  144.0310 O   0  0  0  0  0  0  0  0  0  0  0  0
  159.5760  211.3970  146.2360 C   0  0  0  0  0  2  0  0  0  0  0  0
  160.1260  211.7110  147.6230 C   0  0  0  0  0  2  0  0  0  0  0  0
  160.9270  213.3800  146.0320 C   0  0  1  0  0  0  0  0  0  0  0  0
  161.5950  208.0550  147.8360 C   0  0  0  0  0  1  0  0  0  0  0  0
  161.2750  208.1280  149.1960 O   0  0  0  0  0  0  0  0  0  0  0  0
  1  2  1  0  0  0  0
  2  5  2  0  0  0  0
  3  6  2  0  0  0  0
  4  3  1  0  0  0  0
  4  1  2  0  0  0  0
  5  7  1  0  0  0  0
  6  5  1  0  0  0  0
  8 15  2  0  0  0  0
  9 16  1  0  0  0  0
 11  8  1  1  0  0  0
 11  9  1  0  0  0  0
 11 12  1  0  0  0  0
 12 17  1  0  0  0  0
 12 10  1  1  0  0  0
 13 10  2  0  0  0  0
 14  9  2  0  0  0  0
 15 19  1  0  0  0  0
 15 17  1  0  0  0  0
 16  7  1  6  0  0  0
 16 13  1  0  0  0  0
 18 19  1  0  0  0  0
 20 22  1  0  0  0  0
 20  1  1  0  0  0  0
 22 21  2  0  0  0  0
 23 22  1  0  0  0  0
 24 23  2  0  0  0  0
 25 31  1  1  0  0  0
 25 28  1  0  0  0  0
 26 29  2  0  0  0  0
 27 28  1  0  0  0  0
 28 24  1  1  0  0  0
 29 25  1  0  0  0  0
 29 27  1  0  0  0  0
 31 30  1  1  0  0  0
 32 36  1  0  0  0  0
 32 31  1  0  0  0  0
 33 32  2  0  0  0  0
 34 32  2  0  0  0  0
 35 36  1  0  0  0  0
 37 39  1  6  0  0  0
 37  4  1  0  0  0  0
 38 39  3  0  0  0  0
 40 38  1  0  0  0  0
 41 48  1  0  0  0  0
 42 52  1  0  0  0  0
 42 50  1  1  0  0  0
 43 47  2  6  0  0  0
 43 41  1  0  0  0  0
 43 49  1  0  0  0  0
 45 51  1  0  0  0  0
 45 40  1  6  0  0  0
 46 43  1  0  0  0  0
 48 52  1  0  0  0  0
 49 42  1  0  0  0  0
 50 51  1  0  0  0  0
 52 44  1  6  0  0  0
 52 45  1  0  0  0  0
 53 54  1  0  0  0  0
 54 37  1  0  0  0  0
M  END
>  <MODEL>
7

>  <REMARK>
 VINA RESULT:      -4.1      3.670      9.021
  Name = 
  15 active torsions:
  status: ('A' for Active; 'I' for Inactive)
    1  A    between atoms: C_2  and  C_9
    2  A    between atoms: C_7  and  P_23
    3  A    between atoms: C_9  and  C_22
    4  A    between atoms: C_14  and  O_21
    5  A    between atoms: C_17  and  C_37
    6  A    between atoms: C_17  and  C_51
    7  A    between atoms: C_19  and  C_44
    8  A    between atoms: O_21  and  C_35
    9  A    between atoms: P_23  and  S_27
   10  A    between atoms: C_24  and  C_44
   11  A    between atoms: S_27  and  C_36
   12  A    between atoms: C_32  and  C_35
   13  A    between atoms: O_42  and  C_44
   14  A    between atoms: C_43  and  O_45
   15  A    between atoms: C_46  and  C_47
                            x       y       z     vdW  Elec       q    Type
                         _______ _______ _______ _____ _____    ______ ____

>  <TORSDO>
F 15

$$$$
