=
 OpenBabel11042422483D

 38 42  0  0  1  0  0  0  0  0999 V2000
  162.0500  208.5800  150.6100 C   0  0  2  0  0  3  0  0  0  0  0  0
  161.7320  208.3440  149.1420 C   0  0  0  0  0  2  0  0  0  0  0  0
  160.9070  207.1980  149.0090 O   0  0  0  0  0  0  0  0  0  0  0  0
  161.3500  204.2520  145.3900 C   0  0  0  0  0  0  0  0  0  0  0  0
  161.4940  206.1900  146.9130 C   0  0  0  0  0  2  0  0  0  0  0  0
  160.5600  202.6780  148.8930 C   0  0  0  0  0  3  0  0  0  0  0  0
  161.0140  205.0470  144.2580 N   0  0  0  0  0  1  0  0  0  0  0  0
  160.9040  202.8820  145.4440 N   0  0  0  0  0  0  0  0  0  0  0  0
  161.5580  202.6130  147.7740 C   0  0  0  0  0  0  0  0  0  0  0  0
  161.2770  206.1090  148.2230 C   0  0  1  0  0  3  0  0  0  0  0  0
  161.8270  204.8250  146.4960 C   0  0  0  0  0  0  0  0  0  0  0  0
  161.4910  204.7360  148.6900 C   0  0  1  0  0  3  0  0  0  0  0  0
  160.9650  202.1620  146.5030 N   0  0  0  0  0  0  0  0  0  0  0  0
  160.5480  203.9010  149.4330 C   0  0  0  0  0  3  0  0  0  0  0  0
  161.9600  204.0350  147.6980 C   0  0  0  0  0  0  0  0  0  0  0  0
  161.0180  207.9230  151.5340 C   0  0  0  0  0  2  0  0  0  0  0  0
  161.6150  207.1370  152.7050 C   0  0  2  0  0  3  0  0  0  0  0  0
  161.2270  204.7860  152.8910 O   0  0  0  0  0  1  0  0  0  0  0  0
  162.0070  205.7450  152.2440 C   0  0  0  0  0  2  0  0  0  0  0  0
  160.7080  207.0730  153.8540 N   0  0  0  0  0  2  0  0  0  0  0  0
  161.2460  210.1590  155.6010 C   0  0  0  0  0  0  0  0  0  0  0  0
  162.4550  210.7630  155.2850 O   0  0  0  0  0  1  0  0  0  0  0  0
  160.9580  207.5990  155.1630 C   0  0  0  0  0  3  0  0  0  0  0  0
  161.1050  208.8760  155.3860 C   0  0  0  0  0  0  0  0  0  0  0  0
  160.1330  211.0080  156.1560 C   0  0  2  0  0  3  0  0  0  0  0  0
  157.8930  211.7190  155.6780 N   0  0  0  0  0  0  0  0  0  0  0  0
  157.1310  211.5780  154.4530 C   0  0  0  0  0  1  0  0  0  0  0  0
  158.7380  210.5410  155.7880 C   0  0  0  0  0  2  0  0  0  0  0  0
  160.2150  212.4060  155.6110 C   0  0  0  0  0  2  0  0  0  0  0  0
  158.7780  212.8690  155.5030 C   0  0  0  0  0  2  0  0  0  0  0  0
  162.2140  210.0630  150.8990 C   0  0  0  0  0  2  0  0  0  0  0  0
  161.9920  210.8290  149.6830 N   0  0  0  0  0  2  0  0  0  0  0  0
  161.2100  212.0250  149.6670 C   0  0  0  0  0  0  0  0  0  0  0  0
  161.0560  212.7730  148.4630 N   0  0  0  0  0  2  0  0  0  0  0  0
  160.6380  212.4230  150.7170 O   0  0  0  0  0  0  0  0  0  0  0  0
  161.7280  212.3960  147.2310 C   0  0  0  0  0  3  0  0  0  0  0  0
  161.0830  213.1250  146.0680 C   0  0  0  0  0  2  0  0  0  0  0  0
  162.4010  213.6140  146.6340 C   0  0  0  0  0  2  0  0  0  0  0  0
  1  2  1  6  0  0  0
  1 31  1  0  0  0  0
  1 16  1  0  0  0  0
  3  2  1  0  0  0  0
  4  8  2  0  0  0  0
  4 11  1  0  0  0  0
  5 10  1  0  0  0  0
  6 14  2  0  0  0  0
  7  4  1  0  0  0  0
  8 13  1  0  0  0  0
  9  6  1  0  0  0  0
 10 12  1  0  0  0  0
 10  3  1  1  0  0  0
 11  5  1  0  0  0  0
 11 15  2  0  0  0  0
 12 14  1  6  0  0  0
 13  9  2  0  0  0  0
 15  9  1  0  0  0  0
 15 12  1  0  0  0  0
 17 16  1  6  0  0  0
 17 20  1  0  0  0  0
 19 17  1  0  0  0  0
 19 18  1  0  0  0  0
 20 23  1  0  0  0  0
 22 21  1  0  0  0  0
 23 24  2  0  0  0  0
 24 21  2  0  0  0  0
 25 21  1  6  0  0  0
 26 28  1  0  0  0  0
 27 26  1  0  0  0  0
 28 25  1  0  0  0  0
 29 25  1  0  0  0  0
 30 29  1  0  0  0  0
 30 26  1  0  0  0  0
 32 31  1  0  0  0  0
 33 32  1  0  0  0  0
 33 35  2  0  0  0  0
 34 33  1  0  0  0  0
 36 34  1  0  0  0  0
 37 38  1  0  0  0  0
 37 36  1  0  0  0  0
 38 36  1  0  0  0  0
M  END
>  <MODEL>
1

>  <REMARK>
 VINA RESULT:      -8.2      0.000      0.000
  Name = 
  12 active torsions:
  status: ('A' for Active; 'I' for Inactive)
    1  A    between atoms: C_2  and  N_23
    2  A    between atoms: N_3  and  C_36
    3  A    between atoms: C_4  and  C_14
    4  A    between atoms: C_4  and  O_15
    5  A    between atoms: N_8  and  CA_19
    6  A    between atoms: N_8  and  C_37
    7  A    between atoms: C_11  and  C_21
    8  A    between atoms: C_14  and  C_32
    9  A    between atoms: C_14  and  C_36
   10  A    between atoms: O_15  and  C_18
   11  A    between atoms: CA_19  and  C_26
   12  A    between atoms: CA_19  and  C_32
                            x       y       z     vdW  Elec       q    Type
                         _______ _______ _______ _____ _____    ______ ____

>  <TORSDO>
F 12

$$$$
=
 OpenBabel11042422483D

 38 42  0  0  1  0  0  0  0  0999 V2000
  161.2170  208.0270  150.7200 C   0  0  2  0  0  3  0  0  0  0  0  0
  161.0680  207.4450  149.3240 C   0  0  0  0  0  2  0  0  0  0  0  0
  160.5690  206.1200  149.4090 O   0  0  0  0  0  0  0  0  0  0  0  0
  161.1640  203.5590  145.5280 C   0  0  0  0  0  0  0  0  0  0  0  0
  161.2350  205.3340  147.2430 C   0  0  0  0  0  2  0  0  0  0  0  0
  160.2780  201.6320  148.8250 C   0  0  0  0  0  3  0  0  0  0  0  0
  160.8550  204.4620  144.4710 N   0  0  0  0  0  1  0  0  0  0  0  0
  160.7320  202.1880  145.4280 N   0  0  0  0  0  0  0  0  0  0  0  0
  161.3130  201.6890  147.7390 C   0  0  0  0  0  0  0  0  0  0  0  0
  160.9770  205.1190  148.5290 C   0  0  1  0  0  3  0  0  0  0  0  0
  161.5980  204.0210  146.7010 C   0  0  0  0  0  0  0  0  0  0  0  0
  161.1910  203.7070  148.8620 C   0  0  1  0  0  3  0  0  0  0  0  0
  160.7670  201.3650  146.4100 N   0  0  0  0  0  0  0  0  0  0  0  0
  160.2350  202.7930  149.4850 C   0  0  0  0  0  3  0  0  0  0  0  0
  161.7010  203.1150  147.8200 C   0  0  0  0  0  0  0  0  0  0  0  0
  162.4370  208.9490  150.8320 C   0  0  0  0  0  2  0  0  0  0  0  0
  162.1110  210.4460  150.8210 C   0  0  2  0  0  3  0  0  0  0  0  0
  161.2410  210.8940  153.0020 O   0  0  0  0  0  1  0  0  0  0  0  0
  160.8790  210.7120  151.6670 C   0  0  0  0  0  2  0  0  0  0  0  0
  161.9380  210.9690  149.4630 N   0  0  0  0  0  2  0  0  0  0  0  0
  161.6040  213.1040  146.6010 C   0  0  0  0  0  0  0  0  0  0  0  0
  162.7390  213.1300  145.8020 O   0  0  0  0  0  1  0  0  0  0  0  0
  161.8270  212.3490  149.0930 C   0  0  0  0  0  3  0  0  0  0  0  0
  161.7190  212.7300  147.8490 C   0  0  0  0  0  0  0  0  0  0  0  0
  160.2800  213.4830  145.9930 C   0  0  2  0  0  3  0  0  0  0  0  0
  157.9450  213.6400  146.5190 N   0  0  0  0  0  0  0  0  0  0  0  0
  157.2330  213.1330  147.6760 C   0  0  0  0  0  1  0  0  0  0  0  0
  159.2680  214.0360  146.9780 C   0  0  0  0  0  2  0  0  0  0  0  0
  159.6060  212.2770  145.4010 C   0  0  0  0  0  2  0  0  0  0  0  0
  158.1250  212.5190  145.6010 C   0  0  0  0  0  2  0  0  0  0  0  0
  161.2350  206.9270  151.7690 C   0  0  0  0  0  2  0  0  0  0  0  0
  160.8700  207.4770  153.0650 N   0  0  0  0  0  2  0  0  0  0  0  0
  160.8530  206.6830  154.2530 C   0  0  0  0  0  0  0  0  0  0  0  0
  160.5350  207.2720  155.5120 N   0  0  0  0  0  2  0  0  0  0  0  0
  161.1080  205.4500  154.1960 O   0  0  0  0  0  0  0  0  0  0  0  0
  160.2810  208.6950  155.6550 C   0  0  0  0  0  3  0  0  0  0  0  0
  160.3690  209.0730  157.1210 C   0  0  0  0  0  2  0  0  0  0  0  0
  161.5230  209.3760  156.1880 C   0  0  0  0  0  2  0  0  0  0  0  0
  1  2  1  6  0  0  0
  1 16  1  0  0  0  0
  1 31  1  0  0  0  0
  2  3  1  0  0  0  0
  4 11  1  0  0  0  0
  5 10  1  0  0  0  0
  6 14  2  0  0  0  0
  7  4  1  0  0  0  0
  8  4  2  0  0  0  0
  8 13  1  0  0  0  0
  9 15  1  0  0  0  0
  9  6  1  0  0  0  0
 10 12  1  0  0  0  0
 10  3  1  1  0  0  0
 11  5  1  0  0  0  0
 11 15  2  0  0  0  0
 12 14  1  6  0  0  0
 13  9  2  0  0  0  0
 15 12  1  0  0  0  0
 17 16  1  6  0  0  0
 17 19  1  0  0  0  0
 19 18  1  0  0  0  0
 20 17  1  0  0  0  0
 21 24  2  0  0  0  0
 22 21  1  0  0  0  0
 23 20  1  0  0  0  0
 24 23  2  0  0  0  0
 25 21  1  1  0  0  0
 25 28  1  0  0  0  0
 26 28  1  0  0  0  0
 26 27  1  0  0  0  0
 29 30  1  0  0  0  0
 29 25  1  0  0  0  0
 30 26  1  0  0  0  0
 31 32  1  0  0  0  0
 32 33  1  0  0  0  0
 33 34  1  0  0  0  0
 34 36  1  0  0  0  0
 35 33  2  0  0  0  0
 36 38  1  0  0  0  0
 36 37  1  0  0  0  0
 38 37  1  0  0  0  0
M  END
>  <MODEL>
2

>  <REMARK>
 VINA RESULT:      -8.0      1.861      6.388
  Name = 
  12 active torsions:
  status: ('A' for Active; 'I' for Inactive)
    1  A    between atoms: C_2  and  N_23
    2  A    between atoms: N_3  and  C_36
    3  A    between atoms: C_4  and  C_14
    4  A    between atoms: C_4  and  O_15
    5  A    between atoms: N_8  and  CA_19
    6  A    between atoms: N_8  and  C_37
    7  A    between atoms: C_11  and  C_21
    8  A    between atoms: C_14  and  C_32
    9  A    between atoms: C_14  and  C_36
   10  A    between atoms: O_15  and  C_18
   11  A    between atoms: CA_19  and  C_26
   12  A    between atoms: CA_19  and  C_32
                            x       y       z     vdW  Elec       q    Type
                         _______ _______ _______ _____ _____    ______ ____

>  <TORSDO>
F 12

$$$$
=
 OpenBabel11042422483D

 38 42  0  0  1  0  0  0  0  0999 V2000
  161.7470  209.2300  150.0030 C   0  0  2  0  0  3  0  0  0  0  0  0
  161.6380  208.5670  148.6390 C   0  0  0  0  0  2  0  0  0  0  0  0
  160.9180  207.3510  148.7550 O   0  0  0  0  0  0  0  0  0  0  0  0
  161.3440  204.1350  145.3710 C   0  0  0  0  0  0  0  0  0  0  0  0
  161.4910  206.1860  146.7380 C   0  0  0  0  0  2  0  0  0  0  0  0
  160.5890  202.8340  148.9910 C   0  0  0  0  0  3  0  0  0  0  0  0
  160.9950  204.8390  144.1830 N   0  0  0  0  0  1  0  0  0  0  0  0
  160.9030  202.7720  145.5340 N   0  0  0  0  0  0  0  0  0  0  0  0
  161.5780  202.6860  147.8720 C   0  0  0  0  0  0  0  0  0  0  0  0
  161.2850  206.2050  148.0520 C   0  0  1  0  0  3  0  0  0  0  0  0
  161.8270  204.7940  146.4250 C   0  0  0  0  0  0  0  0  0  0  0  0
  161.5090  204.8730  148.6220 C   0  0  1  0  0  3  0  0  0  0  0  0
  160.9770  202.1370  146.6450 N   0  0  0  0  0  0  0  0  0  0  0  0
  160.5760  204.0950  149.4350 C   0  0  0  0  0  3  0  0  0  0  0  0
  161.9730  204.1000  147.6820 C   0  0  0  0  0  0  0  0  0  0  0  0
  162.2910  210.6600  149.9060 C   0  0  0  0  0  2  0  0  0  0  0  0
  161.8390  211.4350  148.6640 C   0  0  2  0  0  3  0  0  0  0  0  0
  162.6400  212.8750  146.9340 O   0  0  0  0  0  1  0  0  0  0  0  0
  163.0470  212.0040  147.9440 C   0  0  0  0  0  2  0  0  0  0  0  0
  160.8750  212.4900  148.9860 N   0  0  0  0  0  2  0  0  0  0  0  0
  158.7590  212.8060  151.8650 C   0  0  0  0  0  0  0  0  0  0  0  0
  157.5410  213.4100  151.5860 O   0  0  0  0  0  1  0  0  0  0  0  0
  160.7650  213.1870  150.2340 C   0  0  0  0  0  3  0  0  0  0  0  0
  159.7630  213.0020  151.0500 C   0  0  0  0  0  0  0  0  0  0  0  0
  158.8710  211.9280  153.0830 C   0  0  2  0  0  3  0  0  0  0  0  0
  158.9830  212.0380  155.4760 N   0  0  0  0  0  0  0  0  0  0  0  0
  159.1830  213.1930  156.3290 C   0  0  0  0  0  1  0  0  0  0  0  0
  158.2120  212.4890  154.3290 C   0  0  0  0  0  2  0  0  0  0  0  0
  160.3100  211.7440  153.4710 C   0  0  0  0  0  2  0  0  0  0  0  0
  160.2980  211.6370  154.9810 C   0  0  0  0  0  2  0  0  0  0  0  0
  162.5590  208.3730  150.9610 C   0  0  0  0  0  2  0  0  0  0  0  0
  161.8000  208.1440  152.1800 N   0  0  0  0  0  2  0  0  0  0  0  0
  161.6330  206.8400  152.7400 C   0  0  0  0  0  0  0  0  0  0  0  0
  160.9210  206.6650  153.9640 N   0  0  0  0  0  2  0  0  0  0  0  0
  162.1030  205.8310  152.1500 O   0  0  0  0  0  0  0  0  0  0  0  0
  160.3980  207.7900  154.7190 C   0  0  0  0  0  3  0  0  0  0  0  0
  160.0020  207.3190  156.1060 C   0  0  0  0  0  2  0  0  0  0  0  0
  161.3040  208.0660  155.9000 C   0  0  0  0  0  2  0  0  0  0  0  0
  1  2  1  6  0  0  0
  1 31  1  0  0  0  0
  2  3  1  0  0  0  0
  4  8  2  0  0  0  0
  4 11  1  0  0  0  0
  5 10  1  0  0  0  0
  6 14  2  0  0  0  0
  7  4  1  0  0  0  0
  8 13  1  0  0  0  0
  9  6  1  0  0  0  0
 10 12  1  0  0  0  0
 10  3  1  1  0  0  0
 11  5  1  0  0  0  0
 11 15  2  0  0  0  0
 12 14  1  6  0  0  0
 13  9  2  0  0  0  0
 15  9  1  0  0  0  0
 15 12  1  0  0  0  0
 16  1  1  0  0  0  0
 17 19  1  1  0  0  0
 17 20  1  0  0  0  0
 17 16  1  0  0  0  0
 18 19  1  0  0  0  0
 20 23  1  0  0  0  0
 22 21  1  0  0  0  0
 23 24  2  0  0  0  0
 24 21  2  0  0  0  0
 25 21  1  6  0  0  0
 25 29  1  0  0  0  0
 25 28  1  0  0  0  0
 26 27  1  0  0  0  0
 28 26  1  0  0  0  0
 29 30  1  0  0  0  0
 30 26  1  0  0  0  0
 31 32  1  0  0  0  0
 32 33  1  0  0  0  0
 33 34  1  0  0  0  0
 34 36  1  0  0  0  0
 35 33  2  0  0  0  0
 36 38  1  0  0  0  0
 36 37  1  0  0  0  0
 38 37  1  0  0  0  0
M  END
>  <MODEL>
3

>  <REMARK>
 VINA RESULT:      -7.9      1.573      5.046
  Name = 
  12 active torsions:
  status: ('A' for Active; 'I' for Inactive)
    1  A    between atoms: C_2  and  N_23
    2  A    between atoms: N_3  and  C_36
    3  A    between atoms: C_4  and  C_14
    4  A    between atoms: C_4  and  O_15
    5  A    between atoms: N_8  and  CA_19
    6  A    between atoms: N_8  and  C_37
    7  A    between atoms: C_11  and  C_21
    8  A    between atoms: C_14  and  C_32
    9  A    between atoms: C_14  and  C_36
   10  A    between atoms: O_15  and  C_18
   11  A    between atoms: CA_19  and  C_26
   12  A    between atoms: CA_19  and  C_32
                            x       y       z     vdW  Elec       q    Type
                         _______ _______ _______ _____ _____    ______ ____

>  <TORSDO>
F 12

$$$$
=
 OpenBabel11042422483D

 38 42  0  0  1  0  0  0  0  0999 V2000
  162.1020  208.8600  150.0310 C   0  0  2  0  0  3  0  0  0  0  0  0
  161.7060  208.3900  148.6400 C   0  0  0  0  0  2  0  0  0  0  0  0
  160.9350  207.2030  148.7380 O   0  0  0  0  0  0  0  0  0  0  0  0
  161.2410  203.9410  145.3850 C   0  0  0  0  0  0  0  0  0  0  0  0
  161.4470  206.0060  146.7230 C   0  0  0  0  0  2  0  0  0  0  0  0
  160.5540  202.6940  149.0380 C   0  0  0  0  0  3  0  0  0  0  0  0
  160.8730  204.6350  144.1970 N   0  0  0  0  0  1  0  0  0  0  0  0
  160.7870  202.5860  145.5750 N   0  0  0  0  0  0  0  0  0  0  0  0
  161.5150  202.5190  147.8980 C   0  0  0  0  0  0  0  0  0  0  0  0
  161.2720  206.0440  148.0410 C   0  0  1  0  0  3  0  0  0  0  0  0
  161.7570  204.6060  146.4190 C   0  0  0  0  0  0  0  0  0  0  0  0
  161.4920  204.7160  148.6220 C   0  0  1  0  0  3  0  0  0  0  0  0
  160.8780  201.9630  146.6920 N   0  0  0  0  0  0  0  0  0  0  0  0
  160.5680  203.9600  149.4660 C   0  0  0  0  0  3  0  0  0  0  0  0
  161.9240  203.9250  147.6820 C   0  0  0  0  0  0  0  0  0  0  0  0
  161.1050  208.3960  151.1000 C   0  0  0  0  0  2  0  0  0  0  0  0
  161.6810  208.3080  152.5170 C   0  0  2  0  0  3  0  0  0  0  0  0
  161.1280  206.0030  152.2050 O   0  0  0  0  0  1  0  0  0  0  0  0
  161.2490  207.0060  153.1670 C   0  0  0  0  0  2  0  0  0  0  0  0
  161.3050  209.4570  153.3430 N   0  0  0  0  0  2  0  0  0  0  0  0
  160.2200  211.5250  156.0660 C   0  0  0  0  0  0  0  0  0  0  0  0
  161.2540  211.9090  156.9080 O   0  0  0  0  0  1  0  0  0  0  0  0
  160.5350  209.4180  154.5520 C   0  0  0  0  0  3  0  0  0  0  0  0
  160.3780  210.4670  155.3130 C   0  0  0  0  0  0  0  0  0  0  0  0
  158.9640  212.3550  156.0340 C   0  0  2  0  0  3  0  0  0  0  0  0
  156.6160  212.1950  155.5750 N   0  0  0  0  0  0  0  0  0  0  0  0
  155.8770  211.1120  154.9560 C   0  0  0  0  0  1  0  0  0  0  0  0
  157.6920  211.5880  156.3420 C   0  0  0  0  0  2  0  0  0  0  0  0
  158.7390  212.9180  154.6600 C   0  0  0  0  0  2  0  0  0  0  0  0
  157.2340  212.9640  154.4970 C   0  0  0  0  0  2  0  0  0  0  0  0
  162.3090  210.3660  150.0570 C   0  0  0  0  0  2  0  0  0  0  0  0
  161.5780  210.9820  148.9610 N   0  0  0  0  0  2  0  0  0  0  0  0
  162.1730  211.9570  148.1010 C   0  0  0  0  0  0  0  0  0  0  0  0
  161.4360  212.5010  147.0080 N   0  0  0  0  0  2  0  0  0  0  0  0
  163.3500  212.3530  148.3100 O   0  0  0  0  0  0  0  0  0  0  0  0
  160.0940  212.0520  146.6830 C   0  0  0  0  0  3  0  0  0  0  0  0
  159.1050  213.1550  147.0130 C   0  0  0  0  0  2  0  0  0  0  0  0
  159.5290  212.9180  145.5780 C   0  0  0  0  0  2  0  0  0  0  0  0
  1  2  1  6  0  0  0
  1 31  1  0  0  0  0
  1 16  1  0  0  0  0
  2  3  1  0  0  0  0
  4  8  2  0  0  0  0
  4 11  1  0  0  0  0
  5 10  1  0  0  0  0
  6 14  2  0  0  0  0
  7  4  1  0  0  0  0
  8 13  1  0  0  0  0
  9  6  1  0  0  0  0
 10 12  1  0  0  0  0
 10  3  1  1  0  0  0
 11  5  1  0  0  0  0
 11 15  2  0  0  0  0
 12 14  1  6  0  0  0
 13  9  2  0  0  0  0
 15  9  1  0  0  0  0
 15 12  1  0  0  0  0
 17 16  1  6  0  0  0
 17 19  1  0  0  0  0
 17 20  1  0  0  0  0
 18 19  1  0  0  0  0
 20 23  1  0  0  0  0
 21 22  1  0  0  0  0
 23 24  2  0  0  0  0
 24 21  2  0  0  0  0
 25 21  1  6  0  0  0
 25 28  1  0  0  0  0
 26 28  1  0  0  0  0
 27 26  1  0  0  0  0
 29 25  1  0  0  0  0
 30 29  1  0  0  0  0
 30 26  1  0  0  0  0
 32 31  1  0  0  0  0
 33 35  2  0  0  0  0
 33 32  1  0  0  0  0
 34 33  1  0  0  0  0
 36 34  1  0  0  0  0
 36 37  1  0  0  0  0
 38 36  1  0  0  0  0
 38 37  1  0  0  0  0
M  END
>  <MODEL>
4

>  <REMARK>
 VINA RESULT:      -7.5      1.279      1.492
  Name = 
  12 active torsions:
  status: ('A' for Active; 'I' for Inactive)
    1  A    between atoms: C_2  and  N_23
    2  A    between atoms: N_3  and  C_36
    3  A    between atoms: C_4  and  C_14
    4  A    between atoms: C_4  and  O_15
    5  A    between atoms: N_8  and  CA_19
    6  A    between atoms: N_8  and  C_37
    7  A    between atoms: C_11  and  C_21
    8  A    between atoms: C_14  and  C_32
    9  A    between atoms: C_14  and  C_36
   10  A    between atoms: O_15  and  C_18
   11  A    between atoms: CA_19  and  C_26
   12  A    between atoms: CA_19  and  C_32
                            x       y       z     vdW  Elec       q    Type
                         _______ _______ _______ _____ _____    ______ ____

>  <TORSDO>
F 12

$$$$
=
 OpenBabel11042422483D

 38 42  0  0  1  0  0  0  0  0999 V2000
  162.1750  209.2090  150.1020 C   0  0  2  0  0  3  0  0  0  0  0  0
  161.8590  208.7360  148.6930 C   0  0  0  0  0  2  0  0  0  0  0  0
  162.5630  207.5350  148.4220 O   0  0  0  0  0  0  0  0  0  0  0  0
  160.8810  203.1890  148.9250 C   0  0  0  0  0  0  0  0  0  0  0  0
  161.3240  205.6090  149.1340 C   0  0  0  0  0  2  0  0  0  0  0  0
  162.5380  204.0790  145.4860 C   0  0  0  0  0  3  0  0  0  0  0  0
  160.9300  202.9630  150.3300 N   0  0  0  0  0  1  0  0  0  0  0  0
  161.2250  202.1140  148.0290 N   0  0  0  0  0  0  0  0  0  0  0  0
  161.2560  203.5660  146.0740 C   0  0  0  0  0  0  0  0  0  0  0  0
  161.9050  206.3310  148.1800 C   0  0  1  0  0  3  0  0  0  0  0  0
  160.7870  204.4310  148.4470 C   0  0  0  0  0  0  0  0  0  0  0  0
  161.7380  205.6810  146.8760 C   0  0  1  0  0  3  0  0  0  0  0  0
  161.4220  202.2800  146.7730 N   0  0  0  0  0  0  0  0  0  0  0  0
  162.7930  205.3120  145.9340 C   0  0  0  0  0  3  0  0  0  0  0  0
  160.9520  204.6540  147.0300 C   0  0  0  0  0  0  0  0  0  0  0  0
  161.1560  208.6920  151.1250 C   0  0  0  0  0  2  0  0  0  0  0  0
  161.7560  208.2690  152.4700 C   0  0  2  0  0  3  0  0  0  0  0  0
  160.8320  206.5350  153.8300 O   0  0  0  0  0  1  0  0  0  0  0  0
  161.5690  206.7760  152.6700 C   0  0  0  0  0  2  0  0  0  0  0  0
  161.1940  209.0240  153.5920 N   0  0  0  0  0  2  0  0  0  0  0  0
  159.7950  212.2860  153.0730 C   0  0  0  0  0  0  0  0  0  0  0  0
  159.8540  212.7030  151.7510 O   0  0  0  0  0  1  0  0  0  0  0  0
  161.4230  210.4090  153.8830 C   0  0  0  0  0  3  0  0  0  0  0  0
  160.6140  211.3490  153.4780 C   0  0  0  0  0  0  0  0  0  0  0  0
  158.7720  212.9090  153.9850 C   0  0  2  0  0  3  0  0  0  0  0  0
  156.7230  212.4150  155.1290 N   0  0  0  0  0  0  0  0  0  0  0  0
  155.8430  211.2730  154.9750 C   0  0  0  0  0  1  0  0  0  0  0  0
  158.0790  211.9340  154.9180 C   0  0  0  0  0  2  0  0  0  0  0  0
  157.6560  213.5200  153.1860 C   0  0  0  0  0  2  0  0  0  0  0  0
  156.4190  213.3400  154.0400 C   0  0  0  0  0  2  0  0  0  0  0  0
  162.3140  210.7220  150.1500 C   0  0  0  0  0  2  0  0  0  0  0  0
  161.5740  211.3190  149.0490 N   0  0  0  0  0  2  0  0  0  0  0  0
  162.2000  212.1590  148.0770 C   0  0  0  0  0  0  0  0  0  0  0  0
  161.4480  212.6850  146.9850 N   0  0  0  0  0  2  0  0  0  0  0  0
  163.4210  212.4510  148.1820 O   0  0  0  0  0  0  0  0  0  0  0  0
  160.0500  212.3480  146.7780 C   0  0  0  0  0  3  0  0  0  0  0  0
  159.3700  213.4760  146.0280 C   0  0  0  0  0  2  0  0  0  0  0  0
  159.7810  212.2160  145.2940 C   0  0  0  0  0  2  0  0  0  0  0  0
  1  2  1  6  0  0  0
  1 31  1  0  0  0  0
  1 16  1  0  0  0  0
  3  2  1  0  0  0  0
  4  7  1  0  0  0  0
  6 14  2  0  0  0  0
  6  9  1  0  0  0  0
  8  4  2  0  0  0  0
  9 13  2  0  0  0  0
  9 15  1  0  0  0  0
 10  3  1  6  0  0  0
 10  5  1  0  0  0  0
 11  4  1  0  0  0  0
 11  5  1  0  0  0  0
 12 14  1  1  0  0  0
 12 15  1  0  0  0  0
 12 10  1  0  0  0  0
 13  8  1  0  0  0  0
 15 11  2  0  0  0  0
 17 16  1  6  0  0  0
 17 19  1  0  0  0  0
 17 20  1  0  0  0  0
 19 18  1  0  0  0  0
 20 23  1  0  0  0  0
 21 24  2  0  0  0  0
 22 21  1  0  0  0  0
 24 23  2  0  0  0  0
 25 21  1  6  0  0  0
 25 28  1  0  0  0  0
 27 26  1  0  0  0  0
 28 26  1  0  0  0  0
 29 25  1  0  0  0  0
 29 30  1  0  0  0  0
 30 26  1  0  0  0  0
 32 31  1  0  0  0  0
 33 35  2  0  0  0  0
 33 32  1  0  0  0  0
 34 33  1  0  0  0  0
 36 34  1  0  0  0  0
 37 36  1  0  0  0  0
 38 37  1  0  0  0  0
 38 36  1  0  0  0  0
M  END
>  <MODEL>
5

>  <REMARK>
 VINA RESULT:      -7.5      1.732      2.664
  Name = 
  12 active torsions:
  status: ('A' for Active; 'I' for Inactive)
    1  A    between atoms: C_2  and  N_23
    2  A    between atoms: N_3  and  C_36
    3  A    between atoms: C_4  and  C_14
    4  A    between atoms: C_4  and  O_15
    5  A    between atoms: N_8  and  CA_19
    6  A    between atoms: N_8  and  C_37
    7  A    between atoms: C_11  and  C_21
    8  A    between atoms: C_14  and  C_32
    9  A    between atoms: C_14  and  C_36
   10  A    between atoms: O_15  and  C_18
   11  A    between atoms: CA_19  and  C_26
   12  A    between atoms: CA_19  and  C_32
                            x       y       z     vdW  Elec       q    Type
                         _______ _______ _______ _____ _____    ______ ____

>  <TORSDO>
F 12

$$$$
=
 OpenBabel11042422483D

 38 42  0  0  1  0  0  0  0  0999 V2000
  161.0540  209.3710  152.5040 C   0  0  2  0  0  3  0  0  0  0  0  0
  160.9590  210.8730  152.7200 C   0  0  0  0  0  2  0  0  0  0  0  0
  160.6020  211.1400  154.0670 O   0  0  0  0  0  0  0  0  0  0  0  0
  156.0480  211.7360  155.0030 C   0  0  0  0  0  0  0  0  0  0  0  0
  158.4280  211.0860  155.0790 C   0  0  0  0  0  2  0  0  0  0  0  0
  157.7590  214.3880  152.6770 C   0  0  0  0  0  3  0  0  0  0  0  0
  155.5820  210.4220  155.2900 N   0  0  0  0  0  1  0  0  0  0  0  0
  155.2080  212.6280  154.2420 N   0  0  0  0  0  0  0  0  0  0  0  0
  156.9770  214.2750  153.9540 C   0  0  0  0  0  0  0  0  0  0  0  0
  159.3820  211.7230  154.4060 C   0  0  1  0  0  3  0  0  0  0  0  0
  157.3300  212.0510  155.1890 C   0  0  0  0  0  0  0  0  0  0  0  0
  158.9600  213.0920  154.0980 C   0  0  1  0  0  3  0  0  0  0  0  0
  155.6220  213.7370  153.7500 N   0  0  0  0  0  0  0  0  0  0  0  0
  158.9140  213.7240  152.7800 C   0  0  0  0  0  3  0  0  0  0  0  0
  157.8250  213.3140  154.6950 C   0  0  0  0  0  0  0  0  0  0  0  0
  161.5680  208.6420  153.7500 C   0  0  0  0  0  2  0  0  0  0  0  0
  160.6450  207.5370  154.2730 C   0  0  2  0  0  3  0  0  0  0  0  0
  159.3370  206.9600  156.1890 O   0  0  0  0  0  1  0  0  0  0  0  0
  160.4410  207.7020  155.7680 C   0  0  0  0  0  2  0  0  0  0  0  0
  161.1440  206.1970  153.9560 N   0  0  0  0  0  2  0  0  0  0  0  0
  161.1990  203.9960  151.1240 C   0  0  0  0  0  0  0  0  0  0  0  0
  161.3450  202.6600  151.4710 O   0  0  0  0  0  1  0  0  0  0  0  0
  161.9450  205.8360  152.8230 C   0  0  0  0  0  3  0  0  0  0  0  0
  161.5770  204.9160  151.9740 C   0  0  0  0  0  0  0  0  0  0  0  0
  160.5850  204.3360  149.7920 C   0  0  2  0  0  3  0  0  0  0  0  0
  161.1350  204.5370  147.4660 N   0  0  0  0  0  0  0  0  0  0  0  0
  162.4400  204.5450  146.8320 C   0  0  0  0  0  1  0  0  0  0  0  0
  161.2250  203.6390  148.6060 C   0  0  0  0  0  2  0  0  0  0  0  0
  160.7450  205.8000  149.4950 C   0  0  0  0  0  2  0  0  0  0  0  0
  160.9060  205.8800  147.9920 C   0  0  0  0  0  2  0  0  0  0  0  0
  161.8850  209.0510  151.2710 C   0  0  0  0  0  2  0  0  0  0  0  0
  161.9550  210.2200  150.4090 N   0  0  0  0  0  2  0  0  0  0  0  0
  162.1520  210.1150  148.9970 C   0  0  0  0  0  0  0  0  0  0  0  0
  162.1670  211.2840  148.1800 N   0  0  0  0  0  2  0  0  0  0  0  0
  162.3260  208.9870  148.4630 O   0  0  0  0  0  0  0  0  0  0  0  0
  161.9240  212.6080  148.7250 C   0  0  0  0  0  3  0  0  0  0  0  0
  162.5830  213.6430  147.8340 C   0  0  0  0  0  2  0  0  0  0  0  0
  161.0890  213.4070  147.7470 C   0  0  0  0  0  2  0  0  0  0  0  0
  1 31  1  6  0  0  0
  1  2  1  0  0  0  0
  1 16  1  0  0  0  0
  2  3  1  0  0  0  0
  4 11  1  0  0  0  0
  4  7  1  0  0  0  0
  5 11  1  0  0  0  0
  6 14  2  0  0  0  0
  6  9  1  0  0  0  0
  8  4  2  0  0  0  0
  9 15  1  0  0  0  0
 10  3  1  1  0  0  0
 10  5  1  0  0  0  0
 12 14  1  6  0  0  0
 12 10  1  0  0  0  0
 12 15  1  0  0  0  0
 13  9  2  0  0  0  0
 13  8  1  0  0  0  0
 15 11  2  0  0  0  0
 17 16  1  1  0  0  0
 17 19  1  0  0  0  0
 19 18  1  0  0  0  0
 20 17  1  0  0  0  0
 21 22  1  0  0  0  0
 21 24  2  0  0  0  0
 23 20  1  0  0  0  0
 24 23  2  0  0  0  0
 25 21  1  1  0  0  0
 26 30  1  0  0  0  0
 26 28  1  0  0  0  0
 27 26  1  0  0  0  0
 28 25  1  0  0  0  0
 29 25  1  0  0  0  0
 30 29  1  0  0  0  0
 32 31  1  0  0  0  0
 33 32  1  0  0  0  0
 34 36  1  0  0  0  0
 34 33  1  0  0  0  0
 35 33  2  0  0  0  0
 37 36  1  0  0  0  0
 38 37  1  0  0  0  0
 38 36  1  0  0  0  0
M  END
>  <MODEL>
6

>  <REMARK>
 VINA RESULT:      -7.4      1.954      8.583
  Name = 
  12 active torsions:
  status: ('A' for Active; 'I' for Inactive)
    1  A    between atoms: C_2  and  N_23
    2  A    between atoms: N_3  and  C_36
    3  A    between atoms: C_4  and  C_14
    4  A    between atoms: C_4  and  O_15
    5  A    between atoms: N_8  and  CA_19
    6  A    between atoms: N_8  and  C_37
    7  A    between atoms: C_11  and  C_21
    8  A    between atoms: C_14  and  C_32
    9  A    between atoms: C_14  and  C_36
   10  A    between atoms: O_15  and  C_18
   11  A    between atoms: CA_19  and  C_26
   12  A    between atoms: CA_19  and  C_32
                            x       y       z     vdW  Elec       q    Type
                         _______ _______ _______ _____ _____    ______ ____

>  <TORSDO>
F 12

$$$$
=
 OpenBabel11042422483D

 38 42  0  0  1  0  0  0  0  0999 V2000
  161.8330  208.9040  150.2430 C   0  0  2  0  0  3  0  0  0  0  0  0
  162.2390  209.9710  151.2480 C   0  0  0  0  0  2  0  0  0  0  0  0
  161.0790  210.5860  151.7860 O   0  0  0  0  0  0  0  0  0  0  0  0
  161.0940  210.0850  156.4470 C   0  0  0  0  0  0  0  0  0  0  0  0
  161.7420  210.3220  154.0760 C   0  0  0  0  0  2  0  0  0  0  0  0
  157.9430  211.7740  154.8380 C   0  0  0  0  0  3  0  0  0  0  0  0
  161.9560  208.9740  156.6700 N   0  0  0  0  0  1  0  0  0  0  0  0
  159.9020  210.2200  157.2470 N   0  0  0  0  0  0  0  0  0  0  0  0
  159.0100  212.0160  155.8660 C   0  0  0  0  0  0  0  0  0  0  0  0
  160.9450  210.8450  153.1490 C   0  0  1  0  0  3  0  0  0  0  0  0
  161.2310  210.8330  155.3510 C   0  0  0  0  0  0  0  0  0  0  0  0
  159.9420  211.7150  153.7710 C   0  0  1  0  0  3  0  0  0  0  0  0
  158.9630  211.0510  156.9770 N   0  0  0  0  0  0  0  0  0  0  0  0
  158.4900  211.6280  153.6280 C   0  0  0  0  0  3  0  0  0  0  0  0
  160.2210  211.8160  155.0390 C   0  0  0  0  0  0  0  0  0  0  0  0
  162.2690  207.5020  150.6860 C   0  0  0  0  0  2  0  0  0  0  0  0
  161.2880  206.7940  151.6260 C   0  0  2  0  0  3  0  0  0  0  0  0
  161.0200  206.7050  154.0000 O   0  0  0  0  0  1  0  0  0  0  0  0
  161.9490  206.5500  152.9710 C   0  0  0  0  0  2  0  0  0  0  0  0
  160.7760  205.5440  151.0590 N   0  0  0  0  0  2  0  0  0  0  0  0
  160.8310  202.6610  148.9270 C   0  0  0  0  0  0  0  0  0  0  0  0
  159.8100  201.7600  149.1980 O   0  0  0  0  0  1  0  0  0  0  0  0
  161.5400  204.3650  150.7770 C   0  0  0  0  0  3  0  0  0  0  0  0
  161.1880  203.5090  149.8560 C   0  0  0  0  0  0  0  0  0  0  0  0
  161.4720  202.6420  147.5650 C   0  0  2  0  0  3  0  0  0  0  0  0
  161.6240  203.9210  145.5410 N   0  0  0  0  0  0  0  0  0  0  0  0
  160.8360  205.0630  145.1200 C   0  0  0  0  0  1  0  0  0  0  0  0
  161.7640  204.0140  146.9860 C   0  0  0  0  0  2  0  0  0  0  0  0
  160.5580  201.9990  146.5600 C   0  0  0  0  0  2  0  0  0  0  0  0
  160.8310  202.7260  145.2610 C   0  0  0  0  0  2  0  0  0  0  0  0
  162.3410  209.2470  148.8520 C   0  0  0  0  0  2  0  0  0  0  0  0
  161.5450  210.3260  148.2900 N   0  0  0  0  0  2  0  0  0  0  0  0
  162.0810  211.6320  148.0660 C   0  0  0  0  0  0  0  0  0  0  0  0
  161.2800  212.6500  147.4680 N   0  0  0  0  0  2  0  0  0  0  0  0
  163.2640  211.8990  148.4050 O   0  0  0  0  0  0  0  0  0  0  0  0
  159.9250  212.3940  147.0090 C   0  0  0  0  0  3  0  0  0  0  0  0
  159.3350  213.6780  146.4570 C   0  0  0  0  0  2  0  0  0  0  0  0
  159.8540  212.6120  145.5130 C   0  0  0  0  0  2  0  0  0  0  0  0
  1 31  1  6  0  0  0
  1 16  1  0  0  0  0
  1  2  1  0  0  0  0
  2  3  1  0  0  0  0
  4  7  1  0  0  0  0
  4  8  1  0  0  0  0
  5 11  1  0  0  0  0
  6  9  1  0  0  0  0
  9 13  1  0  0  0  0
 10  3  1  6  0  0  0
 10 12  1  0  0  0  0
 10  5  1  0  0  0  0
 11  4  2  0  0  0  0
 12 14  1  1  0  0  0
 12 15  1  0  0  0  0
 13  8  2  0  0  0  0
 14  6  2  0  0  0  0
 15 11  1  0  0  0  0
 15  9  2  0  0  0  0
 17 16  1  6  0  0  0
 17 19  1  0  0  0  0
 19 18  1  0  0  0  0
 20 17  1  0  0  0  0
 21 22  1  0  0  0  0
 21 24  2  0  0  0  0
 23 20  1  0  0  0  0
 24 23  2  0  0  0  0
 25 21  1  1  0  0  0
 26 28  1  0  0  0  0
 27 26  1  0  0  0  0
 28 25  1  0  0  0  0
 29 25  1  0  0  0  0
 30 26  1  0  0  0  0
 30 29  1  0  0  0  0
 32 31  1  0  0  0  0
 33 32  1  0  0  0  0
 33 35  2  0  0  0  0
 34 33  1  0  0  0  0
 36 34  1  0  0  0  0
 37 36  1  0  0  0  0
 38 37  1  0  0  0  0
 38 36  1  0  0  0  0
M  END
>  <MODEL>
7

>  <REMARK>
 VINA RESULT:      -7.4      1.864      8.744
  Name = 
  12 active torsions:
  status: ('A' for Active; 'I' for Inactive)
    1  A    between atoms: C_2  and  N_23
    2  A    between atoms: N_3  and  C_36
    3  A    between atoms: C_4  and  C_14
    4  A    between atoms: C_4  and  O_15
    5  A    between atoms: N_8  and  CA_19
    6  A    between atoms: N_8  and  C_37
    7  A    between atoms: C_11  and  C_21
    8  A    between atoms: C_14  and  C_32
    9  A    between atoms: C_14  and  C_36
   10  A    between atoms: O_15  and  C_18
   11  A    between atoms: CA_19  and  C_26
   12  A    between atoms: CA_19  and  C_32
                            x       y       z     vdW  Elec       q    Type
                         _______ _______ _______ _____ _____    ______ ____

>  <TORSDO>
F 12

$$$$
=
 OpenBabel11042422483D

 38 42  0  0  1  0  0  0  0  0999 V2000
  161.7810  209.1180  150.4690 C   0  0  2  0  0  3  0  0  0  0  0  0
  162.1030  210.1640  151.5250 C   0  0  0  0  0  2  0  0  0  0  0  0
  161.0270  211.0820  151.6320 O   0  0  0  0  0  0  0  0  0  0  0  0
  157.6600  212.2940  154.6600 C   0  0  0  0  0  0  0  0  0  0  0  0
  158.9140  211.5370  152.6720 C   0  0  0  0  0  2  0  0  0  0  0  0
  161.1050  211.1820  156.1650 C   0  0  0  0  0  3  0  0  0  0  0  0
  156.8350  213.1860  153.9170 N   0  0  0  0  0  1  0  0  0  0  0  0
  157.9280  212.5780  156.0470 N   0  0  0  0  0  0  0  0  0  0  0  0
  159.6400  210.8560  156.2150 C   0  0  0  0  0  0  0  0  0  0  0  0
  160.1630  211.0820  152.7250 C   0  0  1  0  0  3  0  0  0  0  0  0
  158.3900  211.3720  154.0310 C   0  0  0  0  0  0  0  0  0  0  0  0
  160.4680  210.5880  154.0710 C   0  0  1  0  0  3  0  0  0  0  0  0
  158.8240  211.9670  156.7320 N   0  0  0  0  0  0  0  0  0  0  0  0
  161.5790  210.9990  154.9290 C   0  0  0  0  0  3  0  0  0  0  0  0
  159.3740  210.6240  154.7780 C   0  0  0  0  0  0  0  0  0  0  0  0
  162.2410  207.7170  150.8900 C   0  0  0  0  0  2  0  0  0  0  0  0
  161.1770  206.8830  151.6110 C   0  0  2  0  0  3  0  0  0  0  0  0
  161.1600  207.3220  153.9600 O   0  0  0  0  0  1  0  0  0  0  0  0
  161.6840  206.4760  152.9820 C   0  0  0  0  0  2  0  0  0  0  0  0
  160.7680  205.7100  150.8330 N   0  0  0  0  0  2  0  0  0  0  0  0
  160.8110  202.6750  148.9240 C   0  0  0  0  0  0  0  0  0  0  0  0
  159.8010  201.7910  149.2770 O   0  0  0  0  0  1  0  0  0  0  0  0
  161.5360  204.5170  150.6290 C   0  0  0  0  0  3  0  0  0  0  0  0
  161.1760  203.5930  149.7810 C   0  0  0  0  0  0  0  0  0  0  0  0
  161.4330  202.5570  147.5570 C   0  0  2  0  0  3  0  0  0  0  0  0
  161.5890  203.7070  145.4580 N   0  0  0  0  0  0  0  0  0  0  0  0
  160.8250  204.8430  144.9790 C   0  0  0  0  0  1  0  0  0  0  0  0
  161.7520  203.8830  146.8930 C   0  0  0  0  0  2  0  0  0  0  0  0
  160.4890  201.8790  146.6050 C   0  0  0  0  0  2  0  0  0  0  0  0
  160.7620  202.5190  145.2610 C   0  0  0  0  0  2  0  0  0  0  0  0
  162.3420  209.5210  149.1150 C   0  0  0  0  0  2  0  0  0  0  0  0
  161.5190  210.5690  148.5340 N   0  0  0  0  0  2  0  0  0  0  0  0
  162.0570  211.8380  148.1530 C   0  0  0  0  0  0  0  0  0  0  0  0
  161.2250  212.8220  147.5420 N   0  0  0  0  0  2  0  0  0  0  0  0
  163.2710  212.1010  148.3640 O   0  0  0  0  0  0  0  0  0  0  0  0
  159.8310  212.5640  147.2260 C   0  0  0  0  0  3  0  0  0  0  0  0
  159.2940  213.6980  146.3740 C   0  0  0  0  0  2  0  0  0  0  0  0
  159.6810  212.3820  145.7310 C   0  0  0  0  0  2  0  0  0  0  0  0
  1 31  1  6  0  0  0
  1 16  1  0  0  0  0
  1  2  1  0  0  0  0
  2  3  1  0  0  0  0
  4  8  1  0  0  0  0
  5 10  1  0  0  0  0
  5 11  1  0  0  0  0
  6  9  1  0  0  0  0
  7  4  1  0  0  0  0
  8 13  2  0  0  0  0
  9 13  1  0  0  0  0
 10  3  1  6  0  0  0
 10 12  1  0  0  0  0
 11  4  2  0  0  0  0
 11 15  1  0  0  0  0
 12 15  1  0  0  0  0
 12 14  1  1  0  0  0
 14  6  2  0  0  0  0
 15  9  2  0  0  0  0
 17 16  1  6  0  0  0
 17 19  1  0  0  0  0
 19 18  1  0  0  0  0
 20 17  1  0  0  0  0
 21 22  1  0  0  0  0
 21 24  2  0  0  0  0
 23 20  1  0  0  0  0
 24 23  2  0  0  0  0
 25 21  1  1  0  0  0
 26 28  1  0  0  0  0
 27 26  1  0  0  0  0
 28 25  1  0  0  0  0
 29 25  1  0  0  0  0
 30 26  1  0  0  0  0
 30 29  1  0  0  0  0
 32 31  1  0  0  0  0
 33 35  2  0  0  0  0
 33 32  1  0  0  0  0
 34 33  1  0  0  0  0
 36 34  1  0  0  0  0
 37 36  1  0  0  0  0
 38 37  1  0  0  0  0
 38 36  1  0  0  0  0
M  END
>  <MODEL>
8

>  <REMARK>
 VINA RESULT:      -7.1      1.825      8.779
  Name = 
  12 active torsions:
  status: ('A' for Active; 'I' for Inactive)
    1  A    between atoms: C_2  and  N_23
    2  A    between atoms: N_3  and  C_36
    3  A    between atoms: C_4  and  C_14
    4  A    between atoms: C_4  and  O_15
    5  A    between atoms: N_8  and  CA_19
    6  A    between atoms: N_8  and  C_37
    7  A    between atoms: C_11  and  C_21
    8  A    between atoms: C_14  and  C_32
    9  A    between atoms: C_14  and  C_36
   10  A    between atoms: O_15  and  C_18
   11  A    between atoms: CA_19  and  C_26
   12  A    between atoms: CA_19  and  C_32
                            x       y       z     vdW  Elec       q    Type
                         _______ _______ _______ _____ _____    ______ ____

>  <TORSDO>
F 12

$$$$
=
 OpenBabel11042422483D

 38 42  0  0  1  0  0  0  0  0999 V2000
  161.1410  209.4740  152.2610 C   0  0  2  0  0  3  0  0  0  0  0  0
  161.1180  210.9570  152.5990 C   0  0  0  0  0  2  0  0  0  0  0  0
  160.5800  211.1430  153.8980 O   0  0  0  0  0  0  0  0  0  0  0  0
  156.4490  213.3560  153.8410 C   0  0  0  0  0  0  0  0  0  0  0  0
  158.4940  212.1180  153.2260 C   0  0  0  0  0  2  0  0  0  0  0  0
  157.6170  211.8360  157.2600 C   0  0  0  0  0  3  0  0  0  0  0  0
  156.5680  214.2770  152.7610 N   0  0  0  0  0  1  0  0  0  0  0  0
  155.7720  213.7700  155.0440 N   0  0  0  0  0  0  0  0  0  0  0  0
  156.4760  211.7970  156.2860 C   0  0  0  0  0  0  0  0  0  0  0  0
  159.2370  211.4500  154.1040 C   0  0  1  0  0  3  0  0  0  0  0  0
  157.1750  212.2380  153.8540 C   0  0  0  0  0  0  0  0  0  0  0  0
  158.4370  211.0940  155.2810 C   0  0  1  0  0  3  0  0  0  0  0  0
  155.8050  213.1000  156.1370 N   0  0  0  0  0  0  0  0  0  0  0  0
  158.7390  211.4030  156.6780 C   0  0  0  0  0  3  0  0  0  0  0  0
  157.2000  211.4280  155.0490 C   0  0  0  0  0  0  0  0  0  0  0  0
  161.5540  208.6170  153.4620 C   0  0  0  0  0  2  0  0  0  0  0  0
  160.8820  207.2420  153.5300 C   0  0  2  0  0  3  0  0  0  0  0  0
  159.9500  207.9580  155.6120 O   0  0  0  0  0  1  0  0  0  0  0  0
  160.5780  206.8880  154.9750 C   0  0  0  0  0  2  0  0  0  0  0  0
  161.6860  206.1970  152.8920 N   0  0  0  0  0  2  0  0  0  0  0  0
  160.9200  205.5950  149.4400 C   0  0  0  0  0  0  0  0  0  0  0  0
  159.8150  206.3050  148.9920 O   0  0  0  0  0  1  0  0  0  0  0  0
  161.2050  205.1800  152.0040 C   0  0  0  0  0  3  0  0  0  0  0  0
  161.0580  205.3840  150.7230 C   0  0  0  0  0  0  0  0  0  0  0  0
  161.9320  205.1170  148.4320 C   0  0  2  0  0  3  0  0  0  0  0  0
  162.4390  205.2050  146.0900 N   0  0  0  0  0  0  0  0  0  0  0  0
  161.6120  205.6690  144.9920 C   0  0  0  0  0  1  0  0  0  0  0  0
  162.1190  206.0350  147.2400 C   0  0  0  0  0  2  0  0  0  0  0  0
  161.5000  203.8080  147.8320 C   0  0  0  0  0  2  0  0  0  0  0  0
  162.0070  203.8450  146.4060 C   0  0  0  0  0  2  0  0  0  0  0  0
  162.0100  209.2080  151.0430 C   0  0  0  0  0  2  0  0  0  0  0  0
  162.0710  210.4000  150.2120 N   0  0  0  0  0  2  0  0  0  0  0  0
  161.9420  210.3450  148.7890 C   0  0  0  0  0  0  0  0  0  0  0  0
  161.9600  211.5430  148.0150 N   0  0  0  0  0  2  0  0  0  0  0  0
  161.8240  209.2350  148.2050 O   0  0  0  0  0  0  0  0  0  0  0  0
  162.0440  212.8570  148.6300 C   0  0  0  0  0  3  0  0  0  0  0  0
  162.5980  213.8450  147.6210 C   0  0  0  0  0  2  0  0  0  0  0  0
  161.1110  213.8070  147.9100 C   0  0  0  0  0  2  0  0  0  0  0  0
  1 31  1  6  0  0  0
  1  2  1  0  0  0  0
  1 16  1  0  0  0  0
  2  3  1  0  0  0  0
  4 11  2  0  0  0  0
  4  8  1  0  0  0  0
  5 11  1  0  0  0  0
  5 10  1  0  0  0  0
  7  4  1  0  0  0  0
  8 13  2  0  0  0  0
  9  6  1  0  0  0  0
 10  3  1  6  0  0  0
 10 12  1  0  0  0  0
 11 15  1  0  0  0  0
 12 14  1  1  0  0  0
 13  9  1  0  0  0  0
 14  6  2  0  0  0  0
 15 12  1  0  0  0  0
 15  9  2  0  0  0  0
 17 16  1  1  0  0  0
 17 19  1  0  0  0  0
 19 18  1  0  0  0  0
 20 17  1  0  0  0  0
 21 24  2  0  0  0  0
 22 21  1  0  0  0  0
 23 20  1  0  0  0  0
 24 23  2  0  0  0  0
 25 21  1  1  0  0  0
 26 30  1  0  0  0  0
 26 28  1  0  0  0  0
 27 26  1  0  0  0  0
 28 25  1  0  0  0  0
 29 25  1  0  0  0  0
 30 29  1  0  0  0  0
 32 31  1  0  0  0  0
 33 32  1  0  0  0  0
 34 36  1  0  0  0  0
 34 33  1  0  0  0  0
 35 33  2  0  0  0  0
 37 38  1  0  0  0  0
 37 36  1  0  0  0  0
 38 36  1  0  0  0  0
M  END
>  <MODEL>
9

>  <REMARK>
 VINA RESULT:      -7.0      1.861      8.768
  Name = 
  12 active torsions:
  status: ('A' for Active; 'I' for Inactive)
    1  A    between atoms: C_2  and  N_23
    2  A    between atoms: N_3  and  C_36
    3  A    between atoms: C_4  and  C_14
    4  A    between atoms: C_4  and  O_15
    5  A    between atoms: N_8  and  CA_19
    6  A    between atoms: N_8  and  C_37
    7  A    between atoms: C_11  and  C_21
    8  A    between atoms: C_14  and  C_32
    9  A    between atoms: C_14  and  C_36
   10  A    between atoms: O_15  and  C_18
   11  A    between atoms: CA_19  and  C_26
   12  A    between atoms: CA_19  and  C_32
                            x       y       z     vdW  Elec       q    Type
                         _______ _______ _______ _____ _____    ______ ____

>  <TORSDO>
F 12

$$$$
