=
 OpenBabel11042421133D

 32 36  0  0  0  0  0  0  0  0999 V2000
  161.5970  208.1320  149.9300 N   0  0  0  0  0  0  0  0  0  0  0  0
  161.5310  203.0050  147.2560 N   0  0  0  0  0  0  0  0  0  0  0  0
  161.8840  205.7020  152.2720 C   0  0  0  0  0  2  0  0  0  0  0  0
  162.0650  205.3030  146.3690 C   0  0  0  0  0  3  0  0  0  0  0  0
  160.2820  204.8650  150.7240 C   0  0  0  0  0  3  0  0  0  0  0  0
  162.2340  206.7070  146.6250 C   0  0  0  0  0  3  0  0  0  0  0  0
  161.0940  202.3040  150.9270 C   0  0  0  0  0  0  0  0  0  0  0  0
  160.9360  204.5580  151.8650 C   0  0  0  0  0  0  0  0  0  0  0  0
  160.5910  204.1930  149.5450 C   0  0  0  0  0  0  0  0  0  0  0  0
  161.7530  210.2760  150.5610 C   0  0  0  0  0  3  0  0  0  0  0  0
  161.3550  208.4360  152.2540 N   0  0  0  0  0  0  0  0  0  0  0  0
  161.1020  200.9370  151.2250 O   0  0  0  0  0  1  0  0  0  0  0  0
  161.4780  208.9310  150.8730 C   0  0  0  0  0  0  0  0  0  0  0  0
  161.1440  202.2140  148.3370 C   0  0  0  0  0  0  0  0  0  0  0  0
  161.5710  204.3780  147.4270 C   0  0  0  0  0  0  0  0  0  0  0  0
  162.1250  209.6520  148.2160 C   0  0  0  0  0  3  0  0  0  0  0  0
  161.9290  207.0970  147.9560 C   0  0  0  0  0  0  0  0  0  0  0  0
  161.8890  208.3540  148.6360 C   0  0  0  0  0  0  0  0  0  0  0  0
  161.4170  206.1600  148.7770 N   0  0  0  0  0  0  0  0  0  0  0  0
  161.0550  200.7920  148.1840 N   0  0  0  0  0  1  0  0  0  0  0  0
  161.3900  207.0850  152.9310 C   0  0  0  0  0  0  0  0  0  0  0  0
  162.0100  210.7280  149.1820 C   0  0  0  0  0  0  0  0  0  0  0  0
  160.8400  202.8270  149.5570 C   0  0  0  0  0  0  0  0  0  0  0  0
  161.1640  204.9420  148.5660 C   0  0  0  0  0  0  0  0  0  0  0  0
  161.2550  203.2060  151.9860 C   0  0  0  0  0  3  0  0  0  0  0  0
  161.6260  208.2130  155.1510 O   0  0  0  0  0  1  0  0  0  0  0  0
  160.3460  206.3290  154.9900 O   0  0  0  0  0  0  0  0  0  0  0  0
  161.2160  207.0920  154.4590 C   0  0  0  0  0  0  0  0  0  0  0  0
  162.6390  212.0240  148.8930 N   0  0  0  0  0  2  0  0  0  0  0  0
  162.0440  213.1820  148.3520 N   0  0  0  0  0  0  0  0  0  0  0  0
  160.7860  212.9960  148.2690 O   0  0  0  0  0  1  0  0  0  0  0  0
  162.4100  213.1550  146.8890 C   0  0  0  0  0  1  0  0  0  0  0  0
  1 13  2  0  0  0  0
  2 15  2  0  0  0  0
  2 14  1  0  0  0  0
  3 21  1  0  0  0  0
  4  6  2  0  0  0  0
  4 15  1  0  0  0  0
  5  8  2  0  0  0  0
  6 17  1  0  0  0  0
  7 12  1  0  0  0  0
  7 25  2  0  0  0  0
  8 25  1  0  0  0  0
  8  3  1  0  0  0  0
  9 23  1  0  0  0  0
  9  5  1  0  0  0  0
 10 13  1  0  0  0  0
 11 21  2  0  0  0  0
 13 11  1  0  0  0  0
 14 23  2  0  0  0  0
 15 24  1  0  0  0  0
 16 18  2  0  0  0  0
 16 22  1  0  0  0  0
 17 18  1  0  0  0  0
 17 19  2  0  0  0  0
 18  1  1  0  0  0  0
 20 14  1  0  0  0  0
 21 28  1  0  0  0  0
 22 10  2  0  0  0  0
 23  7  1  0  0  0  0
 24 19  1  0  0  0  0
 24  9  2  0  0  0  0
 28 27  2  0  0  0  0
 28 26  1  0  0  0  0
 29 22  1  0  0  0  0
 30 29  1  0  0  0  0
 31 30  1  0  0  0  0
 32 30  1  0  0  0  0
M  END
>  <MODEL>
1

>  <REMARK>
 VINA RESULT:      -9.7      0.000      0.000
  Name = 
  3 active torsions:
  status: ('A' for Active; 'I' for Inactive)
    1  A    between atoms: N_4  and  N_6
    2  A    between atoms: N_4  and  C_29
    3  A    between atoms: C_22  and  CA_28
                            x       y       z     vdW  Elec       q    Type
                         _______ _______ _______ _____ _____    ______ ____

>  <TORSDO>
F 3

$$$$
=
 OpenBabel11042421133D

 32 36  0  0  0  0  0  0  0  0999 V2000
  161.4980  207.1440  149.3990 N   0  0  0  0  0  0  0  0  0  0  0  0
  160.9370  206.4440  155.1130 N   0  0  0  0  0  0  0  0  0  0  0  0
  162.4000  210.0310  150.9220 C   0  0  0  0  0  2  0  0  0  0  0  0
  161.1810  204.7380  153.2740 C   0  0  0  0  0  3  0  0  0  0  0  0
  160.4990  209.2740  152.1380 C   0  0  0  0  0  3  0  0  0  0  0  0
  161.3680  204.4590  151.8770 C   0  0  0  0  0  3  0  0  0  0  0  0
  161.4060  210.1310  154.5260 C   0  0  0  0  0  0  0  0  0  0  0  0
  161.4140  210.2660  152.0820 C   0  0  0  0  0  0  0  0  0  0  0  0
  160.5370  208.3520  153.1800 C   0  0  0  0  0  0  0  0  0  0  0  0
  161.7410  206.9610  147.1800 C   0  0  0  0  0  3  0  0  0  0  0  0
  161.8080  209.2180  148.3260 N   0  0  0  0  0  0  0  0  0  0  0  0
  161.5220  210.8610  155.7130 O   0  0  0  0  0  1  0  0  0  0  0  0
  161.5850  207.7630  148.3270 C   0  0  0  0  0  0  0  0  0  0  0  0
  160.8400  207.7860  155.4750 C   0  0  0  0  0  0  0  0  0  0  0  0
  160.9790  206.1290  153.7650 C   0  0  0  0  0  0  0  0  0  0  0  0
  161.5600  204.9450  148.5690 C   0  0  0  0  0  3  0  0  0  0  0  0
  161.3780  205.6130  151.0500 C   0  0  0  0  0  0  0  0  0  0  0  0
  161.4670  205.8200  149.6370 C   0  0  0  0  0  0  0  0  0  0  0  0
  161.1020  206.7960  151.6300 N   0  0  0  0  0  0  0  0  0  0  0  0
  160.7560  208.1470  156.8600 N   0  0  0  0  0  1  0  0  0  0  0  0
  162.0400  210.2820  149.3740 C   0  0  0  0  0  0  0  0  0  0  0  0
  161.6500  205.4910  147.2280 C   0  0  0  0  0  0  0  0  0  0  0  0
  160.8190  208.7640  154.4760 C   0  0  0  0  0  0  0  0  0  0  0  0
  160.8390  207.0730  152.8320 C   0  0  0  0  0  0  0  0  0  0  0  0
  161.7900  210.7560  153.3330 C   0  0  0  0  0  3  0  0  0  0  0  0
  163.2190  211.9280  147.9060 O   0  0  0  0  0  0  0  0  0  0  0  0
  161.2710  212.5420  148.9270 O   0  0  0  0  0  1  0  0  0  0  0  0
  162.2340  211.7140  148.8490 C   0  0  0  0  0  0  0  0  0  0  0  0
  162.1560  204.6440  146.1390 N   0  0  0  0  0  2  0  0  0  0  0  0
  161.4660  204.1830  144.9990 N   0  0  0  0  0  0  0  0  0  0  0  0
  160.3940  204.8570  144.8680 O   0  0  0  0  0  1  0  0  0  0  0  0
  160.8900  202.8510  145.4100 C   0  0  0  0  0  1  0  0  0  0  0  0
  1 18  1  0  0  0  0
  2 14  1  0  0  0  0
  3  8  1  0  0  0  0
  4 15  1  0  0  0  0
  5  9  1  0  0  0  0
  6  4  2  0  0  0  0
  7 12  1  0  0  0  0
  8  5  2  0  0  0  0
  8 25  1  0  0  0  0
  9 23  1  0  0  0  0
 10 22  2  0  0  0  0
 10 13  1  0  0  0  0
 11 13  1  0  0  0  0
 11 21  2  0  0  0  0
 13  1  2  0  0  0  0
 14 20  1  0  0  0  0
 15  2  2  0  0  0  0
 16 18  2  0  0  0  0
 17 19  2  0  0  0  0
 17  6  1  0  0  0  0
 18 17  1  0  0  0  0
 19 24  1  0  0  0  0
 21  3  1  0  0  0  0
 22 16  1  0  0  0  0
 23  7  1  0  0  0  0
 23 14  2  0  0  0  0
 24  9  2  0  0  0  0
 24 15  1  0  0  0  0
 25  7  2  0  0  0  0
 26 28  2  0  0  0  0
 28 27  1  0  0  0  0
 28 21  1  0  0  0  0
 29 22  1  0  0  0  0
 30 32  1  0  0  0  0
 30 29  1  0  0  0  0
 31 30  1  0  0  0  0
M  END
>  <MODEL>
2

>  <REMARK>
 VINA RESULT:      -9.3      2.409      6.953
  Name = 
  3 active torsions:
  status: ('A' for Active; 'I' for Inactive)
    1  A    between atoms: N_4  and  N_6
    2  A    between atoms: N_4  and  C_29
    3  A    between atoms: C_22  and  CA_28
                            x       y       z     vdW  Elec       q    Type
                         _______ _______ _______ _____ _____    ______ ____

>  <TORSDO>
F 3

$$$$
=
 OpenBabel11042421133D

 32 36  0  0  0  0  0  0  0  0999 V2000
  161.5350  206.3620  151.2490 N   0  0  0  0  0  0  0  0  0  0  0  0
  160.6440  201.8660  147.7220 N   0  0  0  0  0  0  0  0  0  0  0  0
  160.9660  207.5490  148.1280 C   0  0  0  0  0  2  0  0  0  0  0  0
  160.4500  202.0390  150.2290 C   0  0  0  0  0  3  0  0  0  0  0  0
  162.3370  205.6310  147.8060 C   0  0  0  0  0  3  0  0  0  0  0  0
  160.5230  202.8530  151.4100 C   0  0  0  0  0  3  0  0  0  0  0  0
  161.1310  204.8770  145.5180 C   0  0  0  0  0  0  0  0  0  0  0  0
  161.6960  206.6170  147.1430 C   0  0  0  0  0  0  0  0  0  0  0  0
  161.8690  204.3220  147.7270 C   0  0  0  0  0  0  0  0  0  0  0  0
  161.7580  207.8120  152.9420 C   0  0  0  0  0  3  0  0  0  0  0  0
  161.9300  208.5710  150.5320 N   0  0  0  0  0  0  0  0  0  0  0  0
  160.9140  204.6010  144.1640 O   0  0  0  0  0  1  0  0  0  0  0  0
  161.8250  207.5270  151.5650 C   0  0  0  0  0  0  0  0  0  0  0  0
  160.9470  202.4900  146.5130 C   0  0  0  0  0  0  0  0  0  0  0  0
  160.8350  202.5770  148.8950 C   0  0  0  0  0  0  0  0  0  0  0  0
  161.1820  205.4690  153.3950 C   0  0  0  0  0  3  0  0  0  0  0  0
  160.9480  204.1870  151.1740 C   0  0  0  0  0  0  0  0  0  0  0  0
  161.2240  205.3050  152.0210 C   0  0  0  0  0  0  0  0  0  0  0  0
  161.3390  204.5020  149.9240 N   0  0  0  0  0  0  0  0  0  0  0  0
  160.7970  201.7710  145.2820 N   0  0  0  0  0  1  0  0  0  0  0  0
  161.7080  208.6490  149.0390 C   0  0  0  0  0  0  0  0  0  0  0  0
  161.5140  206.7670  153.9520 C   0  0  0  0  0  0  0  0  0  0  0  0
  161.4030  203.8130  146.5220 C   0  0  0  0  0  0  0  0  0  0  0  0
  161.3810  203.7950  148.8800 C   0  0  0  0  0  0  0  0  0  0  0  0
  161.1670  206.2190  145.9150 C   0  0  0  0  0  3  0  0  0  0  0  0
  161.0210  210.4800  147.4800 O   0  0  0  0  0  0  0  0  0  0  0  0
  162.6940  210.8680  148.9860 O   0  0  0  0  0  1  0  0  0  0  0  0
  161.9510  210.0230  148.3920 C   0  0  0  0  0  0  0  0  0  0  0  0
  161.0910  207.0920  155.3210 N   0  0  0  0  0  2  0  0  0  0  0  0
  161.2940  208.2890  156.0370 N   0  0  0  0  0  0  0  0  0  0  0  0
  161.5030  208.0050  157.2610 O   0  0  0  0  0  1  0  0  0  0  0  0
  159.9230  208.9110  156.1420 C   0  0  0  0  0  1  0  0  0  0  0  0
  1 13  2  0  0  0  0
  1 18  1  0  0  0  0
  2 15  1  0  0  0  0
  3 21  1  0  0  0  0
  4  6  1  0  0  0  0
  7 25  2  0  0  0  0
  7 23  1  0  0  0  0
  8  5  2  0  0  0  0
  8  3  1  0  0  0  0
  9  5  1  0  0  0  0
  9 24  1  0  0  0  0
 10 22  2  0  0  0  0
 11 13  1  0  0  0  0
 12  7  1  0  0  0  0
 13 10  1  0  0  0  0
 14 23  1  0  0  0  0
 14  2  2  0  0  0  0
 15  4  2  0  0  0  0
 16 22  1  0  0  0  0
 17  6  2  0  0  0  0
 17 18  1  0  0  0  0
 18 16  2  0  0  0  0
 19 17  1  0  0  0  0
 20 14  1  0  0  0  0
 21 11  2  0  0  0  0
 22 29  1  0  0  0  0
 23  9  2  0  0  0  0
 24 15  1  0  0  0  0
 24 19  2  0  0  0  0
 25  8  1  0  0  0  0
 26 28  2  0  0  0  0
 28 27  1  0  0  0  0
 28 21  1  0  0  0  0
 29 30  1  0  0  0  0
 30 32  1  0  0  0  0
 30 31  1  0  0  0  0
M  END
>  <MODEL>
3

>  <REMARK>
 VINA RESULT:      -9.0      2.312      5.655
  Name = 
  3 active torsions:
  status: ('A' for Active; 'I' for Inactive)
    1  A    between atoms: N_4  and  N_6
    2  A    between atoms: N_4  and  C_29
    3  A    between atoms: C_22  and  CA_28
                            x       y       z     vdW  Elec       q    Type
                         _______ _______ _______ _____ _____    ______ ____

>  <TORSDO>
F 3

$$$$
=
 OpenBabel11042421133D

 32 36  0  0  0  0  0  0  0  0999 V2000
  161.4690  207.4900  151.7120 N   0  0  0  0  0  0  0  0  0  0  0  0
  160.8510  202.5330  148.7990 N   0  0  0  0  0  0  0  0  0  0  0  0
  161.1630  208.2180  148.4190 C   0  0  0  0  0  2  0  0  0  0  0  0
  160.4530  203.0590  151.2310 C   0  0  0  0  0  3  0  0  0  0  0  0
  162.5480  206.2840  148.4850 C   0  0  0  0  0  3  0  0  0  0  0  0
  160.4320  204.0330  152.2870 C   0  0  0  0  0  3  0  0  0  0  0  0
  161.5300  205.2040  146.2370 C   0  0  0  0  0  0  0  0  0  0  0  0
  161.9670  207.1610  147.6380 C   0  0  0  0  0  0  0  0  0  0  0  0
  162.0820  204.9740  148.5550 C   0  0  0  0  0  0  0  0  0  0  0  0
  161.5590  209.1680  153.1940 C   0  0  0  0  0  3  0  0  0  0  0  0
  161.9310  209.5780  150.7240 N   0  0  0  0  0  0  0  0  0  0  0  0
  161.4240  204.7370  144.9220 O   0  0  0  0  0  1  0  0  0  0  0  0
  161.7380  208.6910  151.8820 C   0  0  0  0  0  0  0  0  0  0  0  0
  161.2550  202.9810  147.5420 C   0  0  0  0  0  0  0  0  0  0  0  0
  160.9480  203.4040  149.8700 C   0  0  0  0  0  0  0  0  0  0  0  0
  160.9380  206.9090  153.9280 C   0  0  0  0  0  3  0  0  0  0  0  0
  160.8810  205.3230  151.8990 C   0  0  0  0  0  0  0  0  0  0  0  0
  161.0910  206.5520  152.5990 C   0  0  0  0  0  0  0  0  0  0  0  0
  161.3740  205.4600  150.6540 N   0  0  0  0  0  0  0  0  0  0  0  0
  161.2030  202.0940  146.4180 N   0  0  0  0  0  1  0  0  0  0  0  0
  161.8330  209.4420  149.2220 C   0  0  0  0  0  0  0  0  0  0  0  0
  161.2290  208.2750  154.3190 C   0  0  0  0  0  0  0  0  0  0  0  0
  161.7140  204.2950  147.4010 C   0  0  0  0  0  0  0  0  0  0  0  0
  161.4990  204.6120  149.7280 C   0  0  0  0  0  0  0  0  0  0  0  0
  161.5400  206.5890  146.4410 C   0  0  0  0  0  3  0  0  0  0  0  0
  161.2060  211.1110  147.4670 O   0  0  0  0  0  0  0  0  0  0  0  0
  162.9400  211.5770  148.8790 O   0  0  0  0  0  1  0  0  0  0  0  0
  162.1350  210.7120  148.4080 C   0  0  0  0  0  0  0  0  0  0  0  0
  160.6960  208.7880  155.5890 N   0  0  0  0  0  2  0  0  0  0  0  0
  161.1290  208.4950  156.8990 N   0  0  0  0  0  0  0  0  0  0  0  0
  162.3320  208.0780  156.8500 O   0  0  0  0  0  1  0  0  0  0  0  0
  160.4220  207.2130  157.2610 C   0  0  0  0  0  1  0  0  0  0  0  0
  1 13  2  0  0  0  0
  1 18  1  0  0  0  0
  2 15  1  0  0  0  0
  3 21  1  0  0  0  0
  4  6  1  0  0  0  0
  5  9  1  0  0  0  0
  7 25  2  0  0  0  0
  7 23  1  0  0  0  0
  8  3  1  0  0  0  0
  8  5  2  0  0  0  0
  9 24  1  0  0  0  0
 10 22  2  0  0  0  0
 11 13  1  0  0  0  0
 12  7  1  0  0  0  0
 13 10  1  0  0  0  0
 14  2  2  0  0  0  0
 15  4  2  0  0  0  0
 16 22  1  0  0  0  0
 17  6  2  0  0  0  0
 17 18  1  0  0  0  0
 18 16  2  0  0  0  0
 19 17  1  0  0  0  0
 20 14  1  0  0  0  0
 21 11  2  0  0  0  0
 22 29  1  0  0  0  0
 23 14  1  0  0  0  0
 23  9  2  0  0  0  0
 24 15  1  0  0  0  0
 24 19  2  0  0  0  0
 25  8  1  0  0  0  0
 26 28  2  0  0  0  0
 28 27  1  0  0  0  0
 28 21  1  0  0  0  0
 29 30  1  0  0  0  0
 30 32  1  0  0  0  0
 31 30  1  0  0  0  0
M  END
>  <MODEL>
4

>  <REMARK>
 VINA RESULT:      -8.0      2.107      5.690
  Name = 
  3 active torsions:
  status: ('A' for Active; 'I' for Inactive)
    1  A    between atoms: N_4  and  N_6
    2  A    between atoms: N_4  and  C_29
    3  A    between atoms: C_22  and  CA_28
                            x       y       z     vdW  Elec       q    Type
                         _______ _______ _______ _____ _____    ______ ____

>  <TORSDO>
F 3

$$$$
