=
 OpenBabel11042421063D

 36 39  0  0  1  0  0  0  0  0999 V2000
  161.1380  205.1660  152.0610 C   0  0  0  0  0  0  0  0  0  0  0  0
  161.6810  208.6530  149.7900 C   0  0  0  0  0  3  0  0  0  0  0  0
  161.7350  209.9950  151.7560 N   0  0  0  0  0  0  0  0  0  0  0  0
  161.4600  207.6270  151.9940 C   0  0  0  0  0  0  0  0  0  0  0  0
  161.7950  209.9020  150.4020 C   0  0  0  0  0  0  0  0  0  0  0  0
  161.3640  206.2390  149.9180 N   0  0  0  0  0  0  0  0  0  0  0  0
  160.8580  203.1080  151.3550 N   0  0  0  0  0  0  0  0  0  0  0  0
  161.2040  205.1780  150.6380 C   0  0  0  0  0  0  0  0  0  0  0  0
  161.2790  206.4030  152.8860 C   0  0  0  0  0  2  0  0  0  0  0  0
  161.5040  207.5130  150.5720 C   0  0  0  0  0  0  0  0  0  0  0  0
  160.9360  203.9600  152.4780 N   0  0  0  0  0  0  0  0  0  0  0  0
  161.5950  208.9070  152.5660 C   0  0  0  0  0  0  0  0  0  0  0  0
  161.0080  203.8000  150.2650 C   0  0  0  0  0  0  0  0  0  0  0  0
  160.2640  208.9200  154.6160 N   0  0  0  0  0  2  0  0  0  0  0  0
  162.1400  210.4500  154.4630 C   0  0  0  0  0  2  0  0  0  0  0  0
  161.6100  209.0840  154.0640 C   0  0  2  0  0  3  0  0  0  0  0  0
  160.9200  211.2180  154.8970 C   0  0  0  0  0  2  0  0  0  0  0  0
  159.9310  210.1580  155.3220 C   0  0  2  0  0  3  0  0  0  0  0  0
  160.2470  208.5360  157.1120 N   0  0  0  0  0  1  0  0  0  0  0  0
  160.0290  209.9440  156.8270 C   0  0  0  0  0  2  0  0  0  0  0  0
  160.9820  203.2370  148.9090 C   0  0  0  0  0  0  0  0  0  0  0  0
  161.5740  203.9540  147.8220 N   0  0  0  0  0  2  0  0  0  0  0  0
  160.4300  202.1210  148.7070 O   0  0  0  0  0  0  0  0  0  0  0  0
  161.6480  203.4090  146.4720 C   0  0  0  0  0  2  0  0  0  0  0  0
  160.7740  204.4110  144.5230 O   0  0  0  0  0  0  0  0  0  0  0  0
  162.3650  205.7450  145.6220 C   0  0  0  0  0  1  0  0  0  0  0  0
  161.5460  204.5110  145.4650 C   0  0  0  0  0  0  0  0  0  0  0  0
  161.9120  211.1310  148.3310 N   0  0  0  0  0  0  0  0  0  0  0  0
  162.0280  211.1190  149.6190 C   0  0  0  0  0  3  0  0  0  0  0  0
  162.1690  212.3450  147.5670 C   0  0  0  0  0  2  0  0  0  0  0  0
  160.9750  213.2920  147.6310 C   0  0  0  0  0  2  0  0  0  0  0  0
  157.3540  212.6760  146.3810 C   0  0  0  0  0  1  0  0  0  0  0  0
  158.1710  213.4660  148.6090 C   0  0  0  0  0  1  0  0  0  0  0  0
  160.0540  212.0770  145.8050 O   0  0  0  0  0  0  0  0  0  0  0  0
  159.8180  212.7500  146.8450 C   0  0  0  0  0  0  0  0  0  0  0  0
  158.4650  212.9660  147.2740 N   0  0  0  0  0  0  0  0  0  0  0  0
  1 11  2  0  0  0  0
  1  9  1  0  0  0  0
  2  5  2  0  0  0  0
  2 10  1  0  0  0  0
  3 12  2  0  0  0  0
  4 12  1  0  0  0  0
  4  9  1  0  0  0  0
  5  3  1  0  0  0  0
  6 10  1  0  0  0  0
  6  8  2  0  0  0  0
  7 11  1  0  0  0  0
  8  1  1  0  0  0  0
 10  4  2  0  0  0  0
 13  8  1  0  0  0  0
 13  7  2  0  0  0  0
 14 18  1  0  0  0  0
 15 17  1  0  0  0  0
 16 12  1  6  0  0  0
 16 15  1  0  0  0  0
 16 14  1  0  0  0  0
 17 18  1  0  0  0  0
 18 20  1  1  0  0  0
 20 19  1  0  0  0  0
 21 13  1  0  0  0  0
 22 21  1  0  0  0  0
 23 21  2  0  0  0  0
 24 22  1  0  0  0  0
 25 27  2  0  0  0  0
 27 26  1  0  0  0  0
 27 24  1  0  0  0  0
 28 29  2  0  0  0  0
 29  5  1  0  0  0  0
 30 31  1  0  0  0  0
 30 28  1  0  0  0  0
 32 36  1  0  0  0  0
 34 35  2  0  0  0  0
 35 36  1  0  0  0  0
 35 31  1  0  0  0  0
 36 33  1  0  0  0  0
M  END
>  <MODEL>
1

>  <REMARK>
 VINA RESULT:      -8.3      0.000      0.000
  Name = 
  9 active torsions:
  status: ('A' for Active; 'I' for Inactive)
    1  A    between atoms: N_6  and  C_30
    2  A    between atoms: C_9  and  C_10
    3  A    between atoms: C_11  and  C_20
    4  A    between atoms: C_11  and  N_27
    5  A    between atoms: C_12  and  C_32
    6  A    between atoms: C_15  and  C_35
    7  A    between atoms: C_24  and  C_29
    8  A    between atoms: C_24  and  C_30
    9  A    between atoms: C_31  and  C_33
                            x       y       z     vdW  Elec       q    Type
                         _______ _______ _______ _____ _____    ______ ____

>  <TORSDO>
F 9

$$$$
=
 OpenBabel11042421063D

 36 39  0  0  1  0  0  0  0  0999 V2000
  161.2040  205.3030  151.5970 C   0  0  0  0  0  0  0  0  0  0  0  0
  161.8380  208.9080  149.5450 C   0  0  0  0  0  3  0  0  0  0  0  0
  161.7940  210.1430  151.5810 N   0  0  0  0  0  0  0  0  0  0  0  0
  161.5190  207.7650  151.6770 C   0  0  0  0  0  0  0  0  0  0  0  0
  161.9180  210.1230  150.2280 C   0  0  0  0  0  0  0  0  0  0  0  0
  161.5260  206.4910  149.5280 N   0  0  0  0  0  0  0  0  0  0  0  0
  160.9670  203.2850  150.7690 N   0  0  0  0  0  0  0  0  0  0  0  0
  161.3370  205.3920  150.1820 C   0  0  0  0  0  0  0  0  0  0  0  0
  161.3010  206.4940  152.4930 C   0  0  0  0  0  2  0  0  0  0  0  0
  161.6300  207.7280  150.2560 C   0  0  0  0  0  0  0  0  0  0  0  0
  160.9880  204.0760  151.9390 N   0  0  0  0  0  0  0  0  0  0  0  0
  161.6210  209.0120  152.3240 C   0  0  0  0  0  0  0  0  0  0  0  0
  161.1660  204.0350  149.7260 C   0  0  0  0  0  0  0  0  0  0  0  0
  160.1930  208.9250  154.3050 N   0  0  0  0  0  2  0  0  0  0  0  0
  162.0820  210.4470  154.3250 C   0  0  0  0  0  2  0  0  0  0  0  0
  161.5640  209.1080  153.8280 C   0  0  2  0  0  3  0  0  0  0  0  0
  160.8470  211.2000  154.7410 C   0  0  0  0  0  2  0  0  0  0  0  0
  159.8320  210.1250  155.0610 C   0  0  2  0  0  3  0  0  0  0  0  0
  159.9660  208.3980  156.7730 N   0  0  0  0  0  1  0  0  0  0  0  0
  159.8570  209.8310  156.5540 C   0  0  0  0  0  2  0  0  0  0  0  0
  161.2060  203.5460  148.3420 C   0  0  0  0  0  0  0  0  0  0  0  0
  161.4270  204.4600  147.2640 N   0  0  0  0  0  2  0  0  0  0  0  0
  161.0370  202.3180  148.1100 O   0  0  0  0  0  0  0  0  0  0  0  0
  161.5570  204.0200  145.8800 C   0  0  0  0  0  2  0  0  0  0  0  0
  161.4660  205.1020  143.7850 O   0  0  0  0  0  0  0  0  0  0  0  0
  160.1840  206.1700  145.4390 C   0  0  0  0  0  1  0  0  0  0  0  0
  161.1030  205.1030  144.9510 C   0  0  0  0  0  0  0  0  0  0  0  0
  162.3050  211.4260  148.2370 N   0  0  0  0  0  0  0  0  0  0  0  0
  162.1830  211.3800  149.5230 C   0  0  0  0  0  3  0  0  0  0  0  0
  162.5900  212.6820  147.5550 C   0  0  0  0  0  2  0  0  0  0  0  0
  161.4350  213.0800  146.6410 C   0  0  0  0  0  2  0  0  0  0  0  0
  161.2680  213.0130  142.7650 C   0  0  0  0  0  1  0  0  0  0  0  0
  159.6100  212.2130  144.4570 C   0  0  0  0  0  1  0  0  0  0  0  0
  163.0690  213.2880  144.9240 O   0  0  0  0  0  0  0  0  0  0  0  0
  161.8600  213.0610  145.2020 C   0  0  0  0  0  0  0  0  0  0  0  0
  160.9210  212.7690  144.1560 N   0  0  0  0  0  0  0  0  0  0  0  0
  1 11  2  0  0  0  0
  1  9  1  0  0  0  0
  2  5  2  0  0  0  0
  2 10  1  0  0  0  0
  3 12  2  0  0  0  0
  4 12  1  0  0  0  0
  4  9  1  0  0  0  0
  5  3  1  0  0  0  0
  6  8  2  0  0  0  0
  6 10  1  0  0  0  0
  7 11  1  0  0  0  0
  8  1  1  0  0  0  0
 10  4  2  0  0  0  0
 13  8  1  0  0  0  0
 13  7  2  0  0  0  0
 14 18  1  0  0  0  0
 15 17  1  0  0  0  0
 16 12  1  6  0  0  0
 16 14  1  0  0  0  0
 16 15  1  0  0  0  0
 17 18  1  0  0  0  0
 18 20  1  1  0  0  0
 20 19  1  0  0  0  0
 21 13  1  0  0  0  0
 22 21  1  0  0  0  0
 23 21  2  0  0  0  0
 24 22  1  0  0  0  0
 25 27  2  0  0  0  0
 27 26  1  0  0  0  0
 27 24  1  0  0  0  0
 28 29  2  0  0  0  0
 29  5  1  0  0  0  0
 30 28  1  0  0  0  0
 31 30  1  0  0  0  0
 32 36  1  0  0  0  0
 34 35  2  0  0  0  0
 35 31  1  0  0  0  0
 36 33  1  0  0  0  0
 36 35  1  0  0  0  0
M  END
>  <MODEL>
2

>  <REMARK>
 VINA RESULT:      -8.3      1.419      1.654
  Name = 
  9 active torsions:
  status: ('A' for Active; 'I' for Inactive)
    1  A    between atoms: N_6  and  C_30
    2  A    between atoms: C_9  and  C_10
    3  A    between atoms: C_11  and  C_20
    4  A    between atoms: C_11  and  N_27
    5  A    between atoms: C_12  and  C_32
    6  A    between atoms: C_15  and  C_35
    7  A    between atoms: C_24  and  C_29
    8  A    between atoms: C_24  and  C_30
    9  A    between atoms: C_31  and  C_33
                            x       y       z     vdW  Elec       q    Type
                         _______ _______ _______ _____ _____    ______ ____

>  <TORSDO>
F 9

$$$$
=
 OpenBabel11042421063D

 36 39  0  0  1  0  0  0  0  0999 V2000
  161.0610  207.0300  153.0720 C   0  0  0  0  0  0  0  0  0  0  0  0
  161.8480  210.3290  150.6010 C   0  0  0  0  0  3  0  0  0  0  0  0
  162.0650  208.9220  148.6920 N   0  0  0  0  0  0  0  0  0  0  0  0
  161.5480  207.9150  150.8040 C   0  0  0  0  0  0  0  0  0  0  0  0
  162.0900  210.1660  149.2350 C   0  0  0  0  0  0  0  0  0  0  0  0
  161.3660  209.4030  152.8030 N   0  0  0  0  0  0  0  0  0  0  0  0
  160.7250  206.9990  155.2400 N   0  0  0  0  0  0  0  0  0  0  0  0
  161.1180  208.3730  153.5430 C   0  0  0  0  0  0  0  0  0  0  0  0
  161.2550  206.6700  151.6360 C   0  0  0  0  0  2  0  0  0  0  0  0
  161.5870  209.2130  151.3940 C   0  0  0  0  0  0  0  0  0  0  0  0
  160.8310  206.2300  154.0600 N   0  0  0  0  0  0  0  0  0  0  0  0
  161.7830  207.8030  149.4200 C   0  0  0  0  0  0  0  0  0  0  0  0
  160.8930  208.2580  154.9620 C   0  0  0  0  0  0  0  0  0  0  0  0
  162.7330  206.3530  147.6970 N   0  0  0  0  0  2  0  0  0  0  0  0
  160.3420  206.2420  148.0910 C   0  0  0  0  0  2  0  0  0  0  0  0
  161.7030  206.4630  148.7300 C   0  0  2  0  0  3  0  0  0  0  0  0
  160.5850  206.4140  146.6150 C   0  0  0  0  0  2  0  0  0  0  0  0
  162.0510  206.0980  146.4280 C   0  0  2  0  0  3  0  0  0  0  0  0
  161.2000  204.2780  145.0520 N   0  0  0  0  0  1  0  0  0  0  0  0
  162.2100  204.6360  146.0330 C   0  0  0  0  0  2  0  0  0  0  0  0
  160.8490  209.3420  155.9510 C   0  0  0  0  0  0  0  0  0  0  0  0
  159.7700  210.2810  155.9380 N   0  0  0  0  0  2  0  0  0  0  0  0
  161.7700  209.4460  156.8060 O   0  0  0  0  0  0  0  0  0  0  0  0
  159.6320  211.3290  156.9430 C   0  0  0  0  0  2  0  0  0  0  0  0
  159.8530  213.6780  156.9660 O   0  0  0  0  0  0  0  0  0  0  0  0
  159.5130  212.7970  154.8150 C   0  0  0  0  0  1  0  0  0  0  0  0
  159.6700  212.6760  156.2910 C   0  0  0  0  0  0  0  0  0  0  0  0
  161.8560  212.4910  148.6370 N   0  0  0  0  0  0  0  0  0  0  0  0
  162.3220  211.3170  148.3580 C   0  0  0  0  0  3  0  0  0  0  0  0
  162.0790  213.6180  147.7420 C   0  0  0  0  0  2  0  0  0  0  0  0
  160.8620  213.8560  146.8530 C   0  0  0  0  0  2  0  0  0  0  0  0
  160.0020  212.2030  143.4490 C   0  0  0  0  0  1  0  0  0  0  0  0
  158.5890  212.5030  145.4910 C   0  0  0  0  0  1  0  0  0  0  0  0
  162.1780  213.0230  145.0530 O   0  0  0  0  0  0  0  0  0  0  0  0
  161.0190  213.1590  145.5330 C   0  0  0  0  0  0  0  0  0  0  0  0
  159.8820  212.6320  144.8340 N   0  0  0  0  0  0  0  0  0  0  0  0
  1  8  1  0  0  0  0
  1 11  2  0  0  0  0
  2 10  1  0  0  0  0
  3  5  1  0  0  0  0
  3 12  2  0  0  0  0
  4 10  2  0  0  0  0
  4  9  1  0  0  0  0
  5  2  2  0  0  0  0
  6  8  2  0  0  0  0
  8 13  1  0  0  0  0
  9  1  1  0  0  0  0
 10  6  1  0  0  0  0
 11  7  1  0  0  0  0
 12  4  1  0  0  0  0
 13  7  2  0  0  0  0
 13 21  1  0  0  0  0
 14 16  1  0  0  0  0
 15 16  1  0  0  0  0
 16 12  1  6  0  0  0
 17 15  1  0  0  0  0
 18 20  1  1  0  0  0
 18 17  1  0  0  0  0
 18 14  1  0  0  0  0
 19 20  1  0  0  0  0
 21 23  2  0  0  0  0
 22 21  1  0  0  0  0
 22 24  1  0  0  0  0
 26 27  1  0  0  0  0
 27 24  1  0  0  0  0
 27 25  2  0  0  0  0
 29 28  2  0  0  0  0
 29  5  1  0  0  0  0
 30 28  1  0  0  0  0
 31 30  1  0  0  0  0
 32 36  1  0  0  0  0
 34 35  2  0  0  0  0
 35 31  1  0  0  0  0
 36 33  1  0  0  0  0
 36 35  1  0  0  0  0
M  END
>  <MODEL>
3

>  <REMARK>
 VINA RESULT:      -8.1      3.182      7.328
  Name = 
  9 active torsions:
  status: ('A' for Active; 'I' for Inactive)
    1  A    between atoms: N_6  and  C_30
    2  A    between atoms: C_9  and  C_10
    3  A    between atoms: C_11  and  C_20
    4  A    between atoms: C_11  and  N_27
    5  A    between atoms: C_12  and  C_32
    6  A    between atoms: C_15  and  C_35
    7  A    between atoms: C_24  and  C_29
    8  A    between atoms: C_24  and  C_30
    9  A    between atoms: C_31  and  C_33
                            x       y       z     vdW  Elec       q    Type
                         _______ _______ _______ _____ _____    ______ ____

>  <TORSDO>
F 9

$$$$
=
 OpenBabel11042421063D

 36 39  0  0  1  0  0  0  0  0999 V2000
  161.2210  206.7300  152.8950 C   0  0  0  0  0  0  0  0  0  0  0  0
  161.9120  210.1080  150.5030 C   0  0  0  0  0  3  0  0  0  0  0  0
  162.1200  208.7580  148.5530 N   0  0  0  0  0  0  0  0  0  0  0  0
  161.6550  207.6850  150.6450 C   0  0  0  0  0  0  0  0  0  0  0  0
  162.1330  209.9880  149.1300 C   0  0  0  0  0  0  0  0  0  0  0  0
  161.4820  209.1140  152.6870 N   0  0  0  0  0  0  0  0  0  0  0  0
  160.9230  206.6330  155.0660 N   0  0  0  0  0  0  0  0  0  0  0  0
  161.2640  208.0600  153.4020 C   0  0  0  0  0  0  0  0  0  0  0  0
  161.3970  206.4130  151.4460 C   0  0  0  0  0  2  0  0  0  0  0  0
  161.6830  208.9670  151.2700 C   0  0  0  0  0  0  0  0  0  0  0  0
  161.0220  205.8990  153.8640 N   0  0  0  0  0  0  0  0  0  0  0  0
  161.8690  207.6150  149.2540 C   0  0  0  0  0  0  0  0  0  0  0  0
  161.0650  207.9020  154.8210 C   0  0  0  0  0  0  0  0  0  0  0  0
  162.7470  206.2670  147.4140 N   0  0  0  0  0  2  0  0  0  0  0  0
  160.4040  206.0200  147.9930 C   0  0  0  0  0  2  0  0  0  0  0  0
  161.8000  206.2940  148.5290 C   0  0  2  0  0  3  0  0  0  0  0  0
  160.5180  206.2480  146.5090 C   0  0  0  0  0  2  0  0  0  0  0  0
  161.9780  206.0140  146.1960 C   0  0  2  0  0  3  0  0  0  0  0  0
  161.0340  204.1440  144.9530 N   0  0  0  0  0  1  0  0  0  0  0  0
  162.1770  204.5740  145.7410 C   0  0  0  0  0  2  0  0  0  0  0  0
  161.0190  208.9580  155.8400 C   0  0  0  0  0  0  0  0  0  0  0  0
  161.2510  210.3210  155.4710 N   0  0  0  0  0  2  0  0  0  0  0  0
  160.7820  208.6560  157.0410 O   0  0  0  0  0  0  0  0  0  0  0  0
  161.1390  211.4190  156.4250 C   0  0  0  0  0  2  0  0  0  0  0  0
  158.8140  211.4790  156.8230 O   0  0  0  0  0  0  0  0  0  0  0  0
  159.6100  213.3670  155.6730 C   0  0  0  0  0  1  0  0  0  0  0  0
  159.7820  212.0430  156.3340 C   0  0  0  0  0  0  0  0  0  0  0  0
  161.7660  212.2980  148.5470 N   0  0  0  0  0  0  0  0  0  0  0  0
  162.3310  211.1650  148.2810 C   0  0  0  0  0  3  0  0  0  0  0  0
  161.9570  213.4530  147.6790 C   0  0  0  0  0  2  0  0  0  0  0  0
  160.6390  214.1880  147.4530 C   0  0  0  0  0  2  0  0  0  0  0  0
  157.2860  212.5740  146.3540 C   0  0  0  0  0  1  0  0  0  0  0  0
  157.8950  213.7070  148.4980 C   0  0  0  0  0  1  0  0  0  0  0  0
  160.0420  212.6480  145.7400 O   0  0  0  0  0  0  0  0  0  0  0  0
  159.6520  213.3110  146.7390 C   0  0  0  0  0  0  0  0  0  0  0  0
  158.2950  213.2030  147.1920 N   0  0  0  0  0  0  0  0  0  0  0  0
  1  8  1  0  0  0  0
  1 11  2  0  0  0  0
  2 10  1  0  0  0  0
  3  5  1  0  0  0  0
  3 12  2  0  0  0  0
  4 10  2  0  0  0  0
  4  9  1  0  0  0  0
  5  2  2  0  0  0  0
  6  8  2  0  0  0  0
  8 13  1  0  0  0  0
  9  1  1  0  0  0  0
 10  6  1  0  0  0  0
 11  7  1  0  0  0  0
 12  4  1  0  0  0  0
 13  7  2  0  0  0  0
 13 21  1  0  0  0  0
 14 16  1  0  0  0  0
 15 16  1  0  0  0  0
 16 12  1  6  0  0  0
 17 15  1  0  0  0  0
 18 20  1  1  0  0  0
 18 17  1  0  0  0  0
 18 14  1  0  0  0  0
 19 20  1  0  0  0  0
 21 23  2  0  0  0  0
 22 21  1  0  0  0  0
 22 24  1  0  0  0  0
 26 27  1  0  0  0  0
 27 24  1  0  0  0  0
 27 25  2  0  0  0  0
 29 28  2  0  0  0  0
 29  5  1  0  0  0  0
 30 28  1  0  0  0  0
 31 30  1  0  0  0  0
 32 36  1  0  0  0  0
 34 35  2  0  0  0  0
 35 36  1  0  0  0  0
 35 31  1  0  0  0  0
 36 33  1  0  0  0  0
M  END
>  <MODEL>
4

>  <REMARK>
 VINA RESULT:      -7.7      3.010      7.157
  Name = 
  9 active torsions:
  status: ('A' for Active; 'I' for Inactive)
    1  A    between atoms: N_6  and  C_30
    2  A    between atoms: C_9  and  C_10
    3  A    between atoms: C_11  and  C_20
    4  A    between atoms: C_11  and  N_27
    5  A    between atoms: C_12  and  C_32
    6  A    between atoms: C_15  and  C_35
    7  A    between atoms: C_24  and  C_29
    8  A    between atoms: C_24  and  C_30
    9  A    between atoms: C_31  and  C_33
                            x       y       z     vdW  Elec       q    Type
                         _______ _______ _______ _____ _____    ______ ____

>  <TORSDO>
F 9

$$$$
=
 OpenBabel11042421063D

 36 39  0  0  1  0  0  0  0  0999 V2000
  161.1370  205.4210  151.4740 C   0  0  0  0  0  0  0  0  0  0  0  0
  161.9690  208.8870  149.2590 C   0  0  0  0  0  3  0  0  0  0  0  0
  161.8320  210.2400  151.2140 N   0  0  0  0  0  0  0  0  0  0  0  0
  161.5000  207.8770  151.4310 C   0  0  0  0  0  0  0  0  0  0  0  0
  162.0350  210.1380  149.8740 C   0  0  0  0  0  0  0  0  0  0  0  0
  161.6060  206.4790  149.3630 N   0  0  0  0  0  0  0  0  0  0  0  0
  160.9050  203.3630  150.7510 N   0  0  0  0  0  0  0  0  0  0  0  0
  161.3550  205.4240  150.0670 C   0  0  0  0  0  0  0  0  0  0  0  0
  161.2070  206.6610  152.3040 C   0  0  0  0  0  2  0  0  0  0  0  0
  161.6930  207.7540  150.0230 C   0  0  0  0  0  0  0  0  0  0  0  0
  160.8750  204.2200  151.8720 N   0  0  0  0  0  0  0  0  0  0  0  0
  161.5900  209.1580  152.0090 C   0  0  0  0  0  0  0  0  0  0  0  0
  161.1810  204.0460  149.6800 C   0  0  0  0  0  0  0  0  0  0  0  0
  160.0510  209.1870  153.9070 N   0  0  0  0  0  2  0  0  0  0  0  0
  161.9380  210.7110  153.9450 C   0  0  0  0  0  2  0  0  0  0  0  0
  161.4480  209.3440  153.5000 C   0  0  2  0  0  3  0  0  0  0  0  0
  160.6820  211.4840  154.2430 C   0  0  0  0  0  2  0  0  0  0  0  0
  159.6490  210.4290  154.5670 C   0  0  2  0  0  3  0  0  0  0  0  0
  159.3720  211.4990  156.7380 N   0  0  0  0  0  1  0  0  0  0  0  0
  159.5870  210.2240  156.0750 C   0  0  0  0  0  2  0  0  0  0  0  0
  161.2920  203.4760  148.3320 C   0  0  0  0  0  0  0  0  0  0  0  0
  160.7770  202.1690  148.0610 N   0  0  0  0  0  2  0  0  0  0  0  0
  161.8490  204.1410  147.4170 O   0  0  0  0  0  0  0  0  0  0  0  0
  160.7880  201.5850  146.7250 C   0  0  0  0  0  2  0  0  0  0  0  0
  161.7000  199.7010  147.8130 O   0  0  0  0  0  0  0  0  0  0  0  0
  160.9480  199.2430  145.6340 C   0  0  0  0  0  1  0  0  0  0  0  0
  161.1910  200.1450  146.7950 C   0  0  0  0  0  0  0  0  0  0  0  0
  161.4910  212.2700  148.8870 N   0  0  0  0  0  0  0  0  0  0  0  0
  162.3680  211.3470  149.1160 C   0  0  0  0  0  3  0  0  0  0  0  0
  161.8340  213.4550  148.1130 C   0  0  0  0  0  2  0  0  0  0  0  0
  160.5900  214.0710  147.4800 C   0  0  0  0  0  2  0  0  0  0  0  0
  158.9020  213.3110  144.0700 C   0  0  0  0  0  1  0  0  0  0  0  0
  157.9340  214.2880  146.1580 C   0  0  0  0  0  1  0  0  0  0  0  0
  161.1800  212.7020  145.6250 O   0  0  0  0  0  0  0  0  0  0  0  0
  160.3090  213.4520  146.1420 C   0  0  0  0  0  0  0  0  0  0  0  0
  159.0640  213.6850  145.4660 N   0  0  0  0  0  0  0  0  0  0  0  0
  1 11  2  0  0  0  0
  1  9  1  0  0  0  0
  2  5  2  0  0  0  0
  2 10  1  0  0  0  0
  3 12  2  0  0  0  0
  4 12  1  0  0  0  0
  4  9  1  0  0  0  0
  5  3  1  0  0  0  0
  6 10  1  0  0  0  0
  6  8  2  0  0  0  0
  7 11  1  0  0  0  0
  8  1  1  0  0  0  0
 10  4  2  0  0  0  0
 13  8  1  0  0  0  0
 13  7  2  0  0  0  0
 14 18  1  0  0  0  0
 15 17  1  0  0  0  0
 16 12  1  6  0  0  0
 16 14  1  0  0  0  0
 16 15  1  0  0  0  0
 17 18  1  0  0  0  0
 18 20  1  1  0  0  0
 20 19  1  0  0  0  0
 21 13  1  0  0  0  0
 22 21  1  0  0  0  0
 23 21  2  0  0  0  0
 24 27  1  0  0  0  0
 24 22  1  0  0  0  0
 26 27  1  0  0  0  0
 27 25  2  0  0  0  0
 28 29  2  0  0  0  0
 29  5  1  0  0  0  0
 30 28  1  0  0  0  0
 31 30  1  0  0  0  0
 32 36  1  0  0  0  0
 34 35  2  0  0  0  0
 35 31  1  0  0  0  0
 36 35  1  0  0  0  0
 36 33  1  0  0  0  0
M  END
>  <MODEL>
5

>  <REMARK>
 VINA RESULT:      -7.1      1.621      2.111
  Name = 
  9 active torsions:
  status: ('A' for Active; 'I' for Inactive)
    1  A    between atoms: N_6  and  C_30
    2  A    between atoms: C_9  and  C_10
    3  A    between atoms: C_11  and  C_20
    4  A    between atoms: C_11  and  N_27
    5  A    between atoms: C_12  and  C_32
    6  A    between atoms: C_15  and  C_35
    7  A    between atoms: C_24  and  C_29
    8  A    between atoms: C_24  and  C_30
    9  A    between atoms: C_31  and  C_33
                            x       y       z     vdW  Elec       q    Type
                         _______ _______ _______ _____ _____    ______ ____

>  <TORSDO>
F 9

$$$$
=
 OpenBabel11042421063D

 36 39  0  0  1  0  0  0  0  0999 V2000
  160.8370  212.8560  150.3560 C   0  0  0  0  0  0  0  0  0  0  0  0
  162.0060  208.8360  150.6500 C   0  0  0  0  0  3  0  0  0  0  0  0
  161.0180  208.6450  152.8080 N   0  0  0  0  0  0  0  0  0  0  0  0
  160.8660  210.7430  151.6600 C   0  0  0  0  0  0  0  0  0  0  0  0
  161.7050  208.0780  151.7830 C   0  0  1  0  0  3  0  0  0  0  0  0
  161.9440  210.9360  149.4140 N   0  0  0  0  0  0  0  0  0  0  0  0
  161.2420  214.2790  148.7370 N   0  0  0  0  0  0  0  0  0  0  0  0
  161.5680  212.1710  149.3430 C   0  0  0  0  0  0  0  0  0  0  0  0
  160.3950  212.1930  151.6190 C   0  0  0  0  0  3  0  0  0  0  0  0
  161.6010  210.1680  150.5810 C   0  0  0  0  0  0  0  0  0  0  0  0
  160.6480  214.0840  150.0020 N   0  0  0  0  0  0  0  0  0  0  0  0
  160.5730  209.9350  152.7760 C   0  0  0  0  0  0  0  0  0  0  0  0
  161.7910  213.1730  148.3310 C   0  0  0  0  0  0  0  0  0  0  0  0
  160.1950  211.8170  154.2870 N   0  0  0  0  0  2  0  0  0  0  0  0
  159.8470  209.5760  155.1470 C   0  0  0  0  0  2  0  0  0  0  0  0
  159.7530  210.4710  153.9230 C   0  0  2  0  0  3  0  0  0  0  0  0
  160.7360  210.3290  156.0990 C   0  0  0  0  0  2  0  0  0  0  0  0
  160.5900  211.7790  155.6960 C   0  0  2  0  0  3  0  0  0  0  0  0
  158.7470  213.3700  155.7520 N   0  0  0  0  0  1  0  0  0  0  0  0
  159.5220  212.4410  156.5560 C   0  0  0  0  0  2  0  0  0  0  0  0
  162.5010  213.0120  147.0560 C   0  0  0  0  0  0  0  0  0  0  0  0
  161.8350  213.2960  145.8230 N   0  0  0  0  0  2  0  0  0  0  0  0
  163.6990  212.6150  147.0540 O   0  0  0  0  0  0  0  0  0  0  0  0
  162.5130  213.2320  144.5340 C   0  0  0  0  0  2  0  0  0  0  0  0
  162.0190  212.2370  142.4520 O   0  0  0  0  0  0  0  0  0  0  0  0
  160.1050  212.7640  143.7080 C   0  0  0  0  0  1  0  0  0  0  0  0
  161.5770  212.7170  143.4850 C   0  0  0  0  0  0  0  0  0  0  0  0
  161.2510  205.7230  151.5290 N   0  0  0  0  0  0  0  0  0  0  0  0
  162.0710  206.6620  151.8750 C   0  0  0  0  0  3  0  0  0  0  0  0
  161.6230  204.3200  151.6470 C   0  0  0  0  0  2  0  0  0  0  0  0
  160.6470  203.4310  150.8820 C   0  0  0  0  0  2  0  0  0  0  0  0
  161.0020  202.2980  147.1880 C   0  0  0  0  0  1  0  0  0  0  0  0
  161.0400  200.9470  149.2920 C   0  0  0  0  0  1  0  0  0  0  0  0
  161.1580  204.5720  148.8580 O   0  0  0  0  0  0  0  0  0  0  0  0
  160.9370  203.4600  149.4100 C   0  0  0  0  0  0  0  0  0  0  0  0
  160.9880  202.2490  148.6420 N   0  0  0  0  0  0  0  0  0  0  0  0
  1  9  1  0  0  0  0
  2  5  1  0  0  0  0
  4 12  1  0  0  0  0
  5 29  1  6  0  0  0
  5  3  1  0  0  0  0
  6 10  1  0  0  0  0
  7 11  1  0  0  0  0
  8  6  2  0  0  0  0
  8  1  1  0  0  0  0
  9  4  2  0  0  0  0
 10  2  2  0  0  0  0
 10  4  1  0  0  0  0
 11  1  2  0  0  0  0
 12  3  2  0  0  0  0
 13  7  2  0  0  0  0
 13  8  1  0  0  0  0
 14 18  1  0  0  0  0
 15 17  1  0  0  0  0
 16 12  1  6  0  0  0
 16 14  1  0  0  0  0
 16 15  1  0  0  0  0
 18 17  1  0  0  0  0
 18 20  1  1  0  0  0
 19 20  1  0  0  0  0
 21 13  1  0  0  0  0
 22 21  1  0  0  0  0
 23 21  2  0  0  0  0
 24 22  1  0  0  0  0
 25 27  2  0  0  0  0
 27 26  1  0  0  0  0
 27 24  1  0  0  0  0
 28 30  1  0  0  0  0
 28 29  2  0  0  0  0
 31 30  1  0  0  0  0
 32 36  1  0  0  0  0
 34 35  2  0  0  0  0
 35 31  1  0  0  0  0
 36 33  1  0  0  0  0
 36 35  1  0  0  0  0
M  END
>  <MODEL>
6

>  <REMARK>
 VINA RESULT:      -6.1      2.321      7.513
  Name = 
  9 active torsions:
  status: ('A' for Active; 'I' for Inactive)
    1  A    between atoms: N_6  and  C_30
    2  A    between atoms: C_9  and  C_10
    3  A    between atoms: C_11  and  C_20
    4  A    between atoms: C_11  and  N_27
    5  A    between atoms: C_12  and  C_32
    6  A    between atoms: C_15  and  C_35
    7  A    between atoms: C_24  and  C_29
    8  A    between atoms: C_24  and  C_30
    9  A    between atoms: C_31  and  C_33
                            x       y       z     vdW  Elec       q    Type
                         _______ _______ _______ _____ _____    ______ ____

>  <TORSDO>
F 9

$$$$
=
 OpenBabel11042421063D

 36 39  0  0  1  0  0  0  0  0999 V2000
  160.9100  207.3940  154.7130 C   0  0  0  0  0  0  0  0  0  0  0  0
  161.7210  209.8030  151.3740 C   0  0  0  0  0  3  0  0  0  0  0  0
  162.1870  207.8900  150.0340 N   0  0  0  0  0  0  0  0  0  0  0  0
  161.5440  207.5590  152.3190 C   0  0  0  0  0  0  0  0  0  0  0  0
  162.0910  209.2400  150.1510 C   0  0  0  0  0  0  0  0  0  0  0  0
  161.0990  209.5800  153.7200 N   0  0  0  0  0  0  0  0  0  0  0  0
  160.3850  208.0180  156.7500 N   0  0  0  0  0  0  0  0  0  0  0  0
  160.8480  208.8170  154.7330 C   0  0  0  0  0  0  0  0  0  0  0  0
  161.2510  206.6190  153.4840 C   0  0  0  0  0  2  0  0  0  0  0  0
  161.4550  208.9750  152.4640 C   0  0  0  0  0  0  0  0  0  0  0  0
  160.6400  206.9290  155.8880 N   0  0  0  0  0  0  0  0  0  0  0  0
  161.9070  207.0370  151.0620 C   0  0  0  0  0  0  0  0  0  0  0  0
  160.5040  209.1360  156.0970 C   0  0  0  0  0  0  0  0  0  0  0  0
  161.7940  205.2370  149.4140 N   0  0  0  0  0  2  0  0  0  0  0  0
  160.8980  204.8140  151.6280 C   0  0  0  0  0  2  0  0  0  0  0  0
  161.9660  205.5470  150.8330 C   0  0  2  0  0  3  0  0  0  0  0  0
  159.8700  204.4160  150.6030 C   0  0  0  0  0  2  0  0  0  0  0  0
  160.6320  204.3550  149.2990 C   0  0  2  0  0  3  0  0  0  0  0  0
  161.2970  202.2390  150.3050 N   0  0  0  0  0  1  0  0  0  0  0  0
  161.0840  202.9240  149.0410 C   0  0  0  0  0  2  0  0  0  0  0  0
  160.3100  210.4680  156.6810 C   0  0  0  0  0  0  0  0  0  0  0  0
  159.0260  211.0970  156.6230 N   0  0  0  0  0  2  0  0  0  0  0  0
  161.2820  211.0580  157.2270 O   0  0  0  0  0  0  0  0  0  0  0  0
  158.7550  212.3830  157.2560 C   0  0  0  0  0  2  0  0  0  0  0  0
  159.1350  214.3730  156.0470 O   0  0  0  0  0  0  0  0  0  0  0  0
  157.1960  213.2300  155.3720 C   0  0  0  0  0  1  0  0  0  0  0  0
  158.4100  213.4050  156.2180 C   0  0  0  0  0  0  0  0  0  0  0  0
  162.0460  211.3320  148.9540 N   0  0  0  0  0  0  0  0  0  0  0  0
  162.3330  210.0710  148.9690 C   0  0  0  0  0  3  0  0  0  0  0  0
  162.2740  212.1390  147.7620 C   0  0  0  0  0  2  0  0  0  0  0  0
  160.9540  212.6460  147.1880 C   0  0  0  0  0  2  0  0  0  0  0  0
  158.1330  213.9400  149.5160 C   0  0  0  0  0  1  0  0  0  0  0  0
  157.9870  212.6140  147.4010 C   0  0  0  0  0  1  0  0  0  0  0  0
  160.8600  214.3150  148.8810 O   0  0  0  0  0  0  0  0  0  0  0  0
  160.2150  213.4750  148.1970 C   0  0  0  0  0  0  0  0  0  0  0  0
  158.7960  213.3400  148.3690 N   0  0  0  0  0  0  0  0  0  0  0  0
  1  8  1  0  0  0  0
  1 11  2  0  0  0  0
  2 10  1  0  0  0  0
  3  5  1  0  0  0  0
  3 12  2  0  0  0  0
  4 10  2  0  0  0  0
  4  9  1  0  0  0  0
  5  2  2  0  0  0  0
  6  8  2  0  0  0  0
  8 13  1  0  0  0  0
  9  1  1  0  0  0  0
 10  6  1  0  0  0  0
 11  7  1  0  0  0  0
 12  4  1  0  0  0  0
 13 21  1  0  0  0  0
 13  7  2  0  0  0  0
 14 16  1  0  0  0  0
 16 12  1  6  0  0  0
 16 15  1  0  0  0  0
 17 15  1  0  0  0  0
 18 20  1  1  0  0  0
 18 14  1  0  0  0  0
 18 17  1  0  0  0  0
 20 19  1  0  0  0  0
 21 23  2  0  0  0  0
 22 21  1  0  0  0  0
 22 24  1  0  0  0  0
 25 27  2  0  0  0  0
 26 27  1  0  0  0  0
 27 24  1  0  0  0  0
 28 29  2  0  0  0  0
 29  5  1  0  0  0  0
 30 28  1  0  0  0  0
 31 30  1  0  0  0  0
 31 35  1  0  0  0  0
 33 36  1  0  0  0  0
 35 36  1  0  0  0  0
 35 34  2  0  0  0  0
 36 32  1  0  0  0  0
M  END
>  <MODEL>
7

>  <REMARK>
 VINA RESULT:      -5.5      3.205      7.322
  Name = 
  9 active torsions:
  status: ('A' for Active; 'I' for Inactive)
    1  A    between atoms: N_6  and  C_30
    2  A    between atoms: C_9  and  C_10
    3  A    between atoms: C_11  and  C_20
    4  A    between atoms: C_11  and  N_27
    5  A    between atoms: C_12  and  C_32
    6  A    between atoms: C_15  and  C_35
    7  A    between atoms: C_24  and  C_29
    8  A    between atoms: C_24  and  C_30
    9  A    between atoms: C_31  and  C_33
                            x       y       z     vdW  Elec       q    Type
                         _______ _______ _______ _____ _____    ______ ____

>  <TORSDO>
F 9

$$$$
