=
 OpenBabel11042422523D

 29 31  0  0  1  0  0  0  0  0999 V2000
  161.3950  207.5120  151.8620 C   0  0  1  0  0  3  0  0  0  0  0  0
  161.3040  208.2000  153.2410 C   0  0  1  0  0  3  0  0  0  0  0  0
  160.2900  211.4260  154.7420 C   0  0  0  0  0  1  0  0  0  0  0  0
  160.2580  209.9860  154.5610 N   0  0  0  0  0  0  0  0  0  0  0  0
  160.3800  209.4260  153.2170 C   0  0  0  0  0  2  0  0  0  0  0  0
  160.8550  207.2320  154.3130 C   0  0  0  0  0  3  0  0  0  0  0  0
  159.7930  209.5270  156.8140 O   0  0  0  0  0  0  0  0  0  0  0  0
  160.1130  209.0950  155.6750 C   0  0  0  0  0  0  0  0  0  0  0  0
  160.3370  207.6570  155.4670 C   0  0  0  0  0  3  0  0  0  0  0  0
  162.1890  208.2930  150.8060 C   0  0  2  0  0  3  0  0  0  0  0  0
  162.5890  209.5430  151.2910 O   0  0  0  0  0  1  0  0  0  0  0  0
  161.3850  208.4470  149.5220 C   0  0  0  0  0  2  0  0  0  0  0  0
  161.8190  207.4530  148.4950 C   0  0  0  0  0  0  0  0  0  0  0  0
  162.9840  207.4170  148.1270 O   0  0  0  0  0  0  0  0  0  0  0  0
  160.8300  206.4780  147.9500 C   0  0  0  0  0  2  0  0  0  0  0  0
  161.1600  206.1510  146.5040 C   0  0  0  0  0  2  0  0  0  0  0  0
  160.4530  202.1340  146.6230 O   0  0  0  0  0  0  0  0  0  0  0  0
  161.4840  203.9930  147.7180 C   0  0  0  0  0  2  0  0  0  0  0  0
  161.0530  203.9950  145.2390 C   0  0  0  0  0  0  0  0  0  0  0  0
  161.4890  202.4800  147.5090 C   0  0  0  0  0  2  0  0  0  0  0  0
  160.7910  204.5680  144.1920 O   0  0  0  0  0  0  0  0  0  0  0  0
  160.8800  202.5030  145.3350 C   0  0  0  0  0  2  0  0  0  0  0  0
  161.6980  204.7330  146.3880 C   0  0  1  0  0  3  0  0  0  0  0  0
  161.9140  206.0730  151.9540 C   0  0  0  0  0  2  0  0  0  0  0  0
  160.9790  205.0760  151.2850 C   0  0  0  0  0  2  0  0  0  0  0  0
  161.1930  201.3780  150.6930 C   0  0  0  0  0  1  0  0  0  0  0  0
  160.5140  202.6910  151.0200 C   0  0  2  0  0  3  0  0  0  0  0  0
  161.5210  203.6750  151.4670 C   0  0  2  0  0  3  0  0  0  0  0  0
  160.7070  202.9830  152.3810 O   0  0  0  0  0  0  0  0  0  0  0  0
  1 24  1  1  0  0  0
  2  1  1  6  0  0  0
  2  6  1  0  0  0  0
  4  3  1  0  0  0  0
  4  8  1  0  0  0  0
  5  2  1  0  0  0  0
  5  4  1  0  0  0  0
  6  9  2  0  0  0  0
  8  7  2  0  0  0  0
  9  8  1  0  0  0  0
 10 11  1  1  0  0  0
 10  1  1  0  0  0  0
 12 10  1  0  0  0  0
 13 12  1  0  0  0  0
 14 13  2  0  0  0  0
 15 13  1  0  0  0  0
 16 15  1  0  0  0  0
 17 20  1  0  0  0  0
 19 22  1  0  0  0  0
 19 23  1  0  0  0  0
 20 18  1  0  0  0  0
 21 19  2  0  0  0  0
 22 17  1  0  0  0  0
 23 16  1  1  0  0  0
 23 18  1  0  0  0  0
 25 24  1  0  0  0  0
 27 26  1  1  0  0  0
 27 28  1  0  0  0  0
 27 29  1  0  0  0  0
 28 25  1  6  0  0  0
 28 29  1  0  0  0  0
M  END
>  <MODEL>
1

>  <REMARK>
 VINA RESULT:      -7.7      0.000      0.000
  Name = 
  10 active torsions:
  status: ('A' for Active; 'I' for Inactive)
    1  A    between atoms: C_2  and  C_9
    2  A    between atoms: C_8  and  C_14
    3  A    between atoms: C_8  and  C_16
    4  A    between atoms: C_9  and  C_11
    5  A    between atoms: C_9  and  C_28
    6  A    between atoms: C_11  and  C_25
    7  A    between atoms: C_14  and  C_29
    8  A    between atoms: C_16  and  C_25
    9  A    between atoms: C_20  and  C_27
   10  A    between atoms: C_27  and  C_28
                            x       y       z     vdW  Elec       q    Type
                         _______ _______ _______ _____ _____    ______ ____

>  <TORSDO>
F 10

$$$$
=
 OpenBabel11042422523D

 29 31  0  0  1  0  0  0  0  0999 V2000
  161.6550  204.9740  149.9640 C   0  0  1  0  0  3  0  0  0  0  0  0
  161.0730  204.0870  148.8440 C   0  0  1  0  0  3  0  0  0  0  0  0
  161.2420  203.6760  145.1700 C   0  0  0  0  0  1  0  0  0  0  0  0
  161.3550  203.2490  146.5540 N   0  0  0  0  0  0  0  0  0  0  0  0
  161.8940  204.1710  147.5500 C   0  0  0  0  0  2  0  0  0  0  0  0
  160.9490  202.6470  149.2880 C   0  0  0  0  0  3  0  0  0  0  0  0
  160.6780  201.0450  146.1230 O   0  0  0  0  0  0  0  0  0  0  0  0
  160.9460  201.9390  146.9700 C   0  0  0  0  0  0  0  0  0  0  0  0
  160.8480  201.6490  148.4060 C   0  0  0  0  0  3  0  0  0  0  0  0
  161.1600  206.4280  149.9550 C   0  0  2  0  0  3  0  0  0  0  0  0
  160.2100  206.6360  148.9510 O   0  0  0  0  0  1  0  0  0  0  0  0
  162.3230  207.4000  149.8050 C   0  0  0  0  0  2  0  0  0  0  0  0
  161.8940  208.7990  150.1020 C   0  0  0  0  0  0  0  0  0  0  0  0
  162.1110  209.6930  149.2970 O   0  0  0  0  0  0  0  0  0  0  0  0
  161.1640  209.0920  151.3700 C   0  0  0  0  0  2  0  0  0  0  0  0
  162.0210  209.9540  152.2800 C   0  0  0  0  0  2  0  0  0  0  0  0
  159.0520  210.5560  155.0150 O   0  0  0  0  0  0  0  0  0  0  0  0
  159.6750  210.6960  152.7110 C   0  0  0  0  0  2  0  0  0  0  0  0
  161.3900  210.7990  154.5500 C   0  0  0  0  0  0  0  0  0  0  0  0
  158.7600  211.2250  153.8140 C   0  0  0  0  0  2  0  0  0  0  0  0
  162.5090  210.5850  154.9910 O   0  0  0  0  0  0  0  0  0  0  0  0
  160.2590  211.0940  155.4970 C   0  0  0  0  0  2  0  0  0  0  0  0
  161.1520  210.9280  153.0630 C   0  0  1  0  0  3  0  0  0  0  0  0
  161.4710  204.3630  151.3570 C   0  0  0  0  0  2  0  0  0  0  0  0
  160.5070  205.1660  152.2190 C   0  0  0  0  0  2  0  0  0  0  0  0
  161.0560  207.1180  155.3740 C   0  0  0  0  0  1  0  0  0  0  0  0
  160.8720  206.9160  153.8850 C   0  0  2  0  0  3  0  0  0  0  0  0
  161.1730  205.5140  153.5320 C   0  0  2  0  0  3  0  0  0  0  0  0
  162.1030  206.5460  153.3160 O   0  0  0  0  0  0  0  0  0  0  0  0
  1 24  1  1  0  0  0
  2  6  1  0  0  0  0
  2  1  1  1  0  0  0
  3  4  1  0  0  0  0
  4  8  1  0  0  0  0
  4  5  1  0  0  0  0
  5  2  1  0  0  0  0
  7  8  2  0  0  0  0
  8  9  1  0  0  0  0
  9  6  2  0  0  0  0
 10 11  1  6  0  0  0
 10  1  1  0  0  0  0
 12 10  1  0  0  0  0
 12 13  1  0  0  0  0
 13 15  1  0  0  0  0
 14 13  2  0  0  0  0
 15 16  1  0  0  0  0
 17 22  1  0  0  0  0
 18 23  1  0  0  0  0
 18 20  1  0  0  0  0
 19 21  2  0  0  0  0
 19 22  1  0  0  0  0
 20 17  1  0  0  0  0
 23 16  1  6  0  0  0
 23 19  1  0  0  0  0
 24 25  1  0  0  0  0
 27 26  1  1  0  0  0
 28 25  1  6  0  0  0
 28 27  1  0  0  0  0
 29 28  1  0  0  0  0
 29 27  1  0  0  0  0
M  END
>  <MODEL>
2

>  <REMARK>
 VINA RESULT:      -7.6      2.640      8.144
  Name = 
  10 active torsions:
  status: ('A' for Active; 'I' for Inactive)
    1  A    between atoms: C_2  and  C_9
    2  A    between atoms: C_8  and  C_14
    3  A    between atoms: C_8  and  C_16
    4  A    between atoms: C_9  and  C_11
    5  A    between atoms: C_9  and  C_28
    6  A    between atoms: C_11  and  C_25
    7  A    between atoms: C_14  and  C_29
    8  A    between atoms: C_16  and  C_25
    9  A    between atoms: C_20  and  C_27
   10  A    between atoms: C_27  and  C_28
                            x       y       z     vdW  Elec       q    Type
                         _______ _______ _______ _____ _____    ______ ____

>  <TORSDO>
F 10

$$$$
=
 OpenBabel11042422523D

 29 31  0  0  1  0  0  0  0  0999 V2000
  162.0100  208.2890  150.0340 C   0  0  1  0  0  3  0  0  0  0  0  0
  161.2890  207.7760  151.2980 C   0  0  1  0  0  3  0  0  0  0  0  0
  161.1110  204.7650  153.4410 C   0  0  0  0  0  1  0  0  0  0  0  0
  161.3270  206.1730  153.1560 N   0  0  0  0  0  0  0  0  0  0  0  0
  161.9960  206.5620  151.9180 C   0  0  0  0  0  2  0  0  0  0  0  0
  161.1370  208.8720  152.3300 C   0  0  0  0  0  3  0  0  0  0  0  0
  160.5100  206.9080  155.2290 O   0  0  0  0  0  0  0  0  0  0  0  0
  160.8940  207.1950  154.0640 C   0  0  0  0  0  0  0  0  0  0  0  0
  160.9100  208.5940  153.6160 C   0  0  0  0  0  3  0  0  0  0  0  0
  161.4280  207.7760  148.7090 C   0  0  2  0  0  3  0  0  0  0  0  0
  160.3550  206.9060  148.9280 O   0  0  0  0  0  1  0  0  0  0  0  0
  162.5020  207.1050  147.8640 C   0  0  0  0  0  2  0  0  0  0  0  0
  161.8920  206.2400  146.8100 C   0  0  0  0  0  0  0  0  0  0  0  0
  160.9990  206.6750  146.0970 O   0  0  0  0  0  0  0  0  0  0  0  0
  162.4070  204.8550  146.6060 C   0  0  0  0  0  2  0  0  0  0  0  0
  161.3030  203.8440  146.8630 C   0  0  0  0  0  2  0  0  0  0  0  0
  159.9540  201.7010  150.0630 O   0  0  0  0  0  0  0  0  0  0  0  0
  161.0440  203.7030  149.3430 C   0  0  0  0  0  2  0  0  0  0  0  0
  161.0930  201.6030  147.9570 C   0  0  0  0  0  0  0  0  0  0  0  0
  160.8460  202.7030  150.4810 C   0  0  0  0  0  2  0  0  0  0  0  0
  161.1260  201.0230  146.8830 O   0  0  0  0  0  0  0  0  0  0  0  0
  160.6680  200.8570  149.1930 C   0  0  0  0  0  2  0  0  0  0  0  0
  161.6200  203.0120  148.0970 C   0  0  1  0  0  3  0  0  0  0  0  0
  162.1300  209.8160  150.0010 C   0  0  0  0  0  2  0  0  0  0  0  0
  162.0420  210.3740  148.5880 C   0  0  0  0  0  2  0  0  0  0  0  0
  160.9560  213.8510  147.6950 C   0  0  0  0  0  1  0  0  0  0  0  0
  161.4150  212.4330  147.4300 C   0  0  2  0  0  3  0  0  0  0  0  0
  162.0630  211.8860  148.6390 C   0  0  2  0  0  3  0  0  0  0  0  0
  162.8140  212.3720  147.5540 O   0  0  0  0  0  0  0  0  0  0  0  0
  1 24  1  6  0  0  0
  2  1  1  6  0  0  0
  2  5  1  0  0  0  0
  2  6  1  0  0  0  0
  4  3  1  0  0  0  0
  4  8  1  0  0  0  0
  5  4  1  0  0  0  0
  6  9  2  0  0  0  0
  8  7  2  0  0  0  0
  9  8  1  0  0  0  0
 10 11  1  1  0  0  0
 10  1  1  0  0  0  0
 12 10  1  0  0  0  0
 13 12  1  0  0  0  0
 14 13  2  0  0  0  0
 15 13  1  0  0  0  0
 15 16  1  0  0  0  0
 17 20  1  0  0  0  0
 18 20  1  0  0  0  0
 19 23  1  0  0  0  0
 19 22  1  0  0  0  0
 21 19  2  0  0  0  0
 22 17  1  0  0  0  0
 23 16  1  6  0  0  0
 23 18  1  0  0  0  0
 25 24  1  0  0  0  0
 27 29  1  0  0  0  0
 27 26  1  1  0  0  0
 27 28  1  0  0  0  0
 28 25  1  6  0  0  0
 29 28  1  0  0  0  0
M  END
>  <MODEL>
3

>  <REMARK>
 VINA RESULT:      -7.6      2.403      5.144
  Name = 
  10 active torsions:
  status: ('A' for Active; 'I' for Inactive)
    1  A    between atoms: C_2  and  C_9
    2  A    between atoms: C_8  and  C_14
    3  A    between atoms: C_8  and  C_16
    4  A    between atoms: C_9  and  C_11
    5  A    between atoms: C_9  and  C_28
    6  A    between atoms: C_11  and  C_25
    7  A    between atoms: C_14  and  C_29
    8  A    between atoms: C_16  and  C_25
    9  A    between atoms: C_20  and  C_27
   10  A    between atoms: C_27  and  C_28
                            x       y       z     vdW  Elec       q    Type
                         _______ _______ _______ _____ _____    ______ ____

>  <TORSDO>
F 10

$$$$
=
 OpenBabel11042422523D

 29 31  0  0  1  0  0  0  0  0999 V2000
  161.3330  208.4300  153.0970 C   0  0  1  0  0  3  0  0  0  0  0  0
  160.9190  209.3980  154.2250 C   0  0  1  0  0  3  0  0  0  0  0  0
  162.3840  211.1710  157.1240 C   0  0  0  0  0  1  0  0  0  0  0  0
  161.6780  211.0650  155.8590 N   0  0  0  0  0  0  0  0  0  0  0  0
  162.1280  210.0970  154.8620 C   0  0  0  0  0  2  0  0  0  0  0  0
  159.9230  210.4250  153.7340 C   0  0  0  0  0  3  0  0  0  0  0  0
  160.2490  212.8740  156.2940 O   0  0  0  0  0  0  0  0  0  0  0  0
  160.5420  211.8890  155.5650 C   0  0  0  0  0  0  0  0  0  0  0  0
  159.7210  211.5710  154.3890 C   0  0  0  0  0  3  0  0  0  0  0  0
  160.7790  207.0050  153.2380 C   0  0  2  0  0  3  0  0  0  0  0  0
  160.4290  206.7230  154.5630 O   0  0  0  0  0  1  0  0  0  0  0  0
  161.7760  205.9780  152.7150 C   0  0  0  0  0  2  0  0  0  0  0  0
  161.0720  204.8130  152.1000 C   0  0  0  0  0  0  0  0  0  0  0  0
  160.8300  203.8180  152.7670 O   0  0  0  0  0  0  0  0  0  0  0  0
  160.6310  204.8880  150.6760 C   0  0  0  0  0  2  0  0  0  0  0  0
  161.5800  204.0970  149.7930 C   0  0  0  0  0  2  0  0  0  0  0  0
  161.6120  200.9510  147.1930 O   0  0  0  0  0  0  0  0  0  0  0  0
  161.2720  203.3040  147.4450 C   0  0  0  0  0  2  0  0  0  0  0  0
  160.9500  201.7120  149.3670 C   0  0  0  0  0  0  0  0  0  0  0  0
  160.9550  202.0560  146.6240 C   0  0  0  0  0  2  0  0  0  0  0  0
  160.9860  201.4410  150.5570 O   0  0  0  0  0  0  0  0  0  0  0  0
  160.8940  200.6030  148.3510 C   0  0  0  0  0  2  0  0  0  0  0  0
  160.8040  203.1410  148.8990 C   0  0  1  0  0  3  0  0  0  0  0  0
  161.0190  208.9810  151.7020 C   0  0  0  0  0  2  0  0  0  0  0  0
  162.1440  208.7220  150.7100 C   0  0  0  0  0  2  0  0  0  0  0  0
  162.1910  206.7720  147.5060 C   0  0  0  0  0  1  0  0  0  0  0  0
  162.6670  207.8040  148.5060 C   0  0  2  0  0  3  0  0  0  0  0  0
  161.5700  208.1370  149.4370 C   0  0  2  0  0  3  0  0  0  0  0  0
  161.9020  208.9750  148.3570 O   0  0  0  0  0  0  0  0  0  0  0  0
  1 24  1  6  0  0  0
  1 10  1  0  0  0  0
  2  1  1  6  0  0  0
  2  5  1  0  0  0  0
  4  3  1  0  0  0  0
  5  4  1  0  0  0  0
  6  2  1  0  0  0  0
  6  9  2  0  0  0  0
  8  4  1  0  0  0  0
  8  7  2  0  0  0  0
  9  8  1  0  0  0  0
 10 11  1  1  0  0  0
 12 10  1  0  0  0  0
 13 12  1  0  0  0  0
 13 14  2  0  0  0  0
 15 13  1  0  0  0  0
 16 15  1  0  0  0  0
 17 22  1  0  0  0  0
 18 23  1  0  0  0  0
 19 21  2  0  0  0  0
 20 17  1  0  0  0  0
 20 18  1  0  0  0  0
 22 19  1  0  0  0  0
 23 19  1  0  0  0  0
 23 16  1  1  0  0  0
 25 24  1  0  0  0  0
 27 26  1  6  0  0  0
 27 28  1  0  0  0  0
 28 25  1  1  0  0  0
 29 27  1  0  0  0  0
 29 28  1  0  0  0  0
M  END
>  <MODEL>
4

>  <REMARK>
 VINA RESULT:      -7.2      1.819      4.099
  Name = 
  10 active torsions:
  status: ('A' for Active; 'I' for Inactive)
    1  A    between atoms: C_2  and  C_9
    2  A    between atoms: C_8  and  C_14
    3  A    between atoms: C_8  and  C_16
    4  A    between atoms: C_9  and  C_11
    5  A    between atoms: C_9  and  C_28
    6  A    between atoms: C_11  and  C_25
    7  A    between atoms: C_14  and  C_29
    8  A    between atoms: C_16  and  C_25
    9  A    between atoms: C_20  and  C_27
   10  A    between atoms: C_27  and  C_28
                            x       y       z     vdW  Elec       q    Type
                         _______ _______ _______ _____ _____    ______ ____

>  <TORSDO>
F 10

$$$$
=
 OpenBabel11042422523D

 29 31  0  0  1  0  0  0  0  0999 V2000
  161.1360  206.7280  152.7910 C   0  0  1  0  0  3  0  0  0  0  0  0
  161.7750  207.8160  151.9020 C   0  0  1  0  0  3  0  0  0  0  0  0
  162.2900  208.6170  148.3260 C   0  0  0  0  0  1  0  0  0  0  0  0
  161.8260  208.8590  149.6810 N   0  0  0  0  0  0  0  0  0  0  0  0
  161.2600  207.7590  150.4560 C   0  0  0  0  0  2  0  0  0  0  0  0
  161.5580  209.1980  152.4770 C   0  0  0  0  0  3  0  0  0  0  0  0
  162.1900  211.1750  149.5880 O   0  0  0  0  0  0  0  0  0  0  0  0
  161.9120  210.1590  150.2800 C   0  0  0  0  0  0  0  0  0  0  0  0
  161.6650  210.2940  151.7220 C   0  0  0  0  0  3  0  0  0  0  0  0
  161.4940  205.2870  152.4010 C   0  0  2  0  0  3  0  0  0  0  0  0
  162.7620  205.2180  151.8140 O   0  0  0  0  0  1  0  0  0  0  0  0
  160.4400  204.6940  151.4770 C   0  0  0  0  0  2  0  0  0  0  0  0
  160.7760  203.2840  151.1150 C   0  0  0  0  0  0  0  0  0  0  0  0
  161.0260  202.4670  151.9890 O   0  0  0  0  0  0  0  0  0  0  0  0
  160.7650  202.8690  149.6820 C   0  0  0  0  0  2  0  0  0  0  0  0
  161.2190  204.0200  148.8010 C   0  0  0  0  0  2  0  0  0  0  0  0
  160.3630  203.1900  144.8980 O   0  0  0  0  0  0  0  0  0  0  0  0
  160.8550  202.2760  147.0520 C   0  0  0  0  0  2  0  0  0  0  0  0
  161.6130  204.5830  146.3950 C   0  0  0  0  0  0  0  0  0  0  0  0
  160.8890  202.0560  145.5410 C   0  0  0  0  0  2  0  0  0  0  0  0
  161.8860  205.7430  146.6630 O   0  0  0  0  0  0  0  0  0  0  0  0
  161.3500  204.1910  144.9660 C   0  0  0  0  0  2  0  0  0  0  0  0
  161.6880  203.5040  147.4490 C   0  0  1  0  0  3  0  0  0  0  0  0
  161.4050  206.9530  154.2830 C   0  0  0  0  0  2  0  0  0  0  0  0
  160.1220  207.1150  155.0850 C   0  0  0  0  0  2  0  0  0  0  0  0
  159.7850  210.2450  157.1250 C   0  0  0  0  0  1  0  0  0  0  0  0
  160.0530  209.4250  155.8810 C   0  0  2  0  0  3  0  0  0  0  0  0
  160.3740  208.0340  156.2610 C   0  0  2  0  0  3  0  0  0  0  0  0
  161.3790  208.9560  155.9160 O   0  0  0  0  0  0  0  0  0  0  0  0
  1 24  1  1  0  0  0
  2  6  1  0  0  0  0
  2  1  1  1  0  0  0
  3  4  1  0  0  0  0
  4  8  1  0  0  0  0
  4  5  1  0  0  0  0
  5  2  1  0  0  0  0
  7  8  2  0  0  0  0
  8  9  1  0  0  0  0
  9  6  2  0  0  0  0
 10 11  1  6  0  0  0
 10  1  1  0  0  0  0
 12 10  1  0  0  0  0
 13 12  1  0  0  0  0
 13 14  2  0  0  0  0
 15 13  1  0  0  0  0
 16 15  1  0  0  0  0
 17 22  1  0  0  0  0
 17 20  1  0  0  0  0
 18 23  1  0  0  0  0
 19 21  2  0  0  0  0
 19 23  1  0  0  0  0
 20 18  1  0  0  0  0
 22 19  1  0  0  0  0
 23 16  1  1  0  0  0
 24 25  1  0  0  0  0
 27 29  1  0  0  0  0
 27 28  1  0  0  0  0
 27 26  1  1  0  0  0
 28 25  1  6  0  0  0
 29 28  1  0  0  0  0
M  END
>  <MODEL>
5

>  <REMARK>
 VINA RESULT:      -7.2      1.684      4.920
  Name = 
  10 active torsions:
  status: ('A' for Active; 'I' for Inactive)
    1  A    between atoms: C_2  and  C_9
    2  A    between atoms: C_8  and  C_14
    3  A    between atoms: C_8  and  C_16
    4  A    between atoms: C_9  and  C_11
    5  A    between atoms: C_9  and  C_28
    6  A    between atoms: C_11  and  C_25
    7  A    between atoms: C_14  and  C_29
    8  A    between atoms: C_16  and  C_25
    9  A    between atoms: C_20  and  C_27
   10  A    between atoms: C_27  and  C_28
                            x       y       z     vdW  Elec       q    Type
                         _______ _______ _______ _____ _____    ______ ____

>  <TORSDO>
F 10

$$$$
=
 OpenBabel11042422523D

 29 31  0  0  1  0  0  0  0  0999 V2000
  161.2980  205.3830  149.9110 C   0  0  1  0  0  3  0  0  0  0  0  0
  160.8440  204.2150  149.0100 C   0  0  1  0  0  3  0  0  0  0  0  0
  161.2060  203.0080  145.5310 C   0  0  0  0  0  1  0  0  0  0  0  0
  161.2970  202.9160  146.9770 N   0  0  0  0  0  0  0  0  0  0  0  0
  161.7100  204.0850  147.7490 C   0  0  0  0  0  2  0  0  0  0  0  0
  160.8280  202.9060  149.7670 C   0  0  0  0  0  3  0  0  0  0  0  0
  160.8340  200.6170  147.0440 O   0  0  0  0  0  0  0  0  0  0  0  0
  160.9860  201.7000  147.6710 C   0  0  0  0  0  0  0  0  0  0  0  0
  160.8530  201.7310  149.1330 C   0  0  0  0  0  3  0  0  0  0  0  0
  160.9190  206.7780  149.3960 C   0  0  2  0  0  3  0  0  0  0  0  0
  160.0040  206.6990  148.3410 O   0  0  0  0  0  1  0  0  0  0  0  0
  162.1560  207.5610  148.9780 C   0  0  0  0  0  2  0  0  0  0  0  0
  162.1490  208.9320  149.5700 C   0  0  0  0  0  0  0  0  0  0  0  0
  162.3150  209.0850  150.7710 O   0  0  0  0  0  0  0  0  0  0  0  0
  161.9760  210.1170  148.6800 C   0  0  0  0  0  2  0  0  0  0  0  0
  161.8610  211.3830  149.5110 C   0  0  0  0  0  2  0  0  0  0  0  0
  161.2130  213.2650  145.9480 O   0  0  0  0  0  0  0  0  0  0  0  0
  162.8310  212.2260  147.3690 C   0  0  0  0  0  2  0  0  0  0  0  0
  160.7300  213.2550  148.2950 C   0  0  0  0  0  0  0  0  0  0  0  0
  162.5860  213.2330  146.2470 C   0  0  0  0  0  2  0  0  0  0  0  0
  159.8240  213.3010  149.1130 O   0  0  0  0  0  0  0  0  0  0  0  0
  160.5870  213.9810  146.9840 C   0  0  0  0  0  2  0  0  0  0  0  0
  162.0540  212.6140  148.6360 C   0  0  1  0  0  3  0  0  0  0  0  0
  160.8440  205.2170  151.3650 C   0  0  0  0  0  2  0  0  0  0  0  0
  161.6970  206.0220  152.3340 C   0  0  0  0  0  2  0  0  0  0  0  0
  160.9890  208.9950  154.5090 C   0  0  0  0  0  1  0  0  0  0  0  0
  161.5810  207.6480  154.1560 C   0  0  2  0  0  3  0  0  0  0  0  0
  160.8370  207.0570  153.0260 C   0  0  2  0  0  3  0  0  0  0  0  0
  160.6080  206.6520  154.3530 O   0  0  0  0  0  0  0  0  0  0  0  0
  1 24  1  1  0  0  0
  2  6  1  0  0  0  0
  2  1  1  1  0  0  0
  3  4  1  0  0  0  0
  4  8  1  0  0  0  0
  4  5  1  0  0  0  0
  5  2  1  0  0  0  0
  7  8  2  0  0  0  0
  8  9  1  0  0  0  0
  9  6  2  0  0  0  0
 10 11  1  6  0  0  0
 10  1  1  0  0  0  0
 12 10  1  0  0  0  0
 12 13  1  0  0  0  0
 13 14  2  0  0  0  0
 15 16  1  0  0  0  0
 15 13  1  0  0  0  0
 17 20  1  0  0  0  0
 17 22  1  0  0  0  0
 18 23  1  0  0  0  0
 19 23  1  0  0  0  0
 19 21  2  0  0  0  0
 20 18  1  0  0  0  0
 22 19  1  0  0  0  0
 23 16  1  1  0  0  0
 24 25  1  0  0  0  0
 27 29  1  0  0  0  0
 27 26  1  1  0  0  0
 28 25  1  6  0  0  0
 28 27  1  0  0  0  0
 28 29  1  0  0  0  0
M  END
>  <MODEL>
6

>  <REMARK>
 VINA RESULT:      -7.2      3.585      7.725
  Name = 
  10 active torsions:
  status: ('A' for Active; 'I' for Inactive)
    1  A    between atoms: C_2  and  C_9
    2  A    between atoms: C_8  and  C_14
    3  A    between atoms: C_8  and  C_16
    4  A    between atoms: C_9  and  C_11
    5  A    between atoms: C_9  and  C_28
    6  A    between atoms: C_11  and  C_25
    7  A    between atoms: C_14  and  C_29
    8  A    between atoms: C_16  and  C_25
    9  A    between atoms: C_20  and  C_27
   10  A    between atoms: C_27  and  C_28
                            x       y       z     vdW  Elec       q    Type
                         _______ _______ _______ _____ _____    ______ ____

>  <TORSDO>
F 10

$$$$
=
 OpenBabel11042422523D

 29 31  0  0  1  0  0  0  0  0999 V2000
  161.5710  206.3590  149.0480 C   0  0  1  0  0  3  0  0  0  0  0  0
  161.7640  206.2360  147.5220 C   0  0  1  0  0  3  0  0  0  0  0  0
  163.4790  204.0930  145.0400 C   0  0  0  0  0  1  0  0  0  0  0  0
  162.3390  204.7500  145.6540 N   0  0  0  0  0  0  0  0  0  0  0  0
  162.2580  204.8420  147.1090 C   0  0  0  0  0  2  0  0  0  0  0  0
  160.4940  206.5790  146.7750 C   0  0  0  0  0  3  0  0  0  0  0  0
  161.2030  205.0790  143.6280 O   0  0  0  0  0  0  0  0  0  0  0  0
  161.2860  205.3170  144.8620 C   0  0  0  0  0  0  0  0  0  0  0  0
  160.2940  206.1810  145.5160 C   0  0  0  0  0  3  0  0  0  0  0  0
  161.7240  207.7830  149.6020 C   0  0  2  0  0  3  0  0  0  0  0  0
  162.3280  208.6310  148.6680 O   0  0  0  0  0  1  0  0  0  0  0  0
  162.5060  207.7790  150.9090 C   0  0  0  0  0  2  0  0  0  0  0  0
  161.9560  208.7850  151.8660 C   0  0  0  0  0  0  0  0  0  0  0  0
  162.2290  209.9690  151.7380 O   0  0  0  0  0  0  0  0  0  0  0  0
  161.0390  208.3390  152.9550 C   0  0  0  0  0  2  0  0  0  0  0  0
  160.3080  209.5330  153.5440 C   0  0  0  0  0  2  0  0  0  0  0  0
  161.9850  208.0730  156.9660 O   0  0  0  0  0  0  0  0  0  0  0  0
  160.0920  208.0050  155.5070 C   0  0  0  0  0  2  0  0  0  0  0  0
  161.5820  210.0280  155.6400 C   0  0  0  0  0  0  0  0  0  0  0  0
  160.6100  207.7830  156.9270 C   0  0  0  0  0  2  0  0  0  0  0  0
  162.1180  211.0050  155.1400 O   0  0  0  0  0  0  0  0  0  0  0  0
  162.1060  209.4740  156.9380 C   0  0  0  0  0  2  0  0  0  0  0  0
  160.3060  209.4600  155.0640 C   0  0  1  0  0  3  0  0  0  0  0  0
  160.2520  205.7460  149.5270 C   0  0  0  0  0  2  0  0  0  0  0  0
  160.4560  204.7300  150.6420 C   0  0  0  0  0  2  0  0  0  0  0  0
  160.8400  201.3400  149.0820 C   0  0  0  0  0  1  0  0  0  0  0  0
  160.3120  202.3570  150.0710 C   0  0  2  0  0  3  0  0  0  0  0  0
  161.2070  203.5320  150.1020 C   0  0  2  0  0  3  0  0  0  0  0  0
  161.2590  202.5370  151.0950 O   0  0  0  0  0  0  0  0  0  0  0  0
  1 24  1  6  0  0  0
  1 10  1  0  0  0  0
  2  1  1  1  0  0  0
  3  4  1  0  0  0  0
  4  5  1  0  0  0  0
  5  2  1  0  0  0  0
  6  2  1  0  0  0  0
  7  8  2  0  0  0  0
  8  9  1  0  0  0  0
  8  4  1  0  0  0  0
  9  6  2  0  0  0  0
 10 11  1  6  0  0  0
 10 12  1  0  0  0  0
 12 13  1  0  0  0  0
 13 15  1  0  0  0  0
 14 13  2  0  0  0  0
 15 16  1  0  0  0  0
 18 20  1  0  0  0  0
 19 22  1  0  0  0  0
 20 17  1  0  0  0  0
 21 19  2  0  0  0  0
 22 17  1  0  0  0  0
 23 16  1  6  0  0  0
 23 18  1  0  0  0  0
 23 19  1  0  0  0  0
 24 25  1  0  0  0  0
 27 26  1  6  0  0  0
 27 28  1  0  0  0  0
 27 29  1  0  0  0  0
 28 25  1  1  0  0  0
 28 29  1  0  0  0  0
M  END
>  <MODEL>
7

>  <REMARK>
 VINA RESULT:      -7.2      2.510      8.203
  Name = 
  10 active torsions:
  status: ('A' for Active; 'I' for Inactive)
    1  A    between atoms: C_2  and  C_9
    2  A    between atoms: C_8  and  C_14
    3  A    between atoms: C_8  and  C_16
    4  A    between atoms: C_9  and  C_11
    5  A    between atoms: C_9  and  C_28
    6  A    between atoms: C_11  and  C_25
    7  A    between atoms: C_14  and  C_29
    8  A    between atoms: C_16  and  C_25
    9  A    between atoms: C_20  and  C_27
   10  A    between atoms: C_27  and  C_28
                            x       y       z     vdW  Elec       q    Type
                         _______ _______ _______ _____ _____    ______ ____

>  <TORSDO>
F 10

$$$$
=
 OpenBabel11042422523D

 29 31  0  0  1  0  0  0  0  0999 V2000
  161.5360  207.8900  149.5490 C   0  0  1  0  0  3  0  0  0  0  0  0
  161.8410  206.5210  148.9050 C   0  0  1  0  0  3  0  0  0  0  0  0
  160.7840  202.9820  149.1250 C   0  0  0  0  0  1  0  0  0  0  0  0
  161.0190  204.2510  148.4600 N   0  0  0  0  0  0  0  0  0  0  0  0
  160.7260  205.4980  149.1620 C   0  0  0  0  0  2  0  0  0  0  0  0
  162.0930  206.6530  147.4190 C   0  0  0  0  0  3  0  0  0  0  0  0
  161.6060  203.2770  146.4080 O   0  0  0  0  0  0  0  0  0  0  0  0
  161.5390  204.3110  147.1250 C   0  0  0  0  0  0  0  0  0  0  0  0
  161.9910  205.6060  146.5980 C   0  0  0  0  0  3  0  0  0  0  0  0
  161.9910  208.0300  151.0090 C   0  0  2  0  0  3  0  0  0  0  0  0
  162.8660  207.0000  151.3690 O   0  0  0  0  0  1  0  0  0  0  0  0
  160.7960  208.0740  151.9510 C   0  0  0  0  0  2  0  0  0  0  0  0
  161.1550  208.7350  153.2420 C   0  0  0  0  0  0  0  0  0  0  0  0
  161.0930  208.1110  154.2910 O   0  0  0  0  0  0  0  0  0  0  0  0
  161.6280  210.1510  153.2370 C   0  0  0  0  0  2  0  0  0  0  0  0
  161.5860  210.7210  154.6430 C   0  0  0  0  0  2  0  0  0  0  0  0
  157.6430  211.4820  153.9140 O   0  0  0  0  0  0  0  0  0  0  0  0
  159.9000  212.1040  153.4260 C   0  0  0  0  0  2  0  0  0  0  0  0
  159.2810  210.9720  155.5870 C   0  0  0  0  0  0  0  0  0  0  0  0
  158.4420  212.5560  153.4830 C   0  0  0  0  0  2  0  0  0  0  0  0
  159.5330  210.2290  156.5230 O   0  0  0  0  0  0  0  0  0  0  0  0
  157.8540  211.3500  155.2990 C   0  0  0  0  0  2  0  0  0  0  0  0
  160.3880  211.6450  154.8090 C   0  0  1  0  0  3  0  0  0  0  0  0
  162.0650  209.0640  148.7180 C   0  0  0  0  0  2  0  0  0  0  0  0
  161.9590  210.3910  149.4560 C   0  0  0  0  0  2  0  0  0  0  0  0
  162.0520  213.9420  148.2530 C   0  0  0  0  0  1  0  0  0  0  0  0
  161.4130  212.6740  148.7770 C   0  0  2  0  0  3  0  0  0  0  0  0
  162.2990  211.5230  148.5110 C   0  0  2  0  0  3  0  0  0  0  0  0
  161.1820  211.7970  147.7020 O   0  0  0  0  0  0  0  0  0  0  0  0
  1 24  1  6  0  0  0
  1 10  1  0  0  0  0
  2  5  1  0  0  0  0
  2  1  1  6  0  0  0
  4  3  1  0  0  0  0
  4  5  1  0  0  0  0
  6  2  1  0  0  0  0
  7  8  2  0  0  0  0
  8  4  1  0  0  0  0
  9  8  1  0  0  0  0
  9  6  2  0  0  0  0
 10 11  1  1  0  0  0
 10 12  1  0  0  0  0
 12 13  1  0  0  0  0
 13 14  2  0  0  0  0
 15 13  1  0  0  0  0
 15 16  1  0  0  0  0
 17 22  1  0  0  0  0
 18 20  1  0  0  0  0
 18 23  1  0  0  0  0
 19 21  2  0  0  0  0
 20 17  1  0  0  0  0
 22 19  1  0  0  0  0
 23 16  1  6  0  0  0
 23 19  1  0  0  0  0
 24 25  1  0  0  0  0
 27 26  1  6  0  0  0
 28 27  1  0  0  0  0
 28 25  1  1  0  0  0
 29 28  1  0  0  0  0
 29 27  1  0  0  0  0
M  END
>  <MODEL>
8

>  <REMARK>
 VINA RESULT:      -7.1      2.802      9.033
  Name = 
  10 active torsions:
  status: ('A' for Active; 'I' for Inactive)
    1  A    between atoms: C_2  and  C_9
    2  A    between atoms: C_8  and  C_14
    3  A    between atoms: C_8  and  C_16
    4  A    between atoms: C_9  and  C_11
    5  A    between atoms: C_9  and  C_28
    6  A    between atoms: C_11  and  C_25
    7  A    between atoms: C_14  and  C_29
    8  A    between atoms: C_16  and  C_25
    9  A    between atoms: C_20  and  C_27
   10  A    between atoms: C_27  and  C_28
                            x       y       z     vdW  Elec       q    Type
                         _______ _______ _______ _____ _____    ______ ____

>  <TORSDO>
F 10

$$$$
=
 OpenBabel11042422523D

 29 31  0  0  1  0  0  0  0  0999 V2000
  161.4870  208.5580  152.4620 C   0  0  1  0  0  3  0  0  0  0  0  0
  160.7320  209.5220  153.4010 C   0  0  1  0  0  3  0  0  0  0  0  0
  161.2640  211.4530  156.5130 C   0  0  0  0  0  1  0  0  0  0  0  0
  160.9290  211.2720  155.1110 N   0  0  0  0  0  0  0  0  0  0  0  0
  161.6840  210.3140  154.3080 C   0  0  0  0  0  2  0  0  0  0  0  0
  159.8470  210.4700  152.6230 C   0  0  0  0  0  3  0  0  0  0  0  0
  159.3350  212.9930  155.0790 O   0  0  0  0  0  0  0  0  0  0  0  0
  159.8680  212.0130  154.4930 C   0  0  0  0  0  0  0  0  0  0  0  0
  159.4110  211.6150  153.1550 C   0  0  0  0  0  3  0  0  0  0  0  0
  161.1710  207.0710  152.6790 C   0  0  2  0  0  3  0  0  0  0  0  0
  161.0660  206.7660  154.0400 O   0  0  0  0  0  1  0  0  0  0  0  0
  162.2150  206.1880  152.0090 C   0  0  0  0  0  2  0  0  0  0  0  0
  161.5690  205.0770  151.2480 C   0  0  0  0  0  0  0  0  0  0  0  0
  161.7640  203.9140  151.5710 O   0  0  0  0  0  0  0  0  0  0  0  0
  160.6530  205.3980  150.1140 C   0  0  0  0  0  2  0  0  0  0  0  0
  161.4550  205.8500  148.9070 C   0  0  0  0  0  2  0  0  0  0  0  0
  161.8530  204.9580  144.9440 O   0  0  0  0  0  0  0  0  0  0  0  0
  160.8530  206.4200  146.5500 C   0  0  0  0  0  2  0  0  0  0  0  0
  161.5330  204.0720  147.1480 C   0  0  0  0  0  0  0  0  0  0  0  0
  160.7600  205.8180  145.1490 C   0  0  0  0  0  2  0  0  0  0  0  0
  161.9420  203.2390  147.9420 O   0  0  0  0  0  0  0  0  0  0  0  0
  161.5880  203.7830  145.6720 C   0  0  0  0  0  2  0  0  0  0  0  0
  160.8300  205.3210  147.6240 C   0  0  1  0  0  3  0  0  0  0  0  0
  161.3190  208.9220  150.9840 C   0  0  0  0  0  2  0  0  0  0  0  0
  162.3730  209.9100  150.5070 C   0  0  0  0  0  2  0  0  0  0  0  0
  162.5860  212.2060  147.5470 C   0  0  0  0  0  1  0  0  0  0  0  0
  162.5380  211.8410  149.0160 C   0  0  2  0  0  3  0  0  0  0  0  0
  161.9540  210.4930  149.1740 C   0  0  2  0  0  3  0  0  0  0  0  0
  161.1970  211.6570  149.4000 O   0  0  0  0  0  0  0  0  0  0  0  0
  1 24  1  6  0  0  0
  1 10  1  0  0  0  0
  2  1  1  6  0  0  0
  2  5  1  0  0  0  0
  4  3  1  0  0  0  0
  5  4  1  0  0  0  0
  6  9  2  0  0  0  0
  6  2  1  0  0  0  0
  8  7  2  0  0  0  0
  8  4  1  0  0  0  0
  9  8  1  0  0  0  0
 10 11  1  1  0  0  0
 12 10  1  0  0  0  0
 13 14  2  0  0  0  0
 13 12  1  0  0  0  0
 15 13  1  0  0  0  0
 16 15  1  0  0  0  0
 17 20  1  0  0  0  0
 17 22  1  0  0  0  0
 18 23  1  0  0  0  0
 19 23  1  0  0  0  0
 19 21  2  0  0  0  0
 20 18  1  0  0  0  0
 22 19  1  0  0  0  0
 23 16  1  1  0  0  0
 25 24  1  0  0  0  0
 27 26  1  6  0  0  0
 27 28  1  0  0  0  0
 27 29  1  0  0  0  0
 28 29  1  0  0  0  0
 28 25  1  1  0  0  0
M  END
>  <MODEL>
9

>  <REMARK>
 VINA RESULT:      -6.8      2.022      4.615
  Name = 
  10 active torsions:
  status: ('A' for Active; 'I' for Inactive)
    1  A    between atoms: C_2  and  C_9
    2  A    between atoms: C_8  and  C_14
    3  A    between atoms: C_8  and  C_16
    4  A    between atoms: C_9  and  C_11
    5  A    between atoms: C_9  and  C_28
    6  A    between atoms: C_11  and  C_25
    7  A    between atoms: C_14  and  C_29
    8  A    between atoms: C_16  and  C_25
    9  A    between atoms: C_20  and  C_27
   10  A    between atoms: C_27  and  C_28
                            x       y       z     vdW  Elec       q    Type
                         _______ _______ _______ _____ _____    ______ ____

>  <TORSDO>
F 10

$$$$
