=
 OpenBabel11042421563D

 39 43  0  0  1  0  0  0  0  0999 V2000
  162.1240  209.6590  148.8710 C   0  0  0  0  0  3  0  0  0  0  0  0
  161.7770  210.5370  151.1540 C   0  0  0  0  0  3  0  0  0  0  0  0
  161.8210  208.2340  149.2920 C   0  0  0  0  0  3  0  0  0  0  0  0
  161.1780  208.8660  152.9500 C   0  0  0  0  0  0  0  0  0  0  0  0
  161.0090  207.5440  152.9090 C   0  0  0  0  0  2  0  0  0  0  0  0
  161.5100  209.3160  151.6080 C   0  0  0  0  0  0  0  0  0  0  0  0
  162.1010  210.7040  149.7200 C   0  0  0  0  0  3  0  0  0  0  0  0
  161.5210  208.1500  150.7640 C   0  0  0  0  0  0  0  0  0  0  0  0
  161.2250  207.0880  151.5170 C   0  0  0  0  0  0  0  0  0  0  0  0
  160.7450  205.3950  149.7500 C   0  0  0  0  0  3  0  0  0  0  0  0
  160.6360  204.0720  149.3110 C   0  0  0  0  0  3  0  0  0  0  0  0
  161.1120  205.6790  151.0740 C   0  0  0  0  0  0  0  0  0  0  0  0
  160.9010  203.0180  150.1910 C   0  0  0  0  0  0  0  0  0  0  0  0
  161.2610  203.2910  151.5140 C   0  0  0  0  0  3  0  0  0  0  0  0
  161.3670  204.6140  151.9510 C   0  0  0  0  0  3  0  0  0  0  0  0
  160.7750  201.6090  149.7300 C   0  0  0  0  0  2  0  0  0  0  0  0
  161.4370  201.4490  148.4460 N   0  0  0  0  0  2  0  0  0  0  0  0
  160.4160  201.6300  147.4260 C   0  0  0  0  0  2  0  0  0  0  0  0
  161.0170  202.2090  146.1490 C   0  0  1  0  0  3  0  0  0  0  0  0
  160.4130  201.6180  145.0360 O   0  0  0  0  0  1  0  0  0  0  0  0
  160.3140  204.1690  144.7330 C   0  0  0  0  0  3  0  0  0  0  0  0
  160.8770  203.7330  146.0960 C   0  0  2  0  0  3  0  0  0  0  0  0
  163.0300  204.3750  147.0060 O   0  0  0  0  0  0  0  0  0  0  0  0
  162.1940  204.3800  146.0640 C   0  0  0  0  0  0  0  0  0  0  0  0
  161.3430  204.9310  144.0050 N   0  0  0  0  0  0  0  0  0  0  0  0
  162.4040  205.0280  144.8770 O   0  0  0  0  0  0  0  0  0  0  0  0
  160.5100  211.3030  155.6740 C   0  0  0  0  0  0  0  0  0  0  0  0
  161.0480  209.7030  154.1530 C   0  0  0  0  0  0  0  0  0  0  0  0
  160.2860  210.9300  154.2960 C   0  0  0  0  0  0  0  0  0  0  0  0
  161.2910  210.4310  156.2240 N   0  0  0  0  0  0  0  0  0  0  0  0
  161.6190  209.4370  155.2840 N   0  0  0  0  0  0  0  0  0  0  0  0
  159.5950  211.5300  153.4290 O   0  0  0  0  0  0  0  0  0  0  0  0
  160.0000  212.5180  156.3770 C   0  0  0  0  0  2  0  0  0  0  0  0
  157.7530  211.6150  156.5620 C   0  0  0  0  0  3  0  0  0  0  0  0
  158.5170  212.6600  156.2100 C   0  0  0  0  0  0  0  0  0  0  0  0
  155.6500  210.7660  155.4890 C   0  0  0  0  0  1  0  0  0  0  0  0
  156.3550  211.5130  156.4710 O   0  0  0  0  0  0  0  0  0  0  0  0
  157.9540  213.9180  155.6860 C   0  0  0  0  0  3  0  0  0  0  0  0
  157.3780  214.0070  154.4920 C   0  0  0  0  0  2  0  0  0  0  0  0
  1  3  2  0  0  0  0
  1  7  1  0  0  0  0
  2  6  1  0  0  0  0
  3  8  1  0  0  0  0
  4 28  1  0  0  0  0
  5  4  1  0  0  0  0
  6  4  2  0  0  0  0
  7  2  2  0  0  0  0
  8  9  2  0  0  0  0
  8  6  1  0  0  0  0
  9  5  1  0  0  0  0
 10 12  1  0  0  0  0
 11 10  2  0  0  0  0
 11 13  1  0  0  0  0
 12  9  1  0  0  0  0
 12 15  2  0  0  0  0
 13 14  2  0  0  0  0
 14 15  1  0  0  0  0
 16 13  1  0  0  0  0
 17 16  1  0  0  0  0
 18 17  1  0  0  0  0
 19 20  1  6  0  0  0
 19 18  1  0  0  0  0
 21 22  1  0  0  0  0
 22 19  1  6  0  0  0
 24 22  1  0  0  0  0
 24 23  2  0  0  0  0
 25 21  2  0  0  0  0
 25 26  1  0  0  0  0
 26 24  1  0  0  0  0
 27 30  2  0  0  0  0
 27 33  1  0  0  0  0
 28 29  1  0  0  0  0
 28 31  2  0  0  0  0
 29 27  1  0  0  0  0
 31 30  1  0  0  0  0
 32 29  2  0  0  0  0
 35 33  1  0  0  0  0
 35 34  2  0  0  0  0
 36 37  1  0  0  0  0
 37 34  1  0  0  0  0
 38 35  1  0  0  0  0
 39 38  2  0  0  0  0
M  END
>  <MODEL>
1

>  <REMARK>
 VINA RESULT:      -8.6      0.000      0.000
  Name = 
  11 active torsions:
  status: ('A' for Active; 'I' for Inactive)
    1  A    between atoms: C_2  and  C_4
    2  A    between atoms: C_2  and  C_35
    3  A    between atoms: C_5  and  C_22
    4  A    between atoms: C_10  and  C_35
    5  A    between atoms: C_11  and  O_30
    6  A    between atoms: C_12  and  C_22
    7  A    between atoms: C_12  and  N_39
    8  A    between atoms: C_13  and  C_38
    9  A    between atoms: C_15  and  C_23
   10  A    between atoms: C_16  and  C_25
   11  A    between atoms: C_23  and  N_39
                            x       y       z     vdW  Elec       q    Type
                         _______ _______ _______ _____ _____    ______ ____

>  <TORSDO>
F 11

$$$$
=
 OpenBabel11042421563D

 39 43  0  0  1  0  0  0  0  0999 V2000
  161.0300  202.1850  150.8470 C   0  0  0  0  0  3  0  0  0  0  0  0
  161.0940  204.2310  152.2310 C   0  0  0  0  0  3  0  0  0  0  0  0
  161.0740  202.9700  149.5500 C   0  0  0  0  0  3  0  0  0  0  0  0
  161.1640  206.4410  151.0120 C   0  0  0  0  0  0  0  0  0  0  0  0
  161.1690  206.7360  149.7110 C   0  0  0  0  0  3  0  0  0  0  0  0
  161.1240  204.9940  151.1420 C   0  0  2  0  0  3  0  0  0  0  0  0
  161.0410  202.7620  152.0640 C   0  0  0  0  0  3  0  0  0  0  0  0
  161.1080  204.4520  149.8080 C   0  0  0  0  0  0  0  0  0  0  0  0
  161.1360  205.4700  148.9450 C   0  0  0  0  0  0  0  0  0  0  0  0
  160.3730  206.2950  146.7190 C   0  0  0  0  0  3  0  0  0  0  0  0
  160.3670  206.2410  145.3220 C   0  0  0  0  0  3  0  0  0  0  0  0
  161.1430  205.3910  147.4660 C   0  0  0  0  0  0  0  0  0  0  0  0
  161.1390  205.2850  144.6570 C   0  0  0  0  0  0  0  0  0  0  0  0
  161.9050  204.3750  145.3910 C   0  0  0  0  0  3  0  0  0  0  0  0
  161.9070  204.4300  146.7870 C   0  0  0  0  0  3  0  0  0  0  0  0
  161.1270  205.2160  143.1700 C   0  0  0  0  0  2  0  0  0  0  0  0
  161.7340  206.4160  142.6160 N   0  0  0  0  0  2  0  0  0  0  0  0
  161.6900  206.2740  141.1700 C   0  0  0  0  0  2  0  0  0  0  0  0
  162.4140  207.4310  140.4870 C   0  0  1  0  0  3  0  0  0  0  0  0
  163.4180  206.9290  139.6540 O   0  0  0  0  0  1  0  0  0  0  0  0
  161.3870  207.8650  138.2290 C   0  0  0  0  0  3  0  0  0  0  0  0
  161.4470  208.3180  139.6970 C   0  0  2  0  0  3  0  0  0  0  0  0
  162.1630  210.4990  140.4750 O   0  0  0  0  0  0  0  0  0  0  0  0
  161.9880  209.6730  139.5400 C   0  0  0  0  0  0  0  0  0  0  0  0
  161.9600  208.9190  137.3730 N   0  0  0  0  0  0  0  0  0  0  0  0
  162.2610  209.9540  138.2290 O   0  0  0  0  0  0  0  0  0  0  0  0
  161.4570  209.2780  153.3950 C   0  0  0  0  0  0  0  0  0  0  0  0
  161.1940  207.4240  152.1070 C   0  0  0  0  0  0  0  0  0  0  0  0
  161.6800  208.7910  152.0520 C   0  0  0  0  0  0  0  0  0  0  0  0
  160.9400  208.3290  154.1050 N   0  0  0  0  0  0  0  0  0  0  0  0
  160.7720  207.1830  153.3060 N   0  0  0  0  0  0  0  0  0  0  0  0
  162.1760  209.4080  151.0720 O   0  0  0  0  0  0  0  0  0  0  0  0
  161.8070  210.6230  153.9390 C   0  0  0  0  0  2  0  0  0  0  0  0
  159.9200  211.8500  153.0280 C   0  0  0  0  0  3  0  0  0  0  0  0
  160.5840  211.4670  154.1300 C   0  0  0  0  0  0  0  0  0  0  0  0
  158.4570  213.5500  151.9030 C   0  0  0  0  0  1  0  0  0  0  0  0
  158.7720  212.6560  152.9620 O   0  0  0  0  0  0  0  0  0  0  0  0
  160.1490  211.8350  155.4900 C   0  0  0  0  0  3  0  0  0  0  0  0
  160.8440  211.5190  156.5770 C   0  0  0  0  0  2  0  0  0  0  0  0
  1  7  1  0  0  0  0
  3  8  1  0  0  0  0
  3  1  2  0  0  0  0
  4  6  1  0  0  0  0
  4 28  1  0  0  0  0
  5  4  2  0  0  0  0
  6  2  1  1  0  0  0
  7  2  2  0  0  0  0
  8  6  1  0  0  0  0
  9  5  1  0  0  0  0
  9  8  2  0  0  0  0
 10 12  1  0  0  0  0
 11 10  2  0  0  0  0
 12  9  1  0  0  0  0
 13 11  1  0  0  0  0
 13 14  2  0  0  0  0
 14 15  1  0  0  0  0
 15 12  2  0  0  0  0
 16 13  1  0  0  0  0
 17 16  1  0  0  0  0
 18 17  1  0  0  0  0
 19 20  1  6  0  0  0
 19 18  1  0  0  0  0
 21 22  1  0  0  0  0
 22 19  1  1  0  0  0
 24 22  1  0  0  0  0
 24 23  2  0  0  0  0
 25 26  1  0  0  0  0
 25 21  2  0  0  0  0
 26 24  1  0  0  0  0
 27 33  1  0  0  0  0
 27 30  2  0  0  0  0
 28 31  2  0  0  0  0
 29 28  1  0  0  0  0
 29 27  1  0  0  0  0
 31 30  1  0  0  0  0
 32 29  2  0  0  0  0
 33 35  1  0  0  0  0
 34 35  2  0  0  0  0
 35 38  1  0  0  0  0
 36 37  1  0  0  0  0
 37 34  1  0  0  0  0
 38 39  2  0  0  0  0
M  END
>  <MODEL>
2

>  <REMARK>
 VINA RESULT:      -8.2      3.597      5.775
  Name = 
  11 active torsions:
  status: ('A' for Active; 'I' for Inactive)
    1  A    between atoms: C_2  and  C_4
    2  A    between atoms: C_2  and  C_35
    3  A    between atoms: C_5  and  C_22
    4  A    between atoms: C_10  and  C_35
    5  A    between atoms: C_11  and  O_30
    6  A    between atoms: C_12  and  C_22
    7  A    between atoms: C_12  and  N_39
    8  A    between atoms: C_13  and  C_38
    9  A    between atoms: C_15  and  C_23
   10  A    between atoms: C_16  and  C_25
   11  A    between atoms: C_23  and  N_39
                            x       y       z     vdW  Elec       q    Type
                         _______ _______ _______ _____ _____    ______ ____

>  <TORSDO>
F 11

$$$$
=
 OpenBabel11042421563D

 39 43  0  0  1  0  0  0  0  0999 V2000
  161.8380  208.5520  148.6280 C   0  0  0  0  0  3  0  0  0  0  0  0
  161.5220  206.1190  148.3350 C   0  0  0  0  0  3  0  0  0  0  0  0
  161.6120  208.4760  150.1270 C   0  0  0  0  0  2  0  0  0  0  0  0
  160.9960  204.7700  150.4040 C   0  0  0  0  0  0  0  0  0  0  0  0
  160.8450  205.1270  151.6790 C   0  0  0  0  0  3  0  0  0  0  0  0
  161.3000  205.9670  149.6370 C   0  0  0  0  0  0  0  0  0  0  0  0
  161.7980  207.4780  147.8180 C   0  0  0  0  0  3  0  0  0  0  0  0
  161.3200  207.0680  150.5660 C   0  0  0  0  0  0  0  0  0  0  0  0
  161.0540  206.5900  151.7830 C   0  0  0  0  0  0  0  0  0  0  0  0
  161.0050  208.7560  153.0170 C   0  0  0  0  0  3  0  0  0  0  0  0
  160.9310  209.4980  154.2000 C   0  0  0  0  0  3  0  0  0  0  0  0
  160.9780  207.3540  153.0500 C   0  0  0  0  0  0  0  0  0  0  0  0
  160.8220  208.8420  155.4300 C   0  0  0  0  0  0  0  0  0  0  0  0
  160.8000  207.4460  155.4750 C   0  0  0  0  0  3  0  0  0  0  0  0
  160.8770  206.7070  154.2910 C   0  0  0  0  0  3  0  0  0  0  0  0
  160.7550  209.6280  156.6920 C   0  0  0  0  0  2  0  0  0  0  0  0
  160.5770  211.0380  156.3860 N   0  0  0  0  0  2  0  0  0  0  0  0
  159.2560  211.4050  156.8710 C   0  0  0  0  0  2  0  0  0  0  0  0
  158.6520  212.5160  156.0170 C   0  0  1  0  0  3  0  0  0  0  0  0
  159.6560  213.4040  155.6240 O   0  0  0  0  0  1  0  0  0  0  0  0
  158.0700  212.9080  153.5990 C   0  0  0  0  0  3  0  0  0  0  0  0
  157.9150  211.9570  154.7960 C   0  0  2  0  0  3  0  0  0  0  0  0
  155.8190  211.3240  155.8370 O   0  0  0  0  0  0  0  0  0  0  0  0
  156.4610  212.0040  154.9940 C   0  0  0  0  0  0  0  0  0  0  0  0
  156.7550  213.4820  153.2640 N   0  0  0  0  0  0  0  0  0  0  0  0
  155.8660  212.8720  154.1190 O   0  0  0  0  0  0  0  0  0  0  0  0
  161.0680  201.4630  148.7090 C   0  0  0  0  0  0  0  0  0  0  0  0
  160.8720  203.3990  149.8840 C   0  0  0  0  0  0  0  0  0  0  0  0
  161.5620  202.8220  148.7440 C   0  0  0  0  0  0  0  0  0  0  0  0
  160.2180  201.3010  149.6710 N   0  0  0  0  0  0  0  0  0  0  0  0
  160.1010  202.4970  150.4020 N   0  0  0  0  0  0  0  0  0  0  0  0
  162.3910  203.3690  147.9700 O   0  0  0  0  0  0  0  0  0  0  0  0
  161.4030  200.4040  147.7120 C   0  0  0  0  0  2  0  0  0  0  0  0
  160.7360  202.0780  146.0840 C   0  0  0  0  0  3  0  0  0  0  0  0
  160.9170  200.7740  146.3430 C   0  0  0  0  0  0  0  0  0  0  0  0
  160.4020  204.0200  144.5310 C   0  0  0  0  0  1  0  0  0  0  0  0
  160.2670  202.6520  144.8900 O   0  0  0  0  0  0  0  0  0  0  0  0
  160.6680  199.7210  145.3420 C   0  0  0  0  0  3  0  0  0  0  0  0
  161.2570  198.5300  145.3890 C   0  0  0  0  0  2  0  0  0  0  0  0
  1  3  1  0  0  0  0
  2  6  2  0  0  0  0
  3  8  1  0  0  0  0
  4  5  2  0  0  0  0
  5  9  1  0  0  0  0
  6  4  1  0  0  0  0
  6  8  1  0  0  0  0
  7  2  1  0  0  0  0
  7  1  2  0  0  0  0
  8  9  2  0  0  0  0
  9 12  1  0  0  0  0
 10 12  2  0  0  0  0
 10 11  1  0  0  0  0
 11 13  2  0  0  0  0
 12 15  1  0  0  0  0
 13 14  1  0  0  0  0
 13 16  1  0  0  0  0
 15 14  2  0  0  0  0
 17 16  1  0  0  0  0
 17 18  1  0  0  0  0
 19 20  1  6  0  0  0
 19 18  1  0  0  0  0
 21 22  1  0  0  0  0
 22 24  1  0  0  0  0
 22 19  1  1  0  0  0
 24 23  2  0  0  0  0
 25 21  2  0  0  0  0
 25 26  1  0  0  0  0
 26 24  1  0  0  0  0
 27 29  1  0  0  0  0
 27 30  2  0  0  0  0
 28 31  2  0  0  0  0
 28  4  1  0  0  0  0
 29 28  1  0  0  0  0
 30 31  1  0  0  0  0
 32 29  2  0  0  0  0
 33 27  1  0  0  0  0
 34 35  2  0  0  0  0
 35 33  1  0  0  0  0
 36 37  1  0  0  0  0
 37 34  1  0  0  0  0
 38 39  2  0  0  0  0
 38 35  1  0  0  0  0
M  END
>  <MODEL>
3

>  <REMARK>
 VINA RESULT:      -7.7      1.863     10.836
  Name = 
  11 active torsions:
  status: ('A' for Active; 'I' for Inactive)
    1  A    between atoms: C_2  and  C_4
    2  A    between atoms: C_2  and  C_35
    3  A    between atoms: C_5  and  C_22
    4  A    between atoms: C_10  and  C_35
    5  A    between atoms: C_11  and  O_30
    6  A    between atoms: C_12  and  C_22
    7  A    between atoms: C_12  and  N_39
    8  A    between atoms: C_13  and  C_38
    9  A    between atoms: C_15  and  C_23
   10  A    between atoms: C_16  and  C_25
   11  A    between atoms: C_23  and  N_39
                            x       y       z     vdW  Elec       q    Type
                         _______ _______ _______ _____ _____    ______ ____

>  <TORSDO>
F 11

$$$$
=
 OpenBabel11042421563D

 39 43  0  0  1  0  0  0  0  0999 V2000
  160.0080  210.6520  153.9600 C   0  0  0  0  0  3  0  0  0  0  0  0
  160.8710  211.8310  151.9670 C   0  0  0  0  0  3  0  0  0  0  0  0
  160.2980  209.2850  153.3680 C   0  0  0  0  0  2  0  0  0  0  0  0
  161.7120  210.4050  150.0610 C   0  0  0  0  0  0  0  0  0  0  0  0
  161.7830  209.0820  149.9080 C   0  0  0  0  0  3  0  0  0  0  0  0
  161.1440  210.6740  151.3710 C   0  0  0  0  0  0  0  0  0  0  0  0
  160.2720  211.8070  153.3200 C   0  0  0  0  0  3  0  0  0  0  0  0
  160.8850  209.3980  151.9880 C   0  0  0  0  0  0  0  0  0  0  0  0
  161.2580  208.4410  151.1360 C   0  0  0  0  0  0  0  0  0  0  0  0
  161.3280  206.4540  152.6400 C   0  0  0  0  0  3  0  0  0  0  0  0
  161.2600  205.0750  152.8610 C   0  0  0  0  0  3  0  0  0  0  0  0
  161.1870  206.9770  151.3460 C   0  0  0  0  0  0  0  0  0  0  0  0
  161.0420  204.2040  151.7890 C   0  0  0  0  0  0  0  0  0  0  0  0
  160.9050  204.7150  150.4950 C   0  0  0  0  0  3  0  0  0  0  0  0
  160.9760  206.0930  150.2760 C   0  0  0  0  0  3  0  0  0  0  0  0
  160.9800  202.7350  152.0190 C   0  0  0  0  0  2  0  0  0  0  0  0
  161.7830  202.0470  151.0210 N   0  0  0  0  0  2  0  0  0  0  0  0
  160.8530  201.4790  150.0580 C   0  0  0  0  0  2  0  0  0  0  0  0
  161.4350  201.5220  148.6480 C   0  0  1  0  0  3  0  0  0  0  0  0
  161.5080  200.2250  148.1320 O   0  0  0  0  0  1  0  0  0  0  0  0
  159.9960  201.6040  146.5830 C   0  0  0  0  0  3  0  0  0  0  0  0
  160.6160  202.4280  147.7240 C   0  0  2  0  0  3  0  0  0  0  0  0
  162.1800  204.2610  147.4560 O   0  0  0  0  0  0  0  0  0  0  0  0
  161.4910  203.3290  146.9630 C   0  0  0  0  0  0  0  0  0  0  0  0
  160.6040  202.0140  145.3050 N   0  0  0  0  0  0  0  0  0  0  0  0
  161.4500  203.0520  145.6240 O   0  0  0  0  0  0  0  0  0  0  0  0
  162.2620  213.1100  147.5720 C   0  0  0  0  0  0  0  0  0  0  0  0
  162.1390  211.4000  149.0640 C   0  0  0  0  0  0  0  0  0  0  0  0
  161.3300  212.4370  148.4490 C   0  0  0  0  0  0  0  0  0  0  0  0
  163.4160  212.5330  147.6640 N   0  0  0  0  0  0  0  0  0  0  0  0
  163.3420  211.4780  148.5920 N   0  0  0  0  0  0  0  0  0  0  0  0
  160.1100  212.6920  148.6330 O   0  0  0  0  0  0  0  0  0  0  0  0
  161.9740  214.2450  146.6470 C   0  0  0  0  0  2  0  0  0  0  0  0
  162.9120  213.6330  144.4930 C   0  0  0  0  0  3  0  0  0  0  0  0
  161.8040  213.7660  145.2370 C   0  0  0  0  0  0  0  0  0  0  0  0
  162.8340  214.0790  142.0240 C   0  0  0  0  0  1  0  0  0  0  0  0
  162.9930  213.2270  143.1500 O   0  0  0  0  0  0  0  0  0  0  0  0
  160.4580  213.4530  144.7240 C   0  0  0  0  0  3  0  0  0  0  0  0
  159.7900  212.3600  145.0770 C   0  0  0  0  0  2  0  0  0  0  0  0
  2  7  1  0  0  0  0
  3  1  1  0  0  0  0
  4  6  1  0  0  0  0
  5  4  2  0  0  0  0
  5  9  1  0  0  0  0
  6  2  2  0  0  0  0
  6  8  1  0  0  0  0
  7  1  2  0  0  0  0
  8  3  1  0  0  0  0
  9 12  1  0  0  0  0
  9  8  2  0  0  0  0
 10 11  1  0  0  0  0
 12 10  2  0  0  0  0
 13 16  1  0  0  0  0
 13 11  2  0  0  0  0
 14 13  1  0  0  0  0
 15 14  2  0  0  0  0
 15 12  1  0  0  0  0
 17 16  1  0  0  0  0
 18 17  1  0  0  0  0
 19 20  1  6  0  0  0
 19 18  1  0  0  0  0
 21 22  1  0  0  0  0
 22 19  1  1  0  0  0
 24 23  2  0  0  0  0
 24 22  1  0  0  0  0
 25 26  1  0  0  0  0
 25 21  2  0  0  0  0
 26 24  1  0  0  0  0
 27 30  2  0  0  0  0
 27 29  1  0  0  0  0
 28  4  1  0  0  0  0
 29 32  2  0  0  0  0
 29 28  1  0  0  0  0
 30 31  1  0  0  0  0
 31 28  2  0  0  0  0
 33 27  1  0  0  0  0
 34 35  2  0  0  0  0
 35 33  1  0  0  0  0
 36 37  1  0  0  0  0
 37 34  1  0  0  0  0
 38 39  2  0  0  0  0
 38 35  1  0  0  0  0
M  END
>  <MODEL>
4

>  <REMARK>
 VINA RESULT:      -7.6      3.595      6.436
  Name = 
  11 active torsions:
  status: ('A' for Active; 'I' for Inactive)
    1  A    between atoms: C_2  and  C_4
    2  A    between atoms: C_2  and  C_35
    3  A    between atoms: C_5  and  C_22
    4  A    between atoms: C_10  and  C_35
    5  A    between atoms: C_11  and  O_30
    6  A    between atoms: C_12  and  C_22
    7  A    between atoms: C_12  and  N_39
    8  A    between atoms: C_13  and  C_38
    9  A    between atoms: C_15  and  C_23
   10  A    between atoms: C_16  and  C_25
   11  A    between atoms: C_23  and  N_39
                            x       y       z     vdW  Elec       q    Type
                         _______ _______ _______ _____ _____    ______ ____

>  <TORSDO>
F 11

$$$$
=
 OpenBabel11042421563D

 39 43  0  0  1  0  0  0  0  0999 V2000
  161.1880  209.7960  154.9140 C   0  0  0  0  0  3  0  0  0  0  0  0
  161.1630  207.4950  154.0150 C   0  0  0  0  0  3  0  0  0  0  0  0
  161.2610  210.4160  153.5310 C   0  0  0  0  0  3  0  0  0  0  0  0
  161.2890  207.2400  151.5060 C   0  0  0  0  0  0  0  0  0  0  0  0
  161.3730  208.1410  150.5270 C   0  0  0  0  0  3  0  0  0  0  0  0
  161.2380  207.9560  152.7700 C   0  0  2  0  0  3  0  0  0  0  0  0
  161.1410  208.4680  155.1290 C   0  0  0  0  0  3  0  0  0  0  0  0
  161.2980  209.3610  152.4590 C   0  0  0  0  0  0  0  0  0  0  0  0
  161.3770  209.4910  151.1340 C   0  0  0  0  0  0  0  0  0  0  0  0
  160.6730  211.8530  150.7530 C   0  0  0  0  0  3  0  0  0  0  0  0
  160.7280  213.0540  150.0390 C   0  0  0  0  0  3  0  0  0  0  0  0
  161.4490  210.7520  150.3600 C   0  0  0  0  0  0  0  0  0  0  0  0
  161.5670  213.1680  148.9270 C   0  0  0  0  0  0  0  0  0  0  0  0
  162.3400  212.0760  148.5230 C   0  0  0  0  0  3  0  0  0  0  0  0
  162.2810  210.8760  149.2370 C   0  0  0  0  0  3  0  0  0  0  0  0
  161.6200  214.4410  148.1580 C   0  0  0  0  0  2  0  0  0  0  0  0
  161.8670  214.1580  146.7530 N   0  0  0  0  0  2  0  0  0  0  0  0
  160.5670  213.9450  146.1370 C   0  0  0  0  0  2  0  0  0  0  0  0
  160.6160  212.7850  145.1470 C   0  0  1  0  0  3  0  0  0  0  0  0
  159.3930  212.1080  145.1580 O   0  0  0  0  0  1  0  0  0  0  0  0
  160.0980  212.5190  142.6970 C   0  0  0  0  0  3  0  0  0  0  0  0
  160.9590  213.2610  143.7320 C   0  0  2  0  0  3  0  0  0  0  0  0
  163.3790  213.2070  143.8580 O   0  0  0  0  0  0  0  0  0  0  0  0
  162.3010  212.8130  143.3400 C   0  0  0  0  0  0  0  0  0  0  0  0
  160.9660  211.6590  141.8720 N   0  0  0  0  0  0  0  0  0  0  0  0
  162.2470  211.9200  142.3050 O   0  0  0  0  0  0  0  0  0  0  0  0
  160.9030  203.6650  150.5630 C   0  0  0  0  0  0  0  0  0  0  0  0
  161.2530  205.7800  151.3180 C   0  0  0  0  0  0  0  0  0  0  0  0
  160.6030  205.0440  150.2480 C   0  0  0  0  0  0  0  0  0  0  0  0
  161.6010  203.6250  151.6520 N   0  0  0  0  0  0  0  0  0  0  0  0
  161.8230  204.9350  152.1160 N   0  0  0  0  0  0  0  0  0  0  0  0
  159.9380  205.4940  149.2780 O   0  0  0  0  0  0  0  0  0  0  0  0
  160.4510  202.4500  149.8240 C   0  0  0  0  0  2  0  0  0  0  0  0
  161.4820  203.4200  147.8510 C   0  0  0  0  0  3  0  0  0  0  0  0
  161.1860  202.3000  148.5260 C   0  0  0  0  0  0  0  0  0  0  0  0
  162.6370  204.7240  146.0440 C   0  0  0  0  0  1  0  0  0  0  0  0
  162.1370  203.5210  146.6120 O   0  0  0  0  0  0  0  0  0  0  0  0
  161.5630  200.9570  148.0460 C   0  0  0  0  0  3  0  0  0  0  0  0
  161.0750  200.4300  146.9280 C   0  0  0  0  0  2  0  0  0  0  0  0
  1  7  1  0  0  0  0
  2  7  2  0  0  0  0
  3  1  2  0  0  0  0
  4  6  1  0  0  0  0
  5  9  1  0  0  0  0
  5  4  2  0  0  0  0
  6  2  1  1  0  0  0
  8  6  1  0  0  0  0
  8  3  1  0  0  0  0
  9  8  2  0  0  0  0
 11 10  2  0  0  0  0
 12 10  1  0  0  0  0
 12  9  1  0  0  0  0
 13 11  1  0  0  0  0
 14 13  2  0  0  0  0
 14 15  1  0  0  0  0
 15 12  2  0  0  0  0
 16 13  1  0  0  0  0
 17 16  1  0  0  0  0
 18 17  1  0  0  0  0
 19 20  1  6  0  0  0
 19 18  1  0  0  0  0
 21 22  1  0  0  0  0
 22 19  1  1  0  0  0
 24 22  1  0  0  0  0
 24 23  2  0  0  0  0
 25 26  1  0  0  0  0
 25 21  2  0  0  0  0
 26 24  1  0  0  0  0
 27 30  2  0  0  0  0
 28  4  1  0  0  0  0
 28 31  2  0  0  0  0
 29 27  1  0  0  0  0
 29 28  1  0  0  0  0
 30 31  1  0  0  0  0
 32 29  2  0  0  0  0
 33 27  1  0  0  0  0
 34 35  2  0  0  0  0
 35 33  1  0  0  0  0
 36 37  1  0  0  0  0
 37 34  1  0  0  0  0
 38 35  1  0  0  0  0
 39 38  2  0  0  0  0
M  END
>  <MODEL>
5

>  <REMARK>
 VINA RESULT:      -7.4      3.999      9.238
  Name = 
  11 active torsions:
  status: ('A' for Active; 'I' for Inactive)
    1  A    between atoms: C_2  and  C_4
    2  A    between atoms: C_2  and  C_35
    3  A    between atoms: C_5  and  C_22
    4  A    between atoms: C_10  and  C_35
    5  A    between atoms: C_11  and  O_30
    6  A    between atoms: C_12  and  C_22
    7  A    between atoms: C_12  and  N_39
    8  A    between atoms: C_13  and  C_38
    9  A    between atoms: C_15  and  C_23
   10  A    between atoms: C_16  and  C_25
   11  A    between atoms: C_23  and  N_39
                            x       y       z     vdW  Elec       q    Type
                         _______ _______ _______ _____ _____    ______ ____

>  <TORSDO>
F 11

$$$$
=
 OpenBabel11042421563D

 39 43  0  0  1  0  0  0  0  0999 V2000
  161.1100  207.6830  155.2660 C   0  0  0  0  0  3  0  0  0  0  0  0
  161.1940  209.6520  153.7760 C   0  0  0  0  0  3  0  0  0  0  0  0
  161.1060  206.7090  154.1030 C   0  0  0  0  0  3  0  0  0  0  0  0
  161.2020  209.2120  151.2890 C   0  0  0  0  0  0  0  0  0  0  0  0
  161.1640  208.0770  150.5900 C   0  0  0  0  0  3  0  0  0  0  0  0
  161.1820  208.8680  152.7010 C   0  0  2  0  0  3  0  0  0  0  0  0
  161.1520  209.0200  155.1130 C   0  0  0  0  0  3  0  0  0  0  0  0
  161.1310  207.4310  152.7840 C   0  0  0  0  0  0  0  0  0  0  0  0
  161.1220  206.9430  151.5410 C   0  0  0  0  0  0  0  0  0  0  0  0
  161.7300  204.5570  151.9290 C   0  0  0  0  0  3  0  0  0  0  0  0
  161.7050  203.2060  151.5690 C   0  0  0  0  0  3  0  0  0  0  0  0
  161.0840  205.5190  151.1380 C   0  0  0  0  0  0  0  0  0  0  0  0
  161.0240  202.8020  150.4160 C   0  0  0  0  0  0  0  0  0  0  0  0
  160.3810  203.7530  149.6190 C   0  0  0  0  0  3  0  0  0  0  0  0
  160.4110  205.1030  149.9790 C   0  0  0  0  0  3  0  0  0  0  0  0
  161.0040  201.3670  150.0240 C   0  0  0  0  0  2  0  0  0  0  0  0
  161.5780  201.2110  148.6970 N   0  0  0  0  0  2  0  0  0  0  0  0
  160.4900  201.3950  147.7490 C   0  0  0  0  0  2  0  0  0  0  0  0
  161.0100  201.9370  146.4210 C   0  0  1  0  0  3  0  0  0  0  0  0
  160.3680  201.2850  145.3650 O   0  0  0  0  0  1  0  0  0  0  0  0
  160.4600  203.8460  144.8730 C   0  0  0  0  0  3  0  0  0  0  0  0
  160.8230  203.4540  146.3150 C   0  0  2  0  0  3  0  0  0  0  0  0
  162.7870  204.1940  147.5280 O   0  0  0  0  0  0  0  0  0  0  0  0
  162.1050  204.1520  146.4700 C   0  0  0  0  0  0  0  0  0  0  0  0
  161.5600  204.6370  144.2950 N   0  0  0  0  0  0  0  0  0  0  0  0
  162.4700  204.7890  145.3160 O   0  0  0  0  0  0  0  0  0  0  0  0
  160.9400  212.7600  150.2130 C   0  0  0  0  0  0  0  0  0  0  0  0
  161.2550  210.5650  150.7120 C   0  0  0  0  0  0  0  0  0  0  0  0
  160.4640  211.7200  151.0980 C   0  0  0  0  0  0  0  0  0  0  0  0
  161.8490  212.2660  149.4360 N   0  0  0  0  0  0  0  0  0  0  0  0
  162.0480  210.9090  149.7480 N   0  0  0  0  0  0  0  0  0  0  0  0
  159.5770  211.8010  151.9880 O   0  0  0  0  0  0  0  0  0  0  0  0
  160.4530  214.1680  150.1270 C   0  0  0  0  0  2  0  0  0  0  0  0
  158.0360  214.3770  150.0140 C   0  0  0  0  0  3  0  0  0  0  0  0
  159.1850  214.2560  149.3330 C   0  0  0  0  0  0  0  0  0  0  0  0
  155.5370  214.3090  150.2380 C   0  0  0  0  0  1  0  0  0  0  0  0
  156.7360  214.4510  149.4870 O   0  0  0  0  0  0  0  0  0  0  0  0
  159.2370  214.2200  147.8590 C   0  0  0  0  0  3  0  0  0  0  0  0
  158.7410  213.2140  147.1460 C   0  0  0  0  0  2  0  0  0  0  0  0
  2  7  2  0  0  0  0
  3  1  2  0  0  0  0
  4  6  1  0  0  0  0
  5  4  2  0  0  0  0
  5  9  1  0  0  0  0
  6  8  1  0  0  0  0
  6  2  1  6  0  0  0
  7  1  1  0  0  0  0
  8  3  1  0  0  0  0
  9  8  2  0  0  0  0
 11 10  1  0  0  0  0
 12  9  1  0  0  0  0
 12 10  2  0  0  0  0
 13 11  2  0  0  0  0
 14 15  2  0  0  0  0
 14 13  1  0  0  0  0
 15 12  1  0  0  0  0
 16 13  1  0  0  0  0
 17 16  1  0  0  0  0
 18 17  1  0  0  0  0
 19 20  1  6  0  0  0
 19 18  1  0  0  0  0
 21 22  1  0  0  0  0
 22 19  1  6  0  0  0
 22 24  1  0  0  0  0
 24 23  2  0  0  0  0
 25 21  2  0  0  0  0
 25 26  1  0  0  0  0
 26 24  1  0  0  0  0
 27 29  1  0  0  0  0
 28 29  1  0  0  0  0
 28  4  1  0  0  0  0
 29 32  2  0  0  0  0
 30 31  1  0  0  0  0
 30 27  2  0  0  0  0
 31 28  2  0  0  0  0
 33 27  1  0  0  0  0
 35 34  2  0  0  0  0
 35 33  1  0  0  0  0
 37 34  1  0  0  0  0
 37 36  1  0  0  0  0
 38 35  1  0  0  0  0
 39 38  2  0  0  0  0
M  END
>  <MODEL>
6

>  <REMARK>
 VINA RESULT:      -7.2      2.648      4.093
  Name = 
  11 active torsions:
  status: ('A' for Active; 'I' for Inactive)
    1  A    between atoms: C_2  and  C_4
    2  A    between atoms: C_2  and  C_35
    3  A    between atoms: C_5  and  C_22
    4  A    between atoms: C_10  and  C_35
    5  A    between atoms: C_11  and  O_30
    6  A    between atoms: C_12  and  C_22
    7  A    between atoms: C_12  and  N_39
    8  A    between atoms: C_13  and  C_38
    9  A    between atoms: C_15  and  C_23
   10  A    between atoms: C_16  and  C_25
   11  A    between atoms: C_23  and  N_39
                            x       y       z     vdW  Elec       q    Type
                         _______ _______ _______ _____ _____    ______ ____

>  <TORSDO>
F 11

$$$$
=
 OpenBabel11042421563D

 39 43  0  0  1  0  0  0  0  0999 V2000
  161.5160  207.6490  156.4270 C   0  0  0  0  0  3  0  0  0  0  0  0
  160.8180  209.8030  155.4380 C   0  0  0  0  0  3  0  0  0  0  0  0
  161.4200  206.9220  155.0990 C   0  0  0  0  0  3  0  0  0  0  0  0
  160.2920  209.8170  152.9680 C   0  0  0  0  0  0  0  0  0  0  0  0
  160.3140  208.8490  152.0520 C   0  0  0  0  0  3  0  0  0  0  0  0
  160.6980  209.2400  154.2390 C   0  0  2  0  0  3  0  0  0  0  0  0
  161.2430  208.9590  156.5770 C   0  0  0  0  0  3  0  0  0  0  0  0
  160.9660  207.8450  154.0010 C   0  0  0  0  0  0  0  0  0  0  0  0
  160.7450  207.5930  152.7090 C   0  0  0  0  0  0  0  0  0  0  0  0
  160.5890  206.2050  150.6440 C   0  0  0  0  0  3  0  0  0  0  0  0
  160.7320  204.9920  149.9630 C   0  0  0  0  0  3  0  0  0  0  0  0
  160.9010  206.2980  152.0090 C   0  0  0  0  0  0  0  0  0  0  0  0
  161.1960  203.8600  150.6390 C   0  0  0  0  0  0  0  0  0  0  0  0
  161.5040  203.9410  152.0000 C   0  0  0  0  0  3  0  0  0  0  0  0
  161.3580  205.1530  152.6790 C   0  0  0  0  0  3  0  0  0  0  0  0
  161.3380  202.5650  149.9200 C   0  0  0  0  0  2  0  0  0  0  0  0
  160.7920  202.6840  148.5780 N   0  0  0  0  0  2  0  0  0  0  0  0
  161.9260  202.7330  147.6700 C   0  0  0  0  0  2  0  0  0  0  0  0
  161.4600  202.8280  146.2200 C   0  0  1  0  0  3  0  0  0  0  0  0
  160.5550  201.7980  145.9490 O   0  0  0  0  0  1  0  0  0  0  0  0
  160.5080  204.3040  144.4150 C   0  0  0  0  0  3  0  0  0  0  0  0
  160.8360  204.1930  145.9130 C   0  0  2  0  0  3  0  0  0  0  0  0
  162.3610  205.6260  147.1370 O   0  0  0  0  0  0  0  0  0  0  0  0
  161.8270  205.2670  146.0550 C   0  0  0  0  0  0  0  0  0  0  0  0
  161.3680  205.3350  143.8070 N   0  0  0  0  0  0  0  0  0  0  0  0
  162.0900  205.8650  144.8520 O   0  0  0  0  0  0  0  0  0  0  0  0
  158.9490  213.2730  152.7160 C   0  0  0  0  0  0  0  0  0  0  0  0
  159.9200  211.2180  152.7150 C   0  0  0  0  0  0  0  0  0  0  0  0
  158.8350  211.9660  153.3240 C   0  0  0  0  0  0  0  0  0  0  0  0
  159.9370  213.2630  151.8800 N   0  0  0  0  0  0  0  0  0  0  0  0
  160.5420  211.9920  151.8840 N   0  0  0  0  0  0  0  0  0  0  0  0
  157.9930  211.5750  154.1760 O   0  0  0  0  0  0  0  0  0  0  0  0
  158.0610  214.4530  152.9340 C   0  0  0  0  0  2  0  0  0  0  0  0
  157.0860  214.4400  150.7100 C   0  0  0  0  0  3  0  0  0  0  0  0
  156.8650  214.4060  152.0320 C   0  0  0  0  0  0  0  0  0  0  0  0
  156.3170  213.8860  148.3860 C   0  0  0  0  0  1  0  0  0  0  0  0
  156.1260  214.4320  149.6840 O   0  0  0  0  0  0  0  0  0  0  0  0
  155.5120  214.3150  152.6110 C   0  0  0  0  0  3  0  0  0  0  0  0
  155.2950  214.1720  153.9150 C   0  0  0  0  0  2  0  0  0  0  0  0
  1  7  1  0  0  0  0
  2  7  2  0  0  0  0
  3  1  2  0  0  0  0
  4  6  1  0  0  0  0
  5  9  1  0  0  0  0
  5  4  2  0  0  0  0
  6  2  1  1  0  0  0
  8  6  1  0  0  0  0
  8  3  1  0  0  0  0
  9  8  2  0  0  0  0
 10 12  1  0  0  0  0
 11 13  1  0  0  0  0
 11 10  2  0  0  0  0
 12 15  2  0  0  0  0
 12  9  1  0  0  0  0
 13 14  2  0  0  0  0
 14 15  1  0  0  0  0
 16 13  1  0  0  0  0
 17 16  1  0  0  0  0
 18 17  1  0  0  0  0
 19 20  1  1  0  0  0
 19 18  1  0  0  0  0
 21 22  1  0  0  0  0
 22 24  1  0  0  0  0
 22 19  1  6  0  0  0
 24 23  2  0  0  0  0
 25 21  2  0  0  0  0
 25 26  1  0  0  0  0
 26 24  1  0  0  0  0
 27 33  1  0  0  0  0
 27 29  1  0  0  0  0
 28  4  1  0  0  0  0
 28 29  1  0  0  0  0
 29 32  2  0  0  0  0
 30 31  1  0  0  0  0
 30 27  2  0  0  0  0
 31 28  2  0  0  0  0
 34 35  2  0  0  0  0
 35 38  1  0  0  0  0
 35 33  1  0  0  0  0
 36 37  1  0  0  0  0
 37 34  1  0  0  0  0
 38 39  2  0  0  0  0
M  END
>  <MODEL>
7

>  <REMARK>
 VINA RESULT:      -7.1      2.359      3.611
  Name = 
  11 active torsions:
  status: ('A' for Active; 'I' for Inactive)
    1  A    between atoms: C_2  and  C_4
    2  A    between atoms: C_2  and  C_35
    3  A    between atoms: C_5  and  C_22
    4  A    between atoms: C_10  and  C_35
    5  A    between atoms: C_11  and  O_30
    6  A    between atoms: C_12  and  C_22
    7  A    between atoms: C_12  and  N_39
    8  A    between atoms: C_13  and  C_38
    9  A    between atoms: C_15  and  C_23
   10  A    between atoms: C_16  and  C_25
   11  A    between atoms: C_23  and  N_39
                            x       y       z     vdW  Elec       q    Type
                         _______ _______ _______ _____ _____    ______ ____

>  <TORSDO>
F 11

$$$$
=
 OpenBabel11042421563D

 39 43  0  0  1  0  0  0  0  0999 V2000
  160.8310  201.9830  149.8870 C   0  0  0  0  0  3  0  0  0  0  0  0
  160.8790  203.9220  151.4170 C   0  0  0  0  0  3  0  0  0  0  0  0
  161.0230  202.8530  148.6590 C   0  0  0  0  0  3  0  0  0  0  0  0
  161.1580  206.2040  150.3730 C   0  0  0  0  0  0  0  0  0  0  0  0
  161.2870  206.5870  149.1030 C   0  0  0  0  0  3  0  0  0  0  0  0
  161.0370  204.7560  150.3940 C   0  0  2  0  0  3  0  0  0  0  0  0
  160.7680  202.4730  151.1390 C   0  0  0  0  0  3  0  0  0  0  0  0
  161.1070  204.3090  149.0260 C   0  0  0  0  0  0  0  0  0  0  0  0
  161.2570  205.3810  148.2450 C   0  0  0  0  0  0  0  0  0  0  0  0
  160.3680  205.9850  145.9950 C   0  0  0  0  0  3  0  0  0  0  0  0
  160.4690  206.0210  144.6010 C   0  0  0  0  0  3  0  0  0  0  0  0
  161.3840  205.4040  146.7700 C   0  0  0  0  0  0  0  0  0  0  0  0
  161.5930  205.4820  143.9670 C   0  0  0  0  0  0  0  0  0  0  0  0
  162.6070  204.8960  144.7290 C   0  0  0  0  0  3  0  0  0  0  0  0
  162.5020  204.8590  146.1220 C   0  0  0  0  0  3  0  0  0  0  0  0
  161.6990  205.5080  142.4830 C   0  0  0  0  0  2  0  0  0  0  0  0
  161.6510  206.8820  142.0100 N   0  0  0  0  0  2  0  0  0  0  0  0
  161.9260  206.8400  140.5820 C   0  0  0  0  0  2  0  0  0  0  0  0
  162.2530  208.2310  140.0480 C   0  0  1  0  0  3  0  0  0  0  0  0
  162.5740  208.1480  138.6910 O   0  0  0  0  0  1  0  0  0  0  0  0
  160.1790  209.2430  139.0430 C   0  0  0  0  0  3  0  0  0  0  0  0
  161.0990  209.2120  140.2740 C   0  0  2  0  0  3  0  0  0  0  0  0
  162.3330  211.0990  141.1650 O   0  0  0  0  0  0  0  0  0  0  0  0
  161.5840  210.5980  140.2860 C   0  0  0  0  0  0  0  0  0  0  0  0
  160.2670  210.5700  138.4060 N   0  0  0  0  0  0  0  0  0  0  0  0
  161.0940  211.3070  139.2230 O   0  0  0  0  0  0  0  0  0  0  0  0
  161.1890  208.0140  153.6190 C   0  0  0  0  0  0  0  0  0  0  0  0
  161.1440  207.1060  151.5360 C   0  0  0  0  0  0  0  0  0  0  0  0
  161.2490  206.7410  152.9370 C   0  0  0  0  0  0  0  0  0  0  0  0
  161.0550  208.9550  152.7410 N   0  0  0  0  0  0  0  0  0  0  0  0
  161.0330  208.3930  151.4510 N   0  0  0  0  0  0  0  0  0  0  0  0
  161.3640  205.5920  153.4420 O   0  0  0  0  0  0  0  0  0  0  0  0
  161.2100  208.2540  155.0920 C   0  0  0  0  0  2  0  0  0  0  0  0
  159.4670  209.8490  155.6510 C   0  0  0  0  0  3  0  0  0  0  0  0
  160.7730  209.6490  155.4220 C   0  0  0  0  0  0  0  0  0  0  0  0
  158.5680  211.5530  157.2590 C   0  0  0  0  0  1  0  0  0  0  0  0
  158.8310  211.0660  155.9500 O   0  0  0  0  0  0  0  0  0  0  0  0
  161.7700  210.7330  155.4940 C   0  0  0  0  0  3  0  0  0  0  0  0
  162.7900  210.7170  156.3460 C   0  0  0  0  0  2  0  0  0  0  0  0
  1  7  1  0  0  0  0
  3  8  1  0  0  0  0
  3  1  2  0  0  0  0
  4  6  1  0  0  0  0
  4 28  1  0  0  0  0
  5  4  2  0  0  0  0
  6  2  1  6  0  0  0
  7  2  2  0  0  0  0
  8  6  1  0  0  0  0
  9  8  2  0  0  0  0
  9  5  1  0  0  0  0
 10 12  1  0  0  0  0
 11 10  2  0  0  0  0
 12  9  1  0  0  0  0
 13 11  1  0  0  0  0
 13 14  2  0  0  0  0
 14 15  1  0  0  0  0
 15 12  2  0  0  0  0
 16 13  1  0  0  0  0
 17 16  1  0  0  0  0
 18 17  1  0  0  0  0
 19 20  1  6  0  0  0
 19 18  1  0  0  0  0
 21 22  1  0  0  0  0
 22 19  1  6  0  0  0
 22 24  1  0  0  0  0
 24 23  2  0  0  0  0
 25 21  2  0  0  0  0
 25 26  1  0  0  0  0
 26 24  1  0  0  0  0
 27 33  1  0  0  0  0
 28 29  1  0  0  0  0
 29 32  2  0  0  0  0
 29 27  1  0  0  0  0
 30 27  2  0  0  0  0
 31 28  2  0  0  0  0
 31 30  1  0  0  0  0
 33 35  1  0  0  0  0
 34 37  1  0  0  0  0
 35 38  1  0  0  0  0
 35 34  2  0  0  0  0
 37 36  1  0  0  0  0
 38 39  2  0  0  0  0
M  END
>  <MODEL>
8

>  <REMARK>
 VINA RESULT:      -6.9      3.932      6.243
  Name = 
  11 active torsions:
  status: ('A' for Active; 'I' for Inactive)
    1  A    between atoms: C_2  and  C_4
    2  A    between atoms: C_2  and  C_35
    3  A    between atoms: C_5  and  C_22
    4  A    between atoms: C_10  and  C_35
    5  A    between atoms: C_11  and  O_30
    6  A    between atoms: C_12  and  C_22
    7  A    between atoms: C_12  and  N_39
    8  A    between atoms: C_13  and  C_38
    9  A    between atoms: C_15  and  C_23
   10  A    between atoms: C_16  and  C_25
   11  A    between atoms: C_23  and  N_39
                            x       y       z     vdW  Elec       q    Type
                         _______ _______ _______ _____ _____    ______ ____

>  <TORSDO>
F 11

$$$$
=
 OpenBabel11042421563D

 39 43  0  0  1  0  0  0  0  0999 V2000
  161.2180  204.4370  152.8160 C   0  0  0  0  0  3  0  0  0  0  0  0
  161.0140  206.7140  153.7550 C   0  0  0  0  0  3  0  0  0  0  0  0
  161.2600  204.9490  151.3880 C   0  0  0  0  0  3  0  0  0  0  0  0
  160.9430  208.6320  152.1150 C   0  0  0  0  0  0  0  0  0  0  0  0
  160.9920  208.6610  150.7820 C   0  0  0  0  0  3  0  0  0  0  0  0
  161.0320  207.2440  152.5350 C   0  0  2  0  0  3  0  0  0  0  0  0
  161.1080  205.2430  153.8890 C   0  0  0  0  0  3  0  0  0  0  0  0
  161.1400  206.4480  151.3400 C   0  0  0  0  0  0  0  0  0  0  0  0
  161.1200  207.2710  150.2890 C   0  0  0  0  0  0  0  0  0  0  0  0
  162.4650  206.9180  148.2190 C   0  0  0  0  0  3  0  0  0  0  0  0
  162.5780  206.5690  146.8700 C   0  0  0  0  0  3  0  0  0  0  0  0
  161.2160  206.9000  148.8580 C   0  0  0  0  0  0  0  0  0  0  0  0
  161.4430  206.1880  146.1480 C   0  0  0  0  0  0  0  0  0  0  0  0
  160.1940  206.1720  146.7740 C   0  0  0  0  0  3  0  0  0  0  0  0
  160.0820  206.5250  148.1210 C   0  0  0  0  0  3  0  0  0  0  0  0
  161.5580  205.8270  144.7090 C   0  0  0  0  0  2  0  0  0  0  0  0
  160.8670  204.5720  144.4600 N   0  0  0  0  0  2  0  0  0  0  0  0
  161.5400  203.5600  145.2580 C   0  0  0  0  0  2  0  0  0  0  0  0
  160.5340  202.5940  145.8760 C   0  0  1  0  0  3  0  0  0  0  0  0
  160.1000  201.6850  144.9060 O   0  0  0  0  0  1  0  0  0  0  0  0
  160.0890  200.8760  147.6620 C   0  0  0  0  0  3  0  0  0  0  0  0
  161.1200  201.8590  147.0840 C   0  0  2  0  0  3  0  0  0  0  0  0
  162.1030  203.7330  148.2660 O   0  0  0  0  0  0  0  0  0  0  0  0
  161.2910  202.7720  148.2210 C   0  0  0  0  0  0  0  0  0  0  0  0
  159.6880  201.3290  149.0050 N   0  0  0  0  0  0  0  0  0  0  0  0
  160.4670  202.4350  149.2610 O   0  0  0  0  0  0  0  0  0  0  0  0
  160.5120  211.2410  154.7260 C   0  0  0  0  0  0  0  0  0  0  0  0
  160.8200  209.8110  152.9870 C   0  0  0  0  0  0  0  0  0  0  0  0
  160.4690  209.8340  154.3950 C   0  0  0  0  0  0  0  0  0  0  0  0
  160.8240  211.9130  153.6650 N   0  0  0  0  0  0  0  0  0  0  0  0
  161.0210  211.0270  152.5900 N   0  0  0  0  0  0  0  0  0  0  0  0
  160.1920  208.8650  155.1500 O   0  0  0  0  0  0  0  0  0  0  0  0
  160.1950  211.8710  156.0410 C   0  0  0  0  0  2  0  0  0  0  0  0
  157.8400  211.3370  156.2910 C   0  0  0  0  0  3  0  0  0  0  0  0
  158.7590  212.2960  156.1080 C   0  0  0  0  0  0  0  0  0  0  0  0
  155.5000  210.7980  155.5600 C   0  0  0  0  0  1  0  0  0  0  0  0
  156.4450  211.4950  156.3600 O   0  0  0  0  0  0  0  0  0  0  0  0
  158.4090  213.7230  155.9860 C   0  0  0  0  0  3  0  0  0  0  0  0
  157.7910  214.2230  154.9210 C   0  0  0  0  0  2  0  0  0  0  0  0
  1  7  1  0  0  0  0
  2  7  2  0  0  0  0
  3  1  2  0  0  0  0
  4  6  1  0  0  0  0
  4 28  1  0  0  0  0
  5  4  2  0  0  0  0
  6  2  1  6  0  0  0
  8  3  1  0  0  0  0
  8  6  1  0  0  0  0
  9  5  1  0  0  0  0
  9  8  2  0  0  0  0
 10 12  1  0  0  0  0
 11 10  2  0  0  0  0
 12  9  1  0  0  0  0
 13 14  2  0  0  0  0
 13 11  1  0  0  0  0
 14 15  1  0  0  0  0
 15 12  2  0  0  0  0
 16 13  1  0  0  0  0
 17 16  1  0  0  0  0
 17 18  1  0  0  0  0
 18 19  1  0  0  0  0
 19 20  1  6  0  0  0
 21 25  2  0  0  0  0
 22 19  1  6  0  0  0
 22 21  1  0  0  0  0
 22 24  1  0  0  0  0
 24 23  2  0  0  0  0
 24 26  1  0  0  0  0
 25 26  1  0  0  0  0
 27 33  1  0  0  0  0
 28 29  1  0  0  0  0
 29 27  1  0  0  0  0
 29 32  2  0  0  0  0
 30 27  2  0  0  0  0
 31 28  2  0  0  0  0
 31 30  1  0  0  0  0
 33 35  1  0  0  0  0
 34 37  1  0  0  0  0
 35 34  2  0  0  0  0
 36 37  1  0  0  0  0
 38 35  1  0  0  0  0
 39 38  2  0  0  0  0
M  END
>  <MODEL>
9

>  <REMARK>
 VINA RESULT:      -6.7      1.615      3.489
  Name = 
  11 active torsions:
  status: ('A' for Active; 'I' for Inactive)
    1  A    between atoms: C_2  and  C_4
    2  A    between atoms: C_2  and  C_35
    3  A    between atoms: C_5  and  C_22
    4  A    between atoms: C_10  and  C_35
    5  A    between atoms: C_11  and  O_30
    6  A    between atoms: C_12  and  C_22
    7  A    between atoms: C_12  and  N_39
    8  A    between atoms: C_13  and  C_38
    9  A    between atoms: C_15  and  C_23
   10  A    between atoms: C_16  and  C_25
   11  A    between atoms: C_23  and  N_39
                            x       y       z     vdW  Elec       q    Type
                         _______ _______ _______ _____ _____    ______ ____

>  <TORSDO>
F 11

$$$$
