=
 OpenBabel11042420253D

 36 38  0  0  1  0  0  0  0  0999 V2000
  161.0450  209.1570  153.7610 C   0  0  1  0  0  3  0  0  0  0  0  0
  160.2840  208.5410  152.6810 N   0  0  0  0  0  2  0  0  0  0  0  0
  162.0420  210.1730  153.2120 C   0  0  0  0  0  2  0  0  0  0  0  0
  162.1090  208.7870  149.9560 C   0  0  0  0  0  0  0  0  0  0  0  0
  162.3330  211.1690  150.3380 C   0  0  0  0  0  3  0  0  0  0  0  0
  161.7570  209.0380  148.6260 C   0  0  0  0  0  3  0  0  0  0  0  0
  160.9220  206.8440  151.0310 C   0  0  2  0  0  3  0  0  0  0  0  0
  162.1170  207.4440  150.4420 N   0  0  0  0  0  2  0  0  0  0  0  0
  160.8100  207.1960  152.5130 C   0  0  0  0  0  2  0  0  0  0  0  0
  161.9820  211.4250  149.0010 C   0  0  0  0  0  0  0  0  0  0  0  0
  162.4090  209.8530  150.8130 C   0  0  0  0  0  0  0  0  0  0  0  0
  161.6990  210.3510  148.1500 C   0  0  0  0  0  3  0  0  0  0  0  0
  162.7720  209.5990  152.1360 O   0  0  0  0  0  0  0  0  0  0  0  0
  160.9200  203.3200  149.3590 C   0  0  0  0  0  0  0  0  0  0  0  0
  160.7850  204.8160  149.4490 C   0  0  0  0  0  2  0  0  0  0  0  0
  161.0350  202.4980  150.5780 C   0  0  0  0  0  0  0  0  0  0  0  0
  161.0770  204.5490  151.9130 C   0  0  0  0  0  3  0  0  0  0  0  0
  160.9110  202.7720  148.2240 O   0  0  0  0  0  0  0  0  0  0  0  0
  160.9510  205.3590  150.8490 C   0  0  0  0  0  0  0  0  0  0  0  0
  161.0780  201.0090  150.4970 C   0  0  0  0  0  1  0  0  0  0  0  0
  161.1050  203.0840  151.7730 C   0  0  0  0  0  3  0  0  0  0  0  0
  161.9070  212.7580  148.4860 N   0  0  0  0  0  0  0  0  0  0  0  0
  161.7330  213.0220  147.2300 C   0  0  0  0  0  3  0  0  0  0  0  0
  161.6520  214.4290  146.7600 C   0  0  0  0  0  2  0  0  0  0  0  0
  161.4720  214.4530  145.3520 O   0  0  0  0  0  0  0  0  0  0  0  0
  162.2330  213.6510  144.5460 C   0  0  0  0  0  0  0  0  0  0  0  0
  162.8740  212.9740  143.8600 N   0  0  0  0  0  0  0  0  0  0  0  0
  159.4870  209.1430  155.5410 O   0  0  0  0  0  0  0  0  0  0  0  0
  160.1210  209.8140  154.7390 C   0  0  0  0  0  0  0  0  0  0  0  0
  159.9850  211.3050  154.7280 C   0  0  0  0  0  2  0  0  0  0  0  0
  158.6920  211.7230  154.0460 C   0  0  0  0  0  2  0  0  0  0  0  0
  158.8850  211.7670  152.5410 C   0  0  0  0  0  2  0  0  0  0  0  0
  158.8590  213.4540  151.9720 S   0  0  0  0  0  0  0  0  0  0  0  0
  160.1170  213.7620  151.2030 O   0  0  0  0  0  0  0  0  0  0  0  0
  157.4390  213.7020  150.9260 C   0  0  0  0  0  1  0  0  0  0  0  0
  158.7630  214.3710  153.1590 O   0  0  0  0  0  0  0  0  0  0  0  0
  1 29  1  1  0  0  0
  2  1  1  0  0  0  0
  3  1  1  0  0  0  0
  4  8  1  0  0  0  0
  4 11  1  0  0  0  0
  5 11  2  0  0  0  0
  6  4  2  0  0  0  0
  7 19  1  1  0  0  0
  7  9  1  0  0  0  0
  8  7  1  0  0  0  0
  9  2  1  0  0  0  0
 10  5  1  0  0  0  0
 11 13  1  0  0  0  0
 12  6  1  0  0  0  0
 12 10  2  0  0  0  0
 13  3  1  0  0  0  0
 14 15  1  0  0  0  0
 14 16  1  0  0  0  0
 15 19  1  0  0  0  0
 16 21  2  0  0  0  0
 18 14  2  0  0  0  0
 19 17  2  0  0  0  0
 20 16  1  0  0  0  0
 21 17  1  0  0  0  0
 22 10  1  0  0  0  0
 23 22  2  0  0  0  0
 24 23  1  0  0  0  0
 25 24  1  0  0  0  0
 26 25  1  0  0  0  0
 27 26  3  0  0  0  0
 29 28  2  0  0  0  0
 30 29  1  0  0  0  0
 31 30  1  0  0  0  0
 32 31  1  0  0  0  0
 33 32  1  0  0  0  0
 33 36  2  0  0  0  0
 34 33  2  0  0  0  0
 35 33  1  0  0  0  0
M  END
>  <MODEL>
1

>  <REMARK>
 VINA RESULT:      -6.9      0.000      0.000
  Name = 
  10 active torsions:
  status: ('A' for Active; 'I' for Inactive)
    1  A    between atoms: C_2  and  O_10
    2  A    between atoms: N_3  and  C_26
    3  A    between atoms: C_4  and  C_36
    4  A    between atoms: C_7  and  S_17
    5  A    between atoms: C_7  and  C_25
    6  A    between atoms: O_10  and  C_30
    7  A    between atoms: C_15  and  C_20
    8  A    between atoms: C_25  and  C_29
    9  A    between atoms: C_29  and  C_36
   10  A    between atoms: C_30  and  C_31
                            x       y       z     vdW  Elec       q    Type
                         _______ _______ _______ _____ _____    ______ ____

>  <TORSDO>
F 10

$$$$
=
 OpenBabel11042420253D

 36 38  0  0  1  0  0  0  0  0999 V2000
  161.0740  209.2870  153.7110 C   0  0  1  0  0  3  0  0  0  0  0  0
  160.3070  208.6510  152.6480 N   0  0  0  0  0  2  0  0  0  0  0  0
  162.0620  210.2990  153.1370 C   0  0  0  0  0  2  0  0  0  0  0  0
  162.1070  208.8620  149.9020 C   0  0  0  0  0  0  0  0  0  0  0  0
  162.3230  211.2520  150.2450 C   0  0  0  0  0  3  0  0  0  0  0  0
  161.7420  209.0910  148.5720 C   0  0  0  0  0  3  0  0  0  0  0  0
  160.9380  206.9310  151.0190 C   0  0  2  0  0  3  0  0  0  0  0  0
  162.1250  207.5270  150.4100 N   0  0  0  0  0  2  0  0  0  0  0  0
  160.8380  207.3050  152.4960 C   0  0  0  0  0  2  0  0  0  0  0  0
  161.9580  211.4840  148.9080 C   0  0  0  0  0  0  0  0  0  0  0  0
  162.4080  209.9440  150.7400 C   0  0  0  0  0  0  0  0  0  0  0  0
  161.6730  210.3960  148.0770 C   0  0  0  0  0  3  0  0  0  0  0  0
  162.7850  209.7120  152.0630 O   0  0  0  0  0  0  0  0  0  0  0  0
  160.9610  203.3810  149.4010 C   0  0  0  0  0  0  0  0  0  0  0  0
  160.8210  204.8780  149.4670 C   0  0  0  0  0  2  0  0  0  0  0  0
  161.0670  202.5790  150.6340 C   0  0  0  0  0  0  0  0  0  0  0  0
  161.0920  204.6500  151.9370 C   0  0  0  0  0  3  0  0  0  0  0  0
  160.9630  202.8160  148.2750 O   0  0  0  0  0  0  0  0  0  0  0  0
  160.9730  205.4430  150.8600 C   0  0  0  0  0  0  0  0  0  0  0  0
  161.1150  201.0890  150.5760 C   0  0  0  0  0  1  0  0  0  0  0  0
  161.1260  203.1830  151.8200 C   0  0  0  0  0  3  0  0  0  0  0  0
  161.8720  212.8090  148.3720 N   0  0  0  0  0  0  0  0  0  0  0  0
  161.7930  213.0550  147.1040 C   0  0  0  0  0  3  0  0  0  0  0  0
  161.6940  214.4530  146.6110 C   0  0  0  0  0  2  0  0  0  0  0  0
  161.5270  214.4530  145.2020 O   0  0  0  0  0  0  0  0  0  0  0  0
  160.3250  214.1020  144.6500 C   0  0  0  0  0  0  0  0  0  0  0  0
  159.3080  213.8020  144.1870 N   0  0  0  0  0  0  0  0  0  0  0  0
  159.7430  209.3500  155.6660 O   0  0  0  0  0  0  0  0  0  0  0  0
  160.1550  209.9550  154.6860 C   0  0  0  0  0  0  0  0  0  0  0  0
  159.7490  211.3770  154.4520 C   0  0  0  0  0  2  0  0  0  0  0  0
  158.4450  211.4430  153.6730 C   0  0  0  0  0  2  0  0  0  0  0  0
  157.7450  212.7640  153.9360 C   0  0  0  0  0  2  0  0  0  0  0  0
  156.7330  212.6380  155.3950 S   0  0  0  0  0  0  0  0  0  0  0  0
  156.2220  211.2300  155.5520 O   0  0  0  0  0  0  0  0  0  0  0  0
  157.6970  213.0900  156.8220 C   0  0  0  0  0  1  0  0  0  0  0  0
  155.5690  213.5800  155.2670 O   0  0  0  0  0  0  0  0  0  0  0  0
  1 29  1  1  0  0  0
  2  1  1  0  0  0  0
  3  1  1  0  0  0  0
  4  8  1  0  0  0  0
  4 11  1  0  0  0  0
  5 11  2  0  0  0  0
  6  4  2  0  0  0  0
  7 19  1  1  0  0  0
  7  9  1  0  0  0  0
  8  7  1  0  0  0  0
  9  2  1  0  0  0  0
 10  5  1  0  0  0  0
 11 13  1  0  0  0  0
 12  6  1  0  0  0  0
 12 10  2  0  0  0  0
 13  3  1  0  0  0  0
 14 15  1  0  0  0  0
 14 16  1  0  0  0  0
 15 19  1  0  0  0  0
 16 21  2  0  0  0  0
 18 14  2  0  0  0  0
 19 17  2  0  0  0  0
 20 16  1  0  0  0  0
 21 17  1  0  0  0  0
 22 10  1  0  0  0  0
 23 22  2  0  0  0  0
 24 23  1  0  0  0  0
 25 24  1  0  0  0  0
 26 25  1  0  0  0  0
 27 26  3  0  0  0  0
 29 28  2  0  0  0  0
 30 29  1  0  0  0  0
 31 32  1  0  0  0  0
 31 30  1  0  0  0  0
 32 33  1  0  0  0  0
 33 34  2  0  0  0  0
 33 35  1  0  0  0  0
 36 33  2  0  0  0  0
M  END
>  <MODEL>
2

>  <REMARK>
 VINA RESULT:      -6.5      1.548      1.903
  Name = 
  10 active torsions:
  status: ('A' for Active; 'I' for Inactive)
    1  A    between atoms: C_2  and  O_10
    2  A    between atoms: N_3  and  C_26
    3  A    between atoms: C_4  and  C_36
    4  A    between atoms: C_7  and  S_17
    5  A    between atoms: C_7  and  C_25
    6  A    between atoms: O_10  and  C_30
    7  A    between atoms: C_15  and  C_20
    8  A    between atoms: C_25  and  C_29
    9  A    between atoms: C_29  and  C_36
   10  A    between atoms: C_30  and  C_31
                            x       y       z     vdW  Elec       q    Type
                         _______ _______ _______ _____ _____    ______ ____

>  <TORSDO>
F 10

$$$$
=
 OpenBabel11042420253D

 36 38  0  0  1  0  0  0  0  0999 V2000
  162.3030  208.5570  149.9320 C   0  0  1  0  0  3  0  0  0  0  0  0
  161.1040  208.5840  150.7600 N   0  0  0  0  0  2  0  0  0  0  0  0
  163.0150  207.2130  150.0520 C   0  0  0  0  0  2  0  0  0  0  0  0
  161.5390  206.3740  153.1580 C   0  0  0  0  0  0  0  0  0  0  0  0
  162.0610  204.6920  151.4930 C   0  0  0  0  0  3  0  0  0  0  0  0
  160.6490  205.4860  153.7690 C   0  0  0  0  0  3  0  0  0  0  0  0
  160.8310  208.7910  153.1870 C   0  0  2  0  0  3  0  0  0  0  0  0
  161.6760  207.7000  153.6700 N   0  0  0  0  0  2  0  0  0  0  0  0
  161.4130  209.4090  151.9180 C   0  0  0  0  0  2  0  0  0  0  0  0
  161.1690  203.7970  152.1070 C   0  0  0  0  0  0  0  0  0  0  0  0
  162.2550  205.9750  152.0220 C   0  0  0  0  0  0  0  0  0  0  0  0
  160.4690  204.2010  153.2480 C   0  0  0  0  0  3  0  0  0  0  0  0
  163.1520  206.8590  151.4220 O   0  0  0  0  0  0  0  0  0  0  0  0
  161.5100  210.9850  156.3410 C   0  0  0  0  0  0  0  0  0  0  0  0
  161.6930  209.8470  155.3740 C   0  0  0  0  0  2  0  0  0  0  0  0
  160.3360  211.8740  156.2470 C   0  0  0  0  0  0  0  0  0  0  0  0
  159.6490  210.6910  154.2170 C   0  0  0  0  0  3  0  0  0  0  0  0
  162.3640  211.1580  157.2500 O   0  0  0  0  0  0  0  0  0  0  0  0
  160.6810  209.8330  154.2520 C   0  0  0  0  0  0  0  0  0  0  0  0
  160.1050  212.9460  157.2570 C   0  0  0  0  0  1  0  0  0  0  0  0
  159.4670  211.7260  155.2480 C   0  0  0  0  0  3  0  0  0  0  0  0
  160.9580  202.4770  151.5940 N   0  0  0  0  0  0  0  0  0  0  0  0
  160.7280  202.2320  150.3440 C   0  0  0  0  0  3  0  0  0  0  0  0
  160.5300  200.8370  149.8720 C   0  0  0  0  0  2  0  0  0  0  0  0
  161.4750  200.5370  148.8560 O   0  0  0  0  0  0  0  0  0  0  0  0
  161.1430  200.6950  147.5380 C   0  0  0  0  0  0  0  0  0  0  0  0
  160.8580  200.8280  146.4240 N   0  0  0  0  0  0  0  0  0  0  0  0
  161.6270  209.9580  148.1510 O   0  0  0  0  0  0  0  0  0  0  0  0
  161.9540  208.8340  148.5030 C   0  0  0  0  0  0  0  0  0  0  0  0
  162.0150  207.7180  147.5060 C   0  0  0  0  0  2  0  0  0  0  0  0
  160.6950  206.9670  147.4580 C   0  0  0  0  0  2  0  0  0  0  0  0
  160.5490  206.2510  146.1270 C   0  0  0  0  0  2  0  0  0  0  0  0
  161.6680  204.8680  146.0530 S   0  0  0  0  0  0  0  0  0  0  0  0
  163.0230  205.3210  145.5780 O   0  0  0  0  0  0  0  0  0  0  0  0
  161.8130  204.1390  147.6720 C   0  0  0  0  0  1  0  0  0  0  0  0
  161.1200  203.8440  145.0990 O   0  0  0  0  0  0  0  0  0  0  0  0
  1 29  1  6  0  0  0
  1  3  1  0  0  0  0
  1  2  1  0  0  0  0
  2  9  1  0  0  0  0
  3 13  1  0  0  0  0
  4  8  1  0  0  0  0
  4  6  1  0  0  0  0
  5 11  1  0  0  0  0
  5 10  2  0  0  0  0
  7  8  1  0  0  0  0
  7 19  1  1  0  0  0
  9  7  1  0  0  0  0
 10 12  1  0  0  0  0
 11  4  2  0  0  0  0
 12  6  2  0  0  0  0
 13 11  1  0  0  0  0
 14 18  2  0  0  0  0
 15 14  1  0  0  0  0
 16 14  1  0  0  0  0
 16 20  1  0  0  0  0
 17 19  2  0  0  0  0
 17 21  1  0  0  0  0
 19 15  1  0  0  0  0
 21 16  2  0  0  0  0
 22 10  1  0  0  0  0
 23 22  2  0  0  0  0
 24 23  1  0  0  0  0
 25 24  1  0  0  0  0
 26 25  1  0  0  0  0
 27 26  3  0  0  0  0
 28 29  2  0  0  0  0
 30 29  1  0  0  0  0
 31 30  1  0  0  0  0
 32 31  1  0  0  0  0
 33 32  1  0  0  0  0
 33 35  1  0  0  0  0
 34 33  2  0  0  0  0
 36 33  2  0  0  0  0
M  END
>  <MODEL>
3

>  <REMARK>
 VINA RESULT:      -5.6      3.736      9.054
  Name = 
  10 active torsions:
  status: ('A' for Active; 'I' for Inactive)
    1  A    between atoms: C_2  and  O_10
    2  A    between atoms: N_3  and  C_26
    3  A    between atoms: C_4  and  C_36
    4  A    between atoms: C_7  and  S_17
    5  A    between atoms: C_7  and  C_25
    6  A    between atoms: O_10  and  C_30
    7  A    between atoms: C_15  and  C_20
    8  A    between atoms: C_25  and  C_29
    9  A    between atoms: C_29  and  C_36
   10  A    between atoms: C_30  and  C_31
                            x       y       z     vdW  Elec       q    Type
                         _______ _______ _______ _____ _____    ______ ____

>  <TORSDO>
F 10

$$$$
=
 OpenBabel11042420253D

 36 38  0  0  1  0  0  0  0  0999 V2000
  161.0120  212.7580  148.9170 C   0  0  1  0  0  3  0  0  0  0  0  0
  159.9770  212.2080  149.7840 N   0  0  0  0  0  2  0  0  0  0  0  0
  162.0820  211.7120  148.6180 C   0  0  0  0  0  2  0  0  0  0  0  0
  161.3370  209.7130  151.4430 C   0  0  0  0  0  0  0  0  0  0  0  0
  162.0790  208.7450  149.3500 C   0  0  0  0  0  3  0  0  0  0  0  0
  160.8240  208.4710  151.8300 C   0  0  0  0  0  3  0  0  0  0  0  0
  159.9900  211.7080  152.1840 C   0  0  2  0  0  3  0  0  0  0  0  0
  161.1640  210.8460  152.2970 N   0  0  0  0  0  2  0  0  0  0  0  0
  160.1970  212.7710  151.1070 C   0  0  0  0  0  2  0  0  0  0  0  0
  161.5660  207.4950  149.7380 C   0  0  0  0  0  0  0  0  0  0  0  0
  161.9750  209.8500  150.2040 C   0  0  0  0  0  0  0  0  0  0  0  0
  160.9430  207.3660  150.9830 C   0  0  0  0  0  3  0  0  0  0  0  0
  162.4970  211.0870  149.8260 O   0  0  0  0  0  0  0  0  0  0  0  0
  160.0640  212.5340  155.9970 C   0  0  0  0  0  0  0  0  0  0  0  0
  160.3430  211.7620  154.7360 C   0  0  0  0  0  2  0  0  0  0  0  0
  159.1080  213.6580  155.9960 C   0  0  0  0  0  0  0  0  0  0  0  0
  158.8580  213.3970  153.5760 C   0  0  0  0  0  3  0  0  0  0  0  0
  160.6410  212.1940  157.0630 O   0  0  0  0  0  0  0  0  0  0  0  0
  159.7000  212.3530  153.5030 C   0  0  0  0  0  0  0  0  0  0  0  0
  158.7610  214.3680  157.2610 C   0  0  0  0  0  1  0  0  0  0  0  0
  158.5450  214.0540  154.8550 C   0  0  0  0  0  3  0  0  0  0  0  0
  161.6670  206.3460  148.8890 N   0  0  0  0  0  0  0  0  0  0  0  0
  161.1290  205.2050  149.1780 C   0  0  0  0  0  3  0  0  0  0  0  0
  161.2590  204.0520  148.2490 C   0  0  0  0  0  2  0  0  0  0  0  0
  162.1030  204.4070  147.1640 O   0  0  0  0  0  0  0  0  0  0  0  0
  161.6280  204.3710  145.8810 C   0  0  0  0  0  0  0  0  0  0  0  0
  161.2310  204.3400  144.7940 N   0  0  0  0  0  0  0  0  0  0  0  0
  159.5010  214.0810  147.6680 O   0  0  0  0  0  0  0  0  0  0  0  0
  160.4080  213.2610  147.6440 C   0  0  0  0  0  0  0  0  0  0  0  0
  160.9310  212.7530  146.3360 C   0  0  0  0  0  2  0  0  0  0  0  0
  160.2410  213.4480  145.1730 C   0  0  0  0  0  2  0  0  0  0  0  0
  160.1920  212.5280  143.9680 C   0  0  0  0  0  2  0  0  0  0  0  0
  161.5140  212.9240  142.8430 S   0  0  0  0  0  0  0  0  0  0  0  0
  161.7990  211.7510  141.9430 O   0  0  0  0  0  0  0  0  0  0  0  0
  161.0490  214.3350  141.8610 C   0  0  0  0  0  1  0  0  0  0  0  0
  162.7470  213.2580  143.6340 O   0  0  0  0  0  0  0  0  0  0  0  0
  1 29  1  6  0  0  0
  1  2  1  0  0  0  0
  2  9  1  0  0  0  0
  3  1  1  0  0  0  0
  3 13  1  0  0  0  0
  4  6  1  0  0  0  0
  4  8  1  0  0  0  0
  5 10  2  0  0  0  0
  5 11  1  0  0  0  0
  7  8  1  0  0  0  0
  7 19  1  1  0  0  0
  9  7  1  0  0  0  0
 10 12  1  0  0  0  0
 11  4  2  0  0  0  0
 12  6  2  0  0  0  0
 13 11  1  0  0  0  0
 14 18  2  0  0  0  0
 15 14  1  0  0  0  0
 16 14  1  0  0  0  0
 16 20  1  0  0  0  0
 17 21  1  0  0  0  0
 19 17  2  0  0  0  0
 19 15  1  0  0  0  0
 21 16  2  0  0  0  0
 22 23  2  0  0  0  0
 22 10  1  0  0  0  0
 24 23  1  0  0  0  0
 25 24  1  0  0  0  0
 26 25  1  0  0  0  0
 27 26  3  0  0  0  0
 29 28  2  0  0  0  0
 30 29  1  0  0  0  0
 31 30  1  0  0  0  0
 32 31  1  0  0  0  0
 33 36  2  0  0  0  0
 33 32  1  0  0  0  0
 34 33  2  0  0  0  0
 35 33  1  0  0  0  0
M  END
>  <MODEL>
4

>  <REMARK>
 VINA RESULT:      -5.4      2.920      8.362
  Name = 
  10 active torsions:
  status: ('A' for Active; 'I' for Inactive)
    1  A    between atoms: C_2  and  O_10
    2  A    between atoms: N_3  and  C_26
    3  A    between atoms: C_4  and  C_36
    4  A    between atoms: C_7  and  S_17
    5  A    between atoms: C_7  and  C_25
    6  A    between atoms: O_10  and  C_30
    7  A    between atoms: C_15  and  C_20
    8  A    between atoms: C_25  and  C_29
    9  A    between atoms: C_29  and  C_36
   10  A    between atoms: C_30  and  C_31
                            x       y       z     vdW  Elec       q    Type
                         _______ _______ _______ _____ _____    ______ ____

>  <TORSDO>
F 10

$$$$
=
 OpenBabel11042420253D

 36 38  0  0  1  0  0  0  0  0999 V2000
  161.4050  207.4180  153.3570 C   0  0  1  0  0  3  0  0  0  0  0  0
  160.5470  207.0290  152.2450 N   0  0  0  0  0  2  0  0  0  0  0  0
  162.3220  208.5700  152.9590 C   0  0  0  0  0  2  0  0  0  0  0  0
  162.0750  207.9520  149.4820 C   0  0  0  0  0  0  0  0  0  0  0  0
  162.2960  210.1960  150.3710 C   0  0  0  0  0  3  0  0  0  0  0  0
  161.5830  208.4800  148.2840 C   0  0  0  0  0  3  0  0  0  0  0  0
  161.0400  205.7710  150.1990 C   0  0  2  0  0  3  0  0  0  0  0  0
  162.1570  206.5360  149.6480 N   0  0  0  0  0  2  0  0  0  0  0  0
  161.0760  205.7770  151.7260 C   0  0  0  0  0  2  0  0  0  0  0  0
  161.8030  210.7290  149.1670 C   0  0  0  0  0  0  0  0  0  0  0  0
  162.4430  208.8110  150.5260 C   0  0  0  0  0  0  0  0  0  0  0  0
  161.4520  209.8630  148.1270 C   0  0  0  0  0  3  0  0  0  0  0  0
  162.9460  208.2820  151.7140 O   0  0  0  0  0  0  0  0  0  0  0  0
  160.8170  201.8790  150.0410 C   0  0  0  0  0  0  0  0  0  0  0  0
  160.8530  203.2460  150.6710 C   0  0  0  0  0  2  0  0  0  0  0  0
  161.1420  201.6990  148.6140 C   0  0  0  0  0  0  0  0  0  0  0  0
  161.3420  204.1280  148.3890 C   0  0  0  0  0  3  0  0  0  0  0  0
  160.5270  200.8840  150.7560 O   0  0  0  0  0  0  0  0  0  0  0  0
  161.0760  204.3670  149.6830 C   0  0  0  0  0  0  0  0  0  0  0  0
  161.1960  200.3370  148.0070 C   0  0  0  0  0  1  0  0  0  0  0  0
  161.3900  202.7600  147.8460 C   0  0  0  0  0  3  0  0  0  0  0  0
  161.6510  212.1400  148.9770 N   0  0  0  0  0  0  0  0  0  0  0  0
  160.7020  212.6600  148.2670 C   0  0  0  0  0  3  0  0  0  0  0  0
  160.5920  214.1340  148.1180 C   0  0  0  0  0  2  0  0  0  0  0  0
  160.2150  214.4530  146.7880 O   0  0  0  0  0  0  0  0  0  0  0  0
  161.0850  214.2410  145.7540 C   0  0  0  0  0  0  0  0  0  0  0  0
  161.8230  214.0570  144.8810 N   0  0  0  0  0  0  0  0  0  0  0  0
  159.6790  207.0680  154.9360 O   0  0  0  0  0  0  0  0  0  0  0  0
  160.5750  207.8010  154.5430 C   0  0  0  0  0  0  0  0  0  0  0  0
  160.8590  209.0910  155.2470 C   0  0  0  0  0  2  0  0  0  0  0  0
  159.5900  209.9140  155.3950 C   0  0  0  0  0  2  0  0  0  0  0  0
  159.3290  210.7080  154.1290 C   0  0  0  0  0  2  0  0  0  0  0  0
  158.7270  212.3320  154.5390 S   0  0  0  0  0  0  0  0  0  0  0  0
  159.1060  213.3140  153.4630 O   0  0  0  0  0  0  0  0  0  0  0  0
  156.9540  212.2780  154.7050 C   0  0  0  0  0  1  0  0  0  0  0  0
  159.3310  212.7640  155.8450 O   0  0  0  0  0  0  0  0  0  0  0  0
  1 29  1  1  0  0  0
  2  1  1  0  0  0  0
  3  1  1  0  0  0  0
  4  8  1  0  0  0  0
  4 11  1  0  0  0  0
  5 11  2  0  0  0  0
  6  4  2  0  0  0  0
  7 19  1  6  0  0  0
  7  9  1  0  0  0  0
  8  7  1  0  0  0  0
  9  2  1  0  0  0  0
 10  5  1  0  0  0  0
 11 13  1  0  0  0  0
 12  6  1  0  0  0  0
 12 10  2  0  0  0  0
 13  3  1  0  0  0  0
 14 15  1  0  0  0  0
 14 18  2  0  0  0  0
 16 14  1  0  0  0  0
 17 19  2  0  0  0  0
 19 15  1  0  0  0  0
 20 16  1  0  0  0  0
 21 17  1  0  0  0  0
 21 16  2  0  0  0  0
 22 10  1  0  0  0  0
 23 22  2  0  0  0  0
 24 23  1  0  0  0  0
 25 24  1  0  0  0  0
 26 25  1  0  0  0  0
 27 26  3  0  0  0  0
 29 28  2  0  0  0  0
 29 30  1  0  0  0  0
 30 31  1  0  0  0  0
 32 33  1  0  0  0  0
 32 31  1  0  0  0  0
 33 35  1  0  0  0  0
 33 36  2  0  0  0  0
 34 33  2  0  0  0  0
M  END
>  <MODEL>
5

>  <REMARK>
 VINA RESULT:      -5.1      1.597      2.114
  Name = 
  10 active torsions:
  status: ('A' for Active; 'I' for Inactive)
    1  A    between atoms: C_2  and  O_10
    2  A    between atoms: N_3  and  C_26
    3  A    between atoms: C_4  and  C_36
    4  A    between atoms: C_7  and  S_17
    5  A    between atoms: C_7  and  C_25
    6  A    between atoms: O_10  and  C_30
    7  A    between atoms: C_15  and  C_20
    8  A    between atoms: C_25  and  C_29
    9  A    between atoms: C_29  and  C_36
   10  A    between atoms: C_30  and  C_31
                            x       y       z     vdW  Elec       q    Type
                         _______ _______ _______ _____ _____    ______ ____

>  <TORSDO>
F 10

$$$$
=
 OpenBabel11042420253D

 36 38  0  0  1  0  0  0  0  0999 V2000
  161.8900  211.6850  148.9780 C   0  0  1  0  0  3  0  0  0  0  0  0
  161.1060  211.5480  147.7580 N   0  0  0  0  0  2  0  0  0  0  0  0
  161.2090  212.6370  149.9570 C   0  0  0  0  0  2  0  0  0  0  0  0
  159.2700  214.2640  147.4830 C   0  0  0  0  0  0  0  0  0  0  0  0
  158.4420  213.9140  149.7340 C   0  0  0  0  0  3  0  0  0  0  0  0
  157.9580  214.4520  147.0360 C   0  0  0  0  0  3  0  0  0  0  0  0
  160.7940  213.0780  145.8680 C   0  0  2  0  0  3  0  0  0  0  0  0
  160.3460  214.2920  146.5450 N   0  0  0  0  0  2  0  0  0  0  0  0
  161.7950  212.3110  146.7290 C   0  0  0  0  0  2  0  0  0  0  0  0
  157.1230  214.1050  149.2870 C   0  0  0  0  0  0  0  0  0  0  0  0
  159.5150  214.0030  148.8380 C   0  0  0  0  0  0  0  0  0  0  0  0
  156.8910  214.3780  147.9350 C   0  0  0  0  0  3  0  0  0  0  0  0
  160.8250  213.8280  149.2840 O   0  0  0  0  0  0  0  0  0  0  0  0
  161.1750  214.0130  142.0990 C   0  0  0  0  0  0  0  0  0  0  0  0
  160.4790  213.5760  143.3600 C   0  0  0  0  0  2  0  0  0  0  0  0
  162.6460  214.1060  142.0440 C   0  0  0  0  0  0  0  0  0  0  0  0
  162.7350  213.5480  144.4250 C   0  0  0  0  0  3  0  0  0  0  0  0
  160.4840  214.2790  141.0800 O   0  0  0  0  0  0  0  0  0  0  0  0
  161.4040  213.4240  144.5450 C   0  0  0  0  0  0  0  0  0  0  0  0
  163.3430  214.4520  140.7720 C   0  0  0  0  0  1  0  0  0  0  0  0
  163.3700  213.8840  143.1400 C   0  0  0  0  0  3  0  0  0  0  0  0
  156.0080  214.0290  150.1820 N   0  0  0  0  0  0  0  0  0  0  0  0
  156.0910  214.3220  151.4400 C   0  0  0  0  0  3  0  0  0  0  0  0
  154.8930  214.2350  152.3150 C   0  0  0  0  0  2  0  0  0  0  0  0
  155.2930  214.2500  153.6770 O   0  0  0  0  0  0  0  0  0  0  0  0
  155.8050  213.1230  154.2580 C   0  0  0  0  0  0  0  0  0  0  0  0
  156.2420  212.1690  154.7470 N   0  0  0  0  0  0  0  0  0  0  0  0
  162.3250  210.2580  150.8140 O   0  0  0  0  0  0  0  0  0  0  0  0
  162.0970  210.3460  149.6150 C   0  0  0  0  0  0  0  0  0  0  0  0
  162.0150  209.1140  148.7700 C   0  0  0  0  0  2  0  0  0  0  0  0
  162.0660  207.8630  149.6330 C   0  0  0  0  0  2  0  0  0  0  0  0
  160.8970  206.9530  149.3050 C   0  0  0  0  0  2  0  0  0  0  0  0
  161.3130  205.8960  147.9340 S   0  0  0  0  0  0  0  0  0  0  0  0
  162.7090  206.1940  147.4540 O   0  0  0  0  0  0  0  0  0  0  0  0
  161.2050  204.1940  148.4490 C   0  0  0  0  0  1  0  0  0  0  0  0
  160.3380  206.1360  146.8160 O   0  0  0  0  0  0  0  0  0  0  0  0
  1 29  1  1  0  0  0
  1  3  1  0  0  0  0
  2  1  1  0  0  0  0
  4 11  1  0  0  0  0
  6  4  2  0  0  0  0
  6 12  1  0  0  0  0
  7 19  1  6  0  0  0
  7  8  1  0  0  0  0
  7  9  1  0  0  0  0
  8  4  1  0  0  0  0
  9  2  1  0  0  0  0
 10  5  1  0  0  0  0
 10 22  1  0  0  0  0
 11 13  1  0  0  0  0
 11  5  2  0  0  0  0
 12 10  2  0  0  0  0
 13  3  1  0  0  0  0
 14 15  1  0  0  0  0
 15 19  1  0  0  0  0
 16 14  1  0  0  0  0
 16 21  2  0  0  0  0
 17 19  2  0  0  0  0
 18 14  2  0  0  0  0
 20 16  1  0  0  0  0
 21 17  1  0  0  0  0
 22 23  2  0  0  0  0
 23 24  1  0  0  0  0
 24 25  1  0  0  0  0
 25 26  1  0  0  0  0
 26 27  3  0  0  0  0
 29 28  2  0  0  0  0
 30 29  1  0  0  0  0
 30 31  1  0  0  0  0
 32 31  1  0  0  0  0
 33 35  1  0  0  0  0
 33 32  1  0  0  0  0
 34 33  2  0  0  0  0
 36 33  2  0  0  0  0
M  END
>  <MODEL>
6

>  <REMARK>
 VINA RESULT:      -5.1      3.432      9.211
  Name = 
  10 active torsions:
  status: ('A' for Active; 'I' for Inactive)
    1  A    between atoms: C_2  and  O_10
    2  A    between atoms: N_3  and  C_26
    3  A    between atoms: C_4  and  C_36
    4  A    between atoms: C_7  and  S_17
    5  A    between atoms: C_7  and  C_25
    6  A    between atoms: O_10  and  C_30
    7  A    between atoms: C_15  and  C_20
    8  A    between atoms: C_25  and  C_29
    9  A    between atoms: C_29  and  C_36
   10  A    between atoms: C_30  and  C_31
                            x       y       z     vdW  Elec       q    Type
                         _______ _______ _______ _____ _____    ______ ____

>  <TORSDO>
F 10

$$$$
=
 OpenBabel11042420253D

 36 38  0  0  1  0  0  0  0  0999 V2000
  161.1090  206.9610  152.0090 C   0  0  1  0  0  3  0  0  0  0  0  0
  162.2150  207.4270  151.1820 N   0  0  0  0  0  2  0  0  0  0  0  0
  160.3320  205.8530  151.3030 C   0  0  0  0  0  2  0  0  0  0  0  0
  161.4400  206.7390  148.0600 C   0  0  0  0  0  0  0  0  0  0  0  0
  161.0240  204.4350  148.6860 C   0  0  0  0  0  3  0  0  0  0  0  0
  162.2230  206.3010  146.9870 C   0  0  0  0  0  3  0  0  0  0  0  0
  162.2410  208.8460  149.1830 C   0  0  2  0  0  3  0  0  0  0  0  0
  161.3060  208.1390  148.3110 N   0  0  0  0  0  2  0  0  0  0  0  0
  161.8220  208.7210  150.6470 C   0  0  0  0  0  2  0  0  0  0  0  0
  161.8080  203.9930  147.6070 C   0  0  0  0  0  0  0  0  0  0  0  0
  160.8290  205.8050  148.9070 C   0  0  0  0  0  0  0  0  0  0  0  0
  162.4020  204.9340  146.7600 C   0  0  0  0  0  3  0  0  0  0  0  0
  160.0380  206.2450  149.9690 O   0  0  0  0  0  0  0  0  0  0  0  0
  161.4950  212.6680  148.9480 C   0  0  0  0  0  0  0  0  0  0  0  0
  161.2740  211.2290  149.3290 C   0  0  0  0  0  2  0  0  0  0  0  0
  162.5580  213.0410  147.9950 C   0  0  0  0  0  0  0  0  0  0  0  0
  163.2800  210.7030  147.9420 C   0  0  0  0  0  3  0  0  0  0  0  0
  160.7440  213.5530  149.4370 O   0  0  0  0  0  0  0  0  0  0  0  0
  162.3230  210.2870  148.7870 C   0  0  0  0  0  0  0  0  0  0  0  0
  162.7220  214.4530  147.5470 C   0  0  0  0  0  1  0  0  0  0  0  0
  163.3890  212.1110  147.5260 C   0  0  0  0  0  3  0  0  0  0  0  0
  162.0160  202.5990  147.3510 N   0  0  0  0  0  0  0  0  0  0  0  0
  161.2270  201.6740  147.7950 C   0  0  0  0  0  3  0  0  0  0  0  0
  161.4910  200.2450  147.4850 C   0  0  0  0  0  2  0  0  0  0  0  0
  161.1880  199.9890  146.1220 O   0  0  0  0  0  0  0  0  0  0  0  0
  160.3840  200.8450  145.4210 C   0  0  0  0  0  0  0  0  0  0  0  0
  159.7060  201.5750  144.8300 N   0  0  0  0  0  0  0  0  0  0  0  0
  162.6590  205.8410  153.4010 O   0  0  0  0  0  0  0  0  0  0  0  0
  161.6170  206.4770  153.3310 C   0  0  0  0  0  0  0  0  0  0  0  0
  160.8370  206.7860  154.5710 C   0  0  0  0  0  2  0  0  0  0  0  0
  161.3540  208.0550  155.2310 C   0  0  0  0  0  2  0  0  0  0  0  0
  160.2100  209.0230  155.4720 C   0  0  0  0  0  2  0  0  0  0  0  0
  160.6110  210.6210  154.7960 S   0  0  0  0  0  0  0  0  0  0  0  0
  161.6060  210.4760  153.6760 O   0  0  0  0  0  0  0  0  0  0  0  0
  159.1260  211.3920  154.1850 C   0  0  0  0  0  1  0  0  0  0  0  0
  161.2010  211.4770  155.8810 O   0  0  0  0  0  0  0  0  0  0  0  0
  1 29  1  1  0  0  0
  2  1  1  0  0  0  0
  3  1  1  0  0  0  0
  4  8  1  0  0  0  0
  4 11  1  0  0  0  0
  5 11  2  0  0  0  0
  6  4  2  0  0  0  0
  7 19  1  6  0  0  0
  7  9  1  0  0  0  0
  8  7  1  0  0  0  0
  9  2  1  0  0  0  0
 10  5  1  0  0  0  0
 11 13  1  0  0  0  0
 12  6  1  0  0  0  0
 12 10  2  0  0  0  0
 13  3  1  0  0  0  0
 14 15  1  0  0  0  0
 14 18  2  0  0  0  0
 16 14  1  0  0  0  0
 17 19  2  0  0  0  0
 19 15  1  0  0  0  0
 20 16  1  0  0  0  0
 21 17  1  0  0  0  0
 21 16  2  0  0  0  0
 22 10  1  0  0  0  0
 22 23  2  0  0  0  0
 24 23  1  0  0  0  0
 25 24  1  0  0  0  0
 26 25  1  0  0  0  0
 27 26  3  0  0  0  0
 29 28  2  0  0  0  0
 29 30  1  0  0  0  0
 30 31  1  0  0  0  0
 31 32  1  0  0  0  0
 33 32  1  0  0  0  0
 33 36  2  0  0  0  0
 34 33  2  0  0  0  0
 35 33  1  0  0  0  0
M  END
>  <MODEL>
7

>  <REMARK>
 VINA RESULT:      -5.1      2.818      7.734
  Name = 
  10 active torsions:
  status: ('A' for Active; 'I' for Inactive)
    1  A    between atoms: C_2  and  O_10
    2  A    between atoms: N_3  and  C_26
    3  A    between atoms: C_4  and  C_36
    4  A    between atoms: C_7  and  S_17
    5  A    between atoms: C_7  and  C_25
    6  A    between atoms: O_10  and  C_30
    7  A    between atoms: C_15  and  C_20
    8  A    between atoms: C_25  and  C_29
    9  A    between atoms: C_29  and  C_36
   10  A    between atoms: C_30  and  C_31
                            x       y       z     vdW  Elec       q    Type
                         _______ _______ _______ _____ _____    ______ ____

>  <TORSDO>
F 10

$$$$
=
 OpenBabel11042420253D

 36 38  0  0  1  0  0  0  0  0999 V2000
  161.8400  211.3730  148.9120 C   0  0  1  0  0  3  0  0  0  0  0  0
  162.5930  210.2100  149.3630 N   0  0  0  0  0  2  0  0  0  0  0  0
  160.9690  211.9260  150.0370 C   0  0  0  0  0  2  0  0  0  0  0  0
  160.9370  208.9100  151.8900 C   0  0  0  0  0  0  0  0  0  0  0  0
  160.9150  211.0780  152.9730 C   0  0  0  0  0  3  0  0  0  0  0  0
  161.3770  208.3260  153.0820 C   0  0  0  0  0  3  0  0  0  0  0  0
  161.8840  207.9020  149.7870 C   0  0  2  0  0  3  0  0  0  0  0  0
  160.7810  208.1020  150.7230 N   0  0  0  0  0  2  0  0  0  0  0  0
  161.9540  209.0430  148.7750 C   0  0  0  0  0  2  0  0  0  0  0  0
  161.3550  210.4930  154.1720 C   0  0  0  0  0  0  0  0  0  0  0  0
  160.6950  210.2890  151.8360 C   0  0  0  0  0  0  0  0  0  0  0  0
  161.5800  209.1130  154.2190 C   0  0  0  0  0  3  0  0  0  0  0  0
  160.2440  210.8680  150.6500 O   0  0  0  0  0  0  0  0  0  0  0  0
  162.0070  205.1420  147.0320 C   0  0  0  0  0  0  0  0  0  0  0  0
  162.1150  206.5210  147.6240 C   0  0  0  0  0  2  0  0  0  0  0  0
  161.4150  204.0340  147.8040 C   0  0  0  0  0  0  0  0  0  0  0  0
  161.2170  205.5310  149.7300 C   0  0  0  0  0  3  0  0  0  0  0  0
  162.4110  204.9490  145.8540 O   0  0  0  0  0  0  0  0  0  0  0  0
  161.7270  206.5900  149.0820 C   0  0  0  0  0  0  0  0  0  0  0  0
  161.2240  202.6890  147.1900 C   0  0  0  0  0  1  0  0  0  0  0  0
  161.0440  204.2270  149.0700 C   0  0  0  0  0  3  0  0  0  0  0  0
  161.5790  211.2730  155.3510 N   0  0  0  0  0  0  0  0  0  0  0  0
  160.6200  211.8110  156.0350 C   0  0  0  0  0  3  0  0  0  0  0  0
  160.9180  212.6010  157.2580 C   0  0  0  0  0  2  0  0  0  0  0  0
  160.3690  213.9030  157.1310 O   0  0  0  0  0  0  0  0  0  0  0  0
  159.0120  214.0820  157.1270 C   0  0  0  0  0  0  0  0  0  0  0  0
  157.8640  214.2300  157.1260 N   0  0  0  0  0  0  0  0  0  0  0  0
  163.9620  212.1930  148.2640 O   0  0  0  0  0  0  0  0  0  0  0  0
  162.7710  212.4310  148.4090 C   0  0  0  0  0  0  0  0  0  0  0  0
  162.2270  213.7860  148.0780 C   0  0  0  0  0  2  0  0  0  0  0  0
  161.4350  213.7470  146.7810 C   0  0  0  0  0  2  0  0  0  0  0  0
  159.9470  213.7870  147.0750 C   0  0  0  0  0  2  0  0  0  0  0  0
  159.0400  213.0630  145.7240 S   0  0  0  0  0  0  0  0  0  0  0  0
  159.7770  211.8660  145.1860 O   0  0  0  0  0  0  0  0  0  0  0  0
  157.4270  212.5670  146.2970 C   0  0  0  0  0  1  0  0  0  0  0  0
  158.8830  214.0860  144.6350 O   0  0  0  0  0  0  0  0  0  0  0  0
  1 29  1  1  0  0  0
  1  2  1  0  0  0  0
  1  3  1  0  0  0  0
  3 13  1  0  0  0  0
  4  6  1  0  0  0  0
  5 10  2  0  0  0  0
  6 12  2  0  0  0  0
  7 19  1  6  0  0  0
  7  8  1  0  0  0  0
  8  4  1  0  0  0  0
  9  2  1  0  0  0  0
  9  7  1  0  0  0  0
 10 12  1  0  0  0  0
 10 22  1  0  0  0  0
 11  4  2  0  0  0  0
 11  5  1  0  0  0  0
 13 11  1  0  0  0  0
 14 15  1  0  0  0  0
 14 16  1  0  0  0  0
 15 19  1  0  0  0  0
 16 21  2  0  0  0  0
 18 14  2  0  0  0  0
 19 17  2  0  0  0  0
 20 16  1  0  0  0  0
 21 17  1  0  0  0  0
 22 23  2  0  0  0  0
 23 24  1  0  0  0  0
 25 24  1  0  0  0  0
 26 25  1  0  0  0  0
 27 26  3  0  0  0  0
 28 29  2  0  0  0  0
 30 29  1  0  0  0  0
 31 32  1  0  0  0  0
 31 30  1  0  0  0  0
 33 35  1  0  0  0  0
 33 32  1  0  0  0  0
 34 33  2  0  0  0  0
 36 33  2  0  0  0  0
M  END
>  <MODEL>
8

>  <REMARK>
 VINA RESULT:      -4.8      2.875      6.450
  Name = 
  10 active torsions:
  status: ('A' for Active; 'I' for Inactive)
    1  A    between atoms: C_2  and  O_10
    2  A    between atoms: N_3  and  C_26
    3  A    between atoms: C_4  and  C_36
    4  A    between atoms: C_7  and  S_17
    5  A    between atoms: C_7  and  C_25
    6  A    between atoms: O_10  and  C_30
    7  A    between atoms: C_15  and  C_20
    8  A    between atoms: C_25  and  C_29
    9  A    between atoms: C_29  and  C_36
   10  A    between atoms: C_30  and  C_31
                            x       y       z     vdW  Elec       q    Type
                         _______ _______ _______ _____ _____    ______ ____

>  <TORSDO>
F 10

$$$$
=
 OpenBabel11042420253D

 36 38  0  0  1  0  0  0  0  0999 V2000
  160.7470  203.6070  151.2850 C   0  0  1  0  0  3  0  0  0  0  0  0
  161.7920  204.5980  151.5120 N   0  0  0  0  0  2  0  0  0  0  0  0
  160.1210  203.7850  149.9050 C   0  0  0  0  0  2  0  0  0  0  0  0
  161.1310  207.1600  149.5570 C   0  0  0  0  0  0  0  0  0  0  0  0
  161.0040  205.6590  147.6580 C   0  0  0  0  0  3  0  0  0  0  0  0
  161.9700  208.0060  148.8250 C   0  0  0  0  0  3  0  0  0  0  0  0
  161.6530  206.9930  152.0140 C   0  0  2  0  0  3  0  0  0  0  0  0
  160.8200  207.4750  150.9140 N   0  0  0  0  0  2  0  0  0  0  0  0
  161.2430  205.5830  152.4310 C   0  0  0  0  0  2  0  0  0  0  0  0
  161.8450  206.5090  146.9200 C   0  0  0  0  0  0  0  0  0  0  0  0
  160.6370  205.9870  148.9700 C   0  0  0  0  0  0  0  0  0  0  0  0
  162.3210  207.6830  147.5110 C   0  0  0  0  0  3  0  0  0  0  0  0
  159.7900  205.1520  149.6970 O   0  0  0  0  0  0  0  0  0  0  0  0
  161.2340  208.3480  155.6490 C   0  0  0  0  0  0  0  0  0  0  0  0
  161.2180  207.3420  154.5290 C   0  0  0  0  0  2  0  0  0  0  0  0
  161.4050  209.7860  155.3680 C   0  0  0  0  0  0  0  0  0  0  0  0
  161.7240  209.2490  153.0020 C   0  0  0  0  0  3  0  0  0  0  0  0
  161.0770  207.9480  156.8330 O   0  0  0  0  0  0  0  0  0  0  0  0
  161.5560  207.9290  153.1790 C   0  0  0  0  0  0  0  0  0  0  0  0
  161.3310  210.7940  156.4650 C   0  0  0  0  0  1  0  0  0  0  0  0
  161.6320  210.2000  154.1220 C   0  0  0  0  0  3  0  0  0  0  0  0
  162.2280  206.2030  145.5750 N   0  0  0  0  0  0  0  0  0  0  0  0
  161.4020  205.7400  144.6920 C   0  0  0  0  0  3  0  0  0  0  0  0
  161.8600  205.4540  143.3080 C   0  0  0  0  0  2  0  0  0  0  0  0
  161.5810  206.5680  142.4730 O   0  0  0  0  0  0  0  0  0  0  0  0
  161.9870  206.5690  141.1670 C   0  0  0  0  0  0  0  0  0  0  0  0
  162.3330  206.5740  140.0620 N   0  0  0  0  0  0  0  0  0  0  0  0
  162.2800  202.0190  152.1340 O   0  0  0  0  0  0  0  0  0  0  0  0
  161.3020  202.2250  151.4290 C   0  0  0  0  0  0  0  0  0  0  0  0
  160.6430  201.0930  150.7030 C   0  0  0  0  0  2  0  0  0  0  0  0
  161.2060  200.9530  149.2980 C   0  0  0  0  0  2  0  0  0  0  0  0
  160.1240  201.2290  148.2710 C   0  0  0  0  0  2  0  0  0  0  0  0
  160.8310  201.2790  146.6380 S   0  0  0  0  0  0  0  0  0  0  0  0
  161.5820  200.0040  146.3580 O   0  0  0  0  0  0  0  0  0  0  0  0
  159.5310  201.4860  145.4390 C   0  0  0  0  0  1  0  0  0  0  0  0
  161.7750  202.4450  146.5480 O   0  0  0  0  0  0  0  0  0  0  0  0
  1 29  1  6  0  0  0
  1  2  1  0  0  0  0
  2  9  1  0  0  0  0
  3  1  1  0  0  0  0
  4  8  1  0  0  0  0
  5 11  2  0  0  0  0
  6  4  2  0  0  0  0
  7  9  1  0  0  0  0
  7 19  1  1  0  0  0
  8  7  1  0  0  0  0
 10 12  2  0  0  0  0
 10  5  1  0  0  0  0
 11  4  1  0  0  0  0
 11 13  1  0  0  0  0
 12  6  1  0  0  0  0
 13  3  1  0  0  0  0
 14 18  2  0  0  0  0
 15 14  1  0  0  0  0
 16 14  1  0  0  0  0
 16 20  1  0  0  0  0
 17 19  2  0  0  0  0
 17 21  1  0  0  0  0
 19 15  1  0  0  0  0
 21 16  2  0  0  0  0
 22 10  1  0  0  0  0
 23 22  2  0  0  0  0
 24 23  1  0  0  0  0
 25 24  1  0  0  0  0
 26 25  1  0  0  0  0
 27 26  3  0  0  0  0
 29 28  2  0  0  0  0
 30 29  1  0  0  0  0
 31 30  1  0  0  0  0
 32 31  1  0  0  0  0
 33 32  1  0  0  0  0
 34 33  2  0  0  0  0
 35 33  1  0  0  0  0
 36 33  2  0  0  0  0
M  END
>  <MODEL>
9

>  <REMARK>
 VINA RESULT:      -4.5      4.545      8.259
  Name = 
  10 active torsions:
  status: ('A' for Active; 'I' for Inactive)
    1  A    between atoms: C_2  and  O_10
    2  A    between atoms: N_3  and  C_26
    3  A    between atoms: C_4  and  C_36
    4  A    between atoms: C_7  and  S_17
    5  A    between atoms: C_7  and  C_25
    6  A    between atoms: O_10  and  C_30
    7  A    between atoms: C_15  and  C_20
    8  A    between atoms: C_25  and  C_29
    9  A    between atoms: C_29  and  C_36
   10  A    between atoms: C_30  and  C_31
                            x       y       z     vdW  Elec       q    Type
                         _______ _______ _______ _____ _____    ______ ____

>  <TORSDO>
F 10

$$$$
