=
 OpenBabel11052410163D

 25 27  0  0  1  0  0  0  0  0999 V2000
  161.2130  205.5300  153.4930 N   0  0  0  0  0  0  0  0  0  0  0  0
  161.1460  207.3600  151.9650 C   0  0  0  0  0  0  0  0  0  0  0  0
  161.1350  206.4590  150.9010 C   0  0  0  0  0  3  0  0  0  0  0  0
  161.1820  206.8710  153.2710 C   0  0  0  0  0  3  0  0  0  0  0  0
  161.1760  205.0780  151.1350 C   0  0  0  0  0  0  0  0  0  0  0  0
  161.2080  204.6370  152.4670 C   0  0  0  0  0  3  0  0  0  0  0  0
  161.2400  203.5710  147.6290 C   0  0  0  0  0  3  0  0  0  0  0  0
  161.4970  205.9540  148.2170 C   0  0  0  0  0  1  0  0  0  0  0  0
  160.8300  201.8740  149.2770 C   0  0  0  0  0  3  0  0  0  0  0  0
  161.0110  202.2300  147.9390 C   0  0  0  0  0  0  0  0  0  0  0  0
  160.8880  202.8200  150.2500 N   0  0  0  0  0  0  0  0  0  0  0  0
  161.1230  204.1380  149.9850 C   0  0  0  0  0  0  0  0  0  0  0  0
  161.2990  204.5360  148.6360 C   0  0  0  0  0  0  0  0  0  0  0  0
  160.9520  201.2170  146.8740 C   0  0  0  0  0  0  0  0  0  0  0  0
  160.4440  201.5470  145.6210 O   0  0  0  0  0  0  0  0  0  0  0  0
  161.3620  200.0440  147.0840 O   0  0  0  0  0  1  0  0  0  0  0  0
  161.0730  208.8290  151.7110 C   0  0  0  0  0  2  0  0  0  0  0  0
  158.3180  211.5270  153.7200 C   0  0  0  0  0  3  0  0  0  0  0  0
  158.6820  212.0690  154.8890 C   0  0  0  0  0  3  0  0  0  0  0  0
  161.4170  209.5660  152.9190 N   0  0  0  0  0  2  0  0  0  0  0  0
  160.5970  210.6030  153.4650 C   0  0  0  0  0  0  0  0  0  0  0  0
  160.9250  211.1400  154.6050 N   0  0  0  0  0  0  0  0  0  0  0  0
  160.3550  212.2680  156.6310 N   0  0  0  0  0  1  0  0  0  0  0  0
  159.3700  211.0920  152.7330 C   0  0  0  0  0  2  0  0  0  0  0  0
  160.1480  212.2350  155.1950 C   0  0  2  0  0  3  0  0  0  0  0  0
  2  4  2  0  0  0  0
  3  5  2  0  0  0  0
  3  2  1  0  0  0  0
  4  1  1  0  0  0  0
  5  6  1  0  0  0  0
  6  1  2  0  0  0  0
  7 10  2  0  0  0  0
  7 13  1  0  0  0  0
  8 13  1  0  0  0  0
  9 11  2  0  0  0  0
 10  9  1  0  0  0  0
 12 11  1  0  0  0  0
 12  5  1  0  0  0  0
 13 12  2  0  0  0  0
 14 16  1  0  0  0  0
 14 10  1  0  0  0  0
 15 14  2  0  0  0  0
 17  2  1  0  0  0  0
 17 20  1  0  0  0  0
 18 19  2  0  0  0  0
 19 25  1  0  0  0  0
 20 21  1  0  0  0  0
 21 22  2  0  0  0  0
 22 25  1  0  0  0  0
 24 21  1  0  0  0  0
 24 18  1  0  0  0  0
 25 23  1  1  0  0  0
M  END
>  <MODEL>
1

>  <REMARK>
 VINA RESULT:      -9.0      0.000      0.000
  Name = 
  4 active torsions:
  status: ('A' for Active; 'I' for Inactive)
    1  A    between atoms: C_4  and  C_16
    2  A    between atoms: C_8  and  C_9
    3  A    between atoms: C_8  and  N_13
    4  A    between atoms: C_18  and  C_20
                            x       y       z     vdW  Elec       q    Type
                         _______ _______ _______ _____ _____    ______ ____

>  <TORSDO>
F 4

$$$$
=
 OpenBabel11052410163D

 25 27  0  0  1  0  0  0  0  0999 V2000
  161.7290  208.0870  149.1280 N   0  0  0  0  0  0  0  0  0  0  0  0
  161.5000  206.9270  151.2000 C   0  0  0  0  0  0  0  0  0  0  0  0
  161.3320  205.7320  150.5020 C   0  0  0  0  0  3  0  0  0  0  0  0
  161.7030  208.1090  150.4870 C   0  0  0  0  0  3  0  0  0  0  0  0
  161.3510  205.7160  149.1010 C   0  0  0  0  0  0  0  0  0  0  0  0
  161.5630  206.9310  148.4310 C   0  0  0  0  0  3  0  0  0  0  0  0
  160.7690  202.0410  148.2510 C   0  0  0  0  0  3  0  0  0  0  0  0
  160.7130  203.0640  150.4960 C   0  0  0  0  0  1  0  0  0  0  0  0
  161.2940  203.2980  146.2740 C   0  0  0  0  0  3  0  0  0  0  0  0
  160.9650  202.0790  146.8690 C   0  0  0  0  0  0  0  0  0  0  0  0
  161.4080  204.4210  147.0310 N   0  0  0  0  0  0  0  0  0  0  0  0
  161.2100  204.4230  148.3810 C   0  0  0  0  0  0  0  0  0  0  0  0
  160.8880  203.1990  149.0200 C   0  0  0  0  0  0  0  0  0  0  0  0
  160.8370  200.8550  146.0630 C   0  0  0  0  0  0  0  0  0  0  0  0
  160.1240  200.8750  144.8690 O   0  0  0  0  0  0  0  0  0  0  0  0
  161.3730  199.7800  146.4440 O   0  0  0  0  0  1  0  0  0  0  0  0
  161.5070  206.9360  152.6920 C   0  0  0  0  0  2  0  0  0  0  0  0
  160.5670  207.7040  156.8670 C   0  0  0  0  0  3  0  0  0  0  0  0
  160.3200  208.9630  157.2520 C   0  0  0  0  0  3  0  0  0  0  0  0
  161.1030  208.2430  153.1910 N   0  0  0  0  0  2  0  0  0  0  0  0
  160.5980  208.4560  154.5110 C   0  0  0  0  0  0  0  0  0  0  0  0
  160.3580  209.6710  154.9130 N   0  0  0  0  0  0  0  0  0  0  0  0
  160.1430  211.3020  156.6440 N   0  0  0  0  0  1  0  0  0  0  0  0
  160.3240  207.2940  155.4380 C   0  0  0  0  0  2  0  0  0  0  0  0
  159.8010  209.9500  156.2410 C   0  0  2  0  0  3  0  0  0  0  0  0
  1  4  1  0  0  0  0
  2 17  1  0  0  0  0
  3  2  1  0  0  0  0
  4  2  2  0  0  0  0
  5  3  2  0  0  0  0
  6  5  1  0  0  0  0
  6  1  2  0  0  0  0
  7 13  1  0  0  0  0
  9 10  1  0  0  0  0
  9 11  2  0  0  0  0
 10  7  2  0  0  0  0
 11 12  1  0  0  0  0
 12 13  2  0  0  0  0
 12  5  1  0  0  0  0
 13  8  1  0  0  0  0
 14 16  1  0  0  0  0
 14 10  1  0  0  0  0
 15 14  2  0  0  0  0
 17 20  1  0  0  0  0
 18 19  2  0  0  0  0
 20 21  1  0  0  0  0
 21 22  2  0  0  0  0
 21 24  1  0  0  0  0
 22 25  1  0  0  0  0
 24 18  1  0  0  0  0
 25 23  1  1  0  0  0
 25 19  1  0  0  0  0
M  END
>  <MODEL>
2

>  <REMARK>
 VINA RESULT:      -8.9      1.953      2.868
  Name = 
  4 active torsions:
  status: ('A' for Active; 'I' for Inactive)
    1  A    between atoms: C_4  and  C_16
    2  A    between atoms: C_8  and  C_9
    3  A    between atoms: C_8  and  N_13
    4  A    between atoms: C_18  and  C_20
                            x       y       z     vdW  Elec       q    Type
                         _______ _______ _______ _____ _____    ______ ____

>  <TORSDO>
F 4

$$$$
=
 OpenBabel11052410163D

 25 27  0  0  1  0  0  0  0  0999 V2000
  162.0330  208.1130  149.1490 N   0  0  0  0  0  0  0  0  0  0  0  0
  161.2750  206.9230  151.0720 C   0  0  0  0  0  0  0  0  0  0  0  0
  161.1260  205.7760  150.2920 C   0  0  0  0  0  3  0  0  0  0  0  0
  161.7390  208.0960  150.4760 C   0  0  0  0  0  3  0  0  0  0  0  0
  161.4220  205.8030  148.9220 C   0  0  0  0  0  0  0  0  0  0  0  0
  161.8890  207.0070  148.3720 C   0  0  0  0  0  3  0  0  0  0  0  0
  161.4080  203.2660  146.0710 C   0  0  0  0  0  3  0  0  0  0  0  0
  161.9210  205.6740  145.9020 C   0  0  0  0  0  1  0  0  0  0  0  0
  160.7610  202.2270  148.1360 C   0  0  0  0  0  3  0  0  0  0  0  0
  161.0180  202.1220  146.7680 C   0  0  0  0  0  0  0  0  0  0  0  0
  160.9000  203.4210  148.7680 N   0  0  0  0  0  0  0  0  0  0  0  0
  161.2930  204.5570  148.1210 C   0  0  0  0  0  0  0  0  0  0  0  0
  161.5500  204.4890  146.7280 C   0  0  0  0  0  0  0  0  0  0  0  0
  160.8720  200.8350  146.0690 C   0  0  0  0  0  0  0  0  0  0  0  0
  160.1460  200.7590  144.8860 O   0  0  0  0  0  0  0  0  0  0  0  0
  161.4040  199.7920  146.5340 O   0  0  0  0  0  1  0  0  0  0  0  0
  160.9860  206.8830  152.5350 C   0  0  0  0  0  2  0  0  0  0  0  0
  160.7500  207.6500  156.8080 C   0  0  0  0  0  3  0  0  0  0  0  0
  161.0350  208.8780  157.2610 C   0  0  0  0  0  3  0  0  0  0  0  0
  161.1540  208.2070  153.1180 N   0  0  0  0  0  2  0  0  0  0  0  0
  160.8760  208.5000  154.4900 C   0  0  0  0  0  0  0  0  0  0  0  0
  161.1530  209.6840  154.9560 N   0  0  0  0  0  0  0  0  0  0  0  0
  161.7170  211.1480  156.7560 N   0  0  0  0  0  1  0  0  0  0  0  0
  160.2550  207.4650  155.3970 C   0  0  0  0  0  2  0  0  0  0  0  0
  160.8530  210.0580  156.3420 C   0  0  2  0  0  3  0  0  0  0  0  0
  1  4  1  0  0  0  0
  2 17  1  0  0  0  0
  3  2  1  0  0  0  0
  4  2  2  0  0  0  0
  5  3  2  0  0  0  0
  6  5  1  0  0  0  0
  6  1  2  0  0  0  0
  7 13  2  0  0  0  0
  7 10  1  0  0  0  0
  8 13  1  0  0  0  0
  9 11  1  0  0  0  0
 10  9  2  0  0  0  0
 12 11  2  0  0  0  0
 12  5  1  0  0  0  0
 13 12  1  0  0  0  0
 14 16  1  0  0  0  0
 14 10  1  0  0  0  0
 15 14  2  0  0  0  0
 17 20  1  0  0  0  0
 18 19  2  0  0  0  0
 20 21  1  0  0  0  0
 21 22  2  0  0  0  0
 21 24  1  0  0  0  0
 22 25  1  0  0  0  0
 24 18  1  0  0  0  0
 25 23  1  1  0  0  0
 25 19  1  0  0  0  0
M  END
>  <MODEL>
3

>  <REMARK>
 VINA RESULT:      -8.7      1.922      2.729
  Name = 
  4 active torsions:
  status: ('A' for Active; 'I' for Inactive)
    1  A    between atoms: C_4  and  C_16
    2  A    between atoms: C_8  and  C_9
    3  A    between atoms: C_8  and  N_13
    4  A    between atoms: C_18  and  C_20
                            x       y       z     vdW  Elec       q    Type
                         _______ _______ _______ _____ _____    ______ ____

>  <TORSDO>
F 4

$$$$
=
 OpenBabel11052410163D

 25 27  0  0  1  0  0  0  0  0999 V2000
  161.3250  208.4460  150.9630 N   0  0  0  0  0  0  0  0  0  0  0  0
  161.2220  207.1180  152.9410 C   0  0  0  0  0  0  0  0  0  0  0  0
  161.1530  205.9690  152.1550 C   0  0  0  0  0  3  0  0  0  0  0  0
  161.3120  208.3640  152.3190 C   0  0  0  0  0  3  0  0  0  0  0  0
  161.1580  206.0600  150.7570 C   0  0  0  0  0  0  0  0  0  0  0  0
  161.2540  207.3360  150.1810 C   0  0  0  0  0  3  0  0  0  0  0  0
  160.8800  202.4240  149.6310 C   0  0  0  0  0  3  0  0  0  0  0  0
  160.7370  203.2670  151.9460 C   0  0  0  0  0  1  0  0  0  0  0  0
  161.3020  203.8640  147.7580 C   0  0  0  0  0  3  0  0  0  0  0  0
  161.0730  202.5810  148.2580 C   0  0  0  0  0  0  0  0  0  0  0  0
  161.3220  204.9320  148.5970 N   0  0  0  0  0  0  0  0  0  0  0  0
  161.1240  204.8170  149.9420 C   0  0  0  0  0  0  0  0  0  0  0  0
  160.9020  203.5270  150.4860 C   0  0  0  0  0  0  0  0  0  0  0  0
  161.0470  201.4140  147.3620 C   0  0  0  0  0  0  0  0  0  0  0  0
  161.4610  200.1690  147.8220 O   0  0  0  0  0  1  0  0  0  0  0  0
  160.6480  201.5310  146.1730 O   0  0  0  0  0  0  0  0  0  0  0  0
  161.2460  207.0150  154.4300 C   0  0  0  0  0  2  0  0  0  0  0  0
  162.0170  210.8930  156.2390 C   0  0  0  0  0  3  0  0  0  0  0  0
  160.9770  211.6370  156.6400 C   0  0  0  0  0  3  0  0  0  0  0  0
  160.2000  207.8470  155.0090 N   0  0  0  0  0  2  0  0  0  0  0  0
  160.4690  209.0190  155.7830 C   0  0  0  0  0  0  0  0  0  0  0  0
  159.4760  209.7640  156.1770 N   0  0  0  0  0  0  0  0  0  0  0  0
  158.5740  211.8720  156.8410 N   0  0  0  0  0  1  0  0  0  0  0  0
  161.8820  209.3940  156.1630 C   0  0  0  0  0  2  0  0  0  0  0  0
  159.6860  210.9540  157.0070 C   0  0  2  0  0  3  0  0  0  0  0  0
  1  4  1  0  0  0  0
  2 17  1  0  0  0  0
  3  2  1  0  0  0  0
  4  2  2  0  0  0  0
  5  3  2  0  0  0  0
  6  5  1  0  0  0  0
  6  1  2  0  0  0  0
  7 13  1  0  0  0  0
  9 10  1  0  0  0  0
  9 11  2  0  0  0  0
 10  7  2  0  0  0  0
 11 12  1  0  0  0  0
 12 13  2  0  0  0  0
 12  5  1  0  0  0  0
 13  8  1  0  0  0  0
 14 15  1  0  0  0  0
 14 10  1  0  0  0  0
 16 14  2  0  0  0  0
 17 20  1  0  0  0  0
 18 19  2  0  0  0  0
 19 25  1  0  0  0  0
 20 21  1  0  0  0  0
 21 24  1  0  0  0  0
 21 22  2  0  0  0  0
 22 25  1  0  0  0  0
 24 18  1  0  0  0  0
 25 23  1  6  0  0  0
M  END
>  <MODEL>
4

>  <REMARK>
 VINA RESULT:      -8.7      1.846      2.718
  Name = 
  4 active torsions:
  status: ('A' for Active; 'I' for Inactive)
    1  A    between atoms: C_4  and  C_16
    2  A    between atoms: C_8  and  C_9
    3  A    between atoms: C_8  and  N_13
    4  A    between atoms: C_18  and  C_20
                            x       y       z     vdW  Elec       q    Type
                         _______ _______ _______ _____ _____    ______ ____

>  <TORSDO>
F 4

$$$$
=
 OpenBabel11052410163D

 25 27  0  0  1  0  0  0  0  0999 V2000
  161.2050  205.6540  153.5120 N   0  0  0  0  0  0  0  0  0  0  0  0
  160.9900  207.7930  152.4800 C   0  0  0  0  0  0  0  0  0  0  0  0
  161.0920  207.1880  151.2270 C   0  0  0  0  0  3  0  0  0  0  0  0
  161.0450  206.9990  153.6260 C   0  0  0  0  0  3  0  0  0  0  0  0
  161.2650  205.8020  151.1170 C   0  0  0  0  0  0  0  0  0  0  0  0
  161.3110  205.0480  152.3000 C   0  0  0  0  0  3  0  0  0  0  0  0
  161.1990  203.3100  148.2270 C   0  0  0  0  0  3  0  0  0  0  0  0
  160.8750  202.8040  150.6210 C   0  0  0  0  0  1  0  0  0  0  0  0
  161.6870  205.5220  147.4310 C   0  0  0  0  0  3  0  0  0  0  0  0
  161.4760  204.1680  147.1620 C   0  0  0  0  0  0  0  0  0  0  0  0
  161.6130  205.9850  148.7060 N   0  0  0  0  0  0  0  0  0  0  0  0
  161.3320  205.1770  149.7700 C   0  0  0  0  0  0  0  0  0  0  0  0
  161.1240  203.7950  149.5340 C   0  0  0  0  0  0  0  0  0  0  0  0
  161.5520  203.6510  145.7870 C   0  0  0  0  0  0  0  0  0  0  0  0
  160.8260  202.5220  145.4220 O   0  0  0  0  0  1  0  0  0  0  0  0
  162.2720  204.2260  144.9270 O   0  0  0  0  0  0  0  0  0  0  0  0
  160.7760  209.2650  152.5920 C   0  0  0  0  0  2  0  0  0  0  0  0
  157.7330  212.1810  153.6600 C   0  0  0  0  0  3  0  0  0  0  0  0
  157.4360  212.3600  154.9540 C   0  0  0  0  0  3  0  0  0  0  0  0
  160.4650  209.6260  153.9690 N   0  0  0  0  0  2  0  0  0  0  0  0
  159.6190  210.7240  154.3190 C   0  0  0  0  0  0  0  0  0  0  0  0
  159.3070  210.9140  155.5690 N   0  0  0  0  0  0  0  0  0  0  0  0
  157.8370  211.7370  157.2610 N   0  0  0  0  0  1  0  0  0  0  0  0
  159.0940  211.6710  153.2650 C   0  0  0  0  0  2  0  0  0  0  0  0
  158.4770  212.0450  155.9950 C   0  0  2  0  0  3  0  0  0  0  0  0
  1  4  1  0  0  0  0
  2 17  1  0  0  0  0
  2  4  2  0  0  0  0
  3  2  1  0  0  0  0
  5  3  2  0  0  0  0
  5  6  1  0  0  0  0
  6  1  2  0  0  0  0
  7 13  1  0  0  0  0
  9 11  2  0  0  0  0
 10  9  1  0  0  0  0
 10  7  2  0  0  0  0
 11 12  1  0  0  0  0
 12  5  1  0  0  0  0
 13 12  2  0  0  0  0
 13  8  1  0  0  0  0
 14 10  1  0  0  0  0
 15 14  1  0  0  0  0
 16 14  2  0  0  0  0
 17 20  1  0  0  0  0
 18 19  2  0  0  0  0
 19 25  1  0  0  0  0
 20 21  1  0  0  0  0
 21 22  2  0  0  0  0
 22 25  1  0  0  0  0
 24 18  1  0  0  0  0
 24 21  1  0  0  0  0
 25 23  1  1  0  0  0
M  END
>  <MODEL>
5

>  <REMARK>
 VINA RESULT:      -8.6      1.499      2.094
  Name = 
  4 active torsions:
  status: ('A' for Active; 'I' for Inactive)
    1  A    between atoms: C_4  and  C_16
    2  A    between atoms: C_8  and  C_9
    3  A    between atoms: C_8  and  N_13
    4  A    between atoms: C_18  and  C_20
                            x       y       z     vdW  Elec       q    Type
                         _______ _______ _______ _____ _____    ______ ____

>  <TORSDO>
F 4

$$$$
=
 OpenBabel11052410163D

 25 27  0  0  1  0  0  0  0  0999 V2000
  161.1770  205.7470  153.8610 N   0  0  0  0  0  0  0  0  0  0  0  0
  161.0040  208.0880  153.4350 C   0  0  0  0  0  0  0  0  0  0  0  0
  161.0840  207.8350  152.0660 C   0  0  0  0  0  3  0  0  0  0  0  0
  161.0500  207.0170  154.3290 C   0  0  0  0  0  3  0  0  0  0  0  0
  161.2240  206.5240  151.5900 C   0  0  0  0  0  0  0  0  0  0  0  0
  161.2610  205.4830  152.5300 C   0  0  0  0  0  3  0  0  0  0  0  0
  161.2020  204.8690  148.1510 C   0  0  0  0  0  3  0  0  0  0  0  0
  161.0560  203.7330  150.3370 C   0  0  0  0  0  1  0  0  0  0  0  0
  161.4590  207.2470  147.9480 C   0  0  0  0  0  3  0  0  0  0  0  0
  161.3450  205.9950  147.3400 C   0  0  0  0  0  0  0  0  0  0  0  0
  161.4180  207.3560  149.3020 N   0  0  0  0  0  0  0  0  0  0  0  0
  161.2660  206.2780  150.1240 C   0  0  0  0  0  0  0  0  0  0  0  0
  161.1610  204.9900  149.5410 C   0  0  0  0  0  0  0  0  0  0  0  0
  161.3860  205.8610  145.8760 C   0  0  0  0  0  0  0  0  0  0  0  0
  160.2700  206.1830  145.1120 O   0  0  0  0  0  0  0  0  0  0  0  0
  162.4310  205.4550  145.3000 O   0  0  0  0  0  1  0  0  0  0  0  0
  160.8260  209.4820  153.9370 C   0  0  0  0  0  2  0  0  0  0  0  0
  158.1250  212.8690  153.5650 C   0  0  0  0  0  3  0  0  0  0  0  0
  158.3260  213.7490  152.5760 C   0  0  0  0  0  3  0  0  0  0  0  0
  160.8790  210.4260  152.8290 N   0  0  0  0  0  2  0  0  0  0  0  0
  159.8730  211.4140  152.5920 C   0  0  0  0  0  0  0  0  0  0  0  0
  160.0480  212.2870  151.6430 N   0  0  0  0  0  0  0  0  0  0  0  0
  159.6580  214.4330  150.6710 N   0  0  0  0  0  1  0  0  0  0  0  0
  158.6060  211.4480  153.4160 C   0  0  0  0  0  2  0  0  0  0  0  0
  159.0340  213.2980  151.3250 C   0  0  2  0  0  3  0  0  0  0  0  0
  1  4  1  0  0  0  0
  2 17  1  0  0  0  0
  2  4  2  0  0  0  0
  3  2  1  0  0  0  0
  5  3  2  0  0  0  0
  5  6  1  0  0  0  0
  6  1  2  0  0  0  0
  7 13  1  0  0  0  0
  9 11  2  0  0  0  0
 10  9  1  0  0  0  0
 10  7  2  0  0  0  0
 11 12  1  0  0  0  0
 12  5  1  0  0  0  0
 13 12  2  0  0  0  0
 13  8  1  0  0  0  0
 14 10  1  0  0  0  0
 15 14  2  0  0  0  0
 16 14  1  0  0  0  0
 19 18  2  0  0  0  0
 20 17  1  0  0  0  0
 21 20  1  0  0  0  0
 21 24  1  0  0  0  0
 22 21  2  0  0  0  0
 24 18  1  0  0  0  0
 25 23  1  1  0  0  0
 25 22  1  0  0  0  0
 25 19  1  0  0  0  0
M  END
>  <MODEL>
6

>  <REMARK>
 VINA RESULT:      -8.6      2.403      3.236
  Name = 
  4 active torsions:
  status: ('A' for Active; 'I' for Inactive)
    1  A    between atoms: C_4  and  C_16
    2  A    between atoms: C_8  and  C_9
    3  A    between atoms: C_8  and  N_13
    4  A    between atoms: C_18  and  C_20
                            x       y       z     vdW  Elec       q    Type
                         _______ _______ _______ _____ _____    ______ ____

>  <TORSDO>
F 4

$$$$
=
 OpenBabel11052410163D

 25 27  0  0  1  0  0  0  0  0999 V2000
  161.1740  206.2880  153.5030 N   0  0  0  0  0  0  0  0  0  0  0  0
  161.0700  208.3720  152.3480 C   0  0  0  0  0  0  0  0  0  0  0  0
  161.1720  207.6940  151.1340 C   0  0  0  0  0  3  0  0  0  0  0  0
  161.0690  207.6430  153.5370 C   0  0  0  0  0  3  0  0  0  0  0  0
  161.2890  206.2980  151.1050 C   0  0  0  0  0  0  0  0  0  0  0  0
  161.2790  205.6110  152.3280 C   0  0  0  0  0  3  0  0  0  0  0  0
  161.1590  203.6550  148.3540 C   0  0  0  0  0  3  0  0  0  0  0  0
  160.7410  203.3030  150.7610 C   0  0  0  0  0  1  0  0  0  0  0  0
  161.7940  205.7880  147.4540 C   0  0  0  0  0  3  0  0  0  0  0  0
  161.5130  204.4360  147.2530 C   0  0  0  0  0  0  0  0  0  0  0  0
  161.7110  206.3260  148.6990 N   0  0  0  0  0  0  0  0  0  0  0  0
  161.3560  205.5960  149.7960 C   0  0  0  0  0  0  0  0  0  0  0  0
  161.0760  204.2160  149.6300 C   0  0  0  0  0  0  0  0  0  0  0  0
  161.5960  203.8390  145.9110 C   0  0  0  0  0  0  0  0  0  0  0  0
  161.1440  202.5420  145.6920 O   0  0  0  0  0  1  0  0  0  0  0  0
  162.0750  204.4960  144.9480 O   0  0  0  0  0  0  0  0  0  0  0  0
  160.9160  209.8560  152.3740 C   0  0  0  0  0  2  0  0  0  0  0  0
  158.5840  213.4740  151.7580 C   0  0  0  0  0  3  0  0  0  0  0  0
  157.4940  213.6750  152.5090 C   0  0  0  0  0  3  0  0  0  0  0  0
  159.7890  210.2320  153.2170 N   0  0  0  0  0  2  0  0  0  0  0  0
  159.1520  211.5100  153.1490 C   0  0  0  0  0  0  0  0  0  0  0  0
  158.0850  211.7280  153.8640 N   0  0  0  0  0  0  0  0  0  0  0  0
  156.0230  212.8660  154.2570 N   0  0  0  0  0  1  0  0  0  0  0  0
  159.7060  212.6120  152.2760 C   0  0  0  0  0  2  0  0  0  0  0  0
  157.4120  213.0310  153.8680 C   0  0  2  0  0  3  0  0  0  0  0  0
  1  4  1  0  0  0  0
  2 17  1  0  0  0  0
  2  4  2  0  0  0  0
  3  2  1  0  0  0  0
  5  3  2  0  0  0  0
  5  6  1  0  0  0  0
  6  1  2  0  0  0  0
  7 13  1  0  0  0  0
  9 11  2  0  0  0  0
 10  9  1  0  0  0  0
 10  7  2  0  0  0  0
 11 12  1  0  0  0  0
 12  5  1  0  0  0  0
 13 12  2  0  0  0  0
 13  8  1  0  0  0  0
 14 10  1  0  0  0  0
 15 14  1  0  0  0  0
 16 14  2  0  0  0  0
 17 20  1  0  0  0  0
 18 24  1  0  0  0  0
 18 19  2  0  0  0  0
 19 25  1  0  0  0  0
 21 20  1  0  0  0  0
 21 22  2  0  0  0  0
 22 25  1  0  0  0  0
 24 21  1  0  0  0  0
 25 23  1  6  0  0  0
M  END
>  <MODEL>
7

>  <REMARK>
 VINA RESULT:      -8.6      1.999      2.615
  Name = 
  4 active torsions:
  status: ('A' for Active; 'I' for Inactive)
    1  A    between atoms: C_4  and  C_16
    2  A    between atoms: C_8  and  C_9
    3  A    between atoms: C_8  and  N_13
    4  A    between atoms: C_18  and  C_20
                            x       y       z     vdW  Elec       q    Type
                         _______ _______ _______ _____ _____    ______ ____

>  <TORSDO>
F 4

$$$$
=
 OpenBabel11052410163D

 25 27  0  0  1  0  0  0  0  0999 V2000
  162.2280  209.4230  150.8400 N   0  0  0  0  0  0  0  0  0  0  0  0
  161.1800  208.6070  152.8210 C   0  0  0  0  0  0  0  0  0  0  0  0
  161.0180  207.3630  152.2110 C   0  0  0  0  0  3  0  0  0  0  0  0
  161.7980  209.6370  152.1120 C   0  0  0  0  0  3  0  0  0  0  0  0
  161.4540  207.1510  150.8960 C   0  0  0  0  0  0  0  0  0  0  0  0
  162.0740  208.2190  150.2280 C   0  0  0  0  0  3  0  0  0  0  0  0
  160.9850  203.4020  150.3590 C   0  0  0  0  0  3  0  0  0  0  0  0
  161.1200  204.5780  152.5250 C   0  0  0  0  0  1  0  0  0  0  0  0
  161.2180  204.5390  148.2580 C   0  0  0  0  0  3  0  0  0  0  0  0
  161.0240  203.3510  148.9650 C   0  0  0  0  0  0  0  0  0  0  0  0
  161.3530  205.7160  148.9220 N   0  0  0  0  0  0  0  0  0  0  0  0
  161.3060  205.8050  150.2830 C   0  0  0  0  0  0  0  0  0  0  0  0
  161.1240  204.6160  151.0330 C   0  0  0  0  0  0  0  0  0  0  0  0
  160.8750  202.0690  148.2600 C   0  0  0  0  0  0  0  0  0  0  0  0
  160.7710  200.8830  148.9790 O   0  0  0  0  0  1  0  0  0  0  0  0
  160.8390  202.0320  147.0010 O   0  0  0  0  0  0  0  0  0  0  0  0
  160.7400  208.8200  154.2300 C   0  0  0  0  0  2  0  0  0  0  0  0
  157.8360  211.5140  156.0240 C   0  0  0  0  0  3  0  0  0  0  0  0
  158.2560  212.6940  156.4970 C   0  0  0  0  0  3  0  0  0  0  0  0
  161.0660  210.1720  154.6610 N   0  0  0  0  0  2  0  0  0  0  0  0
  160.0800  211.1280  155.0590 C   0  0  0  0  0  0  0  0  0  0  0  0
  160.4630  212.2800  155.5300 N   0  0  0  0  0  0  0  0  0  0  0  0
  160.1030  214.2150  156.8810 N   0  0  0  0  0  1  0  0  0  0  0  0
  158.6050  210.8270  154.9250 C   0  0  0  0  0  2  0  0  0  0  0  0
  159.4990  213.3160  155.9160 C   0  0  2  0  0  3  0  0  0  0  0  0
  1  4  1  0  0  0  0
  2 17  1  0  0  0  0
  3  2  1  0  0  0  0
  4  2  2  0  0  0  0
  5  3  2  0  0  0  0
  6  1  2  0  0  0  0
  6  5  1  0  0  0  0
  7 13  1  0  0  0  0
  9 11  2  0  0  0  0
  9 10  1  0  0  0  0
 10  7  2  0  0  0  0
 11 12  1  0  0  0  0
 12  5  1  0  0  0  0
 12 13  2  0  0  0  0
 13  8  1  0  0  0  0
 14 10  1  0  0  0  0
 14 15  1  0  0  0  0
 16 14  2  0  0  0  0
 17 20  1  0  0  0  0
 18 19  2  0  0  0  0
 20 21  1  0  0  0  0
 21 22  2  0  0  0  0
 22 25  1  0  0  0  0
 24 21  1  0  0  0  0
 24 18  1  0  0  0  0
 25 19  1  0  0  0  0
 25 23  1  1  0  0  0
M  END
>  <MODEL>
8

>  <REMARK>
 VINA RESULT:      -8.4      1.657      2.627
  Name = 
  4 active torsions:
  status: ('A' for Active; 'I' for Inactive)
    1  A    between atoms: C_4  and  C_16
    2  A    between atoms: C_8  and  C_9
    3  A    between atoms: C_8  and  N_13
    4  A    between atoms: C_18  and  C_20
                            x       y       z     vdW  Elec       q    Type
                         _______ _______ _______ _____ _____    ______ ____

>  <TORSDO>
F 4

$$$$
=
 OpenBabel11052410163D

 25 27  0  0  1  0  0  0  0  0999 V2000
  162.0580  209.4070  148.7090 N   0  0  0  0  0  0  0  0  0  0  0  0
  161.8910  209.2940  151.0860 C   0  0  0  0  0  0  0  0  0  0  0  0
  161.6220  207.9280  150.9930 C   0  0  0  0  0  3  0  0  0  0  0  0
  162.1130  210.0250  149.9190 C   0  0  0  0  0  3  0  0  0  0  0  0
  161.5580  207.2980  149.7420 C   0  0  0  0  0  0  0  0  0  0  0  0
  161.7920  208.0780  148.6000 C   0  0  0  0  0  3  0  0  0  0  0  0
  160.8810  203.6500  150.6370 C   0  0  0  0  0  3  0  0  0  0  0  0
  161.2060  205.5210  152.2130 C   0  0  0  0  0  1  0  0  0  0  0  0
  161.0360  203.9270  148.2580 C   0  0  0  0  0  3  0  0  0  0  0  0
  160.8320  203.0930  149.3580 C   0  0  0  0  0  0  0  0  0  0  0  0
  161.2670  205.2540  148.4380 N   0  0  0  0  0  0  0  0  0  0  0  0
  161.3090  205.8340  149.6720 C   0  0  0  0  0  0  0  0  0  0  0  0
  161.1180  205.0150  150.8130 C   0  0  0  0  0  0  0  0  0  0  0  0
  160.5790  201.6550  149.1790 C   0  0  0  0  0  0  0  0  0  0  0  0
  161.5220  200.8520  148.5470 O   0  0  0  0  0  0  0  0  0  0  0  0
  159.5100  201.1370  149.5980 O   0  0  0  0  0  1  0  0  0  0  0  0
  161.9870  209.9550  152.4200 C   0  0  0  0  0  2  0  0  0  0  0  0
  160.1860  209.9450  156.3780 C   0  0  0  0  0  3  0  0  0  0  0  0
  159.1040  210.7040  156.5970 C   0  0  0  0  0  3  0  0  0  0  0  0
  160.7420  210.6430  152.7310 N   0  0  0  0  0  2  0  0  0  0  0  0
  160.0410  210.4760  153.9670 C   0  0  0  0  0  0  0  0  0  0  0  0
  158.9920  211.2080  154.2080 N   0  0  0  0  0  0  0  0  0  0  0  0
  157.4890  212.2820  155.7210 N   0  0  0  0  0  1  0  0  0  0  0  0
  160.4920  209.4560  154.9860 C   0  0  0  0  0  2  0  0  0  0  0  0
  158.2080  211.0540  155.4380 C   0  0  2  0  0  3  0  0  0  0  0  0
  1  4  1  0  0  0  0
  2 17  1  0  0  0  0
  3  2  1  0  0  0  0
  4  2  2  0  0  0  0
  5  3  2  0  0  0  0
  6  1  2  0  0  0  0
  6  5  1  0  0  0  0
  7 13  1  0  0  0  0
  9 11  2  0  0  0  0
  9 10  1  0  0  0  0
 10  7  2  0  0  0  0
 11 12  1  0  0  0  0
 12  5  1  0  0  0  0
 12 13  2  0  0  0  0
 13  8  1  0  0  0  0
 14 10  1  0  0  0  0
 14 16  1  0  0  0  0
 15 14  2  0  0  0  0
 17 20  1  0  0  0  0
 18 19  2  0  0  0  0
 20 21  1  0  0  0  0
 21 22  2  0  0  0  0
 21 24  1  0  0  0  0
 22 25  1  0  0  0  0
 24 18  1  0  0  0  0
 25 23  1  1  0  0  0
 25 19  1  0  0  0  0
M  END
>  <MODEL>
9

>  <REMARK>
 VINA RESULT:      -8.4      1.971      3.033
  Name = 
  4 active torsions:
  status: ('A' for Active; 'I' for Inactive)
    1  A    between atoms: C_4  and  C_16
    2  A    between atoms: C_8  and  C_9
    3  A    between atoms: C_8  and  N_13
    4  A    between atoms: C_18  and  C_20
                            x       y       z     vdW  Elec       q    Type
                         _______ _______ _______ _____ _____    ______ ____

>  <TORSDO>
F 4

$$$$
