=
 OpenBabel11052411433D

 42 47  0  0  1  0  0  0  0  0999 V2000
  160.6970  211.2470  152.7730 C   0  0  1  0  0  3  0  0  0  0  0  0
  155.6840  213.2920  154.6060 C   0  0  0  0  0  1  0  0  0  0  0  0
  157.3040  211.4390  154.4820 C   0  0  0  0  0  2  0  0  0  0  0  0
  160.0760  212.1660  154.8520 C   0  0  2  0  0  3  0  0  0  0  0  0
  158.9690  212.9540  156.7620 C   0  0  0  0  0  2  0  0  0  0  0  0
  157.6540  213.4100  156.1460 C   0  0  0  0  0  0  0  0  0  0  0  0
  157.1450  214.4530  156.6390 O   0  0  0  0  0  0  0  0  0  0  0  0
  159.5220  211.7100  156.1240 C   0  0  2  0  0  3  0  0  0  0  0  0
  158.3820  211.5680  153.3920 C   0  0  0  0  0  2  0  0  0  0  0  0
  159.7160  211.1490  153.8730 N   0  0  0  0  0  0  0  0  0  0  0  0
  160.9750  211.6950  155.9210 N   0  0  0  0  0  2  0  0  0  0  0  0
  156.9580  212.7450  155.0510 N   0  0  0  0  0  0  0  0  0  0  0  0
  160.8480  207.6960  152.3600 C   0  0  0  0  0  2  0  0  0  0  0  0
  160.0120  208.9950  154.1900 O   0  0  0  0  0  1  0  0  0  0  0  0
  161.7410  208.0390  151.1820 C   0  0  2  0  0  3  0  0  0  0  0  0
  161.1400  208.7610  153.3930 C   0  0  2  0  0  3  0  0  0  0  0  0
  161.8550  209.5520  151.1750 C   0  0  0  0  0  2  0  0  0  0  0  0
  161.5940  209.9940  152.6100 C   0  0  1  0  0  3  0  0  0  0  0  0
  161.1370  207.5500  149.8690 C   0  0  0  0  0  2  0  0  0  0  0  0
  162.4110  206.8490  147.8220 C   0  0  0  0  0  2  0  0  0  0  0  0
  162.1000  205.6340  146.9560 C   0  0  0  0  0  2  0  0  0  0  0  0
  161.2140  205.2370  149.1040 N   0  0  1  0  0  0  0  0  0  0  0  0
  161.8690  204.5710  148.0000 C   0  0  1  0  0  3  0  0  0  0  0  0
  161.0770  203.3600  147.6150 C   0  0  0  0  0  0  0  0  0  0  0  0
  160.7850  203.1180  146.4520 O   0  0  0  0  0  0  0  0  0  0  0  0
  161.3490  204.3680  150.2680 C   0  0  0  0  0  2  0  0  0  0  0  0
  160.7190  202.4020  148.7250 C   0  0  2  0  0  3  0  0  0  0  0  0
  161.9930  206.4560  149.2420 C   0  0  2  0  0  3  0  0  0  0  0  0
  160.4420  203.1400  150.0580 C   0  0  0  0  0  2  0  0  0  0  0  0
  161.7590  201.4830  148.9000 O   0  0  0  0  0  0  0  0  0  0  0  0
  161.4440  200.4180  148.0500 C   0  0  0  0  0  1  0  0  0  0  0  0
  160.3690  213.8980  151.5850 O   0  0  0  0  0  0  0  0  0  0  0  0
  159.8650  212.9050  150.9890 C   0  0  0  0  0  0  0  0  0  0  0  0
  160.0850  211.5720  151.4770 N   0  0  0  0  0  2  0  0  0  0  0  0
  159.0380  213.1360  149.7520 C   0  0  1  0  0  3  0  0  0  0  0  0
  159.4020  214.4530  149.0870 C   0  0  0  0  0  2  0  0  0  0  0  0
  159.8370  213.1530  148.4340 C   0  0  1  0  0  3  0  0  0  0  0  0
  161.3520  212.9660  148.5900 C   0  0  1  0  0  3  0  0  0  0  0  0
  161.6850  211.6450  148.2740 O   0  0  0  0  0  1  0  0  0  0  0  0
  162.1170  213.9020  147.6680 C   0  0  0  0  0  2  0  0  0  0  0  0
  162.3970  213.2290  146.3300 C   0  0  0  0  0  2  0  0  0  0  0  0
  161.3730  213.5360  145.4340 O   0  0  0  0  0  1  0  0  0  0  0  0
  1 34  1  6  0  0  0
  1 10  1  0  0  0  0
  2 12  1  0  0  0  0
  3 12  1  0  0  0  0
  4 11  1  1  0  0  0
  4  8  1  0  0  0  0
  6  7  2  0  0  0  0
  6  5  1  0  0  0  0
  8  5  1  1  0  0  0
  9 10  1  0  0  0  0
  9  3  1  0  0  0  0
 10  4  1  0  0  0  0
 11  8  1  0  0  0  0
 12  6  1  0  0  0  0
 13 16  1  0  0  0  0
 15 19  1  6  0  0  0
 15 13  1  0  0  0  0
 16 14  1  6  0  0  0
 17 15  1  0  0  0  0
 17 18  1  0  0  0  0
 18  1  1  6  0  0  0
 18 16  1  0  0  0  0
 20 28  1  0  0  0  0
 21 20  1  0  0  0  0
 22 28  1  0  0  0  0
 22 26  1  1  0  0  0
 23 21  1  6  0  0  0
 23 22  1  0  0  0  0
 24 23  1  0  0  0  0
 24 27  1  0  0  0  0
 25 24  2  0  0  0  0
 27 30  1  1  0  0  0
 27 29  1  0  0  0  0
 28 19  1  6  0  0  0
 29 26  1  0  0  0  0
 31 30  1  0  0  0  0
 33 34  1  0  0  0  0
 33 32  2  0  0  0  0
 35 33  1  1  0  0  0
 36 35  1  0  0  0  0
 37 38  1  1  0  0  0
 37 36  1  0  0  0  0
 37 35  1  0  0  0  0
 38 39  1  6  0  0  0
 40 38  1  0  0  0  0
 41 40  1  0  0  0  0
 42 41  1  0  0  0  0
M  END
>  <MODEL>
1

>  <REMARK>
 VINA RESULT:      -6.9      0.000      0.000
  Name = 
  10 active torsions:
  status: ('A' for Active; 'I' for Inactive)
    1  A    between atoms: C_6  and  C_10
    2  A    between atoms: C_6  and  C_42
    3  A    between atoms: C_8  and  C_21
    4  A    between atoms: C_10  and  C_22
    5  A    between atoms: C_14  and  C_16
    6  A    between atoms: C_14  and  C_37
    7  A    between atoms: O_20  and  C_36
    8  A    between atoms: C_24  and  N_26
    9  A    between atoms: C_24  and  C_32
   10  A    between atoms: C_24  and  N_38
                            x       y       z     vdW  Elec       q    Type
                         _______ _______ _______ _____ _____    ______ ____

>  <TORSDO>
F 10

$$$$
=
 OpenBabel11052411433D

 42 47  0  0  1  0  0  0  0  0999 V2000
  160.6740  211.9550  149.2950 C   0  0  1  0  0  3  0  0  0  0  0  0
  159.4630  212.5930  143.7450 C   0  0  0  0  0  1  0  0  0  0  0  0
  159.7430  213.5820  145.9860 C   0  0  0  0  0  2  0  0  0  0  0  0
  162.0250  212.6510  147.4940 C   0  0  2  0  0  3  0  0  0  0  0  0
  162.9030  213.4510  145.4720 C   0  0  0  0  0  2  0  0  0  0  0  0
  161.8100  213.0130  144.5090 C   0  0  0  0  0  0  0  0  0  0  0  0
  162.1970  212.6260  143.3730 O   0  0  0  0  0  0  0  0  0  0  0  0
  162.3720  213.8930  146.8090 C   0  0  2  0  0  3  0  0  0  0  0  0
  159.7340  212.5870  147.1580 C   0  0  0  0  0  2  0  0  0  0  0  0
  160.7620  212.9110  148.1730 N   0  0  0  0  0  0  0  0  0  0  0  0
  163.1550  213.4660  147.9740 N   0  0  0  0  0  2  0  0  0  0  0  0
  160.3800  213.0060  144.7980 N   0  0  0  0  0  0  0  0  0  0  0  0
  161.7210  208.7220  150.4160 C   0  0  0  0  0  2  0  0  0  0  0  0
  161.2200  210.6970  151.6760 O   0  0  0  0  0  1  0  0  0  0  0  0
  162.0090  208.4900  148.9450 C   0  0  2  0  0  3  0  0  0  0  0  0
  162.0200  210.1870  150.6450 C   0  0  2  0  0  3  0  0  0  0  0  0
  161.6580  209.7900  148.2430 C   0  0  0  0  0  2  0  0  0  0  0  0
  161.7880  210.8790  149.3010 C   0  0  1  0  0  3  0  0  0  0  0  0
  161.1640  207.3470  148.3890 C   0  0  0  0  0  2  0  0  0  0  0  0
  162.5550  206.1140  146.7020 C   0  0  0  0  0  2  0  0  0  0  0  0
  162.2540  204.7260  146.1480 C   0  0  0  0  0  2  0  0  0  0  0  0
  161.1910  204.9140  148.2430 N   0  0  1  0  0  0  0  0  0  0  0  0
  161.8960  203.9710  147.4030 C   0  0  1  0  0  3  0  0  0  0  0  0
  161.0810  202.7230  147.2710 C   0  0  0  0  0  0  0  0  0  0  0  0
  160.8660  202.2000  146.1860 O   0  0  0  0  0  0  0  0  0  0  0  0
  161.1970  204.3680  149.5960 C   0  0  0  0  0  2  0  0  0  0  0  0
  160.5950  202.0900  148.5520 C   0  0  2  0  0  3  0  0  0  0  0  0
  162.0140  206.1080  148.1340 C   0  0  2  0  0  3  0  0  0  0  0  0
  160.2530  203.1520  149.6260 C   0  0  0  0  0  2  0  0  0  0  0  0
  161.5740  201.2200  149.0410 O   0  0  0  0  0  0  0  0  0  0  0  0
  161.1540  200.8980  150.3360 C   0  0  0  0  0  1  0  0  0  0  0  0
  158.3370  213.1110  150.6190 O   0  0  0  0  0  0  0  0  0  0  0  0
  159.4670  213.2440  151.1690 C   0  0  0  0  0  0  0  0  0  0  0  0
  160.6290  212.6070  150.6110 N   0  0  0  0  0  2  0  0  0  0  0  0
  159.5800  214.0700  152.4230 C   0  0  1  0  0  3  0  0  0  0  0  0
  158.2070  214.4130  152.9780 C   0  0  0  0  0  2  0  0  0  0  0  0
  159.0560  213.3810  153.6990 C   0  0  1  0  0  3  0  0  0  0  0  0
  158.4730  211.9780  153.4880 C   0  0  1  0  0  3  0  0  0  0  0  0
  159.3480  211.0320  154.0320 O   0  0  0  0  0  1  0  0  0  0  0  0
  157.1180  211.8420  154.1620 C   0  0  0  0  0  2  0  0  0  0  0  0
  157.2740  211.3290  155.5880 C   0  0  0  0  0  2  0  0  0  0  0  0
  156.4520  212.0680  156.4390 O   0  0  0  0  0  1  0  0  0  0  0  0
  1 34  1  1  0  0  0
  2 12  1  0  0  0  0
  3  9  1  0  0  0  0
  4 11  1  1  0  0  0
  4 10  1  0  0  0  0
  6 12  1  0  0  0  0
  6  5  1  0  0  0  0
  7  6  2  0  0  0  0
  8  5  1  6  0  0  0
  8  4  1  0  0  0  0
  8 11  1  0  0  0  0
  9 10  1  0  0  0  0
 10  1  1  0  0  0  0
 12  3  1  0  0  0  0
 13 16  1  0  0  0  0
 15 19  1  6  0  0  0
 15 13  1  0  0  0  0
 16 14  1  1  0  0  0
 17 15  1  0  0  0  0
 17 18  1  0  0  0  0
 18  1  1  1  0  0  0
 18 16  1  0  0  0  0
 20 28  1  0  0  0  0
 21 20  1  0  0  0  0
 22 26  1  1  0  0  0
 23 21  1  6  0  0  0
 23 22  1  0  0  0  0
 24 23  1  0  0  0  0
 24 27  1  0  0  0  0
 25 24  2  0  0  0  0
 26 29  1  0  0  0  0
 27 30  1  1  0  0  0
 27 29  1  0  0  0  0
 28 22  1  0  0  0  0
 28 19  1  6  0  0  0
 30 31  1  0  0  0  0
 32 33  2  0  0  0  0
 34 33  1  0  0  0  0
 35 33  1  6  0  0  0
 35 36  1  0  0  0  0
 35 37  1  0  0  0  0
 36 37  1  0  0  0  0
 37 38  1  6  0  0  0
 38 39  1  1  0  0  0
 38 40  1  0  0  0  0
 40 41  1  0  0  0  0
 41 42  1  0  0  0  0
M  END
>  <MODEL>
2

>  <REMARK>
 VINA RESULT:      -6.3      2.193      6.343
  Name = 
  10 active torsions:
  status: ('A' for Active; 'I' for Inactive)
    1  A    between atoms: C_6  and  C_10
    2  A    between atoms: C_6  and  C_42
    3  A    between atoms: C_8  and  C_21
    4  A    between atoms: C_10  and  C_22
    5  A    between atoms: C_14  and  C_16
    6  A    between atoms: C_14  and  C_37
    7  A    between atoms: O_20  and  C_36
    8  A    between atoms: C_24  and  N_26
    9  A    between atoms: C_24  and  C_32
   10  A    between atoms: C_24  and  N_38
                            x       y       z     vdW  Elec       q    Type
                         _______ _______ _______ _____ _____    ______ ____

>  <TORSDO>
F 10

$$$$
=
 OpenBabel11052411433D

 42 47  0  0  1  0  0  0  0  0999 V2000
  161.5530  210.0180  151.0250 C   0  0  1  0  0  3  0  0  0  0  0  0
  162.0120  209.2690  156.6730 C   0  0  0  0  0  1  0  0  0  0  0  0
  162.3060  210.7030  154.6900 C   0  0  0  0  0  2  0  0  0  0  0  0
  160.1330  210.6760  152.7860 C   0  0  2  0  0  3  0  0  0  0  0  0
  159.1560  211.2710  154.8330 C   0  0  0  0  0  2  0  0  0  0  0  0
  159.9640  210.4000  155.7830 C   0  0  0  0  0  0  0  0  0  0  0  0
  159.3300  209.9140  156.7600 O   0  0  0  0  0  0  0  0  0  0  0  0
  159.9710  211.8120  153.6900 C   0  0  2  0  0  3  0  0  0  0  0  0
  162.2720  209.9780  153.3340 C   0  0  0  0  0  2  0  0  0  0  0  0
  161.5100  210.7350  152.3160 N   0  0  0  0  0  0  0  0  0  0  0  0
  159.3000  211.8230  152.3850 N   0  0  0  0  0  2  0  0  0  0  0  0
  161.3820  210.0900  155.6490 N   0  0  0  0  0  0  0  0  0  0  0  0
  161.0750  211.1660  147.6700 C   0  0  0  0  0  2  0  0  0  0  0  0
  161.3990  208.9430  148.5020 O   0  0  0  0  0  1  0  0  0  0  0  0
  161.3080  212.5340  148.2830 C   0  0  2  0  0  3  0  0  0  0  0  0
  161.9560  210.2280  148.4650 C   0  0  2  0  0  3  0  0  0  0  0  0
  161.5770  212.2880  149.7570 C   0  0  0  0  0  2  0  0  0  0  0  0
  162.1050  210.8620  149.8490 C   0  0  1  0  0  3  0  0  0  0  0  0
  160.0870  213.4320  148.1130 C   0  0  0  0  0  2  0  0  0  0  0  0
  158.6300  213.5480  146.0720 C   0  0  0  0  0  2  0  0  0  0  0  0
  158.9620  212.9520  144.7090 C   0  0  0  0  0  2  0  0  0  0  0  0
  160.9910  213.3180  145.8510 N   0  0  1  0  0  0  0  0  0  0  0  0
  160.3970  213.3800  144.5340 C   0  0  1  0  0  3  0  0  0  0  0  0
  161.2520  212.6160  143.5720 C   0  0  0  0  0  0  0  0  0  0  0  0
  160.7820  211.7960  142.7940 O   0  0  0  0  0  0  0  0  0  0  0  0
  162.2200  214.1040  145.8030 C   0  0  0  0  0  2  0  0  0  0  0  0
  162.7220  212.9580  143.5500 C   0  0  2  0  0  3  0  0  0  0  0  0
  159.9770  213.9470  146.6820 C   0  0  2  0  0  3  0  0  0  0  0  0
  163.2490  213.3310  144.9570 C   0  0  0  0  0  2  0  0  0  0  0  0
  162.9390  214.0210  142.6670 O   0  0  0  0  0  0  0  0  0  0  0  0
  163.0740  213.4220  141.4100 C   0  0  0  0  0  1  0  0  0  0  0  0
  160.5090  207.4080  151.8300 O   0  0  0  0  0  0  0  0  0  0  0  0
  161.7450  207.5130  151.5880 C   0  0  0  0  0  0  0  0  0  0  0  0
  162.2890  208.7470  151.0910 N   0  0  0  0  0  2  0  0  0  0  0  0
  162.6410  206.3240  151.8160 C   0  0  1  0  0  3  0  0  0  0  0  0
  161.8600  205.1530  152.3900 C   0  0  0  0  0  2  0  0  0  0  0  0
  162.3180  205.0950  150.9440 C   0  0  1  0  0  3  0  0  0  0  0  0
  161.1180  205.2620  150.0030 C   0  0  1  0  0  3  0  0  0  0  0  0
  161.5820  205.5000  148.7050 O   0  0  0  0  0  1  0  0  0  0  0  0
  160.2510  204.0150  149.9960 C   0  0  0  0  0  2  0  0  0  0  0  0
  160.8310  202.9600  149.0620 C   0  0  0  0  0  2  0  0  0  0  0  0
  160.1050  201.7760  149.1930 O   0  0  0  0  0  1  0  0  0  0  0  0
  1 34  1  1  0  0  0
  1 10  1  0  0  0  0
  3 12  1  0  0  0  0
  4 11  1  6  0  0  0
  4  8  1  0  0  0  0
  5  6  1  0  0  0  0
  6  7  2  0  0  0  0
  8  5  1  1  0  0  0
  9  3  1  0  0  0  0
 10  4  1  0  0  0  0
 10  9  1  0  0  0  0
 11  8  1  0  0  0  0
 12  6  1  0  0  0  0
 12  2  1  0  0  0  0
 13 15  1  0  0  0  0
 13 16  1  0  0  0  0
 15 19  1  1  0  0  0
 15 17  1  0  0  0  0
 16 14  1  1  0  0  0
 16 18  1  0  0  0  0
 17 18  1  0  0  0  0
 18  1  1  1  0  0  0
 20 28  1  0  0  0  0
 21 20  1  0  0  0  0
 22 26  1  6  0  0  0
 22 28  1  0  0  0  0
 23 21  1  1  0  0  0
 23 22  1  0  0  0  0
 24 23  1  0  0  0  0
 25 24  2  0  0  0  0
 27 30  1  6  0  0  0
 27 24  1  0  0  0  0
 27 29  1  0  0  0  0
 28 19  1  1  0  0  0
 29 26  1  0  0  0  0
 31 30  1  0  0  0  0
 33 32  2  0  0  0  0
 34 33  1  0  0  0  0
 35 33  1  6  0  0  0
 35 36  1  0  0  0  0
 37 38  1  6  0  0  0
 37 35  1  0  0  0  0
 37 36  1  0  0  0  0
 38 39  1  6  0  0  0
 40 38  1  0  0  0  0
 41 42  1  0  0  0  0
 41 40  1  0  0  0  0
M  END
>  <MODEL>
3

>  <REMARK>
 VINA RESULT:      -5.9      2.437      7.823
  Name = 
  10 active torsions:
  status: ('A' for Active; 'I' for Inactive)
    1  A    between atoms: C_6  and  C_10
    2  A    between atoms: C_6  and  C_42
    3  A    between atoms: C_8  and  C_21
    4  A    between atoms: C_10  and  C_22
    5  A    between atoms: C_14  and  C_16
    6  A    between atoms: C_14  and  C_37
    7  A    between atoms: O_20  and  C_36
    8  A    between atoms: C_24  and  N_26
    9  A    between atoms: C_24  and  C_32
   10  A    between atoms: C_24  and  N_38
                            x       y       z     vdW  Elec       q    Type
                         _______ _______ _______ _____ _____    ______ ____

>  <TORSDO>
F 10

$$$$
=
 OpenBabel11052411433D

 42 47  0  0  1  0  0  0  0  0999 V2000
  161.7440  209.5780  150.4630 C   0  0  1  0  0  3  0  0  0  0  0  0
  158.7180  214.1710  148.9070 C   0  0  0  0  0  1  0  0  0  0  0  0
  160.6990  213.2080  150.0130 C   0  0  0  0  0  2  0  0  0  0  0  0
  161.9800  211.0250  148.6180 C   0  0  2  0  0  3  0  0  0  0  0  0
  161.9350  212.7990  147.0860 C   0  0  0  0  0  2  0  0  0  0  0  0
  160.5850  213.4140  147.4210 C   0  0  0  0  0  0  0  0  0  0  0  0
  159.9270  213.8670  146.4450 O   0  0  0  0  0  0  0  0  0  0  0  0
  162.6630  212.2750  148.2940 C   0  0  2  0  0  3  0  0  0  0  0  0
  160.6080  211.7100  150.3540 C   0  0  0  0  0  2  0  0  0  0  0  0
  161.8730  210.9960  150.0710 N   0  0  0  0  0  0  0  0  0  0  0  0
  163.3620  210.9980  148.1060 N   0  0  0  0  0  2  0  0  0  0  0  0
  160.0080  213.5140  148.7560 N   0  0  0  0  0  0  0  0  0  0  0  0
  161.6490  208.6400  153.9150 C   0  0  0  0  0  2  0  0  0  0  0  0
  162.2810  207.3600  151.9910 O   0  0  0  0  0  1  0  0  0  0  0  0
  160.8860  209.9420  154.0740 C   0  0  2  0  0  3  0  0  0  0  0  0
  161.2450  208.1170  152.5550 C   0  0  2  0  0  3  0  0  0  0  0  0
  160.7680  210.5280  152.6790 C   0  0  0  0  0  2  0  0  0  0  0  0
  160.8740  209.3450  151.7230 C   0  0  1  0  0  3  0  0  0  0  0  0
  161.6280  210.9090  154.9910 C   0  0  0  0  0  2  0  0  0  0  0  0
  160.3310  210.8320  157.1400 C   0  0  0  0  0  2  0  0  0  0  0  0
  158.8120  210.8680  157.2610 C   0  0  0  0  0  2  0  0  0  0  0  0
  159.3960  211.8660  155.2070 N   0  0  1  0  0  0  0  0  0  0  0  0
  158.4580  211.9770  156.3030 C   0  0  1  0  0  3  0  0  0  0  0  0
  157.0660  212.0240  155.7560 C   0  0  0  0  0  0  0  0  0  0  0  0
  156.1690  211.3220  156.2030 O   0  0  0  0  0  0  0  0  0  0  0  0
  159.3650  213.1360  154.4880 C   0  0  0  0  0  2  0  0  0  0  0  0
  156.7960  213.0380  154.6720 C   0  0  2  0  0  3  0  0  0  0  0  0
  160.6610  211.6630  155.8960 C   0  0  2  0  0  3  0  0  0  0  0  0
  158.0200  213.2300  153.7430 C   0  0  0  0  0  2  0  0  0  0  0  0
  156.4480  214.2610  155.2550 O   0  0  0  0  0  0  0  0  0  0  0  0
  155.1050  214.4530  154.9150 C   0  0  0  0  0  1  0  0  0  0  0  0
  163.2610  207.5660  148.9800 O   0  0  0  0  0  0  0  0  0  0  0  0
  162.0760  207.8130  148.6190 C   0  0  0  0  0  0  0  0  0  0  0  0
  161.2560  208.7180  149.3760 N   0  0  0  0  0  2  0  0  0  0  0  0
  161.5290  207.1390  147.3880 C   0  0  1  0  0  3  0  0  0  0  0  0
  162.3750  205.9370  147.0010 C   0  0  0  0  0  2  0  0  0  0  0  0
  161.0060  205.7070  147.6150 C   0  0  1  0  0  3  0  0  0  0  0  0
  161.1530  205.1800  149.0490 C   0  0  1  0  0  3  0  0  0  0  0  0
  160.0640  205.6160  149.8110 O   0  0  0  0  0  1  0  0  0  0  0  0
  161.1940  203.6610  149.0720 C   0  0  0  0  0  2  0  0  0  0  0  0
  160.7680  203.1310  150.4350 C   0  0  0  0  0  2  0  0  0  0  0  0
  160.6840  201.7390  150.3850 O   0  0  0  0  0  1  0  0  0  0  0  0
  1 34  1  6  0  0  0
  3  9  1  0  0  0  0
  4 11  1  1  0  0  0
  4 10  1  0  0  0  0
  5  6  1  0  0  0  0
  6 12  1  0  0  0  0
  7  6  2  0  0  0  0
  8  5  1  6  0  0  0
  8  4  1  0  0  0  0
 10  9  1  0  0  0  0
 10  1  1  0  0  0  0
 11  8  1  0  0  0  0
 12  2  1  0  0  0  0
 12  3  1  0  0  0  0
 13 15  1  0  0  0  0
 15 19  1  1  0  0  0
 16 14  1  6  0  0  0
 16 13  1  0  0  0  0
 17 15  1  0  0  0  0
 18  1  1  6  0  0  0
 18 16  1  0  0  0  0
 18 17  1  0  0  0  0
 20 21  1  0  0  0  0
 22 26  1  1  0  0  0
 22 28  1  0  0  0  0
 22 23  1  0  0  0  0
 23 21  1  1  0  0  0
 24 25  2  0  0  0  0
 24 23  1  0  0  0  0
 27 30  1  1  0  0  0
 27 24  1  0  0  0  0
 28 19  1  6  0  0  0
 28 20  1  0  0  0  0
 29 26  1  0  0  0  0
 29 27  1  0  0  0  0
 31 30  1  0  0  0  0
 33 32  2  0  0  0  0
 33 34  1  0  0  0  0
 35 37  1  0  0  0  0
 35 33  1  1  0  0  0
 36 35  1  0  0  0  0
 36 37  1  0  0  0  0
 37 38  1  1  0  0  0
 38 40  1  0  0  0  0
 38 39  1  1  0  0  0
 40 41  1  0  0  0  0
 42 41  1  0  0  0  0
M  END
>  <MODEL>
4

>  <REMARK>
 VINA RESULT:      -5.6      2.029      8.868
  Name = 
  10 active torsions:
  status: ('A' for Active; 'I' for Inactive)
    1  A    between atoms: C_6  and  C_10
    2  A    between atoms: C_6  and  C_42
    3  A    between atoms: C_8  and  C_21
    4  A    between atoms: C_10  and  C_22
    5  A    between atoms: C_14  and  C_16
    6  A    between atoms: C_14  and  C_37
    7  A    between atoms: O_20  and  C_36
    8  A    between atoms: C_24  and  N_26
    9  A    between atoms: C_24  and  C_32
   10  A    between atoms: C_24  and  N_38
                            x       y       z     vdW  Elec       q    Type
                         _______ _______ _______ _____ _____    ______ ____

>  <TORSDO>
F 10

$$$$
=
 OpenBabel11052411433D

 42 47  0  0  1  0  0  0  0  0999 V2000
  161.7380  210.2630  150.8920 C   0  0  1  0  0  3  0  0  0  0  0  0
  158.0690  213.8400  153.4260 C   0  0  0  0  0  1  0  0  0  0  0  0
  158.6740  211.5500  152.7440 C   0  0  0  0  0  2  0  0  0  0  0  0
  161.4330  210.8010  153.1670 C   0  0  2  0  0  3  0  0  0  0  0  0
  160.6510  211.4940  155.2650 C   0  0  0  0  0  2  0  0  0  0  0  0
  159.7430  212.6430  154.8510 C   0  0  0  0  0  0  0  0  0  0  0  0
  159.7240  213.6390  155.6250 O   0  0  0  0  0  0  0  0  0  0  0  0
  160.6290  210.3430  154.2960 C   0  0  2  0  0  3  0  0  0  0  0  0
  159.7790  211.4440  151.6780 C   0  0  0  0  0  2  0  0  0  0  0  0
  160.7330  210.3500  151.9710 N   0  0  0  0  0  0  0  0  0  0  0  0
  161.9280  209.7150  154.0310 N   0  0  0  0  0  2  0  0  0  0  0  0
  158.9130  212.6760  153.6520 N   0  0  0  0  0  0  0  0  0  0  0  0
  161.0360  206.8330  150.1550 C   0  0  0  0  0  2  0  0  0  0  0  0
  160.3960  208.1610  152.0430 O   0  0  0  0  0  1  0  0  0  0  0  0
  162.0830  207.0250  149.0730 C   0  0  2  0  0  3  0  0  0  0  0  0
  161.4940  207.7070  151.3000 C   0  0  2  0  0  3  0  0  0  0  0  0
  162.5700  208.4560  149.2170 C   0  0  0  0  0  2  0  0  0  0  0  0
  162.3050  208.8390  150.6690 C   0  0  1  0  0  3  0  0  0  0  0  0
  161.4910  206.8080  147.6850 C   0  0  0  0  0  2  0  0  0  0  0  0
  162.2330  205.8380  145.4910 C   0  0  0  0  0  2  0  0  0  0  0  0
  161.6670  204.5820  144.8390 C   0  0  0  0  0  2  0  0  0  0  0  0
  161.2600  204.4390  147.1560 N   0  0  1  0  0  0  0  0  0  0  0  0
  161.6130  203.6330  146.0090 C   0  0  1  0  0  3  0  0  0  0  0  0
  160.6870  202.4600  145.9280 C   0  0  0  0  0  0  0  0  0  0  0  0
  160.1290  202.1440  144.8860 O   0  0  0  0  0  0  0  0  0  0  0  0
  161.6010  203.6640  148.3450 C   0  0  0  0  0  2  0  0  0  0  0  0
  160.5300  201.6300  147.1790 C   0  0  2  0  0  3  0  0  0  0  0  0
  162.1210  205.6010  147.0000 C   0  0  2  0  0  3  0  0  0  0  0  0
  160.6010  202.4980  148.4590 C   0  0  0  0  0  2  0  0  0  0  0  0
  161.5270  200.6500  147.2160 O   0  0  0  0  0  0  0  0  0  0  0  0
  161.5500  200.2110  148.5430 C   0  0  0  0  0  1  0  0  0  0  0  0
  163.2280  211.9220  149.0010 O   0  0  0  0  0  0  0  0  0  0  0  0
  162.0090  211.6890  148.7660 C   0  0  0  0  0  0  0  0  0  0  0  0
  161.2610  210.7980  149.6100 N   0  0  0  0  0  2  0  0  0  0  0  0
  161.3510  212.3500  147.5840 C   0  0  1  0  0  3  0  0  0  0  0  0
  159.8570  212.0700  147.5620 C   0  0  0  0  0  2  0  0  0  0  0  0
  160.3410  213.4580  147.9420 C   0  0  1  0  0  3  0  0  0  0  0  0
  160.1400  213.6940  149.4450 C   0  0  1  0  0  3  0  0  0  0  0  0
  161.2160  214.4360  149.9400 O   0  0  0  0  0  1  0  0  0  0  0  0
  158.8510  214.4530  149.7120 C   0  0  0  0  0  2  0  0  0  0  0  0
  157.6430  213.6350  149.2750 C   0  0  0  0  0  2  0  0  0  0  0  0
  156.7550  213.5140  150.3450 O   0  0  0  0  0  1  0  0  0  0  0  0
  1 34  1  6  0  0  0
  1 10  1  0  0  0  0
  2 12  1  0  0  0  0
  3 12  1  0  0  0  0
  4 11  1  1  0  0  0
  4  8  1  0  0  0  0
  6  5  1  0  0  0  0
  6  7  2  0  0  0  0
  8  5  1  1  0  0  0
  9 10  1  0  0  0  0
  9  3  1  0  0  0  0
 10  4  1  0  0  0  0
 11  8  1  0  0  0  0
 12  6  1  0  0  0  0
 13 16  1  0  0  0  0
 15 19  1  6  0  0  0
 15 17  1  0  0  0  0
 15 13  1  0  0  0  0
 16 14  1  6  0  0  0
 17 18  1  0  0  0  0
 18  1  1  6  0  0  0
 18 16  1  0  0  0  0
 20 28  1  0  0  0  0
 21 20  1  0  0  0  0
 22 26  1  1  0  0  0
 23 21  1  6  0  0  0
 23 22  1  0  0  0  0
 24 23  1  0  0  0  0
 24 27  1  0  0  0  0
 25 24  2  0  0  0  0
 26 29  1  0  0  0  0
 27 30  1  1  0  0  0
 27 29  1  0  0  0  0
 28 22  1  0  0  0  0
 28 19  1  1  0  0  0
 30 31  1  0  0  0  0
 33 32  2  0  0  0  0
 33 34  1  0  0  0  0
 35 37  1  0  0  0  0
 35 33  1  1  0  0  0
 36 35  1  0  0  0  0
 36 37  1  0  0  0  0
 37 38  1  1  0  0  0
 38 40  1  0  0  0  0
 38 39  1  6  0  0  0
 41 40  1  0  0  0  0
 41 42  1  0  0  0  0
M  END
>  <MODEL>
5

>  <REMARK>
 VINA RESULT:      -5.4      1.754      2.785
  Name = 
  10 active torsions:
  status: ('A' for Active; 'I' for Inactive)
    1  A    between atoms: C_6  and  C_10
    2  A    between atoms: C_6  and  C_42
    3  A    between atoms: C_8  and  C_21
    4  A    between atoms: C_10  and  C_22
    5  A    between atoms: C_14  and  C_16
    6  A    between atoms: C_14  and  C_37
    7  A    between atoms: O_20  and  C_36
    8  A    between atoms: C_24  and  N_26
    9  A    between atoms: C_24  and  C_32
   10  A    between atoms: C_24  and  N_38
                            x       y       z     vdW  Elec       q    Type
                         _______ _______ _______ _____ _____    ______ ____

>  <TORSDO>
F 10

$$$$
=
 OpenBabel11052411433D

 42 47  0  0  1  0  0  0  0  0999 V2000
  161.2610  208.1450  149.8700 C   0  0  1  0  0  3  0  0  0  0  0  0
  162.7080  205.4540  145.0390 C   0  0  0  0  0  1  0  0  0  0  0  0
  163.1510  205.9380  147.4140 C   0  0  0  0  0  2  0  0  0  0  0  0
  160.8400  205.9410  149.1490 C   0  0  2  0  0  3  0  0  0  0  0  0
  160.8310  203.8400  148.1080 C   0  0  0  0  0  2  0  0  0  0  0  0
  161.3220  204.2220  146.7200 C   0  0  0  0  0  0  0  0  0  0  0  0
  160.8020  203.5920  145.7580 O   0  0  0  0  0  0  0  0  0  0  0  0
  161.4870  204.6330  149.2060 C   0  0  2  0  0  3  0  0  0  0  0  0
  162.4260  207.1670  147.9890 C   0  0  0  0  0  2  0  0  0  0  0  0
  161.9010  206.9190  149.3500 N   0  0  0  0  0  0  0  0  0  0  0  0
  160.6010  205.0520  150.2990 N   0  0  0  0  0  2  0  0  0  0  0  0
  162.3220  205.2410  146.4260 N   0  0  0  0  0  0  0  0  0  0  0  0
  162.1870  208.3390  153.3210 C   0  0  0  0  0  2  0  0  0  0  0  0
  162.8970  206.8050  151.6240 O   0  0  0  0  0  1  0  0  0  0  0  0
  161.0210  209.3060  153.4060 C   0  0  2  0  0  3  0  0  0  0  0  0
  161.7730  207.3210  152.2820 C   0  0  2  0  0  3  0  0  0  0  0  0
  160.4260  209.3630  152.0110 C   0  0  0  0  0  2  0  0  0  0  0  0
  160.8030  208.0440  151.3460 C   0  0  1  0  0  3  0  0  0  0  0  0
  161.4830  210.6940  153.8370 C   0  0  0  0  0  2  0  0  0  0  0  0
  160.1660  210.2770  155.9330 C   0  0  0  0  0  2  0  0  0  0  0  0
  158.6470  210.3290  156.0520 C   0  0  0  0  0  2  0  0  0  0  0  0
  159.2740  211.6540  154.2060 N   0  0  1  0  0  0  0  0  0  0  0  0
  158.3290  211.5960  155.3000 C   0  0  1  0  0  3  0  0  0  0  0  0
  156.9430  211.7720  154.7630 C   0  0  0  0  0  0  0  0  0  0  0  0
  156.0250  211.0260  155.0770 O   0  0  0  0  0  0  0  0  0  0  0  0
  159.2790  213.0300  153.7190 C   0  0  0  0  0  2  0  0  0  0  0  0
  156.7060  212.9660  153.8710 C   0  0  2  0  0  3  0  0  0  0  0  0
  160.5260  211.3030  154.8550 C   0  0  2  0  0  3  0  0  0  0  0  0
  157.9430  213.2860  152.9960 C   0  0  0  0  0  2  0  0  0  0  0  0
  156.3830  214.0780  154.6570 O   0  0  0  0  0  0  0  0  0  0  0  0
  155.0250  214.3060  154.4150 C   0  0  0  0  0  1  0  0  0  0  0  0
  160.9310  210.2660  147.8840 O   0  0  0  0  0  0  0  0  0  0  0  0
  161.9370  210.3070  148.6470 C   0  0  0  0  0  0  0  0  0  0  0  0
  162.0910  209.3460  149.7050 N   0  0  0  0  0  2  0  0  0  0  0  0
  162.9700  211.3840  148.4410 C   0  0  1  0  0  3  0  0  0  0  0  0
  162.6380  212.2350  147.2260 C   0  0  0  0  0  2  0  0  0  0  0  0
  162.4460  212.8230  148.6130 C   0  0  1  0  0  3  0  0  0  0  0  0
  160.9500  212.9370  148.9350 C   0  0  1  0  0  3  0  0  0  0  0  0
  160.7980  213.4480  150.2270 O   0  0  0  0  0  1  0  0  0  0  0  0
  160.2480  213.8600  147.9530 C   0  0  0  0  0  2  0  0  0  0  0  0
  158.9410  213.2400  147.4720 C   0  0  0  0  0  2  0  0  0  0  0  0
  159.1610  212.5770  146.2640 O   0  0  0  0  0  1  0  0  0  0  0  0
  1 34  1  1  0  0  0
  2 12  1  0  0  0  0
  3  9  1  0  0  0  0
  4  8  1  0  0  0  0
  4 10  1  0  0  0  0
  4 11  1  1  0  0  0
  6  5  1  0  0  0  0
  7  6  2  0  0  0  0
  8  5  1  6  0  0  0
  8 11  1  0  0  0  0
  9 10  1  0  0  0  0
 10  1  1  0  0  0  0
 12  6  1  0  0  0  0
 12  3  1  0  0  0  0
 13 15  1  0  0  0  0
 15 19  1  6  0  0  0
 16 14  1  6  0  0  0
 16 13  1  0  0  0  0
 17 15  1  0  0  0  0
 18  1  1  6  0  0  0
 18 17  1  0  0  0  0
 18 16  1  0  0  0  0
 20 21  1  0  0  0  0
 22 26  1  1  0  0  0
 22 28  1  0  0  0  0
 22 23  1  0  0  0  0
 23 21  1  6  0  0  0
 24 25  2  0  0  0  0
 24 23  1  0  0  0  0
 27 30  1  1  0  0  0
 27 24  1  0  0  0  0
 28 19  1  6  0  0  0
 28 20  1  0  0  0  0
 29 26  1  0  0  0  0
 29 27  1  0  0  0  0
 31 30  1  0  0  0  0
 32 33  2  0  0  0  0
 33 34  1  0  0  0  0
 35 37  1  0  0  0  0
 35 33  1  1  0  0  0
 36 35  1  0  0  0  0
 36 37  1  0  0  0  0
 37 38  1  1  0  0  0
 38 39  1  1  0  0  0
 40 38  1  0  0  0  0
 41 40  1  0  0  0  0
 42 41  1  0  0  0  0
M  END
>  <MODEL>
6

>  <REMARK>
 VINA RESULT:      -5.0      1.847      8.798
  Name = 
  10 active torsions:
  status: ('A' for Active; 'I' for Inactive)
    1  A    between atoms: C_6  and  C_10
    2  A    between atoms: C_6  and  C_42
    3  A    between atoms: C_8  and  C_21
    4  A    between atoms: C_10  and  C_22
    5  A    between atoms: C_14  and  C_16
    6  A    between atoms: C_14  and  C_37
    7  A    between atoms: O_20  and  C_36
    8  A    between atoms: C_24  and  N_26
    9  A    between atoms: C_24  and  C_32
   10  A    between atoms: C_24  and  N_38
                            x       y       z     vdW  Elec       q    Type
                         _______ _______ _______ _____ _____    ______ ____

>  <TORSDO>
F 10

$$$$
=
 OpenBabel11052411433D

 42 47  0  0  1  0  0  0  0  0999 V2000
  160.4050  210.5590  152.4600 C   0  0  1  0  0  3  0  0  0  0  0  0
  156.0760  214.2900  152.3550 C   0  0  0  0  0  1  0  0  0  0  0  0
  158.4610  213.8150  152.7580 C   0  0  0  0  0  2  0  0  0  0  0  0
  159.7490  212.1100  150.8120 C   0  0  2  0  0  3  0  0  0  0  0  0
  158.8470  213.8880  149.5780 C   0  0  0  0  0  2  0  0  0  0  0  0
  157.5490  214.1170  150.3380 C   0  0  0  0  0  0  0  0  0  0  0  0
  156.5480  214.4330  149.6400 O   0  0  0  0  0  0  0  0  0  0  0  0
  159.9970  213.5080  150.4700 C   0  0  2  0  0  3  0  0  0  0  0  0
  158.8240  212.3290  152.9240 C   0  0  0  0  0  2  0  0  0  0  0  0
  160.0810  211.9810  152.2250 N   0  0  0  0  0  0  0  0  0  0  0  0
  160.8870  212.4660  149.9460 N   0  0  0  0  0  2  0  0  0  0  0  0
  157.3810  213.9960  151.7820 N   0  0  0  0  0  0  0  0  0  0  0  0
  163.0030  208.3860  151.3070 C   0  0  0  0  0  2  0  0  0  0  0  0
  163.1490  210.5440  152.3370 O   0  0  0  0  0  1  0  0  0  0  0  0
  161.8570  207.6370  150.6530 C   0  0  2  0  0  3  0  0  0  0  0  0
  162.5960  209.8410  151.2590 C   0  0  2  0  0  3  0  0  0  0  0  0
  160.6030  208.4230  150.9890 C   0  0  0  0  0  2  0  0  0  0  0  0
  161.0670  209.8510  151.2520 C   0  0  1  0  0  3  0  0  0  0  0  0
  161.7470  206.2140  151.1910 C   0  0  0  0  0  2  0  0  0  0  0  0
  160.4780  204.0540  151.0260 C   0  0  0  0  0  2  0  0  0  0  0  0
  160.7280  202.9540  150.0000 C   0  0  0  0  0  2  0  0  0  0  0  0
  161.5360  204.9770  149.1010 N   0  0  1  0  0  0  0  0  0  0  0  0
  160.8640  203.7520  148.7280 C   0  0  1  0  0  3  0  0  0  0  0  0
  161.5830  203.1280  147.5740 C   0  0  0  0  0  0  0  0  0  0  0  0
  161.8860  201.9420  147.5610 O   0  0  0  0  0  0  0  0  0  0  0  0
  161.3160  205.9310  148.0180 C   0  0  0  0  0  2  0  0  0  0  0  0
  161.8510  204.0130  146.3810 C   0  0  2  0  0  3  0  0  0  0  0  0
  160.8350  205.3630  150.3150 C   0  0  2  0  0  3  0  0  0  0  0  0
  162.1450  205.4740  146.8030 C   0  0  0  0  0  2  0  0  0  0  0  0
  160.7490  203.9810  145.5200 O   0  0  0  0  0  0  0  0  0  0  0  0
  160.9890  204.9990  144.5920 C   0  0  0  0  0  1  0  0  0  0  0  0
  159.9950  208.5670  154.5610 O   0  0  0  0  0  0  0  0  0  0  0  0
  160.9250  209.4100  154.7040 C   0  0  0  0  0  0  0  0  0  0  0  0
  161.2320  210.3430  153.6550 N   0  0  0  0  0  2  0  0  0  0  0  0
  161.7170  209.4170  155.9850 C   0  0  1  0  0  3  0  0  0  0  0  0
  162.5760  210.6670  156.0910 C   0  0  0  0  0  2  0  0  0  0  0  0
  161.3430  210.5440  156.9690 C   0  0  1  0  0  3  0  0  0  0  0  0
  160.2480  211.4990  156.4780 C   0  0  1  0  0  3  0  0  0  0  0  0
  159.0150  211.0880  156.9950 O   0  0  0  0  0  1  0  0  0  0  0  0
  160.5220  212.9240  156.9290 C   0  0  0  0  0  2  0  0  0  0  0  0
  159.6560  213.9110  156.1550 C   0  0  0  0  0  2  0  0  0  0  0  0
  158.6040  214.3380  156.9660 O   0  0  0  0  0  1  0  0  0  0  0  0
  1 34  1  1  0  0  0
  3  9  1  0  0  0  0
  4 11  1  6  0  0  0
  4 10  1  0  0  0  0
  5  6  1  0  0  0  0
  6 12  1  0  0  0  0
  7  6  2  0  0  0  0
  8  5  1  6  0  0  0
  8  4  1  0  0  0  0
 10  1  1  0  0  0  0
 10  9  1  0  0  0  0
 11  8  1  0  0  0  0
 12  2  1  0  0  0  0
 12  3  1  0  0  0  0
 15 17  1  0  0  0  0
 15 19  1  1  0  0  0
 15 13  1  0  0  0  0
 16 13  1  0  0  0  0
 16 14  1  1  0  0  0
 17 18  1  0  0  0  0
 18 16  1  0  0  0  0
 18  1  1  1  0  0  0
 21 20  1  0  0  0  0
 22 26  1  6  0  0  0
 22 28  1  0  0  0  0
 23 22  1  0  0  0  0
 23 21  1  1  0  0  0
 24 23  1  0  0  0  0
 25 24  2  0  0  0  0
 27 30  1  6  0  0  0
 27 29  1  0  0  0  0
 27 24  1  0  0  0  0
 28 20  1  0  0  0  0
 28 19  1  1  0  0  0
 29 26  1  0  0  0  0
 31 30  1  0  0  0  0
 32 33  2  0  0  0  0
 34 33  1  0  0  0  0
 35 33  1  6  0  0  0
 35 36  1  0  0  0  0
 35 37  1  0  0  0  0
 36 37  1  0  0  0  0
 37 38  1  6  0  0  0
 38 40  1  0  0  0  0
 38 39  1  1  0  0  0
 41 40  1  0  0  0  0
 41 42  1  0  0  0  0
M  END
>  <MODEL>
7

>  <REMARK>
 VINA RESULT:      -4.9      2.212      5.360
  Name = 
  10 active torsions:
  status: ('A' for Active; 'I' for Inactive)
    1  A    between atoms: C_6  and  C_10
    2  A    between atoms: C_6  and  C_42
    3  A    between atoms: C_8  and  C_21
    4  A    between atoms: C_10  and  C_22
    5  A    between atoms: C_14  and  C_16
    6  A    between atoms: C_14  and  C_37
    7  A    between atoms: O_20  and  C_36
    8  A    between atoms: C_24  and  N_26
    9  A    between atoms: C_24  and  C_32
   10  A    between atoms: C_24  and  N_38
                            x       y       z     vdW  Elec       q    Type
                         _______ _______ _______ _____ _____    ______ ____

>  <TORSDO>
F 10

$$$$
=
 OpenBabel11052411433D

 42 47  0  0  1  0  0  0  0  0999 V2000
  161.6470  212.0020  148.6420 C   0  0  1  0  0  3  0  0  0  0  0  0
  160.0540  211.7310  143.1590 C   0  0  0  0  0  1  0  0  0  0  0  0
  159.9170  212.8360  145.3590 C   0  0  0  0  0  2  0  0  0  0  0  0
  162.4260  213.1750  146.7520 C   0  0  2  0  0  3  0  0  0  0  0  0
  162.7320  214.2030  144.6670 C   0  0  0  0  0  2  0  0  0  0  0  0
  161.9430  213.2530  143.7780 C   0  0  0  0  0  0  0  0  0  0  0  0
  162.4220  213.0460  142.6290 O   0  0  0  0  0  0  0  0  0  0  0  0
  162.1080  214.3990  146.0220 C   0  0  2  0  0  3  0  0  0  0  0  0
  160.4340  212.0110  146.5500 C   0  0  0  0  0  2  0  0  0  0  0  0
  161.2210  212.8320  147.4970 N   0  0  0  0  0  0  0  0  0  0  0  0
  163.0470  214.4510  147.1490 N   0  0  0  0  0  2  0  0  0  0  0  0
  160.7040  212.5790  144.1480 N   0  0  0  0  0  0  0  0  0  0  0  0
  159.2340  213.4270  150.8670 C   0  0  0  0  0  2  0  0  0  0  0  0
  159.9920  214.1930  148.7280 O   0  0  0  0  0  1  0  0  0  0  0  0
  159.7940  212.4170  151.8520 C   0  0  2  0  0  3  0  0  0  0  0  0
  160.4150  213.8340  150.0150 C   0  0  2  0  0  3  0  0  0  0  0  0
  160.9010  211.6870  151.1140 C   0  0  0  0  0  2  0  0  0  0  0  0
  161.3740  212.6430  150.0260 C   0  0  1  0  0  3  0  0  0  0  0  0
  158.7220  211.4310  152.3040 C   0  0  0  0  0  2  0  0  0  0  0  0
  158.5420  212.6840  154.4720 C   0  0  0  0  0  2  0  0  0  0  0  0
  159.6130  212.7400  155.5550 C   0  0  0  0  0  2  0  0  0  0  0  0
  159.9600  210.7770  154.2980 N   0  0  1  0  0  0  0  0  0  0  0  0
  160.0260  211.2940  155.6480 C   0  0  1  0  0  3  0  0  0  0  0  0
  161.3670  210.9750  156.2320 C   0  0  0  0  0  0  0  0  0  0  0  0
  162.0430  211.8190  156.8050 O   0  0  0  0  0  0  0  0  0  0  0  0
  159.9410  209.3210  154.3990 C   0  0  0  0  0  2  0  0  0  0  0  0
  161.8190  209.5380  156.1510 C   0  0  2  0  0  3  0  0  0  0  0  0
  158.6920  211.3050  153.8220 C   0  0  2  0  0  3  0  0  0  0  0  0
  161.3390  208.8540  154.8470 C   0  0  0  0  0  2  0  0  0  0  0  0
  161.3350  208.8350  157.2600 O   0  0  0  0  0  0  0  0  0  0  0  0
  161.4940  207.4860  156.9270 C   0  0  0  0  0  1  0  0  0  0  0  0
  163.1090  209.4700  148.6230 O   0  0  0  0  0  0  0  0  0  0  0  0
  161.8510  209.4390  148.5140 C   0  0  0  0  0  0  0  0  0  0  0  0
  161.0790  210.6470  148.6200 N   0  0  0  0  0  2  0  0  0  0  0  0
  161.1680  208.1180  148.2810 C   0  0  1  0  0  3  0  0  0  0  0  0
  162.1250  206.9590  148.5080 C   0  0  0  0  0  2  0  0  0  0  0  0
  161.0380  207.2280  149.5330 C   0  0  1  0  0  3  0  0  0  0  0  0
  161.6520  207.8120  150.8130 C   0  0  1  0  0  3  0  0  0  0  0  0
  160.6400  208.3950  151.5820 O   0  0  0  0  0  1  0  0  0  0  0  0
  162.3360  206.7320  151.6330 C   0  0  0  0  0  2  0  0  0  0  0  0
  161.3170  205.9550  152.4580 C   0  0  0  0  0  2  0  0  0  0  0  0
  161.5230  204.5870  152.2800 O   0  0  0  0  0  1  0  0  0  0  0  0
  1 34  1  1  0  0  0
  2 12  1  0  0  0  0
  3  9  1  0  0  0  0
  4 11  1  1  0  0  0
  4 10  1  0  0  0  0
  6 12  1  0  0  0  0
  6  5  1  0  0  0  0
  7  6  2  0  0  0  0
  8  5  1  6  0  0  0
  8  4  1  0  0  0  0
  8 11  1  0  0  0  0
  9 10  1  0  0  0  0
 10  1  1  0  0  0  0
 12  3  1  0  0  0  0
 13 15  1  0  0  0  0
 15 19  1  6  0  0  0
 16 14  1  6  0  0  0
 16 18  1  0  0  0  0
 16 13  1  0  0  0  0
 17 15  1  0  0  0  0
 18  1  1  6  0  0  0
 18 17  1  0  0  0  0
 20 21  1  0  0  0  0
 22 26  1  1  0  0  0
 22 23  1  0  0  0  0
 23 21  1  6  0  0  0
 23 24  1  0  0  0  0
 24 25  2  0  0  0  0
 26 29  1  0  0  0  0
 27 24  1  0  0  0  0
 27 30  1  1  0  0  0
 28 19  1  6  0  0  0
 28 22  1  0  0  0  0
 28 20  1  0  0  0  0
 29 27  1  0  0  0  0
 31 30  1  0  0  0  0
 33 34  1  0  0  0  0
 33 32  2  0  0  0  0
 35 36  1  0  0  0  0
 35 33  1  1  0  0  0
 35 37  1  0  0  0  0
 36 37  1  0  0  0  0
 37 38  1  1  0  0  0
 38 39  1  1  0  0  0
 38 40  1  0  0  0  0
 40 41  1  0  0  0  0
 42 41  1  0  0  0  0
M  END
>  <MODEL>
8

>  <REMARK>
 VINA RESULT:      -4.6      2.838      8.857
  Name = 
  10 active torsions:
  status: ('A' for Active; 'I' for Inactive)
    1  A    between atoms: C_6  and  C_10
    2  A    between atoms: C_6  and  C_42
    3  A    between atoms: C_8  and  C_21
    4  A    between atoms: C_10  and  C_22
    5  A    between atoms: C_14  and  C_16
    6  A    between atoms: C_14  and  C_37
    7  A    between atoms: O_20  and  C_36
    8  A    between atoms: C_24  and  N_26
    9  A    between atoms: C_24  and  C_32
   10  A    between atoms: C_24  and  N_38
                            x       y       z     vdW  Elec       q    Type
                         _______ _______ _______ _____ _____    ______ ____

>  <TORSDO>
F 10

$$$$
=
 OpenBabel11052411433D

 42 47  0  0  1  0  0  0  0  0999 V2000
  161.8970  208.5860  153.5310 C   0  0  1  0  0  3  0  0  0  0  0  0
  158.4540  212.9040  155.0040 C   0  0  0  0  0  1  0  0  0  0  0  0
  159.0350  210.5130  155.1330 C   0  0  0  0  0  2  0  0  0  0  0  0
  161.8430  209.9190  155.4740 C   0  0  2  0  0  3  0  0  0  0  0  0
  161.2900  211.3420  157.2540 C   0  0  0  0  0  2  0  0  0  0  0  0
  160.3110  212.2770  156.5600 C   0  0  0  0  0  0  0  0  0  0  0  0
  160.3560  213.4870  156.9160 O   0  0  0  0  0  0  0  0  0  0  0  0
  161.1860  209.9180  156.7790 C   0  0  2  0  0  3  0  0  0  0  0  0
  160.0120  210.0060  154.0580 C   0  0  0  0  0  2  0  0  0  0  0  0
  161.0210  209.0770  154.6140 N   0  0  0  0  0  0  0  0  0  0  0  0
  162.4620  209.2130  156.6100 N   0  0  0  0  0  2  0  0  0  0  0  0
  159.3480  211.8870  155.5370 N   0  0  0  0  0  0  0  0  0  0  0  0
  160.5320  205.4110  152.6040 C   0  0  0  0  0  2  0  0  0  0  0  0
  159.7200  207.0350  154.1660 O   0  0  0  0  0  1  0  0  0  0  0  0
  161.8820  205.2140  151.9380 C   0  0  2  0  0  3  0  0  0  0  0  0
  160.8240  206.2380  153.8360 C   0  0  2  0  0  3  0  0  0  0  0  0
  162.6790  206.4700  152.2360 C   0  0  0  0  0  2  0  0  0  0  0  0
  162.0800  207.0480  153.5130 C   0  0  1  0  0  3  0  0  0  0  0  0
  161.7330  205.0290  150.4310 C   0  0  0  0  0  2  0  0  0  0  0  0
  160.8280  202.8240  151.2220 C   0  0  0  0  0  2  0  0  0  0  0  0
  161.0060  201.4870  150.5130 C   0  0  0  0  0  2  0  0  0  0  0  0
  161.2410  203.1930  148.9040 N   0  0  1  0  0  0  0  0  0  0  0  0
  160.7080  201.8600  149.0830 C   0  0  1  0  0  3  0  0  0  0  0  0
  161.2280  200.9730  147.9960 C   0  0  0  0  0  0  0  0  0  0  0  0
  161.7080  199.8720  148.2290 O   0  0  0  0  0  0  0  0  0  0  0  0
  160.6220  203.7430  147.7030 C   0  0  0  0  0  2  0  0  0  0  0  0
  161.0620  201.4660  146.5790 C   0  0  2  0  0  3  0  0  0  0  0  0
  160.7920  203.8750  150.1080 C   0  0  2  0  0  3  0  0  0  0  0  0
  161.2050  203.0050  146.4830 C   0  0  0  0  0  2  0  0  0  0  0  0
  159.8090  201.0760  146.0940 O   0  0  0  0  0  0  0  0  0  0  0  0
  159.7070  201.6780  144.8360 C   0  0  0  0  0  1  0  0  0  0  0  0
  163.3910  210.2980  151.6910 O   0  0  0  0  0  0  0  0  0  0  0  0
  162.2160  209.9580  151.3760 C   0  0  0  0  0  0  0  0  0  0  0  0
  161.4780  209.0360  152.1970 N   0  0  0  0  0  2  0  0  0  0  0  0
  161.6000  210.5220  150.1240 C   0  0  1  0  0  3  0  0  0  0  0  0
  162.5670  210.4420  148.9540 C   0  0  0  0  0  2  0  0  0  0  0  0
  161.3790  209.4970  148.9940 C   0  0  1  0  0  3  0  0  0  0  0  0
  161.8500  208.0710  149.3080 C   0  0  1  0  0  3  0  0  0  0  0  0
  160.7340  207.2470  149.4770 O   0  0  0  0  0  1  0  0  0  0  0  0
  162.7060  207.5170  148.1820 C   0  0  0  0  0  2  0  0  0  0  0  0
  161.8550  206.7230  147.1990 C   0  0  0  0  0  2  0  0  0  0  0  0
  162.6720  206.2040  146.1940 O   0  0  0  0  0  1  0  0  0  0  0  0
  1 34  1  6  0  0  0
  1 10  1  0  0  0  0
  2 12  1  0  0  0  0
  3 12  1  0  0  0  0
  4 11  1  1  0  0  0
  4  8  1  0  0  0  0
  6  7  2  0  0  0  0
  6  5  1  0  0  0  0
  8  5  1  1  0  0  0
  9 10  1  0  0  0  0
  9  3  1  0  0  0  0
 10  4  1  0  0  0  0
 11  8  1  0  0  0  0
 12  6  1  0  0  0  0
 13 16  1  0  0  0  0
 15 19  1  6  0  0  0
 15 17  1  0  0  0  0
 15 13  1  0  0  0  0
 16 14  1  6  0  0  0
 17 18  1  0  0  0  0
 18  1  1  6  0  0  0
 18 16  1  0  0  0  0
 21 20  1  0  0  0  0
 22 26  1  6  0  0  0
 22 23  1  0  0  0  0
 22 28  1  0  0  0  0
 23 21  1  1  0  0  0
 24 25  2  0  0  0  0
 24 23  1  0  0  0  0
 27 30  1  1  0  0  0
 27 24  1  0  0  0  0
 28 19  1  1  0  0  0
 28 20  1  0  0  0  0
 29 27  1  0  0  0  0
 29 26  1  0  0  0  0
 31 30  1  0  0  0  0
 33 32  2  0  0  0  0
 33 34  1  0  0  0  0
 35 33  1  1  0  0  0
 36 37  1  0  0  0  0
 36 35  1  0  0  0  0
 37 38  1  1  0  0  0
 37 35  1  0  0  0  0
 38 39  1  6  0  0  0
 40 38  1  0  0  0  0
 41 40  1  0  0  0  0
 42 41  1  0  0  0  0
M  END
>  <MODEL>
9

>  <REMARK>
 VINA RESULT:      -4.5      2.600      3.751
  Name = 
  10 active torsions:
  status: ('A' for Active; 'I' for Inactive)
    1  A    between atoms: C_6  and  C_10
    2  A    between atoms: C_6  and  C_42
    3  A    between atoms: C_8  and  C_21
    4  A    between atoms: C_10  and  C_22
    5  A    between atoms: C_14  and  C_16
    6  A    between atoms: C_14  and  C_37
    7  A    between atoms: O_20  and  C_36
    8  A    between atoms: C_24  and  N_26
    9  A    between atoms: C_24  and  C_32
   10  A    between atoms: C_24  and  N_38
                            x       y       z     vdW  Elec       q    Type
                         _______ _______ _______ _____ _____    ______ ____

>  <TORSDO>
F 10

$$$$
