=
 OpenBabel11052411183D

 31 34  0  0  1  0  0  0  0  0999 V2000
  160.3990  209.0460  153.5760 C   0  0  1  0  0  3  0  0  0  0  0  0
  161.2280  209.4720  150.9900 N   0  0  0  0  0  0  0  0  0  0  0  0
  161.1610  206.7950  153.3510 C   0  0  0  0  0  2  0  0  0  0  0  0
  160.8450  208.8450  152.0380 C   0  0  0  0  0  0  0  0  0  0  0  0
  161.2090  207.9560  154.2430 C   0  0  2  0  0  3  0  0  0  0  0  0
  161.1740  207.5230  151.9870 C   0  0  2  0  0  3  0  0  0  0  0  0
  162.1400  211.0200  149.4840 C   0  0  0  0  0  3  0  0  0  0  0  0
  160.9080  214.2920  148.3300 O   0  0  0  0  0  1  0  0  0  0  0  0
  159.3460  214.0210  150.2570 O   0  0  0  0  0  1  0  0  0  0  0  0
  161.4040  210.7900  150.6830 C   0  0  0  0  0  0  0  0  0  0  0  0
  161.1470  213.2120  149.1970 C   0  0  0  0  0  0  0  0  0  0  0  0
  162.8260  212.5480  147.5720 C   0  0  0  0  0  1  0  0  0  0  0  0
  160.3920  213.0430  150.2710 C   0  0  0  0  0  0  0  0  0  0  0  0
  160.5140  211.8480  151.1330 C   0  0  0  0  0  3  0  0  0  0  0  0
  162.0750  212.2310  148.7770 C   0  0  0  0  0  0  0  0  0  0  0  0
  161.0490  206.9480  150.6610 C   0  0  0  0  0  0  0  0  0  0  0  0
  161.3750  207.3940  149.2920 C   0  0  0  0  0  3  0  0  0  0  0  0
  160.7150  204.6160  151.4490 C   0  0  0  0  0  3  0  0  0  0  0  0
  161.2100  205.2940  149.3410 N   0  0  0  0  0  0  0  0  0  0  0  0
  160.7830  203.4820  150.5890 C   0  0  0  0  0  3  0  0  0  0  0  0
  161.4400  206.2760  148.4780 N   0  0  0  0  0  2  0  0  0  0  0  0
  160.9820  205.6540  150.5180 C   0  0  0  0  0  0  0  0  0  0  0  0
  161.3500  203.1130  148.2050 N   0  0  0  0  0  1  0  0  0  0  0  0
  161.1520  203.9370  149.3800 C   0  0  0  0  0  0  0  0  0  0  0  0
  161.0600  207.7240  155.7050 C   0  0  0  0  0  0  0  0  0  0  0  0
  159.7470  207.0810  156.1090 C   0  0  0  0  0  1  0  0  0  0  0  0
  161.9660  207.8610  156.4570 O   0  0  0  0  0  0  0  0  0  0  0  0
  159.5010  210.5990  155.3080 O   0  0  0  0  0  1  0  0  0  0  0  0
  160.3610  210.4280  154.2010 C   0  0  1  0  0  3  0  0  0  0  0  0
  161.8090  211.1930  155.9060 O   0  0  0  0  0  1  0  0  0  0  0  0
  161.7560  210.8380  154.5580 C   0  0  0  0  0  2  0  0  0  0  0  0
  1 29  1  1  0  0  0
  1  5  1  0  0  0  0
  2  4  2  0  0  0  0
  3  5  1  0  0  0  0
  4  1  1  0  0  0  0
  5 25  1  1  0  0  0
  6 16  1  6  0  0  0
  6  4  1  0  0  0  0
  6  3  1  0  0  0  0
  7 10  1  0  0  0  0
  8 11  1  0  0  0  0
  9 13  1  0  0  0  0
 10  2  1  0  0  0  0
 10 14  2  0  0  0  0
 11 13  2  0  0  0  0
 12 15  1  0  0  0  0
 13 14  1  0  0  0  0
 15 11  1  0  0  0  0
 15  7  2  0  0  0  0
 17 16  2  0  0  0  0
 19 24  1  0  0  0  0
 19 22  1  0  0  0  0
 20 18  1  0  0  0  0
 21 17  1  0  0  0  0
 21 19  1  0  0  0  0
 22 16  1  0  0  0  0
 22 18  2  0  0  0  0
 23 24  1  0  0  0  0
 24 20  2  0  0  0  0
 25 26  1  0  0  0  0
 25 27  2  0  0  0  0
 29 31  1  0  0  0  0
 29 28  1  1  0  0  0
 31 30  1  0  0  0  0
M  END
>  <MODEL>
1

>  <REMARK>
 VINA RESULT:      -8.0      0.000      0.000
  Name = 
  5 active torsions:
  status: ('A' for Active; 'I' for Inactive)
    1  A    between atoms: C_3  and  C_31
    2  A    between atoms: C_6  and  C_28
    3  A    between atoms: C_9  and  C_27
    4  A    between atoms: C_11  and  N_21
    5  A    between atoms: C_26  and  C_27
                            x       y       z     vdW  Elec       q    Type
                         _______ _______ _______ _____ _____    ______ ____

>  <TORSDO>
F 5

$$$$
=
 OpenBabel11052411183D

 31 34  0  0  1  0  0  0  0  0999 V2000
  160.0120  212.2420  154.6120 C   0  0  1  0  0  3  0  0  0  0  0  0
  160.4890  211.2870  152.0780 N   0  0  0  0  0  0  0  0  0  0  0  0
  158.1800  213.4710  153.7020 C   0  0  0  0  0  2  0  0  0  0  0  0
  160.0590  212.0520  153.0090 C   0  0  0  0  0  0  0  0  0  0  0  0
  158.5520  212.5840  154.8070 C   0  0  2  0  0  3  0  0  0  0  0  0
  159.0430  212.8530  152.5790 C   0  0  2  0  0  3  0  0  0  0  0  0
  160.8320  209.1520  152.9860 C   0  0  0  0  0  3  0  0  0  0  0  0
  161.9560  206.0100  151.4300 O   0  0  0  0  0  1  0  0  0  0  0  0
  162.5780  207.5380  149.5570 O   0  0  0  0  0  1  0  0  0  0  0  0
  161.2470  210.1520  152.0570 C   0  0  0  0  0  0  0  0  0  0  0  0
  161.8560  207.3910  151.6740 C   0  0  0  0  0  0  0  0  0  0  0  0
  160.8260  206.7350  153.7740 C   0  0  0  0  0  1  0  0  0  0  0  0
  162.2250  208.2580  150.7440 C   0  0  0  0  0  0  0  0  0  0  0  0
  162.0080  209.7120  150.8990 C   0  0  0  0  0  3  0  0  0  0  0  0
  161.1800  207.7990  152.8460 C   0  0  0  0  0  0  0  0  0  0  0  0
  159.2180  213.3240  151.2180 C   0  0  0  0  0  0  0  0  0  0  0  0
  160.3230  213.3120  150.2390 C   0  0  0  0  0  3  0  0  0  0  0  0
  156.7920  213.5900  150.7500 C   0  0  0  0  0  3  0  0  0  0  0  0
  158.4870  213.5770  149.2410 N   0  0  0  0  0  0  0  0  0  0  0  0
  156.2650  213.7930  149.4420 C   0  0  0  0  0  3  0  0  0  0  0  0
  159.7860  213.5070  148.9790 N   0  0  0  0  0  2  0  0  0  0  0  0
  158.1770  213.4960  150.4520 C   0  0  0  0  0  0  0  0  0  0  0  0
  157.2100  213.8370  147.1510 N   0  0  0  0  0  1  0  0  0  0  0  0
  157.3000  213.7000  148.5900 C   0  0  0  0  0  0  0  0  0  0  0  0
  158.0520  212.9120  156.1690 C   0  0  0  0  0  0  0  0  0  0  0  0
  158.6650  214.1580  156.7800 C   0  0  0  0  0  1  0  0  0  0  0  0
  157.1240  212.3520  156.6490 O   0  0  0  0  0  0  0  0  0  0  0  0
  161.2800  211.7390  156.6990 O   0  0  0  0  0  1  0  0  0  0  0  0
  160.6650  211.2300  155.5350 C   0  0  1  0  0  3  0  0  0  0  0  0
  160.2950  209.1310  156.5570 O   0  0  0  0  0  1  0  0  0  0  0  0
  159.6590  210.1810  155.8940 C   0  0  0  0  0  2  0  0  0  0  0  0
  1  5  1  0  0  0  0
  1 29  1  1  0  0  0
  2  4  2  0  0  0  0
  3  5  1  0  0  0  0
  4  1  1  0  0  0  0
  5 25  1  1  0  0  0
  6 16  1  1  0  0  0
  6  4  1  0  0  0  0
  6  3  1  0  0  0  0
  8 11  1  0  0  0  0
  9 13  1  0  0  0  0
 10  2  1  0  0  0  0
 10  7  2  0  0  0  0
 11 15  2  0  0  0  0
 13 14  2  0  0  0  0
 13 11  1  0  0  0  0
 14 10  1  0  0  0  0
 15  7  1  0  0  0  0
 15 12  1  0  0  0  0
 17 16  2  0  0  0  0
 19 22  1  0  0  0  0
 20 18  1  0  0  0  0
 21 19  1  0  0  0  0
 21 17  1  0  0  0  0
 22 18  2  0  0  0  0
 22 16  1  0  0  0  0
 23 24  1  0  0  0  0
 24 19  1  0  0  0  0
 24 20  2  0  0  0  0
 25 27  2  0  0  0  0
 25 26  1  0  0  0  0
 29 31  1  0  0  0  0
 29 28  1  1  0  0  0
 31 30  1  0  0  0  0
M  END
>  <MODEL>
2

>  <REMARK>
 VINA RESULT:      -6.5      3.524      6.690
  Name = 
  5 active torsions:
  status: ('A' for Active; 'I' for Inactive)
    1  A    between atoms: C_3  and  C_31
    2  A    between atoms: C_6  and  C_28
    3  A    between atoms: C_9  and  C_27
    4  A    between atoms: C_11  and  N_21
    5  A    between atoms: C_26  and  C_27
                            x       y       z     vdW  Elec       q    Type
                         _______ _______ _______ _____ _____    ______ ____

>  <TORSDO>
F 5

$$$$
=
 OpenBabel11052411183D

 31 34  0  0  1  0  0  0  0  0999 V2000
  162.1570  207.1230  149.9080 C   0  0  1  0  0  3  0  0  0  0  0  0
  161.5960  209.6890  150.7190 N   0  0  0  0  0  0  0  0  0  0  0  0
  161.1790  206.3650  151.9500 C   0  0  0  0  0  2  0  0  0  0  0  0
  161.8210  208.4320  150.7920 C   0  0  0  0  0  0  0  0  0  0  0  0
  161.1820  206.1310  150.5040 C   0  0  2  0  0  3  0  0  0  0  0  0
  161.3570  207.9010  151.9580 C   0  0  2  0  0  3  0  0  0  0  0  0
  160.9200  211.8170  150.0020 C   0  0  0  0  0  3  0  0  0  0  0  0
  162.5680  214.2710  147.8070 O   0  0  0  0  0  1  0  0  0  0  0  0
  164.0300  212.3220  147.2660 O   0  0  0  0  0  1  0  0  0  0  0  0
  161.5880  210.5950  149.6970 C   0  0  0  0  0  0  0  0  0  0  0  0
  162.1760  213.0200  148.3150 C   0  0  0  0  0  0  0  0  0  0  0  0
  160.4770  214.2730  149.5170 C   0  0  0  0  0  1  0  0  0  0  0  0
  162.8740  211.9350  148.0180 C   0  0  0  0  0  0  0  0  0  0  0  0
  162.5850  210.6250  148.6390 C   0  0  0  0  0  3  0  0  0  0  0  0
  161.1500  213.0030  149.2870 C   0  0  0  0  0  0  0  0  0  0  0  0
  161.5300  208.7780  153.1010 C   0  0  0  0  0  0  0  0  0  0  0  0
  161.8780  210.2010  153.2840 C   0  0  0  0  0  3  0  0  0  0  0  0
  160.3750  207.2870  154.7180 C   0  0  0  0  0  3  0  0  0  0  0  0
  160.9120  209.4730  155.0080 N   0  0  0  0  0  0  0  0  0  0  0  0
  159.9730  207.7050  156.0190 C   0  0  0  0  0  3  0  0  0  0  0  0
  161.4740  210.5840  154.5510 N   0  0  0  0  0  2  0  0  0  0  0  0
  160.9550  208.4890  154.2340 C   0  0  0  0  0  0  0  0  0  0  0  0
  159.9870  209.8510  157.2600 N   0  0  0  0  0  1  0  0  0  0  0  0
  160.2460  209.0190  156.1030 C   0  0  0  0  0  0  0  0  0  0  0  0
  161.1830  204.7240  150.0210 C   0  0  0  0  0  0  0  0  0  0  0  0
  161.5300  203.6950  151.0810 C   0  0  0  0  0  1  0  0  0  0  0  0
  160.7670  204.4280  148.9510 O   0  0  0  0  0  0  0  0  0  0  0  0
  162.9970  206.1730  147.7620 O   0  0  0  0  0  1  0  0  0  0  0  0
  162.2900  207.2150  148.4000 C   0  0  1  0  0  3  0  0  0  0  0  0
  160.8550  206.6290  146.6160 O   0  0  0  0  0  1  0  0  0  0  0  0
  160.9260  207.3620  147.8000 C   0  0  0  0  0  2  0  0  0  0  0  0
  1 29  1  6  0  0  0
  1  5  1  0  0  0  0
  1  4  1  0  0  0  0
  2  4  2  0  0  0  0
  3  6  1  0  0  0  0
  4  6  1  0  0  0  0
  5 25  1  1  0  0  0
  5  3  1  0  0  0  0
  6 16  1  1  0  0  0
  8 11  1  0  0  0  0
  9 13  1  0  0  0  0
 10  7  1  0  0  0  0
 10  2  1  0  0  0  0
 11 15  1  0  0  0  0
 13 11  2  0  0  0  0
 13 14  1  0  0  0  0
 14 10  2  0  0  0  0
 15 12  1  0  0  0  0
 15  7  2  0  0  0  0
 16 17  2  0  0  0  0
 16 22  1  0  0  0  0
 17 21  1  0  0  0  0
 18 20  1  0  0  0  0
 19 24  1  0  0  0  0
 20 24  2  0  0  0  0
 21 19  1  0  0  0  0
 22 18  2  0  0  0  0
 22 19  1  0  0  0  0
 24 23  1  0  0  0  0
 25 26  1  0  0  0  0
 27 25  2  0  0  0  0
 29 28  1  6  0  0  0
 30 31  1  0  0  0  0
 31 29  1  0  0  0  0
M  END
>  <MODEL>
3

>  <REMARK>
 VINA RESULT:      -6.4      3.385      5.693
  Name = 
  5 active torsions:
  status: ('A' for Active; 'I' for Inactive)
    1  A    between atoms: C_3  and  C_31
    2  A    between atoms: C_6  and  C_28
    3  A    between atoms: C_9  and  C_27
    4  A    between atoms: C_11  and  N_21
    5  A    between atoms: C_26  and  C_27
                            x       y       z     vdW  Elec       q    Type
                         _______ _______ _______ _____ _____    ______ ____

>  <TORSDO>
F 5

$$$$
=
 OpenBabel11052411183D

 31 34  0  0  1  0  0  0  0  0999 V2000
  161.9570  208.0630  152.2230 C   0  0  1  0  0  3  0  0  0  0  0  0
  161.4430  208.4280  149.5470 N   0  0  0  0  0  0  0  0  0  0  0  0
  161.4990  210.3850  152.5320 C   0  0  0  0  0  2  0  0  0  0  0  0
  161.7500  208.7080  150.7570 C   0  0  0  0  0  0  0  0  0  0  0  0
  161.1960  209.0570  153.0720 C   0  0  2  0  0  3  0  0  0  0  0  0
  161.5860  210.0330  151.0290 C   0  0  2  0  0  3  0  0  0  0  0  0
  162.0640  206.9640  147.8240 C   0  0  0  0  0  3  0  0  0  0  0  0
  161.9080  203.2930  147.5910 O   0  0  0  0  0  1  0  0  0  0  0  0
  160.4560  203.5500  149.6050 O   0  0  0  0  0  1  0  0  0  0  0  0
  161.1580  207.2700  148.8830 C   0  0  0  0  0  0  0  0  0  0  0  0
  161.5390  204.6020  147.9480 C   0  0  0  0  0  0  0  0  0  0  0  0
  163.0860  205.2900  146.2070 C   0  0  0  0  0  1  0  0  0  0  0  0
  160.7240  204.8060  148.9710 C   0  0  0  0  0  0  0  0  0  0  0  0
  160.4210  206.1640  149.4700 C   0  0  0  0  0  3  0  0  0  0  0  0
  162.2130  205.6670  147.3090 C   0  0  0  0  0  0  0  0  0  0  0  0
  161.9560  210.8980  149.9250 C   0  0  0  0  0  0  0  0  0  0  0  0
  162.6510  210.7120  148.6360 C   0  0  0  0  0  3  0  0  0  0  0  0
  160.4300  212.7530  150.5610 C   0  0  0  0  0  3  0  0  0  0  0  0
  161.5000  212.4750  148.5790 N   0  0  0  0  0  0  0  0  0  0  0  0
  160.1240  213.8450  149.6980 C   0  0  0  0  0  3  0  0  0  0  0  0
  162.3350  211.7800  147.8160 N   0  0  0  0  0  2  0  0  0  0  0  0
  161.3060  212.0100  149.7250 C   0  0  0  0  0  0  0  0  0  0  0  0
  160.6620  214.4390  147.3530 N   0  0  0  0  0  1  0  0  0  0  0  0
  160.7210  213.5870  148.5220 C   0  0  0  0  0  0  0  0  0  0  0  0
  161.1710  208.8890  154.5490 C   0  0  0  0  0  0  0  0  0  0  0  0
  161.9220  209.9610  155.3170 C   0  0  0  0  0  1  0  0  0  0  0  0
  160.4700  208.0940  155.0790 O   0  0  0  0  0  0  0  0  0  0  0  0
  160.4560  206.0720  152.1980 O   0  0  0  0  0  1  0  0  0  0  0  0
  161.7490  206.5780  152.4560 C   0  0  1  0  0  3  0  0  0  0  0  0
  162.5340  204.4470  151.8020 O   0  0  0  0  0  1  0  0  0  0  0  0
  162.7710  205.8150  151.6730 C   0  0  0  0  0  2  0  0  0  0  0  0
  1 29  1  6  0  0  0
  1  5  1  0  0  0  0
  2  4  2  0  0  0  0
  3  5  1  0  0  0  0
  4  6  1  0  0  0  0
  4  1  1  0  0  0  0
  5 25  1  1  0  0  0
  6 16  1  1  0  0  0
  6  3  1  0  0  0  0
  7 10  1  0  0  0  0
  8 11  1  0  0  0  0
 10 14  2  0  0  0  0
 10  2  1  0  0  0  0
 11 13  2  0  0  0  0
 12 15  1  0  0  0  0
 13 14  1  0  0  0  0
 13  9  1  0  0  0  0
 15  7  2  0  0  0  0
 15 11  1  0  0  0  0
 17 16  2  0  0  0  0
 19 22  1  0  0  0  0
 20 18  1  0  0  0  0
 21 19  1  0  0  0  0
 21 17  1  0  0  0  0
 22 16  1  0  0  0  0
 22 18  2  0  0  0  0
 23 24  1  0  0  0  0
 24 19  1  0  0  0  0
 24 20  2  0  0  0  0
 25 27  2  0  0  0  0
 25 26  1  0  0  0  0
 29 28  1  6  0  0  0
 31 30  1  0  0  0  0
 31 29  1  0  0  0  0
M  END
>  <MODEL>
4

>  <REMARK>
 VINA RESULT:      -6.3      3.382      6.493
  Name = 
  5 active torsions:
  status: ('A' for Active; 'I' for Inactive)
    1  A    between atoms: C_3  and  C_31
    2  A    between atoms: C_6  and  C_28
    3  A    between atoms: C_9  and  C_27
    4  A    between atoms: C_11  and  N_21
    5  A    between atoms: C_26  and  C_27
                            x       y       z     vdW  Elec       q    Type
                         _______ _______ _______ _____ _____    ______ ____

>  <TORSDO>
F 5

$$$$
=
 OpenBabel11052411183D

 31 34  0  0  1  0  0  0  0  0999 V2000
  161.2190  207.8990  149.0420 C   0  0  1  0  0  3  0  0  0  0  0  0
  161.4490  205.6100  150.5490 N   0  0  0  0  0  0  0  0  0  0  0  0
  161.8140  209.1320  150.9980 C   0  0  0  0  0  2  0  0  0  0  0  0
  161.2910  206.8480  150.2660 C   0  0  0  0  0  0  0  0  0  0  0  0
  162.1140  208.9980  149.5700 C   0  0  2  0  0  3  0  0  0  0  0  0
  161.5440  207.6490  151.3400 C   0  0  2  0  0  3  0  0  0  0  0  0
  160.8000  203.3800  150.2250 C   0  0  0  0  0  3  0  0  0  0  0  0
  160.3310  201.4150  147.1480 O   0  0  0  0  0  1  0  0  0  0  0  0
  161.5400  203.3410  146.1200 O   0  0  0  0  0  1  0  0  0  0  0  0
  161.6050  204.4780  149.8010 C   0  0  0  0  0  0  0  0  0  0  0  0
  160.8780  202.3660  148.0260 C   0  0  0  0  0  0  0  0  0  0  0  0
  159.7090  201.1320  149.7610 C   0  0  0  0  0  1  0  0  0  0  0  0
  161.5810  203.3820  147.5510 C   0  0  0  0  0  0  0  0  0  0  0  0
  162.0550  204.4800  148.4190 C   0  0  0  0  0  3  0  0  0  0  0  0
  160.4890  202.3010  149.3830 C   0  0  0  0  0  0  0  0  0  0  0  0
  161.0930  207.0860  152.5980 C   0  0  0  0  0  0  0  0  0  0  0  0
  161.2060  205.7700  153.2570 C   0  0  0  0  0  3  0  0  0  0  0  0
  160.6140  209.2740  153.6740 C   0  0  0  0  0  3  0  0  0  0  0  0
  160.7810  207.2520  154.6910 N   0  0  0  0  0  0  0  0  0  0  0  0
  160.3670  209.4230  155.0700 C   0  0  0  0  0  3  0  0  0  0  0  0
  160.9670  205.9410  154.6090 N   0  0  0  0  0  2  0  0  0  0  0  0
  160.8310  207.8720  153.6050 C   0  0  0  0  0  0  0  0  0  0  0  0
  160.4130  207.9140  157.0350 N   0  0  0  0  0  1  0  0  0  0  0  0
  160.5540  208.2130  155.6250 C   0  0  0  0  0  0  0  0  0  0  0  0
  162.2960  210.2400  148.7710 C   0  0  0  0  0  0  0  0  0  0  0  0
  161.5810  211.4570  149.3280 C   0  0  0  0  0  1  0  0  0  0  0  0
  163.0810  210.3070  147.8860 O   0  0  0  0  0  0  0  0  0  0  0  0
  162.5940  206.7760  147.2910 O   0  0  0  0  0  1  0  0  0  0  0  0
  161.3850  207.4340  147.6070 C   0  0  1  0  0  3  0  0  0  0  0  0
  160.2530  206.3000  145.8700 O   0  0  0  0  0  1  0  0  0  0  0  0
  160.2140  206.5780  147.2360 C   0  0  0  0  0  2  0  0  0  0  0  0
  1 29  1  6  0  0  0
  1  5  1  0  0  0  0
  1  4  1  0  0  0  0
  3  6  1  0  0  0  0
  4  2  2  0  0  0  0
  4  6  1  0  0  0  0
  5 25  1  6  0  0  0
  5  3  1  0  0  0  0
  6 16  1  1  0  0  0
  8 11  1  0  0  0  0
  9 13  1  0  0  0  0
 10  7  1  0  0  0  0
 10  2  1  0  0  0  0
 11 15  1  0  0  0  0
 13 11  2  0  0  0  0
 13 14  1  0  0  0  0
 14 10  2  0  0  0  0
 15 12  1  0  0  0  0
 15  7  2  0  0  0  0
 16 17  2  0  0  0  0
 16 22  1  0  0  0  0
 17 21  1  0  0  0  0
 18 20  1  0  0  0  0
 19 24  1  0  0  0  0
 20 24  2  0  0  0  0
 21 19  1  0  0  0  0
 22 18  2  0  0  0  0
 22 19  1  0  0  0  0
 24 23  1  0  0  0  0
 25 26  1  0  0  0  0
 27 25  2  0  0  0  0
 29 28  1  1  0  0  0
 30 31  1  0  0  0  0
 31 29  1  0  0  0  0
M  END
>  <MODEL>
5

>  <REMARK>
 VINA RESULT:      -6.0      4.160      7.859
  Name = 
  5 active torsions:
  status: ('A' for Active; 'I' for Inactive)
    1  A    between atoms: C_3  and  C_31
    2  A    between atoms: C_6  and  C_28
    3  A    between atoms: C_9  and  C_27
    4  A    between atoms: C_11  and  N_21
    5  A    between atoms: C_26  and  C_27
                            x       y       z     vdW  Elec       q    Type
                         _______ _______ _______ _____ _____    ______ ____

>  <TORSDO>
F 5

$$$$
=
 OpenBabel11052411183D

 31 34  0  0  1  0  0  0  0  0999 V2000
  160.7700  208.1120  151.9880 C   0  0  1  0  0  3  0  0  0  0  0  0
  161.7380  209.1210  149.6210 N   0  0  0  0  0  0  0  0  0  0  0  0
  161.6160  205.9830  151.3190 C   0  0  0  0  0  2  0  0  0  0  0  0
  161.3130  208.2690  150.4760 C   0  0  0  0  0  0  0  0  0  0  0  0
  161.5730  206.9160  152.4480 C   0  0  2  0  0  3  0  0  0  0  0  0
  161.6870  206.9980  150.1550 C   0  0  2  0  0  3  0  0  0  0  0  0
  162.3400  211.0230  148.3880 C   0  0  0  0  0  3  0  0  0  0  0  0
  161.0030  214.4520  148.4180 O   0  0  0  0  0  1  0  0  0  0  0  0
  159.9130  213.6630  150.5200 O   0  0  0  0  0  1  0  0  0  0  0  0
  161.8890  210.4770  149.6270 C   0  0  0  0  0  0  0  0  0  0  0  0
  161.3920  213.1920  148.9030 C   0  0  0  0  0  0  0  0  0  0  0  0
  162.6300  213.0030  146.8220 C   0  0  0  0  0  1  0  0  0  0  0  0
  160.8960  212.7370  150.0440 C   0  0  0  0  0  0  0  0  0  0  0  0
  161.1660  211.3650  150.5220 C   0  0  0  0  0  3  0  0  0  0  0  0
  162.1620  212.3720  148.0470 C   0  0  0  0  0  0  0  0  0  0  0  0
  161.6600  206.7320  148.7290 C   0  0  0  0  0  0  0  0  0  0  0  0
  162.1690  207.4190  147.5260 C   0  0  0  0  0  3  0  0  0  0  0  0
  161.0500  204.3330  148.9510 C   0  0  0  0  0  3  0  0  0  0  0  0
  161.8270  205.3860  147.0960 N   0  0  0  0  0  0  0  0  0  0  0  0
  161.1180  203.4060  147.8720 C   0  0  0  0  0  3  0  0  0  0  0  0
  162.2300  206.4980  146.4950 N   0  0  0  0  0  2  0  0  0  0  0  0
  161.5020  205.5110  148.2990 C   0  0  0  0  0  0  0  0  0  0  0  0
  161.9080  203.4920  145.5240 N   0  0  0  0  0  1  0  0  0  0  0  0
  161.6530  204.0640  146.8290 C   0  0  0  0  0  0  0  0  0  0  0  0
  161.3450  206.3610  153.8080 C   0  0  0  0  0  0  0  0  0  0  0  0
  160.7960  204.9460  153.8270 C   0  0  0  0  0  1  0  0  0  0  0  0
  161.7340  206.9100  154.7840 O   0  0  0  0  0  0  0  0  0  0  0  0
  159.7210  209.2220  153.9590 O   0  0  0  0  0  1  0  0  0  0  0  0
  160.6500  209.3190  152.9010 C   0  0  1  0  0  3  0  0  0  0  0  0
  161.9840  210.9450  153.9780 O   0  0  0  0  0  1  0  0  0  0  0  0
  162.0070  209.6640  153.4300 C   0  0  0  0  0  2  0  0  0  0  0  0
  1  5  1  0  0  0  0
  1 29  1  1  0  0  0
  2 10  1  0  0  0  0
  2  4  2  0  0  0  0
  3  5  1  0  0  0  0
  4  1  1  0  0  0  0
  5 25  1  1  0  0  0
  6 16  1  6  0  0  0
  6  4  1  0  0  0  0
  6  3  1  0  0  0  0
  7 10  1  0  0  0  0
  8 11  1  0  0  0  0
 10 14  2  0  0  0  0
 11 13  2  0  0  0  0
 12 15  1  0  0  0  0
 13  9  1  0  0  0  0
 13 14  1  0  0  0  0
 15  7  2  0  0  0  0
 15 11  1  0  0  0  0
 17 16  2  0  0  0  0
 19 22  1  0  0  0  0
 20 18  1  0  0  0  0
 21 19  1  0  0  0  0
 21 17  1  0  0  0  0
 22 16  1  0  0  0  0
 22 18  2  0  0  0  0
 23 24  1  0  0  0  0
 24 19  1  0  0  0  0
 24 20  2  0  0  0  0
 25 26  1  0  0  0  0
 25 27  2  0  0  0  0
 29 31  1  0  0  0  0
 29 28  1  1  0  0  0
 31 30  1  0  0  0  0
M  END
>  <MODEL>
6

>  <REMARK>
 VINA RESULT:      -5.9      1.463      1.912
  Name = 
  5 active torsions:
  status: ('A' for Active; 'I' for Inactive)
    1  A    between atoms: C_3  and  C_31
    2  A    between atoms: C_6  and  C_28
    3  A    between atoms: C_9  and  C_27
    4  A    between atoms: C_11  and  N_21
    5  A    between atoms: C_26  and  C_27
                            x       y       z     vdW  Elec       q    Type
                         _______ _______ _______ _____ _____    ______ ____

>  <TORSDO>
F 5

$$$$
=
 OpenBabel11052411183D

 31 34  0  0  1  0  0  0  0  0999 V2000
  162.0210  207.6090  151.0660 C   0  0  1  0  0  3  0  0  0  0  0  0
  161.1490  210.1840  151.4750 N   0  0  0  0  0  0  0  0  0  0  0  0
  160.9070  207.0110  153.0900 C   0  0  0  0  0  2  0  0  0  0  0  0
  161.4780  208.9750  151.7340 C   0  0  0  0  0  0  0  0  0  0  0  0
  161.0830  206.6030  151.6940 C   0  0  2  0  0  3  0  0  0  0  0  0
  160.9440  208.5460  152.9120 C   0  0  2  0  0  3  0  0  0  0  0  0
  160.3680  212.1300  150.4260 C   0  0  0  0  0  3  0  0  0  0  0  0
  162.0120  214.4480  148.0850 O   0  0  0  0  0  1  0  0  0  0  0  0
  163.6850  212.6020  147.9400 O   0  0  0  0  0  1  0  0  0  0  0  0
  161.1680  210.9520  150.3470 C   0  0  0  0  0  0  0  0  0  0  0  0
  161.6810  213.2360  148.7160 C   0  0  0  0  0  0  0  0  0  0  0  0
  159.7650  214.4520  149.5840 C   0  0  0  0  0  1  0  0  0  0  0  0
  162.4970  212.1970  148.6290 C   0  0  0  0  0  0  0  0  0  0  0  0
  162.2610  210.9520  149.3880 C   0  0  0  0  0  3  0  0  0  0  0  0
  160.5660  213.2370  149.5850 C   0  0  0  0  0  0  0  0  0  0  0  0
  160.9160  209.5690  153.9400 C   0  0  0  0  0  0  0  0  0  0  0  0
  161.9250  210.2090  154.8080 C   0  0  0  0  0  3  0  0  0  0  0  0
  158.6730  210.4490  153.3320 C   0  0  0  0  0  3  0  0  0  0  0  0
  160.2180  211.4350  154.6730 N   0  0  0  0  0  0  0  0  0  0  0  0
  158.1550  211.6800  153.8280 C   0  0  0  0  0  3  0  0  0  0  0  0
  161.4010  211.4020  155.2720 N   0  0  0  0  0  2  0  0  0  0  0  0
  159.9450  210.4380  153.9650 C   0  0  0  0  0  0  0  0  0  0  0  0
  159.0390  213.5250  155.2290 N   0  0  0  0  0  1  0  0  0  0  0  0
  159.1370  212.2500  154.5480 C   0  0  0  0  0  0  0  0  0  0  0  0
  161.2610  205.1550  151.4030 C   0  0  0  0  0  0  0  0  0  0  0  0
  160.1410  204.5340  150.5890 C   0  0  0  0  0  1  0  0  0  0  0  0
  162.2780  204.5900  151.6300 O   0  0  0  0  0  0  0  0  0  0  0  0
  163.1070  206.4540  149.1420 O   0  0  0  0  0  1  0  0  0  0  0  0
  162.3030  207.5290  149.5770 C   0  0  1  0  0  3  0  0  0  0  0  0
  161.0540  206.6180  147.7900 O   0  0  0  0  0  1  0  0  0  0  0  0
  161.0020  207.5390  148.8350 C   0  0  0  0  0  2  0  0  0  0  0  0
  1 29  1  6  0  0  0
  1  5  1  0  0  0  0
  1  4  1  0  0  0  0
  2  4  2  0  0  0  0
  4  6  1  0  0  0  0
  5 25  1  1  0  0  0
  5  3  1  0  0  0  0
  6  3  1  0  0  0  0
  6 16  1  1  0  0  0
  8 11  1  0  0  0  0
  9 13  1  0  0  0  0
 10  7  1  0  0  0  0
 10  2  1  0  0  0  0
 11 15  1  0  0  0  0
 12 15  1  0  0  0  0
 13 11  2  0  0  0  0
 13 14  1  0  0  0  0
 14 10  2  0  0  0  0
 15  7  2  0  0  0  0
 16 22  1  0  0  0  0
 16 17  2  0  0  0  0
 17 21  1  0  0  0  0
 18 20  1  0  0  0  0
 18 22  2  0  0  0  0
 19 21  1  0  0  0  0
 20 24  2  0  0  0  0
 22 19  1  0  0  0  0
 24 19  1  0  0  0  0
 24 23  1  0  0  0  0
 25 27  2  0  0  0  0
 26 25  1  0  0  0  0
 29 28  1  1  0  0  0
 30 31  1  0  0  0  0
 31 29  1  0  0  0  0
M  END
>  <MODEL>
7

>  <REMARK>
 VINA RESULT:      -5.4      3.184      5.799
  Name = 
  5 active torsions:
  status: ('A' for Active; 'I' for Inactive)
    1  A    between atoms: C_3  and  C_31
    2  A    between atoms: C_6  and  C_28
    3  A    between atoms: C_9  and  C_27
    4  A    between atoms: C_11  and  N_21
    5  A    between atoms: C_26  and  C_27
                            x       y       z     vdW  Elec       q    Type
                         _______ _______ _______ _____ _____    ______ ____

>  <TORSDO>
F 5

$$$$
=
 OpenBabel11052411183D

 31 34  0  0  1  0  0  0  0  0999 V2000
  160.8310  211.6840  152.4200 C   0  0  1  0  0  3  0  0  0  0  0  0
  161.5780  210.4300  150.0900 N   0  0  0  0  0  0  0  0  0  0  0  0
  159.7840  213.3540  151.0740 C   0  0  0  0  0  2  0  0  0  0  0  0
  161.2060  211.3630  150.8830 C   0  0  0  0  0  0  0  0  0  0  0  0
  159.5620  212.4850  152.2330 C   0  0  2  0  0  3  0  0  0  0  0  0
  160.6470  212.4070  150.2090 C   0  0  2  0  0  3  0  0  0  0  0  0
  161.6440  208.6090  151.5670 C   0  0  0  0  0  3  0  0  0  0  0  0
  161.0860  205.0140  151.0060 O   0  0  0  0  0  1  0  0  0  0  0  0
  161.2870  205.6860  148.6110 O   0  0  0  0  0  1  0  0  0  0  0  0
  161.9040  209.1150  150.2590 C   0  0  0  0  0  0  0  0  0  0  0  0
  161.4920  206.3340  150.7470 C   0  0  0  0  0  0  0  0  0  0  0  0
  161.2780  206.6510  153.1460 C   0  0  0  0  0  1  0  0  0  0  0  0
  161.6740  206.7400  149.5000 C   0  0  0  0  0  0  0  0  0  0  0  0
  161.9620  208.1520  149.1710 C   0  0  0  0  0  3  0  0  0  0  0  0
  161.5040  207.2380  151.8340 C   0  0  0  0  0  0  0  0  0  0  0  0
  161.2950  212.6900  148.9420 C   0  0  0  0  0  0  0  0  0  0  0  0
  162.6590  212.5200  148.4030 C   0  0  0  0  0  3  0  0  0  0  0  0
  159.1860  212.9540  147.6550 C   0  0  0  0  0  3  0  0  0  0  0  0
  161.2810  212.6980  146.8200 N   0  0  0  0  0  0  0  0  0  0  0  0
  159.1380  212.9970  146.2320 C   0  0  0  0  0  3  0  0  0  0  0  0
  162.5850  212.5600  147.0210 N   0  0  0  0  0  2  0  0  0  0  0  0
  160.5820  212.7860  147.8550 C   0  0  0  0  0  0  0  0  0  0  0  0
  160.7900  212.7120  144.4060 N   0  0  0  0  0  1  0  0  0  0  0  0
  160.3880  212.7650  145.7960 C   0  0  0  0  0  0  0  0  0  0  0  0
  158.8790  213.0620  153.4210 C   0  0  0  0  0  0  0  0  0  0  0  0
  157.3650  212.9610  153.3860 C   0  0  0  0  0  1  0  0  0  0  0  0
  159.4770  213.3980  154.3880 O   0  0  0  0  0  0  0  0  0  0  0  0
  161.5310  210.9040  154.6820 O   0  0  0  0  0  1  0  0  0  0  0  0
  160.8690  210.5930  153.4740 C   0  0  1  0  0  3  0  0  0  0  0  0
  159.2830  210.0100  155.1260 O   0  0  0  0  0  1  0  0  0  0  0  0
  159.4710  210.1350  153.7500 C   0  0  0  0  0  2  0  0  0  0  0  0
  1 29  1  1  0  0  0
  2 10  1  0  0  0  0
  2  4  2  0  0  0  0
  3  5  1  0  0  0  0
  4  1  1  0  0  0  0
  5  1  1  0  0  0  0
  5 25  1  1  0  0  0
  6 16  1  1  0  0  0
  6  4  1  0  0  0  0
  6  3  1  0  0  0  0
  7 15  1  0  0  0  0
  9 13  1  0  0  0  0
 10  7  2  0  0  0  0
 11  8  1  0  0  0  0
 11 15  2  0  0  0  0
 13 11  1  0  0  0  0
 14 13  2  0  0  0  0
 14 10  1  0  0  0  0
 15 12  1  0  0  0  0
 17 16  2  0  0  0  0
 18 22  2  0  0  0  0
 19 21  1  0  0  0  0
 19 22  1  0  0  0  0
 20 18  1  0  0  0  0
 21 17  1  0  0  0  0
 22 16  1  0  0  0  0
 23 24  1  0  0  0  0
 24 20  2  0  0  0  0
 24 19  1  0  0  0  0
 25 27  2  0  0  0  0
 26 25  1  0  0  0  0
 29 31  1  0  0  0  0
 29 28  1  1  0  0  0
 31 30  1  0  0  0  0
M  END
>  <MODEL>
8

>  <REMARK>
 VINA RESULT:      -5.2      3.104      6.453
  Name = 
  5 active torsions:
  status: ('A' for Active; 'I' for Inactive)
    1  A    between atoms: C_3  and  C_31
    2  A    between atoms: C_6  and  C_28
    3  A    between atoms: C_9  and  C_27
    4  A    between atoms: C_11  and  N_21
    5  A    between atoms: C_26  and  C_27
                            x       y       z     vdW  Elec       q    Type
                         _______ _______ _______ _____ _____    ______ ____

>  <TORSDO>
F 5

$$$$
=
 OpenBabel11052411183D

 31 34  0  0  1  0  0  0  0  0999 V2000
  161.2380  208.0830  149.3070 C   0  0  1  0  0  3  0  0  0  0  0  0
  161.3630  206.0490  151.1520 N   0  0  0  0  0  0  0  0  0  0  0  0
  161.7050  209.6010  151.0890 C   0  0  0  0  0  2  0  0  0  0  0  0
  161.2270  207.2290  150.6770 C   0  0  0  0  0  0  0  0  0  0  0  0
  162.0980  209.2560  149.7200 C   0  0  2  0  0  3  0  0  0  0  0  0
  161.4100  208.1840  151.6320 C   0  0  2  0  0  3  0  0  0  0  0  0
  162.0770  203.8420  151.5010 C   0  0  0  0  0  3  0  0  0  0  0  0
  160.8710  200.6560  150.1050 O   0  0  0  0  0  1  0  0  0  0  0  0
  159.6840  202.1730  148.5190 O   0  0  0  0  0  1  0  0  0  0  0  0
  161.5650  204.8190  150.5960 C   0  0  0  0  0  0  0  0  0  0  0  0
  161.1960  202.0230  150.1660 C   0  0  0  0  0  0  0  0  0  0  0  0
  162.4930  201.4140  152.1270 C   0  0  0  0  0  1  0  0  0  0  0  0
  160.6460  202.8740  149.3140 C   0  0  0  0  0  0  0  0  0  0  0  0
  160.8480  204.3340  149.4280 C   0  0  0  0  0  3  0  0  0  0  0  0
  161.9610  202.4630  151.2700 C   0  0  0  0  0  0  0  0  0  0  0  0
  160.8770  207.8130  152.9290 C   0  0  0  0  0  0  0  0  0  0  0  0
  160.8950  206.5920  153.7590 C   0  0  0  0  0  3  0  0  0  0  0  0
  160.4580  210.1430  153.6840 C   0  0  0  0  0  3  0  0  0  0  0  0
  160.4800  208.2690  154.9640 N   0  0  0  0  0  0  0  0  0  0  0  0
  160.1570  210.4860  155.0340 C   0  0  0  0  0  3  0  0  0  0  0  0
  160.6050  206.9520  155.0630 N   0  0  0  0  0  2  0  0  0  0  0  0
  160.6090  208.7370  153.8090 C   0  0  0  0  0  0  0  0  0  0  0  0
  160.0410  209.2510  157.1790 N   0  0  0  0  0  1  0  0  0  0  0  0
  160.2590  209.3550  155.7510 C   0  0  0  0  0  0  0  0  0  0  0  0
  162.3350  210.3650  148.7570 C   0  0  0  0  0  0  0  0  0  0  0  0
  161.6190  211.6580  149.0990 C   0  0  0  0  0  1  0  0  0  0  0  0
  163.1570  210.2920  147.9070 O   0  0  0  0  0  0  0  0  0  0  0  0
  162.6750  206.6380  147.8710 O   0  0  0  0  0  1  0  0  0  0  0  0
  161.4960  207.4090  147.9720 C   0  0  1  0  0  3  0  0  0  0  0  0
  160.4110  206.1680  146.2790 O   0  0  0  0  0  1  0  0  0  0  0  0
  160.3020  206.5840  147.6050 C   0  0  0  0  0  2  0  0  0  0  0  0
  1 29  1  6  0  0  0
  1  5  1  0  0  0  0
  1  4  1  0  0  0  0
  3  6  1  0  0  0  0
  4  2  2  0  0  0  0
  4  6  1  0  0  0  0
  5 25  1  6  0  0  0
  5  3  1  0  0  0  0
  6 16  1  6  0  0  0
  8 11  1  0  0  0  0
  9 13  1  0  0  0  0
 10  2  1  0  0  0  0
 10  7  2  0  0  0  0
 11 15  2  0  0  0  0
 13 14  2  0  0  0  0
 13 11  1  0  0  0  0
 14 10  1  0  0  0  0
 15  7  1  0  0  0  0
 15 12  1  0  0  0  0
 16 17  2  0  0  0  0
 16 22  1  0  0  0  0
 17 21  1  0  0  0  0
 18 22  2  0  0  0  0
 18 20  1  0  0  0  0
 19 21  1  0  0  0  0
 19 24  1  0  0  0  0
 20 24  2  0  0  0  0
 22 19  1  0  0  0  0
 24 23  1  0  0  0  0
 25 26  1  0  0  0  0
 27 25  2  0  0  0  0
 29 28  1  1  0  0  0
 30 31  1  0  0  0  0
 31 29  1  0  0  0  0
M  END
>  <MODEL>
9

>  <REMARK>
 VINA RESULT:      -5.2      3.904      8.015
  Name = 
  5 active torsions:
  status: ('A' for Active; 'I' for Inactive)
    1  A    between atoms: C_3  and  C_31
    2  A    between atoms: C_6  and  C_28
    3  A    between atoms: C_9  and  C_27
    4  A    between atoms: C_11  and  N_21
    5  A    between atoms: C_26  and  C_27
                            x       y       z     vdW  Elec       q    Type
                         _______ _______ _______ _____ _____    ______ ____

>  <TORSDO>
F 5

$$$$
