=
 OpenBabel11042422523D

 29 32  0  0  1  0  0  0  0  0999 V2000
  160.8540  208.8940  153.6130 C   0  0  0  0  0  0  0  0  0  0  0  0
  162.2300  207.5900  149.1420 C   0  0  0  0  0  0  0  0  0  0  0  0
  161.6900  204.8920  151.5580 C   0  0  0  0  0  3  0  0  0  0  0  0
  161.4800  205.5610  149.2500 C   0  0  0  0  0  0  0  0  0  0  0  0
  161.7040  206.6690  148.3940 N   0  0  0  0  0  0  0  0  0  0  0  0
  160.7550  203.3680  149.8930 C   0  0  0  0  0  0  0  0  0  0  0  0
  161.0880  210.4910  151.8430 N   0  0  0  0  0  0  0  0  0  0  0  0
  162.4320  207.2000  150.5860 C   0  0  1  0  0  3  0  0  0  0  0  0
  161.7420  208.2130  151.4650 C   0  0  0  0  0  0  0  0  0  0  0  0
  161.1410  203.6440  151.2210 C   0  0  0  0  0  3  0  0  0  0  0  0
  162.2370  208.9630  148.7450 N   0  0  0  0  0  0  0  0  0  0  0  0
  160.7110  210.1970  153.1160 C   0  0  0  0  0  3  0  0  0  0  0  0
  160.9270  204.3350  148.8880 C   0  0  0  0  0  3  0  0  0  0  0  0
  160.1720  202.0440  149.5530 C   0  0  0  0  0  1  0  0  0  0  0  0
  161.9870  211.3180  149.1720 C   0  0  0  0  0  1  0  0  0  0  0  0
  161.3850  207.9070  152.7830 C   0  0  0  0  0  3  0  0  0  0  0  0
  161.6040  209.5450  151.0120 C   0  0  0  0  0  0  0  0  0  0  0  0
  161.9840  209.8970  149.6170 C   0  0  0  0  0  0  0  0  0  0  0  0
  161.8210  205.8440  150.5480 C   0  0  0  0  0  0  0  0  0  0  0  0
  160.4510  207.0390  155.2180 C   0  0  0  0  0  1  0  0  0  0  0  0
  160.4470  208.5430  155.0130 C   0  0  1  0  0  3  0  0  0  0  0  0
  161.3550  209.2130  156.0380 C   0  0  0  0  0  2  0  0  0  0  0  0
  160.5640  210.1880  156.8940 C   0  0  0  0  0  2  0  0  0  0  0  0
  160.9860  211.6120  156.5780 C   0  0  0  0  0  2  0  0  0  0  0  0
  159.8550  212.3550  155.8850 C   0  0  0  0  0  2  0  0  0  0  0  0
  157.8090  211.9500  153.9220 O   0  0  0  0  0  0  0  0  0  0  0  0
  158.5870  211.6720  156.1090 N   0  0  0  0  0  2  0  0  0  0  0  0
  156.3690  210.8730  155.3880 N   0  0  0  0  0  1  0  0  0  0  0  0
  157.6000  211.5180  155.0870 C   0  0  0  0  0  0  0  0  0  0  0  0
  1 21  1  0  0  0  0
  4 19  1  0  0  0  0
  5  2  2  0  0  0  0
  5  4  1  0  0  0  0
  6 10  2  0  0  0  0
  7 12  2  0  0  0  0
  8  2  1  6  0  0  0
  8  9  1  0  0  0  0
  9 16  1  0  0  0  0
 10  3  1  0  0  0  0
 11  2  1  0  0  0  0
 11 18  2  0  0  0  0
 12  1  1  0  0  0  0
 13  4  2  0  0  0  0
 13  6  1  0  0  0  0
 14  6  1  0  0  0  0
 15 18  1  0  0  0  0
 16  1  2  0  0  0  0
 17  9  2  0  0  0  0
 17  7  1  0  0  0  0
 18 17  1  0  0  0  0
 19  8  1  0  0  0  0
 19  3  2  0  0  0  0
 21 20  1  6  0  0  0
 21 22  1  0  0  0  0
 22 23  1  0  0  0  0
 24 23  1  0  0  0  0
 25 27  1  0  0  0  0
 25 24  1  0  0  0  0
 26 29  2  0  0  0  0
 29 28  1  0  0  0  0
 29 27  1  0  0  0  0
M  END
>  <MODEL>
1

>  <REMARK>
 VINA RESULT:      -8.3      0.000      0.000
  Name = 
  6 active torsions:
  status: ('A' for Active; 'I' for Inactive)
    1  A    between atoms: C_1  and  C_27
    2  A    between atoms: C_17  and  C_19
    3  A    between atoms: C_17  and  C_29
    4  A    between atoms: C_19  and  C_27
    5  A    between atoms: N_21  and  C_26
    6  A    between atoms: C_26  and  C_29
                            x       y       z     vdW  Elec       q    Type
                         _______ _______ _______ _____ _____    ______ ____

>  <TORSDO>
F 6

$$$$
=
 OpenBabel11042422523D

 29 32  0  0  1  0  0  0  0  0999 V2000
  161.3530  205.4880  147.8610 C   0  0  0  0  0  0  0  0  0  0  0  0
  161.5030  206.2570  152.6530 C   0  0  0  0  0  0  0  0  0  0  0  0
  161.9930  209.1740  150.4950 C   0  0  0  0  0  3  0  0  0  0  0  0
  161.0480  208.3720  152.5650 C   0  0  0  0  0  0  0  0  0  0  0  0
  160.8880  207.1840  153.3210 N   0  0  0  0  0  0  0  0  0  0  0  0
  160.7900  210.6860  151.9900 C   0  0  0  0  0  0  0  0  0  0  0  0
  160.8820  203.7480  149.4380 N   0  0  0  0  0  0  0  0  0  0  0  0
  162.1590  206.7200  151.3750 C   0  0  1  0  0  3  0  0  0  0  0  0
  161.6460  205.8800  150.2320 C   0  0  0  0  0  0  0  0  0  0  0  0
  161.5120  210.4580  150.8000 C   0  0  0  0  0  3  0  0  0  0  0  0
  161.2420  204.8710  152.8830 N   0  0  0  0  0  0  0  0  0  0  0  0
  160.9270  204.1850  148.1510 C   0  0  0  0  0  3  0  0  0  0  0  0
  160.5520  209.6330  152.8900 C   0  0  0  0  0  3  0  0  0  0  0  0
  160.2830  212.0490  152.2970 C   0  0  0  0  0  1  0  0  0  0  0  0
  160.8670  202.6110  152.1460 C   0  0  0  0  0  1  0  0  0  0  0  0
  161.7250  206.3290  148.9100 C   0  0  0  0  0  3  0  0  0  0  0  0
  161.2360  204.5500  150.4790 C   0  0  0  0  0  0  0  0  0  0  0  0
  161.1510  204.0470  151.8780 C   0  0  0  0  0  0  0  0  0  0  0  0
  161.7180  208.1420  151.3900 C   0  0  0  0  0  0  0  0  0  0  0  0
  162.7950  205.7890  145.8580 C   0  0  0  0  0  1  0  0  0  0  0  0
  161.4120  205.9940  146.4500 C   0  0  1  0  0  3  0  0  0  0  0  0
  160.3630  205.3180  145.5750 C   0  0  0  0  0  2  0  0  0  0  0  0
  160.9310  204.0640  144.9320 C   0  0  0  0  0  2  0  0  0  0  0  0
  159.8010  203.1360  144.5250 C   0  0  0  0  0  2  0  0  0  0  0  0
  160.1270  201.7050  144.9200 C   0  0  0  0  0  2  0  0  0  0  0  0
  161.3860  199.4750  146.2020 O   0  0  0  0  0  0  0  0  0  0  0  0
  160.5200  201.6420  146.3220 N   0  0  0  0  0  2  0  0  0  0  0  0
  161.4530  200.4850  148.2890 N   0  0  0  0  0  1  0  0  0  0  0  0
  161.1310  200.4890  146.9040 C   0  0  0  0  0  0  0  0  0  0  0  0
  1 12  2  0  0  0  0
  1 16  1  0  0  0  0
  2 11  1  0  0  0  0
  2  5  2  0  0  0  0
  3 10  2  0  0  0  0
  3 19  1  0  0  0  0
  4 13  1  0  0  0  0
  4  5  1  0  0  0  0
  6 14  1  0  0  0  0
  6 13  2  0  0  0  0
  7 17  2  0  0  0  0
  8  9  1  6  0  0  0
  8 19  1  0  0  0  0
  8  2  1  0  0  0  0
  9 17  1  0  0  0  0
 10  6  1  0  0  0  0
 12  7  1  0  0  0  0
 16  9  2  0  0  0  0
 17 18  1  0  0  0  0
 18 15  1  0  0  0  0
 18 11  2  0  0  0  0
 19  4  2  0  0  0  0
 21 20  1  6  0  0  0
 21  1  1  0  0  0  0
 22 21  1  0  0  0  0
 23 22  1  0  0  0  0
 24 25  1  0  0  0  0
 24 23  1  0  0  0  0
 25 27  1  0  0  0  0
 26 29  2  0  0  0  0
 27 29  1  0  0  0  0
 29 28  1  0  0  0  0
M  END
>  <MODEL>
2

>  <REMARK>
 VINA RESULT:      -8.0      4.011      9.205
  Name = 
  6 active torsions:
  status: ('A' for Active; 'I' for Inactive)
    1  A    between atoms: C_1  and  C_27
    2  A    between atoms: C_17  and  C_19
    3  A    between atoms: C_17  and  C_29
    4  A    between atoms: C_19  and  C_27
    5  A    between atoms: N_21  and  C_26
    6  A    between atoms: C_26  and  C_29
                            x       y       z     vdW  Elec       q    Type
                         _______ _______ _______ _____ _____    ______ ____

>  <TORSDO>
F 6

$$$$
=
 OpenBabel11042422523D

 29 32  0  0  1  0  0  0  0  0999 V2000
  161.0570  207.4060  152.0840 C   0  0  0  0  0  0  0  0  0  0  0  0
  160.1520  210.6300  155.6020 C   0  0  0  0  0  0  0  0  0  0  0  0
  160.0770  211.8750  152.1590 C   0  0  0  0  0  3  0  0  0  0  0  0
  159.0890  212.0450  154.3530 C   0  0  0  0  0  0  0  0  0  0  0  0
  159.1780  211.4860  155.6530 N   0  0  0  0  0  0  0  0  0  0  0  0
  158.2320  213.4200  152.5850 C   0  0  0  0  0  0  0  0  0  0  0  0
  160.8860  206.7580  154.3840 N   0  0  0  0  0  0  0  0  0  0  0  0
  160.8390  210.5260  154.2620 C   0  0  1  0  0  3  0  0  0  0  0  0
  160.8110  209.0870  153.8110 C   0  0  0  0  0  0  0  0  0  0  0  0
  159.1790  212.8560  151.7060 C   0  0  0  0  0  3  0  0  0  0  0  0
  160.2960  209.6000  156.5810 N   0  0  0  0  0  0  0  0  0  0  0  0
  161.0100  206.4140  153.0740 C   0  0  0  0  0  3  0  0  0  0  0  0
  158.1820  213.0140  153.9300 C   0  0  0  0  0  3  0  0  0  0  0  0
  157.2870  214.4530  152.0890 C   0  0  0  0  0  1  0  0  0  0  0  0
  160.7650  207.3390  157.2600 C   0  0  0  0  0  1  0  0  0  0  0  0
  160.9690  208.7460  152.4630 C   0  0  0  0  0  3  0  0  0  0  0  0
  160.7940  208.0570  154.7790 C   0  0  0  0  0  0  0  0  0  0  0  0
  160.6340  208.3950  156.2190 C   0  0  0  0  0  0  0  0  0  0  0  0
  159.9860  211.4700  153.4900 C   0  0  0  0  0  0  0  0  0  0  0  0
  162.3470  207.8120  149.9990 C   0  0  0  0  0  1  0  0  0  0  0  0
  161.1950  207.0550  150.6330 C   0  0  1  0  0  3  0  0  0  0  0  0
  161.3860  205.5550  150.4420 C   0  0  0  0  0  2  0  0  0  0  0  0
  160.8410  205.1140  149.0940 C   0  0  0  0  0  2  0  0  0  0  0  0
  160.9210  203.6030  148.9740 C   0  0  0  0  0  2  0  0  0  0  0  0
  161.5930  203.2130  147.6670 C   0  0  0  0  0  2  0  0  0  0  0  0
  160.8020  203.1740  144.9150 O   0  0  0  0  0  0  0  0  0  0  0  0
  161.6310  204.3500  146.7570 N   0  0  0  0  0  2  0  0  0  0  0  0
  161.3360  205.4000  144.5460 N   0  0  0  0  0  1  0  0  0  0  0  0
  161.2360  204.2580  145.3870 C   0  0  0  0  0  0  0  0  0  0  0  0
  1 16  2  0  0  0  0
  1 12  1  0  0  0  0
  2  5  2  0  0  0  0
  2 11  1  0  0  0  0
  3 19  1  0  0  0  0
  4  5  1  0  0  0  0
  6 13  2  0  0  0  0
  7 17  1  0  0  0  0
  8 19  1  6  0  0  0
  8  2  1  0  0  0  0
  9  8  1  0  0  0  0
  9 17  2  0  0  0  0
 10  3  2  0  0  0  0
 10  6  1  0  0  0  0
 12  7  2  0  0  0  0
 13  4  1  0  0  0  0
 14  6  1  0  0  0  0
 16  9  1  0  0  0  0
 17 18  1  0  0  0  0
 18 11  2  0  0  0  0
 18 15  1  0  0  0  0
 19  4  2  0  0  0  0
 21 20  1  1  0  0  0
 21  1  1  0  0  0  0
 22 21  1  0  0  0  0
 23 22  1  0  0  0  0
 24 23  1  0  0  0  0
 25 24  1  0  0  0  0
 26 29  2  0  0  0  0
 27 25  1  0  0  0  0
 28 29  1  0  0  0  0
 29 27  1  0  0  0  0
M  END
>  <MODEL>
3

>  <REMARK>
 VINA RESULT:      -7.9      3.249      8.681
  Name = 
  6 active torsions:
  status: ('A' for Active; 'I' for Inactive)
    1  A    between atoms: C_1  and  C_27
    2  A    between atoms: C_17  and  C_19
    3  A    between atoms: C_17  and  C_29
    4  A    between atoms: C_19  and  C_27
    5  A    between atoms: N_21  and  C_26
    6  A    between atoms: C_26  and  C_29
                            x       y       z     vdW  Elec       q    Type
                         _______ _______ _______ _____ _____    ______ ____

>  <TORSDO>
F 6

$$$$
=
 OpenBabel11042422523D

 29 32  0  0  1  0  0  0  0  0999 V2000
  161.0150  207.7150  152.0970 C   0  0  0  0  0  0  0  0  0  0  0  0
  159.7360  210.6830  155.7210 C   0  0  0  0  0  0  0  0  0  0  0  0
  159.6370  212.0710  152.3340 C   0  0  0  0  0  3  0  0  0  0  0  0
  158.5820  212.0530  154.5040 C   0  0  0  0  0  0  0  0  0  0  0  0
  158.6880  211.4460  155.7800 N   0  0  0  0  0  0  0  0  0  0  0  0
  157.6510  213.4260  152.7720 C   0  0  0  0  0  0  0  0  0  0  0  0
  160.8440  206.9500  154.3600 N   0  0  0  0  0  0  0  0  0  0  0  0
  160.4630  210.7000  154.3990 C   0  0  1  0  0  3  0  0  0  0  0  0
  160.5760  209.2870  153.8860 C   0  0  0  0  0  0  0  0  0  0  0  0
  158.6670  212.9880  151.8970 C   0  0  0  0  0  3  0  0  0  0  0  0
  159.9460  209.6260  156.6590 N   0  0  0  0  0  0  0  0  0  0  0  0
  161.0330  206.6790  153.0400 C   0  0  0  0  0  3  0  0  0  0  0  0
  157.6040  212.9570  154.0960 C   0  0  0  0  0  3  0  0  0  0  0  0
  156.6300  214.3930  152.2930 C   0  0  0  0  0  1  0  0  0  0  0  0
  160.5990  207.3870  157.2540 C   0  0  0  0  0  1  0  0  0  0  0  0
  160.7980  209.0230  152.5300 C   0  0  0  0  0  3  0  0  0  0  0  0
  160.6270  208.2160  154.8070 C   0  0  0  0  0  0  0  0  0  0  0  0
  160.4000  208.4730  156.2560 C   0  0  0  0  0  0  0  0  0  0  0  0
  159.5490  211.6000  153.6430 C   0  0  0  0  0  0  0  0  0  0  0  0
  162.2060  208.4290  150.0350 C   0  0  0  0  0  1  0  0  0  0  0  0
  161.2210  207.4430  150.6360 C   0  0  1  0  0  3  0  0  0  0  0  0
  161.6990  206.0150  150.4000 C   0  0  0  0  0  2  0  0  0  0  0  0
  160.6980  205.2500  149.5510 C   0  0  0  0  0  2  0  0  0  0  0  0
  160.8200  205.6770  148.1000 C   0  0  0  0  0  2  0  0  0  0  0  0
  161.5540  204.6140  147.2980 C   0  0  0  0  0  2  0  0  0  0  0  0
  160.8110  202.0560  146.2480 O   0  0  0  0  0  0  0  0  0  0  0  0
  161.5830  203.3550  148.0310 N   0  0  0  0  0  2  0  0  0  0  0  0
  161.2010  200.9290  148.2380 N   0  0  0  0  0  1  0  0  0  0  0  0
  161.1820  202.1130  147.4500 C   0  0  0  0  0  0  0  0  0  0  0  0
  1 16  2  0  0  0  0
  1 12  1  0  0  0  0
  2  5  2  0  0  0  0
  2 11  1  0  0  0  0
  3 19  1  0  0  0  0
  4  5  1  0  0  0  0
  6 13  2  0  0  0  0
  7 17  1  0  0  0  0
  8 19  1  6  0  0  0
  8  2  1  0  0  0  0
  9  8  1  0  0  0  0
  9 17  2  0  0  0  0
 10  3  2  0  0  0  0
 10  6  1  0  0  0  0
 12  7  2  0  0  0  0
 13  4  1  0  0  0  0
 14  6  1  0  0  0  0
 16  9  1  0  0  0  0
 17 18  1  0  0  0  0
 18 11  2  0  0  0  0
 18 15  1  0  0  0  0
 19  4  2  0  0  0  0
 21 20  1  1  0  0  0
 21  1  1  0  0  0  0
 22 21  1  0  0  0  0
 23 22  1  0  0  0  0
 24 23  1  0  0  0  0
 25 27  1  0  0  0  0
 25 24  1  0  0  0  0
 26 29  2  0  0  0  0
 29 27  1  0  0  0  0
 29 28  1  0  0  0  0
M  END
>  <MODEL>
4

>  <REMARK>
 VINA RESULT:      -7.7      3.305      8.666
  Name = 
  6 active torsions:
  status: ('A' for Active; 'I' for Inactive)
    1  A    between atoms: C_1  and  C_27
    2  A    between atoms: C_17  and  C_19
    3  A    between atoms: C_17  and  C_29
    4  A    between atoms: C_19  and  C_27
    5  A    between atoms: N_21  and  C_26
    6  A    between atoms: C_26  and  C_29
                            x       y       z     vdW  Elec       q    Type
                         _______ _______ _______ _____ _____    ______ ____

>  <TORSDO>
F 6

$$$$
=
 OpenBabel11042422523D

 29 32  0  0  1  0  0  0  0  0999 V2000
  161.0220  207.3260  152.0710 C   0  0  0  0  0  0  0  0  0  0  0  0
  160.1350  210.5800  155.5650 C   0  0  0  0  0  0  0  0  0  0  0  0
  160.1360  211.8150  152.1180 C   0  0  0  0  0  3  0  0  0  0  0  0
  159.1210  212.0130  154.2970 C   0  0  0  0  0  0  0  0  0  0  0  0
  159.1790  211.4560  155.5990 N   0  0  0  0  0  0  0  0  0  0  0  0
  158.3190  213.4000  152.5130 C   0  0  0  0  0  0  0  0  0  0  0  0
  160.8040  206.6890  154.3700 N   0  0  0  0  0  0  0  0  0  0  0  0
  160.8390  210.4570  154.2360 C   0  0  1  0  0  3  0  0  0  0  0  0
  160.7870  209.0170  153.7890 C   0  0  0  0  0  0  0  0  0  0  0  0
  159.2670  212.8130  151.6490 C   0  0  0  0  0  3  0  0  0  0  0  0
  160.2420  209.5510  156.5500 N   0  0  0  0  0  0  0  0  0  0  0  0
  160.9400  206.3390  153.0620 C   0  0  0  0  0  3  0  0  0  0  0  0
  158.2410  213.0000  153.8570 C   0  0  0  0  0  3  0  0  0  0  0  0
  157.4030  214.4520  151.9990 C   0  0  0  0  0  1  0  0  0  0  0  0
  160.6530  207.2820  157.2420 C   0  0  0  0  0  1  0  0  0  0  0  0
  160.9580  208.6690  152.4440 C   0  0  0  0  0  3  0  0  0  0  0  0
  160.7340  207.9910  154.7590 C   0  0  0  0  0  0  0  0  0  0  0  0
  160.5600  208.3380  156.1960 C   0  0  0  0  0  0  0  0  0  0  0  0
  160.0180  211.4160  153.4490 C   0  0  0  0  0  0  0  0  0  0  0  0
  161.9990  208.0090  149.8890 C   0  0  0  0  0  1  0  0  0  0  0  0
  161.1740  206.9670  150.6230 C   0  0  1  0  0  3  0  0  0  0  0  0
  161.8030  205.5890  150.4570 C   0  0  0  0  0  2  0  0  0  0  0  0
  160.7840  204.5970  149.9240 C   0  0  0  0  0  2  0  0  0  0  0  0
  160.7070  203.3920  150.8430 C   0  0  0  0  0  2  0  0  0  0  0  0
  160.9080  202.1100  150.0510 C   0  0  0  0  0  2  0  0  0  0  0  0
  161.3770  200.2210  147.9500 O   0  0  0  0  0  0  0  0  0  0  0  0
  160.7150  202.3580  148.6280 N   0  0  0  0  0  2  0  0  0  0  0  0
  160.8090  201.6990  146.2540 N   0  0  0  0  0  1  0  0  0  0  0  0
  160.9840  201.3740  147.6270 C   0  0  0  0  0  0  0  0  0  0  0  0
  1 16  2  0  0  0  0
  1 12  1  0  0  0  0
  2  5  2  0  0  0  0
  2 11  1  0  0  0  0
  3 19  1  0  0  0  0
  4  5  1  0  0  0  0
  6 13  2  0  0  0  0
  7 17  1  0  0  0  0
  8 19  1  6  0  0  0
  8  2  1  0  0  0  0
  9  8  1  0  0  0  0
  9 17  2  0  0  0  0
 10  3  2  0  0  0  0
 10  6  1  0  0  0  0
 12  7  2  0  0  0  0
 13  4  1  0  0  0  0
 14  6  1  0  0  0  0
 16  9  1  0  0  0  0
 17 18  1  0  0  0  0
 18 11  2  0  0  0  0
 18 15  1  0  0  0  0
 19  4  2  0  0  0  0
 21 20  1  6  0  0  0
 21  1  1  0  0  0  0
 22 21  1  0  0  0  0
 23 22  1  0  0  0  0
 23 24  1  0  0  0  0
 25 24  1  0  0  0  0
 27 25  1  0  0  0  0
 28 29  1  0  0  0  0
 29 26  2  0  0  0  0
 29 27  1  0  0  0  0
M  END
>  <MODEL>
5

>  <REMARK>
 VINA RESULT:      -7.7      3.433      8.662
  Name = 
  6 active torsions:
  status: ('A' for Active; 'I' for Inactive)
    1  A    between atoms: C_1  and  C_27
    2  A    between atoms: C_17  and  C_19
    3  A    between atoms: C_17  and  C_29
    4  A    between atoms: C_19  and  C_27
    5  A    between atoms: N_21  and  C_26
    6  A    between atoms: C_26  and  C_29
                            x       y       z     vdW  Elec       q    Type
                         _______ _______ _______ _____ _____    ______ ____

>  <TORSDO>
F 6

$$$$
=
 OpenBabel11042422523D

 29 32  0  0  1  0  0  0  0  0999 V2000
  161.3290  206.3140  151.4050 C   0  0  0  0  0  0  0  0  0  0  0  0
  160.9480  210.2530  154.2190 C   0  0  0  0  0  0  0  0  0  0  0  0
  161.5790  210.8220  150.6570 C   0  0  0  0  0  3  0  0  0  0  0  0
  160.4430  211.6300  152.6260 C   0  0  0  0  0  0  0  0  0  0  0  0
  160.2380  211.3160  153.9930 N   0  0  0  0  0  0  0  0  0  0  0  0
  160.1800  212.8220  150.5620 C   0  0  0  0  0  0  0  0  0  0  0  0
  160.7450  206.1630  153.7230 N   0  0  0  0  0  0  0  0  0  0  0  0
  161.7210  209.7380  153.0300 C   0  0  1  0  0  3  0  0  0  0  0  0
  161.3580  208.2920  152.8020 C   0  0  0  0  0  0  0  0  0  0  0  0
  161.0310  211.8910  149.9310 C   0  0  0  0  0  3  0  0  0  0  0  0
  160.7040  209.4180  155.3530 N   0  0  0  0  0  0  0  0  0  0  0  0
  160.9130  205.5640  152.5130 C   0  0  0  0  0  3  0  0  0  0  0  0
  159.8800  212.6970  151.9290 C   0  0  0  0  0  3  0  0  0  0  0  0
  159.6050  213.9460  149.7780 C   0  0  0  0  0  1  0  0  0  0  0  0
  160.4750  207.2770  156.4270 C   0  0  0  0  0  1  0  0  0  0  0  0
  161.5640  207.6800  151.5600 C   0  0  0  0  0  3  0  0  0  0  0  0
  160.9620  207.4950  153.8990 C   0  0  0  0  0  0  0  0  0  0  0  0
  160.7440  208.1220  155.2310 C   0  0  0  0  0  0  0  0  0  0  0  0
  161.2410  210.7040  152.0050 C   0  0  0  0  0  0  0  0  0  0  0  0
  161.1040  204.2190  150.0850 C   0  0  0  0  0  1  0  0  0  0  0  0
  161.5240  205.6780  150.0610 C   0  0  1  0  0  3  0  0  0  0  0  0
  160.7550  206.4260  148.9780 C   0  0  0  0  0  2  0  0  0  0  0  0
  161.6230  206.6260  147.7480 C   0  0  0  0  0  2  0  0  0  0  0  0
  161.0730  205.8150  146.5890 C   0  0  0  0  0  2  0  0  0  0  0  0
  162.0200  204.6750  146.2470 C   0  0  0  0  0  2  0  0  0  0  0  0
  161.0020  202.1780  147.2110 O   0  0  0  0  0  0  0  0  0  0  0  0
  161.3350  203.6710  145.4430 N   0  0  0  0  0  2  0  0  0  0  0  0
  160.2390  201.4850  145.1320 N   0  0  0  0  0  1  0  0  0  0  0  0
  160.8650  202.4350  145.9850 C   0  0  0  0  0  0  0  0  0  0  0  0
  1 16  2  0  0  0  0
  1 12  1  0  0  0  0
  2 11  1  0  0  0  0
  3 19  1  0  0  0  0
  4  5  1  0  0  0  0
  5  2  2  0  0  0  0
  6 13  2  0  0  0  0
  7 17  1  0  0  0  0
  8 19  1  6  0  0  0
  8  2  1  0  0  0  0
  9  8  1  0  0  0  0
  9 17  2  0  0  0  0
 10  6  1  0  0  0  0
 10  3  2  0  0  0  0
 12  7  2  0  0  0  0
 13  4  1  0  0  0  0
 14  6  1  0  0  0  0
 16  9  1  0  0  0  0
 17 18  1  0  0  0  0
 18 11  2  0  0  0  0
 18 15  1  0  0  0  0
 19  4  2  0  0  0  0
 21 20  1  1  0  0  0
 21  1  1  0  0  0  0
 22 21  1  0  0  0  0
 23 22  1  0  0  0  0
 24 23  1  0  0  0  0
 25 24  1  0  0  0  0
 27 29  1  0  0  0  0
 27 25  1  0  0  0  0
 28 29  1  0  0  0  0
 29 26  2  0  0  0  0
M  END
>  <MODEL>
6

>  <REMARK>
 VINA RESULT:      -7.3      3.354      8.421
  Name = 
  6 active torsions:
  status: ('A' for Active; 'I' for Inactive)
    1  A    between atoms: C_1  and  C_27
    2  A    between atoms: C_17  and  C_19
    3  A    between atoms: C_17  and  C_29
    4  A    between atoms: C_19  and  C_27
    5  A    between atoms: N_21  and  C_26
    6  A    between atoms: C_26  and  C_29
                            x       y       z     vdW  Elec       q    Type
                         _______ _______ _______ _____ _____    ______ ____

>  <TORSDO>
F 6

$$$$
=
 OpenBabel11042422523D

 29 32  0  0  1  0  0  0  0  0999 V2000
  161.3680  204.8670  150.1290 C   0  0  0  0  0  0  0  0  0  0  0  0
  161.3840  209.5390  151.4550 C   0  0  0  0  0  0  0  0  0  0  0  0
  160.4440  207.0960  154.0170 C   0  0  0  0  0  3  0  0  0  0  0  0
  161.5850  209.1770  153.5810 C   0  0  0  0  0  0  0  0  0  0  0  0
  161.9220  210.0520  152.5180 N   0  0  0  0  0  0  0  0  0  0  0  0
  161.5410  208.3240  155.8220 C   0  0  0  0  0  0  0  0  0  0  0  0
  162.1210  206.5990  148.6560 N   0  0  0  0  0  0  0  0  0  0  0  0
  160.6120  208.2620  151.6850 C   0  0  1  0  0  3  0  0  0  0  0  0
  161.1570  207.1920  150.7720 C   0  0  0  0  0  0  0  0  0  0  0  0
  160.7880  207.2190  155.3720 C   0  0  0  0  0  3  0  0  0  0  0  0
  161.8170  209.9080  150.1450 N   0  0  0  0  0  0  0  0  0  0  0  0
  161.9570  205.2760  148.9250 C   0  0  0  0  0  3  0  0  0  0  0  0
  161.9470  209.3210  154.9190 C   0  0  0  0  0  3  0  0  0  0  0  0
  161.9000  208.4370  157.2590 C   0  0  0  0  0  1  0  0  0  0  0  0
  162.4130  209.4130  147.8660 C   0  0  0  0  0  1  0  0  0  0  0  0
  160.9560  205.8350  151.0450 C   0  0  0  0  0  3  0  0  0  0  0  0
  161.7330  207.5620  149.5350 C   0  0  0  0  0  0  0  0  0  0  0  0
  161.9490  209.0000  149.2190 C   0  0  0  0  0  0  0  0  0  0  0  0
  160.8840  208.0840  153.1370 C   0  0  0  0  0  0  0  0  0  0  0  0
  160.9150  203.2160  151.9310 C   0  0  0  0  0  1  0  0  0  0  0  0
  161.1740  203.4150  150.4490 C   0  0  1  0  0  3  0  0  0  0  0  0
  160.0350  202.8140  149.6330 C   0  0  0  0  0  2  0  0  0  0  0  0
  160.2870  201.3390  149.3700 C   0  0  0  0  0  2  0  0  0  0  0  0
  161.3400  201.1800  148.2900 C   0  0  0  0  0  2  0  0  0  0  0  0
  160.8150  201.6970  146.9600 C   0  0  0  0  0  2  0  0  0  0  0  0
  160.2200  203.3430  144.6940 O   0  0  0  0  0  0  0  0  0  0  0  0
  161.5880  202.8530  146.5240 N   0  0  0  0  0  2  0  0  0  0  0  0
  162.0670  204.7160  144.9830 N   0  0  0  0  0  1  0  0  0  0  0  0
  161.2440  203.6230  145.3710 C   0  0  0  0  0  0  0  0  0  0  0  0
  1 21  1  0  0  0  0
  1 16  1  0  0  0  0
  2  8  1  0  0  0  0
  2  5  2  0  0  0  0
  3 10  1  0  0  0  0
  4 13  2  0  0  0  0
  5  4  1  0  0  0  0
  6 14  1  0  0  0  0
  7 12  1  0  0  0  0
  7 17  2  0  0  0  0
  8  9  1  6  0  0  0
  8 19  1  0  0  0  0
  9 16  2  0  0  0  0
 10  6  2  0  0  0  0
 11  2  1  0  0  0  0
 12  1  2  0  0  0  0
 13  6  1  0  0  0  0
 15 18  1  0  0  0  0
 17  9  1  0  0  0  0
 18 17  1  0  0  0  0
 18 11  2  0  0  0  0
 19  4  1  0  0  0  0
 19  3  2  0  0  0  0
 21 20  1  1  0  0  0
 22 21  1  0  0  0  0
 23 22  1  0  0  0  0
 24 23  1  0  0  0  0
 25 24  1  0  0  0  0
 26 29  2  0  0  0  0
 27 25  1  0  0  0  0
 28 29  1  0  0  0  0
 29 27  1  0  0  0  0
M  END
>  <MODEL>
7

>  <REMARK>
 VINA RESULT:      -7.0      3.274      7.958
  Name = 
  6 active torsions:
  status: ('A' for Active; 'I' for Inactive)
    1  A    between atoms: C_1  and  C_27
    2  A    between atoms: C_17  and  C_19
    3  A    between atoms: C_17  and  C_29
    4  A    between atoms: C_19  and  C_27
    5  A    between atoms: N_21  and  C_26
    6  A    between atoms: C_26  and  C_29
                            x       y       z     vdW  Elec       q    Type
                         _______ _______ _______ _____ _____    ______ ____

>  <TORSDO>
F 6

$$$$
=
 OpenBabel11042422523D

 29 32  0  0  1  0  0  0  0  0999 V2000
  161.4190  207.1800  152.1150 C   0  0  0  0  0  0  0  0  0  0  0  0
  159.8840  210.2570  155.5440 C   0  0  0  0  0  0  0  0  0  0  0  0
  160.2420  211.6020  152.1560 C   0  0  0  0  0  3  0  0  0  0  0  0
  158.9470  211.6650  154.1910 C   0  0  0  0  0  0  0  0  0  0  0  0
  158.8750  211.0710  155.4750 N   0  0  0  0  0  0  0  0  0  0  0  0
  158.2890  213.0570  152.3520 C   0  0  0  0  0  0  0  0  0  0  0  0
  160.9530  206.4560  154.3500 N   0  0  0  0  0  0  0  0  0  0  0  0
  160.7570  210.2210  154.3130 C   0  0  1  0  0  3  0  0  0  0  0  0
  160.8570  208.7960  153.8280 C   0  0  0  0  0  0  0  0  0  0  0  0
  159.3760  212.5580  151.6030 C   0  0  0  0  0  3  0  0  0  0  0  0
  159.9320  209.2050  156.5080 N   0  0  0  0  0  0  0  0  0  0  0  0
  161.2770  206.1580  153.0630 C   0  0  0  0  0  3  0  0  0  0  0  0
  158.0670  212.6090  153.6650 C   0  0  0  0  0  3  0  0  0  0  0  0
  157.3790  214.0660  151.7500 C   0  0  0  0  0  1  0  0  0  0  0  0
  160.4000  206.9450  157.1920 C   0  0  0  0  0  1  0  0  0  0  0  0
  161.2200  208.5030  152.5090 C   0  0  0  0  0  3  0  0  0  0  0  0
  160.7490  207.7380  154.7590 C   0  0  0  0  0  0  0  0  0  0  0  0
  160.3710  208.0260  156.1690 C   0  0  0  0  0  0  0  0  0  0  0  0
  159.9820  211.1530  153.4500 C   0  0  0  0  0  0  0  0  0  0  0  0
  161.4660  205.4330  150.3470 C   0  0  0  0  0  1  0  0  0  0  0  0
  161.7770  206.8780  150.6900 C   0  0  1  0  0  3  0  0  0  0  0  0
  161.0530  207.8120  149.7270 C   0  0  0  0  0  2  0  0  0  0  0  0
  162.0490  208.6570  148.9510 C   0  0  0  0  0  2  0  0  0  0  0  0
  162.1300  210.0460  149.5570 C   0  0  0  0  0  2  0  0  0  0  0  0
  162.4040  211.0780  148.4750 C   0  0  0  0  0  2  0  0  0  0  0  0
  160.2960  211.9200  146.7290 O   0  0  0  0  0  0  0  0  0  0  0  0
  161.5610  212.2510  148.6670 N   0  0  0  0  0  2  0  0  0  0  0  0
  159.7750  213.8040  147.9780 N   0  0  0  0  0  1  0  0  0  0  0  0
  160.5340  212.6240  147.7460 C   0  0  0  0  0  0  0  0  0  0  0  0
  1 16  2  0  0  0  0
  1 12  1  0  0  0  0
  2 11  1  0  0  0  0
  3 19  1  0  0  0  0
  4  5  1  0  0  0  0
  5  2  2  0  0  0  0
  6 13  2  0  0  0  0
  7 17  1  0  0  0  0
  8 19  1  6  0  0  0
  8  2  1  0  0  0  0
  9  8  1  0  0  0  0
  9 17  2  0  0  0  0
 10  3  2  0  0  0  0
 10  6  1  0  0  0  0
 12  7  2  0  0  0  0
 13  4  1  0  0  0  0
 14  6  1  0  0  0  0
 16  9  1  0  0  0  0
 17 18  1  0  0  0  0
 18 11  2  0  0  0  0
 18 15  1  0  0  0  0
 19  4  2  0  0  0  0
 21 20  1  6  0  0  0
 21  1  1  0  0  0  0
 22 21  1  0  0  0  0
 23 24  1  0  0  0  0
 23 22  1  0  0  0  0
 25 27  1  0  0  0  0
 25 24  1  0  0  0  0
 26 29  2  0  0  0  0
 29 28  1  0  0  0  0
 29 27  1  0  0  0  0
M  END
>  <MODEL>
8

>  <REMARK>
 VINA RESULT:      -6.9      2.638      7.348
  Name = 
  6 active torsions:
  status: ('A' for Active; 'I' for Inactive)
    1  A    between atoms: C_1  and  C_27
    2  A    between atoms: C_17  and  C_19
    3  A    between atoms: C_17  and  C_29
    4  A    between atoms: C_19  and  C_27
    5  A    between atoms: N_21  and  C_26
    6  A    between atoms: C_26  and  C_29
                            x       y       z     vdW  Elec       q    Type
                         _______ _______ _______ _____ _____    ______ ____

>  <TORSDO>
F 6

$$$$
=
 OpenBabel11042422523D

 29 32  0  0  1  0  0  0  0  0999 V2000
  161.3810  206.4460  152.3790 C   0  0  0  0  0  0  0  0  0  0  0  0
  160.8280  210.8050  154.4450 C   0  0  0  0  0  0  0  0  0  0  0  0
  161.6480  210.7590  150.8760 C   0  0  0  0  0  3  0  0  0  0  0  0
  160.4030  211.8790  152.6130 C   0  0  0  0  0  0  0  0  0  0  0  0
  160.1270  211.8030  154.0010 N   0  0  0  0  0  0  0  0  0  0  0  0
  160.2460  212.6930  150.3630 C   0  0  0  0  0  0  0  0  0  0  0  0
  160.6730  206.6880  154.6540 N   0  0  0  0  0  0  0  0  0  0  0  0
  161.6680  210.1040  153.4050 C   0  0  1  0  0  3  0  0  0  0  0  0
  161.3250  208.6350  153.4120 C   0  0  0  0  0  0  0  0  0  0  0  0
  161.1350  211.6790  149.9480 C   0  0  0  0  0  3  0  0  0  0  0  0
  160.5280  210.1750  155.6920 N   0  0  0  0  0  0  0  0  0  0  0  0
  160.9100  205.8920  153.5770 C   0  0  0  0  0  3  0  0  0  0  0  0
  159.8730  212.8010  151.7130 C   0  0  0  0  0  3  0  0  0  0  0  0
  159.7090  213.6570  149.3670 C   0  0  0  0  0  1  0  0  0  0  0  0
  160.2520  208.2480  157.1070 C   0  0  0  0  0  1  0  0  0  0  0  0
  161.6000  207.8210  152.3070 C   0  0  0  0  0  3  0  0  0  0  0  0
  160.8740  208.0330  154.6090 C   0  0  0  0  0  0  0  0  0  0  0  0
  160.5810  208.8780  155.7990 C   0  0  0  0  0  0  0  0  0  0  0  0
  161.2380  210.8710  152.2040 C   0  0  0  0  0  0  0  0  0  0  0  0
  161.6390  204.1170  151.5460 C   0  0  0  0  0  1  0  0  0  0  0  0
  161.6510  205.5900  151.1780 C   0  0  1  0  0  3  0  0  0  0  0  0
  160.6430  205.8600  150.0670 C   0  0  0  0  0  2  0  0  0  0  0  0
  161.2890  206.6450  148.9380 C   0  0  0  0  0  2  0  0  0  0  0  0
  160.7690  206.1480  147.6010 C   0  0  0  0  0  2  0  0  0  0  0  0
  161.8490  205.3640  146.8740 C   0  0  0  0  0  2  0  0  0  0  0  0
  160.5620  204.2480  144.5720 O   0  0  0  0  0  0  0  0  0  0  0  0
  161.9910  205.8440  145.5060 N   0  0  0  0  0  2  0  0  0  0  0  0
  161.5460  205.7290  143.0840 N   0  0  0  0  0  1  0  0  0  0  0  0
  161.3310  205.2300  144.3970 C   0  0  0  0  0  0  0  0  0  0  0  0
  1 12  1  0  0  0  0
  2 11  1  0  0  0  0
  3 19  1  0  0  0  0
  4  5  1  0  0  0  0
  5  2  2  0  0  0  0
  6 13  2  0  0  0  0
  8 19  1  6  0  0  0
  8  9  1  0  0  0  0
  8  2  1  0  0  0  0
  9 17  2  0  0  0  0
 10  6  1  0  0  0  0
 10  3  2  0  0  0  0
 11 18  2  0  0  0  0
 12  7  2  0  0  0  0
 13  4  1  0  0  0  0
 14  6  1  0  0  0  0
 16  1  2  0  0  0  0
 16  9  1  0  0  0  0
 17  7  1  0  0  0  0
 17 18  1  0  0  0  0
 18 15  1  0  0  0  0
 19  4  2  0  0  0  0
 21 20  1  1  0  0  0
 21  1  1  0  0  0  0
 22 21  1  0  0  0  0
 23 22  1  0  0  0  0
 24 23  1  0  0  0  0
 25 24  1  0  0  0  0
 27 25  1  0  0  0  0
 28 29  1  0  0  0  0
 29 26  2  0  0  0  0
 29 27  1  0  0  0  0
M  END
>  <MODEL>
9

>  <REMARK>
 VINA RESULT:      -6.8      3.278      8.185
  Name = 
  6 active torsions:
  status: ('A' for Active; 'I' for Inactive)
    1  A    between atoms: C_1  and  C_27
    2  A    between atoms: C_17  and  C_19
    3  A    between atoms: C_17  and  C_29
    4  A    between atoms: C_19  and  C_27
    5  A    between atoms: N_21  and  C_26
    6  A    between atoms: C_26  and  C_29
                            x       y       z     vdW  Elec       q    Type
                         _______ _______ _______ _____ _____    ______ ____

>  <TORSDO>
F 6

$$$$
