=
 OpenBabel11042422323D

 26 29  0  0  1  0  0  0  0  0999 V2000
  161.5660  208.3520  150.7170 C   0  0  0  0  0  0  0  0  0  0  0  0
  161.4410  207.8720  149.3940 C   0  0  0  0  0  0  0  0  0  0  0  0
  162.3120  209.9640  148.6240 N   0  0  0  0  0  0  0  0  0  0  0  0
  162.0520  209.6050  150.9320 N   0  0  0  0  0  0  0  0  0  0  0  0
  161.8280  208.7250  148.3540 C   0  0  0  0  0  3  0  0  0  0  0  0
  162.4250  210.4040  149.9020 C   0  0  0  0  0  3  0  0  0  0  0  0
  161.6060  205.3630  149.5250 N   0  0  0  0  0  2  0  0  0  0  0  0
  160.9150  206.5300  149.0540 C   0  0  0  0  0  0  0  0  0  0  0  0
  159.8840  206.4100  148.3390 O   0  0  0  0  0  0  0  0  0  0  0  0
  161.1430  200.9550  149.9300 C   0  0  0  0  0  3  0  0  0  0  0  0
  160.8620  203.3300  150.5720 C   0  0  0  0  0  3  0  0  0  0  0  0
  161.1270  202.1480  147.7450 C   0  0  0  0  0  3  0  0  0  0  0  0
  161.1380  204.0090  149.4500 C   0  0  0  0  0  0  0  0  0  0  0  0
  160.2700  201.9600  150.6030 C   0  0  0  0  0  2  0  0  0  0  0  0
  161.4770  201.0310  148.6440 C   0  0  0  0  0  3  0  0  0  0  0  0
  160.9810  203.4310  148.0980 C   0  0  0  0  0  3  0  0  0  0  0  0
  161.1150  207.5500  151.8990 C   0  0  0  0  0  2  0  0  0  0  0  0
  160.5750  206.9990  155.1160 C   0  0  0  0  0  3  0  0  0  0  0  0
  160.8010  208.4340  153.0590 C   0  0  0  0  0  0  0  0  0  0  0  0
  161.2180  208.1970  154.4660 C   0  0  1  0  0  3  0  0  0  0  0  0
  160.1480  210.2520  154.2300 N   0  0  0  0  0  0  0  0  0  0  0  0
  160.3670  209.4870  156.4760 N   0  0  0  0  0  0  0  0  0  0  0  0
  160.1170  208.3730  157.1010 C   0  0  0  0  0  3  0  0  0  0  0  0
  160.6820  209.4420  155.0830 C   0  0  0  0  0  0  0  0  0  0  0  0
  160.2650  209.6430  152.9490 C   0  0  0  0  0  3  0  0  0  0  0  0
  160.1150  207.0750  156.3740 C   0  0  0  0  0  3  0  0  0  0  0  0
  1  4  1  0  0  0  0
  1 17  1  0  0  0  0
  2  1  2  0  0  0  0
  3  6  1  0  0  0  0
  5  3  2  0  0  0  0
  5  2  1  0  0  0  0
  6  4  2  0  0  0  0
  8  2  1  0  0  0  0
  8  7  1  0  0  0  0
  9  8  2  0  0  0  0
 10 14  1  0  0  0  0
 11 14  1  0  0  0  0
 12 16  2  0  0  0  0
 12 15  1  0  0  0  0
 13  7  1  0  0  0  0
 13 11  2  0  0  0  0
 15 10  2  0  0  0  0
 16 13  1  0  0  0  0
 17 19  1  0  0  0  0
 18 26  2  0  0  0  0
 19 20  1  0  0  0  0
 20 24  1  0  0  0  0
 20 18  1  1  0  0  0
 21 24  2  0  0  0  0
 22 23  2  0  0  0  0
 24 22  1  0  0  0  0
 25 19  2  0  0  0  0
 25 21  1  0  0  0  0
 26 23  1  0  0  0  0
M  END
>  <MODEL>
1

>  <REMARK>
 VINA RESULT:      -8.6      0.000      0.000
  Name = 
  4 active torsions:
  status: ('A' for Active; 'I' for Inactive)
    1  A    between atoms: C_2  and  C_18
    2  A    between atoms: C_4  and  C_13
    3  A    between atoms: N_5  and  C_20
    4  A    between atoms: C_7  and  C_18
                            x       y       z     vdW  Elec       q    Type
                         _______ _______ _______ _____ _____    ______ ____

>  <TORSDO>
F 4

$$$$
=
 OpenBabel11042422323D

 26 29  0  0  1  0  0  0  0  0999 V2000
  161.0610  207.7210  152.2540 C   0  0  0  0  0  0  0  0  0  0  0  0
  161.4350  206.6460  151.4150 C   0  0  0  0  0  0  0  0  0  0  0  0
  161.3060  205.2020  153.3210 N   0  0  0  0  0  0  0  0  0  0  0  0
  160.8320  207.4910  153.5760 N   0  0  0  0  0  0  0  0  0  0  0  0
  161.5520  205.3790  151.9980 C   0  0  0  0  0  3  0  0  0  0  0  0
  160.9480  206.2480  154.1070 C   0  0  0  0  0  3  0  0  0  0  0  0
  161.4380  205.6990  149.0820 N   0  0  0  0  0  2  0  0  0  0  0  0
  161.7150  206.7940  149.9690 C   0  0  0  0  0  0  0  0  0  0  0  0
  162.2120  207.8620  149.5210 O   0  0  0  0  0  0  0  0  0  0  0  0
  160.6230  205.0610  144.7540 C   0  0  0  0  0  3  0  0  0  0  0  0
  160.4020  206.1590  146.9620 C   0  0  0  0  0  3  0  0  0  0  0  0
  162.8520  204.7070  145.8040 C   0  0  0  0  0  3  0  0  0  0  0  0
  161.4720  205.7360  147.6480 C   0  0  0  0  0  0  0  0  0  0  0  0
  160.3690  206.3390  145.4810 C   0  0  0  0  0  2  0  0  0  0  0  0
  161.7550  204.3720  144.8760 C   0  0  0  0  0  3  0  0  0  0  0  0
  162.7250  205.2970  146.9990 C   0  0  0  0  0  3  0  0  0  0  0  0
  160.9760  209.1290  151.7510 C   0  0  0  0  0  2  0  0  0  0  0  0
  158.9270  211.6560  152.3480 C   0  0  0  0  0  3  0  0  0  0  0  0
  160.8300  210.0940  152.8790 C   0  0  0  0  0  0  0  0  0  0  0  0
  159.5540  210.7060  153.3350 C   0  0  1  0  0  3  0  0  0  0  0  0
  161.3250  211.2920  154.7280 N   0  0  0  0  0  0  0  0  0  0  0  0
  159.3640  212.6190  154.9880 N   0  0  0  0  0  0  0  0  0  0  0  0
  158.5640  213.2540  154.1800 C   0  0  0  0  0  3  0  0  0  0  0  0
  160.0660  211.4720  154.5050 C   0  0  0  0  0  0  0  0  0  0  0  0
  161.7980  210.3870  153.7370 C   0  0  0  0  0  3  0  0  0  0  0  0
  158.4130  212.8240  152.7640 C   0  0  0  0  0  3  0  0  0  0  0  0
  1  4  1  0  0  0  0
  2  5  1  0  0  0  0
  2  1  2  0  0  0  0
  3  6  1  0  0  0  0
  4  6  2  0  0  0  0
  5  3  2  0  0  0  0
  7  8  1  0  0  0  0
  8  2  1  0  0  0  0
  9  8  2  0  0  0  0
 10 15  2  0  0  0  0
 10 14  1  0  0  0  0
 11 13  2  0  0  0  0
 12 16  2  0  0  0  0
 13  7  1  0  0  0  0
 14 11  1  0  0  0  0
 15 12  1  0  0  0  0
 16 13  1  0  0  0  0
 17  1  1  0  0  0  0
 17 19  1  0  0  0  0
 18 26  2  0  0  0  0
 19 20  1  0  0  0  0
 19 25  2  0  0  0  0
 20 18  1  6  0  0  0
 20 24  1  0  0  0  0
 23 22  2  0  0  0  0
 24 21  2  0  0  0  0
 24 22  1  0  0  0  0
 25 21  1  0  0  0  0
 26 23  1  0  0  0  0
M  END
>  <MODEL>
2

>  <REMARK>
 VINA RESULT:      -8.3      2.744      4.201
  Name = 
  4 active torsions:
  status: ('A' for Active; 'I' for Inactive)
    1  A    between atoms: C_2  and  C_18
    2  A    between atoms: C_4  and  C_13
    3  A    between atoms: N_5  and  C_20
    4  A    between atoms: C_7  and  C_18
                            x       y       z     vdW  Elec       q    Type
                         _______ _______ _______ _____ _____    ______ ____

>  <TORSDO>
F 4

$$$$
=
 OpenBabel11042422323D

 26 29  0  0  1  0  0  0  0  0999 V2000
  160.6370  204.2800  150.3900 C   0  0  0  0  0  0  0  0  0  0  0  0
  161.3610  204.3660  151.6010 C   0  0  0  0  0  0  0  0  0  0  0  0
  161.4780  201.9750  151.6230 N   0  0  0  0  0  0  0  0  0  0  0  0
  160.3660  203.0580  149.8570 N   0  0  0  0  0  0  0  0  0  0  0  0
  161.7680  203.1690  152.2000 C   0  0  0  0  0  3  0  0  0  0  0  0
  160.7820  201.9160  150.4600 C   0  0  0  0  0  3  0  0  0  0  0  0
  160.7020  206.3140  153.0550 N   0  0  0  0  0  2  0  0  0  0  0  0
  161.6980  205.6460  152.2660 C   0  0  0  0  0  0  0  0  0  0  0  0
  162.8410  206.1570  152.1240 O   0  0  0  0  0  0  0  0  0  0  0  0
  160.3520  209.4270  156.2160 C   0  0  0  0  0  3  0  0  0  0  0  0
  161.0730  207.2740  155.2280 C   0  0  0  0  0  3  0  0  0  0  0  0
  160.5610  209.9440  153.7890 C   0  0  0  0  0  3  0  0  0  0  0  0
  160.9120  207.4470  153.9090 C   0  0  0  0  0  0  0  0  0  0  0  0
  161.4040  208.3690  156.1860 C   0  0  0  0  0  2  0  0  0  0  0  0
  160.0230  210.1500  155.1470 C   0  0  0  0  0  3  0  0  0  0  0  0
  160.9440  208.7750  153.2600 C   0  0  0  0  0  3  0  0  0  0  0  0
  160.0910  205.4940  149.7030 C   0  0  0  0  0  2  0  0  0  0  0  0
  161.1840  204.0230  146.9480 C   0  0  0  0  0  3  0  0  0  0  0  0
  160.9820  205.9250  148.5860 C   0  0  0  0  0  0  0  0  0  0  0  0
  160.8750  205.4810  147.1720 C   0  0  1  0  0  3  0  0  0  0  0  0
  162.5170  207.1120  147.4300 N   0  0  0  0  0  0  0  0  0  0  0  0
  162.6070  205.9140  145.3720 N   0  0  0  0  0  0  0  0  0  0  0  0
  162.5880  204.6570  145.0340 C   0  0  0  0  0  3  0  0  0  0  0  0
  161.9590  206.3130  146.5810 C   0  0  0  0  0  0  0  0  0  0  0  0
  161.8710  206.9060  148.6820 C   0  0  0  0  0  3  0  0  0  0  0  0
  161.9400  203.6420  145.9080 C   0  0  0  0  0  3  0  0  0  0  0  0
  1  2  1  0  0  0  0
  2  5  2  0  0  0  0
  2  8  1  0  0  0  0
  3  5  1  0  0  0  0
  4  1  2  0  0  0  0
  4  6  1  0  0  0  0
  6  3  2  0  0  0  0
  7 13  1  0  0  0  0
  8  7  1  0  0  0  0
  9  8  2  0  0  0  0
 11 14  1  0  0  0  0
 12 15  1  0  0  0  0
 13 11  2  0  0  0  0
 14 10  1  0  0  0  0
 15 10  2  0  0  0  0
 16 12  2  0  0  0  0
 16 13  1  0  0  0  0
 17  1  1  0  0  0  0
 19 25  2  0  0  0  0
 19 17  1  0  0  0  0
 20 18  1  1  0  0  0
 20 19  1  0  0  0  0
 21 25  1  0  0  0  0
 22 24  1  0  0  0  0
 23 22  2  0  0  0  0
 23 26  1  0  0  0  0
 24 20  1  0  0  0  0
 24 21  2  0  0  0  0
 26 18  2  0  0  0  0
M  END
>  <MODEL>
3

>  <REMARK>
 VINA RESULT:      -8.2      2.379      7.937
  Name = 
  4 active torsions:
  status: ('A' for Active; 'I' for Inactive)
    1  A    between atoms: C_2  and  C_18
    2  A    between atoms: C_4  and  C_13
    3  A    between atoms: N_5  and  C_20
    4  A    between atoms: C_7  and  C_18
                            x       y       z     vdW  Elec       q    Type
                         _______ _______ _______ _____ _____    ______ ____

>  <TORSDO>
F 4

$$$$
=
 OpenBabel11042422323D

 26 29  0  0  1  0  0  0  0  0999 V2000
  161.4140  209.2980  151.2710 C   0  0  0  0  0  0  0  0  0  0  0  0
  161.8380  208.4250  150.2430 C   0  0  0  0  0  0  0  0  0  0  0  0
  162.1420  210.3380  148.8360 N   0  0  0  0  0  0  0  0  0  0  0  0
  161.3710  210.6380  151.0370 N   0  0  0  0  0  0  0  0  0  0  0  0
  162.1970  208.9930  149.0160 C   0  0  0  0  0  3  0  0  0  0  0  0
  161.7330  211.1570  149.8370 C   0  0  0  0  0  3  0  0  0  0  0  0
  161.1190  206.1170  149.5400 N   0  0  0  0  0  2  0  0  0  0  0  0
  161.9120  206.9540  150.3950 C   0  0  0  0  0  0  0  0  0  0  0  0
  162.6450  206.4400  151.2810 O   0  0  0  0  0  0  0  0  0  0  0  0
  160.3540  201.8300  148.6180 C   0  0  0  0  0  3  0  0  0  0  0  0
  161.2260  204.1120  148.2160 C   0  0  0  0  0  3  0  0  0  0  0  0
  160.8180  202.6870  150.9100 C   0  0  0  0  0  3  0  0  0  0  0  0
  161.2090  204.6890  149.4250 C   0  0  0  0  0  0  0  0  0  0  0  0
  161.4250  202.6520  147.9830 C   0  0  0  0  0  2  0  0  0  0  0  0
  160.1290  201.8240  149.9310 C   0  0  0  0  0  3  0  0  0  0  0  0
  161.2830  203.9220  150.6860 C   0  0  0  0  0  3  0  0  0  0  0  0
  160.9400  208.7910  152.5980 C   0  0  0  0  0  2  0  0  0  0  0  0
  158.8550  211.3190  153.0470 C   0  0  0  0  0  3  0  0  0  0  0  0
  160.8580  209.8960  153.5970 C   0  0  0  0  0  0  0  0  0  0  0  0
  159.6050  210.5290  154.0870 C   0  0  1  0  0  3  0  0  0  0  0  0
  161.4700  211.3480  155.2150 N   0  0  0  0  0  0  0  0  0  0  0  0
  159.4890  212.6430  155.4820 N   0  0  0  0  0  0  0  0  0  0  0  0
  158.5950  213.1400  154.6760 C   0  0  0  0  0  3  0  0  0  0  0  0
  160.1890  211.4610  155.0900 C   0  0  0  0  0  0  0  0  0  0  0  0
  161.8880  210.3290  154.3130 C   0  0  0  0  0  3  0  0  0  0  0  0
  158.3330  212.5180  153.3510 C   0  0  0  0  0  3  0  0  0  0  0  0
  1 17  1  0  0  0  0
  2  8  1  0  0  0  0
  2  1  2  0  0  0  0
  3  5  2  0  0  0  0
  3  6  1  0  0  0  0
  4  1  1  0  0  0  0
  5  2  1  0  0  0  0
  6  4  2  0  0  0  0
  7  8  1  0  0  0  0
  8  9  2  0  0  0  0
 10 15  2  0  0  0  0
 11 13  2  0  0  0  0
 13  7  1  0  0  0  0
 13 16  1  0  0  0  0
 14 11  1  0  0  0  0
 14 10  1  0  0  0  0
 15 12  1  0  0  0  0
 16 12  2  0  0  0  0
 17 19  1  0  0  0  0
 18 26  2  0  0  0  0
 19 20  1  0  0  0  0
 19 25  2  0  0  0  0
 20 18  1  6  0  0  0
 20 24  1  0  0  0  0
 23 22  2  0  0  0  0
 24 21  2  0  0  0  0
 24 22  1  0  0  0  0
 25 21  1  0  0  0  0
 26 23  1  0  0  0  0
M  END
>  <MODEL>
4

>  <REMARK>
 VINA RESULT:      -8.2      1.863      2.790
  Name = 
  4 active torsions:
  status: ('A' for Active; 'I' for Inactive)
    1  A    between atoms: C_2  and  C_18
    2  A    between atoms: C_4  and  C_13
    3  A    between atoms: N_5  and  C_20
    4  A    between atoms: C_7  and  C_18
                            x       y       z     vdW  Elec       q    Type
                         _______ _______ _______ _____ _____    ______ ____

>  <TORSDO>
F 4

$$$$
=
 OpenBabel11042422323D

 26 29  0  0  1  0  0  0  0  0999 V2000
  160.9090  205.1790  150.7040 C   0  0  0  0  0  0  0  0  0  0  0  0
  161.1960  205.7870  151.9470 C   0  0  0  0  0  0  0  0  0  0  0  0
  161.0010  203.6310  152.9700 N   0  0  0  0  0  0  0  0  0  0  0  0
  160.6800  203.8390  150.6510 N   0  0  0  0  0  0  0  0  0  0  0  0
  161.2300  204.9650  153.0790 C   0  0  0  0  0  3  0  0  0  0  0  0
  160.7280  203.0690  151.7670 C   0  0  0  0  0  3  0  0  0  0  0  0
  160.5880  208.0110  152.9590 N   0  0  0  0  0  2  0  0  0  0  0  0
  161.4500  207.2360  152.1120 C   0  0  0  0  0  0  0  0  0  0  0  0
  162.4000  207.7910  151.4980 O   0  0  0  0  0  0  0  0  0  0  0  0
  160.4360  211.9220  155.0790 C   0  0  0  0  0  3  0  0  0  0  0  0
  161.2490  209.6310  154.6090 C   0  0  0  0  0  3  0  0  0  0  0  0
  160.0640  211.6650  152.6300 C   0  0  0  0  0  3  0  0  0  0  0  0
  160.7980  209.3680  153.3750 C   0  0  0  0  0  0  0  0  0  0  0  0
  161.6040  210.9930  155.1030 C   0  0  0  0  0  2  0  0  0  0  0  0
  159.7910  212.2450  153.9600 C   0  0  0  0  0  3  0  0  0  0  0  0
  160.5000  210.4230  152.3830 C   0  0  0  0  0  3  0  0  0  0  0  0
  160.7760  205.9750  149.4420 C   0  0  0  0  0  2  0  0  0  0  0  0
  160.5310  206.4240  146.1740 C   0  0  0  0  0  3  0  0  0  0  0  0
  161.2010  205.1760  148.2560 C   0  0  0  0  0  0  0  0  0  0  0  0
  161.6250  205.7320  146.9440 C   0  0  1  0  0  3  0  0  0  0  0  0
  161.8770  203.4180  147.0100 N   0  0  0  0  0  0  0  0  0  0  0  0
  161.9750  204.3760  144.8310 N   0  0  0  0  0  0  0  0  0  0  0  0
  161.2420  205.2140  144.1570 C   0  0  0  0  0  3  0  0  0  0  0  0
  161.9870  204.4620  146.2570 C   0  0  0  0  0  0  0  0  0  0  0  0
  161.4290  203.8690  148.2840 C   0  0  0  0  0  3  0  0  0  0  0  0
  160.3960  206.2200  144.8550 C   0  0  0  0  0  3  0  0  0  0  0  0
  1  2  1  0  0  0  0
  2  8  1  0  0  0  0
  2  5  2  0  0  0  0
  3  5  1  0  0  0  0
  4  1  2  0  0  0  0
  4  6  1  0  0  0  0
  6  3  2  0  0  0  0
  7 13  1  0  0  0  0
  8  7  1  0  0  0  0
  9  8  2  0  0  0  0
 10 14  1  0  0  0  0
 11 14  1  0  0  0  0
 12 15  1  0  0  0  0
 13 11  2  0  0  0  0
 15 10  2  0  0  0  0
 16 12  2  0  0  0  0
 16 13  1  0  0  0  0
 17  1  1  0  0  0  0
 19 25  2  0  0  0  0
 19 17  1  0  0  0  0
 20 18  1  6  0  0  0
 20 19  1  0  0  0  0
 21 25  1  0  0  0  0
 22 24  1  0  0  0  0
 23 22  2  0  0  0  0
 23 26  1  0  0  0  0
 24 20  1  0  0  0  0
 24 21  2  0  0  0  0
 26 18  2  0  0  0  0
M  END
>  <MODEL>
5

>  <REMARK>
 VINA RESULT:      -8.1      2.614      8.500
  Name = 
  4 active torsions:
  status: ('A' for Active; 'I' for Inactive)
    1  A    between atoms: C_2  and  C_18
    2  A    between atoms: C_4  and  C_13
    3  A    between atoms: N_5  and  C_20
    4  A    between atoms: C_7  and  C_18
                            x       y       z     vdW  Elec       q    Type
                         _______ _______ _______ _____ _____    ______ ____

>  <TORSDO>
F 4

$$$$
=
 OpenBabel11042422323D

 26 29  0  0  1  0  0  0  0  0999 V2000
  161.0690  209.3360  155.2000 C   0  0  0  0  0  0  0  0  0  0  0  0
  160.8080  208.1800  154.4300 C   0  0  0  0  0  0  0  0  0  0  0  0
  160.3200  207.0170  156.4650 N   0  0  0  0  0  0  0  0  0  0  0  0
  160.9470  209.2810  156.5540 N   0  0  0  0  0  0  0  0  0  0  0  0
  160.4330  207.0170  155.1130 C   0  0  0  0  0  3  0  0  0  0  0  0
  160.5740  208.1390  157.1840 C   0  0  0  0  0  3  0  0  0  0  0  0
  161.7560  207.1410  152.3420 N   0  0  0  0  0  2  0  0  0  0  0  0
  160.9210  208.1340  152.9550 C   0  0  0  0  0  0  0  0  0  0  0  0
  160.3070  208.9730  152.2420 O   0  0  0  0  0  0  0  0  0  0  0  0
  161.2820  207.1610  147.9160 C   0  0  0  0  0  3  0  0  0  0  0  0
  162.3280  207.7410  150.0850 C   0  0  0  0  0  3  0  0  0  0  0  0
  160.7840  205.1850  149.3480 C   0  0  0  0  0  3  0  0  0  0  0  0
  161.8320  206.8380  150.9410 C   0  0  0  0  0  0  0  0  0  0  0  0
  162.5510  207.4880  148.6310 C   0  0  0  0  0  2  0  0  0  0  0  0
  160.5320  206.1040  148.2200 C   0  0  0  0  0  3  0  0  0  0  0  0
  161.3470  205.5070  150.5190 C   0  0  0  0  0  3  0  0  0  0  0  0
  161.5460  210.6130  154.5790 C   0  0  0  0  0  2  0  0  0  0  0  0
  159.9300  212.4090  152.3190 C   0  0  0  0  0  3  0  0  0  0  0  0
  160.5000  211.6730  154.6590 C   0  0  0  0  0  0  0  0  0  0  0  0
  159.4330  211.9150  153.6530 C   0  0  1  0  0  3  0  0  0  0  0  0
  159.1770  213.2920  155.5130 N   0  0  0  0  0  0  0  0  0  0  0  0
  157.9070  213.9390  153.6040 N   0  0  0  0  0  0  0  0  0  0  0  0
  158.1650  214.1180  152.3400 C   0  0  0  0  0  3  0  0  0  0  0  0
  158.7010  213.0110  154.3450 C   0  0  0  0  0  0  0  0  0  0  0  0
  160.2780  212.4190  155.7340 C   0  0  0  0  0  3  0  0  0  0  0  0
  159.2930  213.4030  151.6840 C   0  0  0  0  0  3  0  0  0  0  0  0
  1  4  1  0  0  0  0
  2  5  1  0  0  0  0
  2  1  2  0  0  0  0
  3  6  1  0  0  0  0
  4  6  2  0  0  0  0
  5  3  2  0  0  0  0
  7  8  1  0  0  0  0
  8  2  1  0  0  0  0
  9  8  2  0  0  0  0
 10 15  2  0  0  0  0
 10 14  1  0  0  0  0
 11 13  2  0  0  0  0
 12 16  2  0  0  0  0
 13  7  1  0  0  0  0
 14 11  1  0  0  0  0
 15 12  1  0  0  0  0
 16 13  1  0  0  0  0
 17 19  1  0  0  0  0
 17  1  1  0  0  0  0
 19 25  2  0  0  0  0
 20 18  1  6  0  0  0
 20 24  1  0  0  0  0
 20 19  1  0  0  0  0
 21 25  1  0  0  0  0
 22 24  1  0  0  0  0
 23 22  2  0  0  0  0
 24 21  2  0  0  0  0
 26 18  2  0  0  0  0
 26 23  1  0  0  0  0
M  END
>  <MODEL>
6

>  <REMARK>
 VINA RESULT:      -8.0      2.556      5.431
  Name = 
  4 active torsions:
  status: ('A' for Active; 'I' for Inactive)
    1  A    between atoms: C_2  and  C_18
    2  A    between atoms: C_4  and  C_13
    3  A    between atoms: N_5  and  C_20
    4  A    between atoms: C_7  and  C_18
                            x       y       z     vdW  Elec       q    Type
                         _______ _______ _______ _____ _____    ______ ____

>  <TORSDO>
F 4

$$$$
=
 OpenBabel11042422323D

 26 29  0  0  1  0  0  0  0  0999 V2000
  161.1860  207.8770  152.2660 C   0  0  0  0  0  0  0  0  0  0  0  0
  161.3390  206.7940  151.3710 C   0  0  0  0  0  0  0  0  0  0  0  0
  161.2020  205.3130  153.2480 N   0  0  0  0  0  0  0  0  0  0  0  0
  161.0510  207.6330  153.5980 N   0  0  0  0  0  0  0  0  0  0  0  0
  161.3460  205.5030  151.9110 C   0  0  0  0  0  3  0  0  0  0  0  0
  161.0550  206.3680  154.0880 C   0  0  0  0  0  3  0  0  0  0  0  0
  161.5830  205.7880  149.0760 N   0  0  0  0  0  2  0  0  0  0  0  0
  161.5010  206.9550  149.9080 C   0  0  0  0  0  0  0  0  0  0  0  0
  161.5890  208.1040  149.3990 O   0  0  0  0  0  0  0  0  0  0  0  0
  160.5400  205.0050  144.8210 C   0  0  0  0  0  3  0  0  0  0  0  0
  160.4710  206.2050  146.9850 C   0  0  0  0  0  3  0  0  0  0  0  0
  162.7980  204.5910  145.7860 C   0  0  0  0  0  3  0  0  0  0  0  0
  161.5520  205.7620  147.6420 C   0  0  0  0  0  0  0  0  0  0  0  0
  160.3780  206.3230  145.5000 C   0  0  0  0  0  2  0  0  0  0  0  0
  161.6450  204.2680  144.9230 C   0  0  0  0  0  3  0  0  0  0  0  0
  162.7520  205.2370  146.9570 C   0  0  0  0  0  3  0  0  0  0  0  0
  161.2370  209.3020  151.8050 C   0  0  0  0  0  2  0  0  0  0  0  0
  161.9580  210.3350  154.8630 C   0  0  0  0  0  3  0  0  0  0  0  0
  160.5550  210.2050  152.7760 C   0  0  0  0  0  0  0  0  0  0  0  0
  161.2330  211.0780  153.7710 C   0  0  1  0  0  3  0  0  0  0  0  0
  158.9300  211.4210  153.7680 N   0  0  0  0  0  0  0  0  0  0  0  0
  160.0750  212.3120  155.6580 N   0  0  0  0  0  0  0  0  0  0  0  0
  160.9480  211.8540  156.5100 C   0  0  0  0  0  3  0  0  0  0  0  0
  160.0380  211.7570  154.3420 C   0  0  0  0  0  0  0  0  0  0  0  0
  159.2570  210.4830  152.7490 C   0  0  0  0  0  3  0  0  0  0  0  0
  161.8650  210.7430  156.1380 C   0  0  0  0  0  3  0  0  0  0  0  0
  1  4  1  0  0  0  0
  2  5  1  0  0  0  0
  2  1  2  0  0  0  0
  3  6  1  0  0  0  0
  4  6  2  0  0  0  0
  5  3  2  0  0  0  0
  7  8  1  0  0  0  0
  8  2  1  0  0  0  0
  9  8  2  0  0  0  0
 10 15  2  0  0  0  0
 10 14  1  0  0  0  0
 11 13  2  0  0  0  0
 12 16  2  0  0  0  0
 13  7  1  0  0  0  0
 14 11  1  0  0  0  0
 15 12  1  0  0  0  0
 16 13  1  0  0  0  0
 17  1  1  0  0  0  0
 17 19  1  0  0  0  0
 18 26  2  0  0  0  0
 19 20  1  0  0  0  0
 20 24  1  0  0  0  0
 20 18  1  1  0  0  0
 21 24  2  0  0  0  0
 22 23  2  0  0  0  0
 24 22  1  0  0  0  0
 25 19  2  0  0  0  0
 25 21  1  0  0  0  0
 26 23  1  0  0  0  0
M  END
>  <MODEL>
7

>  <REMARK>
 VINA RESULT:      -7.9      2.671      3.772
  Name = 
  4 active torsions:
  status: ('A' for Active; 'I' for Inactive)
    1  A    between atoms: C_2  and  C_18
    2  A    between atoms: C_4  and  C_13
    3  A    between atoms: N_5  and  C_20
    4  A    between atoms: C_7  and  C_18
                            x       y       z     vdW  Elec       q    Type
                         _______ _______ _______ _____ _____    ______ ____

>  <TORSDO>
F 4

$$$$
=
 OpenBabel11042422323D

 26 29  0  0  1  0  0  0  0  0999 V2000
  160.9010  207.4260  151.1870 C   0  0  0  0  0  0  0  0  0  0  0  0
  161.7840  208.1460  150.3490 C   0  0  0  0  0  0  0  0  0  0  0  0
  162.2870  209.5640  152.2120 N   0  0  0  0  0  0  0  0  0  0  0  0
  160.7510  207.8060  152.4850 N   0  0  0  0  0  0  0  0  0  0  0  0
  162.4690  209.2310  150.9080 C   0  0  0  0  0  3  0  0  0  0  0  0
  161.4360  208.8580  152.9970 C   0  0  0  0  0  3  0  0  0  0  0  0
  161.7530  206.4870  148.4550 N   0  0  0  0  0  2  0  0  0  0  0  0
  162.0100  207.8200  148.9230 C   0  0  0  0  0  0  0  0  0  0  0  0
  162.4460  208.6960  148.1300 O   0  0  0  0  0  0  0  0  0  0  0  0
  160.7170  204.5780  144.5710 C   0  0  0  0  0  3  0  0  0  0  0  0
  160.6970  206.3510  146.2990 C   0  0  0  0  0  3  0  0  0  0  0  0
  162.9310  204.3290  145.6820 C   0  0  0  0  0  3  0  0  0  0  0  0
  161.7390  206.0530  147.0880 C   0  0  0  0  0  0  0  0  0  0  0  0
  160.6300  206.0430  144.8410 C   0  0  0  0  0  2  0  0  0  0  0  0
  161.7710  203.8400  144.9130 C   0  0  0  0  0  3  0  0  0  0  0  0
  162.9120  205.2860  146.6190 C   0  0  0  0  0  3  0  0  0  0  0  0
  160.0650  206.2950  150.6740 C   0  0  0  0  0  2  0  0  0  0  0  0
  160.3580  203.2870  149.3280 C   0  0  0  0  0  3  0  0  0  0  0  0
  160.5690  204.9840  151.1770 C   0  0  0  0  0  0  0  0  0  0  0  0
  161.2420  203.9420  150.3570 C   0  0  1  0  0  3  0  0  0  0  0  0
  161.2220  203.3680  152.6130 N   0  0  0  0  0  0  0  0  0  0  0  0
  161.7490  201.5810  151.1290 N   0  0  0  0  0  0  0  0  0  0  0  0
  161.2210  201.0990  150.0390 C   0  0  0  0  0  3  0  0  0  0  0  0
  161.5590  202.9640  151.4340 C   0  0  0  0  0  0  0  0  0  0  0  0
  160.6440  204.6600  152.4610 C   0  0  0  0  0  3  0  0  0  0  0  0
  160.3990  201.9580  149.1460 C   0  0  0  0  0  3  0  0  0  0  0  0
  1  4  1  0  0  0  0
  2  5  1  0  0  0  0
  2  1  2  0  0  0  0
  3  6  1  0  0  0  0
  4  6  2  0  0  0  0
  5  3  2  0  0  0  0
  7  8  1  0  0  0  0
  8  2  1  0  0  0  0
  9  8  2  0  0  0  0
 10 14  1  0  0  0  0
 10 15  2  0  0  0  0
 11 13  2  0  0  0  0
 12 16  2  0  0  0  0
 13  7  1  0  0  0  0
 14 11  1  0  0  0  0
 15 12  1  0  0  0  0
 16 13  1  0  0  0  0
 17 19  1  0  0  0  0
 17  1  1  0  0  0  0
 19 25  2  0  0  0  0
 20 18  1  6  0  0  0
 20 19  1  0  0  0  0
 20 24  1  0  0  0  0
 22 24  1  0  0  0  0
 23 22  2  0  0  0  0
 24 21  2  0  0  0  0
 25 21  1  0  0  0  0
 26 18  2  0  0  0  0
 26 23  1  0  0  0  0
M  END
>  <MODEL>
8

>  <REMARK>
 VINA RESULT:      -7.8      2.396      5.347
  Name = 
  4 active torsions:
  status: ('A' for Active; 'I' for Inactive)
    1  A    between atoms: C_2  and  C_18
    2  A    between atoms: C_4  and  C_13
    3  A    between atoms: N_5  and  C_20
    4  A    between atoms: C_7  and  C_18
                            x       y       z     vdW  Elec       q    Type
                         _______ _______ _______ _____ _____    ______ ____

>  <TORSDO>
F 4

$$$$
=
 OpenBabel11042422323D

 26 29  0  0  1  0  0  0  0  0999 V2000
  161.5650  204.5520  146.4480 C   0  0  0  0  0  0  0  0  0  0  0  0
  161.2940  205.9240  146.6490 C   0  0  0  0  0  0  0  0  0  0  0  0
  160.0290  205.9030  144.6160 N   0  0  0  0  0  0  0  0  0  0  0  0
  161.0630  203.9240  145.3500 N   0  0  0  0  0  0  0  0  0  0  0  0
  160.5100  206.5780  145.6910 C   0  0  0  0  0  3  0  0  0  0  0  0
  160.3010  204.5850  144.4440 C   0  0  0  0  0  3  0  0  0  0  0  0
  160.8750  207.1700  148.7970 N   0  0  0  0  0  2  0  0  0  0  0  0
  161.8000  206.7000  147.8040 C   0  0  0  0  0  0  0  0  0  0  0  0
  163.0270  206.9650  147.9050 O   0  0  0  0  0  0  0  0  0  0  0  0
  160.7290  209.1050  152.8020 C   0  0  0  0  0  3  0  0  0  0  0  0
  160.7650  207.2190  151.1980 C   0  0  0  0  0  3  0  0  0  0  0  0
  162.0470  209.9970  150.8870 C   0  0  0  0  0  3  0  0  0  0  0  0
  161.2110  207.7650  150.0580 C   0  0  0  0  0  0  0  0  0  0  0  0
  161.1430  207.6920  152.5620 C   0  0  0  0  0  2  0  0  0  0  0  0
  161.1790  210.1250  152.0730 C   0  0  0  0  0  3  0  0  0  0  0  0
  162.0580  208.9760  150.0210 C   0  0  0  0  0  3  0  0  0  0  0  0
  162.4500  203.7740  147.3710 C   0  0  0  0  0  2  0  0  0  0  0  0
  161.8760  204.1630  150.6060 C   0  0  0  0  0  3  0  0  0  0  0  0
  161.6470  203.0170  148.3750 C   0  0  0  0  0  0  0  0  0  0  0  0
  160.9550  203.6050  149.5520 C   0  0  1  0  0  3  0  0  0  0  0  0
  160.4840  201.3350  149.3350 N   0  0  0  0  0  0  0  0  0  0  0  0
  159.9200  202.2790  151.4480 N   0  0  0  0  0  0  0  0  0  0  0  0
  160.5350  203.0240  152.3220 C   0  0  0  0  0  3  0  0  0  0  0  0
  160.2920  202.3780  150.0720 C   0  0  0  0  0  0  0  0  0  0  0  0
  161.2960  201.7440  148.2400 C   0  0  0  0  0  3  0  0  0  0  0  0
  161.6360  203.9340  151.9060 C   0  0  0  0  0  3  0  0  0  0  0  0
  1  2  1  0  0  0  0
  1 17  1  0  0  0  0
  2  8  1  0  0  0  0
  3  5  1  0  0  0  0
  4  1  2  0  0  0  0
  5  2  2  0  0  0  0
  6  3  2  0  0  0  0
  6  4  1  0  0  0  0
  7 13  1  0  0  0  0
  8  9  2  0  0  0  0
  8  7  1  0  0  0  0
 11 14  1  0  0  0  0
 12 15  1  0  0  0  0
 13 11  2  0  0  0  0
 14 10  1  0  0  0  0
 15 10  2  0  0  0  0
 16 13  1  0  0  0  0
 16 12  2  0  0  0  0
 17 19  1  0  0  0  0
 18 26  2  0  0  0  0
 19 20  1  0  0  0  0
 20 24  1  0  0  0  0
 20 18  1  1  0  0  0
 21 24  2  0  0  0  0
 22 23  2  0  0  0  0
 24 22  1  0  0  0  0
 25 19  2  0  0  0  0
 25 21  1  0  0  0  0
 26 23  1  0  0  0  0
M  END
>  <MODEL>
9

>  <REMARK>
 VINA RESULT:      -7.8      2.831      6.734
  Name = 
  4 active torsions:
  status: ('A' for Active; 'I' for Inactive)
    1  A    between atoms: C_2  and  C_18
    2  A    between atoms: C_4  and  C_13
    3  A    between atoms: N_5  and  C_20
    4  A    between atoms: C_7  and  C_18
                            x       y       z     vdW  Elec       q    Type
                         _______ _______ _______ _____ _____    ______ ____

>  <TORSDO>
F 4

$$$$
