=
 OpenBabel11052410513D

 28 30  0  0  1  0  0  0  0  0999 V2000
  161.2840  209.0920  153.6760 C   0  0  0  0  0  0  0  0  0  0  0  0
  160.9790  206.7140  153.9320 C   0  0  0  0  0  3  0  0  0  0  0  0
  161.8940  210.0350  151.4550 N   0  0  0  0  0  0  0  0  0  0  0  0
  161.9270  207.5070  148.8370 C   0  0  0  0  0  0  0  0  0  0  0  0
  161.1550  207.8180  153.0860 C   0  0  0  0  0  0  0  0  0  0  0  0
  161.1100  206.5480  150.8920 C   0  0  0  0  0  0  0  0  0  0  0  0
  161.4260  206.5010  149.4890 N   0  0  0  0  0  0  0  0  0  0  0  0
  162.1630  208.7470  149.5030 N   0  0  0  0  0  2  0  0  0  0  0  0
  160.5460  205.3030  151.4910 C   0  0  0  0  0  1  0  0  0  0  0  0
  160.9180  206.8760  155.3140 C   0  0  0  0  0  3  0  0  0  0  0  0
  161.4500  210.3330  152.8230 C   0  0  1  0  0  3  0  0  0  0  0  0
  161.0000  208.3410  157.2610 N   0  0  0  0  0  1  0  0  0  0  0  0
  161.8140  208.8730  150.8810 C   0  0  0  0  0  0  0  0  0  0  0  0
  161.0530  208.1530  155.8510 C   0  0  0  0  0  0  0  0  0  0  0  0
  161.2330  209.2200  155.0310 N   0  0  0  0  0  0  0  0  0  0  0  0
  162.2260  207.3790  147.4530 N   0  0  0  0  0  1  0  0  0  0  0  0
  161.3190  207.6840  151.6090 C   0  0  0  0  0  0  0  0  0  0  0  0
  158.9650  210.4400  152.8130 C   0  0  0  0  0  1  0  0  0  0  0  0
  160.2280  211.2900  152.8440 C   0  0  2  0  0  0  0  0  0  0  0  0
  158.4840  212.9850  151.5420 C   0  0  0  0  0  1  0  0  0  0  0  0
  160.1940  212.3890  151.3590 S   0  0  0  0  0  0  0  0  0  0  0  0
  160.2250  212.0960  154.1570 C   0  0  0  0  0  2  0  0  0  0  0  0
  159.0940  211.7300  155.1150 C   0  0  0  0  0  2  0  0  0  0  0  0
  156.1150  213.8950  154.7890 N   0  0  0  0  0  2  0  0  0  0  0  0
  156.7720  212.7860  154.8540 C   0  0  0  0  0  0  0  0  0  0  0  0
  158.1550  212.8340  155.2300 N   0  0  0  0  0  2  0  0  0  0  0  0
  155.5840  210.6990  155.5260 C   0  0  0  0  0  1  0  0  0  0  0  0
  156.0990  211.5940  154.5530 O   0  0  0  0  0  0  0  0  0  0  0  0
  1 15  1  0  0  0  0
  2 10  2  0  0  0  0
  3 11  1  0  0  0  0
  4  7  2  0  0  0  0
  4  8  1  0  0  0  0
  5  1  2  0  0  0  0
  5  2  1  0  0  0  0
  6  9  1  0  0  0  0
  6 17  2  0  0  0  0
  7  6  1  0  0  0  0
  8 13  1  0  0  0  0
 10 14  1  0  0  0  0
 11 19  1  6  0  0  0
 11  1  1  0  0  0  0
 13  3  2  0  0  0  0
 13 17  1  0  0  0  0
 14 12  1  0  0  0  0
 15 14  2  0  0  0  0
 16  4  1  0  0  0  0
 17  5  1  0  0  0  0
 19 18  1  6  0  0  0
 19 22  1  0  0  0  0
 21 20  1  0  0  0  0
 21 19  1  0  0  0  0
 22 23  1  0  0  0  0
 23 26  1  0  0  0  0
 24 25  2  0  0  0  0
 25 26  1  0  0  0  0
 28 25  1  0  0  0  0
 28 27  1  0  0  0  0
M  END
>  <MODEL>
1

>  <REMARK>
 VINA RESULT:      -5.8      0.000      0.000
  Name = 
  6 active torsions:
  status: ('A' for Active; 'I' for Inactive)
    1  A    between atoms: C_5  and  C_12
    2  A    between atoms: C_5  and  C_26
    3  A    between atoms: C_12  and  N_22
    4  A    between atoms: S_13  and  C_26
    5  A    between atoms: C_17  and  C_26
    6  A    between atoms: C_21  and  O_28
                            x       y       z     vdW  Elec       q    Type
                         _______ _______ _______ _____ _____    ______ ____

>  <TORSDO>
F 6

$$$$
=
 OpenBabel11052410513D

 28 30  0  0  1  0  0  0  0  0999 V2000
  160.8510  207.2460  152.0180 C   0  0  0  0  0  0  0  0  0  0  0  0
  161.1790  206.1630  154.1480 C   0  0  0  0  0  3  0  0  0  0  0  0
  160.3370  209.6800  151.9280 N   0  0  0  0  0  0  0  0  0  0  0  0
  160.4700  211.2480  155.2090 C   0  0  0  0  0  0  0  0  0  0  0  0
  161.0270  207.3490  153.4140 C   0  0  0  0  0  0  0  0  0  0  0  0
  161.1990  208.9560  155.3660 C   0  0  0  0  0  0  0  0  0  0  0  0
  160.9530  210.2660  155.9090 N   0  0  0  0  0  0  0  0  0  0  0  0
  160.1830  211.0670  153.8230 N   0  0  0  0  0  2  0  0  0  0  0  0
  161.7510  207.9370  156.3070 C   0  0  0  0  0  1  0  0  0  0  0  0
  161.1680  204.9240  153.5120 C   0  0  0  0  0  3  0  0  0  0  0  0
  160.7090  208.4850  151.1580 C   0  0  1  0  0  3  0  0  0  0  0  0
  160.9700  203.6170  151.4650 N   0  0  0  0  0  1  0  0  0  0  0  0
  160.4620  209.8080  153.2140 C   0  0  0  0  0  0  0  0  0  0  0  0
  160.9890  204.8730  152.1330 C   0  0  0  0  0  0  0  0  0  0  0  0
  160.8340  206.0200  151.4250 N   0  0  0  0  0  0  0  0  0  0  0  0
  160.2410  212.5110  155.8210 N   0  0  0  0  0  1  0  0  0  0  0  0
  160.9380  208.6910  154.0590 C   0  0  0  0  0  0  0  0  0  0  0  0
  163.0850  207.9060  150.7020 C   0  0  0  0  0  1  0  0  0  0  0  0
  161.9150  208.7500  150.2170 C   0  0  2  0  0  0  0  0  0  0  0  0
  162.0570  210.9360  148.5400 C   0  0  0  0  0  1  0  0  0  0  0  0
  162.4470  210.5190  150.2680 S   0  0  0  0  0  0  0  0  0  0  0  0
  161.5640  208.2960  148.7870 C   0  0  0  0  0  2  0  0  0  0  0  0
  162.4560  207.1810  148.2480 C   0  0  0  0  0  2  0  0  0  0  0  0
  161.2330  204.7070  145.7870 N   0  0  0  0  0  2  0  0  0  0  0  0
  161.5680  205.1550  146.9500 C   0  0  0  0  0  0  0  0  0  0  0  0
  161.8360  206.5570  147.0900 N   0  0  0  0  0  2  0  0  0  0  0  0
  161.2740  202.8820  147.9340 C   0  0  0  0  0  1  0  0  0  0  0  0
  161.6530  204.2470  148.0150 O   0  0  0  0  0  0  0  0  0  0  0  0
  1  5  1  0  0  0  0
  3 13  2  0  0  0  0
  4 16  1  0  0  0  0
  4  7  2  0  0  0  0
  5 17  1  0  0  0  0
  5  2  2  0  0  0  0
  6  7  1  0  0  0  0
  6  9  1  0  0  0  0
  8  4  1  0  0  0  0
 10  2  1  0  0  0  0
 11 19  1  1  0  0  0
 11  3  1  0  0  0  0
 11  1  1  0  0  0  0
 12 14  1  0  0  0  0
 13  8  1  0  0  0  0
 13 17  1  0  0  0  0
 14 10  2  0  0  0  0
 15  1  2  0  0  0  0
 15 14  1  0  0  0  0
 17  6  2  0  0  0  0
 19 21  1  0  0  0  0
 19 18  1  1  0  0  0
 20 21  1  0  0  0  0
 22 19  1  0  0  0  0
 23 22  1  0  0  0  0
 24 25  2  0  0  0  0
 25 26  1  0  0  0  0
 25 28  1  0  0  0  0
 26 23  1  0  0  0  0
 27 28  1  0  0  0  0
M  END
>  <MODEL>
2

>  <REMARK>
 VINA RESULT:      -5.7      3.070      7.016
  Name = 
  6 active torsions:
  status: ('A' for Active; 'I' for Inactive)
    1  A    between atoms: C_5  and  C_12
    2  A    between atoms: C_5  and  C_26
    3  A    between atoms: C_12  and  N_22
    4  A    between atoms: S_13  and  C_26
    5  A    between atoms: C_17  and  C_26
    6  A    between atoms: C_21  and  O_28
                            x       y       z     vdW  Elec       q    Type
                         _______ _______ _______ _____ _____    ______ ____

>  <TORSDO>
F 6

$$$$
=
 OpenBabel11052410513D

 28 30  0  0  1  0  0  0  0  0999 V2000
  160.8190  204.5740  149.3470 C   0  0  0  0  0  0  0  0  0  0  0  0
  161.0850  203.8750  151.6400 C   0  0  0  0  0  3  0  0  0  0  0  0
  160.7500  206.9980  148.7870 N   0  0  0  0  0  0  0  0  0  0  0  0
  161.3810  209.1090  151.6840 C   0  0  0  0  0  0  0  0  0  0  0  0
  161.1030  204.9050  150.6880 C   0  0  0  0  0  0  0  0  0  0  0  0
  161.6920  206.7930  152.2740 C   0  0  0  0  0  0  0  0  0  0  0  0
  161.7240  208.2050  152.5520 N   0  0  0  0  0  0  0  0  0  0  0  0
  160.9760  208.7250  150.3700 N   0  0  0  0  0  2  0  0  0  0  0  0
  162.1110  205.8860  153.3830 C   0  0  0  0  0  1  0  0  0  0  0  0
  160.8080  202.5620  151.2650 C   0  0  0  0  0  3  0  0  0  0  0  0
  160.8480  205.6300  148.2610 C   0  0  1  0  0  3  0  0  0  0  0  0
  160.2420  200.9510  149.5270 N   0  0  0  0  0  1  0  0  0  0  0  0
  160.9810  207.3430  150.0180 C   0  0  0  0  0  0  0  0  0  0  0  0
  160.5320  202.2840  149.9300 C   0  0  0  0  0  0  0  0  0  0  0  0
  160.5410  203.2840  149.0120 N   0  0  0  0  0  0  0  0  0  0  0  0
  161.4270  210.4850  152.0370 N   0  0  0  0  0  1  0  0  0  0  0  0
  161.3020  206.3370  151.0550 C   0  0  0  0  0  0  0  0  0  0  0  0
  163.2540  206.1190  147.8620 C   0  0  0  0  0  1  0  0  0  0  0  0
  162.0170  205.4760  147.2520 C   0  0  2  0  0  0  0  0  0  0  0  0
  159.8620  206.1070  145.6490 C   0  0  0  0  0  1  0  0  0  0  0  0
  161.6660  206.3450  145.6600 S   0  0  0  0  0  0  0  0  0  0  0  0
  162.3180  203.9800  147.0360 C   0  0  0  0  0  2  0  0  0  0  0  0
  162.3050  203.5430  145.5740 C   0  0  0  0  0  2  0  0  0  0  0  0
  159.4500  201.2910  144.9040 N   0  0  0  0  0  2  0  0  0  0  0  0
  160.5350  201.6900  145.4780 C   0  0  0  0  0  0  0  0  0  0  0  0
  160.9960  203.0230  145.2160 N   0  0  0  0  0  2  0  0  0  0  0  0
  161.3170  199.4030  146.0930 C   0  0  0  0  0  1  0  0  0  0  0  0
  161.2070  200.7980  146.3260 O   0  0  0  0  0  0  0  0  0  0  0  0
  1  5  1  0  0  0  0
  3 13  2  0  0  0  0
  4 16  1  0  0  0  0
  4  7  2  0  0  0  0
  5 17  1  0  0  0  0
  5  2  2  0  0  0  0
  6  7  1  0  0  0  0
  6  9  1  0  0  0  0
  8  4  1  0  0  0  0
 10  2  1  0  0  0  0
 11 19  1  1  0  0  0
 11  3  1  0  0  0  0
 11  1  1  0  0  0  0
 12 14  1  0  0  0  0
 13  8  1  0  0  0  0
 13 17  1  0  0  0  0
 14 10  2  0  0  0  0
 15  1  2  0  0  0  0
 15 14  1  0  0  0  0
 17  6  2  0  0  0  0
 19 18  1  1  0  0  0
 20 21  1  0  0  0  0
 21 19  1  0  0  0  0
 22 19  1  0  0  0  0
 23 22  1  0  0  0  0
 24 25  2  0  0  0  0
 25 28  1  0  0  0  0
 26 25  1  0  0  0  0
 26 23  1  0  0  0  0
 27 28  1  0  0  0  0
M  END
>  <MODEL>
3

>  <REMARK>
 VINA RESULT:      -5.6      4.748      8.910
  Name = 
  6 active torsions:
  status: ('A' for Active; 'I' for Inactive)
    1  A    between atoms: C_5  and  C_12
    2  A    between atoms: C_5  and  C_26
    3  A    between atoms: C_12  and  N_22
    4  A    between atoms: S_13  and  C_26
    5  A    between atoms: C_17  and  C_26
    6  A    between atoms: C_21  and  O_28
                            x       y       z     vdW  Elec       q    Type
                         _______ _______ _______ _____ _____    ______ ____

>  <TORSDO>
F 6

$$$$
=
 OpenBabel11052410513D

 28 30  0  0  1  0  0  0  0  0999 V2000
  160.7860  203.7860  148.0650 C   0  0  0  0  0  0  0  0  0  0  0  0
  161.2530  201.7720  149.3070 C   0  0  0  0  0  3  0  0  0  0  0  0
  160.4260  205.9340  149.2690 N   0  0  0  0  0  0  0  0  0  0  0  0
  160.9880  205.6260  152.8520 C   0  0  0  0  0  0  0  0  0  0  0  0
  161.1070  203.1670  149.2910 C   0  0  0  0  0  0  0  0  0  0  0  0
  161.5780  203.5650  151.7490 C   0  0  0  0  0  0  0  0  0  0  0  0
  161.4740  204.4220  152.9010 N   0  0  0  0  0  0  0  0  0  0  0  0
  160.5530  206.1730  151.6070 N   0  0  0  0  0  2  0  0  0  0  0  0
  162.1530  202.2070  151.9790 C   0  0  0  0  0  1  0  0  0  0  0  0
  161.0990  201.0250  148.1420 C   0  0  0  0  0  3  0  0  0  0  0  0
  160.6410  205.2910  147.9660 C   0  0  1  0  0  3  0  0  0  0  0  0
  160.6120  200.9350  145.7550 N   0  0  0  0  0  1  0  0  0  0  0  0
  160.6870  205.3930  150.4210 C   0  0  0  0  0  0  0  0  0  0  0  0
  160.7790  201.6800  146.9560 C   0  0  0  0  0  0  0  0  0  0  0  0
  160.6300  203.0290  146.9440 N   0  0  0  0  0  0  0  0  0  0  0  0
  160.9050  206.4070  154.0370 N   0  0  0  0  0  1  0  0  0  0  0  0
  161.1710  203.9990  150.5280 C   0  0  0  0  0  0  0  0  0  0  0  0
  161.1040  206.9640  146.1850 C   0  0  0  0  0  1  0  0  0  0  0  0
  161.7610  205.9880  147.1490 C   0  0  2  0  0  0  0  0  0  0  0  0
  161.8710  205.0440  144.5600 C   0  0  0  0  0  1  0  0  0  0  0  0
  162.7290  204.7780  146.1430 S   0  0  0  0  0  0  0  0  0  0  0  0
  162.6650  206.7980  148.1000 C   0  0  0  0  0  2  0  0  0  0  0  0
  162.2530  208.2590  148.2620 C   0  0  0  0  0  2  0  0  0  0  0  0
  162.3420  210.1740  151.4230 N   0  0  0  0  0  2  0  0  0  0  0  0
  162.0990  209.9610  150.1740 C   0  0  0  0  0  0  0  0  0  0  0  0
  162.2450  208.6270  149.6680 N   0  0  0  0  0  2  0  0  0  0  0  0
  162.5880  211.7940  148.5550 C   0  0  0  0  0  1  0  0  0  0  0  0
  161.7070  211.0450  149.3770 O   0  0  0  0  0  0  0  0  0  0  0  0
  1  5  1  0  0  0  0
  3 13  2  0  0  0  0
  4  7  2  0  0  0  0
  4 16  1  0  0  0  0
  5  2  2  0  0  0  0
  5 17  1  0  0  0  0
  6  9  1  0  0  0  0
  6  7  1  0  0  0  0
  8  4  1  0  0  0  0
 10  2  1  0  0  0  0
 11 19  1  1  0  0  0
 11  1  1  0  0  0  0
 11  3  1  0  0  0  0
 12 14  1  0  0  0  0
 13 17  1  0  0  0  0
 13  8  1  0  0  0  0
 14 10  2  0  0  0  0
 15 14  1  0  0  0  0
 15  1  2  0  0  0  0
 17  6  2  0  0  0  0
 19 18  1  6  0  0  0
 19 22  1  0  0  0  0
 20 21  1  0  0  0  0
 21 19  1  0  0  0  0
 22 23  1  0  0  0  0
 23 26  1  0  0  0  0
 25 24  2  0  0  0  0
 26 25  1  0  0  0  0
 27 28  1  0  0  0  0
 28 25  1  0  0  0  0
M  END
>  <MODEL>
4

>  <REMARK>
 VINA RESULT:      -5.6      4.555      7.754
  Name = 
  6 active torsions:
  status: ('A' for Active; 'I' for Inactive)
    1  A    between atoms: C_5  and  C_12
    2  A    between atoms: C_5  and  C_26
    3  A    between atoms: C_12  and  N_22
    4  A    between atoms: S_13  and  C_26
    5  A    between atoms: C_17  and  C_26
    6  A    between atoms: C_21  and  O_28
                            x       y       z     vdW  Elec       q    Type
                         _______ _______ _______ _____ _____    ______ ____

>  <TORSDO>
F 6

$$$$
=
 OpenBabel11052410513D

 28 30  0  0  1  0  0  0  0  0999 V2000
  161.3370  206.4250  149.7410 C   0  0  0  0  0  0  0  0  0  0  0  0
  162.3180  207.3150  147.7260 C   0  0  0  0  0  3  0  0  0  0  0  0
  160.4110  204.1150  149.7580 N   0  0  0  0  0  0  0  0  0  0  0  0
  161.0170  202.3560  146.6290 C   0  0  0  0  0  0  0  0  0  0  0  0
  161.8050  206.2140  148.4280 C   0  0  0  0  0  0  0  0  0  0  0  0
  162.1400  204.4880  146.6010 C   0  0  0  0  0  0  0  0  0  0  0  0
  161.8060  203.2050  146.0420 N   0  0  0  0  0  0  0  0  0  0  0  0
  160.4580  202.6610  147.9070 N   0  0  0  0  0  2  0  0  0  0  0  0
  163.0560  205.3480  145.7960 C   0  0  0  0  0  1  0  0  0  0  0  0
  162.3740  208.5750  148.3160 C   0  0  0  0  0  3  0  0  0  0  0  0
  160.7960  205.2780  150.5690 C   0  0  1  0  0  3  0  0  0  0  0  0
  161.9410  210.0150  150.2350 N   0  0  0  0  0  1  0  0  0  0  0  0
  160.8010  203.8930  148.5390 C   0  0  0  0  0  0  0  0  0  0  0  0
  161.8970  208.7350  149.6140 C   0  0  0  0  0  0  0  0  0  0  0  0
  161.3940  207.6710  150.2890 N   0  0  0  0  0  0  0  0  0  0  0  0
  160.7230  201.1120  146.0070 N   0  0  0  0  0  1  0  0  0  0  0  0
  161.6390  204.8680  147.8060 C   0  0  0  0  0  0  0  0  0  0  0  0
  163.0170  205.6200  151.6360 C   0  0  0  0  0  1  0  0  0  0  0  0
  161.6940  204.8780  151.7700 C   0  0  2  0  0  0  0  0  0  0  0  0
  160.4560  202.4910  152.3850 C   0  0  0  0  0  1  0  0  0  0  0  0
  162.0690  203.0690  151.7730 S   0  0  0  0  0  0  0  0  0  0  0  0
  161.0290  205.3300  153.0850 C   0  0  0  0  0  2  0  0  0  0  0  0
  161.4730  206.7070  153.5710 C   0  0  0  0  0  2  0  0  0  0  0  0
  160.0880  208.5350  156.4710 N   0  0  0  0  0  2  0  0  0  0  0  0
  160.4570  208.3610  155.2470 C   0  0  0  0  0  0  0  0  0  0  0  0
  160.8100  207.0370  154.8220 N   0  0  0  0  0  2  0  0  0  0  0  0
  161.5810  210.3830  154.3140 C   0  0  0  0  0  1  0  0  0  0  0  0
  160.4930  209.4750  154.3970 O   0  0  0  0  0  0  0  0  0  0  0  0
  1 15  1  0  0  0  0
  1 11  1  0  0  0  0
  2 10  2  0  0  0  0
  2  5  1  0  0  0  0
  3 11  1  0  0  0  0
  4  8  1  0  0  0  0
  5  1  2  0  0  0  0
  6 17  2  0  0  0  0
  7  6  1  0  0  0  0
  7  4  2  0  0  0  0
  8 13  1  0  0  0  0
  9  6  1  0  0  0  0
 10 14  1  0  0  0  0
 11 19  1  1  0  0  0
 13  3  2  0  0  0  0
 14 12  1  0  0  0  0
 14 15  2  0  0  0  0
 16  4  1  0  0  0  0
 17  5  1  0  0  0  0
 17 13  1  0  0  0  0
 19 18  1  6  0  0  0
 19 21  1  0  0  0  0
 19 22  1  0  0  0  0
 21 20  1  0  0  0  0
 22 23  1  0  0  0  0
 23 26  1  0  0  0  0
 25 24  2  0  0  0  0
 26 25  1  0  0  0  0
 27 28  1  0  0  0  0
 28 25  1  0  0  0  0
M  END
>  <MODEL>
5

>  <REMARK>
 VINA RESULT:      -5.4      3.459      6.389
  Name = 
  6 active torsions:
  status: ('A' for Active; 'I' for Inactive)
    1  A    between atoms: C_5  and  C_12
    2  A    between atoms: C_5  and  C_26
    3  A    between atoms: C_12  and  N_22
    4  A    between atoms: S_13  and  C_26
    5  A    between atoms: C_17  and  C_26
    6  A    between atoms: C_21  and  O_28
                            x       y       z     vdW  Elec       q    Type
                         _______ _______ _______ _____ _____    ______ ____

>  <TORSDO>
F 6

$$$$
=
 OpenBabel11052410513D

 28 30  0  0  1  0  0  0  0  0999 V2000
  161.8980  208.1000  151.0430 C   0  0  0  0  0  0  0  0  0  0  0  0
  161.1640  210.3200  151.6310 C   0  0  0  0  0  3  0  0  0  0  0  0
  161.9360  206.3060  152.7670 N   0  0  0  0  0  0  0  0  0  0  0  0
  160.5300  207.4020  155.9400 C   0  0  0  0  0  0  0  0  0  0  0  0
  161.2960  208.9680  151.9770 C   0  0  0  0  0  0  0  0  0  0  0  0
  160.2430  209.1240  154.2770 C   0  0  0  0  0  0  0  0  0  0  0  0
  160.0580  208.5600  155.5890 N   0  0  0  0  0  0  0  0  0  0  0  0
  161.2470  206.6040  154.9980 N   0  0  0  0  0  2  0  0  0  0  0  0
  159.6420  210.4690  154.0390 C   0  0  0  0  0  1  0  0  0  0  0  0
  161.6020  210.7870  150.3940 C   0  0  0  0  0  3  0  0  0  0  0  0
  162.0490  206.6210  151.3370 C   0  0  1  0  0  3  0  0  0  0  0  0
  162.6510  210.3490  148.2380 N   0  0  0  0  0  1  0  0  0  0  0  0
  161.4100  207.0840  153.6640 C   0  0  0  0  0  0  0  0  0  0  0  0
  162.1920  209.8930  149.5050 C   0  0  0  0  0  0  0  0  0  0  0  0
  162.3270  208.5860  149.8450 N   0  0  0  0  0  0  0  0  0  0  0  0
  160.3170  206.9190  157.2600 N   0  0  0  0  0  1  0  0  0  0  0  0
  160.9280  208.4400  153.3230 C   0  0  0  0  0  0  0  0  0  0  0  0
  160.0950  206.5710  149.7980 C   0  0  0  0  0  1  0  0  0  0  0  0
  161.1520  205.7020  150.4650 C   0  0  2  0  0  0  0  0  0  0  0  0
  161.0390  202.9610  150.7530 C   0  0  0  0  0  1  0  0  0  0  0  0
  160.2710  204.4390  151.4850 S   0  0  0  0  0  0  0  0  0  0  0  0
  162.0020  205.0540  149.3550 C   0  0  0  0  0  2  0  0  0  0  0  0
  161.4390  205.2380  147.9480 C   0  0  0  0  0  2  0  0  0  0  0  0
  161.0230  202.5620  145.4300 N   0  0  0  0  0  2  0  0  0  0  0  0
  161.4330  203.6910  145.9020 C   0  0  0  0  0  0  0  0  0  0  0  0
  161.2650  203.9460  147.3040 N   0  0  0  0  0  2  0  0  0  0  0  0
  161.2930  205.5340  144.2270 C   0  0  0  0  0  1  0  0  0  0  0  0
  162.0200  204.6080  145.0200 O   0  0  0  0  0  0  0  0  0  0  0  0
  1 11  1  0  0  0  0
  1  5  1  0  0  0  0
  2  5  2  0  0  0  0
  3 13  2  0  0  0  0
  4 16  1  0  0  0  0
  5 17  1  0  0  0  0
  6  7  1  0  0  0  0
  7  4  2  0  0  0  0
  8  4  1  0  0  0  0
  9  6  1  0  0  0  0
 10  2  1  0  0  0  0
 11 19  1  6  0  0  0
 11  3  1  0  0  0  0
 12 14  1  0  0  0  0
 13  8  1  0  0  0  0
 14 15  1  0  0  0  0
 14 10  2  0  0  0  0
 15  1  2  0  0  0  0
 17 13  1  0  0  0  0
 17  6  2  0  0  0  0
 19 18  1  6  0  0  0
 19 21  1  0  0  0  0
 20 21  1  0  0  0  0
 22 19  1  0  0  0  0
 23 22  1  0  0  0  0
 24 25  2  0  0  0  0
 25 26  1  0  0  0  0
 26 23  1  0  0  0  0
 27 28  1  0  0  0  0
 28 25  1  0  0  0  0
M  END
>  <MODEL>
6

>  <REMARK>
 VINA RESULT:      -5.3      3.770      8.255
  Name = 
  6 active torsions:
  status: ('A' for Active; 'I' for Inactive)
    1  A    between atoms: C_5  and  C_12
    2  A    between atoms: C_5  and  C_26
    3  A    between atoms: C_12  and  N_22
    4  A    between atoms: S_13  and  C_26
    5  A    between atoms: C_17  and  C_26
    6  A    between atoms: C_21  and  O_28
                            x       y       z     vdW  Elec       q    Type
                         _______ _______ _______ _____ _____    ______ ____

>  <TORSDO>
F 6

$$$$
=
 OpenBabel11052410513D

 28 30  0  0  1  0  0  0  0  0999 V2000
  161.2790  209.0910  153.6750 C   0  0  0  0  0  0  0  0  0  0  0  0
  160.8740  206.7310  153.9600 C   0  0  0  0  0  3  0  0  0  0  0  0
  161.9880  209.9720  151.4580 N   0  0  0  0  0  0  0  0  0  0  0  0
  161.9980  207.4000  148.8830 C   0  0  0  0  0  0  0  0  0  0  0  0
  161.1170  207.8130  153.1010 C   0  0  0  0  0  0  0  0  0  0  0  0
  161.0860  206.5090  150.9280 C   0  0  0  0  0  0  0  0  0  0  0  0
  161.4390  206.4250  149.5350 N   0  0  0  0  0  0  0  0  0  0  0  0
  162.2620  208.6410  149.5360 N   0  0  0  0  0  2  0  0  0  0  0  0
  160.4570  205.2970  151.5290 C   0  0  0  0  0  1  0  0  0  0  0  0
  160.7800  206.9190  155.3360 C   0  0  0  0  0  3  0  0  0  0  0  0
  161.5170  210.3100  152.8070 C   0  0  1  0  0  3  0  0  0  0  0  0
  160.8630  208.4120  157.2610 N   0  0  0  0  0  1  0  0  0  0  0  0
  161.8790  208.8040  150.9000 C   0  0  0  0  0  0  0  0  0  0  0  0
  160.9490  208.1990  155.8570 C   0  0  0  0  0  0  0  0  0  0  0  0
  161.1940  209.2440  155.0250 N   0  0  0  0  0  0  0  0  0  0  0  0
  162.3300  207.2370  147.5100 N   0  0  0  0  0  1  0  0  0  0  0  0
  161.3180  207.6480  151.6320 C   0  0  0  0  0  0  0  0  0  0  0  0
  160.4480  212.2160  153.9960 C   0  0  0  0  0  1  0  0  0  0  0  0
  160.3330  211.3130  152.7770 C   0  0  2  0  0  0  0  0  0  0  0  0
  158.0080  211.4090  154.2590 C   0  0  0  0  0  1  0  0  0  0  0  0
  158.7030  210.4500  152.8770 S   0  0  0  0  0  0  0  0  0  0  0  0
  160.4390  212.1990  151.5200 C   0  0  0  0  0  2  0  0  0  0  0  0
  159.5410  213.4330  151.5450 C   0  0  0  0  0  2  0  0  0  0  0  0
  157.5480  213.7420  148.4470 N   0  0  0  0  0  2  0  0  0  0  0  0
  158.6180  213.6820  149.1660 C   0  0  0  0  0  0  0  0  0  0  0  0
  158.4920  213.3130  150.5470 N   0  0  0  0  0  2  0  0  0  0  0  0
  160.6570  213.0290  147.8870 C   0  0  0  0  0  1  0  0  0  0  0  0
  159.8460  213.9790  148.5600 O   0  0  0  0  0  0  0  0  0  0  0  0
  1 15  1  0  0  0  0
  2 10  2  0  0  0  0
  3 11  1  0  0  0  0
  4  7  2  0  0  0  0
  4  8  1  0  0  0  0
  5  1  2  0  0  0  0
  5  2  1  0  0  0  0
  6  9  1  0  0  0  0
  6 17  2  0  0  0  0
  7  6  1  0  0  0  0
  8 13  1  0  0  0  0
 10 14  1  0  0  0  0
 11 19  1  6  0  0  0
 11  1  1  0  0  0  0
 13  3  2  0  0  0  0
 13 17  1  0  0  0  0
 14 12  1  0  0  0  0
 15 14  2  0  0  0  0
 16  4  1  0  0  0  0
 17  5  1  0  0  0  0
 19 21  1  0  0  0  0
 19 18  1  1  0  0  0
 21 20  1  0  0  0  0
 22 23  1  0  0  0  0
 22 19  1  0  0  0  0
 24 25  2  0  0  0  0
 25 26  1  0  0  0  0
 26 23  1  0  0  0  0
 27 28  1  0  0  0  0
 28 25  1  0  0  0  0
M  END
>  <MODEL>
7

>  <REMARK>
 VINA RESULT:      -5.2      2.378      3.243
  Name = 
  6 active torsions:
  status: ('A' for Active; 'I' for Inactive)
    1  A    between atoms: C_5  and  C_12
    2  A    between atoms: C_5  and  C_26
    3  A    between atoms: C_12  and  N_22
    4  A    between atoms: S_13  and  C_26
    5  A    between atoms: C_17  and  C_26
    6  A    between atoms: C_21  and  O_28
                            x       y       z     vdW  Elec       q    Type
                         _______ _______ _______ _____ _____    ______ ____

>  <TORSDO>
F 6

$$$$
=
 OpenBabel11052410513D

 28 30  0  0  1  0  0  0  0  0999 V2000
  161.8660  210.3300  150.8860 C   0  0  0  0  0  0  0  0  0  0  0  0
  160.4210  212.2610  150.8530 C   0  0  0  0  0  3  0  0  0  0  0  0
  162.1390  209.0180  152.9830 N   0  0  0  0  0  0  0  0  0  0  0  0
  159.9540  210.1920  155.6470 C   0  0  0  0  0  0  0  0  0  0  0  0
  160.8860  211.1190  151.5230 C   0  0  0  0  0  0  0  0  0  0  0  0
  159.4590  211.3680  153.6030 C   0  0  0  0  0  0  0  0  0  0  0  0
  159.2280  211.0420  154.9860 N   0  0  0  0  0  0  0  0  0  0  0  0
  161.0230  209.5040  154.9980 N   0  0  0  0  0  2  0  0  0  0  0  0
  158.5370  212.3710  152.9920 C   0  0  0  0  0  1  0  0  0  0  0  0
  160.9060  212.5940  149.5900 C   0  0  0  0  0  3  0  0  0  0  0  0
  162.3940  209.0690  151.5380 C   0  0  1  0  0  3  0  0  0  0  0  0
  162.3870  212.1110  147.7160 N   0  0  0  0  0  1  0  0  0  0  0  0
  161.2620  209.7410  153.6120 C   0  0  0  0  0  0  0  0  0  0  0  0
  161.8750  211.7860  149.0030 C   0  0  0  0  0  0  0  0  0  0  0  0
  162.3300  210.6870  149.6560 N   0  0  0  0  0  0  0  0  0  0  0  0
  159.6720  209.9320  157.0170 N   0  0  0  0  0  1  0  0  0  0  0  0
  160.4660  210.7730  152.9120 C   0  0  0  0  0  0  0  0  0  0  0  0
  160.4560  207.6330  150.9290 C   0  0  0  0  0  1  0  0  0  0  0  0
  161.9700  207.7570  150.8250 C   0  0  2  0  0  0  0  0  0  0  0  0
  161.1710  205.5990  152.3470 C   0  0  0  0  0  1  0  0  0  0  0  0
  162.7060  206.2690  151.6340 S   0  0  0  0  0  0  0  0  0  0  0  0
  162.3370  207.8400  149.3300 C   0  0  0  0  0  2  0  0  0  0  0  0
  161.2060  207.4430  148.3850 C   0  0  0  0  0  2  0  0  0  0  0  0
  162.1710  204.0990  147.1360 N   0  0  0  0  0  2  0  0  0  0  0  0
  161.5530  204.9520  147.8820 C   0  0  0  0  0  0  0  0  0  0  0  0
  161.6260  206.3420  147.5330 N   0  0  0  0  0  2  0  0  0  0  0  0
  160.8310  203.1200  149.4120 C   0  0  0  0  0  1  0  0  0  0  0  0
  160.8440  204.4750  148.9920 O   0  0  0  0  0  0  0  0  0  0  0  0
  1  5  1  0  0  0  0
  1 11  1  0  0  0  0
  2  5  2  0  0  0  0
  3 13  2  0  0  0  0
  4 16  1  0  0  0  0
  5 17  1  0  0  0  0
  6  7  1  0  0  0  0
  7  4  2  0  0  0  0
  8  4  1  0  0  0  0
  9  6  1  0  0  0  0
 10  2  1  0  0  0  0
 11 19  1  6  0  0  0
 11  3  1  0  0  0  0
 12 14  1  0  0  0  0
 13  8  1  0  0  0  0
 14 10  2  0  0  0  0
 14 15  1  0  0  0  0
 15  1  2  0  0  0  0
 17  6  2  0  0  0  0
 17 13  1  0  0  0  0
 19 18  1  1  0  0  0
 19 21  1  0  0  0  0
 21 20  1  0  0  0  0
 22 19  1  0  0  0  0
 23 22  1  0  0  0  0
 24 25  2  0  0  0  0
 25 28  1  0  0  0  0
 26 25  1  0  0  0  0
 26 23  1  0  0  0  0
 28 27  1  0  0  0  0
M  END
>  <MODEL>
8

>  <REMARK>
 VINA RESULT:      -5.0      3.000      7.593
  Name = 
  6 active torsions:
  status: ('A' for Active; 'I' for Inactive)
    1  A    between atoms: C_5  and  C_12
    2  A    between atoms: C_5  and  C_26
    3  A    between atoms: C_12  and  N_22
    4  A    between atoms: S_13  and  C_26
    5  A    between atoms: C_17  and  C_26
    6  A    between atoms: C_21  and  O_28
                            x       y       z     vdW  Elec       q    Type
                         _______ _______ _______ _____ _____    ______ ____

>  <TORSDO>
F 6

$$$$
=
 OpenBabel11052410513D

 28 30  0  0  1  0  0  0  0  0999 V2000
  161.6260  203.6800  148.6830 C   0  0  0  0  0  0  0  0  0  0  0  0
  160.5530  201.8380  147.5560 C   0  0  0  0  0  3  0  0  0  0  0  0
  162.4540  205.6270  147.3730 N   0  0  0  0  0  0  0  0  0  0  0  0
  161.5720  205.4030  143.8490 C   0  0  0  0  0  0  0  0  0  0  0  0
  161.0640  203.1440  147.5060 C   0  0  0  0  0  0  0  0  0  0  0  0
  160.5390  203.5990  145.0690 C   0  0  0  0  0  0  0  0  0  0  0  0
  160.7820  204.3720  143.8790 N   0  0  0  0  0  0  0  0  0  0  0  0
  162.2260  205.8410  145.0400 N   0  0  0  0  0  2  0  0  0  0  0  0
  159.6090  202.4400  144.9320 C   0  0  0  0  0  1  0  0  0  0  0  0
  160.5880  201.1020  148.7370 C   0  0  0  0  0  3  0  0  0  0  0  0
  162.1720  205.0930  148.7120 C   0  0  1  0  0  3  0  0  0  0  0  0
  161.2050  200.9370  151.0890 N   0  0  0  0  0  1  0  0  0  0  0  0
  161.9760  205.1510  146.2630 C   0  0  0  0  0  0  0  0  0  0  0  0
  161.1540  201.6730  149.8730 C   0  0  0  0  0  0  0  0  0  0  0  0
  161.6560  202.9330  149.8220 N   0  0  0  0  0  0  0  0  0  0  0  0
  161.7730  206.1080  142.6310 N   0  0  0  0  0  1  0  0  0  0  0  0
  161.1330  203.9350  146.2440 C   0  0  0  0  0  0  0  0  0  0  0  0
  160.0910  206.4550  148.7810 C   0  0  0  0  0  1  0  0  0  0  0  0
  161.3380  206.0820  149.5700 C   0  0  2  0  0  0  0  0  0  0  0  0
  161.6250  208.6140  148.5130 C   0  0  0  0  0  1  0  0  0  0  0  0
  162.2670  207.6430  149.9110 S   0  0  0  0  0  0  0  0  0  0  0  0
  160.8870  205.3850  150.8680 C   0  0  0  0  0  2  0  0  0  0  0  0
  161.9040  205.4570  152.0040 C   0  0  0  0  0  2  0  0  0  0  0  0
  160.4640  206.9490  155.0650 N   0  0  0  0  0  2  0  0  0  0  0  0
  160.8460  206.9100  153.8330 C   0  0  0  0  0  0  0  0  0  0  0  0
  161.2260  205.6440  153.2760 N   0  0  0  0  0  2  0  0  0  0  0  0
  161.0890  209.3870  153.6770 C   0  0  0  0  0  1  0  0  0  0  0  0
  160.8700  208.1070  153.1050 O   0  0  0  0  0  0  0  0  0  0  0  0
  1 11  1  0  0  0  0
  1 15  1  0  0  0  0
  2 10  2  0  0  0  0
  3 11  1  0  0  0  0
  4  7  2  0  0  0  0
  4  8  1  0  0  0  0
  5  2  1  0  0  0  0
  5  1  2  0  0  0  0
  6 17  2  0  0  0  0
  7  6  1  0  0  0  0
  8 13  1  0  0  0  0
  9  6  1  0  0  0  0
 10 14  1  0  0  0  0
 11 19  1  6  0  0  0
 13  3  2  0  0  0  0
 14 12  1  0  0  0  0
 15 14  2  0  0  0  0
 16  4  1  0  0  0  0
 17 13  1  0  0  0  0
 17  5  1  0  0  0  0
 19 18  1  6  0  0  0
 19 21  1  0  0  0  0
 19 22  1  0  0  0  0
 20 21  1  0  0  0  0
 22 23  1  0  0  0  0
 23 26  1  0  0  0  0
 25 24  2  0  0  0  0
 26 25  1  0  0  0  0
 28 27  1  0  0  0  0
 28 25  1  0  0  0  0
M  END
>  <MODEL>
9

>  <REMARK>
 VINA RESULT:      -4.9      4.013      6.993
  Name = 
  6 active torsions:
  status: ('A' for Active; 'I' for Inactive)
    1  A    between atoms: C_5  and  C_12
    2  A    between atoms: C_5  and  C_26
    3  A    between atoms: C_12  and  N_22
    4  A    between atoms: S_13  and  C_26
    5  A    between atoms: C_17  and  C_26
    6  A    between atoms: C_21  and  O_28
                            x       y       z     vdW  Elec       q    Type
                         _______ _______ _______ _____ _____    ______ ____

>  <TORSDO>
F 6

$$$$
