=
 OpenBabel11042422313D

 26 29  0  0  1  0  0  0  0  0999 V2000
  161.8810  209.4710  152.2450 O   0  0  0  0  0  0  0  0  0  0  0  0
  161.7660  212.3870  148.5990 N   0  0  0  0  0  1  0  0  0  0  0  0
  161.6110  207.0430  151.8480 C   0  0  0  0  0  0  0  0  0  0  0  0
  161.1880  208.0260  154.0520 C   0  0  0  0  0  0  0  0  0  0  0  0
  162.0020  209.5930  148.3340 S   0  0  0  0  0  0  0  0  0  0  0  0
  161.5810  208.1770  152.7120 C   0  0  0  0  0  0  0  0  0  0  0  0
  162.2120  211.0670  150.5070 N   0  0  0  0  0  2  0  0  0  0  0  0
  162.0630  211.1470  149.2270 C   0  0  2  0  0  3  0  0  0  0  0  0
  161.6270  208.8540  149.9460 C   0  0  1  0  0  3  0  0  0  0  0  0
  162.2700  207.1850  150.1530 S   0  0  0  0  0  0  0  0  0  0  0  0
  161.1780  205.7850  152.3380 C   0  0  0  0  0  0  0  0  0  0  0  0
  162.3820  209.6970  150.9370 C   0  0  2  0  0  3  0  0  0  0  0  0
  160.8020  205.6660  153.6810 C   0  0  0  0  0  3  0  0  0  0  0  0
  160.8120  206.7670  154.5300 C   0  0  0  0  0  3  0  0  0  0  0  0
  160.9170  202.2530  149.9670 C   0  0  0  0  0  3  0  0  0  0  0  0
  161.1440  202.1800  151.3060 N   0  0  0  0  0  0  0  0  0  0  0  0
  161.2390  203.2990  152.0740 C   0  0  0  0  0  3  0  0  0  0  0  0
  161.1160  204.5700  151.4950 C   0  0  0  0  0  0  0  0  0  0  0  0
  160.8650  204.6540  150.1190 C   0  0  0  0  0  3  0  0  0  0  0  0
  160.7700  203.4950  149.3480 C   0  0  0  0  0  3  0  0  0  0  0  0
  161.1780  209.2180  154.9680 C   0  0  2  0  0  3  0  0  0  0  0  0
  161.3170  208.8090  156.4010 C   0  0  0  0  0  0  0  0  0  0  0  0
  162.4620  208.7060  156.9100 O   0  0  0  0  0  0  0  0  0  0  0  0
  160.1930  208.5190  157.1660 O   0  0  0  0  0  1  0  0  0  0  0  0
  159.9470  210.0880  154.7400 C   0  0  0  0  0  2  0  0  0  0  0  0
  160.3270  211.4890  154.7020 N   0  0  0  0  0  1  0  0  0  0  0  0
  1  6  1  0  0  0  0
  3 11  2  0  0  0  0
  3  6  1  0  0  0  0
  4 14  1  0  0  0  0
  4 21  1  0  0  0  0
  5  8  1  0  0  0  0
  6  4  2  0  0  0  0
  8  2  1  1  0  0  0
  8  7  1  0  0  0  0
  9  5  1  6  0  0  0
  9 10  1  0  0  0  0
  9 12  1  0  0  0  0
 10  3  1  0  0  0  0
 11 13  1  0  0  0  0
 12  7  1  6  0  0  0
 12  1  1  0  0  0  0
 13 14  2  0  0  0  0
 15 16  1  0  0  0  0
 16 17  2  0  0  0  0
 18 17  1  0  0  0  0
 18 11  1  0  0  0  0
 19 18  2  0  0  0  0
 20 15  2  0  0  0  0
 20 19  1  0  0  0  0
 21 25  1  1  0  0  0
 21 22  1  0  0  0  0
 22 23  2  0  0  0  0
 22 24  1  0  0  0  0
 26 25  1  0  0  0  0
M  END
>  <MODEL>
1

>  <REMARK>
 VINA RESULT:      -7.3      0.000      0.000
  Name = 
  4 active torsions:
  status: ('A' for Active; 'I' for Inactive)
    1  A    between atoms: C_1  and  C_22
    2  A    between atoms: C_8  and  C_23
    3  A    between atoms: C_9  and  C_22
    4  A    between atoms: C_13  and  C_22
                            x       y       z     vdW  Elec       q    Type
                         _______ _______ _______ _____ _____    ______ ____

>  <TORSDO>
F 4

$$$$
=
 OpenBabel11042422313D

 26 29  0  0  1  0  0  0  0  0999 V2000
  161.4120  210.6770  151.9370 O   0  0  0  0  0  0  0  0  0  0  0  0
  161.8940  211.4130  156.5230 N   0  0  0  0  0  1  0  0  0  0  0  0
  161.3240  208.3500  151.0980 C   0  0  0  0  0  0  0  0  0  0  0  0
  161.9160  210.2140  149.6200 C   0  0  0  0  0  0  0  0  0  0  0  0
  161.2550  208.9010  155.4210 S   0  0  0  0  0  0  0  0  0  0  0  0
  161.5290  209.7460  150.8870 C   0  0  0  0  0  0  0  0  0  0  0  0
  161.2900  211.2570  154.2440 N   0  0  0  0  0  2  0  0  0  0  0  0
  161.4310  210.6850  155.3930 C   0  0  2  0  0  3  0  0  0  0  0  0
  161.5430  208.9950  153.6340 C   0  0  1  0  0  3  0  0  0  0  0  0
  160.6680  207.7380  152.6850 S   0  0  0  0  0  0  0  0  0  0  0  0
  161.5790  207.4430  150.0370 C   0  0  0  0  0  0  0  0  0  0  0  0
  160.9310  210.3040  153.2180 C   0  0  2  0  0  3  0  0  0  0  0  0
  161.9520  207.9430  148.7840 C   0  0  0  0  0  3  0  0  0  0  0  0
  162.1140  209.3080  148.5740 C   0  0  0  0  0  3  0  0  0  0  0  0
  161.1540  203.2330  150.5460 C   0  0  0  0  0  3  0  0  0  0  0  0
  161.6750  204.0070  151.5350 N   0  0  0  0  0  0  0  0  0  0  0  0
  161.8260  205.3510  151.3830 C   0  0  0  0  0  3  0  0  0  0  0  0
  161.4540  205.9760  150.1850 C   0  0  0  0  0  0  0  0  0  0  0  0
  160.9010  205.1900  149.1660 C   0  0  0  0  0  3  0  0  0  0  0  0
  160.7540  203.8130  149.3410 C   0  0  0  0  0  3  0  0  0  0  0  0
  162.1110  211.6860  149.3940 C   0  0  2  0  0  3  0  0  0  0  0  0
  160.8070  212.3830  149.1620 C   0  0  0  0  0  0  0  0  0  0  0  0
  160.2800  213.0450  150.0930 O   0  0  0  0  0  1  0  0  0  0  0  0
  160.1590  212.2830  147.9350 O   0  0  0  0  0  0  0  0  0  0  0  0
  163.1070  211.9540  148.2720 C   0  0  0  0  0  2  0  0  0  0  0  0
  163.0990  213.3640  147.9230 N   0  0  0  0  0  1  0  0  0  0  0  0
  3 10  1  0  0  0  0
  4  6  2  0  0  0  0
  6  3  1  0  0  0  0
  6  1  1  0  0  0  0
  7  8  1  0  0  0  0
  8  5  1  0  0  0  0
  8  2  1  6  0  0  0
  9 10  1  6  0  0  0
  9  5  1  0  0  0  0
 11 18  1  0  0  0  0
 11  3  2  0  0  0  0
 12  1  1  6  0  0  0
 12  9  1  0  0  0  0
 12  7  1  0  0  0  0
 13 11  1  0  0  0  0
 14 13  2  0  0  0  0
 14  4  1  0  0  0  0
 15 16  1  0  0  0  0
 17 16  2  0  0  0  0
 18 17  1  0  0  0  0
 19 20  1  0  0  0  0
 19 18  2  0  0  0  0
 20 15  2  0  0  0  0
 21 25  1  6  0  0  0
 21  4  1  0  0  0  0
 22 21  1  0  0  0  0
 22 23  1  0  0  0  0
 24 22  2  0  0  0  0
 26 25  1  0  0  0  0
M  END
>  <MODEL>
2

>  <REMARK>
 VINA RESULT:      -6.5      2.457      5.251
  Name = 
  4 active torsions:
  status: ('A' for Active; 'I' for Inactive)
    1  A    between atoms: C_1  and  C_22
    2  A    between atoms: C_8  and  C_23
    3  A    between atoms: C_9  and  C_22
    4  A    between atoms: C_13  and  C_22
                            x       y       z     vdW  Elec       q    Type
                         _______ _______ _______ _____ _____    ______ ____

>  <TORSDO>
F 4

$$$$
=
 OpenBabel11042422313D

 26 29  0  0  1  0  0  0  0  0999 V2000
  162.0540  208.6680  148.2410 O   0  0  0  0  0  0  0  0  0  0  0  0
  161.2300  204.6910  145.9360 N   0  0  0  0  0  1  0  0  0  0  0  0
  161.7690  208.7110  150.7000 C   0  0  0  0  0  0  0  0  0  0  0  0
  161.7250  210.7740  149.3780 C   0  0  0  0  0  0  0  0  0  0  0  0
  161.4730  204.8290  148.7380 S   0  0  0  0  0  0  0  0  0  0  0  0
  161.8700  209.3790  149.4430 C   0  0  0  0  0  0  0  0  0  0  0  0
  162.0370  206.6710  146.9420 N   0  0  0  0  0  2  0  0  0  0  0  0
  161.6600  205.4420  147.0640 C   0  0  2  0  0  3  0  0  0  0  0  0
  161.4070  206.5780  149.2110 C   0  0  1  0  0  3  0  0  0  0  0  0
  162.1120  206.9250  150.8320 S   0  0  0  0  0  0  0  0  0  0  0  0
  161.4560  209.4620  151.8610 C   0  0  0  0  0  0  0  0  0  0  0  0
  162.3090  207.2720  148.2290 C   0  0  2  0  0  3  0  0  0  0  0  0
  161.3290  210.8520  151.7640 C   0  0  0  0  0  3  0  0  0  0  0  0
  161.4660  211.5020  150.5430 C   0  0  0  0  0  3  0  0  0  0  0  0
  160.8460  207.7550  155.7190 C   0  0  0  0  0  3  0  0  0  0  0  0
  161.2480  209.0470  155.5820 N   0  0  0  0  0  0  0  0  0  0  0  0
  161.4560  209.6020  154.3580 C   0  0  0  0  0  3  0  0  0  0  0  0
  161.2700  208.8440  153.1930 C   0  0  0  0  0  0  0  0  0  0  0  0
  160.8400  207.5170  153.3240 C   0  0  0  0  0  3  0  0  0  0  0  0
  160.6320  206.9650  154.5880 C   0  0  0  0  0  3  0  0  0  0  0  0
  161.8530  211.4780  148.0570 C   0  0  2  0  0  3  0  0  0  0  0  0
  162.9450  212.5010  148.0840 C   0  0  0  0  0  0  0  0  0  0  0  0
  164.1410  212.1400  147.9360 O   0  0  0  0  0  0  0  0  0  0  0  0
  162.6520  213.8440  148.2980 O   0  0  0  0  0  1  0  0  0  0  0  0
  160.5240  212.0760  147.6100 C   0  0  0  0  0  2  0  0  0  0  0  0
  160.5670  212.3800  146.1900 N   0  0  0  0  0  1  0  0  0  0  0  0
  1  6  1  0  0  0  0
  3 10  1  0  0  0  0
  3 11  1  0  0  0  0
  4  6  1  0  0  0  0
  4 14  2  0  0  0  0
  6  3  2  0  0  0  0
  7  8  1  0  0  0  0
  8  2  1  1  0  0  0
  8  5  1  0  0  0  0
  9  5  1  6  0  0  0
  9 10  1  0  0  0  0
 11 18  1  0  0  0  0
 12  7  1  6  0  0  0
 12  1  1  0  0  0  0
 12  9  1  0  0  0  0
 13 11  2  0  0  0  0
 14 13  1  0  0  0  0
 16 15  1  0  0  0  0
 17 16  2  0  0  0  0
 18 19  2  0  0  0  0
 18 17  1  0  0  0  0
 19 20  1  0  0  0  0
 20 15  2  0  0  0  0
 21 25  1  1  0  0  0
 21 22  1  0  0  0  0
 21  4  1  0  0  0  0
 22 24  1  0  0  0  0
 23 22  2  0  0  0  0
 26 25  1  0  0  0  0
M  END
>  <MODEL>
3

>  <REMARK>
 VINA RESULT:      -6.4      3.632      6.365
  Name = 
  4 active torsions:
  status: ('A' for Active; 'I' for Inactive)
    1  A    between atoms: C_1  and  C_22
    2  A    between atoms: C_8  and  C_23
    3  A    between atoms: C_9  and  C_22
    4  A    between atoms: C_13  and  C_22
                            x       y       z     vdW  Elec       q    Type
                         _______ _______ _______ _____ _____    ______ ____

>  <TORSDO>
F 4

$$$$
=
 OpenBabel11042422313D

 26 29  0  0  1  0  0  0  0  0999 V2000
  161.0100  207.8110  152.3970 O   0  0  0  0  0  0  0  0  0  0  0  0
  159.3310  209.7070  156.3200 N   0  0  0  0  0  1  0  0  0  0  0  0
  161.5780  209.2910  150.4960 C   0  0  0  0  0  0  0  0  0  0  0  0
  161.1520  206.9010  150.1640 C   0  0  0  0  0  0  0  0  0  0  0  0
  160.5150  211.2180  154.2590 S   0  0  0  0  0  0  0  0  0  0  0  0
  161.2670  208.0040  151.0260 C   0  0  0  0  0  0  0  0  0  0  0  0
  160.4920  208.6040  154.5830 N   0  0  0  0  0  2  0  0  0  0  0  0
  160.1410  209.7080  155.1520 C   0  0  2  0  0  3  0  0  0  0  0  0
  160.6680  210.1440  152.8070 C   0  0  1  0  0  3  0  0  0  0  0  0
  161.8920  210.7020  151.6090 S   0  0  0  0  0  0  0  0  0  0  0  0
  161.7020  209.4530  149.0930 C   0  0  0  0  0  0  0  0  0  0  0  0
  161.2030  208.8460  153.3470 C   0  0  2  0  0  3  0  0  0  0  0  0
  161.5920  208.3320  148.2620 C   0  0  0  0  0  3  0  0  0  0  0  0
  161.3260  207.0720  148.7870 C   0  0  0  0  0  3  0  0  0  0  0  0
  162.3790  213.2680  147.3180 C   0  0  0  0  0  3  0  0  0  0  0  0
  161.1370  212.7140  147.3310 N   0  0  0  0  0  0  0  0  0  0  0  0
  160.9080  211.4940  147.8850 C   0  0  0  0  0  3  0  0  0  0  0  0
  161.9610  210.7620  148.4530 C   0  0  0  0  0  0  0  0  0  0  0  0
  163.2400  211.3320  148.4590 C   0  0  0  0  0  3  0  0  0  0  0  0
  163.4560  212.5860  147.8860 C   0  0  0  0  0  3  0  0  0  0  0  0
  160.8440  205.5420  150.7250 C   0  0  2  0  0  3  0  0  0  0  0  0
  161.7400  205.2090  151.8770 C   0  0  0  0  0  0  0  0  0  0  0  0
  162.9860  205.3130  151.7480 O   0  0  0  0  0  0  0  0  0  0  0  0
  161.2060  204.7620  153.0810 O   0  0  0  0  0  1  0  0  0  0  0  0
  160.8840  204.4670  149.6450 C   0  0  0  0  0  2  0  0  0  0  0  0
  160.6850  203.1560  150.2380 N   0  0  0  0  0  1  0  0  0  0  0  0
  3  6  1  0  0  0  0
  3 10  1  0  0  0  0
  4 21  1  0  0  0  0
  4  6  2  0  0  0  0
  5  8  1  0  0  0  0
  6  1  1  0  0  0  0
  7  8  1  0  0  0  0
  8  2  1  6  0  0  0
  9 10  1  6  0  0  0
  9 12  1  0  0  0  0
  9  5  1  0  0  0  0
 11  3  2  0  0  0  0
 12  1  1  6  0  0  0
 12  7  1  0  0  0  0
 13 14  2  0  0  0  0
 13 11  1  0  0  0  0
 14  4  1  0  0  0  0
 15 16  2  0  0  0  0
 15 20  1  0  0  0  0
 16 17  1  0  0  0  0
 17 18  2  0  0  0  0
 18 19  1  0  0  0  0
 18 11  1  0  0  0  0
 20 19  2  0  0  0  0
 21 25  1  6  0  0  0
 21 22  1  0  0  0  0
 22 24  1  0  0  0  0
 23 22  2  0  0  0  0
 25 26  1  0  0  0  0
M  END
>  <MODEL>
4

>  <REMARK>
 VINA RESULT:      -5.8      2.445      6.667
  Name = 
  4 active torsions:
  status: ('A' for Active; 'I' for Inactive)
    1  A    between atoms: C_1  and  C_22
    2  A    between atoms: C_8  and  C_23
    3  A    between atoms: C_9  and  C_22
    4  A    between atoms: C_13  and  C_22
                            x       y       z     vdW  Elec       q    Type
                         _______ _______ _______ _____ _____    ______ ____

>  <TORSDO>
F 4

$$$$
=
 OpenBabel11042422313D

 26 29  0  0  1  0  0  0  0  0999 V2000
  161.5310  206.8630  151.8670 O   0  0  0  0  0  0  0  0  0  0  0  0
  159.7050  207.3430  156.1380 N   0  0  0  0  0  1  0  0  0  0  0  0
  161.8500  208.8780  150.4660 C   0  0  0  0  0  0  0  0  0  0  0  0
  161.7410  206.6410  149.4710 C   0  0  0  0  0  0  0  0  0  0  0  0
  160.6270  209.5150  154.6010 S   0  0  0  0  0  0  0  0  0  0  0  0
  161.7270  207.4640  150.6090 C   0  0  0  0  0  0  0  0  0  0  0  0
  160.9620  206.9360  154.1800 N   0  0  0  0  0  2  0  0  0  0  0  0
  160.4800  207.7800  155.0300 C   0  0  2  0  0  3  0  0  0  0  0  0
  160.8880  208.9200  152.9090 C   0  0  1  0  0  3  0  0  0  0  0  0
  161.9970  209.9510  151.9330 S   0  0  0  0  0  0  0  0  0  0  0  0
  161.9170  209.4410  149.1650 C   0  0  0  0  0  0  0  0  0  0  0  0
  161.6050  207.6080  153.0720 C   0  0  2  0  0  3  0  0  0  0  0  0
  161.9390  208.5920  148.0530 C   0  0  0  0  0  3  0  0  0  0  0  0
  161.8580  207.2120  148.2000 C   0  0  0  0  0  3  0  0  0  0  0  0
  162.1120  213.6210  148.3600 C   0  0  0  0  0  3  0  0  0  0  0  0
  163.1250  212.7910  147.9940 N   0  0  0  0  0  0  0  0  0  0  0  0
  163.0810  211.4570  148.2530 C   0  0  0  0  0  3  0  0  0  0  0  0
  161.9820  210.8990  148.9210 C   0  0  0  0  0  0  0  0  0  0  0  0
  160.9260  211.7430  149.2870 C   0  0  0  0  0  3  0  0  0  0  0  0
  160.9890  213.1100  149.0120 C   0  0  0  0  0  3  0  0  0  0  0  0
  161.6320  205.1500  149.6250 C   0  0  2  0  0  3  0  0  0  0  0  0
  161.5800  204.4650  148.2950 C   0  0  0  0  0  0  0  0  0  0  0  0
  160.6620  203.6390  148.0560 O   0  0  0  0  0  1  0  0  0  0  0  0
  162.5530  204.7120  147.3330 O   0  0  0  0  0  0  0  0  0  0  0  0
  160.4560  204.7630  150.5120 C   0  0  0  0  0  2  0  0  0  0  0  0
  160.8210  203.6460  151.3660 N   0  0  0  0  0  1  0  0  0  0  0  0
  3  6  1  0  0  0  0
  3 10  1  0  0  0  0
  4 21  1  0  0  0  0
  4  6  2  0  0  0  0
  5  8  1  0  0  0  0
  6  1  1  0  0  0  0
  7  8  1  0  0  0  0
  8  2  1  6  0  0  0
  9 10  1  6  0  0  0
  9 12  1  0  0  0  0
  9  5  1  0  0  0  0
 11  3  2  0  0  0  0
 12  1  1  6  0  0  0
 12  7  1  0  0  0  0
 13 14  2  0  0  0  0
 13 11  1  0  0  0  0
 14  4  1  0  0  0  0
 15 20  1  0  0  0  0
 16 17  1  0  0  0  0
 16 15  2  0  0  0  0
 17 18  2  0  0  0  0
 18 11  1  0  0  0  0
 18 19  1  0  0  0  0
 20 19  2  0  0  0  0
 21 25  1  1  0  0  0
 22 21  1  0  0  0  0
 23 22  1  0  0  0  0
 24 22  2  0  0  0  0
 25 26  1  0  0  0  0
M  END
>  <MODEL>
5

>  <REMARK>
 VINA RESULT:      -5.7      2.990      7.323
  Name = 
  4 active torsions:
  status: ('A' for Active; 'I' for Inactive)
    1  A    between atoms: C_1  and  C_22
    2  A    between atoms: C_8  and  C_23
    3  A    between atoms: C_9  and  C_22
    4  A    between atoms: C_13  and  C_22
                            x       y       z     vdW  Elec       q    Type
                         _______ _______ _______ _____ _____    ______ ____

>  <TORSDO>
F 4

$$$$
=
 OpenBabel11042422313D

 26 29  0  0  1  0  0  0  0  0999 V2000
  161.6600  204.6220  148.6480 O   0  0  0  0  0  0  0  0  0  0  0  0
  159.6480  200.5940  149.8870 N   0  0  0  0  0  1  0  0  0  0  0  0
  161.7180  206.4850  150.2760 C   0  0  0  0  0  0  0  0  0  0  0  0
  161.9770  206.8880  147.8730 C   0  0  0  0  0  0  0  0  0  0  0  0
  160.2820  202.6320  151.7240 S   0  0  0  0  0  0  0  0  0  0  0  0
  161.8040  205.9920  148.9400 C   0  0  0  0  0  0  0  0  0  0  0  0
  161.0130  202.3970  149.2040 N   0  0  0  0  0  2  0  0  0  0  0  0
  160.3830  201.7820  150.1480 C   0  0  2  0  0  3  0  0  0  0  0  0
  160.6830  204.1230  150.7750 C   0  0  1  0  0  3  0  0  0  0  0  0
  161.6560  205.3330  151.6890 S   0  0  0  0  0  0  0  0  0  0  0  0
  161.7420  207.8850  150.5020 C   0  0  0  0  0  0  0  0  0  0  0  0
  161.5830  203.6420  149.6710 C   0  0  2  0  0  3  0  0  0  0  0  0
  161.9270  208.7500  149.4180 C   0  0  0  0  0  3  0  0  0  0  0  0
  162.0480  208.2620  148.1220 C   0  0  0  0  0  3  0  0  0  0  0  0
  161.2720  209.6980  154.3310 C   0  0  0  0  0  3  0  0  0  0  0  0
  161.9560  210.3280  153.3380 N   0  0  0  0  0  0  0  0  0  0  0  0
  162.1220  209.7570  152.1150 C   0  0  0  0  0  3  0  0  0  0  0  0
  161.5960  208.4860  151.8460 C   0  0  0  0  0  0  0  0  0  0  0  0
  160.8760  207.8360  152.8570 C   0  0  0  0  0  3  0  0  0  0  0  0
  160.7160  208.4380  154.1060 C   0  0  0  0  0  3  0  0  0  0  0  0
  162.0880  206.3660  146.4680 C   0  0  2  0  0  3  0  0  0  0  0  0
  160.7410  206.2020  145.8360 C   0  0  0  0  0  0  0  0  0  0  0  0
  159.7100  206.2030  146.5570 O   0  0  0  0  0  1  0  0  0  0  0  0
  160.6210  206.0240  144.4620 O   0  0  0  0  0  0  0  0  0  0  0  0
  162.9030  205.0800  146.4120 C   0  0  0  0  0  2  0  0  0  0  0  0
  162.2730  204.1280  145.5130 N   0  0  0  0  0  1  0  0  0  0  0  0
  1  6  1  0  0  0  0
  3 11  1  0  0  0  0
  3 10  1  0  0  0  0
  4 14  2  0  0  0  0
  4  6  1  0  0  0  0
  6  3  2  0  0  0  0
  7 12  1  0  0  0  0
  7  8  1  0  0  0  0
  8  2  1  6  0  0  0
  8  5  1  0  0  0  0
  9 10  1  1  0  0  0
  9  5  1  0  0  0  0
 11 18  1  0  0  0  0
 12  1  1  6  0  0  0
 12  9  1  0  0  0  0
 13 11  2  0  0  0  0
 14 13  1  0  0  0  0
 16 15  2  0  0  0  0
 17 16  1  0  0  0  0
 18 17  2  0  0  0  0
 18 19  1  0  0  0  0
 19 20  2  0  0  0  0
 20 15  1  0  0  0  0
 21 25  1  1  0  0  0
 21  4  1  0  0  0  0
 22 21  1  0  0  0  0
 22 23  1  0  0  0  0
 24 22  2  0  0  0  0
 26 25  1  0  0  0  0
M  END
>  <MODEL>
6

>  <REMARK>
 VINA RESULT:      -5.5      3.565      7.918
  Name = 
  4 active torsions:
  status: ('A' for Active; 'I' for Inactive)
    1  A    between atoms: C_1  and  C_22
    2  A    between atoms: C_8  and  C_23
    3  A    between atoms: C_9  and  C_22
    4  A    between atoms: C_13  and  C_22
                            x       y       z     vdW  Elec       q    Type
                         _______ _______ _______ _____ _____    ______ ____

>  <TORSDO>
F 4

$$$$
=
 OpenBabel11042422313D

 26 29  0  0  1  0  0  0  0  0999 V2000
  161.5320  207.7890  149.6690 O   0  0  0  0  0  0  0  0  0  0  0  0
  163.0730  211.8210  147.8860 N   0  0  0  0  0  1  0  0  0  0  0  0
  161.1380  207.6290  152.1070 C   0  0  0  0  0  0  0  0  0  0  0  0
  161.4750  205.6240  150.7390 C   0  0  0  0  0  0  0  0  0  0  0  0
  162.0740  211.5740  150.5080 S   0  0  0  0  0  0  0  0  0  0  0  0
  161.3610  207.0210  150.8360 C   0  0  0  0  0  0  0  0  0  0  0  0
  161.9630  209.8370  148.5300 N   0  0  0  0  0  2  0  0  0  0  0  0
  162.3300  211.0420  148.8140 C   0  0  2  0  0  3  0  0  0  0  0  0
  161.9550  209.8060  150.8870 C   0  0  1  0  0  3  0  0  0  0  0  0
  160.8270  209.4210  152.2370 S   0  0  0  0  0  0  0  0  0  0  0  0
  161.1000  206.8160  153.2690 C   0  0  0  0  0  0  0  0  0  0  0  0
  161.3330  209.1940  149.6620 C   0  0  2  0  0  3  0  0  0  0  0  0
  161.2060  205.4260  153.1360 C   0  0  0  0  0  3  0  0  0  0  0  0
  161.3850  204.8360  151.8900 C   0  0  0  0  0  3  0  0  0  0  0  0
  160.5920  208.4930  157.1540 C   0  0  0  0  0  3  0  0  0  0  0  0
  161.4100  209.0810  156.2410 N   0  0  0  0  0  0  0  0  0  0  0  0
  161.5900  208.5510  155.0010 C   0  0  0  0  0  3  0  0  0  0  0  0
  160.9370  207.3670  154.6320 C   0  0  0  0  0  0  0  0  0  0  0  0
  160.0790  206.7630  155.5610 C   0  0  0  0  0  3  0  0  0  0  0  0
  159.9070  207.3210  156.8280 C   0  0  0  0  0  3  0  0  0  0  0  0
  161.6890  204.9830  149.3970 C   0  0  2  0  0  3  0  0  0  0  0  0
  161.1650  205.8430  148.2890 C   0  0  0  0  0  0  0  0  0  0  0  0
  159.9460  206.1520  148.2640 O   0  0  0  0  0  1  0  0  0  0  0  0
  162.0090  206.2800  147.2740 O   0  0  0  0  0  0  0  0  0  0  0  0
  161.1080  203.5750  149.3490 C   0  0  0  0  0  2  0  0  0  0  0  0
  161.2630  203.0160  148.0170 N   0  0  0  0  0  1  0  0  0  0  0  0
  1  6  1  0  0  0  0
  3 10  1  0  0  0  0
  3 11  1  0  0  0  0
  4  6  1  0  0  0  0
  4 14  2  0  0  0  0
  6  3  2  0  0  0  0
  7  8  1  0  0  0  0
  8  2  1  1  0  0  0
  8  5  1  0  0  0  0
  9  5  1  6  0  0  0
  9 10  1  0  0  0  0
 11 18  1  0  0  0  0
 12  7  1  6  0  0  0
 12  1  1  0  0  0  0
 12  9  1  0  0  0  0
 13 11  2  0  0  0  0
 14 13  1  0  0  0  0
 16 15  2  0  0  0  0
 17 16  1  0  0  0  0
 18 17  2  0  0  0  0
 18 19  1  0  0  0  0
 19 20  2  0  0  0  0
 20 15  1  0  0  0  0
 21 25  1  1  0  0  0
 21  4  1  0  0  0  0
 22 21  1  0  0  0  0
 23 22  1  0  0  0  0
 24 22  2  0  0  0  0
 26 25  1  0  0  0  0
M  END
>  <MODEL>
7

>  <REMARK>
 VINA RESULT:      -5.4      2.698      5.913
  Name = 
  4 active torsions:
  status: ('A' for Active; 'I' for Inactive)
    1  A    between atoms: C_1  and  C_22
    2  A    between atoms: C_8  and  C_23
    3  A    between atoms: C_9  and  C_22
    4  A    between atoms: C_13  and  C_22
                            x       y       z     vdW  Elec       q    Type
                         _______ _______ _______ _____ _____    ______ ____

>  <TORSDO>
F 4

$$$$
=
 OpenBabel11042422313D

 26 29  0  0  1  0  0  0  0  0999 V2000
  161.8810  206.3360  150.0840 O   0  0  0  0  0  0  0  0  0  0  0  0
  160.4480  201.9720  149.2400 N   0  0  0  0  0  1  0  0  0  0  0  0
  161.5190  207.3040  152.3330 C   0  0  0  0  0  0  0  0  0  0  0  0
  161.8900  208.7340  150.3780 C   0  0  0  0  0  0  0  0  0  0  0  0
  160.6110  203.0700  151.8290 S   0  0  0  0  0  0  0  0  0  0  0  0
  161.7820  207.4510  150.9390 C   0  0  0  0  0  0  0  0  0  0  0  0
  161.5570  204.0330  149.5660 N   0  0  0  0  0  2  0  0  0  0  0  0
  160.9640  203.0040  150.0720 C   0  0  2  0  0  3  0  0  0  0  0  0
  160.8390  204.8600  151.6540 C   0  0  1  0  0  3  0  0  0  0  0  0
  161.5360  205.6550  153.1120 S   0  0  0  0  0  0  0  0  0  0  0  0
  161.3030  208.4610  153.1240 C   0  0  0  0  0  0  0  0  0  0  0  0
  161.8840  205.0080  150.5830 C   0  0  2  0  0  3  0  0  0  0  0  0
  161.4280  209.7250  152.5370 C   0  0  0  0  0  3  0  0  0  0  0  0
  161.7220  209.8630  151.1850 C   0  0  0  0  0  3  0  0  0  0  0  0
  160.2640  208.3730  157.2570 C   0  0  0  0  0  3  0  0  0  0  0  0
  160.9210  209.4380  156.7240 N   0  0  0  0  0  0  0  0  0  0  0  0
  161.2680  209.4760  155.4090 C   0  0  0  0  0  3  0  0  0  0  0  0
  160.9630  208.4010  154.5630 C   0  0  0  0  0  0  0  0  0  0  0  0
  160.2720  207.3060  155.0990 C   0  0  0  0  0  3  0  0  0  0  0  0
  159.9240  207.2860  156.4510 C   0  0  0  0  0  3  0  0  0  0  0  0
  162.1880  208.8870  148.9130 C   0  0  2  0  0  3  0  0  0  0  0  0
  162.0690  210.3140  148.4760 C   0  0  0  0  0  0  0  0  0  0  0  0
  161.0360  210.6950  147.8670 O   0  0  0  0  0  0  0  0  0  0  0  0
  163.1010  211.2150  148.7140 O   0  0  0  0  0  1  0  0  0  0  0  0
  161.3270  207.9590  148.0660 C   0  0  0  0  0  2  0  0  0  0  0  0
  162.1550  206.9430  147.4390 N   0  0  0  0  0  1  0  0  0  0  0  0
  1 12  1  0  0  0  0
  1  6  1  0  0  0  0
  3 10  1  0  0  0  0
  3 11  1  0  0  0  0
  4  6  1  0  0  0  0
  4 14  2  0  0  0  0
  6  3  2  0  0  0  0
  7  8  1  0  0  0  0
  8  2  1  6  0  0  0
  8  5  1  0  0  0  0
  9  5  1  1  0  0  0
  9 10  1  0  0  0  0
 11 18  1  0  0  0  0
 12  7  1  6  0  0  0
 12  9  1  0  0  0  0
 13 11  2  0  0  0  0
 14 13  1  0  0  0  0
 16 15  1  0  0  0  0
 17 16  2  0  0  0  0
 18 19  2  0  0  0  0
 18 17  1  0  0  0  0
 19 20  1  0  0  0  0
 20 15  2  0  0  0  0
 21 25  1  6  0  0  0
 21  4  1  0  0  0  0
 22 24  1  0  0  0  0
 22 21  1  0  0  0  0
 23 22  2  0  0  0  0
 26 25  1  0  0  0  0
M  END
>  <MODEL>
8

>  <REMARK>
 VINA RESULT:      -5.4      3.200      6.710
  Name = 
  4 active torsions:
  status: ('A' for Active; 'I' for Inactive)
    1  A    between atoms: C_1  and  C_22
    2  A    between atoms: C_8  and  C_23
    3  A    between atoms: C_9  and  C_22
    4  A    between atoms: C_13  and  C_22
                            x       y       z     vdW  Elec       q    Type
                         _______ _______ _______ _____ _____    ______ ____

>  <TORSDO>
F 4

$$$$
=
 OpenBabel11042422313D

 26 29  0  0  1  0  0  0  0  0999 V2000
  161.8640  209.3690  148.9340 O   0  0  0  0  0  0  0  0  0  0  0  0
  161.4910  204.8570  147.7900 N   0  0  0  0  0  1  0  0  0  0  0  0
  161.3090  210.0710  151.2420 C   0  0  0  0  0  0  0  0  0  0  0  0
  161.3120  211.6760  149.3900 C   0  0  0  0  0  0  0  0  0  0  0  0
  161.4170  205.7870  150.4470 S   0  0  0  0  0  0  0  0  0  0  0  0
  161.5150  210.3690  149.8620 C   0  0  0  0  0  0  0  0  0  0  0  0
  162.0860  207.0950  148.2600 N   0  0  0  0  0  2  0  0  0  0  0  0
  161.7570  205.9230  148.6920 C   0  0  2  0  0  3  0  0  0  0  0  0
  161.2160  207.5870  150.3950 C   0  0  1  0  0  3  0  0  0  0  0  0
  161.7220  208.4250  151.9080 S   0  0  0  0  0  0  0  0  0  0  0  0
  160.8350  211.0900  152.1090 C   0  0  0  0  0  0  0  0  0  0  0  0
  162.1860  208.0490  149.3430 C   0  0  2  0  0  3  0  0  0  0  0  0
  160.6530  212.3840  151.6090 C   0  0  0  0  0  3  0  0  0  0  0  0
  160.8920  212.6780  150.2710 C   0  0  0  0  0  3  0  0  0  0  0  0
  159.9200  210.3210  156.2000 C   0  0  0  0  0  3  0  0  0  0  0  0
  158.9310  210.4530  155.2750 N   0  0  0  0  0  0  0  0  0  0  0  0
  159.2080  210.7080  153.9680 C   0  0  0  0  0  3  0  0  0  0  0  0
  160.5340  210.8540  153.5380 C   0  0  0  0  0  0  0  0  0  0  0  0
  161.5600  210.7030  154.4800 C   0  0  0  0  0  3  0  0  0  0  0  0
  161.2560  210.4410  155.8170 C   0  0  0  0  0  3  0  0  0  0  0  0
  161.5490  211.9930  147.9410 C   0  0  2  0  0  3  0  0  0  0  0  0
  162.8000  212.7940  147.7520 C   0  0  0  0  0  0  0  0  0  0  0  0
  163.8960  212.2040  147.5750 O   0  0  0  0  0  0  0  0  0  0  0  0
  162.7640  214.1830  147.7990 O   0  0  0  0  0  1  0  0  0  0  0  0
  160.3390  212.6710  147.3100 C   0  0  0  0  0  2  0  0  0  0  0  0
  160.4420  212.6270  145.8610 N   0  0  0  0  0  1  0  0  0  0  0  0
  1 12  1  0  0  0  0
  1  6  1  0  0  0  0
  3 10  1  0  0  0  0
  3 11  1  0  0  0  0
  4  6  1  0  0  0  0
  4 14  2  0  0  0  0
  6  3  2  0  0  0  0
  7  8  1  0  0  0  0
  8  2  1  6  0  0  0
  8  5  1  0  0  0  0
  9  5  1  1  0  0  0
  9 10  1  0  0  0  0
 11 18  1  0  0  0  0
 12  7  1  6  0  0  0
 12  9  1  0  0  0  0
 13 11  2  0  0  0  0
 14 13  1  0  0  0  0
 16 15  2  0  0  0  0
 17 16  1  0  0  0  0
 18 17  2  0  0  0  0
 18 19  1  0  0  0  0
 19 20  2  0  0  0  0
 20 15  1  0  0  0  0
 21 25  1  1  0  0  0
 21  4  1  0  0  0  0
 22 24  1  0  0  0  0
 22 21  1  0  0  0  0
 23 22  2  0  0  0  0
 26 25  1  0  0  0  0
M  END
>  <MODEL>
9

>  <REMARK>
 VINA RESULT:      -5.4      3.596      7.080
  Name = 
  4 active torsions:
  status: ('A' for Active; 'I' for Inactive)
    1  A    between atoms: C_1  and  C_22
    2  A    between atoms: C_8  and  C_23
    3  A    between atoms: C_9  and  C_22
    4  A    between atoms: C_13  and  C_22
                            x       y       z     vdW  Elec       q    Type
                         _______ _______ _______ _____ _____    ______ ____

>  <TORSDO>
F 4

$$$$
