=
 OpenBabel11042420223D

 30 33  0  0  1  0  0  0  0  0999 V2000
  161.4960  206.0390  151.5310 N   0  0  0  0  0  0  0  0  0  0  0  0
  161.9360  206.4750  152.8570 C   0  0  1  0  0  3  0  0  0  0  0  0
  160.7920  206.8830  153.7130 C   0  0  1  0  0  3  0  0  0  0  0  0
  161.3770  205.6120  153.8210 O   0  0  0  0  0  0  0  0  0  0  0  0
  161.2520  207.6920  154.8330 N   0  0  0  0  0  2  0  0  0  0  0  0
  159.9150  211.6290  155.6270 C   0  0  0  0  0  3  0  0  0  0  0  0
  159.5720  210.5940  156.5020 C   0  0  0  0  0  3  0  0  0  0  0  0
  160.0120  209.2910  156.2480 C   0  0  0  0  0  3  0  0  0  0  0  0
  161.1330  210.0570  154.2460 C   0  0  0  0  0  3  0  0  0  0  0  0
  160.6950  211.3600  154.4990 C   0  0  0  0  0  3  0  0  0  0  0  0
  160.7950  209.0170  155.1180 C   0  0  0  0  0  0  0  0  0  0  0  0
  161.8210  204.6110  151.4890 C   0  0  0  0  0  2  0  0  0  0  0  0
  160.5830  203.7940  151.1580 C   0  0  0  0  0  2  0  0  0  0  0  0
  160.9670  202.3650  150.8200 C   0  0  0  0  0  2  0  0  0  0  0  0
  160.2810  201.9300  149.5350 C   0  0  2  0  0  3  0  0  0  0  0  0
  161.3140  201.8970  147.7750 C   0  0  0  0  0  2  0  0  0  0  0  0
  161.0990  200.8600  148.8520 C   0  0  0  0  0  2  0  0  0  0  0  0
  160.5270  202.9020  148.4770 N   0  0  0  0  0  2  0  0  0  0  0  0
  162.2840  206.7550  150.5070 C   0  0  1  0  0  3  0  0  0  0  0  0
  160.9730  205.9380  146.5050 C   0  0  0  0  0  0  0  0  0  0  0  0
  160.5390  206.9110  148.6750 C   0  0  0  0  0  3  0  0  0  0  0  0
  161.8050  206.4870  149.1020 C   0  0  0  0  0  0  0  0  0  0  0  0
  162.2400  205.5320  146.9650 C   0  0  0  0  0  0  0  0  0  0  0  0
  162.6160  205.8160  148.2410 N   0  0  0  0  0  0  0  0  0  0  0  0
  160.5070  205.6510  145.1170 C   0  0  0  0  0  1  0  0  0  0  0  0
  160.1280  206.6320  147.3720 C   0  0  0  0  0  3  0  0  0  0  0  0
  163.1530  204.8140  146.1140 C   0  0  0  0  0  0  0  0  0  0  0  0
  163.8870  204.2370  145.4300 N   0  0  0  0  0  0  0  0  0  0  0  0
  162.2450  208.2110  150.7370 C   0  0  0  0  0  0  0  0  0  0  0  0
  162.2250  209.3540  150.9180 N   0  0  0  0  0  0  0  0  0  0  0  0
  2  1  1  6  0  0  0
  2  3  1  0  0  0  0
  2  4  1  0  0  0  0
  3  4  1  0  0  0  0
  3  5  1  1  0  0  0
  5 11  1  0  0  0  0
  6  7  1  0  0  0  0
  8  7  2  0  0  0  0
  9 10  1  0  0  0  0
  9 11  2  0  0  0  0
 10  6  2  0  0  0  0
 11  8  1  0  0  0  0
 12  1  1  0  0  0  0
 13 12  1  0  0  0  0
 14 13  1  0  0  0  0
 15 14  1  1  0  0  0
 16 18  1  0  0  0  0
 16 17  1  0  0  0  0
 17 15  1  0  0  0  0
 18 15  1  0  0  0  0
 19 29  1  1  0  0  0
 19  1  1  0  0  0  0
 20 23  2  0  0  0  0
 20 26  1  0  0  0  0
 21 22  1  0  0  0  0
 22 19  1  0  0  0  0
 23 24  1  0  0  0  0
 24 22  2  0  0  0  0
 25 20  1  0  0  0  0
 26 21  2  0  0  0  0
 27 23  1  0  0  0  0
 28 27  3  0  0  0  0
 29 30  3  0  0  0  0
M  END
>  <MODEL>
1

>  <REMARK>
 VINA RESULT:      -6.4      0.000      0.000
  Name = 
  11 active torsions:
  status: ('A' for Active; 'I' for Inactive)
    1  A    between atoms: C_1  and  C_11
    2  A    between atoms: C_1  and  N_20
    3  A    between atoms: C_3  and  C_30
    4  A    between atoms: C_8  and  C_30
    5  A    between atoms: C_10  and  C_14
    6  A    between atoms: C_11  and  C_24
    7  A    between atoms: C_12  and  N_20
    8  A    between atoms: C_17  and  C_24
    9  A    between atoms: C_19  and  N_22
   10  A    between atoms: N_20  and  C_30
   11  A    between atoms: N_22  and  C_26
                            x       y       z     vdW  Elec       q    Type
                         _______ _______ _______ _____ _____    ______ ____

>  <TORSDO>
F 11

$$$$
=
 OpenBabel11042420223D

 30 33  0  0  1  0  0  0  0  0999 V2000
  161.3910  208.9620  151.9780 N   0  0  0  0  0  0  0  0  0  0  0  0
  161.9440  207.6090  151.9080 C   0  0  1  0  0  3  0  0  0  0  0  0
  161.1290  206.7230  151.0380 C   0  0  1  0  0  3  0  0  0  0  0  0
  162.3000  207.3400  150.5710 O   0  0  0  0  0  0  0  0  0  0  0  0
  161.4270  205.3240  151.3070 N   0  0  0  0  0  2  0  0  0  0  0  0
  160.8340  202.1950  148.5180 C   0  0  0  0  0  3  0  0  0  0  0  0
  160.6710  201.9430  149.8840 C   0  0  0  0  0  3  0  0  0  0  0  0
  160.8630  202.9710  150.8110 C   0  0  0  0  0  3  0  0  0  0  0  0
  161.3820  204.5020  149.0110 C   0  0  0  0  0  3  0  0  0  0  0  0
  161.1890  203.4750  148.0820 C   0  0  0  0  0  3  0  0  0  0  0  0
  161.2190  204.2560  150.3780 C   0  0  0  0  0  0  0  0  0  0  0  0
  162.3560  209.7900  151.2500 C   0  0  0  0  0  2  0  0  0  0  0  0
  161.6350  210.7510  150.3180 C   0  0  0  0  0  2  0  0  0  0  0  0
  162.3240  210.7950  148.9660 C   0  0  0  0  0  2  0  0  0  0  0  0
  161.6840  211.8580  148.0880 C   0  0  2  0  0  3  0  0  0  0  0  0
  162.2000  213.8210  148.3030 C   0  0  0  0  0  2  0  0  0  0  0  0
  162.7540  212.7070  147.4460 C   0  0  0  0  0  2  0  0  0  0  0  0
  161.1920  212.9600  148.9060 N   0  0  0  0  0  2  0  0  0  0  0  0
  161.3440  209.3870  153.3920 C   0  0  1  0  0  3  0  0  0  0  0  0
  158.6590  212.6520  154.1240 C   0  0  0  0  0  0  0  0  0  0  0  0
  159.2980  210.7510  152.7740 C   0  0  0  0  0  3  0  0  0  0  0  0
  160.3820  210.5230  153.6340 C   0  0  0  0  0  0  0  0  0  0  0  0
  159.7540  212.3920  154.9690 C   0  0  0  0  0  0  0  0  0  0  0  0
  160.5780  211.3430  154.7020 N   0  0  0  0  0  0  0  0  0  0  0  0
  157.7260  213.7890  154.3670 C   0  0  0  0  0  1  0  0  0  0  0  0
  158.4390  211.8200  153.0260 C   0  0  0  0  0  3  0  0  0  0  0  0
  160.0290  213.2170  156.1170 C   0  0  0  0  0  0  0  0  0  0  0  0
  160.2500  213.8800  157.0400 N   0  0  0  0  0  0  0  0  0  0  0  0
  160.9590  208.2640  154.2660 C   0  0  0  0  0  0  0  0  0  0  0  0
  160.6540  207.3750  154.9420 N   0  0  0  0  0  0  0  0  0  0  0  0
  1 19  1  0  0  0  0
  2  1  1  6  0  0  0
  3  5  1  1  0  0  0
  3  2  1  0  0  0  0
  4  3  1  0  0  0  0
  4  2  1  0  0  0  0
  6  7  1  0  0  0  0
  7  8  2  0  0  0  0
  9 11  2  0  0  0  0
 10  6  2  0  0  0  0
 10  9  1  0  0  0  0
 11  8  1  0  0  0  0
 11  5  1  0  0  0  0
 12  1  1  0  0  0  0
 13 12  1  0  0  0  0
 14 13  1  0  0  0  0
 15 18  1  0  0  0  0
 15 14  1  1  0  0  0
 16 18  1  0  0  0  0
 17 15  1  0  0  0  0
 17 16  1  0  0  0  0
 19 22  1  0  0  0  0
 19 29  1  1  0  0  0
 20 25  1  0  0  0  0
 20 23  1  0  0  0  0
 21 26  1  0  0  0  0
 21 22  2  0  0  0  0
 22 24  1  0  0  0  0
 23 27  1  0  0  0  0
 24 23  2  0  0  0  0
 26 20  2  0  0  0  0
 27 28  3  0  0  0  0
 29 30  3  0  0  0  0
M  END
>  <MODEL>
2

>  <REMARK>
 VINA RESULT:      -6.3      2.896      8.765
  Name = 
  11 active torsions:
  status: ('A' for Active; 'I' for Inactive)
    1  A    between atoms: C_1  and  C_11
    2  A    between atoms: C_1  and  N_20
    3  A    between atoms: C_3  and  C_30
    4  A    between atoms: C_8  and  C_30
    5  A    between atoms: C_10  and  C_14
    6  A    between atoms: C_11  and  C_24
    7  A    between atoms: C_12  and  N_20
    8  A    between atoms: C_17  and  C_24
    9  A    between atoms: C_19  and  N_22
   10  A    between atoms: N_20  and  C_30
   11  A    between atoms: N_22  and  C_26
                            x       y       z     vdW  Elec       q    Type
                         _______ _______ _______ _____ _____    ______ ____

>  <TORSDO>
F 11

$$$$
=
 OpenBabel11042420223D

 30 33  0  0  1  0  0  0  0  0999 V2000
  161.3700  208.6640  151.9920 N   0  0  0  0  0  0  0  0  0  0  0  0
  161.9380  207.3160  151.9360 C   0  0  1  0  0  3  0  0  0  0  0  0
  161.0920  206.3930  151.1370 C   0  0  1  0  0  3  0  0  0  0  0  0
  162.2300  207.0080  150.5920 O   0  0  0  0  0  0  0  0  0  0  0  0
  161.4230  205.0060  151.4350 N   0  0  0  0  0  2  0  0  0  0  0  0
  160.7960  201.7360  148.8220 C   0  0  0  0  0  3  0  0  0  0  0  0
  161.0130  203.0120  148.2920 C   0  0  0  0  0  3  0  0  0  0  0  0
  161.2220  204.0970  149.1480 C   0  0  0  0  0  3  0  0  0  0  0  0
  160.9990  202.6340  151.0620 C   0  0  0  0  0  3  0  0  0  0  0  0
  160.7900  201.5470  150.2060 C   0  0  0  0  0  3  0  0  0  0  0  0
  161.2170  203.9120  150.5370 C   0  0  0  0  0  0  0  0  0  0  0  0
  162.3710  209.5100  151.3350 C   0  0  0  0  0  2  0  0  0  0  0  0
  161.9230  209.8680  149.9280 C   0  0  0  0  0  2  0  0  0  0  0  0
  161.9550  211.3730  149.7290 C   0  0  0  0  0  2  0  0  0  0  0  0
  161.9340  211.7040  148.2460 C   0  0  2  0  0  3  0  0  0  0  0  0
  162.2700  213.6150  147.6110 C   0  0  0  0  0  2  0  0  0  0  0  0
  163.1930  212.4470  147.8670 C   0  0  0  0  0  2  0  0  0  0  0  0
  161.0840  212.8640  147.9990 N   0  0  0  0  0  2  0  0  0  0  0  0
  161.2350  209.0680  153.4060 C   0  0  1  0  0  3  0  0  0  0  0  0
  158.2180  212.0710  153.9350 C   0  0  0  0  0  0  0  0  0  0  0  0
  159.5620  210.2910  154.8660 C   0  0  0  0  0  3  0  0  0  0  0  0
  160.1780  210.1220  153.6180 C   0  0  0  0  0  0  0  0  0  0  0  0
  158.8600  211.8790  152.6980 C   0  0  0  0  0  0  0  0  0  0  0  0
  159.8140  210.9170  152.5760 N   0  0  0  0  0  0  0  0  0  0  0  0
  157.1620  213.1080  154.1250 C   0  0  0  0  0  1  0  0  0  0  0  0
  158.5800  211.2680  155.0180 C   0  0  0  0  0  3  0  0  0  0  0  0
  158.5270  212.6780  151.5460 C   0  0  0  0  0  0  0  0  0  0  0  0
  158.2600  213.3200  150.6210 N   0  0  0  0  0  0  0  0  0  0  0  0
  160.9040  207.9080  154.2540 C   0  0  0  0  0  0  0  0  0  0  0  0
  160.6440  207.0040  154.9290 N   0  0  0  0  0  0  0  0  0  0  0  0
  1 19  1  0  0  0  0
  2  1  1  6  0  0  0
  3  5  1  1  0  0  0
  3  2  1  0  0  0  0
  4  3  1  0  0  0  0
  4  2  1  0  0  0  0
  6 10  1  0  0  0  0
  7  6  2  0  0  0  0
  7  8  1  0  0  0  0
  8 11  2  0  0  0  0
 10  9  2  0  0  0  0
 11  9  1  0  0  0  0
 11  5  1  0  0  0  0
 12  1  1  0  0  0  0
 13 12  1  0  0  0  0
 14 13  1  0  0  0  0
 15 14  1  1  0  0  0
 16 17  1  0  0  0  0
 16 18  1  0  0  0  0
 17 15  1  0  0  0  0
 18 15  1  0  0  0  0
 19 22  1  0  0  0  0
 19 29  1  1  0  0  0
 20 25  1  0  0  0  0
 20 26  1  0  0  0  0
 21 26  2  0  0  0  0
 22 21  1  0  0  0  0
 23 20  2  0  0  0  0
 24 23  1  0  0  0  0
 24 22  2  0  0  0  0
 27 23  1  0  0  0  0
 28 27  3  0  0  0  0
 29 30  3  0  0  0  0
M  END
>  <MODEL>
3

>  <REMARK>
 VINA RESULT:      -6.3      2.856      8.392
  Name = 
  11 active torsions:
  status: ('A' for Active; 'I' for Inactive)
    1  A    between atoms: C_1  and  C_11
    2  A    between atoms: C_1  and  N_20
    3  A    between atoms: C_3  and  C_30
    4  A    between atoms: C_8  and  C_30
    5  A    between atoms: C_10  and  C_14
    6  A    between atoms: C_11  and  C_24
    7  A    between atoms: C_12  and  N_20
    8  A    between atoms: C_17  and  C_24
    9  A    between atoms: C_19  and  N_22
   10  A    between atoms: N_20  and  C_30
   11  A    between atoms: N_22  and  C_26
                            x       y       z     vdW  Elec       q    Type
                         _______ _______ _______ _____ _____    ______ ____

>  <TORSDO>
F 11

$$$$
=
 OpenBabel11042420223D

 30 33  0  0  1  0  0  0  0  0999 V2000
  161.2710  207.5880  151.6550 N   0  0  0  0  0  0  0  0  0  0  0  0
  161.2770  209.0490  151.5830 C   0  0  1  0  0  3  0  0  0  0  0  0
  160.3310  209.6550  152.5540 C   0  0  1  0  0  3  0  0  0  0  0  0
  161.7040  209.5570  152.8260 O   0  0  0  0  0  0  0  0  0  0  0  0
  160.0360  211.0340  152.1910 N   0  0  0  0  0  2  0  0  0  0  0  0
  156.8030  213.2570  153.7820 C   0  0  0  0  0  3  0  0  0  0  0  0
  157.3660  213.6350  152.5590 C   0  0  0  0  0  3  0  0  0  0  0  0
  158.4330  212.9050  152.0260 C   0  0  0  0  0  3  0  0  0  0  0  0
  158.3750  211.4200  153.9360 C   0  0  0  0  0  3  0  0  0  0  0  0
  157.3070  212.1490  154.4690 C   0  0  0  0  0  3  0  0  0  0  0  0
  158.9420  211.7940  152.7120 C   0  0  0  0  0  0  0  0  0  0  0  0
  162.0070  207.2780  152.8830 C   0  0  0  0  0  2  0  0  0  0  0  0
  161.2110  206.3200  153.7540 C   0  0  0  0  0  2  0  0  0  0  0  0
  160.3330  207.0900  154.7220 C   0  0  0  0  0  2  0  0  0  0  0  0
  161.1630  207.6000  155.8890 C   0  0  2  0  0  3  0  0  0  0  0  0
  160.3450  208.8740  157.2580 C   0  0  0  0  0  2  0  0  0  0  0  0
  160.4270  207.3670  157.1860 C   0  0  0  0  0  2  0  0  0  0  0  0
  161.0480  209.0500  155.9950 N   0  0  0  0  0  2  0  0  0  0  0  0
  162.0030  207.0480  150.4910 C   0  0  1  0  0  3  0  0  0  0  0  0
  160.7230  203.1340  149.2890 C   0  0  0  0  0  0  0  0  0  0  0  0
  160.9910  204.7870  151.0320 C   0  0  0  0  0  3  0  0  0  0  0  0
  161.5380  205.6700  150.0900 C   0  0  0  0  0  0  0  0  0  0  0  0
  161.2710  204.0470  148.3690 C   0  0  0  0  0  0  0  0  0  0  0  0
  161.6600  205.2800  148.7930 N   0  0  0  0  0  0  0  0  0  0  0  0
  160.2820  201.7690  148.8810 C   0  0  0  0  0  1  0  0  0  0  0  0
  160.5850  203.5180  150.6230 C   0  0  0  0  0  3  0  0  0  0  0  0
  161.4360  203.7050  146.9800 C   0  0  0  0  0  0  0  0  0  0  0  0
  161.5690  203.4310  145.8630 N   0  0  0  0  0  0  0  0  0  0  0  0
  161.8630  207.9380  149.3240 C   0  0  0  0  0  0  0  0  0  0  0  0
  161.7650  208.6380  148.4070 N   0  0  0  0  0  0  0  0  0  0  0  0
  1 12  1  0  0  0  0
  2  1  1  1  0  0  0
  2  3  1  0  0  0  0
  2  4  1  0  0  0  0
  3  5  1  6  0  0  0
  3  4  1  0  0  0  0
  5 11  1  0  0  0  0
  6 10  1  0  0  0  0
  7  6  2  0  0  0  0
  8  7  1  0  0  0  0
  8 11  2  0  0  0  0
  9 10  2  0  0  0  0
 11  9  1  0  0  0  0
 12 13  1  0  0  0  0
 13 14  1  0  0  0  0
 15 14  1  6  0  0  0
 15 18  1  0  0  0  0
 15 17  1  0  0  0  0
 17 16  1  0  0  0  0
 18 16  1  0  0  0  0
 19 29  1  6  0  0  0
 19  1  1  0  0  0  0
 20 26  1  0  0  0  0
 22 19  1  0  0  0  0
 22 21  1  0  0  0  0
 23 24  1  0  0  0  0
 23 20  2  0  0  0  0
 24 22  2  0  0  0  0
 25 20  1  0  0  0  0
 26 21  2  0  0  0  0
 27 23  1  0  0  0  0
 28 27  3  0  0  0  0
 30 29  3  0  0  0  0
M  END
>  <MODEL>
4

>  <REMARK>
 VINA RESULT:      -6.2      2.232      5.030
  Name = 
  11 active torsions:
  status: ('A' for Active; 'I' for Inactive)
    1  A    between atoms: C_1  and  C_11
    2  A    between atoms: C_1  and  N_20
    3  A    between atoms: C_3  and  C_30
    4  A    between atoms: C_8  and  C_30
    5  A    between atoms: C_10  and  C_14
    6  A    between atoms: C_11  and  C_24
    7  A    between atoms: C_12  and  N_20
    8  A    between atoms: C_17  and  C_24
    9  A    between atoms: C_19  and  N_22
   10  A    between atoms: N_20  and  C_30
   11  A    between atoms: N_22  and  C_26
                            x       y       z     vdW  Elec       q    Type
                         _______ _______ _______ _____ _____    ______ ____

>  <TORSDO>
F 11

$$$$
=
 OpenBabel11042420223D

 30 33  0  0  1  0  0  0  0  0999 V2000
  161.4810  208.6510  151.1980 N   0  0  0  0  0  0  0  0  0  0  0  0
  161.9360  207.4740  150.4570 C   0  0  1  0  0  3  0  0  0  0  0  0
  161.0690  207.1890  149.2850 C   0  0  1  0  0  3  0  0  0  0  0  0
  162.2870  207.8740  149.1520 O   0  0  0  0  0  0  0  0  0  0  0  0
  161.2640  205.8220  148.8240 N   0  0  0  0  0  2  0  0  0  0  0  0
  161.0730  204.5490  144.7910 C   0  0  0  0  0  3  0  0  0  0  0  0
  160.6020  205.8190  145.1380 C   0  0  0  0  0  3  0  0  0  0  0  0
  160.6630  206.2480  146.4670 C   0  0  0  0  0  3  0  0  0  0  0  0
  161.6650  204.1390  147.1040 C   0  0  0  0  0  3  0  0  0  0  0  0
  161.6050  203.7100  145.7740 C   0  0  0  0  0  3  0  0  0  0  0  0
  161.1950  205.4090  147.4560 C   0  0  0  0  0  0  0  0  0  0  0  0
  162.4030  209.7160  150.7950 C   0  0  0  0  0  2  0  0  0  0  0  0
  161.6450  210.8490  150.1210 C   0  0  0  0  0  2  0  0  0  0  0  0
  162.3500  211.2720  148.8460 C   0  0  0  0  0  2  0  0  0  0  0  0
  161.5250  212.3200  148.1160 C   0  0  2  0  0  3  0  0  0  0  0  0
  162.1460  214.2630  148.0580 C   0  0  0  0  0  2  0  0  0  0  0  0
  162.4000  213.0830  147.1510 C   0  0  0  0  0  2  0  0  0  0  0  0
  161.3190  213.4840  148.9700 N   0  0  0  0  0  2  0  0  0  0  0  0
  161.6280  208.3920  152.6450 C   0  0  1  0  0  3  0  0  0  0  0  0
  158.9970  210.8400  154.9880 C   0  0  0  0  0  0  0  0  0  0  0  0
  160.5340  208.9790  154.8560 C   0  0  0  0  0  3  0  0  0  0  0  0
  160.7150  209.2440  153.4910 C   0  0  0  0  0  0  0  0  0  0  0  0
  159.2060  211.0820  153.6180 C   0  0  0  0  0  0  0  0  0  0  0  0
  160.0530  210.2830  152.9140 N   0  0  0  0  0  0  0  0  0  0  0  0
  158.0780  211.6820  155.8090 C   0  0  0  0  0  1  0  0  0  0  0  0
  159.6710  209.7820  155.6000 C   0  0  0  0  0  3  0  0  0  0  0  0
  158.5380  212.1600  152.9350 C   0  0  0  0  0  0  0  0  0  0  0  0
  158.0000  213.0260  152.3860 N   0  0  0  0  0  0  0  0  0  0  0  0
  161.3560  206.9770  152.9560 C   0  0  0  0  0  0  0  0  0  0  0  0
  161.1390  205.8640  153.1890 N   0  0  0  0  0  0  0  0  0  0  0  0
  1 19  1  0  0  0  0
  2  1  1  1  0  0  0
  3  5  1  6  0  0  0
  3  2  1  0  0  0  0
  4  3  1  0  0  0  0
  4  2  1  0  0  0  0
  6  7  2  0  0  0  0
  6 10  1  0  0  0  0
  7  8  1  0  0  0  0
  8 11  2  0  0  0  0
  9 11  1  0  0  0  0
 10  9  2  0  0  0  0
 11  5  1  0  0  0  0
 12  1  1  0  0  0  0
 13 12  1  0  0  0  0
 14 13  1  0  0  0  0
 15 14  1  1  0  0  0
 15 18  1  0  0  0  0
 16 18  1  0  0  0  0
 17 16  1  0  0  0  0
 17 15  1  0  0  0  0
 19 29  1  6  0  0  0
 19 22  1  0  0  0  0
 20 26  1  0  0  0  0
 20 25  1  0  0  0  0
 21 26  2  0  0  0  0
 22 21  1  0  0  0  0
 23 20  2  0  0  0  0
 24 22  2  0  0  0  0
 24 23  1  0  0  0  0
 27 23  1  0  0  0  0
 28 27  3  0  0  0  0
 29 30  3  0  0  0  0
M  END
>  <MODEL>
5

>  <REMARK>
 VINA RESULT:      -6.1      2.942      8.890
  Name = 
  11 active torsions:
  status: ('A' for Active; 'I' for Inactive)
    1  A    between atoms: C_1  and  C_11
    2  A    between atoms: C_1  and  N_20
    3  A    between atoms: C_3  and  C_30
    4  A    between atoms: C_8  and  C_30
    5  A    between atoms: C_10  and  C_14
    6  A    between atoms: C_11  and  C_24
    7  A    between atoms: C_12  and  N_20
    8  A    between atoms: C_17  and  C_24
    9  A    between atoms: C_19  and  N_22
   10  A    between atoms: N_20  and  C_30
   11  A    between atoms: N_22  and  C_26
                            x       y       z     vdW  Elec       q    Type
                         _______ _______ _______ _____ _____    ______ ____

>  <TORSDO>
F 11

$$$$
=
 OpenBabel11042420223D

 30 33  0  0  1  0  0  0  0  0999 V2000
  161.6870  208.9360  150.6280 N   0  0  0  0  0  0  0  0  0  0  0  0
  162.2580  207.8670  149.8070 C   0  0  1  0  0  3  0  0  0  0  0  0
  161.2460  207.2660  148.9010 C   0  0  1  0  0  3  0  0  0  0  0  0
  162.1530  208.2380  148.4520 O   0  0  0  0  0  0  0  0  0  0  0  0
  161.6960  205.9670  148.4200 N   0  0  0  0  0  2  0  0  0  0  0  0
  160.8080  204.3290  144.6190 C   0  0  0  0  0  3  0  0  0  0  0  0
  160.5350  205.6770  144.8710 C   0  0  0  0  0  3  0  0  0  0  0  0
  160.8270  206.2260  146.1230 C   0  0  0  0  0  3  0  0  0  0  0  0
  161.6630  204.0830  146.8710 C   0  0  0  0  0  3  0  0  0  0  0  0
  161.3720  203.5330  145.6190 C   0  0  0  0  0  3  0  0  0  0  0  0
  161.3930  205.4310  147.1290 C   0  0  0  0  0  0  0  0  0  0  0  0
  162.4850  210.1190  150.2950 C   0  0  0  0  0  2  0  0  0  0  0  0
  161.6170  211.1770  149.6330 C   0  0  0  0  0  2  0  0  0  0  0  0
  162.3360  211.7820  148.4420 C   0  0  0  0  0  2  0  0  0  0  0  0
  161.3280  212.3650  147.4640 C   0  0  2  0  0  3  0  0  0  0  0  0
  161.1550  214.3860  147.2440 C   0  0  0  0  0  2  0  0  0  0  0  0
  162.0100  213.3530  146.5490 C   0  0  0  0  0  2  0  0  0  0  0  0
  160.5330  213.3990  148.1150 N   0  0  0  0  0  2  0  0  0  0  0  0
  161.8780  208.5980  152.0530 C   0  0  1  0  0  3  0  0  0  0  0  0
  160.2090  211.4960  154.7400 C   0  0  0  0  0  0  0  0  0  0  0  0
  160.0770  210.2770  152.6570 C   0  0  0  0  0  3  0  0  0  0  0  0
  161.2680  209.6150  152.9860 C   0  0  0  0  0  0  0  0  0  0  0  0
  161.3990  210.8090  155.0410 C   0  0  0  0  0  0  0  0  0  0  0  0
  161.8910  209.8950  154.1620 N   0  0  0  0  0  0  0  0  0  0  0  0
  159.6260  212.5110  155.6650 C   0  0  0  0  0  1  0  0  0  0  0  0
  159.5520  211.2190  153.5400 C   0  0  0  0  0  3  0  0  0  0  0  0
  162.1190  211.0530  156.2650 C   0  0  0  0  0  0  0  0  0  0  0  0
  162.6970  211.2500  157.2480 N   0  0  0  0  0  0  0  0  0  0  0  0
  161.2940  207.2800  152.3630 C   0  0  0  0  0  0  0  0  0  0  0  0
  160.8260  206.2480  152.6000 N   0  0  0  0  0  0  0  0  0  0  0  0
  1 19  1  0  0  0  0
  2  1  1  1  0  0  0
  3  5  1  6  0  0  0
  3  2  1  0  0  0  0
  4  3  1  0  0  0  0
  4  2  1  0  0  0  0
  6  7  2  0  0  0  0
  6 10  1  0  0  0  0
  7  8  1  0  0  0  0
  8 11  2  0  0  0  0
  9 11  1  0  0  0  0
 10  9  2  0  0  0  0
 11  5  1  0  0  0  0
 12  1  1  0  0  0  0
 13 12  1  0  0  0  0
 14 13  1  0  0  0  0
 15 18  1  0  0  0  0
 15 14  1  1  0  0  0
 16 18  1  0  0  0  0
 17 16  1  0  0  0  0
 17 15  1  0  0  0  0
 19 29  1  6  0  0  0
 19 22  1  0  0  0  0
 20 23  1  0  0  0  0
 20 25  1  0  0  0  0
 21 22  2  0  0  0  0
 21 26  1  0  0  0  0
 22 24  1  0  0  0  0
 23 27  1  0  0  0  0
 24 23  2  0  0  0  0
 26 20  2  0  0  0  0
 27 28  3  0  0  0  0
 29 30  3  0  0  0  0
M  END
>  <MODEL>
6

>  <REMARK>
 VINA RESULT:      -6.0      3.057      9.101
  Name = 
  11 active torsions:
  status: ('A' for Active; 'I' for Inactive)
    1  A    between atoms: C_1  and  C_11
    2  A    between atoms: C_1  and  N_20
    3  A    between atoms: C_3  and  C_30
    4  A    between atoms: C_8  and  C_30
    5  A    between atoms: C_10  and  C_14
    6  A    between atoms: C_11  and  C_24
    7  A    between atoms: C_12  and  N_20
    8  A    between atoms: C_17  and  C_24
    9  A    between atoms: C_19  and  N_22
   10  A    between atoms: N_20  and  C_30
   11  A    between atoms: N_22  and  C_26
                            x       y       z     vdW  Elec       q    Type
                         _______ _______ _______ _____ _____    ______ ____

>  <TORSDO>
F 11

$$$$
=
 OpenBabel11042420223D

 30 33  0  0  1  0  0  0  0  0999 V2000
  161.6030  206.9950  150.1110 N   0  0  0  0  0  0  0  0  0  0  0  0
  161.2970  208.4140  150.3010 C   0  0  1  0  0  3  0  0  0  0  0  0
  162.3310  209.0980  151.1180 C   0  0  1  0  0  3  0  0  0  0  0  0
  162.3280  209.1770  149.7160 O   0  0  0  0  0  0  0  0  0  0  0  0
  161.8200  210.3550  151.6450 N   0  0  0  0  0  2  0  0  0  0  0  0
  159.5890  210.7130  155.2250 C   0  0  0  0  0  3  0  0  0  0  0  0
  159.0070  211.0840  154.0090 C   0  0  0  0  0  3  0  0  0  0  0  0
  159.7370  210.9670  152.8220 C   0  0  0  0  0  3  0  0  0  0  0  0
  161.6280  210.1100  154.0650 C   0  0  0  0  0  3  0  0  0  0  0  0
  160.8990  210.2260  155.2530 C   0  0  0  0  0  3  0  0  0  0  0  0
  161.0510  210.4790  152.8450 C   0  0  0  0  0  0  0  0  0  0  0  0
  161.1500  206.7020  148.7490 C   0  0  0  0  0  2  0  0  0  0  0  0
  162.3150  206.7690  147.7750 C   0  0  0  0  0  2  0  0  0  0  0  0
  162.3530  205.5230  146.9090 C   0  0  0  0  0  2  0  0  0  0  0  0
  161.9740  205.8690  145.4780 C   0  0  2  0  0  3  0  0  0  0  0  0
  160.5180  204.8140  144.5130 C   0  0  0  0  0  2  0  0  0  0  0  0
  160.4790  206.0550  145.3730 C   0  0  0  0  0  2  0  0  0  0  0  0
  161.9600  204.6660  144.6540 N   0  0  0  0  0  2  0  0  0  0  0  0
  160.8130  206.2020  151.0750 C   0  0  1  0  0  3  0  0  0  0  0  0
  161.1020  201.9900  150.3140 C   0  0  0  0  0  0  0  0  0  0  0  0
  161.0660  203.8170  151.8970 C   0  0  0  0  0  3  0  0  0  0  0  0
  160.9080  204.7170  150.8330 C   0  0  0  0  0  0  0  0  0  0  0  0
  160.9380  202.9200  149.2710 C   0  0  0  0  0  0  0  0  0  0  0  0
  160.8460  204.2470  149.5580 N   0  0  0  0  0  0  0  0  0  0  0  0
  161.2110  200.5250  150.0580 C   0  0  0  0  0  1  0  0  0  0  0  0
  161.1630  202.4530  151.6290 C   0  0  0  0  0  3  0  0  0  0  0  0
  160.8680  202.5000  147.8950 C   0  0  0  0  0  0  0  0  0  0  0  0
  160.8120  202.1620  146.7890 N   0  0  0  0  0  0  0  0  0  0  0  0
  161.2470  206.4720  152.4580 C   0  0  0  0  0  0  0  0  0  0  0  0
  161.5810  206.6930  153.5440 N   0  0  0  0  0  0  0  0  0  0  0  0
  1 19  1  0  0  0  0
  2  1  1  6  0  0  0
  2  3  1  0  0  0  0
  3  5  1  1  0  0  0
  4  2  1  0  0  0  0
  4  3  1  0  0  0  0
  5 11  1  0  0  0  0
  6 10  1  0  0  0  0
  7  6  2  0  0  0  0
  8 11  2  0  0  0  0
  8  7  1  0  0  0  0
  9 10  2  0  0  0  0
 11  9  1  0  0  0  0
 12  1  1  0  0  0  0
 13 12  1  0  0  0  0
 14 13  1  0  0  0  0
 15 14  1  1  0  0  0
 16 18  1  0  0  0  0
 16 17  1  0  0  0  0
 17 15  1  0  0  0  0
 18 15  1  0  0  0  0
 19 29  1  1  0  0  0
 20 26  1  0  0  0  0
 22 19  1  0  0  0  0
 22 21  1  0  0  0  0
 23 24  1  0  0  0  0
 23 20  2  0  0  0  0
 24 22  2  0  0  0  0
 25 20  1  0  0  0  0
 26 21  2  0  0  0  0
 27 23  1  0  0  0  0
 28 27  3  0  0  0  0
 29 30  3  0  0  0  0
M  END
>  <MODEL>
7

>  <REMARK>
 VINA RESULT:      -5.8      1.635      4.100
  Name = 
  11 active torsions:
  status: ('A' for Active; 'I' for Inactive)
    1  A    between atoms: C_1  and  C_11
    2  A    between atoms: C_1  and  N_20
    3  A    between atoms: C_3  and  C_30
    4  A    between atoms: C_8  and  C_30
    5  A    between atoms: C_10  and  C_14
    6  A    between atoms: C_11  and  C_24
    7  A    between atoms: C_12  and  N_20
    8  A    between atoms: C_17  and  C_24
    9  A    between atoms: C_19  and  N_22
   10  A    between atoms: N_20  and  C_30
   11  A    between atoms: N_22  and  C_26
                            x       y       z     vdW  Elec       q    Type
                         _______ _______ _______ _____ _____    ______ ____

>  <TORSDO>
F 11

$$$$
=
 OpenBabel11042420223D

 30 33  0  0  1  0  0  0  0  0999 V2000
  161.6270  208.1840  150.1550 N   0  0  0  0  0  0  0  0  0  0  0  0
  162.3480  207.4350  149.1240 C   0  0  1  0  0  3  0  0  0  0  0  0
  161.4360  206.5810  148.3220 C   0  0  1  0  0  3  0  0  0  0  0  0
  161.8680  207.8340  147.8610 O   0  0  0  0  0  0  0  0  0  0  0  0
  162.1860  205.5530  147.6140 N   0  0  0  0  0  2  0  0  0  0  0  0
  160.7150  201.7030  146.6460 C   0  0  0  0  0  3  0  0  0  0  0  0
  160.8310  202.0810  147.9880 C   0  0  0  0  0  3  0  0  0  0  0  0
  161.3140  203.3510  148.3150 C   0  0  0  0  0  3  0  0  0  0  0  0
  161.5650  203.8660  145.9650 C   0  0  0  0  0  3  0  0  0  0  0  0
  161.0820  202.5950  145.6360 C   0  0  0  0  0  3  0  0  0  0  0  0
  161.6830  204.2500  147.3050 C   0  0  0  0  0  0  0  0  0  0  0  0
  162.2320  209.5180  150.1270 C   0  0  0  0  0  2  0  0  0  0  0  0
  161.7560  210.2930  148.9090 C   0  0  0  0  0  2  0  0  0  0  0  0
  162.6760  211.4680  148.6350 C   0  0  0  0  0  2  0  0  0  0  0  0
  161.9450  212.5260  147.8240 C   0  0  2  0  0  3  0  0  0  0  0  0
  161.5160  214.3430  148.6470 C   0  0  0  0  0  2  0  0  0  0  0  0
  162.7060  213.8290  147.8730 C   0  0  0  0  0  2  0  0  0  0  0  0
  160.8240  213.0630  148.5870 N   0  0  0  0  0  2  0  0  0  0  0  0
  161.8790  207.5550  151.4670 C   0  0  1  0  0  3  0  0  0  0  0  0
  160.0000  209.5720  154.7540 C   0  0  0  0  0  0  0  0  0  0  0  0
  160.7210  209.5870  152.4470 C   0  0  0  0  0  3  0  0  0  0  0  0
  161.2070  208.2810  152.6060 C   0  0  0  0  0  0  0  0  0  0  0  0
  160.4940  208.2600  154.8770 C   0  0  0  0  0  0  0  0  0  0  0  0
  161.0790  207.6570  153.8070 N   0  0  0  0  0  0  0  0  0  0  0  0
  159.3520  210.2830  155.8940 C   0  0  0  0  0  1  0  0  0  0  0  0
  160.1170  210.2280  153.5280 C   0  0  0  0  0  3  0  0  0  0  0  0
  160.3990  207.5360  156.1190 C   0  0  0  0  0  0  0  0  0  0  0  0
  160.3230  206.9530  157.1160 N   0  0  0  0  0  0  0  0  0  0  0  0
  161.4160  206.1560  151.4770 C   0  0  0  0  0  0  0  0  0  0  0  0
  161.0630  205.0530  151.4900 N   0  0  0  0  0  0  0  0  0  0  0  0
  1 19  1  0  0  0  0
  2  1  1  1  0  0  0
  3  5  1  6  0  0  0
  3  2  1  0  0  0  0
  4  3  1  0  0  0  0
  4  2  1  0  0  0  0
  6  7  1  0  0  0  0
  7  8  2  0  0  0  0
  9 11  2  0  0  0  0
 10  9  1  0  0  0  0
 10  6  2  0  0  0  0
 11  5  1  0  0  0  0
 11  8  1  0  0  0  0
 12  1  1  0  0  0  0
 13 12  1  0  0  0  0
 14 13  1  0  0  0  0
 15 17  1  0  0  0  0
 15 18  1  0  0  0  0
 15 14  1  1  0  0  0
 17 16  1  0  0  0  0
 18 16  1  0  0  0  0
 19 29  1  6  0  0  0
 19 22  1  0  0  0  0
 20 23  1  0  0  0  0
 20 25  1  0  0  0  0
 21 22  2  0  0  0  0
 21 26  1  0  0  0  0
 22 24  1  0  0  0  0
 23 27  1  0  0  0  0
 24 23  2  0  0  0  0
 26 20  2  0  0  0  0
 27 28  3  0  0  0  0
 29 30  3  0  0  0  0
M  END
>  <MODEL>
8

>  <REMARK>
 VINA RESULT:      -5.8      2.845      8.860
  Name = 
  11 active torsions:
  status: ('A' for Active; 'I' for Inactive)
    1  A    between atoms: C_1  and  C_11
    2  A    between atoms: C_1  and  N_20
    3  A    between atoms: C_3  and  C_30
    4  A    between atoms: C_8  and  C_30
    5  A    between atoms: C_10  and  C_14
    6  A    between atoms: C_11  and  C_24
    7  A    between atoms: C_12  and  N_20
    8  A    between atoms: C_17  and  C_24
    9  A    between atoms: C_19  and  N_22
   10  A    between atoms: N_20  and  C_30
   11  A    between atoms: N_22  and  C_26
                            x       y       z     vdW  Elec       q    Type
                         _______ _______ _______ _____ _____    ______ ____

>  <TORSDO>
F 11

$$$$
=
 OpenBabel11042420223D

 30 33  0  0  1  0  0  0  0  0999 V2000
  161.6660  205.5020  150.1370 N   0  0  0  0  0  0  0  0  0  0  0  0
  161.2090  206.8020  150.6280 C   0  0  1  0  0  3  0  0  0  0  0  0
  161.9420  207.2200  151.8510 C   0  0  1  0  0  3  0  0  0  0  0  0
  162.2900  207.7050  150.5800 O   0  0  0  0  0  0  0  0  0  0  0  0
  161.2140  208.2670  152.5530 N   0  0  0  0  0  2  0  0  0  0  0  0
  160.0820  208.1470  156.6300 C   0  0  0  0  0  3  0  0  0  0  0  0
  160.3090  206.9520  155.9410 C   0  0  0  0  0  3  0  0  0  0  0  0
  160.6850  206.9830  154.5950 C   0  0  0  0  0  3  0  0  0  0  0  0
  160.6070  209.4010  154.6260 C   0  0  0  0  0  3  0  0  0  0  0  0
  160.2310  209.3710  155.9730 C   0  0  0  0  0  3  0  0  0  0  0  0
  160.8360  208.2080  153.9310 C   0  0  0  0  0  0  0  0  0  0  0  0
  161.7570  205.6710  148.6850 C   0  0  0  0  0  2  0  0  0  0  0  0
  160.8300  206.7830  148.2190 C   0  0  0  0  0  2  0  0  0  0  0  0
  160.9170  206.9490  146.7130 C   0  0  0  0  0  2  0  0  0  0  0  0
  161.0250  205.5890  146.0430 C   0  0  2  0  0  3  0  0  0  0  0  0
  161.4240  205.4540  144.0460 C   0  0  0  0  0  2  0  0  0  0  0  0
  162.3150  205.5000  145.2640 C   0  0  0  0  0  2  0  0  0  0  0  0
  160.2050  205.5550  144.8370 N   0  0  0  0  0  2  0  0  0  0  0  0
  160.6420  204.4850  150.4520 C   0  0  1  0  0  3  0  0  0  0  0  0
  161.2100  200.8600  148.2290 C   0  0  0  0  0  0  0  0  0  0  0  0
  161.2110  202.0160  150.3520 C   0  0  0  0  0  3  0  0  0  0  0  0
  160.8390  203.1960  149.6930 C   0  0  0  0  0  0  0  0  0  0  0  0
  160.8310  202.0600  147.6000 C   0  0  0  0  0  0  0  0  0  0  0  0
  160.6580  203.1860  148.3450 N   0  0  0  0  0  0  0  0  0  0  0  0
  161.4170  199.5970  147.4630 C   0  0  0  0  0  1  0  0  0  0  0  0
  161.3960  200.8490  149.6120 C   0  0  0  0  0  3  0  0  0  0  0  0
  160.6250  202.1300  146.1760 C   0  0  0  0  0  0  0  0  0  0  0  0
  160.4590  202.1850  145.0320 N   0  0  0  0  0  0  0  0  0  0  0  0
  160.6360  204.1740  151.8930 C   0  0  0  0  0  0  0  0  0  0  0  0
  160.6410  203.9360  153.0260 N   0  0  0  0  0  0  0  0  0  0  0  0
  1 19  1  0  0  0  0
  2  1  1  6  0  0  0
  2  3  1  0  0  0  0
  3  5  1  1  0  0  0
  4  2  1  0  0  0  0
  4  3  1  0  0  0  0
  5 11  1  0  0  0  0
  7  6  2  0  0  0  0
  8  7  1  0  0  0  0
  9 10  2  0  0  0  0
 10  6  1  0  0  0  0
 11  8  2  0  0  0  0
 11  9  1  0  0  0  0
 12  1  1  0  0  0  0
 13 12  1  0  0  0  0
 14 13  1  0  0  0  0
 15 14  1  6  0  0  0
 16 18  1  0  0  0  0
 16 17  1  0  0  0  0
 17 15  1  0  0  0  0
 18 15  1  0  0  0  0
 19 29  1  1  0  0  0
 20 26  1  0  0  0  0
 22 21  1  0  0  0  0
 22 19  1  0  0  0  0
 23 20  2  0  0  0  0
 23 24  1  0  0  0  0
 24 22  2  0  0  0  0
 25 20  1  0  0  0  0
 26 21  2  0  0  0  0
 27 23  1  0  0  0  0
 28 27  3  0  0  0  0
 29 30  3  0  0  0  0
M  END
>  <MODEL>
9

>  <REMARK>
 VINA RESULT:      -5.8      1.727      4.176
  Name = 
  11 active torsions:
  status: ('A' for Active; 'I' for Inactive)
    1  A    between atoms: C_1  and  C_11
    2  A    between atoms: C_1  and  N_20
    3  A    between atoms: C_3  and  C_30
    4  A    between atoms: C_8  and  C_30
    5  A    between atoms: C_10  and  C_14
    6  A    between atoms: C_11  and  C_24
    7  A    between atoms: C_12  and  N_20
    8  A    between atoms: C_17  and  C_24
    9  A    between atoms: C_19  and  N_22
   10  A    between atoms: N_20  and  C_30
   11  A    between atoms: N_22  and  C_26
                            x       y       z     vdW  Elec       q    Type
                         _______ _______ _______ _____ _____    ______ ____

>  <TORSDO>
F 11

$$$$
