=
 OpenBabel11042421273D

 53 55  0  0  1  0  0  0  0  0999 V2000
  162.0950  209.9720  149.7280 C   0  0  0  0  0  2  0  0  0  0  0  0
  161.7640  203.5460  150.7340 N   0  0  0  0  0  2  0  0  0  0  0  0
  160.5410  211.8600  151.3710 C   0  0  0  0  0  3  0  0  0  0  0  0
  160.8550  204.9560  152.4760 C   0  0  0  0  0  0  0  0  0  0  0  0
  162.1460  211.7690  148.1700 O   0  0  0  0  0  0  0  0  0  0  0  0
  161.6400  206.1080  149.1010 C   0  0  0  0  0  3  0  0  0  0  0  0
  160.7680  204.0980  153.3930 O   0  0  0  0  0  0  0  0  0  0  0  0
  160.8790  210.5150  151.9510 C   0  0  1  0  0  3  0  0  0  0  0  0
  160.9620  212.2660  150.1680 C   0  0  0  0  0  0  0  0  0  0  0  0
  161.1800  204.6430  151.0910 C   0  0  0  0  0  0  0  0  0  0  0  0
  161.7440  211.3640  149.2920 C   0  0  0  0  0  0  0  0  0  0  0  0
  161.2930  205.9110  150.3780 C   0  0  0  0  0  0  0  0  0  0  0  0
  160.6730  206.4230  152.6910 C   0  0  0  0  0  2  0  0  0  0  0  0
  161.0910  208.2540  151.0940 C   0  0  0  0  0  0  0  0  0  0  0  0
  160.9590  206.9750  151.3290 C   0  0  0  0  0  0  0  0  0  0  0  0
  161.2350  209.5300  150.8710 C   0  0  0  0  0  0  0  0  0  0  0  0
  162.1990  204.3290  145.9350 C   0  0  1  0  0  3  0  0  0  0  0  0
  160.9420  203.7520  146.5580 C   0  0  2  0  0  3  0  0  0  0  0  0
  161.9520  205.0000  148.1430 C   0  0  1  0  0  3  0  0  0  0  0  0
  160.8060  204.2260  147.8800 O   0  0  0  0  0  0  0  0  0  0  0  0
  161.8590  206.6440  146.3970 O   0  0  0  0  0  1  0  0  0  0  0  0
  161.9590  204.7280  144.6180 O   0  0  0  0  0  1  0  0  0  0  0  0
  162.5280  205.4910  146.8290 C   0  0  2  0  0  3  0  0  0  0  0  0
  160.4180  201.5710  145.4310 C   0  0  0  0  0  3  0  0  0  0  0  0
  160.4530  200.3120  145.3970 O   0  0  0  0  0  0  0  0  0  0  0  0
  160.9700  202.2940  146.5400 N   0  0  0  0  0  0  0  0  0  0  0  0
  161.6530  201.5940  147.6190 C   0  0  0  0  0  2  0  0  0  0  0  0
  160.6510  200.8660  148.5020 C   0  0  0  0  0  2  0  0  0  0  0  0
  159.5920  201.7160  148.8240 O   0  0  0  0  0  1  0  0  0  0  0  0
  161.7810  210.5030  154.2380 C   0  0  0  0  0  3  0  0  0  0  0  0
  162.0010  210.6640  152.9330 C   0  0  0  0  0  3  0  0  0  0  0  0
  162.8990  210.6520  155.2140 C   0  0  0  0  0  2  0  0  0  0  0  0
  162.3620  211.0920  156.5680 C   0  0  0  0  0  2  0  0  0  0  0  0
  158.5470  210.4710  156.9680 C   0  0  0  0  0  1  0  0  0  0  0  0
  161.0470  210.4360  156.8620 C   0  0  0  0  0  0  0  0  0  0  0  0
  159.8150  211.1690  156.7750 N   0  0  0  0  0  0  0  0  0  0  0  0
  161.0370  209.2110  157.1640 O   0  0  0  0  0  0  0  0  0  0  0  0
  159.8680  212.9120  155.0220 C   0  0  0  0  0  1  0  0  0  0  0  0
  159.8310  212.6100  156.5140 C   0  0  1  0  0  3  0  0  0  0  0  0
  158.7020  213.3400  157.2470 C   0  0  0  0  0  2  0  0  0  0  0  0
  155.8350  212.8450  157.2530 O   0  0  0  0  0  1  0  0  0  0  0  0
  155.6180  214.4010  155.5810 O   0  0  0  0  0  0  0  0  0  0  0  0
  157.7860  213.9940  156.3210 N   0  0  0  0  0  2  0  0  0  0  0  0
  156.3760  213.7690  156.3630 C   0  0  0  0  0  0  0  0  0  0  0  0
  160.6130  213.6500  149.7170 C   0  0  0  0  0  2  0  0  0  0  0  0
  159.2080  213.6900  149.1180 C   0  0  1  0  0  3  0  0  0  0  0  0
  156.9210  213.5930  150.2020 C   0  0  0  0  0  1  0  0  0  0  0  0
  158.2230  214.3670  150.0710 C   0  0  0  0  0  2  0  0  0  0  0  0
  159.2090  214.3610  147.7480 C   0  0  0  0  0  2  0  0  0  0  0  0
  159.3940  213.3330  146.6370 C   0  0  0  0  0  2  0  0  0  0  0  0
  160.6520  213.5990  145.8230 C   0  0  0  0  0  2  0  0  0  0  0  0
  159.2700  213.4140  143.8970 O   0  0  0  0  0  1  0  0  0  0  0  0
  160.5080  213.0400  144.4190 C   0  0  0  0  0  2  0  0  0  0  0  0
  1 16  1  0  0  0  0
  2 10  2  0  0  0  0
  3  8  1  0  0  0  0
  4 13  1  0  0  0  0
  4  7  2  0  0  0  0
  5 11  2  0  0  0  0
  6 12  2  0  0  0  0
  8 31  1  1  0  0  0
  9  3  2  0  0  0  0
 10  4  1  0  0  0  0
 11  1  1  0  0  0  0
 11  9  1  0  0  0  0
 12 10  1  0  0  0  0
 12 15  1  0  0  0  0
 14 15  2  0  0  0  0
 15 13  1  0  0  0  0
 16 14  2  0  0  0  0
 16  8  1  0  0  0  0
 17 22  1  6  0  0  0
 17 18  1  0  0  0  0
 17 23  1  0  0  0  0
 18 26  1  1  0  0  0
 18 20  1  0  0  0  0
 19  6  1  1  0  0  0
 20 19  1  0  0  0  0
 23 21  1  6  0  0  0
 23 19  1  0  0  0  0
 24 26  1  0  0  0  0
 25 24  2  0  0  0  0
 26 27  1  0  0  0  0
 27 28  1  0  0  0  0
 28 29  1  0  0  0  0
 30 32  1  0  0  0  0
 31 30  2  0  0  0  0
 32 33  1  0  0  0  0
 33 35  1  0  0  0  0
 35 37  2  0  0  0  0
 36 35  1  0  0  0  0
 36 34  1  0  0  0  0
 39 38  1  6  0  0  0
 39 36  1  0  0  0  0
 39 40  1  0  0  0  0
 42 44  2  0  0  0  0
 43 44  1  0  0  0  0
 43 40  1  0  0  0  0
 44 41  1  0  0  0  0
 45  9  1  0  0  0  0
 46 49  1  6  0  0  0
 46 45  1  0  0  0  0
 46 48  1  0  0  0  0
 48 47  1  0  0  0  0
 50 49  1  0  0  0  0
 51 50  1  0  0  0  0
 52 53  1  0  0  0  0
 53 51  1  0  0  0  0
M  END
>  <MODEL>
1

>  <REMARK>
 VINA RESULT:      -4.7      0.000      0.000
  Name = 
  18 active torsions:
  status: ('A' for Active; 'I' for Inactive)
    1  A    between atoms: C_1  and  C_47
    2  A    between atoms: C_1  and  N_48
    3  A    between atoms: C_6  and  C_16
    4  A    between atoms: C_6  and  C_26
    5  A    between atoms: C_9  and  C_41
    6  A    between atoms: C_9  and  C_44
    7  A    between atoms: C_9  and  C_50
    8  A    between atoms: C_12  and  N_48
    9  A    between atoms: C_14  and  C_19
   10  A    between atoms: C_16  and  C_18
   11  A    between atoms: C_17  and  C_22
   12  A    between atoms: C_20  and  N_27
   13  A    between atoms: C_20  and  C_31
   14  A    between atoms: C_21  and  C_50
   15  A    between atoms: C_30  and  C_38
   16  A    between atoms: C_31  and  N_42
   17  A    between atoms: C_38  and  C_51
   18  A    between atoms: C_44  and  C_51
                            x       y       z     vdW  Elec       q    Type
                         _______ _______ _______ _____ _____    ______ ____

>  <TORSDO>
F 18

$$$$
=
 OpenBabel11042421273D

 53 55  0  0  1  0  0  0  0  0999 V2000
  162.3280  209.7290  149.5090 C   0  0  0  0  0  2  0  0  0  0  0  0
  161.7100  203.3220  150.5040 N   0  0  0  0  0  2  0  0  0  0  0  0
  160.8750  211.6820  151.1660 C   0  0  0  0  0  3  0  0  0  0  0  0
  160.8790  204.7690  152.2550 C   0  0  0  0  0  0  0  0  0  0  0  0
  162.4510  211.5250  147.9530 O   0  0  0  0  0  0  0  0  0  0  0  0
  161.6920  205.8900  148.8780 C   0  0  0  0  0  3  0  0  0  0  0  0
  160.7590  203.9130  153.1720 O   0  0  0  0  0  0  0  0  0  0  0  0
  161.1550  210.3220  151.7410 C   0  0  1  0  0  3  0  0  0  0  0  0
  161.3060  212.0710  149.9610 C   0  0  0  0  0  0  0  0  0  0  0  0
  161.1790  204.4430  150.8680 C   0  0  0  0  0  0  0  0  0  0  0  0
  162.0390  211.1360  149.0780 C   0  0  0  0  0  0  0  0  0  0  0  0
  161.3450  205.7070  150.1570 C   0  0  0  0  0  0  0  0  0  0  0  0
  160.7660  206.2420  152.4750 C   0  0  0  0  0  2  0  0  0  0  0  0
  161.2560  208.0550  150.8780 C   0  0  0  0  0  0  0  0  0  0  0  0
  161.0670  206.7830  151.1120 C   0  0  0  0  0  0  0  0  0  0  0  0
  161.4570  209.3230  150.6570 C   0  0  0  0  0  0  0  0  0  0  0  0
  162.0120  204.0630  145.7060 C   0  0  1  0  0  3  0  0  0  0  0  0
  160.8310  203.4680  146.4490 C   0  0  2  0  0  3  0  0  0  0  0  0
  161.9460  204.7720  147.9150 C   0  0  1  0  0  3  0  0  0  0  0  0
  160.8020  203.9650  147.7700 O   0  0  0  0  0  0  0  0  0  0  0  0
  161.6530  206.3770  146.1550 O   0  0  0  0  0  1  0  0  0  0  0  0
  161.6450  204.4290  144.4090 O   0  0  0  0  0  1  0  0  0  0  0  0
  162.3890  205.2510  146.5460 C   0  0  2  0  0  3  0  0  0  0  0  0
  160.3630  201.2560  145.3580 C   0  0  0  0  0  3  0  0  0  0  0  0
  160.4300  199.9980  145.3450 O   0  0  0  0  0  0  0  0  0  0  0  0
  160.8960  202.0100  146.4560 N   0  0  0  0  0  0  0  0  0  0  0  0
  161.5970  201.3460  147.5450 C   0  0  0  0  0  2  0  0  0  0  0  0
  160.6140  200.6020  148.4370 C   0  0  0  0  0  2  0  0  0  0  0  0
  159.6130  201.4710  148.8750 O   0  0  0  0  0  1  0  0  0  0  0  0
  162.0510  210.6420  154.0080 C   0  0  0  0  0  3  0  0  0  0  0  0
  162.2890  210.4170  152.7150 C   0  0  0  0  0  3  0  0  0  0  0  0
  163.1820  210.7360  154.9760 C   0  0  0  0  0  2  0  0  0  0  0  0
  162.6610  210.6620  156.4040 C   0  0  0  0  0  2  0  0  0  0  0  0
  159.3820  208.5790  156.4660 C   0  0  0  0  0  1  0  0  0  0  0  0
  161.6950  209.5280  156.5640 C   0  0  0  0  0  0  0  0  0  0  0  0
  160.2820  209.7270  156.4040 N   0  0  0  0  0  0  0  0  0  0  0  0
  162.1500  208.3790  156.8180 O   0  0  0  0  0  0  0  0  0  0  0  0
  159.2450  211.2700  154.7740 C   0  0  0  0  0  1  0  0  0  0  0  0
  159.7450  211.0740  156.1990 C   0  0  1  0  0  3  0  0  0  0  0  0
  158.7030  211.4460  157.2580 C   0  0  0  0  0  2  0  0  0  0  0  0
  156.0760  211.2220  156.0290 O   0  0  0  0  0  1  0  0  0  0  0  0
  155.9440  213.5130  156.0220 O   0  0  0  0  0  0  0  0  0  0  0  0
  157.9160  212.6070  156.8620 N   0  0  0  0  0  2  0  0  0  0  0  0
  156.6100  212.4800  156.2950 C   0  0  0  0  0  0  0  0  0  0  0  0
  161.0170  213.4700  149.5150 C   0  0  0  0  0  2  0  0  0  0  0  0
  159.7870  213.5120  148.6110 C   0  0  1  0  0  3  0  0  0  0  0  0
  159.2860  213.5070  146.1280 C   0  0  0  0  0  1  0  0  0  0  0  0
  160.0770  212.8650  147.2570 C   0  0  0  0  0  2  0  0  0  0  0  0
  158.5810  212.8680  149.2880 C   0  0  0  0  0  2  0  0  0  0  0  0
  157.7750  213.9030  150.0650 C   0  0  0  0  0  2  0  0  0  0  0  0
  156.3130  213.9170  149.6410 C   0  0  0  0  0  2  0  0  0  0  0  0
  154.0970  214.3490  150.3890 O   0  0  0  0  0  1  0  0  0  0  0  0
  155.4360  214.4410  150.7650 C   0  0  0  0  0  2  0  0  0  0  0  0
  1 16  1  0  0  0  0
  2 10  2  0  0  0  0
  3  8  1  0  0  0  0
  4 13  1  0  0  0  0
  4  7  2  0  0  0  0
  5 11  2  0  0  0  0
  6 12  2  0  0  0  0
  8 31  1  1  0  0  0
  9  3  2  0  0  0  0
 10  4  1  0  0  0  0
 11  1  1  0  0  0  0
 11  9  1  0  0  0  0
 12 10  1  0  0  0  0
 12 15  1  0  0  0  0
 14 15  2  0  0  0  0
 15 13  1  0  0  0  0
 16 14  2  0  0  0  0
 16  8  1  0  0  0  0
 17 22  1  6  0  0  0
 17 18  1  0  0  0  0
 17 23  1  0  0  0  0
 18 26  1  1  0  0  0
 18 20  1  0  0  0  0
 19  6  1  1  0  0  0
 20 19  1  0  0  0  0
 23 21  1  6  0  0  0
 23 19  1  0  0  0  0
 24 26  1  0  0  0  0
 25 24  2  0  0  0  0
 26 27  1  0  0  0  0
 27 28  1  0  0  0  0
 28 29  1  0  0  0  0
 30 32  1  0  0  0  0
 31 30  2  0  0  0  0
 32 33  1  0  0  0  0
 33 35  1  0  0  0  0
 35 37  2  0  0  0  0
 36 34  1  0  0  0  0
 36 35  1  0  0  0  0
 39 38  1  6  0  0  0
 39 36  1  0  0  0  0
 39 40  1  0  0  0  0
 41 44  1  0  0  0  0
 42 44  2  0  0  0  0
 43 40  1  0  0  0  0
 44 43  1  0  0  0  0
 45  9  1  0  0  0  0
 46 48  1  6  0  0  0
 46 49  1  0  0  0  0
 46 45  1  0  0  0  0
 47 48  1  0  0  0  0
 49 50  1  0  0  0  0
 51 50  1  0  0  0  0
 51 53  1  0  0  0  0
 52 53  1  0  0  0  0
M  END
>  <MODEL>
2

>  <REMARK>
 VINA RESULT:      -3.8      1.136      2.218
  Name = 
  18 active torsions:
  status: ('A' for Active; 'I' for Inactive)
    1  A    between atoms: C_1  and  C_47
    2  A    between atoms: C_1  and  N_48
    3  A    between atoms: C_6  and  C_16
    4  A    between atoms: C_6  and  C_26
    5  A    between atoms: C_9  and  C_41
    6  A    between atoms: C_9  and  C_44
    7  A    between atoms: C_9  and  C_50
    8  A    between atoms: C_12  and  N_48
    9  A    between atoms: C_14  and  C_19
   10  A    between atoms: C_16  and  C_18
   11  A    between atoms: C_17  and  C_22
   12  A    between atoms: C_20  and  N_27
   13  A    between atoms: C_20  and  C_31
   14  A    between atoms: C_21  and  C_50
   15  A    between atoms: C_30  and  C_38
   16  A    between atoms: C_31  and  N_42
   17  A    between atoms: C_38  and  C_51
   18  A    between atoms: C_44  and  C_51
                            x       y       z     vdW  Elec       q    Type
                         _______ _______ _______ _____ _____    ______ ____

>  <TORSDO>
F 18

$$$$
=
 OpenBabel11042421273D

 53 55  0  0  1  0  0  0  0  0999 V2000
  160.6800  207.9580  147.1020 C   0  0  0  0  0  2  0  0  0  0  0  0
  160.4980  214.4510  147.5870 N   0  0  0  0  0  2  0  0  0  0  0  0
  162.6310  206.3640  148.6290 C   0  0  0  0  0  3  0  0  0  0  0  0
  161.7790  213.2810  149.2720 C   0  0  0  0  0  0  0  0  0  0  0  0
  160.5930  206.0370  145.7010 O   0  0  0  0  0  0  0  0  0  0  0  0
  160.6500  211.7800  146.1410 C   0  0  0  0  0  3  0  0  0  0  0  0
  161.9070  214.2180  150.1030 O   0  0  0  0  0  0  0  0  0  0  0  0
  162.2430  207.7180  149.1550 C   0  0  1  0  0  3  0  0  0  0  0  0
  162.0880  205.8210  147.5330 C   0  0  0  0  0  0  0  0  0  0  0  0
  161.2340  213.4450  147.9320 C   0  0  0  0  0  0  0  0  0  0  0  0
  161.1050  206.5710  146.7200 C   0  0  0  0  0  0  0  0  0  0  0  0
  161.1510  212.1150  147.3350 C   0  0  0  0  0  0  0  0  0  0  0  0
  162.1370  211.8600  149.5620 C   0  0  0  0  0  2  0  0  0  0  0  0
  161.6860  209.8700  148.1790 C   0  0  0  0  0  0  0  0  0  0  0  0
  161.7200  211.1710  148.3000 C   0  0  0  0  0  0  0  0  0  0  0  0
  161.6420  208.5720  148.0710 C   0  0  0  0  0  0  0  0  0  0  0  0
  158.2240  213.8310  144.2940 C   0  0  1  0  0  3  0  0  0  0  0  0
  158.8060  212.8320  143.3120 C   0  0  2  0  0  3  0  0  0  0  0  0
  160.0960  212.7700  145.1630 C   0  0  1  0  0  3  0  0  0  0  0  0
  159.9090  212.1760  143.9000 O   0  0  0  0  0  0  0  0  0  0  0  0
  157.9600  212.4240  146.2010 O   0  0  0  0  0  1  0  0  0  0  0  0
  156.8280  213.7850  144.2750 O   0  0  0  0  0  1  0  0  0  0  0  0
  158.7890  213.3900  145.6150 C   0  0  2  0  0  3  0  0  0  0  0  0
  160.5870  213.5220  141.6820 C   0  0  0  0  0  3  0  0  0  0  0  0
  160.9420  214.0690  140.6040 O   0  0  0  0  0  0  0  0  0  0  0  0
  159.2070  213.4880  142.0720 N   0  0  0  0  0  0  0  0  0  0  0  0
  158.1720  214.0180  141.1950 C   0  0  0  0  0  2  0  0  0  0  0  0
  157.8040  212.9980  140.1280 C   0  0  0  0  0  2  0  0  0  0  0  0
  157.6250  213.6350  138.8990 O   0  0  0  0  0  1  0  0  0  0  0  0
  161.5630  208.0950  151.4870 C   0  0  0  0  0  3  0  0  0  0  0  0
  161.2910  207.5530  150.2990 C   0  0  0  0  0  3  0  0  0  0  0  0
  160.6140  207.9300  152.6250 C   0  0  0  0  0  2  0  0  0  0  0  0
  160.2470  209.2870  153.2070 C   0  0  0  0  0  2  0  0  0  0  0  0
  162.5370  210.1560  156.2230 C   0  0  0  0  0  1  0  0  0  0  0  0
  161.3690  209.8380  154.0330 C   0  0  0  0  0  0  0  0  0  0  0  0
  161.3780  209.6980  155.4620 N   0  0  0  0  0  0  0  0  0  0  0  0
  162.3280  210.4090  153.4450 O   0  0  0  0  0  0  0  0  0  0  0  0
  160.6380  207.9880  157.0880 C   0  0  0  0  0  1  0  0  0  0  0  0
  160.2250  209.1170  156.1530 C   0  0  1  0  0  3  0  0  0  0  0  0
  159.3690  210.1840  156.8420 C   0  0  0  0  0  2  0  0  0  0  0  0
  157.4090  211.1950  154.9450 O   0  0  0  0  0  1  0  0  0  0  0  0
  158.6270  213.1350  154.8040 O   0  0  0  0  0  0  0  0  0  0  0  0
  159.4960  211.4840  156.1940 N   0  0  0  0  0  2  0  0  0  0  0  0
  158.5040  211.9820  155.2940 C   0  0  0  0  0  0  0  0  0  0  0  0
  162.5090  204.4400  147.1350 C   0  0  0  0  0  2  0  0  0  0  0  0
  161.3110  203.4940  147.1020 C   0  0  1  0  0  3  0  0  0  0  0  0
  160.5630  201.5390  145.6750 C   0  0  0  0  0  1  0  0  0  0  0  0
  161.0550  202.9790  145.6860 C   0  0  0  0  0  2  0  0  0  0  0  0
  161.4870  202.3440  148.0900 C   0  0  0  0  0  2  0  0  0  0  0  0
  161.5720  202.8630  149.5210 C   0  0  0  0  0  2  0  0  0  0  0  0
  160.3100  203.6100  149.9290 C   0  0  0  0  0  2  0  0  0  0  0  0
  161.8000  204.2590  151.6650 O   0  0  0  0  0  1  0  0  0  0  0  0
  160.4490  204.1650  151.3360 C   0  0  0  0  0  2  0  0  0  0  0  0
  1 16  1  0  0  0  0
  2 10  2  0  0  0  0
  3  8  1  0  0  0  0
  4 13  1  0  0  0  0
  4  7  2  0  0  0  0
  5 11  2  0  0  0  0
  6 12  2  0  0  0  0
  8 31  1  1  0  0  0
  9  3  2  0  0  0  0
 10  4  1  0  0  0  0
 11  1  1  0  0  0  0
 11  9  1  0  0  0  0
 12 10  1  0  0  0  0
 12 15  1  0  0  0  0
 14 15  2  0  0  0  0
 15 13  1  0  0  0  0
 16 14  2  0  0  0  0
 16  8  1  0  0  0  0
 17 22  1  1  0  0  0
 17 23  1  0  0  0  0
 18 26  1  6  0  0  0
 18 20  1  0  0  0  0
 18 17  1  0  0  0  0
 19 23  1  0  0  0  0
 19  6  1  1  0  0  0
 20 19  1  0  0  0  0
 23 21  1  6  0  0  0
 24 26  1  0  0  0  0
 25 24  2  0  0  0  0
 27 26  1  0  0  0  0
 28 27  1  0  0  0  0
 29 28  1  0  0  0  0
 30 32  1  0  0  0  0
 31 30  2  0  0  0  0
 32 33  1  0  0  0  0
 33 35  1  0  0  0  0
 35 36  1  0  0  0  0
 36 39  1  0  0  0  0
 36 34  1  0  0  0  0
 37 35  2  0  0  0  0
 39 40  1  0  0  0  0
 39 38  1  1  0  0  0
 41 44  1  0  0  0  0
 42 44  2  0  0  0  0
 43 40  1  0  0  0  0
 44 43  1  0  0  0  0
 45  9  1  0  0  0  0
 46 48  1  6  0  0  0
 46 45  1  0  0  0  0
 46 49  1  0  0  0  0
 47 48  1  0  0  0  0
 49 50  1  0  0  0  0
 50 51  1  0  0  0  0
 51 53  1  0  0  0  0
 53 52  1  0  0  0  0
M  END
>  <MODEL>
3

>  <REMARK>
 VINA RESULT:      -3.3      3.036      8.681
  Name = 
  18 active torsions:
  status: ('A' for Active; 'I' for Inactive)
    1  A    between atoms: C_1  and  C_47
    2  A    between atoms: C_1  and  N_48
    3  A    between atoms: C_6  and  C_16
    4  A    between atoms: C_6  and  C_26
    5  A    between atoms: C_9  and  C_41
    6  A    between atoms: C_9  and  C_44
    7  A    between atoms: C_9  and  C_50
    8  A    between atoms: C_12  and  N_48
    9  A    between atoms: C_14  and  C_19
   10  A    between atoms: C_16  and  C_18
   11  A    between atoms: C_17  and  C_22
   12  A    between atoms: C_20  and  N_27
   13  A    between atoms: C_20  and  C_31
   14  A    between atoms: C_21  and  C_50
   15  A    between atoms: C_30  and  C_38
   16  A    between atoms: C_31  and  N_42
   17  A    between atoms: C_38  and  C_51
   18  A    between atoms: C_44  and  C_51
                            x       y       z     vdW  Elec       q    Type
                         _______ _______ _______ _____ _____    ______ ____

>  <TORSDO>
F 18

$$$$
=
 OpenBabel11042421273D

 53 55  0  0  1  0  0  0  0  0999 V2000
  160.6880  207.9510  147.3880 C   0  0  0  0  0  2  0  0  0  0  0  0
  160.8870  214.4530  147.0680 N   0  0  0  0  0  2  0  0  0  0  0  0
  162.5220  206.4480  149.1360 C   0  0  0  0  0  3  0  0  0  0  0  0
  162.0760  213.4290  148.9080 C   0  0  0  0  0  0  0  0  0  0  0  0
  160.5040  205.8800  146.2320 O   0  0  0  0  0  0  0  0  0  0  0  0
  160.8970  211.6200  145.9650 C   0  0  0  0  0  3  0  0  0  0  0  0
  162.2490  214.4530  149.6200 O   0  0  0  0  0  0  0  0  0  0  0  0
  162.2100  207.8770  149.4850 C   0  0  1  0  0  3  0  0  0  0  0  0
  161.9620  205.8060  148.1050 C   0  0  0  0  0  0  0  0  0  0  0  0
  161.5580  213.4570  147.5480 C   0  0  0  0  0  0  0  0  0  0  0  0
  161.0350  206.5050  147.1870 C   0  0  0  0  0  0  0  0  0  0  0  0
  161.4030  212.0710  147.1180 C   0  0  0  0  0  0  0  0  0  0  0  0
  162.3450  212.0360  149.3780 C   0  0  0  0  0  2  0  0  0  0  0  0
  161.7940  209.9200  148.2410 C   0  0  0  0  0  0  0  0  0  0  0  0
  161.9030  211.2220  148.2020 C   0  0  0  0  0  0  0  0  0  0  0  0
  161.6740  208.6230  148.2930 C   0  0  0  0  0  0  0  0  0  0  0  0
  158.6240  213.5840  143.8490 C   0  0  1  0  0  3  0  0  0  0  0  0
  159.1290  212.4250  143.0090 C   0  0  2  0  0  3  0  0  0  0  0  0
  160.4150  212.5110  144.8610 C   0  0  1  0  0  3  0  0  0  0  0  0
  160.1820  211.7730  143.6860 O   0  0  0  0  0  0  0  0  0  0  0  0
  158.2630  212.4610  145.9210 O   0  0  0  0  0  1  0  0  0  0  0  0
  157.2280  213.6380  143.8260 O   0  0  0  0  0  1  0  0  0  0  0  0
  159.1580  213.2790  145.2200 C   0  0  2  0  0  3  0  0  0  0  0  0
  158.6450  213.4900  140.7880 C   0  0  0  0  0  3  0  0  0  0  0  0
  159.0210  213.9050  139.6600 O   0  0  0  0  0  0  0  0  0  0  0  0
  159.5730  212.8820  141.6970 N   0  0  0  0  0  0  0  0  0  0  0  0
  160.9900  212.8000  141.3700 C   0  0  0  0  0  2  0  0  0  0  0  0
  161.3560  211.3860  140.9420 C   0  0  0  0  0  2  0  0  0  0  0  0
  162.4040  211.4220  140.0210 O   0  0  0  0  0  1  0  0  0  0  0  0
  161.5770  208.4630  151.7860 C   0  0  0  0  0  3  0  0  0  0  0  0
  161.2350  207.9100  150.6220 C   0  0  0  0  0  3  0  0  0  0  0  0
  160.6050  208.4950  152.9180 C   0  0  0  0  0  2  0  0  0  0  0  0
  160.4870  209.9070  153.4720 C   0  0  0  0  0  2  0  0  0  0  0  0
  158.3290  210.9140  156.5420 C   0  0  0  0  0  1  0  0  0  0  0  0
  159.8380  209.9010  154.8230 C   0  0  0  0  0  0  0  0  0  0  0  0
  159.0280  211.0020  155.2630 N   0  0  0  0  0  0  0  0  0  0  0  0
  159.9960  208.8930  155.5630 O   0  0  0  0  0  0  0  0  0  0  0  0
  158.1450  211.9500  153.1570 C   0  0  0  0  0  1  0  0  0  0  0  0
  158.9180  212.2100  154.4440 C   0  0  1  0  0  3  0  0  0  0  0  0
  158.3720  213.3990  155.2420 C   0  0  0  0  0  2  0  0  0  0  0  0
  155.7150  213.1420  156.3980 O   0  0  0  0  0  1  0  0  0  0  0  0
  154.9030  214.4280  154.6800 O   0  0  0  0  0  0  0  0  0  0  0  0
  157.1830  213.9700  154.6210 N   0  0  0  0  0  2  0  0  0  0  0  0
  155.8910  213.8680  155.2230 C   0  0  0  0  0  0  0  0  0  0  0  0
  162.3040  204.3650  147.8880 C   0  0  0  0  0  2  0  0  0  0  0  0
  161.0520  203.4930  147.9390 C   0  0  1  0  0  3  0  0  0  0  0  0
  160.5110  201.7330  146.1990 C   0  0  0  0  0  1  0  0  0  0  0  0
  161.3410  202.0830  147.4250 C   0  0  0  0  0  2  0  0  0  0  0  0
  160.4550  203.4620  149.3430 C   0  0  0  0  0  2  0  0  0  0  0  0
  161.2540  202.5350  150.2540 C   0  0  0  0  0  2  0  0  0  0  0  0
  161.2410  203.0130  151.6990 C   0  0  0  0  0  2  0  0  0  0  0  0
  161.1670  204.9480  153.0790 O   0  0  0  0  0  1  0  0  0  0  0  0
  161.3330  204.5280  151.7610 C   0  0  0  0  0  2  0  0  0  0  0  0
  1 16  1  0  0  0  0
  2 10  2  0  0  0  0
  3  8  1  0  0  0  0
  4 13  1  0  0  0  0
  4  7  2  0  0  0  0
  5 11  2  0  0  0  0
  6 12  2  0  0  0  0
  8 31  1  1  0  0  0
  9  3  2  0  0  0  0
 10  4  1  0  0  0  0
 11  1  1  0  0  0  0
 11  9  1  0  0  0  0
 12 10  1  0  0  0  0
 12 15  1  0  0  0  0
 14 16  2  0  0  0  0
 15 14  2  0  0  0  0
 15 13  1  0  0  0  0
 16  8  1  0  0  0  0
 17 22  1  1  0  0  0
 17 23  1  0  0  0  0
 18 26  1  6  0  0  0
 18 20  1  0  0  0  0
 18 17  1  0  0  0  0
 19 23  1  0  0  0  0
 19  6  1  1  0  0  0
 20 19  1  0  0  0  0
 23 21  1  1  0  0  0
 24 26  1  0  0  0  0
 25 24  2  0  0  0  0
 27 26  1  0  0  0  0
 28 27  1  0  0  0  0
 29 28  1  0  0  0  0
 30 32  1  0  0  0  0
 31 30  2  0  0  0  0
 32 33  1  0  0  0  0
 33 35  1  0  0  0  0
 35 36  1  0  0  0  0
 35 37  2  0  0  0  0
 36 34  1  0  0  0  0
 39 38  1  6  0  0  0
 39 40  1  0  0  0  0
 39 36  1  0  0  0  0
 42 44  2  0  0  0  0
 43 44  1  0  0  0  0
 43 40  1  0  0  0  0
 44 41  1  0  0  0  0
 45 46  1  0  0  0  0
 45  9  1  0  0  0  0
 46 48  1  1  0  0  0
 46 49  1  0  0  0  0
 47 48  1  0  0  0  0
 49 50  1  0  0  0  0
 50 51  1  0  0  0  0
 51 53  1  0  0  0  0
 53 52  1  0  0  0  0
M  END
>  <MODEL>
4

>  <REMARK>
 VINA RESULT:      -3.1      2.928      8.371
  Name = 
  18 active torsions:
  status: ('A' for Active; 'I' for Inactive)
    1  A    between atoms: C_1  and  C_47
    2  A    between atoms: C_1  and  N_48
    3  A    between atoms: C_6  and  C_16
    4  A    between atoms: C_6  and  C_26
    5  A    between atoms: C_9  and  C_41
    6  A    between atoms: C_9  and  C_44
    7  A    between atoms: C_9  and  C_50
    8  A    between atoms: C_12  and  N_48
    9  A    between atoms: C_14  and  C_19
   10  A    between atoms: C_16  and  C_18
   11  A    between atoms: C_17  and  C_22
   12  A    between atoms: C_20  and  N_27
   13  A    between atoms: C_20  and  C_31
   14  A    between atoms: C_21  and  C_50
   15  A    between atoms: C_30  and  C_38
   16  A    between atoms: C_31  and  N_42
   17  A    between atoms: C_38  and  C_51
   18  A    between atoms: C_44  and  C_51
                            x       y       z     vdW  Elec       q    Type
                         _______ _______ _______ _____ _____    ______ ____

>  <TORSDO>
F 18

$$$$
=
 OpenBabel11042421273D

 53 55  0  0  1  0  0  0  0  0999 V2000
  160.5080  207.9900  147.3620 C   0  0  0  0  0  2  0  0  0  0  0  0
  161.1910  214.4410  146.7890 N   0  0  0  0  0  2  0  0  0  0  0  0
  162.2830  206.4110  149.1040 C   0  0  0  0  0  3  0  0  0  0  0  0
  162.3630  213.3930  148.6270 C   0  0  0  0  0  0  0  0  0  0  0  0
  160.1250  205.9000  146.2910 O   0  0  0  0  0  0  0  0  0  0  0  0
  160.9450  211.5790  145.7940 C   0  0  0  0  0  3  0  0  0  0  0  0
  162.6400  214.4260  149.2930 O   0  0  0  0  0  0  0  0  0  0  0  0
  162.0930  207.8720  149.4080 C   0  0  1  0  0  3  0  0  0  0  0  0
  161.6390  205.7790  148.1170 C   0  0  0  0  0  0  0  0  0  0  0  0
  161.8000  213.4140  147.2840 C   0  0  0  0  0  0  0  0  0  0  0  0
  160.7360  206.5150  147.2040 C   0  0  0  0  0  0  0  0  0  0  0  0
  161.5250  212.0300  146.9120 C   0  0  0  0  0  0  0  0  0  0  0  0
  162.5420  212.0020  149.1400 C   0  0  0  0  0  2  0  0  0  0  0  0
  161.7900  209.8960  148.1030 C   0  0  0  0  0  0  0  0  0  0  0  0
  161.9980  211.1830  148.0110 C   0  0  0  0  0  0  0  0  0  0  0  0
  161.5740  208.6150  148.2070 C   0  0  0  0  0  0  0  0  0  0  0  0
  158.7530  213.6300  143.6760 C   0  0  1  0  0  3  0  0  0  0  0  0
  159.1480  212.4110  142.8640 C   0  0  2  0  0  3  0  0  0  0  0  0
  160.4940  212.4650  144.6740 C   0  0  1  0  0  3  0  0  0  0  0  0
  160.1720  211.7070  143.5330 O   0  0  0  0  0  0  0  0  0  0  0  0
  158.3770  212.6050  145.7960 O   0  0  0  0  0  1  0  0  0  0  0  0
  157.3640  213.7840  143.6920 O   0  0  0  0  0  1  0  0  0  0  0  0
  159.3060  213.3330  145.0410 C   0  0  2  0  0  3  0  0  0  0  0  0
  158.6270  213.2360  140.5510 C   0  0  0  0  0  3  0  0  0  0  0  0
  158.9930  213.5840  139.3960 O   0  0  0  0  0  0  0  0  0  0  0  0
  159.5820  212.7910  141.5250 N   0  0  0  0  0  0  0  0  0  0  0  0
  161.0080  212.8050  141.2290 C   0  0  0  0  0  2  0  0  0  0  0  0
  161.5980  214.1790  141.5120 C   0  0  0  0  0  2  0  0  0  0  0  0
  162.8900  214.2610  140.9910 O   0  0  0  0  0  1  0  0  0  0  0  0
  161.2190  209.1080  151.3440 C   0  0  0  0  0  3  0  0  0  0  0  0
  161.1660  208.0200  150.5750 C   0  0  0  0  0  3  0  0  0  0  0  0
  160.2950  209.2540  152.5060 C   0  0  0  0  0  2  0  0  0  0  0  0
  160.5760  210.5550  153.2430 C   0  0  0  0  0  2  0  0  0  0  0  0
  158.4300  211.7160  156.2670 C   0  0  0  0  0  1  0  0  0  0  0  0
  159.4090  210.9520  154.0940 C   0  0  0  0  0  0  0  0  0  0  0  0
  159.5700  211.2330  155.4940 N   0  0  0  0  0  0  0  0  0  0  0  0
  158.2750  211.0620  153.5520 O   0  0  0  0  0  0  0  0  0  0  0  0
  161.2150  212.1570  157.0920 C   0  0  0  0  0  1  0  0  0  0  0  0
  160.8650  211.0180  156.1440 C   0  0  1  0  0  3  0  0  0  0  0  0
  160.9550  209.6380  156.8030 C   0  0  0  0  0  2  0  0  0  0  0  0
  159.6950  207.0160  156.8360 O   0  0  0  0  0  1  0  0  0  0  0  0
  160.8950  206.4770  154.9560 O   0  0  0  0  0  0  0  0  0  0  0  0
  161.2800  208.5950  155.8380 N   0  0  0  0  0  2  0  0  0  0  0  0
  160.6230  207.3260  155.8450 C   0  0  0  0  0  0  0  0  0  0  0  0
  161.8630  204.3090  147.9440 C   0  0  0  0  0  2  0  0  0  0  0  0
  160.8110  203.5040  148.7040 C   0  0  1  0  0  3  0  0  0  0  0  0
  161.2140  201.0090  148.5250 C   0  0  0  0  0  1  0  0  0  0  0  0
  160.4670  202.2110  147.9650 C   0  0  0  0  0  2  0  0  0  0  0  0
  161.2560  203.2250  150.1370 C   0  0  0  0  0  2  0  0  0  0  0  0
  160.2270  203.7430  151.1370 C   0  0  0  0  0  2  0  0  0  0  0  0
  160.8870  204.2880  152.3960 C   0  0  0  0  0  2  0  0  0  0  0  0
  162.6510  205.8820  152.3840 O   0  0  0  0  0  1  0  0  0  0  0  0
  162.3660  204.5360  152.1580 C   0  0  0  0  0  2  0  0  0  0  0  0
  1 16  1  0  0  0  0
  2 10  2  0  0  0  0
  3  8  1  0  0  0  0
  4 13  1  0  0  0  0
  4  7  2  0  0  0  0
  5 11  2  0  0  0  0
  6 12  2  0  0  0  0
  8 31  1  1  0  0  0
  9  3  2  0  0  0  0
 10  4  1  0  0  0  0
 11  1  1  0  0  0  0
 11  9  1  0  0  0  0
 12 10  1  0  0  0  0
 12 15  1  0  0  0  0
 14 16  2  0  0  0  0
 15 14  2  0  0  0  0
 15 13  1  0  0  0  0
 16  8  1  0  0  0  0
 17 22  1  1  0  0  0
 17 23  1  0  0  0  0
 18 26  1  6  0  0  0
 18 20  1  0  0  0  0
 18 17  1  0  0  0  0
 19 23  1  0  0  0  0
 19  6  1  1  0  0  0
 20 19  1  0  0  0  0
 23 21  1  1  0  0  0
 24 26  1  0  0  0  0
 25 24  2  0  0  0  0
 27 28  1  0  0  0  0
 27 26  1  0  0  0  0
 29 28  1  0  0  0  0
 30 32  1  0  0  0  0
 31 30  2  0  0  0  0
 32 33  1  0  0  0  0
 33 35  1  0  0  0  0
 35 36  1  0  0  0  0
 36 39  1  0  0  0  0
 36 34  1  0  0  0  0
 37 35  2  0  0  0  0
 39 40  1  0  0  0  0
 39 38  1  1  0  0  0
 42 44  2  0  0  0  0
 43 44  1  0  0  0  0
 43 40  1  0  0  0  0
 44 41  1  0  0  0  0
 45  9  1  0  0  0  0
 46 45  1  6  0  0  0
 46 49  1  0  0  0  0
 48 47  1  0  0  0  0
 48 46  1  0  0  0  0
 49 50  1  0  0  0  0
 50 51  1  0  0  0  0
 53 52  1  0  0  0  0
 53 51  1  0  0  0  0
M  END
>  <MODEL>
5

>  <REMARK>
 VINA RESULT:      -2.9      3.067      8.763
  Name = 
  18 active torsions:
  status: ('A' for Active; 'I' for Inactive)
    1  A    between atoms: C_1  and  C_47
    2  A    between atoms: C_1  and  N_48
    3  A    between atoms: C_6  and  C_16
    4  A    between atoms: C_6  and  C_26
    5  A    between atoms: C_9  and  C_41
    6  A    between atoms: C_9  and  C_44
    7  A    between atoms: C_9  and  C_50
    8  A    between atoms: C_12  and  N_48
    9  A    between atoms: C_14  and  C_19
   10  A    between atoms: C_16  and  C_18
   11  A    between atoms: C_17  and  C_22
   12  A    between atoms: C_20  and  N_27
   13  A    between atoms: C_20  and  C_31
   14  A    between atoms: C_21  and  C_50
   15  A    between atoms: C_30  and  C_38
   16  A    between atoms: C_31  and  N_42
   17  A    between atoms: C_38  and  C_51
   18  A    between atoms: C_44  and  C_51
                            x       y       z     vdW  Elec       q    Type
                         _______ _______ _______ _____ _____    ______ ____

>  <TORSDO>
F 18

$$$$
=
 OpenBabel11042421273D

 53 55  0  0  1  0  0  0  0  0999 V2000
  160.6970  207.8420  151.7080 C   0  0  0  0  0  2  0  0  0  0  0  0
  161.1170  204.4200  146.1820 N   0  0  0  0  0  2  0  0  0  0  0  0
  162.4950  210.1130  152.2420 C   0  0  0  0  0  3  0  0  0  0  0  0
  162.2890  206.5360  146.2310 C   0  0  0  0  0  0  0  0  0  0  0  0
  160.4290  207.8290  154.0720 O   0  0  0  0  0  0  0  0  0  0  0  0
  161.0180  204.8240  149.1940 C   0  0  0  0  0  3  0  0  0  0  0  0
  162.5050  206.6650  144.9970 O   0  0  0  0  0  0  0  0  0  0  0  0
  162.2360  209.7250  150.8130 C   0  0  1  0  0  3  0  0  0  0  0  0
  161.9020  209.5170  153.2830 C   0  0  0  0  0  0  0  0  0  0  0  0
  161.7580  205.3270  146.8450 C   0  0  0  0  0  0  0  0  0  0  0  0
  160.9900  208.3680  153.0820 C   0  0  0  0  0  0  0  0  0  0  0  0
  161.5510  205.6200  148.2600 C   0  0  0  0  0  0  0  0  0  0  0  0
  162.5140  207.6220  147.2310 C   0  0  0  0  0  2  0  0  0  0  0  0
  161.8780  207.6460  149.6120 C   0  0  0  0  0  0  0  0  0  0  0  0
  162.0330  206.9830  148.4960 C   0  0  0  0  0  0  0  0  0  0  0  0
  161.7140  208.3170  150.7170 C   0  0  0  0  0  0  0  0  0  0  0  0
  160.4900  201.2150  149.6400 C   0  0  1  0  0  3  0  0  0  0  0  0
  161.4020  201.3900  148.4400 C   0  0  2  0  0  3  0  0  0  0  0  0
  160.5570  203.4230  148.9310 C   0  0  1  0  0  3  0  0  0  0  0  0
  161.4510  202.7520  148.0760 O   0  0  0  0  0  0  0  0  0  0  0  0
  161.4160  202.8590  151.1000 O   0  0  0  0  0  1  0  0  0  0  0  0
  161.0510  200.3250  150.5600 O   0  0  0  0  0  1  0  0  0  0  0  0
  160.3750  202.6070  150.1950 C   0  0  2  0  0  3  0  0  0  0  0  0
  161.6010  199.3380  147.0080 C   0  0  0  0  0  3  0  0  0  0  0  0
  161.2070  198.6200  146.0500 O   0  0  0  0  0  0  0  0  0  0  0  0
  160.9500  200.5790  147.3160 N   0  0  0  0  0  0  0  0  0  0  0  0
  159.7690  201.0030  146.5770 C   0  0  0  0  0  2  0  0  0  0  0  0
  160.0700  201.0760  145.0870 C   0  0  0  0  0  2  0  0  0  0  0  0
  159.4670  202.2060  144.5330 O   0  0  0  0  0  1  0  0  0  0  0  0
  161.7010  211.8820  149.7640 C   0  0  0  0  0  3  0  0  0  0  0  0
  161.2750  210.6970  150.2000 C   0  0  0  0  0  3  0  0  0  0  0  0
  160.7430  212.8490  149.1540 C   0  0  0  0  0  2  0  0  0  0  0  0
  161.3970  213.5760  147.9880 C   0  0  0  0  0  2  0  0  0  0  0  0
  159.8150  214.2470  144.5030 C   0  0  0  0  0  1  0  0  0  0  0  0
  160.4010  213.8590  146.9050 C   0  0  0  0  0  0  0  0  0  0  0  0
  160.8200  214.0760  145.5480 N   0  0  0  0  0  0  0  0  0  0  0  0
  159.1760  213.8780  147.2020 O   0  0  0  0  0  0  0  0  0  0  0  0
  163.0040  212.9340  145.7460 C   0  0  0  0  0  1  0  0  0  0  0  0
  162.2450  214.1440  145.2190 C   0  0  1  0  0  3  0  0  0  0  0  0
  162.4790  214.3960  143.7260 C   0  0  0  0  0  2  0  0  0  0  0  0
  161.0890  213.7020  141.2660 O   0  0  0  0  0  1  0  0  0  0  0  0
  162.3630  211.7970  141.1490 O   0  0  0  0  0  0  0  0  0  0  0  0
  162.7330  213.1580  142.9990 N   0  0  0  0  0  2  0  0  0  0  0  0
  162.0690  212.8510  141.7710 C   0  0  0  0  0  0  0  0  0  0  0  0
  162.1920  210.0260  154.6600 C   0  0  0  0  0  2  0  0  0  0  0  0
  160.9060  210.1640  155.4720 C   0  0  1  0  0  3  0  0  0  0  0  0
  162.6400  209.6940  157.2580 C   0  0  0  0  0  1  0  0  0  0  0  0
  161.1690  209.9450  156.9610 C   0  0  0  0  0  2  0  0  0  0  0  0
  160.2330  211.5100  155.2180 C   0  0  0  0  0  2  0  0  0  0  0  0
  158.8520  211.5590  155.8640 C   0  0  0  0  0  2  0  0  0  0  0  0
  157.7420  211.6150  154.8240 C   0  0  0  0  0  2  0  0  0  0  0  0
  155.5430  210.7260  154.6590 O   0  0  0  0  0  1  0  0  0  0  0  0
  156.3830  211.4690  155.4860 C   0  0  0  0  0  2  0  0  0  0  0  0
  1 11  1  0  0  0  0
  2 10  2  0  0  0  0
  3  9  2  0  0  0  0
  4 10  1  0  0  0  0
  4 13  1  0  0  0  0
  7  4  2  0  0  0  0
  8 31  1  1  0  0  0
  8  3  1  0  0  0  0
  9 45  1  0  0  0  0
 10 12  1  0  0  0  0
 11  9  1  0  0  0  0
 11  5  2  0  0  0  0
 12 15  1  0  0  0  0
 12  6  2  0  0  0  0
 13 15  1  0  0  0  0
 14 16  2  0  0  0  0
 15 14  2  0  0  0  0
 16  8  1  0  0  0  0
 16  1  1  0  0  0  0
 17 23  1  0  0  0  0
 17 22  1  1  0  0  0
 18 26  1  6  0  0  0
 18 17  1  0  0  0  0
 19  6  1  1  0  0  0
 19 23  1  0  0  0  0
 20 18  1  0  0  0  0
 20 19  1  0  0  0  0
 23 21  1  1  0  0  0
 24 26  1  0  0  0  0
 25 24  2  0  0  0  0
 27 26  1  0  0  0  0
 28 27  1  0  0  0  0
 29 28  1  0  0  0  0
 30 31  2  0  0  0  0
 32 30  1  0  0  0  0
 33 32  1  0  0  0  0
 34 36  1  0  0  0  0
 35 37  2  0  0  0  0
 35 33  1  0  0  0  0
 36 35  1  0  0  0  0
 39 36  1  0  0  0  0
 39 38  1  6  0  0  0
 40 39  1  0  0  0  0
 41 44  1  0  0  0  0
 42 44  2  0  0  0  0
 43 40  1  0  0  0  0
 44 43  1  0  0  0  0
 46 45  1  6  0  0  0
 46 48  1  0  0  0  0
 48 47  1  0  0  0  0
 49 46  1  0  0  0  0
 49 50  1  0  0  0  0
 51 53  1  0  0  0  0
 51 50  1  0  0  0  0
 52 53  1  0  0  0  0
M  END
>  <MODEL>
6

>  <REMARK>
 VINA RESULT:      -2.8      2.986      8.087
  Name = 
  18 active torsions:
  status: ('A' for Active; 'I' for Inactive)
    1  A    between atoms: C_1  and  C_47
    2  A    between atoms: C_1  and  N_48
    3  A    between atoms: C_6  and  C_16
    4  A    between atoms: C_6  and  C_26
    5  A    between atoms: C_9  and  C_41
    6  A    between atoms: C_9  and  C_44
    7  A    between atoms: C_9  and  C_50
    8  A    between atoms: C_12  and  N_48
    9  A    between atoms: C_14  and  C_19
   10  A    between atoms: C_16  and  C_18
   11  A    between atoms: C_17  and  C_22
   12  A    between atoms: C_20  and  N_27
   13  A    between atoms: C_20  and  C_31
   14  A    between atoms: C_21  and  C_50
   15  A    between atoms: C_30  and  C_38
   16  A    between atoms: C_31  and  N_42
   17  A    between atoms: C_38  and  C_51
   18  A    between atoms: C_44  and  C_51
                            x       y       z     vdW  Elec       q    Type
                         _______ _______ _______ _____ _____    ______ ____

>  <TORSDO>
F 18

$$$$
=
 OpenBabel11042421273D

 53 55  0  0  1  0  0  0  0  0999 V2000
  160.4870  208.0120  147.5090 C   0  0  0  0  0  2  0  0  0  0  0  0
  161.2860  214.4490  146.9240 N   0  0  0  0  0  2  0  0  0  0  0  0
  162.2820  206.3940  149.1940 C   0  0  0  0  0  3  0  0  0  0  0  0
  162.4930  213.3740  148.7230 C   0  0  0  0  0  0  0  0  0  0  0  0
  160.0270  205.9320  146.4490 O   0  0  0  0  0  0  0  0  0  0  0  0
  160.9500  211.5950  145.9330 C   0  0  0  0  0  3  0  0  0  0  0  0
  162.8110  214.3990  149.3820 O   0  0  0  0  0  0  0  0  0  0  0  0
  162.1320  207.8570  149.5050 C   0  0  1  0  0  3  0  0  0  0  0  0
  161.5940  205.7770  148.2270 C   0  0  0  0  0  0  0  0  0  0  0  0
  161.8890  213.4090  147.3980 C   0  0  0  0  0  0  0  0  0  0  0  0
  160.6790  206.5330  147.3430 C   0  0  0  0  0  0  0  0  0  0  0  0
  161.5730  212.0310  147.0340 C   0  0  0  0  0  0  0  0  0  0  0  0
  162.6580  211.9780  149.2280 C   0  0  0  0  0  2  0  0  0  0  0  0
  161.8310  209.8900  148.2130 C   0  0  0  0  0  0  0  0  0  0  0  0
  162.0620  211.1730  148.1160 C   0  0  0  0  0  0  0  0  0  0  0  0
  161.5910  208.6140  148.3220 C   0  0  0  0  0  0  0  0  0  0  0  0
  158.7120  213.6080  143.8260 C   0  0  1  0  0  3  0  0  0  0  0  0
  159.1770  212.4310  142.9890 C   0  0  2  0  0  3  0  0  0  0  0  0
  160.4820  212.4920  144.8290 C   0  0  1  0  0  3  0  0  0  0  0  0
  160.2180  211.7540  143.6600 O   0  0  0  0  0  0  0  0  0  0  0  0
  158.3390  212.5060  145.9080 O   0  0  0  0  0  1  0  0  0  0  0  0
  157.3180  213.6990  143.8160 O   0  0  0  0  0  1  0  0  0  0  0  0
  159.2500  213.2960  145.1940 C   0  0  2  0  0  3  0  0  0  0  0  0
  158.8070  213.7500  140.8860 C   0  0  0  0  0  3  0  0  0  0  0  0
  159.1890  214.1490  139.7530 O   0  0  0  0  0  0  0  0  0  0  0  0
  159.6220  212.8690  141.6710 N   0  0  0  0  0  0  0  0  0  0  0  0
  160.9460  212.4740  141.2120 C   0  0  0  0  0  2  0  0  0  0  0  0
  161.9490  213.5940  141.4520 C   0  0  0  0  0  2  0  0  0  0  0  0
  162.9010  213.6100  140.4320 O   0  0  0  0  0  1  0  0  0  0  0  0
  161.6210  207.5530  151.8900 C   0  0  0  0  0  3  0  0  0  0  0  0
  161.2450  208.0230  150.7010 C   0  0  0  0  0  3  0  0  0  0  0  0
  160.7360  207.7190  153.0800 C   0  0  0  0  0  2  0  0  0  0  0  0
  160.2890  209.1680  153.2060 C   0  0  0  0  0  2  0  0  0  0  0  0
  159.7890  211.0290  156.5800 C   0  0  0  0  0  1  0  0  0  0  0  0
  160.5010  209.6740  154.6000 C   0  0  0  0  0  0  0  0  0  0  0  0
  159.6100  210.6360  155.1860 N   0  0  0  0  0  0  0  0  0  0  0  0
  161.4700  209.2190  155.2670 O   0  0  0  0  0  0  0  0  0  0  0  0
  157.3010  211.5210  155.2200 C   0  0  0  0  0  1  0  0  0  0  0  0
  158.5400  211.2340  154.3830 C   0  0  1  0  0  3  0  0  0  0  0  0
  159.0260  212.4520  153.5920 C   0  0  0  0  0  2  0  0  0  0  0  0
  159.6860  213.7350  151.0650 O   0  0  0  0  0  1  0  0  0  0  0  0
  157.4400  213.8830  150.6170 O   0  0  0  0  0  0  0  0  0  0  0  0
  158.0110  212.9380  152.6650 N   0  0  0  0  0  2  0  0  0  0  0  0
  158.3520  213.5310  151.4100 C   0  0  0  0  0  0  0  0  0  0  0  0
  161.7820  204.3030  148.0440 C   0  0  0  0  0  2  0  0  0  0  0  0
  161.5810  203.5610  149.3640 C   0  0  1  0  0  3  0  0  0  0  0  0
  160.4840  203.8000  151.6350 C   0  0  0  0  0  1  0  0  0  0  0  0
  160.4170  204.1540  150.1570 C   0  0  0  0  0  2  0  0  0  0  0  0
  161.3930  202.0640  149.1340 C   0  0  0  0  0  2  0  0  0  0  0  0
  160.0710  201.7830  148.4270 C   0  0  0  0  0  2  0  0  0  0  0  0
  160.2760  201.0100  147.1320 C   0  0  0  0  0  2  0  0  0  0  0  0
  160.0730  201.9420  144.9530 O   0  0  0  0  0  1  0  0  0  0  0  0
  160.9030  201.9000  146.0730 C   0  0  0  0  0  2  0  0  0  0  0  0
  1 16  1  0  0  0  0
  2 10  2  0  0  0  0
  3  8  1  0  0  0  0
  4 13  1  0  0  0  0
  4  7  2  0  0  0  0
  5 11  2  0  0  0  0
  6 12  2  0  0  0  0
  8 31  1  1  0  0  0
  9  3  2  0  0  0  0
 10  4  1  0  0  0  0
 11  1  1  0  0  0  0
 11  9  1  0  0  0  0
 12 10  1  0  0  0  0
 12 15  1  0  0  0  0
 14 16  2  0  0  0  0
 15 14  2  0  0  0  0
 15 13  1  0  0  0  0
 16  8  1  0  0  0  0
 17 22  1  1  0  0  0
 17 23  1  0  0  0  0
 18 26  1  6  0  0  0
 18 20  1  0  0  0  0
 18 17  1  0  0  0  0
 19 23  1  0  0  0  0
 19  6  1  1  0  0  0
 20 19  1  0  0  0  0
 23 21  1  1  0  0  0
 24 26  1  0  0  0  0
 25 24  2  0  0  0  0
 27 28  1  0  0  0  0
 27 26  1  0  0  0  0
 29 28  1  0  0  0  0
 30 32  1  0  0  0  0
 31 30  2  0  0  0  0
 32 33  1  0  0  0  0
 33 35  1  0  0  0  0
 35 36  1  0  0  0  0
 35 37  2  0  0  0  0
 36 34  1  0  0  0  0
 39 36  1  0  0  0  0
 39 38  1  1  0  0  0
 40 39  1  0  0  0  0
 41 44  1  0  0  0  0
 42 44  2  0  0  0  0
 43 40  1  0  0  0  0
 44 43  1  0  0  0  0
 45  9  1  0  0  0  0
 46 45  1  6  0  0  0
 46 48  1  0  0  0  0
 48 47  1  0  0  0  0
 49 46  1  0  0  0  0
 50 49  1  0  0  0  0
 51 50  1  0  0  0  0
 52 53  1  0  0  0  0
 53 51  1  0  0  0  0
M  END
>  <MODEL>
7

>  <REMARK>
 VINA RESULT:      -2.6      3.104      8.539
  Name = 
  18 active torsions:
  status: ('A' for Active; 'I' for Inactive)
    1  A    between atoms: C_1  and  C_47
    2  A    between atoms: C_1  and  N_48
    3  A    between atoms: C_6  and  C_16
    4  A    between atoms: C_6  and  C_26
    5  A    between atoms: C_9  and  C_41
    6  A    between atoms: C_9  and  C_44
    7  A    between atoms: C_9  and  C_50
    8  A    between atoms: C_12  and  N_48
    9  A    between atoms: C_14  and  C_19
   10  A    between atoms: C_16  and  C_18
   11  A    between atoms: C_17  and  C_22
   12  A    between atoms: C_20  and  N_27
   13  A    between atoms: C_20  and  C_31
   14  A    between atoms: C_21  and  C_50
   15  A    between atoms: C_30  and  C_38
   16  A    between atoms: C_31  and  N_42
   17  A    between atoms: C_38  and  C_51
   18  A    between atoms: C_44  and  C_51
                            x       y       z     vdW  Elec       q    Type
                         _______ _______ _______ _____ _____    ______ ____

>  <TORSDO>
F 18

$$$$
