=
 OpenBabel11052411453D

 40 44  0  0  1  0  0  0  0  0999 V2000
  161.8770  209.1500  149.9970 N   0  0  0  0  0  0  0  0  0  0  0  0
  160.9990  207.5020  151.3230 C   0  0  2  0  0  3  0  0  0  0  0  0
  162.3010  209.4340  151.3070 C   0  0  0  0  0  0  0  0  0  0  0  0
  161.0760  207.9980  149.9350 N   0  0  0  0  0  2  0  0  0  0  0  0
  163.0530  210.4000  151.6060 O   0  0  0  0  0  0  0  0  0  0  0  0
  161.7760  208.4480  152.2580 C   0  0  1  0  0  3  0  0  0  0  0  0
  160.8470  209.0890  153.2510 C   0  0  0  0  0  0  0  0  0  0  0  0
  159.1560  210.2630  155.0360 N   0  0  0  0  0  0  0  0  0  0  0  0
  160.1750  210.2260  152.9230 N   0  0  0  0  0  0  0  0  0  0  0  0
  159.8040  209.1510  155.3840 N   0  0  0  0  0  0  0  0  0  0  0  0
  158.6270  211.9950  153.4480 N   0  0  0  0  0  1  0  0  0  0  0  0
  161.3550  207.2880  154.9530 C   0  0  0  0  0  1  0  0  0  0  0  0
  160.6560  208.5340  154.5240 C   0  0  0  0  0  0  0  0  0  0  0  0
  159.3300  210.8130  153.8080 C   0  0  0  0  0  0  0  0  0  0  0  0
  161.5230  206.0700  151.4140 C   0  0  0  0  0  2  0  0  0  0  0  0
  160.4510  203.8440  151.7670 C   0  0  2  0  0  3  0  0  0  0  0  0
  161.2510  203.7790  150.4730 C   0  0  1  0  0  0  0  0  0  0  0  0
  160.5310  205.0530  150.8590 C   0  0  2  0  0  3  0  0  0  0  0  0
  161.7040  202.9970  151.6900 C   0  0  0  0  0  2  0  0  0  0  0  0
  160.4370  202.9360  149.5090 C   0  0  0  0  0  2  0  0  0  0  0  0
  160.9690  201.6550  147.4010 N   0  0  0  0  0  1  0  0  0  0  0  0
  161.1470  202.8150  148.2050 C   0  0  0  0  0  0  0  0  0  0  0  0
  161.8820  203.7530  147.7990 O   0  0  0  0  0  0  0  0  0  0  0  0
  162.2810  209.9260  148.8280 C   0  0  0  0  0  2  0  0  0  0  0  0
  161.9500  211.3990  148.9910 C   0  0  0  0  0  2  0  0  0  0  0  0
  161.2490  211.9040  147.7460 C   0  0  0  0  0  2  0  0  0  0  0  0
  161.7400  213.2970  147.3970 C   0  0  0  0  0  2  0  0  0  0  0  0
  162.6770  213.2300  145.0600 C   0  0  0  0  0  0  0  0  0  0  0  0
  161.3610  213.3330  144.5040 N   0  0  0  0  0  2  0  0  0  0  0  0
  163.6830  213.1530  144.3060 O   0  0  0  0  0  0  0  0  0  0  0  0
  162.8610  213.2140  146.4750 N   0  0  0  0  0  2  0  0  0  0  0  0
  158.9690  212.4040  143.7350 O   0  0  0  0  0  1  0  0  0  0  0  0
  161.7180  214.4320  142.2290 C   0  0  0  0  0  1  0  0  0  0  0  0
  159.7230  212.8340  142.6400 C   0  0  1  0  0  3  0  0  0  0  0  0
  161.0990  213.3200  143.0690 C   0  0  2  0  0  0  0  0  0  0  0  0
  160.9410  211.9240  142.4830 C   0  0  2  0  0  3  0  0  0  0  0  0
  161.3220  211.8420  141.0110 C   0  0  0  0  0  2  0  0  0  0  0  0
  161.3360  210.5070  140.6040 O   0  0  0  0  0  0  0  0  0  0  0  0
  163.1070  211.6200  139.4710 C   0  0  0  0  0  1  0  0  0  0  0  0
  162.0760  210.5110  139.4190 C   0  0  0  0  0  2  0  0  0  0  0  0
  1  3  1  0  0  0  0
  2 15  1  6  0  0  0
  2  6  1  0  0  0  0
  3  5  2  0  0  0  0
  3  6  1  0  0  0  0
  4  1  1  0  0  0  0
  4  2  1  0  0  0  0
  6  7  1  1  0  0  0
  7 13  1  0  0  0  0
  8 10  1  0  0  0  0
  9  7  2  0  0  0  0
  9 14  1  0  0  0  0
 11 14  1  0  0  0  0
 13 12  1  0  0  0  0
 13 10  2  0  0  0  0
 14  8  2  0  0  0  0
 16 19  1  1  0  0  0
 17 20  1  6  0  0  0
 17 18  1  0  0  0  0
 17 19  1  0  0  0  0
 17 16  1  0  0  0  0
 18 15  1  1  0  0  0
 18 16  1  0  0  0  0
 21 22  1  0  0  0  0
 22 20  1  0  0  0  0
 23 22  2  0  0  0  0
 24 25  1  0  0  0  0
 24  1  1  0  0  0  0
 26 25  1  0  0  0  0
 27 26  1  0  0  0  0
 28 31  1  0  0  0  0
 29 28  1  0  0  0  0
 30 28  2  0  0  0  0
 31 27  1  0  0  0  0
 34 35  1  0  0  0  0
 34 32  1  1  0  0  0
 35 33  1  6  0  0  0
 35 29  1  0  0  0  0
 36 37  1  6  0  0  0
 36 34  1  0  0  0  0
 36 35  1  0  0  0  0
 38 37  1  0  0  0  0
 40 39  1  0  0  0  0
 40 38  1  0  0  0  0
M  END
>  <MODEL>
1

>  <REMARK>
 VINA RESULT:      -7.2      0.000      0.000
  Name = 
  14 active torsions:
  status: ('A' for Active; 'I' for Inactive)
    1  A    between atoms: O_1  and  C_3
    2  A    between atoms: O_1  and  C_38
    3  A    between atoms: N_2  and  C_21
    4  A    between atoms: C_3  and  C_31
    5  A    between atoms: C_5  and  C_16
    6  A    between atoms: C_5  and  C_29
    7  A    between atoms: C_6  and  C_39
    8  A    between atoms: N_8  and  C_30
    9  A    between atoms: C_9  and  C_11
   10  A    between atoms: C_9  and  C_35
   11  A    between atoms: C_14  and  C_18
   12  A    between atoms: C_14  and  C_22
   13  A    between atoms: C_18  and  N_37
   14  A    between atoms: C_21  and  C_22
                            x       y       z     vdW  Elec       q    Type
                         _______ _______ _______ _____ _____    ______ ____

>  <TORSDO>
F 14

$$$$
=
 OpenBabel11052411453D

 40 44  0  0  1  0  0  0  0  0999 V2000
  161.7010  207.2640  149.8120 N   0  0  0  0  0  0  0  0  0  0  0  0
  161.7240  205.6240  151.4100 C   0  0  2  0  0  3  0  0  0  0  0  0
  160.6440  206.3930  149.4940 C   0  0  0  0  0  0  0  0  0  0  0  0
  162.4040  206.8520  150.9550 N   0  0  0  0  0  2  0  0  0  0  0  0
  159.8540  206.5730  148.5280 O   0  0  0  0  0  0  0  0  0  0  0  0
  160.5730  205.2780  150.4460 C   0  0  1  0  0  3  0  0  0  0  0  0
  160.8300  203.9630  149.7650 C   0  0  0  0  0  0  0  0  0  0  0  0
  161.3010  201.5880  148.5150 N   0  0  0  0  0  0  0  0  0  0  0  0
  160.9540  203.9060  148.4110 N   0  0  0  0  0  0  0  0  0  0  0  0
  161.1810  201.6160  149.8430 N   0  0  0  0  0  0  0  0  0  0  0  0
  161.3270  202.6840  146.3700 N   0  0  0  0  0  1  0  0  0  0  0  0
  160.8270  202.7630  151.9910 C   0  0  0  0  0  1  0  0  0  0  0  0
  160.9470  202.7790  150.5050 C   0  0  0  0  0  0  0  0  0  0  0  0
  161.1900  202.7260  147.7850 C   0  0  0  0  0  0  0  0  0  0  0  0
  161.2230  205.7820  152.8440 C   0  0  0  0  0  2  0  0  0  0  0  0
  161.4590  207.0130  155.0030 C   0  0  2  0  0  3  0  0  0  0  0  0
  160.7020  207.9100  154.0330 C   0  0  1  0  0  0  0  0  0  0  0  0
  161.8120  207.0120  153.5310 C   0  0  2  0  0  3  0  0  0  0  0  0
  159.9920  207.3120  155.2300 C   0  0  0  0  0  2  0  0  0  0  0  0
  161.1890  209.3240  154.2900 C   0  0  0  0  0  2  0  0  0  0  0  0
  160.3180  211.6540  153.8660 N   0  0  0  0  0  1  0  0  0  0  0  0
  160.4170  210.2930  153.4630 C   0  0  0  0  0  0  0  0  0  0  0  0
  159.8760  209.9140  152.3910 O   0  0  0  0  0  0  0  0  0  0  0  0
  161.9900  208.4910  149.0750 C   0  0  0  0  0  2  0  0  0  0  0  0
  162.4230  209.6130  150.0010 C   0  0  0  0  0  2  0  0  0  0  0  0
  161.6050  210.8560  149.7140 C   0  0  0  0  0  2  0  0  0  0  0  0
  162.0630  211.4960  148.4160 C   0  0  0  0  0  2  0  0  0  0  0  0
  161.0030  213.3010  147.0150 C   0  0  0  0  0  0  0  0  0  0  0  0
  161.1110  212.4870  145.8420 N   0  0  0  0  0  2  0  0  0  0  0  0
  160.4970  214.4520  146.9470 O   0  0  0  0  0  0  0  0  0  0  0  0
  161.4680  212.8150  148.2740 N   0  0  0  0  0  2  0  0  0  0  0  0
  158.4960  212.2910  145.2920 O   0  0  0  0  0  1  0  0  0  0  0  0
  161.4470  214.1010  143.8950 C   0  0  0  0  0  1  0  0  0  0  0  0
  159.1970  212.8640  144.2280 C   0  0  1  0  0  3  0  0  0  0  0  0
  160.6880  212.9350  144.5190 C   0  0  2  0  0  0  0  0  0  0  0  0
  160.1450  211.8220  143.6350 C   0  0  2  0  0  3  0  0  0  0  0  0
  160.3230  212.0930  142.1480 C   0  0  0  0  0  2  0  0  0  0  0  0
  160.9070  210.9830  141.5350 O   0  0  0  0  0  0  0  0  0  0  0  0
  161.2290  212.4770  139.7120 C   0  0  0  0  0  1  0  0  0  0  0  0
  161.8810  211.5220  140.6910 C   0  0  0  0  0  2  0  0  0  0  0  0
  1  4  1  0  0  0  0
  2 15  1  1  0  0  0
  3  1  1  0  0  0  0
  3  6  1  0  0  0  0
  4  2  1  0  0  0  0
  5  3  2  0  0  0  0
  6  7  1  6  0  0  0
  6  2  1  0  0  0  0
  7 13  1  0  0  0  0
  8 10  1  0  0  0  0
  9  7  2  0  0  0  0
 10 13  2  0  0  0  0
 11 14  1  0  0  0  0
 13 12  1  0  0  0  0
 14  9  1  0  0  0  0
 14  8  2  0  0  0  0
 16 19  1  6  0  0  0
 17 20  1  1  0  0  0
 17 16  1  0  0  0  0
 17 19  1  0  0  0  0
 18 15  1  6  0  0  0
 18 17  1  0  0  0  0
 18 16  1  0  0  0  0
 22 21  1  0  0  0  0
 22 20  1  0  0  0  0
 23 22  2  0  0  0  0
 24  1  1  0  0  0  0
 24 25  1  0  0  0  0
 26 25  1  0  0  0  0
 27 26  1  0  0  0  0
 28 31  1  0  0  0  0
 29 28  1  0  0  0  0
 30 28  2  0  0  0  0
 31 27  1  0  0  0  0
 34 35  1  0  0  0  0
 34 32  1  1  0  0  0
 35 33  1  6  0  0  0
 35 29  1  0  0  0  0
 36 37  1  6  0  0  0
 36 34  1  0  0  0  0
 36 35  1  0  0  0  0
 38 37  1  0  0  0  0
 39 40  1  0  0  0  0
 40 38  1  0  0  0  0
M  END
>  <MODEL>
2

>  <REMARK>
 VINA RESULT:      -6.7      1.703      5.573
  Name = 
  14 active torsions:
  status: ('A' for Active; 'I' for Inactive)
    1  A    between atoms: O_1  and  C_3
    2  A    between atoms: O_1  and  C_38
    3  A    between atoms: N_2  and  C_21
    4  A    between atoms: C_3  and  C_31
    5  A    between atoms: C_5  and  C_16
    6  A    between atoms: C_5  and  C_29
    7  A    between atoms: C_6  and  C_39
    8  A    between atoms: N_8  and  C_30
    9  A    between atoms: C_9  and  C_11
   10  A    between atoms: C_9  and  C_35
   11  A    between atoms: C_14  and  C_18
   12  A    between atoms: C_14  and  C_22
   13  A    between atoms: C_18  and  N_37
   14  A    between atoms: C_21  and  C_22
                            x       y       z     vdW  Elec       q    Type
                         _______ _______ _______ _____ _____    ______ ____

>  <TORSDO>
F 14

$$$$
=
 OpenBabel11052411453D

 40 44  0  0  1  0  0  0  0  0999 V2000
  161.8400  209.1630  149.8760 N   0  0  0  0  0  0  0  0  0  0  0  0
  161.0700  207.4270  151.1560 C   0  0  2  0  0  3  0  0  0  0  0  0
  162.3350  209.3840  151.1730 C   0  0  0  0  0  0  0  0  0  0  0  0
  161.0560  208.0010  149.7960 N   0  0  0  0  0  2  0  0  0  0  0  0
  163.0870  210.3460  151.4820 O   0  0  0  0  0  0  0  0  0  0  0  0
  161.8850  208.3360  152.0960 C   0  0  1  0  0  3  0  0  0  0  0  0
  161.0050  208.9020  153.1760 C   0  0  0  0  0  0  0  0  0  0  0  0
  159.4060  209.9420  155.1210 N   0  0  0  0  0  0  0  0  0  0  0  0
  160.4230  210.1210  153.0140 N   0  0  0  0  0  0  0  0  0  0  0  0
  159.9670  208.7470  155.3060 N   0  0  0  0  0  0  0  0  0  0  0  0
  159.0130  211.9120  153.7920 N   0  0  0  0  0  1  0  0  0  0  0  0
  161.3710  206.8490  154.6080 C   0  0  0  0  0  1  0  0  0  0  0  0
  160.7700  208.1920  154.3610 C   0  0  0  0  0  0  0  0  0  0  0  0
  159.6240  210.6420  153.9790 C   0  0  0  0  0  0  0  0  0  0  0  0
  161.6230  206.0030  151.1360 C   0  0  0  0  0  2  0  0  0  0  0  0
  160.4380  203.8840  151.7140 C   0  0  2  0  0  3  0  0  0  0  0  0
  161.2380  203.6410  150.4410 C   0  0  1  0  0  0  0  0  0  0  0  0
  160.5820  204.9830  150.6830 C   0  0  2  0  0  3  0  0  0  0  0  0
  161.6460  202.9720  151.7380 C   0  0  0  0  0  2  0  0  0  0  0  0
  160.3860  202.7420  149.5650 C   0  0  0  0  0  2  0  0  0  0  0  0
  161.0720  201.1340  147.7460 N   0  0  0  0  0  1  0  0  0  0  0  0
  161.0910  202.4500  148.2860 C   0  0  0  0  0  0  0  0  0  0  0  0
  161.6800  203.3740  147.6680 O   0  0  0  0  0  0  0  0  0  0  0  0
  162.1600  210.0110  148.7310 C   0  0  0  0  0  2  0  0  0  0  0  0
  162.2620  211.4730  149.1270 C   0  0  0  0  0  2  0  0  0  0  0  0
  161.1270  212.2530  148.4960 C   0  0  0  0  0  2  0  0  0  0  0  0
  161.3700  212.4220  147.0070 C   0  0  0  0  0  2  0  0  0  0  0  0
  160.0450  212.4680  144.8660 C   0  0  0  0  0  0  0  0  0  0  0  0
  161.2490  212.5540  144.0950 N   0  0  0  0  0  2  0  0  0  0  0  0
  158.9230  212.4480  144.2940 O   0  0  0  0  0  0  0  0  0  0  0  0
  160.1060  212.4010  146.2900 N   0  0  0  0  0  2  0  0  0  0  0  0
  163.0790  214.1930  143.0270 O   0  0  0  0  0  1  0  0  0  0  0  0
  160.8850  211.4160  141.8410 C   0  0  0  0  0  1  0  0  0  0  0  0
  162.3280  213.5570  142.0360 C   0  0  1  0  0  3  0  0  0  0  0  0
  161.2580  212.6600  142.6400 C   0  0  2  0  0  0  0  0  0  0  0  0
  160.8800  214.0390  142.1190 C   0  0  2  0  0  3  0  0  0  0  0  0
  160.2590  214.0090  140.7290 C   0  0  0  0  0  2  0  0  0  0  0  0
  158.8730  214.1310  140.8320 O   0  0  0  0  0  0  0  0  0  0  0  0
  156.8600  213.3470  139.8360 C   0  0  0  0  0  1  0  0  0  0  0  0
  158.3720  213.2480  139.8730 C   0  0  0  0  0  2  0  0  0  0  0  0
  1  3  1  0  0  0  0
  2 15  1  6  0  0  0
  2  6  1  0  0  0  0
  3  5  2  0  0  0  0
  3  6  1  0  0  0  0
  4  1  1  0  0  0  0
  4  2  1  0  0  0  0
  6  7  1  1  0  0  0
  7 13  1  0  0  0  0
  8 10  1  0  0  0  0
  9  7  2  0  0  0  0
  9 14  1  0  0  0  0
 11 14  1  0  0  0  0
 13 12  1  0  0  0  0
 13 10  2  0  0  0  0
 14  8  2  0  0  0  0
 16 19  1  1  0  0  0
 17 20  1  6  0  0  0
 17 18  1  0  0  0  0
 17 16  1  0  0  0  0
 17 19  1  0  0  0  0
 18 15  1  1  0  0  0
 18 16  1  0  0  0  0
 21 22  1  0  0  0  0
 22 20  1  0  0  0  0
 23 22  2  0  0  0  0
 24 25  1  0  0  0  0
 24  1  1  0  0  0  0
 26 25  1  0  0  0  0
 27 26  1  0  0  0  0
 28 31  1  0  0  0  0
 29 28  1  0  0  0  0
 30 28  2  0  0  0  0
 31 27  1  0  0  0  0
 34 36  1  0  0  0  0
 34 35  1  0  0  0  0
 34 32  1  1  0  0  0
 35 33  1  6  0  0  0
 35 29  1  0  0  0  0
 36 37  1  6  0  0  0
 36 35  1  0  0  0  0
 37 38  1  0  0  0  0
 39 40  1  0  0  0  0
 40 38  1  0  0  0  0
M  END
>  <MODEL>
3

>  <REMARK>
 VINA RESULT:      -6.6      1.291      2.100
  Name = 
  14 active torsions:
  status: ('A' for Active; 'I' for Inactive)
    1  A    between atoms: O_1  and  C_3
    2  A    between atoms: O_1  and  C_38
    3  A    between atoms: N_2  and  C_21
    4  A    between atoms: C_3  and  C_31
    5  A    between atoms: C_5  and  C_16
    6  A    between atoms: C_5  and  C_29
    7  A    between atoms: C_6  and  C_39
    8  A    between atoms: N_8  and  C_30
    9  A    between atoms: C_9  and  C_11
   10  A    between atoms: C_9  and  C_35
   11  A    between atoms: C_14  and  C_18
   12  A    between atoms: C_14  and  C_22
   13  A    between atoms: C_18  and  N_37
   14  A    between atoms: C_21  and  C_22
                            x       y       z     vdW  Elec       q    Type
                         _______ _______ _______ _____ _____    ______ ____

>  <TORSDO>
F 14

$$$$
=
 OpenBabel11052411453D

 40 44  0  0  1  0  0  0  0  0999 V2000
  160.1070  211.3580  152.3910 N   0  0  0  0  0  0  0  0  0  0  0  0
  158.0680  211.8680  153.3000 C   0  0  2  0  0  3  0  0  0  0  0  0
  159.8170  212.6730  151.9870 C   0  0  0  0  0  0  0  0  0  0  0  0
  159.0860  210.8060  153.1810 N   0  0  0  0  0  2  0  0  0  0  0  0
  160.5970  213.3830  151.2980 O   0  0  0  0  0  0  0  0  0  0  0  0
  158.5100  213.1060  152.4960 C   0  0  1  0  0  3  0  0  0  0  0  0
  157.5500  213.3770  151.3720 C   0  0  0  0  0  0  0  0  0  0  0  0
  155.8190  213.8560  149.3230 N   0  0  0  0  0  0  0  0  0  0  0  0
  157.8610  213.0030  150.1010 N   0  0  0  0  0  0  0  0  0  0  0  0
  155.4910  214.2350  150.5590 N   0  0  0  0  0  0  0  0  0  0  0  0
  157.3360  212.8330  147.7570 N   0  0  0  0  0  1  0  0  0  0  0  0
  155.9120  214.4490  152.9740 C   0  0  0  0  0  1  0  0  0  0  0  0
  156.3240  214.0150  151.6090 C   0  0  0  0  0  0  0  0  0  0  0  0
  157.0020  213.2380  149.0780 C   0  0  0  0  0  0  0  0  0  0  0  0
  157.8170  212.2130  154.7670 C   0  0  0  0  0  2  0  0  0  0  0  0
  158.4420  211.5520  157.0910 C   0  0  2  0  0  3  0  0  0  0  0  0
  159.5690  211.1200  156.1620 C   0  0  1  0  0  0  0  0  0  0  0  0
  158.1300  211.0460  155.6990 C   0  0  2  0  0  3  0  0  0  0  0  0
  159.7850  212.2490  157.1490 C   0  0  0  0  0  2  0  0  0  0  0  0
  160.0660  209.7850  156.6850 C   0  0  0  0  0  2  0  0  0  0  0  0
  161.2400  208.3890  154.9420 N   0  0  0  0  0  1  0  0  0  0  0  0
  161.3030  209.3780  155.9630 C   0  0  0  0  0  0  0  0  0  0  0  0
  162.4010  209.9300  156.2350 O   0  0  0  0  0  0  0  0  0  0  0  0
  161.3580  210.6730  152.0800 C   0  0  0  0  0  2  0  0  0  0  0  0
  161.1150  209.3650  151.3480 C   0  0  0  0  0  2  0  0  0  0  0  0
  162.1320  209.2050  150.2370 C   0  0  0  0  0  2  0  0  0  0  0  0
  161.5390  208.4000  149.0950 C   0  0  0  0  0  2  0  0  0  0  0  0
  161.4750  205.9210  148.6530 C   0  0  0  0  0  0  0  0  0  0  0  0
  161.9300  206.1250  147.3110 N   0  0  0  0  0  2  0  0  0  0  0  0
  161.2400  204.7580  149.0770 O   0  0  0  0  0  0  0  0  0  0  0  0
  161.2860  207.0350  149.5260 N   0  0  0  0  0  2  0  0  0  0  0  0
  160.2160  206.0410  145.2530 O   0  0  0  0  0  1  0  0  0  0  0  0
  163.5340  204.5550  146.0990 C   0  0  0  0  0  1  0  0  0  0  0  0
  161.1630  205.0190  145.1660 C   0  0  1  0  0  3  0  0  0  0  0  0
  162.1100  205.0350  146.3570 C   0  0  2  0  0  0  0  0  0  0  0  0
  160.9560  204.0440  146.3260 C   0  0  2  0  0  3  0  0  0  0  0  0
  161.3740  202.6470  145.8900 C   0  0  0  0  0  2  0  0  0  0  0  0
  160.3950  201.7250  146.2650 O   0  0  0  0  0  0  0  0  0  0  0  0
  161.3880  200.8480  148.2410 C   0  0  0  0  0  1  0  0  0  0  0  0
  160.3610  201.8000  147.6590 C   0  0  0  0  0  2  0  0  0  0  0  0
  1  4  1  0  0  0  0
  2 15  1  1  0  0  0
  3  1  1  0  0  0  0
  3  6  1  0  0  0  0
  4  2  1  0  0  0  0
  5  3  2  0  0  0  0
  6  7  1  6  0  0  0
  6  2  1  0  0  0  0
  7 13  1  0  0  0  0
  8 10  1  0  0  0  0
  9  7  2  0  0  0  0
 10 13  2  0  0  0  0
 11 14  1  0  0  0  0
 13 12  1  0  0  0  0
 14  8  2  0  0  0  0
 14  9  1  0  0  0  0
 16 19  1  6  0  0  0
 17 20  1  1  0  0  0
 17 16  1  0  0  0  0
 17 19  1  0  0  0  0
 18 15  1  6  0  0  0
 18 17  1  0  0  0  0
 18 16  1  0  0  0  0
 21 22  1  0  0  0  0
 22 23  2  0  0  0  0
 22 20  1  0  0  0  0
 24  1  1  0  0  0  0
 25 24  1  0  0  0  0
 26 25  1  0  0  0  0
 27 31  1  0  0  0  0
 27 26  1  0  0  0  0
 28 30  2  0  0  0  0
 28 31  1  0  0  0  0
 29 28  1  0  0  0  0
 34 32  1  1  0  0  0
 34 36  1  0  0  0  0
 34 35  1  0  0  0  0
 35 33  1  6  0  0  0
 35 29  1  0  0  0  0
 36 37  1  6  0  0  0
 36 35  1  0  0  0  0
 37 38  1  0  0  0  0
 38 40  1  0  0  0  0
 40 39  1  0  0  0  0
M  END
>  <MODEL>
4

>  <REMARK>
 VINA RESULT:      -6.0      4.655      8.141
  Name = 
  14 active torsions:
  status: ('A' for Active; 'I' for Inactive)
    1  A    between atoms: O_1  and  C_3
    2  A    between atoms: O_1  and  C_38
    3  A    between atoms: N_2  and  C_21
    4  A    between atoms: C_3  and  C_31
    5  A    between atoms: C_5  and  C_16
    6  A    between atoms: C_5  and  C_29
    7  A    between atoms: C_6  and  C_39
    8  A    between atoms: N_8  and  C_30
    9  A    between atoms: C_9  and  C_11
   10  A    between atoms: C_9  and  C_35
   11  A    between atoms: C_14  and  C_18
   12  A    between atoms: C_14  and  C_22
   13  A    between atoms: C_18  and  N_37
   14  A    between atoms: C_21  and  C_22
                            x       y       z     vdW  Elec       q    Type
                         _______ _______ _______ _____ _____    ______ ____

>  <TORSDO>
F 14

$$$$
=
 OpenBabel11052411453D

 40 44  0  0  1  0  0  0  0  0999 V2000
  161.0560  208.2370  152.0730 N   0  0  0  0  0  0  0  0  0  0  0  0
  161.0750  210.0280  153.5010 C   0  0  2  0  0  3  0  0  0  0  0  0
  161.5030  209.3350  151.3170 C   0  0  0  0  0  0  0  0  0  0  0  0
  160.7680  208.5870  153.4020 N   0  0  0  0  0  2  0  0  0  0  0  0
  161.8510  209.2590  150.1080 O   0  0  0  0  0  0  0  0  0  0  0  0
  161.5360  210.5570  152.1290 C   0  0  1  0  0  3  0  0  0  0  0  0
  160.5700  211.5840  151.6070 C   0  0  0  0  0  0  0  0  0  0  0  0
  158.8090  213.4450  150.6800 N   0  0  0  0  0  0  0  0  0  0  0  0
  159.4640  211.9120  152.3310 N   0  0  0  0  0  0  0  0  0  0  0  0
  159.8830  213.1400  149.9500 N   0  0  0  0  0  0  0  0  0  0  0  0
  157.4410  213.1810  152.6450 N   0  0  0  0  0  1  0  0  0  0  0  0
  161.9750  211.9130  149.5300 C   0  0  0  0  0  1  0  0  0  0  0  0
  160.7850  212.2180  150.3760 C   0  0  0  0  0  0  0  0  0  0  0  0
  158.5860  212.8400  151.8730 C   0  0  0  0  0  0  0  0  0  0  0  0
  162.1240  210.2840  154.5810 C   0  0  0  0  0  2  0  0  0  0  0  0
  161.6360  210.2340  157.0280 C   0  0  2  0  0  3  0  0  0  0  0  0
  160.3130  210.3830  156.2900 C   0  0  1  0  0  0  0  0  0  0  0  0
  161.5580  211.0650  155.7640 C   0  0  2  0  0  3  0  0  0  0  0  0
  160.6400  209.0940  157.0160 C   0  0  0  0  0  2  0  0  0  0  0  0
  159.4610  211.3220  157.1230 C   0  0  0  0  0  2  0  0  0  0  0  0
  157.1190  212.2600  157.1520 N   0  0  0  0  0  1  0  0  0  0  0  0
  158.1300  211.5150  156.4840 C   0  0  0  0  0  0  0  0  0  0  0  0
  157.9090  211.0440  155.3380 O   0  0  0  0  0  0  0  0  0  0  0  0
  160.9670  206.8760  151.5510 C   0  0  0  0  0  2  0  0  0  0  0  0
  162.1790  206.0470  151.9350 C   0  0  0  0  0  2  0  0  0  0  0  0
  161.7730  204.5970  152.1020 C   0  0  0  0  0  2  0  0  0  0  0  0
  160.4810  204.3250  151.3520 C   0  0  0  0  0  2  0  0  0  0  0  0
  161.1460  203.5230  149.0580 C   0  0  0  0  0  0  0  0  0  0  0  0
  161.4320  204.8640  148.6470 N   0  0  0  0  0  2  0  0  0  0  0  0
  161.3020  202.5640  148.2570 O   0  0  0  0  0  0  0  0  0  0  0  0
  160.6820  203.2610  150.3830 N   0  0  0  0  0  2  0  0  0  0  0  0
  160.7750  207.3050  147.7570 O   0  0  0  0  0  1  0  0  0  0  0  0
  163.2040  204.6270  146.8260 C   0  0  0  0  0  1  0  0  0  0  0  0
  161.5390  206.6100  146.8160 C   0  0  1  0  0  3  0  0  0  0  0  0
  161.8760  205.2070  147.2990 C   0  0  2  0  0  0  0  0  0  0  0  0
  160.7390  205.4110  146.3090 C   0  0  2  0  0  3  0  0  0  0  0  0
  161.1340  205.1140  144.8690 C   0  0  0  0  0  2  0  0  0  0  0  0
  160.3920  204.0330  144.3910 O   0  0  0  0  0  0  0  0  0  0  0  0
  159.9030  201.7720  144.9470 C   0  0  0  0  0  1  0  0  0  0  0  0
  160.8520  202.9400  145.1280 C   0  0  0  0  0  2  0  0  0  0  0  0
  1  4  1  0  0  0  0
  2 15  1  1  0  0  0
  3  1  1  0  0  0  0
  3  6  1  0  0  0  0
  4  2  1  0  0  0  0
  5  3  2  0  0  0  0
  6  7  1  6  0  0  0
  6  2  1  0  0  0  0
  7  9  2  0  0  0  0
  8 14  2  0  0  0  0
 10 13  2  0  0  0  0
 10  8  1  0  0  0  0
 12 13  1  0  0  0  0
 13  7  1  0  0  0  0
 14  9  1  0  0  0  0
 14 11  1  0  0  0  0
 16 19  1  6  0  0  0
 17 19  1  0  0  0  0
 17 16  1  0  0  0  0
 17 20  1  1  0  0  0
 18 15  1  6  0  0  0
 18 17  1  0  0  0  0
 18 16  1  0  0  0  0
 22 20  1  0  0  0  0
 22 21  1  0  0  0  0
 23 22  2  0  0  0  0
 24 25  1  0  0  0  0
 24  1  1  0  0  0  0
 25 26  1  0  0  0  0
 27 26  1  0  0  0  0
 28 31  1  0  0  0  0
 29 28  1  0  0  0  0
 30 28  2  0  0  0  0
 31 27  1  0  0  0  0
 34 35  1  0  0  0  0
 34 32  1  1  0  0  0
 35 33  1  6  0  0  0
 35 29  1  0  0  0  0
 36 37  1  6  0  0  0
 36 34  1  0  0  0  0
 36 35  1  0  0  0  0
 38 37  1  0  0  0  0
 38 40  1  0  0  0  0
 39 40  1  0  0  0  0
M  END
>  <MODEL>
5

>  <REMARK>
 VINA RESULT:      -5.9      4.244      7.981
  Name = 
  14 active torsions:
  status: ('A' for Active; 'I' for Inactive)
    1  A    between atoms: O_1  and  C_3
    2  A    between atoms: O_1  and  C_38
    3  A    between atoms: N_2  and  C_21
    4  A    between atoms: C_3  and  C_31
    5  A    between atoms: C_5  and  C_16
    6  A    between atoms: C_5  and  C_29
    7  A    between atoms: C_6  and  C_39
    8  A    between atoms: N_8  and  C_30
    9  A    between atoms: C_9  and  C_11
   10  A    between atoms: C_9  and  C_35
   11  A    between atoms: C_14  and  C_18
   12  A    between atoms: C_14  and  C_22
   13  A    between atoms: C_18  and  N_37
   14  A    between atoms: C_21  and  C_22
                            x       y       z     vdW  Elec       q    Type
                         _______ _______ _______ _____ _____    ______ ____

>  <TORSDO>
F 14

$$$$
=
 OpenBabel11052411453D

 40 44  0  0  1  0  0  0  0  0999 V2000
  161.3360  206.4950  147.6840 N   0  0  0  0  0  0  0  0  0  0  0  0
  160.8310  205.3600  149.6080 C   0  0  2  0  0  3  0  0  0  0  0  0
  162.2550  206.9380  148.6520 C   0  0  0  0  0  0  0  0  0  0  0  0
  160.4370  205.5460  148.1980 N   0  0  0  0  0  2  0  0  0  0  0  0
  163.1760  207.7650  148.4170 O   0  0  0  0  0  0  0  0  0  0  0  0
  162.0130  206.2900  149.9460 C   0  0  1  0  0  3  0  0  0  0  0  0
  161.6140  207.2930  150.9920 C   0  0  0  0  0  0  0  0  0  0  0  0
  160.8900  209.1250  152.8740 N   0  0  0  0  0  0  0  0  0  0  0  0
  161.5850  208.6200  150.6910 N   0  0  0  0  0  0  0  0  0  0  0  0
  160.9130  207.8320  153.1960 N   0  0  0  0  0  0  0  0  0  0  0  0
  161.1860  210.9180  151.2920 N   0  0  0  0  0  1  0  0  0  0  0  0
  161.2730  205.4500  152.6900 C   0  0  0  0  0  1  0  0  0  0  0  0
  161.2680  206.8860  152.2880 C   0  0  0  0  0  0  0  0  0  0  0  0
  161.2230  209.5350  151.6240 C   0  0  0  0  0  0  0  0  0  0  0  0
  161.1720  203.8980  149.8860 C   0  0  0  0  0  2  0  0  0  0  0  0
  160.2630  201.5760  149.7690 C   0  0  2  0  0  3  0  0  0  0  0  0
  161.1110  201.8100  148.5260 C   0  0  1  0  0  0  0  0  0  0  0  0
  160.2810  202.9360  149.1040 C   0  0  2  0  0  3  0  0  0  0  0  0
  161.5790  200.8480  149.5980 C   0  0  0  0  0  2  0  0  0  0  0  0
  160.3980  201.1090  147.3850 C   0  0  0  0  0  2  0  0  0  0  0  0
  160.0810  201.3530  144.8940 N   0  0  0  0  0  1  0  0  0  0  0  0
  160.7370  201.7600  146.0880 C   0  0  0  0  0  0  0  0  0  0  0  0
  161.5840  202.6910  146.0550 O   0  0  0  0  0  0  0  0  0  0  0  0
  161.3590  206.9240  146.2890 C   0  0  0  0  0  2  0  0  0  0  0  0
  160.5610  205.9860  145.4000 C   0  0  0  0  0  2  0  0  0  0  0  0
  161.4510  205.4470  144.2990 C   0  0  0  0  0  2  0  0  0  0  0  0
  161.2070  206.2070  143.0080 C   0  0  0  0  0  2  0  0  0  0  0  0
  162.3170  206.5400  140.7720 C   0  0  0  0  0  0  0  0  0  0  0  0
  161.3730  207.5600  140.4290 N   0  0  0  0  0  2  0  0  0  0  0  0
  163.2280  206.2180  139.9640 O   0  0  0  0  0  0  0  0  0  0  0  0
  162.2350  205.8800  142.0350 N   0  0  0  0  0  2  0  0  0  0  0  0
  162.3070  210.0720  140.4220 O   0  0  0  0  0  1  0  0  0  0  0  0
  161.6250  207.4110  137.8940 C   0  0  0  0  0  1  0  0  0  0  0  0
  161.9500  209.6600  139.1360 C   0  0  1  0  0  3  0  0  0  0  0  0
  161.3770  208.2500  139.1420 C   0  0  2  0  0  0  0  0  0  0  0  0
  160.4370  209.4460  139.0800 C   0  0  2  0  0  3  0  0  0  0  0  0
  159.9380  209.7470  137.6740 C   0  0  0  0  0  2  0  0  0  0  0  0
  158.5680  209.4910  137.5980 O   0  0  0  0  0  0  0  0  0  0  0  0
  156.5750  209.6600  138.8860 C   0  0  0  0  0  1  0  0  0  0  0  0
  158.0860  209.7810  138.8760 C   0  0  0  0  0  2  0  0  0  0  0  0
  1  4  1  0  0  0  0
  1  3  1  0  0  0  0
  2 15  1  6  0  0  0
  2  6  1  0  0  0  0
  3  6  1  0  0  0  0
  4  2  1  0  0  0  0
  5  3  2  0  0  0  0
  6  7  1  1  0  0  0
  7 13  1  0  0  0  0
  8 10  1  0  0  0  0
  9  7  2  0  0  0  0
  9 14  1  0  0  0  0
 11 14  1  0  0  0  0
 13 12  1  0  0  0  0
 13 10  2  0  0  0  0
 14  8  2  0  0  0  0
 16 19  1  1  0  0  0
 17 20  1  6  0  0  0
 17 18  1  0  0  0  0
 17 19  1  0  0  0  0
 17 16  1  0  0  0  0
 18 16  1  0  0  0  0
 18 15  1  1  0  0  0
 21 22  1  0  0  0  0
 22 20  1  0  0  0  0
 23 22  2  0  0  0  0
 24  1  1  0  0  0  0
 25 24  1  0  0  0  0
 26 25  1  0  0  0  0
 27 26  1  0  0  0  0
 28 31  1  0  0  0  0
 29 28  1  0  0  0  0
 30 28  2  0  0  0  0
 31 27  1  0  0  0  0
 34 35  1  0  0  0  0
 34 32  1  1  0  0  0
 35 33  1  6  0  0  0
 35 29  1  0  0  0  0
 36 37  1  6  0  0  0
 36 34  1  0  0  0  0
 36 35  1  0  0  0  0
 38 37  1  0  0  0  0
 38 40  1  0  0  0  0
 40 39  1  0  0  0  0
M  END
>  <MODEL>
6

>  <REMARK>
 VINA RESULT:      -5.5      3.455      4.819
  Name = 
  14 active torsions:
  status: ('A' for Active; 'I' for Inactive)
    1  A    between atoms: O_1  and  C_3
    2  A    between atoms: O_1  and  C_38
    3  A    between atoms: N_2  and  C_21
    4  A    between atoms: C_3  and  C_31
    5  A    between atoms: C_5  and  C_16
    6  A    between atoms: C_5  and  C_29
    7  A    between atoms: C_6  and  C_39
    8  A    between atoms: N_8  and  C_30
    9  A    between atoms: C_9  and  C_11
   10  A    between atoms: C_9  and  C_35
   11  A    between atoms: C_14  and  C_18
   12  A    between atoms: C_14  and  C_22
   13  A    between atoms: C_18  and  N_37
   14  A    between atoms: C_21  and  C_22
                            x       y       z     vdW  Elec       q    Type
                         _______ _______ _______ _____ _____    ______ ____

>  <TORSDO>
F 14

$$$$
=
 OpenBabel11052411453D

 40 44  0  0  1  0  0  0  0  0999 V2000
  162.0330  208.6550  148.7980 N   0  0  0  0  0  0  0  0  0  0  0  0
  160.5620  206.9090  148.6170 C   0  0  2  0  0  3  0  0  0  0  0  0
  162.6750  207.5420  149.3700 C   0  0  0  0  0  0  0  0  0  0  0  0
  160.7460  208.3450  148.3310 N   0  0  0  0  0  2  0  0  0  0  0  0
  163.8480  207.5690  149.8300 O   0  0  0  0  0  0  0  0  0  0  0  0
  161.8110  206.3560  149.3320 C   0  0  1  0  0  3  0  0  0  0  0  0
  161.4640  205.8890  150.7180 C   0  0  0  0  0  0  0  0  0  0  0  0
  160.8320  205.0620  153.2360 N   0  0  0  0  0  0  0  0  0  0  0  0
  161.4220  206.7780  151.7480 N   0  0  0  0  0  0  0  0  0  0  0  0
  160.8690  204.1710  152.2450 N   0  0  0  0  0  0  0  0  0  0  0  0
  161.0550  207.3110  154.0680 N   0  0  0  0  0  1  0  0  0  0  0  0
  161.2010  203.5120  149.8960 C   0  0  0  0  0  1  0  0  0  0  0  0
  161.1780  204.5420  150.9750 C   0  0  0  0  0  0  0  0  0  0  0  0
  161.1060  206.3700  153.0030 C   0  0  0  0  0  0  0  0  0  0  0  0
  160.2640  206.1360  147.3340 C   0  0  0  0  0  2  0  0  0  0  0  0
  162.0370  205.4580  145.7140 C   0  0  2  0  0  3  0  0  0  0  0  0
  160.9880  204.3550  145.7480 C   0  0  1  0  0  0  0  0  0  0  0  0
  161.3440  205.1060  147.0130 C   0  0  2  0  0  3  0  0  0  0  0  0
  161.1420  205.2230  144.5160 C   0  0  0  0  0  2  0  0  0  0  0  0
  161.7430  203.0430  145.6360 C   0  0  0  0  0  2  0  0  0  0  0  0
  160.0550  201.3240  144.8870 N   0  0  0  0  0  1  0  0  0  0  0  0
  160.8340  201.9000  145.9290 C   0  0  0  0  0  0  0  0  0  0  0  0
  160.7780  201.4230  147.0920 O   0  0  0  0  0  0  0  0  0  0  0  0
  162.6620  209.9640  148.6480 C   0  0  0  0  0  2  0  0  0  0  0  0
  161.9620  211.0220  149.4820 C   0  0  0  0  0  2  0  0  0  0  0  0
  161.3810  212.0860  148.5730 C   0  0  0  0  0  2  0  0  0  0  0  0
  161.0140  213.3190  149.3780 C   0  0  0  0  0  2  0  0  0  0  0  0
  159.0660  213.1520  150.9670 C   0  0  0  0  0  0  0  0  0  0  0  0
  159.9540  212.9580  152.0730 N   0  0  0  0  0  2  0  0  0  0  0  0
  157.8190  213.1680  151.1460 O   0  0  0  0  0  0  0  0  0  0  0  0
  159.5860  213.3300  149.6490 N   0  0  0  0  0  2  0  0  0  0  0  0
  161.2160  211.0500  153.4680 O   0  0  0  0  0  1  0  0  0  0  0  0
  158.9790  213.9450  154.2140 C   0  0  0  0  0  1  0  0  0  0  0  0
  160.2390  211.6830  154.2410 C   0  0  1  0  0  3  0  0  0  0  0  0
  159.4900  212.7360  153.4380 C   0  0  2  0  0  0  0  0  0  0  0  0
  158.8600  211.3680  153.6610 C   0  0  2  0  0  3  0  0  0  0  0  0
  157.8330  211.3540  154.7840 C   0  0  0  0  0  2  0  0  0  0  0  0
  156.5490  211.4480  154.2470 O   0  0  0  0  0  0  0  0  0  0  0  0
  156.5740  212.1640  156.5160 C   0  0  0  0  0  1  0  0  0  0  0  0
  155.8230  212.1680  155.1990 C   0  0  0  0  0  2  0  0  0  0  0  0
  1  3  1  0  0  0  0
  2 15  1  6  0  0  0
  2  6  1  0  0  0  0
  3  5  2  0  0  0  0
  4  2  1  0  0  0  0
  4  1  1  0  0  0  0
  6  3  1  0  0  0  0
  6  7  1  1  0  0  0
  7 13  1  0  0  0  0
  7  9  2  0  0  0  0
  9 14  1  0  0  0  0
 10  8  1  0  0  0  0
 12 13  1  0  0  0  0
 13 10  2  0  0  0  0
 14  8  2  0  0  0  0
 14 11  1  0  0  0  0
 16 19  1  6  0  0  0
 16 17  1  0  0  0  0
 16 18  1  0  0  0  0
 17 20  1  6  0  0  0
 17 18  1  0  0  0  0
 18 15  1  6  0  0  0
 19 17  1  0  0  0  0
 20 22  1  0  0  0  0
 21 22  1  0  0  0  0
 22 23  2  0  0  0  0
 24  1  1  0  0  0  0
 24 25  1  0  0  0  0
 26 27  1  0  0  0  0
 26 25  1  0  0  0  0
 27 31  1  0  0  0  0
 28 30  2  0  0  0  0
 28 29  1  0  0  0  0
 29 35  1  0  0  0  0
 31 28  1  0  0  0  0
 34 32  1  6  0  0  0
 35 36  1  0  0  0  0
 35 33  1  1  0  0  0
 35 34  1  0  0  0  0
 36 34  1  0  0  0  0
 36 37  1  1  0  0  0
 38 37  1  0  0  0  0
 38 40  1  0  0  0  0
 40 39  1  0  0  0  0
M  END
>  <MODEL>
7

>  <REMARK>
 VINA RESULT:      -5.1      4.265      7.646
  Name = 
  14 active torsions:
  status: ('A' for Active; 'I' for Inactive)
    1  A    between atoms: O_1  and  C_3
    2  A    between atoms: O_1  and  C_38
    3  A    between atoms: N_2  and  C_21
    4  A    between atoms: C_3  and  C_31
    5  A    between atoms: C_5  and  C_16
    6  A    between atoms: C_5  and  C_29
    7  A    between atoms: C_6  and  C_39
    8  A    between atoms: N_8  and  C_30
    9  A    between atoms: C_9  and  C_11
   10  A    between atoms: C_9  and  C_35
   11  A    between atoms: C_14  and  C_18
   12  A    between atoms: C_14  and  C_22
   13  A    between atoms: C_18  and  N_37
   14  A    between atoms: C_21  and  C_22
                            x       y       z     vdW  Elec       q    Type
                         _______ _______ _______ _____ _____    ______ ____

>  <TORSDO>
F 14

$$$$
=
 OpenBabel11052411453D

 40 44  0  0  1  0  0  0  0  0999 V2000
  161.4490  207.6250  152.2810 N   0  0  0  0  0  0  0  0  0  0  0  0
  161.3350  208.7090  150.2660 C   0  0  2  0  0  3  0  0  0  0  0  0
  162.3990  207.0060  151.4490 C   0  0  0  0  0  0  0  0  0  0  0  0
  160.7610  208.6590  151.6250 N   0  0  0  0  0  2  0  0  0  0  0  0
  163.1590  206.0740  151.8260 O   0  0  0  0  0  0  0  0  0  0  0  0
  162.4020  207.6080  150.1110 C   0  0  1  0  0  3  0  0  0  0  0  0
  161.9850  206.6120  149.0650 C   0  0  0  0  0  0  0  0  0  0  0  0
  161.2430  204.8150  147.1560 N   0  0  0  0  0  0  0  0  0  0  0  0
  162.4420  206.7300  147.7880 N   0  0  0  0  0  0  0  0  0  0  0  0
  160.7780  204.6790  148.3980 N   0  0  0  0  0  0  0  0  0  0  0  0
  162.5700  205.9650  145.5080 N   0  0  0  0  0  1  0  0  0  0  0  0
  160.5860  205.3570  150.7560 C   0  0  0  0  0  1  0  0  0  0  0  0
  161.1240  205.5520  149.3800 C   0  0  0  0  0  0  0  0  0  0  0  0
  162.0760  205.8360  146.8350 C   0  0  0  0  0  0  0  0  0  0  0  0
  161.9130  210.0930  149.9750 C   0  0  0  0  0  2  0  0  0  0  0  0
  162.7450  211.6110  148.1760 C   0  0  2  0  0  3  0  0  0  0  0  0
  161.2540  211.8650  148.3520 C   0  0  1  0  0  0  0  0  0  0  0  0
  161.8090  210.4640  148.4980 C   0  0  2  0  0  3  0  0  0  0  0  0
  162.2610  212.9170  148.7700 C   0  0  0  0  0  2  0  0  0  0  0  0
  160.6960  212.1120  146.9620 C   0  0  0  0  0  2  0  0  0  0  0  0
  158.2970  212.6540  147.5250 N   0  0  0  0  0  1  0  0  0  0  0  0
  159.5610  213.0740  147.0260 C   0  0  0  0  0  0  0  0  0  0  0  0
  159.7290  214.2690  146.6670 O   0  0  0  0  0  0  0  0  0  0  0  0
  161.2510  207.2760  153.6840 C   0  0  0  0  0  2  0  0  0  0  0  0
  160.8470  208.4840  154.5120 C   0  0  0  0  0  2  0  0  0  0  0  0
  160.2830  208.0250  155.8410 C   0  0  0  0  0  2  0  0  0  0  0  0
  159.9370  209.2250  156.7050 C   0  0  0  0  0  2  0  0  0  0  0  0
  159.7310  211.5280  155.7060 C   0  0  0  0  0  0  0  0  0  0  0  0
  158.3050  211.4710  155.8090 N   0  0  0  0  0  2  0  0  0  0  0  0
  160.2950  212.5470  155.2270 O   0  0  0  0  0  0  0  0  0  0  0  0
  160.5290  210.4290  156.1460 N   0  0  0  0  0  2  0  0  0  0  0  0
  155.9640  210.7240  154.7390 O   0  0  0  0  0  1  0  0  0  0  0  0
  157.4540  213.8560  156.1200 C   0  0  0  0  0  1  0  0  0  0  0  0
  156.0820  212.1150  154.7820 C   0  0  1  0  0  3  0  0  0  0  0  0
  157.4280  212.5420  155.3460 C   0  0  2  0  0  0  0  0  0  0  0  0
  157.2050  212.5510  153.8410 C   0  0  2  0  0  3  0  0  0  0  0  0
  156.8900  213.9330  153.2870 C   0  0  0  0  0  2  0  0  0  0  0  0
  157.4430  214.0660  152.0120 O   0  0  0  0  0  0  0  0  0  0  0  0
  159.6650  213.4250  151.4550 C   0  0  0  0  0  1  0  0  0  0  0  0
  158.2860  212.9610  151.8800 C   0  0  0  0  0  2  0  0  0  0  0  0
  1 24  1  0  0  0  0
  2 15  1  1  0  0  0
  2  4  1  0  0  0  0
  3  5  2  0  0  0  0
  3  1  1  0  0  0  0
  4  1  1  0  0  0  0
  6  7  1  6  0  0  0
  6  2  1  0  0  0  0
  6  3  1  0  0  0  0
  7 13  1  0  0  0  0
  8 10  1  0  0  0  0
  9  7  2  0  0  0  0
 10 13  2  0  0  0  0
 11 14  1  0  0  0  0
 13 12  1  0  0  0  0
 14  8  2  0  0  0  0
 14  9  1  0  0  0  0
 16 17  1  0  0  0  0
 16 18  1  0  0  0  0
 16 19  1  1  0  0  0
 17 20  1  6  0  0  0
 17 18  1  0  0  0  0
 17 19  1  0  0  0  0
 18 15  1  1  0  0  0
 20 22  1  0  0  0  0
 22 21  1  0  0  0  0
 23 22  2  0  0  0  0
 24 25  1  0  0  0  0
 25 26  1  0  0  0  0
 26 27  1  0  0  0  0
 28 29  1  0  0  0  0
 28 31  1  0  0  0  0
 30 28  2  0  0  0  0
 31 27  1  0  0  0  0
 34 32  1  6  0  0  0
 34 35  1  0  0  0  0
 35 29  1  0  0  0  0
 35 33  1  1  0  0  0
 36 37  1  1  0  0  0
 36 34  1  0  0  0  0
 36 35  1  0  0  0  0
 38 37  1  0  0  0  0
 39 40  1  0  0  0  0
 40 38  1  0  0  0  0
M  END
>  <MODEL>
8

>  <REMARK>
 VINA RESULT:      -5.0      3.573      9.396
  Name = 
  14 active torsions:
  status: ('A' for Active; 'I' for Inactive)
    1  A    between atoms: O_1  and  C_3
    2  A    between atoms: O_1  and  C_38
    3  A    between atoms: N_2  and  C_21
    4  A    between atoms: C_3  and  C_31
    5  A    between atoms: C_5  and  C_16
    6  A    between atoms: C_5  and  C_29
    7  A    between atoms: C_6  and  C_39
    8  A    between atoms: N_8  and  C_30
    9  A    between atoms: C_9  and  C_11
   10  A    between atoms: C_9  and  C_35
   11  A    between atoms: C_14  and  C_18
   12  A    between atoms: C_14  and  C_22
   13  A    between atoms: C_18  and  N_37
   14  A    between atoms: C_21  and  C_22
                            x       y       z     vdW  Elec       q    Type
                         _______ _______ _______ _____ _____    ______ ____

>  <TORSDO>
F 14

$$$$
=
 OpenBabel11052411453D

 40 44  0  0  1  0  0  0  0  0999 V2000
  160.6330  209.2630  139.0790 N   0  0  0  0  0  0  0  0  0  0  0  0
  160.0240  211.3820  139.6970 C   0  0  2  0  0  3  0  0  0  0  0  0
  159.7340  209.7130  138.0970 C   0  0  0  0  0  0  0  0  0  0  0  0
  160.8470  210.2200  140.0840 N   0  0  0  0  0  2  0  0  0  0  0  0
  159.4100  209.0410  137.0810 O   0  0  0  0  0  0  0  0  0  0  0  0
  159.2520  211.0660  138.4010 C   0  0  1  0  0  3  0  0  0  0  0  0
  157.7710  211.0740  138.6530 C   0  0  0  0  0  0  0  0  0  0  0  0
  155.0860  211.0700  139.1180 N   0  0  0  0  0  0  0  0  0  0  0  0
  157.1320  209.9270  139.0120 N   0  0  0  0  0  0  0  0  0  0  0  0
  155.6870  212.2070  138.7640 N   0  0  0  0  0  0  0  0  0  0  0  0
  155.1430  208.7180  139.6310 N   0  0  0  0  0  1  0  0  0  0  0  0
  157.6540  213.5470  138.1380 C   0  0  0  0  0  1  0  0  0  0  0  0
  157.0230  212.2530  138.5240 C   0  0  0  0  0  0  0  0  0  0  0  0
  155.7960  209.9210  139.2460 C   0  0  0  0  0  0  0  0  0  0  0  0
  160.8910  212.6300  139.5420 C   0  0  0  0  0  2  0  0  0  0  0  0
  161.9130  214.2480  141.1450 C   0  0  2  0  0  3  0  0  0  0  0  0
  161.1690  213.1930  141.9530 C   0  0  1  0  0  0  0  0  0  0  0  0
  160.6140  213.6670  140.6270 C   0  0  2  0  0  3  0  0  0  0  0  0
  162.6820  213.2480  141.9820 C   0  0  0  0  0  2  0  0  0  0  0  0
  160.5360  213.9210  143.1250 C   0  0  0  0  0  2  0  0  0  0  0  0
  159.0790  212.3320  144.4360 N   0  0  0  0  0  1  0  0  0  0  0  0
  160.3320  212.9830  144.2640 C   0  0  0  0  0  0  0  0  0  0  0  0
  161.2790  212.7440  145.0580 O   0  0  0  0  0  0  0  0  0  0  0  0
  161.3170  207.9740  139.0220 C   0  0  0  0  0  2  0  0  0  0  0  0
  162.2760  207.7950  140.1850 C   0  0  0  0  0  2  0  0  0  0  0  0
  162.1940  206.3730  140.7000 C   0  0  0  0  0  2  0  0  0  0  0  0
  162.2190  206.3630  142.2180 C   0  0  0  0  0  2  0  0  0  0  0  0
  161.0610  205.1890  144.1220 C   0  0  0  0  0  0  0  0  0  0  0  0
  161.9230  205.8270  145.0700 N   0  0  0  0  0  2  0  0  0  0  0  0
  160.1670  204.3910  144.5100 O   0  0  0  0  0  0  0  0  0  0  0  0
  161.2060  205.4530  142.7270 N   0  0  0  0  0  2  0  0  0  0  0  0
  164.0550  204.6450  146.1830 O   0  0  0  0  0  1  0  0  0  0  0  0
  161.0880  206.5810  147.3600 C   0  0  0  0  0  1  0  0  0  0  0  0
  163.0840  204.9460  147.1410 C   0  0  1  0  0  3  0  0  0  0  0  0
  161.8530  205.5750  146.5060 C   0  0  2  0  0  0  0  0  0  0  0  0
  161.8400  204.0990  146.8750 C   0  0  2  0  0  3  0  0  0  0  0  0
  161.1340  203.8140  148.1930 C   0  0  0  0  0  2  0  0  0  0  0  0
  160.8430  202.4520  148.2840 O   0  0  0  0  0  0  0  0  0  0  0  0
  160.8170  203.4890  150.4250 C   0  0  0  0  0  1  0  0  0  0  0  0
  160.8480  202.1840  149.6550 C   0  0  0  0  0  2  0  0  0  0  0  0
  1  4  1  0  0  0  0
  2 15  1  6  0  0  0
  2  4  1  0  0  0  0
  3  6  1  0  0  0  0
  3  1  1  0  0  0  0
  5  3  2  0  0  0  0
  6  7  1  1  0  0  0
  6  2  1  0  0  0  0
  7  9  2  0  0  0  0
  8 14  2  0  0  0  0
  9 14  1  0  0  0  0
 10  8  1  0  0  0  0
 12 13  1  0  0  0  0
 13  7  1  0  0  0  0
 13 10  2  0  0  0  0
 14 11  1  0  0  0  0
 16 17  1  0  0  0  0
 16 19  1  6  0  0  0
 17 19  1  0  0  0  0
 17 20  1  1  0  0  0
 18 15  1  6  0  0  0
 18 16  1  0  0  0  0
 18 17  1  0  0  0  0
 20 22  1  0  0  0  0
 22 21  1  0  0  0  0
 22 23  2  0  0  0  0
 24  1  1  0  0  0  0
 24 25  1  0  0  0  0
 25 26  1  0  0  0  0
 26 27  1  0  0  0  0
 27 31  1  0  0  0  0
 28 30  2  0  0  0  0
 28 29  1  0  0  0  0
 29 35  1  0  0  0  0
 31 28  1  0  0  0  0
 34 32  1  6  0  0  0
 35 36  1  0  0  0  0
 35 34  1  0  0  0  0
 35 33  1  1  0  0  0
 36 34  1  0  0  0  0
 36 37  1  1  0  0  0
 37 38  1  0  0  0  0
 38 40  1  0  0  0  0
 40 39  1  0  0  0  0
M  END
>  <MODEL>
9

>  <REMARK>
 VINA RESULT:      -5.0      4.893     12.415
  Name = 
  14 active torsions:
  status: ('A' for Active; 'I' for Inactive)
    1  A    between atoms: O_1  and  C_3
    2  A    between atoms: O_1  and  C_38
    3  A    between atoms: N_2  and  C_21
    4  A    between atoms: C_3  and  C_31
    5  A    between atoms: C_5  and  C_16
    6  A    between atoms: C_5  and  C_29
    7  A    between atoms: C_6  and  C_39
    8  A    between atoms: N_8  and  C_30
    9  A    between atoms: C_9  and  C_11
   10  A    between atoms: C_9  and  C_35
   11  A    between atoms: C_14  and  C_18
   12  A    between atoms: C_14  and  C_22
   13  A    between atoms: C_18  and  N_37
   14  A    between atoms: C_21  and  C_22
                            x       y       z     vdW  Elec       q    Type
                         _______ _______ _______ _____ _____    ______ ____

>  <TORSDO>
F 14

$$$$
