=
 OpenBabel11042420283D

 31 33  0  0  1  0  0  0  0  0999 V2000
  161.4540  209.1460  151.5010 C   0  0  0  0  0  0  0  0  0  0  0  0
  160.7000  206.7800  153.2500 C   0  0  0  0  0  3  0  0  0  0  0  0
  161.2700  209.1330  153.9960 C   0  0  0  0  0  0  0  0  0  0  0  0
  161.0860  209.7490  152.6450 C   0  0  0  0  0  0  0  0  0  0  0  0
  161.1260  206.7630  151.9820 C   0  0  0  0  0  0  0  0  0  0  0  0
  161.0330  207.8270  154.2360 C   0  0  0  0  0  3  0  0  0  0  0  0
  161.1940  209.7620  150.2770 O   0  0  0  0  0  1  0  0  0  0  0  0
  160.4380  211.0960  152.5750 C   0  0  0  0  0  1  0  0  0  0  0  0
  162.1140  207.7970  151.5240 C   0  0  1  0  0  3  0  0  0  0  0  0
  161.5570  210.9960  157.2610 C   0  0  0  0  0  2  0  0  0  0  0  0
  161.6040  209.9830  155.1110 N   0  0  0  0  0  0  0  0  0  0  0  0
  162.9420  210.5050  155.3170 C   0  0  0  0  0  2  0  0  0  0  0  0
  162.9910  210.9870  156.7540 C   0  0  0  0  0  2  0  0  0  0  0  0
  160.7410  210.1910  156.2650 C   0  0  2  0  0  3  0  0  0  0  0  0
  159.5510  212.3700  155.8150 N   0  0  0  0  0  1  0  0  0  0  0  0
  158.4400  210.3420  155.6100 O   0  0  0  0  0  0  0  0  0  0  0  0
  159.5090  210.9500  155.8830 C   0  0  0  0  0  0  0  0  0  0  0  0
  162.7790  207.4400  150.2250 C   0  0  0  0  0  3  0  0  0  0  0  0
  162.0610  207.2720  149.1180 C   0  0  0  0  0  3  0  0  0  0  0  0
  162.7370  206.9160  147.8390 C   0  0  0  0  0  2  0  0  0  0  0  0
  162.1900  205.6810  145.7100 N   0  0  0  0  0  1  0  0  0  0  0  0
  161.7460  206.3540  146.8820 C   0  0  0  0  0  0  0  0  0  0  0  0
  160.5140  206.4480  147.1230 O   0  0  0  0  0  0  0  0  0  0  0  0
  160.7110  205.7150  151.0900 N   0  0  0  0  0  2  0  0  0  0  0  0
  161.4340  201.0880  149.7790 N   0  0  0  0  0  2  0  0  0  0  0  0
  160.8890  203.7200  149.0140 N   0  0  0  0  0  2  0  0  0  0  0  0
  160.8400  203.3740  150.4040 C   0  0  0  0  0  0  0  0  0  0  0  0
  160.7850  201.3300  148.4920 C   0  0  0  0  0  2  0  0  0  0  0  0
  160.7750  204.3070  151.3570 C   0  0  0  0  0  3  0  0  0  0  0  0
  160.7980  201.9260  150.7960 C   0  0  0  0  0  2  0  0  0  0  0  0
  161.1690  202.7190  147.9910 C   0  0  0  0  0  2  0  0  0  0  0  0
  1  9  1  0  0  0  0
  1  4  2  0  0  0  0
  2  6  1  0  0  0  0
  3  6  2  0  0  0  0
  3 11  1  0  0  0  0
  4  3  1  0  0  0  0
  5  2  2  0  0  0  0
  7  1  1  0  0  0  0
  8  4  1  0  0  0  0
  9 18  1  6  0  0  0
  9  5  1  0  0  0  0
 11 12  1  0  0  0  0
 11 14  1  0  0  0  0
 12 13  1  0  0  0  0
 13 10  1  0  0  0  0
 14 17  1  6  0  0  0
 14 10  1  0  0  0  0
 15 17  1  0  0  0  0
 16 17  2  0  0  0  0
 19 18  2  0  0  0  0
 20 19  1  0  0  0  0
 21 22  1  0  0  0  0
 22 23  2  0  0  0  0
 22 20  1  0  0  0  0
 24 29  1  0  0  0  0
 24  5  1  0  0  0  0
 25 30  1  0  0  0  0
 26 27  1  0  0  0  0
 27 30  1  0  0  0  0
 27 29  2  0  0  0  0
 28 25  1  0  0  0  0
 31 28  1  0  0  0  0
 31 26  1  0  0  0  0
M  END
>  <MODEL>
1

>  <REMARK>
 VINA RESULT:      -7.0      0.000      0.000
  Name = 
  7 active torsions:
  status: ('A' for Active; 'I' for Inactive)
    1  A    between atoms: C_3  and  C_29
    2  A    between atoms: N_5  and  C_13
    3  A    between atoms: C_11  and  C_21
    4  A    between atoms: C_16  and  N_17
    5  A    between atoms: N_17  and  C_18
    6  A    between atoms: C_21  and  C_24
    7  A    between atoms: C_30  and  C_31
                            x       y       z     vdW  Elec       q    Type
                         _______ _______ _______ _____ _____    ______ ____

>  <TORSDO>
F 7

$$$$
=
 OpenBabel11042420283D

 31 33  0  0  1  0  0  0  0  0999 V2000
  161.0150  206.8470  152.5350 C   0  0  0  0  0  0  0  0  0  0  0  0
  162.1630  208.9810  150.7050 C   0  0  0  0  0  3  0  0  0  0  0  0
  160.9500  209.3210  152.9020 C   0  0  0  0  0  0  0  0  0  0  0  0
  161.1050  207.9050  153.3610 C   0  0  0  0  0  0  0  0  0  0  0  0
  161.8820  207.7070  150.4080 C   0  0  0  0  0  0  0  0  0  0  0  0
  161.4830  209.7730  151.7490 C   0  0  0  0  0  3  0  0  0  0  0  0
  161.2310  205.5620  153.0300 O   0  0  0  0  0  1  0  0  0  0  0  0
  161.3970  207.6690  154.8090 C   0  0  0  0  0  1  0  0  0  0  0  0
  160.7160  207.0380  151.0760 C   0  0  1  0  0  3  0  0  0  0  0  0
  159.9170  212.2050  155.0990 C   0  0  0  0  0  2  0  0  0  0  0  0
  160.3050  210.2700  153.7750 N   0  0  0  0  0  0  0  0  0  0  0  0
  158.8620  210.3910  153.8600 C   0  0  0  0  0  2  0  0  0  0  0  0
  158.5890  211.7210  154.5370 C   0  0  0  0  0  2  0  0  0  0  0  0
  160.9970  211.3610  154.4460 C   0  0  2  0  0  3  0  0  0  0  0  0
  161.4340  210.4740  156.7680 N   0  0  0  0  0  1  0  0  0  0  0  0
  163.1640  210.7110  155.2370 O   0  0  0  0  0  0  0  0  0  0  0  0
  161.9360  210.8400  155.4880 C   0  0  0  0  0  0  0  0  0  0  0  0
  160.2930  205.7710  150.3880 C   0  0  0  0  0  3  0  0  0  0  0  0
  160.6320  204.5830  150.8830 C   0  0  0  0  0  3  0  0  0  0  0  0
  160.2050  203.3370  150.1860 C   0  0  0  0  0  2  0  0  0  0  0  0
  161.1230  201.0110  149.8610 N   0  0  0  0  0  1  0  0  0  0  0  0
  161.0300  202.1890  150.6520 C   0  0  0  0  0  0  0  0  0  0  0  0
  161.6690  202.2710  151.7340 O   0  0  0  0  0  0  0  0  0  0  0  0
  162.6330  207.0140  149.3980 N   0  0  0  0  0  2  0  0  0  0  0  0
  161.2670  205.1570  145.1150 N   0  0  0  0  0  2  0  0  0  0  0  0
  162.0790  204.7110  147.7520 N   0  0  0  0  0  2  0  0  0  0  0  0
  162.1750  206.0330  147.2070 C   0  0  0  0  0  0  0  0  0  0  0  0
  161.8560  203.8660  145.4640 C   0  0  0  0  0  2  0  0  0  0  0  0
  162.4150  207.0940  147.9820 C   0  0  0  0  0  3  0  0  0  0  0  0
  162.0640  206.2230  145.7240 C   0  0  0  0  0  2  0  0  0  0  0  0
  161.6140  203.5880  146.9440 C   0  0  0  0  0  2  0  0  0  0  0  0
  1  7  1  0  0  0  0
  1  4  2  0  0  0  0
  2  6  1  0  0  0  0
  3  4  1  0  0  0  0
  3 11  1  0  0  0  0
  4  8  1  0  0  0  0
  5  2  2  0  0  0  0
  5  9  1  0  0  0  0
  6  3  2  0  0  0  0
  9 18  1  6  0  0  0
  9  1  1  0  0  0  0
 11 12  1  0  0  0  0
 11 14  1  0  0  0  0
 12 13  1  0  0  0  0
 13 10  1  0  0  0  0
 14 10  1  0  0  0  0
 14 17  1  1  0  0  0
 16 17  2  0  0  0  0
 17 15  1  0  0  0  0
 18 19  2  0  0  0  0
 20 22  1  0  0  0  0
 20 19  1  0  0  0  0
 21 22  1  0  0  0  0
 22 23  2  0  0  0  0
 24  5  1  0  0  0  0
 25 28  1  0  0  0  0
 25 30  1  0  0  0  0
 27 26  1  0  0  0  0
 27 29  2  0  0  0  0
 28 31  1  0  0  0  0
 29 24  1  0  0  0  0
 30 27  1  0  0  0  0
 31 26  1  0  0  0  0
M  END
>  <MODEL>
2

>  <REMARK>
 VINA RESULT:      -6.9      2.166      4.004
  Name = 
  7 active torsions:
  status: ('A' for Active; 'I' for Inactive)
    1  A    between atoms: C_3  and  C_29
    2  A    between atoms: N_5  and  C_13
    3  A    between atoms: C_11  and  C_21
    4  A    between atoms: C_16  and  N_17
    5  A    between atoms: N_17  and  C_18
    6  A    between atoms: C_21  and  C_24
    7  A    between atoms: C_30  and  C_31
                            x       y       z     vdW  Elec       q    Type
                         _______ _______ _______ _____ _____    ______ ____

>  <TORSDO>
F 7

$$$$
=
 OpenBabel11042420283D

 31 33  0  0  1  0  0  0  0  0999 V2000
  160.9460  210.5260  151.4640 C   0  0  0  0  0  0  0  0  0  0  0  0
  161.4210  207.5350  151.6920 C   0  0  0  0  0  3  0  0  0  0  0  0
  161.3940  209.2420  153.5640 C   0  0  0  0  0  0  0  0  0  0  0  0
  160.7010  210.3030  152.7680 C   0  0  0  0  0  0  0  0  0  0  0  0
  161.5060  208.3010  150.5990 C   0  0  0  0  0  0  0  0  0  0  0  0
  161.6420  208.0110  153.0730 C   0  0  0  0  0  3  0  0  0  0  0  0
  160.2150  211.4950  150.7780 O   0  0  0  0  0  1  0  0  0  0  0  0
  159.6690  211.1340  153.4620 C   0  0  0  0  0  1  0  0  0  0  0  0
  161.9780  209.7200  150.7290 C   0  0  1  0  0  3  0  0  0  0  0  0
  162.1520  209.1570  157.2560 C   0  0  0  0  0  2  0  0  0  0  0  0
  161.7090  209.5020  154.9470 N   0  0  0  0  0  0  0  0  0  0  0  0
  162.4840  210.6550  155.3630 C   0  0  0  0  0  2  0  0  0  0  0  0
  162.9410  210.3680  156.7810 C   0  0  0  0  0  2  0  0  0  0  0  0
  161.5260  208.5360  156.0200 C   0  0  2  0  0  3  0  0  0  0  0  0
  159.6380  206.9490  156.5510 N   0  0  0  0  0  1  0  0  0  0  0  0
  159.2350  209.2120  156.2230 O   0  0  0  0  0  0  0  0  0  0  0  0
  160.0730  208.2720  156.2620 C   0  0  0  0  0  0  0  0  0  0  0  0
  162.3810  210.3290  149.4160 C   0  0  0  0  0  3  0  0  0  0  0  0
  162.3460  211.6470  149.2400 C   0  0  0  0  0  3  0  0  0  0  0  0
  162.7470  212.2340  147.9300 C   0  0  0  0  0  2  0  0  0  0  0  0
  160.4430  212.0510  146.9250 N   0  0  0  0  0  1  0  0  0  0  0  0
  161.5660  212.8520  147.2700 C   0  0  0  0  0  0  0  0  0  0  0  0
  161.5470  214.0900  147.0430 O   0  0  0  0  0  0  0  0  0  0  0  0
  161.2330  207.7460  149.3010 N   0  0  0  0  0  2  0  0  0  0  0  0
  162.4390  205.1100  145.3960 N   0  0  0  0  0  2  0  0  0  0  0  0
  160.5230  206.6460  146.7310 N   0  0  0  0  0  2  0  0  0  0  0  0
  161.7090  206.2470  147.4320 C   0  0  0  0  0  0  0  0  0  0  0  0
  161.0290  204.9340  145.0550 C   0  0  0  0  0  2  0  0  0  0  0  0
  162.0350  206.7760  148.6130 C   0  0  0  0  0  3  0  0  0  0  0  0
  162.5710  205.1640  146.8530 C   0  0  0  0  0  2  0  0  0  0  0  0
  160.2760  206.2250  145.3560 C   0  0  0  0  0  2  0  0  0  0  0  0
  1  4  2  0  0  0  0
  2  6  1  0  0  0  0
  3 11  1  0  0  0  0
  4  8  1  0  0  0  0
  4  3  1  0  0  0  0
  5  9  1  0  0  0  0
  5  2  2  0  0  0  0
  6  3  2  0  0  0  0
  7  1  1  0  0  0  0
  9 18  1  6  0  0  0
  9  1  1  0  0  0  0
 11 12  1  0  0  0  0
 11 14  1  0  0  0  0
 12 13  1  0  0  0  0
 13 10  1  0  0  0  0
 14 17  1  1  0  0  0
 14 10  1  0  0  0  0
 16 17  2  0  0  0  0
 17 15  1  0  0  0  0
 19 18  2  0  0  0  0
 20 19  1  0  0  0  0
 21 22  1  0  0  0  0
 22 20  1  0  0  0  0
 23 22  2  0  0  0  0
 24  5  1  0  0  0  0
 25 30  1  0  0  0  0
 26 27  1  0  0  0  0
 27 29  2  0  0  0  0
 28 31  1  0  0  0  0
 28 25  1  0  0  0  0
 29 24  1  0  0  0  0
 30 27  1  0  0  0  0
 31 26  1  0  0  0  0
M  END
>  <MODEL>
3

>  <REMARK>
 VINA RESULT:      -6.2      2.718      3.764
  Name = 
  7 active torsions:
  status: ('A' for Active; 'I' for Inactive)
    1  A    between atoms: C_3  and  C_29
    2  A    between atoms: N_5  and  C_13
    3  A    between atoms: C_11  and  C_21
    4  A    between atoms: C_16  and  N_17
    5  A    between atoms: N_17  and  C_18
    6  A    between atoms: C_21  and  C_24
    7  A    between atoms: C_30  and  C_31
                            x       y       z     vdW  Elec       q    Type
                         _______ _______ _______ _____ _____    ______ ____

>  <TORSDO>
F 7

$$$$
=
 OpenBabel11042420283D

 31 33  0  0  1  0  0  0  0  0999 V2000
  161.1680  207.1060  153.0180 C   0  0  0  0  0  0  0  0  0  0  0  0
  162.3270  209.2020  151.1500 C   0  0  0  0  0  3  0  0  0  0  0  0
  161.2640  209.5730  153.4190 C   0  0  0  0  0  0  0  0  0  0  0  0
  161.3650  208.1440  153.8500 C   0  0  0  0  0  0  0  0  0  0  0  0
  161.9580  207.9510  150.8550 C   0  0  0  0  0  0  0  0  0  0  0  0
  161.7540  210.0130  152.2430 C   0  0  0  0  0  3  0  0  0  0  0  0
  161.3390  205.8030  153.4830 O   0  0  0  0  0  1  0  0  0  0  0  0
  161.7270  207.8680  155.2750 C   0  0  0  0  0  1  0  0  0  0  0  0
  160.7970  207.3360  151.5810 C   0  0  1  0  0  3  0  0  0  0  0  0
  159.1760  211.8330  155.5980 C   0  0  0  0  0  2  0  0  0  0  0  0
  160.7260  210.5430  154.3410 N   0  0  0  0  0  0  0  0  0  0  0  0
  161.4660  211.0070  155.4990 C   0  0  0  0  0  2  0  0  0  0  0  0
  160.4510  211.6710  156.4110 C   0  0  0  0  0  2  0  0  0  0  0  0
  159.3300  210.9530  154.3700 C   0  0  2  0  0  3  0  0  0  0  0  0
  159.4240  213.0690  152.9980 N   0  0  0  0  0  1  0  0  0  0  0  0
  158.2880  211.1970  152.2240 O   0  0  0  0  0  0  0  0  0  0  0  0
  158.9730  211.7270  153.1390 C   0  0  0  0  0  0  0  0  0  0  0  0
  160.2630  206.1060  150.9030 C   0  0  0  0  0  3  0  0  0  0  0  0
  160.7510  204.9040  151.1960 C   0  0  0  0  0  3  0  0  0  0  0  0
  160.2120  203.6940  150.5120 C   0  0  0  0  0  2  0  0  0  0  0  0
  160.9330  201.3130  150.1060 N   0  0  0  0  0  1  0  0  0  0  0  0
  161.0180  202.5000  150.8850 C   0  0  0  0  0  0  0  0  0  0  0  0
  161.7980  202.5500  151.8720 O   0  0  0  0  0  0  0  0  0  0  0  0
  162.6090  207.2330  149.7930 N   0  0  0  0  0  2  0  0  0  0  0  0
  161.1430  205.3880  145.5380 N   0  0  0  0  0  2  0  0  0  0  0  0
  162.1440  204.9380  148.1080 N   0  0  0  0  0  2  0  0  0  0  0  0
  162.1010  206.2780  147.6020 C   0  0  0  0  0  0  0  0  0  0  0  0
  161.8530  204.1410  145.8110 C   0  0  0  0  0  2  0  0  0  0  0  0
  162.3010  207.3330  148.3950 C   0  0  0  0  0  3  0  0  0  0  0  0
  161.8880  206.4980  146.1340 C   0  0  0  0  0  2  0  0  0  0  0  0
  161.7220  203.8040  147.2930 C   0  0  0  0  0  2  0  0  0  0  0  0
  1  7  1  0  0  0  0
  1  4  2  0  0  0  0
  2  6  1  0  0  0  0
  3  4  1  0  0  0  0
  3 11  1  0  0  0  0
  4  8  1  0  0  0  0
  5  2  2  0  0  0  0
  5  9  1  0  0  0  0
  6  3  2  0  0  0  0
  9 18  1  6  0  0  0
  9  1  1  0  0  0  0
 10 13  1  0  0  0  0
 11 14  1  0  0  0  0
 11 12  1  0  0  0  0
 12 13  1  0  0  0  0
 14 17  1  6  0  0  0
 14 10  1  0  0  0  0
 15 17  1  0  0  0  0
 16 17  2  0  0  0  0
 18 19  2  0  0  0  0
 20 22  1  0  0  0  0
 20 19  1  0  0  0  0
 21 22  1  0  0  0  0
 22 23  2  0  0  0  0
 24  5  1  0  0  0  0
 25 28  1  0  0  0  0
 25 30  1  0  0  0  0
 27 26  1  0  0  0  0
 27 29  2  0  0  0  0
 28 31  1  0  0  0  0
 29 24  1  0  0  0  0
 30 27  1  0  0  0  0
 31 26  1  0  0  0  0
M  END
>  <MODEL>
4

>  <REMARK>
 VINA RESULT:      -6.0      2.043      3.779
  Name = 
  7 active torsions:
  status: ('A' for Active; 'I' for Inactive)
    1  A    between atoms: C_3  and  C_29
    2  A    between atoms: N_5  and  C_13
    3  A    between atoms: C_11  and  C_21
    4  A    between atoms: C_16  and  N_17
    5  A    between atoms: N_17  and  C_18
    6  A    between atoms: C_21  and  C_24
    7  A    between atoms: C_30  and  C_31
                            x       y       z     vdW  Elec       q    Type
                         _______ _______ _______ _____ _____    ______ ____

>  <TORSDO>
F 7

$$$$
=
 OpenBabel11042420283D

 31 33  0  0  1  0  0  0  0  0999 V2000
  161.8450  208.5380  151.4840 C   0  0  0  0  0  0  0  0  0  0  0  0
  160.9220  206.9780  153.9210 C   0  0  0  0  0  3  0  0  0  0  0  0
  161.2550  206.1080  151.5660 C   0  0  0  0  0  0  0  0  0  0  0  0
  162.0830  207.2680  151.1110 C   0  0  0  0  0  0  0  0  0  0  0  0
  160.9300  208.3040  153.7480 C   0  0  0  0  0  0  0  0  0  0  0  0
  160.8090  205.9870  152.8320 C   0  0  0  0  0  3  0  0  0  0  0  0
  162.6990  209.5560  151.0630 O   0  0  0  0  0  1  0  0  0  0  0  0
  163.2460  206.9850  150.2130 C   0  0  0  0  0  1  0  0  0  0  0  0
  160.6850  208.8680  152.3790 C   0  0  1  0  0  3  0  0  0  0  0  0
  161.1690  203.6090  148.7440 C   0  0  0  0  0  2  0  0  0  0  0  0
  161.0160  205.0190  150.6500 N   0  0  0  0  0  0  0  0  0  0  0  0
  160.5300  203.7260  151.0930 C   0  0  0  0  0  2  0  0  0  0  0  0
  160.7950  202.7620  149.9510 C   0  0  0  0  0  2  0  0  0  0  0  0
  161.4720  205.0010  149.2680 C   0  0  2  0  0  3  0  0  0  0  0  0
  161.2340  206.3670  147.1600 N   0  0  0  0  0  1  0  0  0  0  0  0
  159.7020  206.5730  148.8920 O   0  0  0  0  0  0  0  0  0  0  0  0
  160.7460  206.0230  148.4510 C   0  0  0  0  0  0  0  0  0  0  0  0
  160.3490  210.3320  152.3970 C   0  0  0  0  0  3  0  0  0  0  0  0
  159.0930  210.7390  152.5590 C   0  0  0  0  0  3  0  0  0  0  0  0
  158.7790  212.1960  152.5730 C   0  0  0  0  0  2  0  0  0  0  0  0
  156.9170  213.7010  153.3650 N   0  0  0  0  0  1  0  0  0  0  0  0
  157.5880  212.4480  153.4300 C   0  0  0  0  0  0  0  0  0  0  0  0
  157.1560  211.5430  154.1910 O   0  0  0  0  0  0  0  0  0  0  0  0
  161.0850  209.1830  154.8750 N   0  0  0  0  0  2  0  0  0  0  0  0
  158.2290  212.3920  157.1560 N   0  0  0  0  0  2  0  0  0  0  0  0
  160.5390  211.9040  155.6600 N   0  0  0  0  0  2  0  0  0  0  0  0
  159.8090  210.7940  156.1960 C   0  0  0  0  0  0  0  0  0  0  0  0
  159.3250  213.3560  157.2140 C   0  0  0  0  0  2  0  0  0  0  0  0
  160.0590  209.5400  155.8130 C   0  0  0  0  0  3  0  0  0  0  0  0
  158.7810  211.0400  157.2610 C   0  0  0  0  0  2  0  0  0  0  0  0
  160.1290  213.2800  155.9200 C   0  0  0  0  0  2  0  0  0  0  0  0
  1  9  1  0  0  0  0
  3  6  2  0  0  0  0
  4  1  2  0  0  0  0
  4  3  1  0  0  0  0
  5  2  2  0  0  0  0
  5 24  1  0  0  0  0
  6  2  1  0  0  0  0
  7  1  1  0  0  0  0
  8  4  1  0  0  0  0
  9 18  1  1  0  0  0
  9  5  1  0  0  0  0
 10 14  1  0  0  0  0
 10 13  1  0  0  0  0
 11 12  1  0  0  0  0
 11  3  1  0  0  0  0
 13 12  1  0  0  0  0
 14 17  1  6  0  0  0
 14 11  1  0  0  0  0
 15 17  1  0  0  0  0
 17 16  2  0  0  0  0
 18 19  2  0  0  0  0
 19 20  1  0  0  0  0
 20 22  1  0  0  0  0
 21 22  1  0  0  0  0
 22 23  2  0  0  0  0
 24 29  1  0  0  0  0
 25 28  1  0  0  0  0
 25 30  1  0  0  0  0
 26 31  1  0  0  0  0
 26 27  1  0  0  0  0
 27 30  1  0  0  0  0
 29 27  2  0  0  0  0
 31 28  1  0  0  0  0
M  END
>  <MODEL>
5

>  <REMARK>
 VINA RESULT:      -5.8      1.698      8.451
  Name = 
  7 active torsions:
  status: ('A' for Active; 'I' for Inactive)
    1  A    between atoms: C_3  and  C_29
    2  A    between atoms: N_5  and  C_13
    3  A    between atoms: C_11  and  C_21
    4  A    between atoms: C_16  and  N_17
    5  A    between atoms: N_17  and  C_18
    6  A    between atoms: C_21  and  C_24
    7  A    between atoms: C_30  and  C_31
                            x       y       z     vdW  Elec       q    Type
                         _______ _______ _______ _____ _____    ______ ____

>  <TORSDO>
F 7

$$$$
=
 OpenBabel11042420283D

 31 33  0  0  1  0  0  0  0  0999 V2000
  162.1560  206.2830  148.2810 C   0  0  0  0  0  0  0  0  0  0  0  0
  161.5390  204.3280  150.5210 C   0  0  0  0  0  3  0  0  0  0  0  0
  161.4430  203.8990  148.0270 C   0  0  0  0  0  0  0  0  0  0  0  0
  162.2560  205.0980  147.6530 C   0  0  0  0  0  0  0  0  0  0  0  0
  161.5980  205.6630  150.5870 C   0  0  0  0  0  0  0  0  0  0  0  0
  161.1970  203.5590  149.3080 C   0  0  0  0  0  3  0  0  0  0  0  0
  162.9920  207.3360  147.9110 O   0  0  0  0  0  1  0  0  0  0  0  0
  163.2440  204.9520  146.5390 C   0  0  0  0  0  1  0  0  0  0  0  0
  161.1730  206.4770  149.4000 C   0  0  1  0  0  3  0  0  0  0  0  0
  159.8640  201.2420  145.8680 C   0  0  0  0  0  2  0  0  0  0  0  0
  160.9980  203.0060  146.9850 N   0  0  0  0  0  0  0  0  0  0  0  0
  160.9670  203.3970  145.5890 C   0  0  0  0  0  2  0  0  0  0  0  0
  160.0850  202.3820  144.8860 C   0  0  0  0  0  2  0  0  0  0  0  0
  160.3000  201.7520  147.2290 C   0  0  2  0  0  3  0  0  0  0  0  0
  161.2060  200.6300  149.2990 N   0  0  0  0  0  1  0  0  0  0  0  0
  161.9550  200.0180  147.1890 O   0  0  0  0  0  0  0  0  0  0  0  0
  161.2050  200.7540  147.8830 C   0  0  0  0  0  0  0  0  0  0  0  0
  160.9330  207.9220  149.7330 C   0  0  0  0  0  3  0  0  0  0  0  0
  161.9470  208.7250  150.0440 C   0  0  0  0  0  3  0  0  0  0  0  0
  161.6890  210.1550  150.3740 C   0  0  0  0  0  2  0  0  0  0  0  0
  161.3960  212.3100  149.0990 N   0  0  0  0  0  1  0  0  0  0  0  0
  161.9560  211.0060  149.1820 C   0  0  0  0  0  0  0  0  0  0  0  0
  162.7020  210.5820  148.2610 O   0  0  0  0  0  0  0  0  0  0  0  0
  161.9810  206.3130  151.8100 N   0  0  0  0  0  2  0  0  0  0  0  0
  159.6460  207.9240  155.7610 N   0  0  0  0  0  2  0  0  0  0  0  0
  161.2150  208.5040  153.5230 N   0  0  0  0  0  2  0  0  0  0  0  0
  161.0190  207.1360  153.9000 C   0  0  0  0  0  0  0  0  0  0  0  0
  160.4360  209.1520  155.7520 C   0  0  0  0  0  2  0  0  0  0  0  0
  161.3620  206.1300  153.0920 C   0  0  0  0  0  3  0  0  0  0  0  0
  160.4720  206.8240  155.2620 C   0  0  0  0  0  2  0  0  0  0  0  0
  160.6540  209.5980  154.3090 C   0  0  0  0  0  2  0  0  0  0  0  0
  1  9  1  0  0  0  0
  2  5  2  0  0  0  0
  3  6  2  0  0  0  0
  4  3  1  0  0  0  0
  4  1  2  0  0  0  0
  5 24  1  0  0  0  0
  6  2  1  0  0  0  0
  7  1  1  0  0  0  0
  8  4  1  0  0  0  0
  9 18  1  1  0  0  0
  9  5  1  0  0  0  0
 10 14  1  0  0  0  0
 11 14  1  0  0  0  0
 11  3  1  0  0  0  0
 12 11  1  0  0  0  0
 13 12  1  0  0  0  0
 13 10  1  0  0  0  0
 14 17  1  6  0  0  0
 16 17  2  0  0  0  0
 17 15  1  0  0  0  0
 18 19  2  0  0  0  0
 19 20  1  0  0  0  0
 21 22  1  0  0  0  0
 22 20  1  0  0  0  0
 23 22  2  0  0  0  0
 24 29  1  0  0  0  0
 26 27  1  0  0  0  0
 26 31  1  0  0  0  0
 27 30  1  0  0  0  0
 28 25  1  0  0  0  0
 29 27  2  0  0  0  0
 30 25  1  0  0  0  0
 31 28  1  0  0  0  0
M  END
>  <MODEL>
6

>  <REMARK>
 VINA RESULT:      -5.8      2.502      8.514
  Name = 
  7 active torsions:
  status: ('A' for Active; 'I' for Inactive)
    1  A    between atoms: C_3  and  C_29
    2  A    between atoms: N_5  and  C_13
    3  A    between atoms: C_11  and  C_21
    4  A    between atoms: C_16  and  N_17
    5  A    between atoms: N_17  and  C_18
    6  A    between atoms: C_21  and  C_24
    7  A    between atoms: C_30  and  C_31
                            x       y       z     vdW  Elec       q    Type
                         _______ _______ _______ _____ _____    ______ ____

>  <TORSDO>
F 7

$$$$
=
 OpenBabel11042420283D

 31 33  0  0  1  0  0  0  0  0999 V2000
  160.5780  211.1570  151.5970 C   0  0  0  0  0  0  0  0  0  0  0  0
  160.8420  208.2270  152.3530 C   0  0  0  0  0  3  0  0  0  0  0  0
  160.3170  210.1760  153.8840 C   0  0  0  0  0  0  0  0  0  0  0  0
  159.9410  211.1150  152.7810 C   0  0  0  0  0  0  0  0  0  0  0  0
  161.2850  208.8350  151.2470 C   0  0  0  0  0  0  0  0  0  0  0  0
  160.6530  208.8900  153.6600 C   0  0  0  0  0  3  0  0  0  0  0  0
  160.1290  212.0200  150.5990 O   0  0  0  0  0  1  0  0  0  0  0  0
  158.7810  212.0320  153.0100 C   0  0  0  0  0  1  0  0  0  0  0  0
  161.7510  210.2590  151.3270 C   0  0  1  0  0  3  0  0  0  0  0  0
  160.6040  211.8280  157.2610 C   0  0  0  0  0  2  0  0  0  0  0  0
  160.2080  210.6260  155.2500 N   0  0  0  0  0  0  0  0  0  0  0  0
  158.9700  210.5330  156.0010 C   0  0  0  0  0  2  0  0  0  0  0  0
  159.1330  211.4490  157.1990 C   0  0  0  0  0  2  0  0  0  0  0  0
  161.2080  211.4410  155.9230 C   0  0  2  0  0  3  0  0  0  0  0  0
  162.4370  209.4550  156.8790 N   0  0  0  0  0  1  0  0  0  0  0  0
  163.5630  211.0770  155.6580 O   0  0  0  0  0  0  0  0  0  0  0  0
  162.4720  210.6680  156.1380 C   0  0  0  0  0  0  0  0  0  0  0  0
  162.5570  210.6820  150.1310 C   0  0  0  0  0  3  0  0  0  0  0  0
  161.9930  211.3660  149.1400 C   0  0  0  0  0  3  0  0  0  0  0  0
  162.8070  211.7760  147.9600 C   0  0  0  0  0  2  0  0  0  0  0  0
  162.2890  214.2250  148.2600 N   0  0  0  0  0  1  0  0  0  0  0  0
  162.3080  213.0720  147.4270 C   0  0  0  0  0  0  0  0  0  0  0  0
  161.9300  213.1570  146.2290 O   0  0  0  0  0  0  0  0  0  0  0  0
  161.3960  208.1060  150.0130 N   0  0  0  0  0  2  0  0  0  0  0  0
  161.9010  203.9290  147.5730 N   0  0  0  0  0  2  0  0  0  0  0  0
  161.9010  206.7230  147.5320 N   0  0  0  0  0  2  0  0  0  0  0  0
  161.4320  206.0430  148.7040 C   0  0  0  0  0  0  0  0  0  0  0  0
  161.6630  204.6170  146.3060 C   0  0  0  0  0  2  0  0  0  0  0  0
  161.2180  206.6910  149.8510 C   0  0  0  0  0  3  0  0  0  0  0  0
  161.1140  204.5800  148.6210 C   0  0  0  0  0  2  0  0  0  0  0  0
  162.3300  205.9880  146.3480 C   0  0  0  0  0  2  0  0  0  0  0  0
  1  4  2  0  0  0  0
  2  6  1  0  0  0  0
  3 11  1  0  0  0  0
  4  8  1  0  0  0  0
  4  3  1  0  0  0  0
  5  9  1  0  0  0  0
  5  2  2  0  0  0  0
  6  3  2  0  0  0  0
  7  1  1  0  0  0  0
  9 18  1  6  0  0  0
  9  1  1  0  0  0  0
 11 14  1  0  0  0  0
 11 12  1  0  0  0  0
 12 13  1  0  0  0  0
 13 10  1  0  0  0  0
 14 17  1  1  0  0  0
 14 10  1  0  0  0  0
 16 17  2  0  0  0  0
 17 15  1  0  0  0  0
 19 18  2  0  0  0  0
 20 19  1  0  0  0  0
 22 20  1  0  0  0  0
 22 21  1  0  0  0  0
 23 22  2  0  0  0  0
 24  5  1  0  0  0  0
 25 30  1  0  0  0  0
 26 27  1  0  0  0  0
 27 29  2  0  0  0  0
 28 31  1  0  0  0  0
 28 25  1  0  0  0  0
 29 24  1  0  0  0  0
 30 27  1  0  0  0  0
 31 26  1  0  0  0  0
M  END
>  <MODEL>
7

>  <REMARK>
 VINA RESULT:      -5.8      2.830      3.789
  Name = 
  7 active torsions:
  status: ('A' for Active; 'I' for Inactive)
    1  A    between atoms: C_3  and  C_29
    2  A    between atoms: N_5  and  C_13
    3  A    between atoms: C_11  and  C_21
    4  A    between atoms: C_16  and  N_17
    5  A    between atoms: N_17  and  C_18
    6  A    between atoms: C_21  and  C_24
    7  A    between atoms: C_30  and  C_31
                            x       y       z     vdW  Elec       q    Type
                         _______ _______ _______ _____ _____    ______ ____

>  <TORSDO>
F 7

$$$$
=
 OpenBabel11042420283D

 31 33  0  0  1  0  0  0  0  0999 V2000
  160.7510  209.5770  152.0390 C   0  0  0  0  0  0  0  0  0  0  0  0
  160.4850  207.1090  153.7890 C   0  0  0  0  0  3  0  0  0  0  0  0
  160.4260  209.5340  154.5190 C   0  0  0  0  0  0  0  0  0  0  0  0
  160.1800  210.0800  153.1480 C   0  0  0  0  0  0  0  0  0  0  0  0
  160.9780  207.1880  152.5480 C   0  0  0  0  0  0  0  0  0  0  0  0
  160.4960  208.2110  154.7720 C   0  0  0  0  0  3  0  0  0  0  0  0
  160.4240  210.1050  150.7910 O   0  0  0  0  0  1  0  0  0  0  0  0
  159.2330  211.2300  153.0140 C   0  0  0  0  0  1  0  0  0  0  0  0
  161.7130  208.4270  152.1270 C   0  0  1  0  0  3  0  0  0  0  0  0
  161.1120  212.2670  157.0240 C   0  0  0  0  0  2  0  0  0  0  0  0
  160.4780  210.4460  155.6350 N   0  0  0  0  0  0  0  0  0  0  0  0
  159.3330  210.6890  156.4920 C   0  0  0  0  0  2  0  0  0  0  0  0
  159.6400  211.9640  157.2560 C   0  0  0  0  0  2  0  0  0  0  0  0
  161.5560  211.3980  155.8610 C   0  0  2  0  0  3  0  0  0  0  0  0
  162.7960  209.5780  157.0920 N   0  0  0  0  0  1  0  0  0  0  0  0
  163.9260  211.0680  155.7160 O   0  0  0  0  0  0  0  0  0  0  0  0
  162.8290  210.6910  156.2090 C   0  0  0  0  0  0  0  0  0  0  0  0
  162.5210  208.2350  150.8750 C   0  0  0  0  0  3  0  0  0  0  0  0
  161.9660  207.7220  149.7810 C   0  0  0  0  0  3  0  0  0  0  0  0
  162.7830  207.5360  148.5480 C   0  0  0  0  0  2  0  0  0  0  0  0
  160.6410  206.5830  147.6210 N   0  0  0  0  0  1  0  0  0  0  0  0
  162.0610  206.6540  147.5910 C   0  0  0  0  0  0  0  0  0  0  0  0
  162.7050  205.9940  146.7340 O   0  0  0  0  0  0  0  0  0  0  0  0
  160.8820  206.0660  151.6560 N   0  0  0  0  0  2  0  0  0  0  0  0
  161.5860  201.3790  150.5640 N   0  0  0  0  0  2  0  0  0  0  0  0
  160.7230  203.9080  149.7480 N   0  0  0  0  0  2  0  0  0  0  0  0
  161.0030  203.6820  151.1350 C   0  0  0  0  0  0  0  0  0  0  0  0
  160.6560  201.4800  149.4420 C   0  0  0  0  0  2  0  0  0  0  0  0
  161.0910  204.6900  152.0060 C   0  0  0  0  0  3  0  0  0  0  0  0
  161.1390  202.2730  151.6330 C   0  0  0  0  0  2  0  0  0  0  0  0
  160.8320  202.8350  148.7650 C   0  0  0  0  0  2  0  0  0  0  0  0
  1  9  1  0  0  0  0
  1  4  2  0  0  0  0
  2  6  1  0  0  0  0
  3  6  2  0  0  0  0
  3 11  1  0  0  0  0
  4  3  1  0  0  0  0
  5  2  2  0  0  0  0
  7  1  1  0  0  0  0
  8  4  1  0  0  0  0
  9 18  1  6  0  0  0
  9  5  1  0  0  0  0
 10 13  1  0  0  0  0
 11 14  1  0  0  0  0
 11 12  1  0  0  0  0
 12 13  1  0  0  0  0
 14 17  1  1  0  0  0
 14 10  1  0  0  0  0
 16 17  2  0  0  0  0
 17 15  1  0  0  0  0
 19 18  2  0  0  0  0
 20 19  1  0  0  0  0
 22 21  1  0  0  0  0
 22 20  1  0  0  0  0
 23 22  2  0  0  0  0
 24 29  1  0  0  0  0
 24  5  1  0  0  0  0
 25 30  1  0  0  0  0
 26 27  1  0  0  0  0
 27 30  1  0  0  0  0
 27 29  2  0  0  0  0
 28 25  1  0  0  0  0
 31 28  1  0  0  0  0
 31 26  1  0  0  0  0
M  END
>  <MODEL>
8

>  <REMARK>
 VINA RESULT:      -5.7      1.548      2.002
  Name = 
  7 active torsions:
  status: ('A' for Active; 'I' for Inactive)
    1  A    between atoms: C_3  and  C_29
    2  A    between atoms: N_5  and  C_13
    3  A    between atoms: C_11  and  C_21
    4  A    between atoms: C_16  and  N_17
    5  A    between atoms: N_17  and  C_18
    6  A    between atoms: C_21  and  C_24
    7  A    between atoms: C_30  and  C_31
                            x       y       z     vdW  Elec       q    Type
                         _______ _______ _______ _____ _____    ______ ____

>  <TORSDO>
F 7

$$$$
=
 OpenBabel11042420283D

 31 33  0  0  1  0  0  0  0  0999 V2000
  161.5770  205.6480  151.8460 C   0  0  0  0  0  0  0  0  0  0  0  0
  161.3400  208.4120  150.6090 C   0  0  0  0  0  3  0  0  0  0  0  0
  161.0780  207.7840  153.0490 C   0  0  0  0  0  0  0  0  0  0  0  0
  161.7380  206.4490  152.9150 C   0  0  0  0  0  0  0  0  0  0  0  0
  161.2750  207.2270  149.9930 C   0  0  0  0  0  0  0  0  0  0  0  0
  160.9730  208.6490  152.0200 C   0  0  0  0  0  3  0  0  0  0  0  0
  162.2750  204.4440  151.7710 O   0  0  0  0  0  1  0  0  0  0  0  0
  162.6390  206.0010  154.0220 C   0  0  0  0  0  1  0  0  0  0  0  0
  160.6770  206.0540  150.7150 C   0  0  1  0  0  3  0  0  0  0  0  0
  159.8590  209.6040  156.1180 C   0  0  0  0  0  2  0  0  0  0  0  0
  160.6360  208.2160  154.3520 N   0  0  0  0  0  0  0  0  0  0  0  0
  160.0010  207.3150  155.2940 C   0  0  0  0  0  2  0  0  0  0  0  0
  159.3310  208.1940  156.3340 C   0  0  0  0  0  2  0  0  0  0  0  0
  160.5320  209.6110  154.7570 C   0  0  2  0  0  3  0  0  0  0  0  0
  162.5360  210.3060  156.1230 N   0  0  0  0  0  1  0  0  0  0  0  0
  162.4580  210.7030  153.8370 O   0  0  0  0  0  0  0  0  0  0  0  0
  161.8860  210.2410  154.8600 C   0  0  0  0  0  0  0  0  0  0  0  0
  160.3270  204.9160  149.7990 C   0  0  0  0  0  3  0  0  0  0  0  0
  161.2290  203.9870  149.4960 C   0  0  0  0  0  3  0  0  0  0  0  0
  160.8660  202.8650  148.5840 C   0  0  0  0  0  2  0  0  0  0  0  0
  161.2050  201.0650  150.3150 N   0  0  0  0  0  1  0  0  0  0  0  0
  160.3570  201.7130  149.3760 C   0  0  0  0  0  0  0  0  0  0  0  0
  159.1650  201.3310  149.2370 O   0  0  0  0  0  0  0  0  0  0  0  0
  161.6940  207.0960  148.6240 N   0  0  0  0  0  2  0  0  0  0  0  0
  160.2280  204.9470  144.5150 N   0  0  0  0  0  2  0  0  0  0  0  0
  162.2520  205.3460  146.4000 N   0  0  0  0  0  2  0  0  0  0  0  0
  161.0850  206.1780  146.4440 C   0  0  0  0  0  0  0  0  0  0  0  0
  161.6140  204.6990  144.1260 C   0  0  0  0  0  2  0  0  0  0  0  0
  160.8290  206.9710  147.4860 C   0  0  0  0  0  3  0  0  0  0  0  0
  160.1620  206.2040  145.2620 C   0  0  0  0  0  2  0  0  0  0  0  0
  162.4240  204.3320  145.3650 C   0  0  0  0  0  2  0  0  0  0  0  0
  1  4  2  0  0  0  0
  2  6  1  0  0  0  0
  3 11  1  0  0  0  0
  4  3  1  0  0  0  0
  4  8  1  0  0  0  0
  5  2  2  0  0  0  0
  5  9  1  0  0  0  0
  6  3  2  0  0  0  0
  7  1  1  0  0  0  0
  9 18  1  6  0  0  0
  9  1  1  0  0  0  0
 10 13  1  0  0  0  0
 11 14  1  0  0  0  0
 11 12  1  0  0  0  0
 12 13  1  0  0  0  0
 14 17  1  1  0  0  0
 14 10  1  0  0  0  0
 16 17  2  0  0  0  0
 17 15  1  0  0  0  0
 19 18  2  0  0  0  0
 20 22  1  0  0  0  0
 20 19  1  0  0  0  0
 22 21  1  0  0  0  0
 23 22  2  0  0  0  0
 24  5  1  0  0  0  0
 25 30  1  0  0  0  0
 26 27  1  0  0  0  0
 27 29  2  0  0  0  0
 28 25  1  0  0  0  0
 28 31  1  0  0  0  0
 29 24  1  0  0  0  0
 30 27  1  0  0  0  0
 31 26  1  0  0  0  0
M  END
>  <MODEL>
9

>  <REMARK>
 VINA RESULT:      -5.6      2.245      4.258
  Name = 
  7 active torsions:
  status: ('A' for Active; 'I' for Inactive)
    1  A    between atoms: C_3  and  C_29
    2  A    between atoms: N_5  and  C_13
    3  A    between atoms: C_11  and  C_21
    4  A    between atoms: C_16  and  N_17
    5  A    between atoms: N_17  and  C_18
    6  A    between atoms: C_21  and  C_24
    7  A    between atoms: C_30  and  C_31
                            x       y       z     vdW  Elec       q    Type
                         _______ _______ _______ _____ _____    ______ ____

>  <TORSDO>
F 7

$$$$
