=
 OpenBabel11042422103D

 34 38  0  0  1  0  0  0  0  0999 V2000
  160.5740  206.3680  155.7520 N   0  0  0  0  0  0  0  0  0  0  0  0
  161.3240  208.6440  151.1390 C   0  0  0  0  0  0  0  0  0  0  0  0
  160.6220  206.2420  147.5050 C   0  0  0  0  0  2  0  0  0  0  0  0
  161.0800  208.2610  152.4820 C   0  0  0  0  0  0  0  0  0  0  0  0
  162.1440  210.3100  149.3750 C   0  0  0  0  0  2  0  0  0  0  0  0
  160.5250  210.4120  153.6460 N   0  0  0  0  0  0  0  0  0  0  0  0
  160.1820  208.5490  155.9960 N   0  0  0  0  0  0  0  0  0  0  0  0
  161.8900  207.1050  147.6180 C   0  0  0  0  0  2  0  0  0  0  0  0
  160.7180  209.0760  153.5960 C   0  0  0  0  0  0  0  0  0  0  0  0
  161.6870  208.1730  148.6770 C   0  0  2  0  0  3  0  0  0  0  0  0
  161.2040  206.6260  153.0470 S   0  0  0  0  0  0  0  0  0  0  0  0
  160.7850  207.0150  154.6020 C   0  0  0  0  0  0  0  0  0  0  0  0
  160.7550  211.3510  152.7100 C   0  0  0  0  0  3  0  0  0  0  0  0
  160.2050  207.3460  156.5890 N   0  0  0  0  0  0  0  0  0  0  0  0
  162.7420  209.1560  148.7120 N   0  0  0  0  0  2  0  0  0  0  0  0
  161.2700  211.1470  151.4440 C   0  0  0  0  0  3  0  0  0  0  0  0
  161.5280  207.5530  150.0720 C   0  0  2  0  0  3  0  0  0  0  0  0
  160.4800  206.3970  150.0560 C   0  0  1  0  0  3  0  0  0  0  0  0
  159.6910  206.3490  148.7290 C   0  0  0  0  0  2  0  0  0  0  0  0
  161.5770  209.9910  150.7470 C   0  0  0  0  0  0  0  0  0  0  0  0
  160.5550  208.2980  154.7340 C   0  0  0  0  0  0  0  0  0  0  0  0
  160.4660  202.6800  149.8850 C   0  0  0  0  0  0  0  0  0  0  0  0
  161.1390  205.0530  150.2660 C   0  0  0  0  0  0  0  0  0  0  0  0
  161.0640  202.6760  148.5820 N   0  0  0  0  0  2  0  0  0  0  0  0
  159.9610  201.6280  150.3580 O   0  0  0  0  0  0  0  0  0  0  0  0
  162.3780  204.9090  150.0690 O   0  0  0  0  0  0  0  0  0  0  0  0
  160.3450  203.9110  150.6070 N   0  0  0  0  0  2  0  0  0  0  0  0
  161.6000  200.3760  148.3260 C   0  0  0  0  0  1  0  0  0  0  0  0
  161.2520  201.5220  147.7570 C   0  0  0  0  0  0  0  0  0  0  0  0
  161.0820  201.5610  146.3340 N   0  0  0  0  0  0  0  0  0  0  0  0
  160.6130  202.6680  145.5930 N   0  0  0  0  0  2  0  0  0  0  0  0
  162.6200  203.8860  145.4380 O   0  0  0  0  0  1  0  0  0  0  0  0
  160.7710  204.8320  144.4800 O   0  0  0  0  0  0  0  0  0  0  0  0
  161.3950  203.7940  145.1630 C   0  0  0  0  0  0  0  0  0  0  0  0
  1 14  1  0  0  0  0
  2  4  2  0  0  0  0
  3  8  1  0  0  0  0
  3 19  1  0  0  0  0
  4 11  1  0  0  0  0
  4  9  1  0  0  0  0
  5 20  1  0  0  0  0
  7 14  2  0  0  0  0
  9  6  1  0  0  0  0
  9 21  2  0  0  0  0
 10  8  1  6  0  0  0
 10 15  1  0  0  0  0
 10 17  1  0  0  0  0
 11 12  1  0  0  0  0
 12 21  1  0  0  0  0
 12  1  2  0  0  0  0
 13  6  2  0  0  0  0
 15  5  1  0  0  0  0
 16 13  1  0  0  0  0
 17  2  1  1  0  0  0
 18 17  1  0  0  0  0
 18 23  1  6  0  0  0
 19 18  1  0  0  0  0
 20  2  1  0  0  0  0
 20 16  2  0  0  0  0
 21  7  1  0  0  0  0
 22 25  2  0  0  0  0
 22 27  1  0  0  0  0
 23 27  1  0  0  0  0
 24 22  1  0  0  0  0
 26 23  2  0  0  0  0
 29 28  1  0  0  0  0
 29 24  1  0  0  0  0
 30 29  2  0  0  0  0
 31 30  1  0  0  0  0
 33 34  2  0  0  0  0
 34 32  1  0  0  0  0
 34 31  1  0  0  0  0
M  END
>  <MODEL>
1

>  <REMARK>
 VINA RESULT:      -7.1      0.000      0.000
  Name = 
  4 active torsions:
  status: ('A' for Active; 'I' for Inactive)
    1  A    between atoms: N_10  and  C_22
    2  A    between atoms: N_10  and  N_25
    3  A    between atoms: C_12  and  C_28
    4  A    between atoms: N_17  and  C_22
                            x       y       z     vdW  Elec       q    Type
                         _______ _______ _______ _____ _____    ______ ____

>  <TORSDO>
F 4

$$$$
=
 OpenBabel11042422103D

 34 38  0  0  1  0  0  0  0  0999 V2000
  161.1470  212.8930  148.9960 N   0  0  0  0  0  0  0  0  0  0  0  0
  158.5410  212.1260  153.4280 C   0  0  0  0  0  0  0  0  0  0  0  0
  160.7230  210.3700  156.8380 C   0  0  0  0  0  2  0  0  0  0  0  0
  159.0760  212.5150  152.1750 C   0  0  0  0  0  0  0  0  0  0  0  0
  156.5890  211.8200  155.0570 C   0  0  0  0  0  2  0  0  0  0  0  0
  157.6200  214.4230  151.4470 N   0  0  0  0  0  0  0  0  0  0  0  0
  159.5220  214.4150  149.1040 N   0  0  0  0  0  0  0  0  0  0  0  0
  159.3290  209.8380  156.4660 C   0  0  0  0  0  2  0  0  0  0  0  0
  158.6460  213.5570  151.2990 C   0  0  0  0  0  0  0  0  0  0  0  0
  158.5970  210.8680  155.6250 C   0  0  2  0  0  3  0  0  0  0  0  0
  160.4290  211.7290  151.4270 S   0  0  0  0  0  0  0  0  0  0  0  0
  160.4170  212.7230  150.1020 C   0  0  0  0  0  0  0  0  0  0  0  0
  156.6460  214.4530  152.3750 C   0  0  0  0  0  3  0  0  0  0  0  0
  160.5650  213.9440  148.4050 N   0  0  0  0  0  0  0  0  0  0  0  0
  157.2090  210.5450  155.4000 N   0  0  0  0  0  2  0  0  0  0  0  0
  156.4690  213.5640  153.4170 C   0  0  0  0  0  3  0  0  0  0  0  0
  159.2910  211.0810  154.2740 C   0  0  2  0  0  3  0  0  0  0  0  0
  160.8230  211.3140  154.4600 C   0  0  1  0  0  3  0  0  0  0  0  0
  161.1990  211.5310  155.9420 C   0  0  0  0  0  2  0  0  0  0  0  0
  157.2420  212.5100  153.8740 C   0  0  0  0  0  0  0  0  0  0  0  0
  159.4600  213.6160  150.1770 C   0  0  0  0  0  0  0  0  0  0  0  0
  161.0830  208.0590  152.6760 C   0  0  0  0  0  0  0  0  0  0  0  0
  161.6250  210.1460  153.9330 C   0  0  0  0  0  0  0  0  0  0  0  0
  161.3430  208.6980  151.4190 N   0  0  0  0  0  2  0  0  0  0  0  0
  160.7990  206.8330  152.7210 O   0  0  0  0  0  0  0  0  0  0  0  0
  162.7860  210.3240  153.4680 O   0  0  0  0  0  0  0  0  0  0  0  0
  161.0380  208.8420  153.8750 N   0  0  0  0  0  2  0  0  0  0  0  0
  162.0680  208.6320  149.1580 C   0  0  0  0  0  2  0  0  0  0  0  0
  161.4220  208.0390  150.1510 C   0  0  0  0  0  0  0  0  0  0  0  0
  160.8230  206.7570  149.9160 N   0  0  0  0  0  2  0  0  0  0  0  0
  161.0260  205.9540  148.7720 N   0  0  0  0  0  2  0  0  0  0  0  0
  161.1840  203.8530  149.8170 O   0  0  0  0  0  1  0  0  0  0  0  0
  161.4370  203.8870  147.5450 O   0  0  0  0  0  0  0  0  0  0  0  0
  161.1950  204.5270  148.7550 C   0  0  0  0  0  0  0  0  0  0  0  0
  1 12  2  0  0  0  0
  2 20  1  0  0  0  0
  4  2  2  0  0  0  0
  5 15  1  0  0  0  0
  6 13  2  0  0  0  0
  7 21  1  0  0  0  0
  8  3  1  0  0  0  0
  9  6  1  0  0  0  0
  9  4  1  0  0  0  0
 10  8  1  6  0  0  0
 11  4  1  0  0  0  0
 12 21  1  0  0  0  0
 12 11  1  0  0  0  0
 13 16  1  0  0  0  0
 14  1  1  0  0  0  0
 14  7  2  0  0  0  0
 15 10  1  0  0  0  0
 16 20  2  0  0  0  0
 17  2  1  1  0  0  0
 17 18  1  0  0  0  0
 17 10  1  0  0  0  0
 18 23  1  1  0  0  0
 18 19  1  0  0  0  0
 19  3  1  0  0  0  0
 20  5  1  0  0  0  0
 21  9  2  0  0  0  0
 22 25  2  0  0  0  0
 22 27  1  0  0  0  0
 24 22  1  0  0  0  0
 26 23  2  0  0  0  0
 27 23  1  0  0  0  0
 28 29  2  0  0  0  0
 29 24  1  0  0  0  0
 30 29  1  0  0  0  0
 31 30  1  0  0  0  0
 33 34  2  0  0  0  0
 34 31  1  0  0  0  0
 34 32  1  0  0  0  0
M  END
>  <MODEL>
2

>  <REMARK>
 VINA RESULT:      -6.3      3.522      6.932
  Name = 
  4 active torsions:
  status: ('A' for Active; 'I' for Inactive)
    1  A    between atoms: N_10  and  C_22
    2  A    between atoms: N_10  and  N_25
    3  A    between atoms: C_12  and  C_28
    4  A    between atoms: N_17  and  C_22
                            x       y       z     vdW  Elec       q    Type
                         _______ _______ _______ _____ _____    ______ ____

>  <TORSDO>
F 4

$$$$
=
 OpenBabel11042422103D

 34 38  0  0  1  0  0  0  0  0999 V2000
  162.2360  206.3250  146.2610 N   0  0  0  0  0  0  0  0  0  0  0  0
  161.3960  206.2530  151.3900 C   0  0  0  0  0  0  0  0  0  0  0  0
  160.5250  210.0840  153.4000 C   0  0  0  0  0  2  0  0  0  0  0  0
  161.5490  206.0290  149.9990 C   0  0  0  0  0  0  0  0  0  0  0  0
  161.3880  205.4530  153.8230 C   0  0  0  0  0  2  0  0  0  0  0  0
  160.7570  203.6740  149.6620 N   0  0  0  0  0  0  0  0  0  0  0  0
  161.3920  204.3300  146.7850 N   0  0  0  0  0  0  0  0  0  0  0  0
  161.5400  209.1090  154.0200 C   0  0  0  0  0  2  0  0  0  0  0  0
  161.2510  204.8580  149.2400 C   0  0  0  0  0  0  0  0  0  0  0  0
  161.3200  207.7170  153.4560 C   0  0  2  0  0  3  0  0  0  0  0  0
  162.1840  207.2150  148.9030 S   0  0  0  0  0  0  0  0  0  0  0  0
  162.0310  206.2330  147.5770 C   0  0  0  0  0  0  0  0  0  0  0  0
  160.5450  203.2260  150.9140 C   0  0  0  0  0  3  0  0  0  0  0  0
  161.8320  205.1320  145.8050 N   0  0  0  0  0  0  0  0  0  0  0  0
  162.0880  206.6970  154.1260 N   0  0  0  0  0  2  0  0  0  0  0  0
  160.8070  203.9030  152.0890 C   0  0  0  0  0  3  0  0  0  0  0  0
  161.6210  207.6700  151.9520 C   0  0  2  0  0  3  0  0  0  0  0  0
  160.9050  208.8340  151.1990 C   0  0  1  0  0  3  0  0  0  0  0  0
  159.8840  209.5630  152.0990 C   0  0  0  0  0  2  0  0  0  0  0  0
  161.2260  205.2000  152.3350 C   0  0  0  0  0  0  0  0  0  0  0  0
  161.5320  205.0640  147.8970 C   0  0  0  0  0  0  0  0  0  0  0  0
  162.0180  211.3530  148.6970 C   0  0  0  0  0  0  0  0  0  0  0  0
  161.8990  209.8510  150.6870 C   0  0  0  0  0  0  0  0  0  0  0  0
  161.4140  212.4320  149.4230 N   0  0  0  0  0  2  0  0  0  0  0  0
  162.4190  211.5260  147.5160 O   0  0  0  0  0  0  0  0  0  0  0  0
  162.5330  210.5900  151.4910 O   0  0  0  0  0  0  0  0  0  0  0  0
  162.0640  210.0440  149.2770 N   0  0  0  0  0  2  0  0  0  0  0  0
  162.4100  214.4450  148.6480 C   0  0  0  0  0  2  0  0  0  0  0  0
  161.3060  213.7840  148.9670 C   0  0  0  0  0  0  0  0  0  0  0  0
  160.0440  214.4530  148.8440 N   0  0  0  0  0  2  0  0  0  0  0  0
  158.7980  213.8240  148.6250 N   0  0  0  0  0  2  0  0  0  0  0  0
  159.2510  212.8210  146.5460 O   0  0  0  0  0  0  0  0  0  0  0  0
  157.1500  212.5120  147.3960 O   0  0  0  0  0  1  0  0  0  0  0  0
  158.4400  213.0230  147.4870 C   0  0  0  0  0  0  0  0  0  0  0  0
  1 12  2  0  0  0  0
  2 20  1  0  0  0  0
  3  8  1  0  0  0  0
  4  2  2  0  0  0  0
  5 15  1  0  0  0  0
  6 13  2  0  0  0  0
  7 21  1  0  0  0  0
  9  6  1  0  0  0  0
  9  4  1  0  0  0  0
 10  8  1  1  0  0  0
 10 15  1  0  0  0  0
 11  4  1  0  0  0  0
 12 21  1  0  0  0  0
 12 11  1  0  0  0  0
 13 16  1  0  0  0  0
 14  1  1  0  0  0  0
 14  7  2  0  0  0  0
 16 20  2  0  0  0  0
 17  2  1  6  0  0  0
 17 10  1  0  0  0  0
 18 23  1  1  0  0  0
 18 17  1  0  0  0  0
 18 19  1  0  0  0  0
 19  3  1  0  0  0  0
 20  5  1  0  0  0  0
 21  9  2  0  0  0  0
 22 27  1  0  0  0  0
 22 24  1  0  0  0  0
 23 26  2  0  0  0  0
 25 22  2  0  0  0  0
 27 23  1  0  0  0  0
 28 29  2  0  0  0  0
 29 24  1  0  0  0  0
 30 29  1  0  0  0  0
 31 30  1  0  0  0  0
 32 34  2  0  0  0  0
 33 34  1  0  0  0  0
 34 31  1  0  0  0  0
M  END
>  <MODEL>
3

>  <REMARK>
 VINA RESULT:      -6.3      3.681      8.160
  Name = 
  4 active torsions:
  status: ('A' for Active; 'I' for Inactive)
    1  A    between atoms: N_10  and  C_22
    2  A    between atoms: N_10  and  N_25
    3  A    between atoms: C_12  and  C_28
    4  A    between atoms: N_17  and  C_22
                            x       y       z     vdW  Elec       q    Type
                         _______ _______ _______ _____ _____    ______ ____

>  <TORSDO>
F 4

$$$$
=
 OpenBabel11042422103D

 34 38  0  0  1  0  0  0  0  0999 V2000
  161.9760  207.3280  147.5950 N   0  0  0  0  0  0  0  0  0  0  0  0
  161.1450  208.1030  152.6680 C   0  0  0  0  0  0  0  0  0  0  0  0
  159.4390  211.9750  153.9200 C   0  0  0  0  0  2  0  0  0  0  0  0
  161.3510  207.6440  151.3430 C   0  0  0  0  0  0  0  0  0  0  0  0
  161.3000  207.8230  155.2090 C   0  0  0  0  0  2  0  0  0  0  0  0
  161.1000  205.1540  151.5060 N   0  0  0  0  0  0  0  0  0  0  0  0
  161.5900  205.3430  148.5340 N   0  0  0  0  0  0  0  0  0  0  0  0
  160.6410  211.3880  154.6780 C   0  0  0  0  0  2  0  0  0  0  0  0
  161.3230  206.3080  150.8410 C   0  0  0  0  0  0  0  0  0  0  0  0
  160.7370  209.8980  154.4070 C   0  0  2  0  0  3  0  0  0  0  0  0
  161.7140  208.6950  150.0120 S   0  0  0  0  0  0  0  0  0  0  0  0
  161.7890  207.4590  148.9120 C   0  0  0  0  0  0  0  0  0  0  0  0
  160.9860  204.9310  152.8290 C   0  0  0  0  0  3  0  0  0  0  0  0
  161.8480  206.0090  147.3990 N   0  0  0  0  0  0  0  0  0  0  0  0
  161.7070  209.2240  155.2340 N   0  0  0  0  0  2  0  0  0  0  0  0
  161.0850  205.8690  153.8370 C   0  0  0  0  0  3  0  0  0  0  0  0
  161.0490  209.6170  152.9320 C   0  0  2  0  0  3  0  0  0  0  0  0
  160.0980  210.4230  151.9930 C   0  0  1  0  0  3  0  0  0  0  0  0
  158.9350  211.0780  152.7720 C   0  0  0  0  0  2  0  0  0  0  0  0
  161.2060  207.2480  153.8070 C   0  0  0  0  0  0  0  0  0  0  0  0
  161.5580  206.2980  149.4730 C   0  0  0  0  0  0  0  0  0  0  0  0
  161.9560  211.6790  149.0240 C   0  0  0  0  0  0  0  0  0  0  0  0
  160.8450  211.5090  151.2530 C   0  0  0  0  0  0  0  0  0  0  0  0
  160.7650  212.2060  148.4240 N   0  0  0  0  0  2  0  0  0  0  0  0
  163.0160  211.5780  148.3530 O   0  0  0  0  0  0  0  0  0  0  0  0
  160.4900  212.7160  151.3550 O   0  0  0  0  0  0  0  0  0  0  0  0
  161.9100  211.1630  150.3600 N   0  0  0  0  0  2  0  0  0  0  0  0
  159.8360  212.2030  146.2380 C   0  0  0  0  0  2  0  0  0  0  0  0
  160.6710  212.7560  147.1060 C   0  0  0  0  0  0  0  0  0  0  0  0
  161.4510  213.8850  146.6890 N   0  0  0  0  0  2  0  0  0  0  0  0
  162.5980  213.8310  145.8660 N   0  0  0  0  0  2  0  0  0  0  0  0
  161.5550  214.0150  143.7650 O   0  0  0  0  0  1  0  0  0  0  0  0
  163.8300  213.7860  143.7630 O   0  0  0  0  0  0  0  0  0  0  0  0
  162.6170  213.9030  144.4320 C   0  0  0  0  0  0  0  0  0  0  0  0
  1 12  2  0  0  0  0
  2 20  1  0  0  0  0
  3  8  1  0  0  0  0
  4  2  2  0  0  0  0
  5 15  1  0  0  0  0
  6 13  2  0  0  0  0
  7 21  1  0  0  0  0
  9  4  1  0  0  0  0
  9  6  1  0  0  0  0
 10  8  1  6  0  0  0
 10 15  1  0  0  0  0
 11  4  1  0  0  0  0
 12 21  1  0  0  0  0
 12 11  1  0  0  0  0
 13 16  1  0  0  0  0
 14  1  1  0  0  0  0
 14  7  2  0  0  0  0
 17  2  1  1  0  0  0
 17 10  1  0  0  0  0
 18 23  1  1  0  0  0
 18 19  1  0  0  0  0
 18 17  1  0  0  0  0
 19  3  1  0  0  0  0
 20 16  2  0  0  0  0
 20  5  1  0  0  0  0
 21  9  2  0  0  0  0
 22 27  1  0  0  0  0
 23 26  2  0  0  0  0
 24 22  1  0  0  0  0
 25 22  2  0  0  0  0
 27 23  1  0  0  0  0
 28 29  2  0  0  0  0
 29 24  1  0  0  0  0
 30 29  1  0  0  0  0
 31 30  1  0  0  0  0
 32 34  1  0  0  0  0
 33 34  2  0  0  0  0
 34 31  1  0  0  0  0
M  END
>  <MODEL>
4

>  <REMARK>
 VINA RESULT:      -6.1      3.893      7.852
  Name = 
  4 active torsions:
  status: ('A' for Active; 'I' for Inactive)
    1  A    between atoms: N_10  and  C_22
    2  A    between atoms: N_10  and  N_25
    3  A    between atoms: C_12  and  C_28
    4  A    between atoms: N_17  and  C_22
                            x       y       z     vdW  Elec       q    Type
                         _______ _______ _______ _____ _____    ______ ____

>  <TORSDO>
F 4

$$$$
=
 OpenBabel11042422103D

 34 38  0  0  1  0  0  0  0  0999 V2000
  162.0620  207.3180  147.5390 N   0  0  0  0  0  0  0  0  0  0  0  0
  161.1340  207.9620  152.6130 C   0  0  0  0  0  0  0  0  0  0  0  0
  159.5220  211.8470  153.9470 C   0  0  0  0  0  2  0  0  0  0  0  0
  161.3570  207.5380  151.2790 C   0  0  0  0  0  0  0  0  0  0  0  0
  161.2190  207.5990  155.1460 C   0  0  0  0  0  2  0  0  0  0  0  0
  161.0230  205.0530  151.3580 N   0  0  0  0  0  0  0  0  0  0  0  0
  161.5900  205.3180  148.4050 N   0  0  0  0  0  0  0  0  0  0  0  0
  160.6860  211.1980  154.7140 C   0  0  0  0  0  2  0  0  0  0  0  0
  161.2990  206.2200  150.7340 C   0  0  0  0  0  0  0  0  0  0  0  0
  160.7410  209.7150  154.3990 C   0  0  2  0  0  3  0  0  0  0  0  0
  161.7860  208.6170  149.9910 S   0  0  0  0  0  0  0  0  0  0  0  0
  161.8470  207.4140  148.8540 C   0  0  0  0  0  0  0  0  0  0  0  0
  160.8700  204.7930  152.6690 C   0  0  0  0  0  3  0  0  0  0  0  0
  161.8960  206.0100  147.2980 N   0  0  0  0  0  0  0  0  0  0  0  0
  161.6700  208.9840  155.2260 N   0  0  0  0  0  2  0  0  0  0  0  0
  160.9750  205.6960  153.7090 C   0  0  0  0  0  3  0  0  0  0  0  0
  161.0800  209.4700  152.9220 C   0  0  2  0  0  3  0  0  0  0  0  0
  160.1770  210.3350  151.9880 C   0  0  1  0  0  3  0  0  0  0  0  0
  159.0180  211.0030  152.7600 C   0  0  0  0  0  2  0  0  0  0  0  0
  161.1400  207.0710  153.7250 C   0  0  0  0  0  0  0  0  0  0  0  0
  161.5660  206.2440  149.3730 C   0  0  0  0  0  0  0  0  0  0  0  0
  161.9560  211.7090  149.0230 C   0  0  0  0  0  0  0  0  0  0  0  0
  160.9770  211.4180  151.3000 C   0  0  0  0  0  0  0  0  0  0  0  0
  160.7850  212.3970  148.5610 N   0  0  0  0  0  2  0  0  0  0  0  0
  162.9580  211.5810  148.2710 O   0  0  0  0  0  0  0  0  0  0  0  0
  160.7440  212.6360  151.5390 O   0  0  0  0  0  0  0  0  0  0  0  0
  161.9460  211.0700  150.3050 N   0  0  0  0  0  2  0  0  0  0  0  0
  161.2900  214.2350  147.1450 C   0  0  0  0  0  2  0  0  0  0  0  0
  160.6610  213.0800  147.3100 C   0  0  0  0  0  0  0  0  0  0  0  0
  159.8770  212.5620  146.2280 N   0  0  0  0  0  2  0  0  0  0  0  0
  158.7040  213.1520  145.7070 N   0  0  0  0  0  2  0  0  0  0  0  0
  157.1890  212.5200  147.3910 O   0  0  0  0  0  1  0  0  0  0  0  0
  156.3310  213.7090  145.6370 O   0  0  0  0  0  0  0  0  0  0  0  0
  157.3990  213.1190  146.3050 C   0  0  0  0  0  0  0  0  0  0  0  0
  1 12  2  0  0  0  0
  2 20  1  0  0  0  0
  3  8  1  0  0  0  0
  4  2  2  0  0  0  0
  5 15  1  0  0  0  0
  6 13  2  0  0  0  0
  7 21  1  0  0  0  0
  9  4  1  0  0  0  0
  9  6  1  0  0  0  0
 10  8  1  1  0  0  0
 10 15  1  0  0  0  0
 11  4  1  0  0  0  0
 12 21  1  0  0  0  0
 12 11  1  0  0  0  0
 13 16  1  0  0  0  0
 14  1  1  0  0  0  0
 14  7  2  0  0  0  0
 16 20  2  0  0  0  0
 17  2  1  6  0  0  0
 17 10  1  0  0  0  0
 18 23  1  1  0  0  0
 18 19  1  0  0  0  0
 18 17  1  0  0  0  0
 19  3  1  0  0  0  0
 20  5  1  0  0  0  0
 21  9  2  0  0  0  0
 22 27  1  0  0  0  0
 23 26  2  0  0  0  0
 24 22  1  0  0  0  0
 25 22  2  0  0  0  0
 27 23  1  0  0  0  0
 28 29  2  0  0  0  0
 29 24  1  0  0  0  0
 30 29  1  0  0  0  0
 31 30  1  0  0  0  0
 31 34  1  0  0  0  0
 33 34  2  0  0  0  0
 34 32  1  0  0  0  0
M  END
>  <MODEL>
5

>  <REMARK>
 VINA RESULT:      -5.9      3.956      7.906
  Name = 
  4 active torsions:
  status: ('A' for Active; 'I' for Inactive)
    1  A    between atoms: N_10  and  C_22
    2  A    between atoms: N_10  and  N_25
    3  A    between atoms: C_12  and  C_28
    4  A    between atoms: N_17  and  C_22
                            x       y       z     vdW  Elec       q    Type
                         _______ _______ _______ _____ _____    ______ ____

>  <TORSDO>
F 4

$$$$
=
 OpenBabel11042422103D

 34 38  0  0  1  0  0  0  0  0999 V2000
  162.2020  211.6590  149.2680 N   0  0  0  0  0  0  0  0  0  0  0  0
  158.7730  212.3410  153.1140 C   0  0  0  0  0  0  0  0  0  0  0  0
  160.0560  211.3890  157.2270 C   0  0  0  0  0  2  0  0  0  0  0  0
  159.5700  212.3310  151.9420 C   0  0  0  0  0  0  0  0  0  0  0  0
  156.5400  212.6550  154.3290 C   0  0  0  0  0  2  0  0  0  0  0  0
  158.5400  214.0900  150.4800 N   0  0  0  0  0  0  0  0  0  0  0  0
  160.8080  213.2880  148.6570 N   0  0  0  0  0  0  0  0  0  0  0  0
  158.6900  210.8980  156.7190 C   0  0  0  0  0  2  0  0  0  0  0  0
  159.4480  213.1310  150.7660 C   0  0  0  0  0  0  0  0  0  0  0  0
  158.2670  211.7210  155.5170 C   0  0  2  0  0  3  0  0  0  0  0  0
  160.9130  211.2600  151.7080 S   0  0  0  0  0  0  0  0  0  0  0  0
  161.2720  211.8570  150.2060 C   0  0  0  0  0  0  0  0  0  0  0  0
  157.4310  214.4530  151.1500 C   0  0  0  0  0  3  0  0  0  0  0  0
  161.8840  212.5580  148.3270 N   0  0  0  0  0  0  0  0  0  0  0  0
  156.9100  211.4710  155.0970 N   0  0  0  0  0  2  0  0  0  0  0  0
  156.9520  213.8950  152.3190 C   0  0  0  0  0  3  0  0  0  0  0  0
  159.2120  211.5020  154.3280 C   0  0  2  0  0  3  0  0  0  0  0  0
  160.7040  211.6440  154.7630 C   0  0  1  0  0  3  0  0  0  0  0  0
  160.8380  212.2200  156.1910 C   0  0  0  0  0  2  0  0  0  0  0  0
  157.4810  212.9420  153.1720 C   0  0  0  0  0  0  0  0  0  0  0  0
  160.4480  212.8150  149.8580 C   0  0  0  0  0  0  0  0  0  0  0  0
  160.8780  208.0510  153.8130 C   0  0  0  0  0  0  0  0  0  0  0  0
  161.4190  210.3140  154.7190 C   0  0  0  0  0  0  0  0  0  0  0  0
  161.5280  208.3480  152.5690 N   0  0  0  0  0  2  0  0  0  0  0  0
  160.4060  206.9040  154.0270 O   0  0  0  0  0  0  0  0  0  0  0  0
  162.6700  210.2630  154.5570 O   0  0  0  0  0  0  0  0  0  0  0  0
  160.6680  209.0950  154.7710 N   0  0  0  0  0  2  0  0  0  0  0  0
  161.5570  207.7410  150.2730 C   0  0  0  0  0  2  0  0  0  0  0  0
  161.8060  207.4040  151.5300 C   0  0  0  0  0  0  0  0  0  0  0  0
  162.3420  206.1020  151.8010 N   0  0  0  0  0  2  0  0  0  0  0  0
  161.9880  204.9110  151.1280 N   0  0  0  0  0  2  0  0  0  0  0  0
  160.6710  203.9140  152.8020 O   0  0  0  0  0  1  0  0  0  0  0  0
  160.9470  202.7210  150.8710 O   0  0  0  0  0  0  0  0  0  0  0  0
  161.1610  203.8570  151.6450 C   0  0  0  0  0  0  0  0  0  0  0  0
  1 12  2  0  0  0  0
  2 20  1  0  0  0  0
  4  2  2  0  0  0  0
  5 15  1  0  0  0  0
  6  9  1  0  0  0  0
  6 13  2  0  0  0  0
  7 21  1  0  0  0  0
  8  3  1  0  0  0  0
  9  4  1  0  0  0  0
 10  8  1  1  0  0  0
 11  4  1  0  0  0  0
 12 11  1  0  0  0  0
 13 16  1  0  0  0  0
 14  7  2  0  0  0  0
 14  1  1  0  0  0  0
 15 10  1  0  0  0  0
 16 20  2  0  0  0  0
 17  2  1  6  0  0  0
 17 18  1  0  0  0  0
 17 10  1  0  0  0  0
 18 23  1  1  0  0  0
 18 19  1  0  0  0  0
 19  3  1  0  0  0  0
 20  5  1  0  0  0  0
 21 12  1  0  0  0  0
 21  9  2  0  0  0  0
 22 25  2  0  0  0  0
 22 27  1  0  0  0  0
 23 27  1  0  0  0  0
 24 22  1  0  0  0  0
 26 23  2  0  0  0  0
 28 29  2  0  0  0  0
 29 30  1  0  0  0  0
 29 24  1  0  0  0  0
 31 34  1  0  0  0  0
 31 30  1  0  0  0  0
 33 34  2  0  0  0  0
 34 32  1  0  0  0  0
M  END
>  <MODEL>
6

>  <REMARK>
 VINA RESULT:      -5.9      3.412      7.226
  Name = 
  4 active torsions:
  status: ('A' for Active; 'I' for Inactive)
    1  A    between atoms: N_10  and  C_22
    2  A    between atoms: N_10  and  N_25
    3  A    between atoms: C_12  and  C_28
    4  A    between atoms: N_17  and  C_22
                            x       y       z     vdW  Elec       q    Type
                         _______ _______ _______ _____ _____    ______ ____

>  <TORSDO>
F 4

$$$$
=
 OpenBabel11042422103D

 34 38  0  0  1  0  0  0  0  0999 V2000
  162.1060  206.4280  144.6990 N   0  0  0  0  0  0  0  0  0  0  0  0
  161.2570  203.0240  148.5340 C   0  0  0  0  0  0  0  0  0  0  0  0
  160.4110  204.6110  152.5640 C   0  0  0  0  0  2  0  0  0  0  0  0
  161.4110  203.7630  147.3350 C   0  0  0  0  0  0  0  0  0  0  0  0
  161.2390  200.8270  149.8500 C   0  0  0  0  0  2  0  0  0  0  0  0
  160.6020  202.2070  145.5420 N   0  0  0  0  0  0  0  0  0  0  0  0
  161.2470  204.5810  143.7930 N   0  0  0  0  0  0  0  0  0  0  0  0
  161.4170  203.4610  152.3900 C   0  0  0  0  0  2  0  0  0  0  0  0
  161.1060  203.3760  145.9950 C   0  0  0  0  0  0  0  0  0  0  0  0
  161.1890  202.7790  151.0540 C   0  0  2  0  0  3  0  0  0  0  0  0
  162.0560  205.3720  147.2800 S   0  0  0  0  0  0  0  0  0  0  0  0
  161.8980  205.4990  145.6350 C   0  0  0  0  0  0  0  0  0  0  0  0
  160.3850  201.0510  146.1970 C   0  0  0  0  0  3  0  0  0  0  0  0
  161.6940  205.8260  143.5750 N   0  0  0  0  0  0  0  0  0  0  0  0
  161.9480  201.5640  150.8910 N   0  0  0  0  0  2  0  0  0  0  0  0
  160.6500  200.7930  147.5270 C   0  0  0  0  0  3  0  0  0  0  0  0
  161.4920  203.7250  149.8850 C   0  0  2  0  0  3  0  0  0  0  0  0
  160.7860  205.1030  150.0790 C   0  0  1  0  0  3  0  0  0  0  0  0
  159.7680  205.0730  151.2410 C   0  0  0  0  0  2  0  0  0  0  0  0
  161.0780  201.6100  148.5600 C   0  0  0  0  0  0  0  0  0  0  0  0
  161.3900  204.4090  145.1140 C   0  0  0  0  0  0  0  0  0  0  0  0
  161.7430  208.6950  150.2520 C   0  0  0  0  0  0  0  0  0  0  0  0
  161.7880  206.2010  150.3540 C   0  0  0  0  0  0  0  0  0  0  0  0
  161.3870  208.7870  151.6390 N   0  0  0  0  0  2  0  0  0  0  0  0
  161.9630  209.7370  149.5810 O   0  0  0  0  0  0  0  0  0  0  0  0
  162.6210  206.0870  151.2960 O   0  0  0  0  0  0  0  0  0  0  0  0
  161.7400  207.4190  149.6010 N   0  0  0  0  0  2  0  0  0  0  0  0
  160.4550  210.9190  152.1160 C   0  0  0  0  0  2  0  0  0  0  0  0
  161.3550  209.9910  152.4110 C   0  0  0  0  0  0  0  0  0  0  0  0
  162.2640  210.2330  153.4930 N   0  0  0  0  0  2  0  0  0  0  0  0
  161.9030  210.6650  154.7880 N   0  0  0  0  0  2  0  0  0  0  0  0
  160.5380  208.8550  155.4160 O   0  0  0  0  0  0  0  0  0  0  0  0
  160.7560  210.5500  156.9370 O   0  0  0  0  0  1  0  0  0  0  0  0
  161.0570  209.9630  155.7120 C   0  0  0  0  0  0  0  0  0  0  0  0
  1 12  2  0  0  0  0
  2 20  1  0  0  0  0
  4  2  2  0  0  0  0
  5 15  1  0  0  0  0
  6  9  1  0  0  0  0
  6 13  2  0  0  0  0
  7 21  1  0  0  0  0
  8  3  1  0  0  0  0
  9  4  1  0  0  0  0
 10  8  1  1  0  0  0
 11  4  1  0  0  0  0
 12 11  1  0  0  0  0
 13 16  1  0  0  0  0
 14  7  2  0  0  0  0
 14  1  1  0  0  0  0
 15 10  1  0  0  0  0
 16 20  2  0  0  0  0
 17  2  1  6  0  0  0
 17 18  1  0  0  0  0
 17 10  1  0  0  0  0
 18 23  1  1  0  0  0
 18 19  1  0  0  0  0
 19  3  1  0  0  0  0
 20  5  1  0  0  0  0
 21 12  1  0  0  0  0
 21  9  2  0  0  0  0
 22 24  1  0  0  0  0
 23 26  2  0  0  0  0
 24 29  1  0  0  0  0
 25 22  2  0  0  0  0
 27 22  1  0  0  0  0
 27 23  1  0  0  0  0
 28 29  2  0  0  0  0
 29 30  1  0  0  0  0
 30 31  1  0  0  0  0
 31 34  1  0  0  0  0
 32 34  2  0  0  0  0
 34 33  1  0  0  0  0
M  END
>  <MODEL>
7

>  <REMARK>
 VINA RESULT:      -5.2      3.003      9.017
  Name = 
  4 active torsions:
  status: ('A' for Active; 'I' for Inactive)
    1  A    between atoms: N_10  and  C_22
    2  A    between atoms: N_10  and  N_25
    3  A    between atoms: C_12  and  C_28
    4  A    between atoms: N_17  and  C_22
                            x       y       z     vdW  Elec       q    Type
                         _______ _______ _______ _____ _____    ______ ____

>  <TORSDO>
F 4

$$$$
=
 OpenBabel11042422103D

 34 38  0  0  1  0  0  0  0  0999 V2000
  161.2420  208.0660  150.5340 N   0  0  0  0  0  0  0  0  0  0  0  0
  160.1390  210.9550  154.7120 C   0  0  0  0  0  0  0  0  0  0  0  0
  156.9460  213.9800  154.3550 C   0  0  0  0  0  2  0  0  0  0  0  0
  160.5260  209.9970  153.7420 C   0  0  0  0  0  0  0  0  0  0  0  0
  160.3870  212.0920  156.9930 C   0  0  0  0  0  2  0  0  0  0  0  0
  161.3540  208.0520  155.0920 N   0  0  0  0  0  0  0  0  0  0  0  0
  161.7300  206.8600  152.3450 N   0  0  0  0  0  0  0  0  0  0  0  0
  158.2800  214.3510  155.0230 C   0  0  0  0  0  2  0  0  0  0  0  0
  161.0690  208.6910  153.9360 C   0  0  0  0  0  0  0  0  0  0  0  0
  159.0000  213.0890  155.4620 C   0  0  2  0  0  3  0  0  0  0  0  0
  160.4150  210.2680  152.0330 S   0  0  0  0  0  0  0  0  0  0  0  0
  161.0110  208.7720  151.6450 C   0  0  0  0  0  0  0  0  0  0  0  0
  161.3390  208.5120  156.3570 C   0  0  0  0  0  3  0  0  0  0  0  0
  161.6860  206.8930  151.0050 N   0  0  0  0  0  0  0  0  0  0  0  0
  160.1610  213.3440  156.2780 N   0  0  0  0  0  2  0  0  0  0  0  0
  161.0270  209.7930  156.7670 C   0  0  0  0  0  3  0  0  0  0  0  0
  159.4080  212.2320  154.2570 C   0  0  2  0  0  3  0  0  0  0  0  0
  158.2090  212.0310  153.2790 C   0  0  1  0  0  3  0  0  0  0  0  0
  156.8750  212.5120  153.8920 C   0  0  0  0  0  2  0  0  0  0  0  0
  160.5520  210.8940  156.0750 C   0  0  0  0  0  0  0  0  0  0  0  0
  161.2920  208.0710  152.7160 C   0  0  0  0  0  0  0  0  0  0  0  0
  160.4340  213.5300  150.7000 C   0  0  0  0  0  0  0  0  0  0  0  0
  158.4290  212.7710  151.9790 C   0  0  0  0  0  0  0  0  0  0  0  0
  160.4430  212.3270  149.9190 N   0  0  0  0  0  2  0  0  0  0  0  0
  161.2540  214.4530  150.4570 O   0  0  0  0  0  0  0  0  0  0  0  0
  157.6660  212.5740  150.9920 O   0  0  0  0  0  0  0  0  0  0  0  0
  159.5600  213.6360  151.8310 N   0  0  0  0  0  2  0  0  0  0  0  0
  162.3600  211.3660  148.8970 C   0  0  0  0  0  2  0  0  0  0  0  0
  161.2570  212.0900  148.7670 C   0  0  0  0  0  0  0  0  0  0  0  0
  160.9240  212.6100  147.4730 N   0  0  0  0  0  2  0  0  0  0  0  0
  159.6220  212.9290  147.0260 N   0  0  0  0  0  2  0  0  0  0  0  0
  159.7070  211.9350  144.8960 O   0  0  0  0  0  0  0  0  0  0  0  0
  157.7660  213.0120  145.4470 O   0  0  0  0  0  1  0  0  0  0  0  0
  159.0510  212.5780  145.7560 C   0  0  0  0  0  0  0  0  0  0  0  0
  1 14  1  0  0  0  0
  1 12  2  0  0  0  0
  2 20  1  0  0  0  0
  3  8  1  0  0  0  0
  4  9  1  0  0  0  0
  4  2  2  0  0  0  0
  6 13  2  0  0  0  0
  7 21  1  0  0  0  0
  9  6  1  0  0  0  0
 10  8  1  6  0  0  0
 10 15  1  0  0  0  0
 11  4  1  0  0  0  0
 12 11  1  0  0  0  0
 12 21  1  0  0  0  0
 13 16  1  0  0  0  0
 14  7  2  0  0  0  0
 15  5  1  0  0  0  0
 17  2  1  1  0  0  0
 17 10  1  0  0  0  0
 18 23  1  6  0  0  0
 18 19  1  0  0  0  0
 18 17  1  0  0  0  0
 19  3  1  0  0  0  0
 20 16  2  0  0  0  0
 20  5  1  0  0  0  0
 21  9  2  0  0  0  0
 22 27  1  0  0  0  0
 24 22  1  0  0  0  0
 25 22  2  0  0  0  0
 26 23  2  0  0  0  0
 27 23  1  0  0  0  0
 29 28  2  0  0  0  0
 29 24  1  0  0  0  0
 30 29  1  0  0  0  0
 31 30  1  0  0  0  0
 32 34  2  0  0  0  0
 33 34  1  0  0  0  0
 34 31  1  0  0  0  0
M  END
>  <MODEL>
8

>  <REMARK>
 VINA RESULT:      -5.2      5.066      8.016
  Name = 
  4 active torsions:
  status: ('A' for Active; 'I' for Inactive)
    1  A    between atoms: N_10  and  C_22
    2  A    between atoms: N_10  and  N_25
    3  A    between atoms: C_12  and  C_28
    4  A    between atoms: N_17  and  C_22
                            x       y       z     vdW  Elec       q    Type
                         _______ _______ _______ _____ _____    ______ ____

>  <TORSDO>
F 4

$$$$
=
 OpenBabel11042422103D

 34 38  0  0  1  0  0  0  0  0999 V2000
  162.1160  208.3120  150.1860 N   0  0  0  0  0  0  0  0  0  0  0  0
  160.0850  210.2830  154.5460 C   0  0  0  0  0  0  0  0  0  0  0  0
  157.5640  213.8880  154.2120 C   0  0  0  0  0  2  0  0  0  0  0  0
  160.6450  209.5250  153.4870 C   0  0  0  0  0  0  0  0  0  0  0  0
  159.7230  210.7680  157.0350 C   0  0  0  0  0  2  0  0  0  0  0  0
  160.7570  207.1890  154.3910 N   0  0  0  0  0  0  0  0  0  0  0  0
  161.8490  206.6360  151.6320 N   0  0  0  0  0  0  0  0  0  0  0  0
  158.6470  213.8110  155.3010 C   0  0  0  0  0  2  0  0  0  0  0  0
  160.9370  208.1290  153.4380 C   0  0  0  0  0  0  0  0  0  0  0  0
  159.0310  212.3620  155.5360 C   0  0  2  0  0  3  0  0  0  0  0  0
  161.1220  210.2130  151.9680 S   0  0  0  0  0  0  0  0  0  0  0  0
  161.6270  208.7640  151.3440 C   0  0  0  0  0  0  0  0  0  0  0  0
  160.3920  207.3270  155.6790 C   0  0  0  0  0  3  0  0  0  0  0  0
  162.2410  206.9960  150.4010 N   0  0  0  0  0  0  0  0  0  0  0  0
  159.8910  212.1730  156.6790 N   0  0  0  0  0  2  0  0  0  0  0  0
  160.1210  208.5090  156.3390 C   0  0  0  0  0  3  0  0  0  0  0  0
  159.6990  211.7520  154.2970 C   0  0  2  0  0  3  0  0  0  0  0  0
  158.8620  212.0380  153.0110 C   0  0  1  0  0  3  0  0  0  0  0  0
  157.4700  212.6180  153.3430 C   0  0  0  0  0  2  0  0  0  0  0  0
  160.0290  209.8160  155.8920 C   0  0  0  0  0  0  0  0  0  0  0  0
  161.4640  207.7860  152.2010 C   0  0  0  0  0  0  0  0  0  0  0  0
  160.4580  212.9010  149.7620 C   0  0  0  0  0  0  0  0  0  0  0  0
  159.5740  213.0060  152.0940 C   0  0  0  0  0  0  0  0  0  0  0  0
  159.2340  213.4270  149.2300 N   0  0  0  0  0  2  0  0  0  0  0  0
  161.4390  212.6800  149.0050 O   0  0  0  0  0  0  0  0  0  0  0  0
  159.2810  214.2340  152.1070 O   0  0  0  0  0  0  0  0  0  0  0  0
  160.5270  212.5210  151.1420 N   0  0  0  0  0  2  0  0  0  0  0  0
  157.8110  213.7780  147.3610 C   0  0  0  0  0  2  0  0  0  0  0  0
  159.0290  213.8500  147.8790 C   0  0  0  0  0  0  0  0  0  0  0  0
  160.0970  214.3470  147.0610 N   0  0  0  0  0  2  0  0  0  0  0  0
  160.4530  213.8540  145.7860 N   0  0  0  0  0  2  0  0  0  0  0  0
  162.7060  213.3260  146.2080 O   0  0  0  0  0  1  0  0  0  0  0  0
  161.9460  212.9490  144.0840 O   0  0  0  0  0  0  0  0  0  0  0  0
  161.7430  213.3540  145.3980 C   0  0  0  0  0  0  0  0  0  0  0  0
  1 14  1  0  0  0  0
  1 12  2  0  0  0  0
  2 20  1  0  0  0  0
  3  8  1  0  0  0  0
  4  2  2  0  0  0  0
  6 13  2  0  0  0  0
  7 21  1  0  0  0  0
  9  4  1  0  0  0  0
  9  6  1  0  0  0  0
 10  8  1  6  0  0  0
 10 15  1  0  0  0  0
 11  4  1  0  0  0  0
 12 11  1  0  0  0  0
 12 21  1  0  0  0  0
 13 16  1  0  0  0  0
 14  7  2  0  0  0  0
 15  5  1  0  0  0  0
 17  2  1  1  0  0  0
 17 10  1  0  0  0  0
 18 23  1  6  0  0  0
 18 19  1  0  0  0  0
 18 17  1  0  0  0  0
 19  3  1  0  0  0  0
 20 16  2  0  0  0  0
 20  5  1  0  0  0  0
 21  9  2  0  0  0  0
 22 27  1  0  0  0  0
 23 26  2  0  0  0  0
 24 22  1  0  0  0  0
 25 22  2  0  0  0  0
 27 23  1  0  0  0  0
 28 29  2  0  0  0  0
 29 24  1  0  0  0  0
 30 29  1  0  0  0  0
 31 30  1  0  0  0  0
 33 34  2  0  0  0  0
 34 31  1  0  0  0  0
 34 32  1  0  0  0  0
M  END
>  <MODEL>
9

>  <REMARK>
 VINA RESULT:      -5.0      4.965      8.287
  Name = 
  4 active torsions:
  status: ('A' for Active; 'I' for Inactive)
    1  A    between atoms: N_10  and  C_22
    2  A    between atoms: N_10  and  N_25
    3  A    between atoms: C_12  and  C_28
    4  A    between atoms: N_17  and  C_22
                            x       y       z     vdW  Elec       q    Type
                         _______ _______ _______ _____ _____    ______ ____

>  <TORSDO>
F 4

$$$$
