=
 OpenBabel11052411243D

 41 43  0  0  1  0  0  0  0  0999 V2000
  161.3280  212.6120  148.3000 C   0  0  0  0  0  0  0  0  0  0  0  0
  160.9660  212.0510  147.1820 N   0  0  0  0  0  0  0  0  0  0  0  0
  159.1130  212.9910  146.0760 O   0  0  0  0  0  0  0  0  0  0  0  0
  160.3320  212.6640  146.0460 C   0  0  0  0  0  0  0  0  0  0  0  0
  163.1940  213.4370  143.7350 C   0  0  0  0  0  3  0  0  0  0  0  0
  160.5420  212.7900  143.6090 N   0  0  0  0  0  0  0  0  0  0  0  0
  161.2530  212.9850  142.4680 C   0  0  0  0  0  0  0  0  0  0  0  0
  162.4830  213.2360  144.9170 C   0  0  0  0  0  3  0  0  0  0  0  0
  160.5840  212.8570  141.1490 C   0  0  0  0  0  1  0  0  0  0  0  0
  161.1270  212.9060  144.8320 C   0  0  0  0  0  0  0  0  0  0  0  0
  162.5700  213.3090  142.5350 N   0  0  0  0  0  0  0  0  0  0  0  0
  162.0160  211.7730  149.3290 C   0  0  0  0  0  2  0  0  0  0  0  0
  162.0950  209.4000  149.8670 C   0  0  0  0  0  0  0  0  0  0  0  0
  162.1610  208.5070  150.8120 C   0  0  0  0  0  3  0  0  0  0  0  0
  161.9940  210.3260  148.9510 C   0  0  0  0  0  3  0  0  0  0  0  0
  160.9820  207.6490  151.1070 C   0  0  0  0  0  2  0  0  0  0  0  0
  161.0590  201.4260  150.1130 C   0  0  0  0  0  2  0  0  0  0  0  0
  161.0570  205.2490  150.8450 N   0  0  0  0  0  0  0  0  0  0  0  0
  160.9790  202.7310  152.1020 O   0  0  0  0  0  0  0  0  0  0  0  0
  161.1760  200.3930  147.8180 N   0  0  0  0  0  1  0  0  0  0  0  0
  161.0330  202.7360  150.8450 C   0  0  0  0  0  0  0  0  0  0  0  0
  160.9260  206.5550  148.7760 C   0  0  0  0  0  2  0  0  0  0  0  0
  161.0680  204.0160  150.1120 C   0  0  0  0  0  0  0  0  0  0  0  0
  161.1360  201.5690  148.6160 C   0  0  0  0  0  0  0  0  0  0  0  0
  161.1690  202.7630  148.0150 C   0  0  0  0  0  3  0  0  0  0  0  0
  161.1840  205.2940  148.0840 N   0  0  0  0  0  0  0  0  0  0  0  0
  161.1320  204.0310  148.7720 C   0  0  0  0  0  0  0  0  0  0  0  0
  161.0240  206.4150  150.2720 C   0  0  0  0  0  0  0  0  0  0  0  0
  161.3690  205.3520  146.6420 C   0  0  0  0  0  1  0  0  0  0  0  0
  161.1530  214.0740  148.5650 C   0  0  0  0  0  2  0  0  0  0  0  0
  159.8560  214.3110  149.1740 N   0  0  0  0  0  2  0  0  0  0  0  0
  160.0340  214.1670  150.6050 C   0  0  0  0  0  2  0  0  0  0  0  0
  158.9720  213.2340  151.1550 C   0  0  0  0  0  2  0  0  0  0  0  0
  158.6770  213.7370  153.4670 O   0  0  0  0  0  1  0  0  0  0  0  0
  159.3040  212.8540  152.5850 C   0  0  1  0  0  3  0  0  0  0  0  0
  158.8250  211.4390  152.8500 C   0  0  0  0  0  2  0  0  0  0  0  0
  160.0140  210.5260  153.0860 C   0  0  0  0  0  2  0  0  0  0  0  0
  159.9810  209.9610  154.4990 C   0  0  2  0  0  3  0  0  0  0  0  0
  160.0510  211.0090  155.4170 O   0  0  0  0  0  1  0  0  0  0  0  0
  161.1660  209.0310  154.7120 C   0  0  0  0  0  2  0  0  0  0  0  0
  160.7050  207.5850  154.7610 C   0  0  0  0  0  1  0  0  0  0  0  0
  1 30  1  0  0  0  0
  1 12  1  0  0  0  0
  2  1  2  0  0  0  0
  4  3  2  0  0  0  0
  4  2  1  0  0  0  0
  5  8  1  0  0  0  0
  6 10  1  0  0  0  0
  7 11  1  0  0  0  0
  7  6  2  0  0  0  0
  9  7  1  0  0  0  0
 10  8  2  0  0  0  0
 10  4  1  0  0  0  0
 11  5  2  0  0  0  0
 13 14  2  0  0  0  0
 14 16  1  0  0  0  0
 15 12  1  0  0  0  0
 15 13  2  0  0  0  0
 17 21  1  0  0  0  0
 20 24  1  0  0  0  0
 21 19  2  0  0  0  0
 22 28  1  0  0  0  0
 23 21  1  0  0  0  0
 23 18  1  0  0  0  0
 24 17  1  0  0  0  0
 25 24  2  0  0  0  0
 25 27  1  0  0  0  0
 26 27  1  0  0  0  0
 26 22  1  0  0  0  0
 27 23  2  0  0  0  0
 28 18  2  0  0  0  0
 28 16  1  0  0  0  0
 29 26  1  0  0  0  0
 30 31  1  0  0  0  0
 31 32  1  0  0  0  0
 32 33  1  0  0  0  0
 33 35  1  0  0  0  0
 35 36  1  0  0  0  0
 35 34  1  1  0  0  0
 36 37  1  0  0  0  0
 37 38  1  0  0  0  0
 38 40  1  0  0  0  0
 38 39  1  1  0  0  0
 40 41  1  0  0  0  0
M  END
>  <MODEL>
1

>  <REMARK>
 VINA RESULT:      -7.5      0.000      0.000
  Name = 
  15 active torsions:
  status: ('A' for Active; 'I' for Inactive)
    1  A    between atoms: C_8  and  C_23
    2  A    between atoms: C_8  and  C_31
    3  A    between atoms: C_9  and  C_41
    4  A    between atoms: C_11  and  C_16
    5  A    between atoms: C_11  and  N_19
    6  A    between atoms: C_14  and  C_25
    7  A    between atoms: C_14  and  C_34
    8  A    between atoms: C_16  and  C_38
    9  A    between atoms: N_19  and  C_36
   10  A    between atoms: C_23  and  C_36
   11  A    between atoms: C_27  and  C_30
   12  A    between atoms: C_28  and  C_34
   13  A    between atoms: C_28  and  C_38
   14  A    between atoms: C_30  and  N_32
   15  A    between atoms: C_39  and  C_41
                            x       y       z     vdW  Elec       q    Type
                         _______ _______ _______ _____ _____    ______ ____

>  <TORSDO>
F 15

$$$$
=
 OpenBabel11052411243D

 41 43  0  0  1  0  0  0  0  0999 V2000
  161.5150  208.4970  152.3890 C   0  0  0  0  0  0  0  0  0  0  0  0
  160.9130  208.6160  153.5380 N   0  0  0  0  0  0  0  0  0  0  0  0
  161.8470  209.8410  155.3180 O   0  0  0  0  0  0  0  0  0  0  0  0
  160.9440  209.7340  154.4430 C   0  0  0  0  0  0  0  0  0  0  0  0
  158.9580  212.7250  153.3300 C   0  0  0  0  0  3  0  0  0  0  0  0
  158.8120  210.7020  155.1610 N   0  0  0  0  0  0  0  0  0  0  0  0
  157.8150  211.6210  155.0770 C   0  0  0  0  0  0  0  0  0  0  0  0
  159.9880  211.7870  153.3960 C   0  0  0  0  0  3  0  0  0  0  0  0
  156.6490  211.5330  155.9920 C   0  0  0  0  0  1  0  0  0  0  0  0
  159.8960  210.7610  154.3400 C   0  0  0  0  0  0  0  0  0  0  0  0
  157.8930  212.6270  154.1680 N   0  0  0  0  0  0  0  0  0  0  0  0
  161.2990  207.2460  151.5970 C   0  0  0  0  0  2  0  0  0  0  0  0
  161.1670  204.8990  152.2280 C   0  0  0  0  0  0  0  0  0  0  0  0
  160.5440  203.7680  152.0630 C   0  0  0  0  0  3  0  0  0  0  0  0
  161.7880  206.0430  152.3390 C   0  0  0  0  0  3  0  0  0  0  0  0
  161.2180  202.6450  151.3560 C   0  0  0  0  0  2  0  0  0  0  0  0
  161.6440  206.2210  146.1840 C   0  0  0  0  0  2  0  0  0  0  0  0
  161.3460  204.1160  149.4450 N   0  0  0  0  0  0  0  0  0  0  0  0
  161.7340  206.7410  148.5050 O   0  0  0  0  0  0  0  0  0  0  0  0
  161.4730  205.2980  143.8470 N   0  0  0  0  0  1  0  0  0  0  0  0
  161.5980  205.8420  147.6360 C   0  0  0  0  0  0  0  0  0  0  0  0
  161.2220  201.7190  148.9530 C   0  0  0  0  0  2  0  0  0  0  0  0
  161.3990  204.4400  148.0490 C   0  0  0  0  0  0  0  0  0  0  0  0
  161.4580  205.0570  145.2480 C   0  0  0  0  0  0  0  0  0  0  0  0
  161.2770  203.8090  145.6900 C   0  0  0  0  0  3  0  0  0  0  0  0
  161.0360  202.1180  147.5600 N   0  0  0  0  0  0  0  0  0  0  0  0
  161.2470  203.4750  147.1290 C   0  0  0  0  0  0  0  0  0  0  0  0
  161.2350  202.8990  149.8880 C   0  0  0  0  0  0  0  0  0  0  0  0
  160.7540  201.0640  146.5980 C   0  0  0  0  0  1  0  0  0  0  0  0
  162.3520  209.5870  151.7970 C   0  0  0  0  0  2  0  0  0  0  0  0
  162.0910  209.6870  150.3720 N   0  0  0  0  0  2  0  0  0  0  0  0
  162.0730  211.1010  150.0490 C   0  0  0  0  0  2  0  0  0  0  0  0
  161.9160  211.2740  148.5510 C   0  0  0  0  0  2  0  0  0  0  0  0
  163.7340  212.3700  147.4670 O   0  0  0  0  0  1  0  0  0  0  0  0
  162.5190  212.5970  148.1150 C   0  0  1  0  0  3  0  0  0  0  0  0
  161.5580  213.2970  147.1740 C   0  0  0  0  0  2  0  0  0  0  0  0
  160.2250  212.5720  147.1600 C   0  0  0  0  0  2  0  0  0  0  0  0
  159.8030  212.2580  145.7320 C   0  0  2  0  0  3  0  0  0  0  0  0
  160.8040  212.6720  144.8530 O   0  0  0  0  0  1  0  0  0  0  0  0
  158.5130  212.9940  145.4010 C   0  0  0  0  0  2  0  0  0  0  0  0
  157.3510  212.4100  146.1870 C   0  0  0  0  0  1  0  0  0  0  0  0
  1  2  2  0  0  0  0
  2  4  1  0  0  0  0
  4  3  2  0  0  0  0
  5  8  1  0  0  0  0
  5 11  2  0  0  0  0
  7  6  2  0  0  0  0
  7  9  1  0  0  0  0
  8 10  2  0  0  0  0
 10  4  1  0  0  0  0
 10  6  1  0  0  0  0
 11  7  1  0  0  0  0
 12 15  1  0  0  0  0
 12  1  1  0  0  0  0
 13 15  2  0  0  0  0
 14 13  2  0  0  0  0
 16 14  1  0  0  0  0
 17 21  1  0  0  0  0
 18 28  2  0  0  0  0
 20 24  1  0  0  0  0
 21 23  1  0  0  0  0
 21 19  2  0  0  0  0
 22 28  1  0  0  0  0
 23 18  1  0  0  0  0
 24 25  2  0  0  0  0
 24 17  1  0  0  0  0
 25 27  1  0  0  0  0
 26 22  1  0  0  0  0
 27 26  1  0  0  0  0
 27 23  2  0  0  0  0
 28 16  1  0  0  0  0
 29 26  1  0  0  0  0
 30  1  1  0  0  0  0
 31 30  1  0  0  0  0
 32 31  1  0  0  0  0
 33 32  1  0  0  0  0
 35 34  1  6  0  0  0
 35 33  1  0  0  0  0
 36 35  1  0  0  0  0
 37 36  1  0  0  0  0
 38 39  1  6  0  0  0
 38 37  1  0  0  0  0
 40 38  1  0  0  0  0
 40 41  1  0  0  0  0
M  END
>  <MODEL>
2

>  <REMARK>
 VINA RESULT:      -7.5      2.938      7.518
  Name = 
  15 active torsions:
  status: ('A' for Active; 'I' for Inactive)
    1  A    between atoms: C_8  and  C_23
    2  A    between atoms: C_8  and  C_31
    3  A    between atoms: C_9  and  C_41
    4  A    between atoms: C_11  and  C_16
    5  A    between atoms: C_11  and  N_19
    6  A    between atoms: C_14  and  C_25
    7  A    between atoms: C_14  and  C_34
    8  A    between atoms: C_16  and  C_38
    9  A    between atoms: N_19  and  C_36
   10  A    between atoms: C_23  and  C_36
   11  A    between atoms: C_27  and  C_30
   12  A    between atoms: C_28  and  C_34
   13  A    between atoms: C_28  and  C_38
   14  A    between atoms: C_30  and  N_32
   15  A    between atoms: C_39  and  C_41
                            x       y       z     vdW  Elec       q    Type
                         _______ _______ _______ _____ _____    ______ ____

>  <TORSDO>
F 15

$$$$
=
 OpenBabel11052411243D

 41 43  0  0  1  0  0  0  0  0999 V2000
  160.6900  209.2810  154.7140 C   0  0  0  0  0  0  0  0  0  0  0  0
  160.2510  209.8220  155.8140 N   0  0  0  0  0  0  0  0  0  0  0  0
  160.9470  212.0060  156.3500 O   0  0  0  0  0  0  0  0  0  0  0  0
  160.0020  211.2130  156.0810 C   0  0  0  0  0  0  0  0  0  0  0  0
  156.9840  213.4380  156.3550 C   0  0  0  0  0  3  0  0  0  0  0  0
  157.6220  210.8900  155.6030 N   0  0  0  0  0  0  0  0  0  0  0  0
  156.3360  211.3230  155.5320 C   0  0  0  0  0  0  0  0  0  0  0  0
  158.3110  213.0150  156.4290 C   0  0  0  0  0  3  0  0  0  0  0  0
  155.2720  210.4030  155.0560 C   0  0  0  0  0  1  0  0  0  0  0  0
  158.6170  211.7080  156.0410 C   0  0  0  0  0  0  0  0  0  0  0  0
  156.0230  212.5890  155.9090 N   0  0  0  0  0  0  0  0  0  0  0  0
  160.8300  207.7940  154.6570 C   0  0  0  0  0  2  0  0  0  0  0  0
  161.3160  206.0850  152.9930 C   0  0  0  0  0  0  0  0  0  0  0  0
  161.6420  204.8420  152.7830 C   0  0  0  0  0  3  0  0  0  0  0  0
  160.9560  207.3140  153.2450 C   0  0  0  0  0  3  0  0  0  0  0  0
  160.6480  203.9030  152.1940 C   0  0  0  0  0  2  0  0  0  0  0  0
  161.3030  206.2530  146.3830 C   0  0  0  0  0  2  0  0  0  0  0  0
  160.8410  204.9110  150.0070 N   0  0  0  0  0  0  0  0  0  0  0  0
  161.0040  207.2870  148.5060 O   0  0  0  0  0  0  0  0  0  0  0  0
  161.5770  204.8160  144.3320 N   0  0  0  0  0  1  0  0  0  0  0  0
  161.1090  206.2060  147.8700 C   0  0  0  0  0  0  0  0  0  0  0  0
  161.1040  202.4770  150.0990 C   0  0  0  0  0  2  0  0  0  0  0  0
  161.0420  204.9190  148.5870 C   0  0  0  0  0  0  0  0  0  0  0  0
  161.4020  204.8950  145.7410 C   0  0  0  0  0  0  0  0  0  0  0  0
  161.3290  203.7650  146.4500 C   0  0  0  0  0  3  0  0  0  0  0  0
  161.0600  202.5190  148.6380 N   0  0  0  0  0  0  0  0  0  0  0  0
  161.1460  203.7610  147.9160 C   0  0  0  0  0  0  0  0  0  0  0  0
  160.8320  203.8220  150.7170 C   0  0  0  0  0  0  0  0  0  0  0  0
  161.0540  201.2450  147.9360 C   0  0  0  0  0  1  0  0  0  0  0  0
  160.9860  210.0790  153.4830 C   0  0  0  0  0  2  0  0  0  0  0  0
  159.7450  210.4310  152.8150 N   0  0  0  0  0  2  0  0  0  0  0  0
  159.8770  211.8100  152.3870 C   0  0  0  0  0  2  0  0  0  0  0  0
  158.5340  212.5040  152.5020 C   0  0  0  0  0  2  0  0  0  0  0  0
  157.4890  214.3900  151.4840 O   0  0  0  0  0  1  0  0  0  0  0  0
  158.2110  213.2270  151.2080 C   0  0  1  0  0  3  0  0  0  0  0  0
  159.5030  213.5830  150.4990 C   0  0  0  0  0  2  0  0  0  0  0  0
  159.2540  213.7240  149.0080 C   0  0  0  0  0  2  0  0  0  0  0  0
  160.4760  213.2760  148.2180 C   0  0  2  0  0  3  0  0  0  0  0  0
  160.0670  212.4840  147.1460 O   0  0  0  0  0  1  0  0  0  0  0  0
  161.4010  212.4650  149.1140 C   0  0  0  0  0  2  0  0  0  0  0  0
  162.1680  211.4400  148.2960 C   0  0  0  0  0  1  0  0  0  0  0  0
  1  2  2  0  0  0  0
  2  4  1  0  0  0  0
  4  3  2  0  0  0  0
  5  8  1  0  0  0  0
  6 10  1  0  0  0  0
  7  6  2  0  0  0  0
  7 11  1  0  0  0  0
  9  7  1  0  0  0  0
 10  4  1  0  0  0  0
 10  8  2  0  0  0  0
 11  5  2  0  0  0  0
 12  1  1  0  0  0  0
 13 15  2  0  0  0  0
 14 13  2  0  0  0  0
 15 12  1  0  0  0  0
 16 14  1  0  0  0  0
 17 21  1  0  0  0  0
 18 28  2  0  0  0  0
 20 24  1  0  0  0  0
 21 19  2  0  0  0  0
 21 23  1  0  0  0  0
 22 28  1  0  0  0  0
 23 18  1  0  0  0  0
 24 17  1  0  0  0  0
 24 25  2  0  0  0  0
 25 27  1  0  0  0  0
 26 22  1  0  0  0  0
 27 23  2  0  0  0  0
 27 26  1  0  0  0  0
 28 16  1  0  0  0  0
 29 26  1  0  0  0  0
 30  1  1  0  0  0  0
 31 30  1  0  0  0  0
 32 33  1  0  0  0  0
 32 31  1  0  0  0  0
 35 34  1  1  0  0  0
 35 33  1  0  0  0  0
 36 35  1  0  0  0  0
 37 36  1  0  0  0  0
 38 39  1  6  0  0  0
 38 37  1  0  0  0  0
 38 40  1  0  0  0  0
 41 40  1  0  0  0  0
M  END
>  <MODEL>
3

>  <REMARK>
 VINA RESULT:      -7.4      3.290      7.510
  Name = 
  15 active torsions:
  status: ('A' for Active; 'I' for Inactive)
    1  A    between atoms: C_8  and  C_23
    2  A    between atoms: C_8  and  C_31
    3  A    between atoms: C_9  and  C_41
    4  A    between atoms: C_11  and  C_16
    5  A    between atoms: C_11  and  N_19
    6  A    between atoms: C_14  and  C_25
    7  A    between atoms: C_14  and  C_34
    8  A    between atoms: C_16  and  C_38
    9  A    between atoms: N_19  and  C_36
   10  A    between atoms: C_23  and  C_36
   11  A    between atoms: C_27  and  C_30
   12  A    between atoms: C_28  and  C_34
   13  A    between atoms: C_28  and  C_38
   14  A    between atoms: C_30  and  N_32
   15  A    between atoms: C_39  and  C_41
                            x       y       z     vdW  Elec       q    Type
                         _______ _______ _______ _____ _____    ______ ____

>  <TORSDO>
F 15

$$$$
=
 OpenBabel11052411243D

 41 43  0  0  1  0  0  0  0  0999 V2000
  160.3840  210.9810  153.8280 C   0  0  0  0  0  0  0  0  0  0  0  0
  160.2020  210.8920  155.1140 N   0  0  0  0  0  0  0  0  0  0  0  0
  160.4720  212.6560  156.6500 O   0  0  0  0  0  0  0  0  0  0  0  0
  159.6930  211.8960  156.0100 C   0  0  0  0  0  0  0  0  0  0  0  0
  156.3010  213.2100  156.9580 C   0  0  0  0  0  3  0  0  0  0  0  0
  157.4120  211.0770  155.6610 N   0  0  0  0  0  0  0  0  0  0  0  0
  156.0620  211.1790  155.7770 C   0  0  0  0  0  0  0  0  0  0  0  0
  157.6880  213.1260  156.8430 C   0  0  0  0  0  3  0  0  0  0  0  0
  155.1890  210.1210  155.2090 C   0  0  0  0  0  1  0  0  0  0  0  0
  158.2380  212.0280  156.1770 C   0  0  0  0  0  0  0  0  0  0  0  0
  155.5140  212.2380  156.4250 N   0  0  0  0  0  0  0  0  0  0  0  0
  160.8900  209.7800  153.0940 C   0  0  0  0  0  2  0  0  0  0  0  0
  161.9490  209.2520  150.9670 C   0  0  0  0  0  0  0  0  0  0  0  0
  162.3000  208.3120  150.1380 C   0  0  0  0  0  3  0  0  0  0  0  0
  161.5490  210.1680  151.8090 C   0  0  0  0  0  3  0  0  0  0  0  0
  161.5960  208.1710  148.8340 C   0  0  0  0  0  2  0  0  0  0  0  0
  160.7060  201.9840  149.6410 C   0  0  0  0  0  2  0  0  0  0  0  0
  161.2700  205.8180  149.2690 N   0  0  0  0  0  0  0  0  0  0  0  0
  160.4480  203.8450  151.1020 O   0  0  0  0  0  0  0  0  0  0  0  0
  161.1180  200.2800  147.8320 N   0  0  0  0  0  1  0  0  0  0  0  0
  160.7710  203.4510  149.9520 C   0  0  0  0  0  0  0  0  0  0  0  0
  161.8380  206.4180  146.9630 C   0  0  0  0  0  2  0  0  0  0  0  0
  161.2060  204.4250  148.9330 C   0  0  0  0  0  0  0  0  0  0  0  0
  161.1300  201.6430  148.2370 C   0  0  0  0  0  0  0  0  0  0  0  0
  161.5170  202.5770  147.3630 C   0  0  0  0  0  3  0  0  0  0  0  0
  161.9960  204.9830  146.7360 N   0  0  0  0  0  0  0  0  0  0  0  0
  161.5590  204.0130  147.7050 C   0  0  0  0  0  0  0  0  0  0  0  0
  161.5830  206.7420  148.4110 C   0  0  0  0  0  0  0  0  0  0  0  0
  162.4950  204.5670  145.4350 C   0  0  0  0  0  1  0  0  0  0  0  0
  160.0380  212.2090  153.0450 C   0  0  0  0  0  2  0  0  0  0  0  0
  158.7170  212.0610  152.4590 N   0  0  0  0  0  2  0  0  0  0  0  0
  157.9710  213.2560  152.8040 C   0  0  0  0  0  2  0  0  0  0  0  0
  157.5750  213.9870  151.5370 C   0  0  0  0  0  2  0  0  0  0  0  0
  157.0940  213.0720  149.3880 O   0  0  0  0  0  1  0  0  0  0  0  0
  158.1150  213.2540  150.3230 C   0  0  1  0  0  3  0  0  0  0  0  0
  159.2360  214.0670  149.7070 C   0  0  0  0  0  2  0  0  0  0  0  0
  160.4110  213.1650  149.3780 C   0  0  0  0  0  2  0  0  0  0  0  0
  160.8350  213.3480  147.9270 C   0  0  2  0  0  3  0  0  0  0  0  0
  160.5500  212.1840  147.2130 O   0  0  0  0  0  1  0  0  0  0  0  0
  162.3300  213.6240  147.8570 C   0  0  0  0  0  2  0  0  0  0  0  0
  163.1160  212.3280  147.9670 C   0  0  0  0  0  1  0  0  0  0  0  0
  1  2  2  0  0  0  0
  2  4  1  0  0  0  0
  4 10  1  0  0  0  0
  4  3  2  0  0  0  0
  6  7  2  0  0  0  0
  6 10  1  0  0  0  0
  7 11  1  0  0  0  0
  8  5  1  0  0  0  0
  9  7  1  0  0  0  0
 10  8  2  0  0  0  0
 11  5  2  0  0  0  0
 12  1  1  0  0  0  0
 13 15  2  0  0  0  0
 14 13  2  0  0  0  0
 15 12  1  0  0  0  0
 16 14  1  0  0  0  0
 17 21  1  0  0  0  0
 20 24  1  0  0  0  0
 21 19  2  0  0  0  0
 22 28  1  0  0  0  0
 23 18  1  0  0  0  0
 23 21  1  0  0  0  0
 24 17  1  0  0  0  0
 25 27  1  0  0  0  0
 25 24  2  0  0  0  0
 26 22  1  0  0  0  0
 26 27  1  0  0  0  0
 27 23  2  0  0  0  0
 28 16  1  0  0  0  0
 28 18  2  0  0  0  0
 29 26  1  0  0  0  0
 30  1  1  0  0  0  0
 31 32  1  0  0  0  0
 31 30  1  0  0  0  0
 33 32  1  0  0  0  0
 35 34  1  6  0  0  0
 35 33  1  0  0  0  0
 36 35  1  0  0  0  0
 37 36  1  0  0  0  0
 38 39  1  6  0  0  0
 38 37  1  0  0  0  0
 40 38  1  0  0  0  0
 40 41  1  0  0  0  0
M  END
>  <MODEL>
4

>  <REMARK>
 VINA RESULT:      -7.3      3.128      7.206
  Name = 
  15 active torsions:
  status: ('A' for Active; 'I' for Inactive)
    1  A    between atoms: C_8  and  C_23
    2  A    between atoms: C_8  and  C_31
    3  A    between atoms: C_9  and  C_41
    4  A    between atoms: C_11  and  C_16
    5  A    between atoms: C_11  and  N_19
    6  A    between atoms: C_14  and  C_25
    7  A    between atoms: C_14  and  C_34
    8  A    between atoms: C_16  and  C_38
    9  A    between atoms: N_19  and  C_36
   10  A    between atoms: C_23  and  C_36
   11  A    between atoms: C_27  and  C_30
   12  A    between atoms: C_28  and  C_34
   13  A    between atoms: C_28  and  C_38
   14  A    between atoms: C_30  and  N_32
   15  A    between atoms: C_39  and  C_41
                            x       y       z     vdW  Elec       q    Type
                         _______ _______ _______ _____ _____    ______ ____

>  <TORSDO>
F 15

$$$$
=
 OpenBabel11052411243D

 41 43  0  0  1  0  0  0  0  0999 V2000
  160.0470  209.3760  155.2710 C   0  0  0  0  0  0  0  0  0  0  0  0
  159.3170  210.0280  156.1310 N   0  0  0  0  0  0  0  0  0  0  0  0
  159.8800  212.1140  157.0640 O   0  0  0  0  0  0  0  0  0  0  0  0
  159.1620  211.4510  156.2640 C   0  0  0  0  0  0  0  0  0  0  0  0
  155.8820  212.8290  155.0500 C   0  0  0  0  0  3  0  0  0  0  0  0
  158.5120  212.7760  154.3100 N   0  0  0  0  0  0  0  0  0  0  0  0
  157.6000  213.4360  153.5490 C   0  0  0  0  0  0  0  0  0  0  0  0
  156.8030  212.1510  155.8480 C   0  0  0  0  0  3  0  0  0  0  0  0
  158.0330  214.1210  152.3040 C   0  0  0  0  0  1  0  0  0  0  0  0
  158.1440  212.1350  155.4520 C   0  0  0  0  0  0  0  0  0  0  0  0
  156.2940  213.4570  153.9180 N   0  0  0  0  0  0  0  0  0  0  0  0
  160.0150  207.8810  155.2970 C   0  0  0  0  0  2  0  0  0  0  0  0
  161.2800  206.4240  153.8130 C   0  0  0  0  0  0  0  0  0  0  0  0
  161.2270  205.5790  152.8240 C   0  0  0  0  0  3  0  0  0  0  0  0
  161.2940  207.3030  154.7800 C   0  0  0  0  0  3  0  0  0  0  0  0
  161.7650  205.9620  151.4910 C   0  0  0  0  0  2  0  0  0  0  0  0
  161.2380  203.5340  145.6990 C   0  0  0  0  0  2  0  0  0  0  0  0
  161.5450  205.1500  149.2270 N   0  0  0  0  0  0  0  0  0  0  0  0
  161.8110  205.7080  146.4800 O   0  0  0  0  0  0  0  0  0  0  0  0
  160.5690  201.1460  145.2570 N   0  0  0  0  0  1  0  0  0  0  0  0
  161.4760  204.5360  146.7910 C   0  0  0  0  0  0  0  0  0  0  0  0
  161.2540  203.4860  151.0010 C   0  0  0  0  0  2  0  0  0  0  0  0
  161.3240  204.1630  148.2100 C   0  0  0  0  0  0  0  0  0  0  0  0
  160.8310  202.1740  146.2030 C   0  0  0  0  0  0  0  0  0  0  0  0
  160.7070  201.9050  147.5050 C   0  0  0  0  0  3  0  0  0  0  0  0
  160.8010  202.5860  149.9430 N   0  0  0  0  0  0  0  0  0  0  0  0
  160.9600  202.9170  148.5510 C   0  0  0  0  0  0  0  0  0  0  0  0
  161.4910  204.8850  150.4980 C   0  0  0  0  0  0  0  0  0  0  0  0
  160.2990  201.2830  150.3480 C   0  0  0  0  0  1  0  0  0  0  0  0
  160.8540  210.0600  154.2130 C   0  0  0  0  0  2  0  0  0  0  0  0
  160.1570  209.9890  152.9410 N   0  0  0  0  0  2  0  0  0  0  0  0
  161.0790  210.4730  151.9320 C   0  0  0  0  0  2  0  0  0  0  0  0
  161.5340  209.3150  151.0660 C   0  0  0  0  0  2  0  0  0  0  0  0
  162.1640  208.9770  148.7920 O   0  0  0  0  0  1  0  0  0  0  0  0
  162.3300  209.8320  149.8830 C   0  0  1  0  0  3  0  0  0  0  0  0
  161.8430  211.2220  149.5230 C   0  0  0  0  0  2  0  0  0  0  0  0
  162.4120  211.6390  148.1790 C   0  0  0  0  0  2  0  0  0  0  0  0
  161.7540  212.9240  147.6960 C   0  0  2  0  0  3  0  0  0  0  0  0
  162.0110  213.9460  148.6100 O   0  0  0  0  0  1  0  0  0  0  0  0
  160.2500  212.7230  147.5810 C   0  0  0  0  0  2  0  0  0  0  0  0
  159.8420  212.5790  146.1250 C   0  0  0  0  0  1  0  0  0  0  0  0
  1 12  1  0  0  0  0
  1  2  2  0  0  0  0
  2  4  1  0  0  0  0
  4  3  2  0  0  0  0
  5  8  1  0  0  0  0
  6 10  1  0  0  0  0
  7 11  1  0  0  0  0
  7  6  2  0  0  0  0
  9  7  1  0  0  0  0
 10  8  2  0  0  0  0
 10  4  1  0  0  0  0
 11  5  2  0  0  0  0
 13 15  2  0  0  0  0
 14 13  2  0  0  0  0
 15 12  1  0  0  0  0
 16 14  1  0  0  0  0
 17 24  1  0  0  0  0
 17 21  1  0  0  0  0
 18 28  2  0  0  0  0
 19 21  2  0  0  0  0
 20 24  1  0  0  0  0
 21 23  1  0  0  0  0
 23 27  2  0  0  0  0
 23 18  1  0  0  0  0
 24 25  2  0  0  0  0
 25 27  1  0  0  0  0
 26 29  1  0  0  0  0
 26 22  1  0  0  0  0
 27 26  1  0  0  0  0
 28 22  1  0  0  0  0
 28 16  1  0  0  0  0
 30  1  1  0  0  0  0
 31 30  1  0  0  0  0
 32 31  1  0  0  0  0
 33 32  1  0  0  0  0
 35 34  1  6  0  0  0
 35 33  1  0  0  0  0
 36 35  1  0  0  0  0
 37 36  1  0  0  0  0
 38 37  1  0  0  0  0
 38 39  1  1  0  0  0
 40 38  1  0  0  0  0
 41 40  1  0  0  0  0
M  END
>  <MODEL>
5

>  <REMARK>
 VINA RESULT:      -7.1      3.418      7.382
  Name = 
  15 active torsions:
  status: ('A' for Active; 'I' for Inactive)
    1  A    between atoms: C_8  and  C_23
    2  A    between atoms: C_8  and  C_31
    3  A    between atoms: C_9  and  C_41
    4  A    between atoms: C_11  and  C_16
    5  A    between atoms: C_11  and  N_19
    6  A    between atoms: C_14  and  C_25
    7  A    between atoms: C_14  and  C_34
    8  A    between atoms: C_16  and  C_38
    9  A    between atoms: N_19  and  C_36
   10  A    between atoms: C_23  and  C_36
   11  A    between atoms: C_27  and  C_30
   12  A    between atoms: C_28  and  C_34
   13  A    between atoms: C_28  and  C_38
   14  A    between atoms: C_30  and  N_32
   15  A    between atoms: C_39  and  C_41
                            x       y       z     vdW  Elec       q    Type
                         _______ _______ _______ _____ _____    ______ ____

>  <TORSDO>
F 15

$$$$
=
 OpenBabel11052411243D

 41 43  0  0  1  0  0  0  0  0999 V2000
  161.2810  212.4440  148.3120 C   0  0  0  0  0  0  0  0  0  0  0  0
  161.0800  212.0180  147.0980 N   0  0  0  0  0  0  0  0  0  0  0  0
  159.2980  213.2600  146.1920 O   0  0  0  0  0  0  0  0  0  0  0  0
  160.4140  212.6960  146.0190 C   0  0  0  0  0  0  0  0  0  0  0  0
  162.8830  213.2690  143.2430 C   0  0  0  0  0  3  0  0  0  0  0  0
  160.4100  212.1730  143.6260 N   0  0  0  0  0  0  0  0  0  0  0  0
  160.9800  212.1600  142.3930 C   0  0  0  0  0  0  0  0  0  0  0  0
  162.3180  213.2870  144.5180 C   0  0  0  0  0  3  0  0  0  0  0  0
  160.2510  211.5580  141.2480 C   0  0  0  0  0  1  0  0  0  0  0  0
  161.0520  212.7220  144.6940 C   0  0  0  0  0  0  0  0  0  0  0  0
  162.2080  212.7080  142.2060 N   0  0  0  0  0  0  0  0  0  0  0  0
  162.0440  211.5720  149.2570 C   0  0  0  0  0  2  0  0  0  0  0  0
  162.1250  209.1930  149.7680 C   0  0  0  0  0  0  0  0  0  0  0  0
  162.2950  208.2900  150.6900 C   0  0  0  0  0  3  0  0  0  0  0  0
  161.9250  210.1290  148.8790 C   0  0  0  0  0  3  0  0  0  0  0  0
  161.1430  207.4650  151.1440 C   0  0  0  0  0  2  0  0  0  0  0  0
  161.2040  203.7370  146.0630 C   0  0  0  0  0  2  0  0  0  0  0  0
  161.1200  206.1340  149.1280 N   0  0  0  0  0  0  0  0  0  0  0  0
  161.2370  206.1030  146.3160 O   0  0  0  0  0  0  0  0  0  0  0  0
  161.1300  201.2220  146.1920 N   0  0  0  0  0  1  0  0  0  0  0  0
  161.1960  204.9870  146.8940 C   0  0  0  0  0  0  0  0  0  0  0  0
  161.2440  204.8930  151.2370 C   0  0  0  0  0  2  0  0  0  0  0  0
  161.1410  204.9200  148.3660 C   0  0  0  0  0  0  0  0  0  0  0  0
  161.1390  202.4700  146.8740 C   0  0  0  0  0  0  0  0  0  0  0  0
  161.0870  202.4800  148.2090 C   0  0  0  0  0  3  0  0  0  0  0  0
  161.0190  203.6970  150.4290 N   0  0  0  0  0  0  0  0  0  0  0  0
  161.0900  203.7330  148.9920 C   0  0  0  0  0  0  0  0  0  0  0  0
  161.1350  206.1580  150.4280 C   0  0  0  0  0  0  0  0  0  0  0  0
  160.8480  202.4380  151.1370 C   0  0  0  0  0  1  0  0  0  0  0  0
  160.8460  213.7990  148.7760 C   0  0  0  0  0  2  0  0  0  0  0  0
  159.5830  213.6930  149.4860 N   0  0  0  0  0  2  0  0  0  0  0  0
  159.8840  213.8310  150.8970 C   0  0  0  0  0  2  0  0  0  0  0  0
  158.6950  213.3650  151.7150 C   0  0  0  0  0  2  0  0  0  0  0  0
  158.6450  213.7060  154.0740 O   0  0  0  0  0  1  0  0  0  0  0  0
  159.1580  212.8770  153.0740 C   0  0  1  0  0  3  0  0  0  0  0  0
  158.6730  211.4570  153.2870 C   0  0  0  0  0  2  0  0  0  0  0  0
  159.4560  210.8040  154.4110 C   0  0  0  0  0  2  0  0  0  0  0  0
  160.5080  209.8570  153.8480 C   0  0  2  0  0  3  0  0  0  0  0  0
  160.4470  208.6420  154.5300 O   0  0  0  0  0  1  0  0  0  0  0  0
  161.8940  210.4610  154.0260 C   0  0  0  0  0  2  0  0  0  0  0  0
  162.1690  210.7390  155.4930 C   0  0  0  0  0  1  0  0  0  0  0  0
  1 30  1  0  0  0  0
  1 12  1  0  0  0  0
  2  1  2  0  0  0  0
  4  3  2  0  0  0  0
  4  2  1  0  0  0  0
  5  8  1  0  0  0  0
  6 10  1  0  0  0  0
  7  6  2  0  0  0  0
  8 10  2  0  0  0  0
  9  7  1  0  0  0  0
 10  4  1  0  0  0  0
 11  7  1  0  0  0  0
 11  5  2  0  0  0  0
 13 14  2  0  0  0  0
 14 16  1  0  0  0  0
 15 12  1  0  0  0  0
 15 13  2  0  0  0  0
 17 24  1  0  0  0  0
 17 21  1  0  0  0  0
 18 28  2  0  0  0  0
 19 21  2  0  0  0  0
 20 24  1  0  0  0  0
 21 23  1  0  0  0  0
 23 27  2  0  0  0  0
 23 18  1  0  0  0  0
 24 25  2  0  0  0  0
 25 27  1  0  0  0  0
 26 29  1  0  0  0  0
 26 22  1  0  0  0  0
 27 26  1  0  0  0  0
 28 16  1  0  0  0  0
 28 22  1  0  0  0  0
 30 31  1  0  0  0  0
 31 32  1  0  0  0  0
 32 33  1  0  0  0  0
 33 35  1  0  0  0  0
 35 36  1  0  0  0  0
 35 34  1  1  0  0  0
 36 37  1  0  0  0  0
 38 40  1  0  0  0  0
 38 37  1  0  0  0  0
 38 39  1  1  0  0  0
 40 41  1  0  0  0  0
M  END
>  <MODEL>
6

>  <REMARK>
 VINA RESULT:      -6.9      1.427      2.098
  Name = 
  15 active torsions:
  status: ('A' for Active; 'I' for Inactive)
    1  A    between atoms: C_8  and  C_23
    2  A    between atoms: C_8  and  C_31
    3  A    between atoms: C_9  and  C_41
    4  A    between atoms: C_11  and  C_16
    5  A    between atoms: C_11  and  N_19
    6  A    between atoms: C_14  and  C_25
    7  A    between atoms: C_14  and  C_34
    8  A    between atoms: C_16  and  C_38
    9  A    between atoms: N_19  and  C_36
   10  A    between atoms: C_23  and  C_36
   11  A    between atoms: C_27  and  C_30
   12  A    between atoms: C_28  and  C_34
   13  A    between atoms: C_28  and  C_38
   14  A    between atoms: C_30  and  N_32
   15  A    between atoms: C_39  and  C_41
                            x       y       z     vdW  Elec       q    Type
                         _______ _______ _______ _____ _____    ______ ____

>  <TORSDO>
F 15

$$$$
=
 OpenBabel11052411243D

 41 43  0  0  1  0  0  0  0  0999 V2000
  161.9570  209.9560  149.7940 C   0  0  0  0  0  0  0  0  0  0  0  0
  162.0350  210.5430  148.6340 N   0  0  0  0  0  0  0  0  0  0  0  0
  163.1630  212.5740  148.2540 O   0  0  0  0  0  0  0  0  0  0  0  0
  162.0680  211.9540  148.3540 C   0  0  0  0  0  0  0  0  0  0  0  0
  159.2200  214.3530  148.8650 C   0  0  0  0  0  3  0  0  0  0  0  0
  159.9780  212.3680  147.1470 N   0  0  0  0  0  0  0  0  0  0  0  0
  158.8080  213.0300  146.9520 C   0  0  0  0  0  0  0  0  0  0  0  0
  160.4270  213.6890  149.0780 C   0  0  0  0  0  3  0  0  0  0  0  0
  157.9330  212.6650  145.8100 C   0  0  0  0  0  1  0  0  0  0  0  0
  160.7970  212.6760  148.1890 C   0  0  0  0  0  0  0  0  0  0  0  0
  158.4330  214.0140  147.8100 N   0  0  0  0  0  0  0  0  0  0  0  0
  161.9810  208.4610  149.8390 C   0  0  0  0  0  2  0  0  0  0  0  0
  161.6270  207.1670  151.8700 C   0  0  0  0  0  0  0  0  0  0  0  0
  160.8440  206.3420  152.5030 C   0  0  0  0  0  3  0  0  0  0  0  0
  162.4010  207.9670  151.1870 C   0  0  0  0  0  3  0  0  0  0  0  0
  161.2660  204.9300  152.7120 C   0  0  0  0  0  2  0  0  0  0  0  0
  161.2200  204.2740  146.4450 C   0  0  0  0  0  2  0  0  0  0  0  0
  161.2160  204.8020  150.3010 N   0  0  0  0  0  0  0  0  0  0  0  0
  161.4830  206.1730  147.8560 O   0  0  0  0  0  0  0  0  0  0  0  0
  160.8800  202.0620  145.2880 N   0  0  0  0  0  1  0  0  0  0  0  0
  161.2950  204.9300  147.7920 C   0  0  0  0  0  0  0  0  0  0  0  0
  161.0960  202.6670  151.4950 C   0  0  0  0  0  2  0  0  0  0  0  0
  161.1530  204.1400  149.0300 C   0  0  0  0  0  0  0  0  0  0  0  0
  160.9800  202.7890  146.5060 C   0  0  0  0  0  0  0  0  0  0  0  0
  160.8570  202.1340  147.6640 C   0  0  0  0  0  3  0  0  0  0  0  0
  160.7930  202.0730  150.1950 N   0  0  0  0  0  0  0  0  0  0  0  0
  160.9460  202.8160  148.9720 C   0  0  0  0  0  0  0  0  0  0  0  0
  161.1620  204.1690  151.4350 C   0  0  0  0  0  0  0  0  0  0  0  0
  160.4540  200.6590  150.1730 C   0  0  0  0  0  1  0  0  0  0  0  0
  161.9200  210.7140  151.0830 C   0  0  0  0  0  2  0  0  0  0  0  0
  160.6000  210.6030  151.6800 N   0  0  0  0  0  2  0  0  0  0  0  0
  160.3150  211.8820  152.3020 C   0  0  0  0  0  2  0  0  0  0  0  0
  158.8230  212.0010  152.5480 C   0  0  0  0  0  2  0  0  0  0  0  0
  157.3570  211.9010  154.4250 O   0  0  0  0  0  1  0  0  0  0  0  0
  158.5660  212.4380  153.9780 C   0  0  1  0  0  3  0  0  0  0  0  0
  159.7000  211.9530  154.8600 C   0  0  0  0  0  2  0  0  0  0  0  0
  159.2730  210.7060  155.6120 C   0  0  0  0  0  2  0  0  0  0  0  0
  160.4810  209.8330  155.9270 C   0  0  2  0  0  3  0  0  0  0  0  0
  161.0500  209.3860  154.7340 O   0  0  0  0  0  1  0  0  0  0  0  0
  160.0490  208.6320  156.7550 C   0  0  0  0  0  2  0  0  0  0  0  0
  160.5210  207.3420  156.1070 C   0  0  0  0  0  1  0  0  0  0  0  0
  1 12  1  0  0  0  0
  1 30  1  0  0  0  0
  2  1  2  0  0  0  0
  3  4  2  0  0  0  0
  4  2  1  0  0  0  0
  5  8  1  0  0  0  0
  6 10  1  0  0  0  0
  7  6  2  0  0  0  0
  7 11  1  0  0  0  0
  9  7  1  0  0  0  0
 10  4  1  0  0  0  0
 10  8  2  0  0  0  0
 11  5  2  0  0  0  0
 12 15  1  0  0  0  0
 13 14  2  0  0  0  0
 14 16  1  0  0  0  0
 15 13  2  0  0  0  0
 17 24  1  0  0  0  0
 17 21  1  0  0  0  0
 18 28  2  0  0  0  0
 20 24  1  0  0  0  0
 21 19  2  0  0  0  0
 21 23  1  0  0  0  0
 23 18  1  0  0  0  0
 24 25  2  0  0  0  0
 25 27  1  0  0  0  0
 26 22  1  0  0  0  0
 27 23  2  0  0  0  0
 27 26  1  0  0  0  0
 28 22  1  0  0  0  0
 28 16  1  0  0  0  0
 29 26  1  0  0  0  0
 30 31  1  0  0  0  0
 31 32  1  0  0  0  0
 32 33  1  0  0  0  0
 33 35  1  0  0  0  0
 35 34  1  1  0  0  0
 35 36  1  0  0  0  0
 36 37  1  0  0  0  0
 37 38  1  0  0  0  0
 38 39  1  6  0  0  0
 38 40  1  0  0  0  0
 41 40  1  0  0  0  0
M  END
>  <MODEL>
7

>  <REMARK>
 VINA RESULT:      -6.8      2.521      3.611
  Name = 
  15 active torsions:
  status: ('A' for Active; 'I' for Inactive)
    1  A    between atoms: C_8  and  C_23
    2  A    between atoms: C_8  and  C_31
    3  A    between atoms: C_9  and  C_41
    4  A    between atoms: C_11  and  C_16
    5  A    between atoms: C_11  and  N_19
    6  A    between atoms: C_14  and  C_25
    7  A    between atoms: C_14  and  C_34
    8  A    between atoms: C_16  and  C_38
    9  A    between atoms: N_19  and  C_36
   10  A    between atoms: C_23  and  C_36
   11  A    between atoms: C_27  and  C_30
   12  A    between atoms: C_28  and  C_34
   13  A    between atoms: C_28  and  C_38
   14  A    between atoms: C_30  and  N_32
   15  A    between atoms: C_39  and  C_41
                            x       y       z     vdW  Elec       q    Type
                         _______ _______ _______ _____ _____    ______ ____

>  <TORSDO>
F 15

$$$$
=
 OpenBabel11052411243D

 41 43  0  0  1  0  0  0  0  0999 V2000
  161.6590  210.4480  151.3520 C   0  0  0  0  0  0  0  0  0  0  0  0
  162.3560  210.1840  150.2840 N   0  0  0  0  0  0  0  0  0  0  0  0
  161.5800  209.2540  148.2650 O   0  0  0  0  0  0  0  0  0  0  0  0
  161.9420  210.2770  148.9100 C   0  0  0  0  0  0  0  0  0  0  0  0
  163.0340  213.6520  147.6640 C   0  0  0  0  0  3  0  0  0  0  0  0
  160.8560  212.0060  147.5560 N   0  0  0  0  0  0  0  0  0  0  0  0
  160.8380  213.2050  146.9190 C   0  0  0  0  0  0  0  0  0  0  0  0
  163.0740  212.4220  148.3190 C   0  0  0  0  0  3  0  0  0  0  0  0
  159.6270  213.6280  146.1720 C   0  0  0  0  0  1  0  0  0  0  0  0
  161.9500  211.5940  148.2530 C   0  0  0  0  0  0  0  0  0  0  0  0
  161.9210  214.0220  146.9770 N   0  0  0  0  0  0  0  0  0  0  0  0
  162.3220  210.3170  152.6870 C   0  0  0  0  0  2  0  0  0  0  0  0
  161.2980  208.1110  152.7870 C   0  0  0  0  0  0  0  0  0  0  0  0
  160.8290  207.1060  152.1070 C   0  0  0  0  0  3  0  0  0  0  0  0
  161.8110  209.1250  153.4310 C   0  0  0  0  0  3  0  0  0  0  0  0
  161.5630  205.8110  152.0920 C   0  0  0  0  0  2  0  0  0  0  0  0
  160.6910  200.9730  148.1490 C   0  0  0  0  0  2  0  0  0  0  0  0
  161.2670  203.8780  150.6740 N   0  0  0  0  0  0  0  0  0  0  0  0
  160.7540  201.1140  150.5240 O   0  0  0  0  0  0  0  0  0  0  0  0
  160.7170  201.2100  145.6410 N   0  0  0  0  0  1  0  0  0  0  0  0
  160.8480  201.7340  149.4330 C   0  0  0  0  0  0  0  0  0  0  0  0
  161.4090  206.0410  149.5310 C   0  0  0  0  0  2  0  0  0  0  0  0
  161.1080  203.1860  149.4290 C   0  0  0  0  0  0  0  0  0  0  0  0
  160.8360  201.8260  146.9170 C   0  0  0  0  0  0  0  0  0  0  0  0
  161.0760  203.1390  146.9840 C   0  0  0  0  0  3  0  0  0  0  0  0
  161.4870  205.2670  148.2940 N   0  0  0  0  0  0  0  0  0  0  0  0
  161.2160  203.8540  148.2690 C   0  0  0  0  0  0  0  0  0  0  0  0
  161.4360  205.1650  150.7550 C   0  0  0  0  0  0  0  0  0  0  0  0
  161.7240  206.0040  147.0630 C   0  0  0  0  0  1  0  0  0  0  0  0
  160.2510  210.9490  151.2960 C   0  0  0  0  0  2  0  0  0  0  0  0
  160.0980  212.0870  152.1850 N   0  0  0  0  0  2  0  0  0  0  0  0
  159.1630  211.6870  153.2190 C   0  0  0  0  0  2  0  0  0  0  0  0
  159.3110  212.6060  154.4160 C   0  0  0  0  0  2  0  0  0  0  0  0
  157.8610  211.0440  155.4850 O   0  0  0  0  0  1  0  0  0  0  0  0
  158.9790  211.8540  155.6920 C   0  0  1  0  0  3  0  0  0  0  0  0
  160.1650  210.9980  156.0900 C   0  0  0  0  0  2  0  0  0  0  0  0
  159.7190  209.5650  156.3110 C   0  0  0  0  0  2  0  0  0  0  0  0
  160.6720  208.8480  157.2570 C   0  0  2  0  0  3  0  0  0  0  0  0
  161.9860  209.1810  156.9280 O   0  0  0  0  0  1  0  0  0  0  0  0
  160.4910  207.3430  157.1310 C   0  0  0  0  0  2  0  0  0  0  0  0
  159.6980  207.0050  155.8810 C   0  0  0  0  0  1  0  0  0  0  0  0
  1 12  1  0  0  0  0
  2  1  2  0  0  0  0
  3  4  2  0  0  0  0
  4  2  1  0  0  0  0
  5  8  1  0  0  0  0
  6 10  1  0  0  0  0
  7 11  1  0  0  0  0
  7  6  2  0  0  0  0
  9  7  1  0  0  0  0
 10  8  2  0  0  0  0
 10  4  1  0  0  0  0
 11  5  2  0  0  0  0
 12 15  1  0  0  0  0
 13 15  2  0  0  0  0
 14 13  2  0  0  0  0
 16 14  1  0  0  0  0
 17 21  1  0  0  0  0
 18 28  2  0  0  0  0
 20 24  1  0  0  0  0
 21 19  2  0  0  0  0
 22 28  1  0  0  0  0
 23 21  1  0  0  0  0
 23 18  1  0  0  0  0
 24 25  2  0  0  0  0
 24 17  1  0  0  0  0
 25 27  1  0  0  0  0
 26 22  1  0  0  0  0
 27 26  1  0  0  0  0
 27 23  2  0  0  0  0
 28 16  1  0  0  0  0
 29 26  1  0  0  0  0
 30  1  1  0  0  0  0
 30 31  1  0  0  0  0
 31 32  1  0  0  0  0
 32 33  1  0  0  0  0
 33 35  1  0  0  0  0
 35 34  1  6  0  0  0
 35 36  1  0  0  0  0
 36 37  1  0  0  0  0
 37 38  1  0  0  0  0
 38 39  1  6  0  0  0
 40 38  1  0  0  0  0
 41 40  1  0  0  0  0
M  END
>  <MODEL>
8

>  <REMARK>
 VINA RESULT:      -6.6      2.332      3.185
  Name = 
  15 active torsions:
  status: ('A' for Active; 'I' for Inactive)
    1  A    between atoms: C_8  and  C_23
    2  A    between atoms: C_8  and  C_31
    3  A    between atoms: C_9  and  C_41
    4  A    between atoms: C_11  and  C_16
    5  A    between atoms: C_11  and  N_19
    6  A    between atoms: C_14  and  C_25
    7  A    between atoms: C_14  and  C_34
    8  A    between atoms: C_16  and  C_38
    9  A    between atoms: N_19  and  C_36
   10  A    between atoms: C_23  and  C_36
   11  A    between atoms: C_27  and  C_30
   12  A    between atoms: C_28  and  C_34
   13  A    between atoms: C_28  and  C_38
   14  A    between atoms: C_30  and  N_32
   15  A    between atoms: C_39  and  C_41
                            x       y       z     vdW  Elec       q    Type
                         _______ _______ _______ _____ _____    ______ ____

>  <TORSDO>
F 15

$$$$
=
 OpenBabel11052411243D

 41 43  0  0  1  0  0  0  0  0999 V2000
  160.1810  211.7700  153.3960 C   0  0  0  0  0  0  0  0  0  0  0  0
  160.1320  211.6450  154.6920 N   0  0  0  0  0  0  0  0  0  0  0  0
  160.2500  213.3990  156.2580 O   0  0  0  0  0  0  0  0  0  0  0  0
  159.5460  212.5470  155.6480 C   0  0  0  0  0  0  0  0  0  0  0  0
  156.0730  213.3370  156.8480 C   0  0  0  0  0  3  0  0  0  0  0  0
  157.3890  211.4080  155.4300 N   0  0  0  0  0  0  0  0  0  0  0  0
  156.0500  211.3100  155.6370 C   0  0  0  0  0  0  0  0  0  0  0  0
  157.4460  213.4590  156.6400 C   0  0  0  0  0  3  0  0  0  0  0  0
  155.3030  210.1440  155.1020 C   0  0  0  0  0  1  0  0  0  0  0  0
  158.1020  212.4620  155.9130 C   0  0  0  0  0  0  0  0  0  0  0  0
  155.4000  212.2690  156.3450 N   0  0  0  0  0  0  0  0  0  0  0  0
  160.8100  210.6720  152.5980 C   0  0  0  0  0  2  0  0  0  0  0  0
  161.0080  208.3010  153.1100 C   0  0  0  0  0  0  0  0  0  0  0  0
  160.8040  207.0840  152.6950 C   0  0  0  0  0  3  0  0  0  0  0  0
  161.2280  209.5350  153.4760 C   0  0  0  0  0  3  0  0  0  0  0  0
  161.9600  206.2180  152.3380 C   0  0  0  0  0  2  0  0  0  0  0  0
  160.7060  201.4720  148.3870 C   0  0  0  0  0  2  0  0  0  0  0  0
  161.5200  204.3170  150.9140 N   0  0  0  0  0  0  0  0  0  0  0  0
  160.8940  201.5770  150.7570 O   0  0  0  0  0  0  0  0  0  0  0  0
  160.6160  201.7430  145.8840 N   0  0  0  0  0  1  0  0  0  0  0  0
  160.9570  202.2080  149.6700 C   0  0  0  0  0  0  0  0  0  0  0  0
  161.6880  206.4880  149.7920 C   0  0  0  0  0  2  0  0  0  0  0  0
  161.2720  203.6490  149.6700 C   0  0  0  0  0  0  0  0  0  0  0  0
  160.8230  202.3360  147.1590 C   0  0  0  0  0  0  0  0  0  0  0  0
  161.1170  203.6370  147.2300 C   0  0  0  0  0  3  0  0  0  0  0  0
  161.6740  205.7300  148.5430 N   0  0  0  0  0  0  0  0  0  0  0  0
  161.3470  204.3280  148.5150 C   0  0  0  0  0  0  0  0  0  0  0  0
  161.7420  205.5950  151.0020 C   0  0  0  0  0  0  0  0  0  0  0  0
  161.8780  206.4740  147.3100 C   0  0  0  0  0  1  0  0  0  0  0  0
  159.5690  212.9260  152.6710 C   0  0  0  0  0  2  0  0  0  0  0  0
  159.6250  212.6930  151.2390 N   0  0  0  0  0  2  0  0  0  0  0  0
  159.7650  213.9910  150.6090 C   0  0  0  0  0  2  0  0  0  0  0  0
  159.3320  213.8980  149.1590 C   0  0  0  0  0  2  0  0  0  0  0  0
  161.4660  213.1680  148.3850 O   0  0  0  0  0  1  0  0  0  0  0  0
  160.5110  214.1770  148.2460 C   0  0  1  0  0  3  0  0  0  0  0  0
  160.0290  214.2310  146.8090 C   0  0  0  0  0  2  0  0  0  0  0  0
  160.1790  212.8670  146.1610 C   0  0  0  0  0  2  0  0  0  0  0  0
  160.5760  213.0110  144.6990 C   0  0  2  0  0  3  0  0  0  0  0  0
  160.0740  211.9300  143.9750 O   0  0  0  0  0  1  0  0  0  0  0  0
  162.0930  213.0340  144.5750 C   0  0  0  0  0  2  0  0  0  0  0  0
  162.5110  212.8580  143.1250 C   0  0  0  0  0  1  0  0  0  0  0  0
  1  2  2  0  0  0  0
  2  4  1  0  0  0  0
  4 10  1  0  0  0  0
  4  3  2  0  0  0  0
  6  7  2  0  0  0  0
  6 10  1  0  0  0  0
  7 11  1  0  0  0  0
  8  5  1  0  0  0  0
  9  7  1  0  0  0  0
 10  8  2  0  0  0  0
 11  5  2  0  0  0  0
 12  1  1  0  0  0  0
 12 15  1  0  0  0  0
 13 15  2  0  0  0  0
 14 13  2  0  0  0  0
 16 14  1  0  0  0  0
 17 21  1  0  0  0  0
 18 28  2  0  0  0  0
 20 24  1  0  0  0  0
 21 19  2  0  0  0  0
 22 28  1  0  0  0  0
 23 21  1  0  0  0  0
 23 18  1  0  0  0  0
 24 25  2  0  0  0  0
 24 17  1  0  0  0  0
 25 27  1  0  0  0  0
 26 22  1  0  0  0  0
 27 26  1  0  0  0  0
 27 23  2  0  0  0  0
 28 16  1  0  0  0  0
 29 26  1  0  0  0  0
 30  1  1  0  0  0  0
 31 30  1  0  0  0  0
 32 31  1  0  0  0  0
 33 32  1  0  0  0  0
 35 34  1  6  0  0  0
 35 33  1  0  0  0  0
 36 35  1  0  0  0  0
 37 36  1  0  0  0  0
 38 39  1  6  0  0  0
 38 37  1  0  0  0  0
 40 38  1  0  0  0  0
 41 40  1  0  0  0  0
M  END
>  <MODEL>
9

>  <REMARK>
 VINA RESULT:      -6.6      2.885      7.691
  Name = 
  15 active torsions:
  status: ('A' for Active; 'I' for Inactive)
    1  A    between atoms: C_8  and  C_23
    2  A    between atoms: C_8  and  C_31
    3  A    between atoms: C_9  and  C_41
    4  A    between atoms: C_11  and  C_16
    5  A    between atoms: C_11  and  N_19
    6  A    between atoms: C_14  and  C_25
    7  A    between atoms: C_14  and  C_34
    8  A    between atoms: C_16  and  C_38
    9  A    between atoms: N_19  and  C_36
   10  A    between atoms: C_23  and  C_36
   11  A    between atoms: C_27  and  C_30
   12  A    between atoms: C_28  and  C_34
   13  A    between atoms: C_28  and  C_38
   14  A    between atoms: C_30  and  N_32
   15  A    between atoms: C_39  and  C_41
                            x       y       z     vdW  Elec       q    Type
                         _______ _______ _______ _____ _____    ______ ____

>  <TORSDO>
F 15

$$$$
