=
 OpenBabel11042422023D

 46 50  0  0  1  0  0  0  0  0999 V2000
  158.6970  212.4400  153.5980 C   0  0  0  0  0  0  0  0  0  0  0  0
  156.7870  212.5480  155.1000 C   0  0  0  0  0  3  0  0  0  0  0  0
  160.8420  207.8830  148.7560 C   0  0  0  0  0  2  0  0  0  0  0  0
  159.1180  212.9390  151.1680 C   0  0  0  0  0  0  0  0  0  0  0  0
  162.5440  210.2800  147.4940 C   0  0  0  0  0  2  0  0  0  0  0  0
  158.8760  211.0840  153.9290 C   0  0  0  0  0  0  0  0  0  0  0  0
  161.1350  209.8080  147.1560 C   0  0  0  0  0  2  0  0  0  0  0  0
  159.9060  210.3580  153.3210 O   0  0  0  0  0  0  0  0  0  0  0  0
  159.6530  212.7900  148.7960 C   0  0  0  0  0  0  0  0  0  0  0  0
  158.2880  212.7490  148.4970 C   0  0  0  0  0  3  0  0  0  0  0  0
  161.1840  208.4310  152.6230 C   0  0  1  0  0  3  0  0  0  0  0  0
  162.9130  208.3900  150.0500 C   0  0  0  0  0  1  0  0  0  0  0  0
  160.7040  208.5810  151.1790 C   0  0  0  0  0  2  0  0  0  0  0  0
  161.9850  212.8120  147.9340 C   0  0  1  0  0  3  0  0  0  0  0  0
  158.0110  210.4780  154.8530 C   0  0  0  0  0  3  0  0  0  0  0  0
  159.5950  213.1000  152.5830 C   0  0  1  0  0  3  0  0  0  0  0  0
  155.8900  212.7820  149.1920 C   0  0  0  0  0  1  0  0  0  0  0  0
  160.5740  212.7490  147.7450 O   0  0  0  0  0  0  0  0  0  0  0  0
  156.9750  211.2080  155.4380 C   0  0  0  0  0  0  0  0  0  0  0  0
  160.4020  209.3000  148.3880 C   0  0  0  0  0  2  0  0  0  0  0  0
  157.7510  212.9220  150.8500 C   0  0  0  0  0  3  0  0  0  0  0  0
  162.5350  211.4720  148.4680 C   0  0  2  0  0  3  0  0  0  0  0  0
  162.3800  209.1230  152.8170 O   0  0  0  0  0  1  0  0  0  0  0  0
  160.1250  208.9730  153.5690 C   0  0  0  0  0  2  0  0  0  0  0  0
  155.9040  210.4370  156.5900 Cl  0  0  0  0  0  0  0  0  0  0  0  0
  157.6420  213.1610  154.1810 C   0  0  0  0  0  3  0  0  0  0  0  0
  161.5180  207.7750  150.1440 C   0  0  1  0  0  0  0  0  0  0  0  0
  157.3380  212.8160  149.5200 C   0  0  0  0  0  0  0  0  0  0  0  0
  159.7830  214.4520  152.8780 O   0  0  0  0  0  1  0  0  0  0  0  0
  160.0630  212.8850  150.1370 C   0  0  0  0  0  3  0  0  0  0  0  0
  161.2510  204.7310  152.3720 C   0  0  2  0  0  3  0  0  0  0  0  0
  161.6290  206.3590  150.5720 N   0  0  2  0  0  0  0  0  0  0  0  0
  160.6290  204.5420  153.6050 O   0  0  0  0  0  1  0  0  0  0  0  0
  161.0020  205.4540  149.5960 C   0  0  0  0  0  2  0  0  0  0  0  0
  161.2770  204.0000  149.9780 C   0  0  1  0  0  3  0  0  0  0  0  0
  160.9790  206.1490  151.8760 C   0  0  0  0  0  2  0  0  0  0  0  0
  160.7050  203.7250  151.3660 C   0  0  0  0  0  2  0  0  0  0  0  0
  161.1390  203.3130  147.6970 O   0  0  0  0  0  1  0  0  0  0  0  0
  160.6330  203.0640  148.9730 C   0  0  0  0  0  2  0  0  0  0  0  0
  162.9480  214.4520  144.7860 C   0  0  0  0  0  3  0  0  0  0  0  0
  163.8180  212.8450  146.2230 C   0  0  0  0  0  3  0  0  0  0  0  0
  162.1010  214.2850  145.7890 C   0  0  0  0  0  2  0  0  0  0  0  0
  162.6560  213.2850  146.6790 C   0  0  0  0  0  0  0  0  0  0  0  0
  164.1340  213.5560  144.9530 C   0  0  0  0  0  3  0  0  0  0  0  0
  163.4550  211.1610  150.5440 C   0  0  0  0  0  1  0  0  0  0  0  0
  163.7100  211.6050  149.2380 O   0  0  0  0  0  0  0  0  0  0  0  0
  1  6  2  0  0  0  0
  1 26  1  0  0  0  0
  2 19  1  0  0  0  0
  3 27  1  0  0  0  0
  4 16  1  0  0  0  0
  5 22  1  0  0  0  0
  6 15  1  0  0  0  0
  7  5  1  0  0  0  0
  7 20  1  0  0  0  0
  8 24  1  0  0  0  0
  8  6  1  0  0  0  0
  9 30  1  0  0  0  0
 10  9  2  0  0  0  0
 10 28  1  0  0  0  0
 11 23  1  6  0  0  0
 11 24  1  0  0  0  0
 13 11  1  0  0  0  0
 14 43  1  6  0  0  0
 14 22  1  0  0  0  0
 15 19  2  0  0  0  0
 16 29  1  1  0  0  0
 16  1  1  0  0  0  0
 17 28  1  0  0  0  0
 18 14  1  0  0  0  0
 18  9  1  0  0  0  0
 19 25  1  0  0  0  0
 20  3  1  0  0  0  0
 21  4  1  0  0  0  0
 22 46  1  6  0  0  0
 26  2  2  0  0  0  0
 27 12  1  6  0  0  0
 27 32  1  0  0  0  0
 27 13  1  0  0  0  0
 28 21  2  0  0  0  0
 30  4  2  0  0  0  0
 31 33  1  1  0  0  0
 32 34  1  6  0  0  0
 32 36  1  0  0  0  0
 34 35  1  0  0  0  0
 35 39  1  6  0  0  0
 35 37  1  0  0  0  0
 36 31  1  0  0  0  0
 37 31  1  0  0  0  0
 38 39  1  0  0  0  0
 40 44  2  0  0  0  0
 40 42  1  0  0  0  0
 41 43  2  0  0  0  0
 42 43  1  0  0  0  0
 44 41  1  0  0  0  0
 46 45  1  0  0  0  0
M  END
>  <MODEL>
1

>  <REMARK>
 VINA RESULT:      11.7      0.000      0.000
  Name = 
  4 active torsions:
  status: ('A' for Active; 'I' for Inactive)
    1  A    between atoms: N_16  and  C_41
    2  A    between atoms: C_22  and  C_29
    3  A    between atoms: C_26  and  C_35
    4  A    between atoms: C_33  and  O_39
                            x       y       z     vdW  Elec       q    Type
                         _______ _______ _______ _____ _____    ______ ____

>  <TORSDO>
F 4

$$$$
=
 OpenBabel11042422023D

 46 50  0  0  1  0  0  0  0  0999 V2000
  161.5290  207.3580  150.4060 C   0  0  0  0  0  0  0  0  0  0  0  0
  163.1590  205.7960  151.3110 C   0  0  0  0  0  3  0  0  0  0  0  0
  160.2090  214.1470  151.3950 C   0  0  0  0  0  2  0  0  0  0  0  0
  161.5260  209.1460  148.6360 C   0  0  0  0  0  0  0  0  0  0  0  0
  158.7560  214.1090  148.5450 C   0  0  0  0  0  2  0  0  0  0  0  0
  161.2900  207.8540  151.7010 C   0  0  0  0  0  0  0  0  0  0  0  0
  160.1990  214.4510  148.8920 C   0  0  0  0  0  2  0  0  0  0  0  0
  160.3750  208.8950  151.8810 O   0  0  0  0  0  0  0  0  0  0  0  0
  161.3980  211.2580  147.4290 C   0  0  0  0  0  0  0  0  0  0  0  0
  162.7940  211.3380  147.4330 C   0  0  0  0  0  3  0  0  0  0  0  0
  159.2230  210.7050  152.9920 C   0  0  1  0  0  3  0  0  0  0  0  0
  157.9520  213.0880  151.4700 C   0  0  0  0  0  1  0  0  0  0  0  0
  159.9410  211.7480  152.1330 C   0  0  0  0  0  2  0  0  0  0  0  0
  159.2440  212.2790  146.7190 C   0  0  1  0  0  3  0  0  0  0  0  0
  161.9840  207.3050  152.7910 C   0  0  0  0  0  3  0  0  0  0  0  0
  160.8190  207.9570  149.2200 C   0  0  1  0  0  3  0  0  0  0  0  0
  165.0400  210.4150  148.0110 C   0  0  0  0  0  1  0  0  0  0  0  0
  160.6670  212.2750  146.8060 O   0  0  0  0  0  0  0  0  0  0  0  0
  162.9110  206.2790  152.5960 C   0  0  0  0  0  0  0  0  0  0  0  0
  160.7110  213.6120  150.0540 C   0  0  0  0  0  2  0  0  0  0  0  0
  162.9270  209.2290  148.6100 C   0  0  0  0  0  3  0  0  0  0  0  0
  158.6060  212.6500  148.0750 C   0  0  2  0  0  3  0  0  0  0  0  0
  158.0150  210.3310  152.4030 O   0  0  0  0  0  1  0  0  0  0  0  0
  160.1100  209.4810  153.1520 C   0  0  0  0  0  2  0  0  0  0  0  0
  163.7680  205.6030  153.9650 Cl  0  0  0  0  0  0  0  0  0  0  0  0
  162.4740  206.3360  150.2200 C   0  0  0  0  0  3  0  0  0  0  0  0
  159.3090  213.1550  152.1700 C   0  0  1  0  0  0  0  0  0  0  0  0
  163.5580  210.3270  148.0210 C   0  0  0  0  0  0  0  0  0  0  0  0
  160.5890  206.9980  148.2300 O   0  0  0  0  0  1  0  0  0  0  0  0
  160.7680  210.1570  148.0340 C   0  0  0  0  0  3  0  0  0  0  0  0
  157.5120  214.2030  155.3270 C   0  0  2  0  0  3  0  0  0  0  0  0
  159.1210  213.5950  153.5740 N   0  0  2  0  0  0  0  0  0  0  0  0
  156.1610  214.1890  155.6680 O   0  0  0  0  0  1  0  0  0  0  0  0
  159.8400  212.7180  154.5110 C   0  0  0  0  0  2  0  0  0  0  0  0
  159.7640  213.2890  155.9260 C   0  0  1  0  0  3  0  0  0  0  0  0
  157.6950  213.5900  153.9420 C   0  0  0  0  0  2  0  0  0  0  0  0
  158.3030  213.3960  156.3520 C   0  0  0  0  0  2  0  0  0  0  0  0
  160.0600  211.0740  156.7610 O   0  0  0  0  0  1  0  0  0  0  0  0
  160.5070  212.3880  156.8950 C   0  0  0  0  0  2  0  0  0  0  0  0
  157.4220  214.4200  144.3490 C   0  0  0  0  0  3  0  0  0  0  0  0
  159.5400  213.4820  144.5400 C   0  0  0  0  0  3  0  0  0  0  0  0
  157.4710  213.7230  145.4730 C   0  0  0  0  0  2  0  0  0  0  0  0
  158.7970  213.1480  145.5810 C   0  0  0  0  0  0  0  0  0  0  0  0
  158.7330  214.3450  143.6330 C   0  0  0  0  0  3  0  0  0  0  0  0
  156.5120  213.0520  148.9170 C   0  0  0  0  0  1  0  0  0  0  0  0
  157.3190  212.1050  148.2670 O   0  0  0  0  0  0  0  0  0  0  0  0
  1  6  1  0  0  0  0
  2 19  2  0  0  0  0
  3 27  1  0  0  0  0
  4 16  1  0  0  0  0
  5  7  1  0  0  0  0
  6  8  1  0  0  0  0
  6 15  2  0  0  0  0
  7 20  1  0  0  0  0
  8 24  1  0  0  0  0
  9 10  2  0  0  0  0
  9 30  1  0  0  0  0
 10 28  1  0  0  0  0
 11 23  1  6  0  0  0
 11 24  1  0  0  0  0
 13 27  1  0  0  0  0
 13 11  1  0  0  0  0
 14 43  1  6  0  0  0
 14 18  1  0  0  0  0
 14 22  1  0  0  0  0
 16 29  1  6  0  0  0
 16  1  1  0  0  0  0
 17 28  1  0  0  0  0
 18  9  1  0  0  0  0
 19 15  1  0  0  0  0
 19 25  1  0  0  0  0
 20  3  1  0  0  0  0
 21  4  1  0  0  0  0
 22 46  1  6  0  0  0
 22  5  1  0  0  0  0
 26  1  2  0  0  0  0
 26  2  1  0  0  0  0
 27 12  1  6  0  0  0
 27 32  1  0  0  0  0
 28 21  2  0  0  0  0
 30  4  2  0  0  0  0
 31 33  1  1  0  0  0
 31 37  1  0  0  0  0
 32 36  1  1  0  0  0
 32 34  1  0  0  0  0
 34 35  1  0  0  0  0
 35 37  1  0  0  0  0
 35 39  1  1  0  0  0
 36 31  1  0  0  0  0
 38 39  1  0  0  0  0
 40 42  1  0  0  0  0
 41 43  2  0  0  0  0
 42 43  1  0  0  0  0
 44 40  2  0  0  0  0
 44 41  1  0  0  0  0
 46 45  1  0  0  0  0
M  END
>  <MODEL>
2

>  <REMARK>
 VINA RESULT:      12.7      2.860      7.072
  Name = 
  4 active torsions:
  status: ('A' for Active; 'I' for Inactive)
    1  A    between atoms: N_16  and  C_41
    2  A    between atoms: C_22  and  C_29
    3  A    between atoms: C_26  and  C_35
    4  A    between atoms: C_33  and  O_39
                            x       y       z     vdW  Elec       q    Type
                         _______ _______ _______ _____ _____    ______ ____

>  <TORSDO>
F 4

$$$$
=
 OpenBabel11042422023D

 46 50  0  0  1  0  0  0  0  0999 V2000
  159.2370  212.4090  153.1640 C   0  0  0  0  0  0  0  0  0  0  0  0
  157.5330  212.4420  154.8990 C   0  0  0  0  0  3  0  0  0  0  0  0
  160.7170  208.1030  147.8650 C   0  0  0  0  0  2  0  0  0  0  0  0
  159.3520  213.0310  150.7290 C   0  0  0  0  0  0  0  0  0  0  0  0
  162.2660  210.5590  146.5210 C   0  0  0  0  0  2  0  0  0  0  0  0
  159.4460  211.0370  153.4000 C   0  0  0  0  0  0  0  0  0  0  0  0
  160.8220  210.1080  146.3400 C   0  0  0  0  0  2  0  0  0  0  0  0
  160.3850  210.3420  152.6320 O   0  0  0  0  0  0  0  0  0  0  0  0
  159.5820  213.0030  148.3040 C   0  0  0  0  0  0  0  0  0  0  0  0
  158.1900  212.9800  148.1780 C   0  0  0  0  0  3  0  0  0  0  0  0
  161.5500  208.4510  151.6800 C   0  0  1  0  0  3  0  0  0  0  0  0
  162.9390  208.5400  148.9110 C   0  0  0  0  0  1  0  0  0  0  0  0
  160.8920  208.6760  150.3180 C   0  0  0  0  0  2  0  0  0  0  0  0
  161.7880  213.0660  147.1560 C   0  0  1  0  0  3  0  0  0  0  0  0
  158.7000  210.3850  154.3950 C   0  0  0  0  0  3  0  0  0  0  0  0
  160.0050  213.1180  152.0790 C   0  0  1  0  0  3  0  0  0  0  0  0
  155.9000  212.9810  149.1720 C   0  0  0  0  0  1  0  0  0  0  0  0
  160.3630  213.0150  147.1440 O   0  0  0  0  0  0  0  0  0  0  0  0
  157.7510  211.0860  155.1420 C   0  0  0  0  0  0  0  0  0  0  0  0
  160.2470  209.5380  147.6280 C   0  0  0  0  0  2  0  0  0  0  0  0
  157.9560  213.0330  150.5860 C   0  0  0  0  0  3  0  0  0  0  0  0
  162.3900  211.7000  147.5470 C   0  0  2  0  0  3  0  0  0  0  0  0
  162.7660  209.1310  151.7570 O   0  0  0  0  0  1  0  0  0  0  0  0
  160.6230  208.9450  152.7790 C   0  0  0  0  0  2  0  0  0  0  0  0
  156.8290  210.2590  156.3800 Cl  0  0  0  0  0  0  0  0  0  0  0  0
  158.2700  213.1000  153.9120 C   0  0  0  0  0  3  0  0  0  0  0  0
  161.5620  207.9230  149.1490 C   0  0  1  0  0  0  0  0  0  0  0  0
  157.3780  212.9950  149.3150 C   0  0  0  0  0  0  0  0  0  0  0  0
  160.2400  214.4530  152.4160 O   0  0  0  0  0  1  0  0  0  0  0  0
  160.1590  213.0280  149.5850 C   0  0  0  0  0  3  0  0  0  0  0  0
  161.0670  204.6610  150.9980 C   0  0  2  0  0  3  0  0  0  0  0  0
  161.7150  206.4860  149.4870 N   0  0  2  0  0  0  0  0  0  0  0  0
  160.1720  204.2970  152.0020 O   0  0  0  0  0  1  0  0  0  0  0  0
  161.4660  205.6310  148.3160 C   0  0  0  0  0  2  0  0  0  0  0  0
  161.7920  204.1760  148.6510 C   0  0  1  0  0  3  0  0  0  0  0  0
  160.7770  206.0920  150.5520 C   0  0  0  0  0  2  0  0  0  0  0  0
  160.9140  203.7160  149.8110 C   0  0  0  0  0  2  0  0  0  0  0  0
  161.2680  201.9870  147.8580 O   0  0  0  0  0  1  0  0  0  0  0  0
  161.5380  203.2920  147.4450 C   0  0  0  0  0  2  0  0  0  0  0  0
  163.7890  214.2860  144.3220 C   0  0  0  0  0  3  0  0  0  0  0  0
  161.5420  213.9760  144.8330 C   0  0  0  0  0  3  0  0  0  0  0  0
  163.7030  213.7940  145.5480 C   0  0  0  0  0  2  0  0  0  0  0  0
  162.2990  213.6020  145.8520 C   0  0  0  0  0  0  0  0  0  0  0  0
  162.4250  214.4530  143.7320 C   0  0  0  0  0  3  0  0  0  0  0  0
  163.8250  213.0890  148.6720 C   0  0  0  0  0  1  0  0  0  0  0  0
  163.6530  211.7910  148.1690 O   0  0  0  0  0  0  0  0  0  0  0  0
  1  6  2  0  0  0  0
  1 26  1  0  0  0  0
  2 19  1  0  0  0  0
  3 27  1  0  0  0  0
  4 16  1  0  0  0  0
  5 22  1  0  0  0  0
  6 15  1  0  0  0  0
  7  5  1  0  0  0  0
  7 20  1  0  0  0  0
  8 24  1  0  0  0  0
  8  6  1  0  0  0  0
  9 30  1  0  0  0  0
 10  9  2  0  0  0  0
 10 28  1  0  0  0  0
 11 23  1  6  0  0  0
 11 24  1  0  0  0  0
 13 11  1  0  0  0  0
 14 43  1  6  0  0  0
 14 22  1  0  0  0  0
 15 19  2  0  0  0  0
 16 29  1  1  0  0  0
 16  1  1  0  0  0  0
 17 28  1  0  0  0  0
 18 14  1  0  0  0  0
 18  9  1  0  0  0  0
 19 25  1  0  0  0  0
 20  3  1  0  0  0  0
 21  4  1  0  0  0  0
 22 46  1  6  0  0  0
 26  2  2  0  0  0  0
 27 12  1  6  0  0  0
 27 32  1  0  0  0  0
 27 13  1  0  0  0  0
 28 21  2  0  0  0  0
 30  4  2  0  0  0  0
 31 33  1  1  0  0  0
 32 34  1  6  0  0  0
 32 36  1  0  0  0  0
 34 35  1  0  0  0  0
 35 39  1  6  0  0  0
 35 37  1  0  0  0  0
 36 31  1  0  0  0  0
 37 31  1  0  0  0  0
 39 38  1  0  0  0  0
 40 42  1  0  0  0  0
 41 43  2  0  0  0  0
 42 43  1  0  0  0  0
 44 40  2  0  0  0  0
 44 41  1  0  0  0  0
 46 45  1  0  0  0  0
M  END
>  <MODEL>
3

>  <REMARK>
 VINA RESULT:      13.1      0.987      1.191
  Name = 
  4 active torsions:
  status: ('A' for Active; 'I' for Inactive)
    1  A    between atoms: N_16  and  C_41
    2  A    between atoms: C_22  and  C_29
    3  A    between atoms: C_26  and  C_35
    4  A    between atoms: C_33  and  O_39
                            x       y       z     vdW  Elec       q    Type
                         _______ _______ _______ _____ _____    ______ ____

>  <TORSDO>
F 4

$$$$
=
 OpenBabel11042422023D

 46 50  0  0  1  0  0  0  0  0999 V2000
  158.2490  210.3060  155.3210 C   0  0  0  0  0  0  0  0  0  0  0  0
  157.9490  211.7430  157.2600 C   0  0  0  0  0  3  0  0  0  0  0  0
  163.1410  209.7630  150.3630 C   0  0  0  0  0  2  0  0  0  0  0  0
  159.6000  208.2530  154.7830 C   0  0  0  0  0  0  0  0  0  0  0  0
  162.0990  206.7750  149.8960 C   0  0  0  0  0  2  0  0  0  0  0  0
  158.6050  211.4270  154.5490 C   0  0  0  0  0  0  0  0  0  0  0  0
  163.2220  207.2810  150.7940 C   0  0  0  0  0  2  0  0  0  0  0  0
  158.9530  211.2550  153.2060 O   0  0  0  0  0  0  0  0  0  0  0  0
  161.1830  206.6630  153.8340 C   0  0  0  0  0  0  0  0  0  0  0  0
  162.0400  206.8790  154.9170 C   0  0  0  0  0  3  0  0  0  0  0  0
  159.8590  211.8010  151.0340 C   0  0  1  0  0  3  0  0  0  0  0  0
  160.9970  209.6690  149.0920 C   0  0  0  0  0  1  0  0  0  0  0  0
  161.0660  210.8880  151.2600 C   0  0  0  0  0  2  0  0  0  0  0  0
  160.7540  205.4320  151.7150 C   0  0  1  0  0  3  0  0  0  0  0  0
  158.6190  212.6990  155.1430 C   0  0  0  0  0  3  0  0  0  0  0  0
  158.2610  208.9280  154.7100 C   0  0  1  0  0  3  0  0  0  0  0  0
  162.5930  207.9790  157.0880 C   0  0  0  0  0  1  0  0  0  0  0  0
  161.5630  205.7490  152.8460 O   0  0  0  0  0  0  0  0  0  0  0  0
  158.2890  212.8560  156.4900 C   0  0  0  0  0  0  0  0  0  0  0  0
  162.8990  208.6470  151.3790 C   0  0  0  0  0  2  0  0  0  0  0  0
  160.4600  208.4400  155.8760 C   0  0  0  0  0  3  0  0  0  0  0  0
  160.7860  206.5710  150.6740 C   0  0  2  0  0  3  0  0  0  0  0  0
  158.8290  211.1050  150.4020 O   0  0  0  0  0  1  0  0  0  0  0  0
  159.3680  212.3320  152.3700 C   0  0  0  0  0  2  0  0  0  0  0  0
  158.3090  214.4490  157.2160 Cl  0  0  0  0  0  0  0  0  0  0  0  0
  157.9330  210.4730  156.6800 C   0  0  0  0  0  3  0  0  0  0  0  0
  161.8670  210.5550  149.9830 C   0  0  1  0  0  0  0  0  0  0  0  0
  161.6810  207.7640  155.9360 C   0  0  0  0  0  0  0  0  0  0  0  0
  157.2780  208.1140  155.2800 O   0  0  0  0  0  1  0  0  0  0  0  0
  159.9610  207.3550  153.7720 C   0  0  0  0  0  3  0  0  0  0  0  0
  163.6830  212.8580  147.5970 C   0  0  2  0  0  3  0  0  0  0  0  0
  162.2130  211.8010  149.2560 N   0  0  2  0  0  0  0  0  0  0  0  0
  164.6330  212.6010  146.6100 O   0  0  0  0  0  1  0  0  0  0  0  0
  161.0290  212.3920  148.6130 C   0  0  0  0  0  2  0  0  0  0  0  0
  161.3830  213.7540  148.0160 C   0  0  1  0  0  3  0  0  0  0  0  0
  163.2210  211.5410  148.2150 C   0  0  0  0  0  2  0  0  0  0  0  0
  162.4900  213.5800  146.9800 C   0  0  0  0  0  2  0  0  0  0  0  0
  159.0310  213.6090  147.6440 O   0  0  0  0  0  1  0  0  0  0  0  0
  160.1640  214.3670  147.3530 C   0  0  0  0  0  2  0  0  0  0  0  0
  161.1210  202.3300  149.7760 C   0  0  0  0  0  3  0  0  0  0  0  0
  162.0350  203.2770  151.6920 C   0  0  0  0  0  3  0  0  0  0  0  0
  160.5580  203.5120  149.9670 C   0  0  0  0  0  3  0  0  0  0  0  0
  161.1390  204.0930  151.1610 C   0  0  0  0  0  0  0  0  0  0  0  0
  162.1240  202.0510  150.8500 C   0  0  0  0  0  2  0  0  0  0  0  0
  159.9150  206.1950  148.5870 C   0  0  0  0  0  1  0  0  0  0  0  0
  159.6210  206.6510  149.8810 O   0  0  0  0  0  0  0  0  0  0  0  0
  1 26  1  0  0  0  0
  3 20  1  0  0  0  0
  4 21  1  0  0  0  0
  5 22  1  0  0  0  0
  5  7  1  0  0  0  0
  6 15  1  0  0  0  0
  6  1  2  0  0  0  0
  7 20  1  0  0  0  0
  8  6  1  0  0  0  0
  9 10  2  0  0  0  0
 10 28  1  0  0  0  0
 11 23  1  1  0  0  0
 11 13  1  0  0  0  0
 11 24  1  0  0  0  0
 14 43  1  6  0  0  0
 14 18  1  0  0  0  0
 15 19  2  0  0  0  0
 16  4  1  0  0  0  0
 16 29  1  1  0  0  0
 16  1  1  0  0  0  0
 18  9  1  0  0  0  0
 19 25  1  0  0  0  0
 19  2  1  0  0  0  0
 21 28  2  0  0  0  0
 22 46  1  6  0  0  0
 22 14  1  0  0  0  0
 24  8  1  0  0  0  0
 26  2  2  0  0  0  0
 27 12  1  6  0  0  0
 27  3  1  0  0  0  0
 27 13  1  0  0  0  0
 28 17  1  0  0  0  0
 30  9  1  0  0  0  0
 30  4  2  0  0  0  0
 31 33  1  6  0  0  0
 31 36  1  0  0  0  0
 32 36  1  6  0  0  0
 32 27  1  0  0  0  0
 34 32  1  0  0  0  0
 35 39  1  6  0  0  0
 35 34  1  0  0  0  0
 37 31  1  0  0  0  0
 37 35  1  0  0  0  0
 39 38  1  0  0  0  0
 40 42  2  0  0  0  0
 40 44  1  0  0  0  0
 42 43  1  0  0  0  0
 43 41  2  0  0  0  0
 44 41  1  0  0  0  0
 45 46  1  0  0  0  0
M  END
>  <MODEL>
4

>  <REMARK>
 VINA RESULT:      13.8      2.229      7.474
  Name = 
  4 active torsions:
  status: ('A' for Active; 'I' for Inactive)
    1  A    between atoms: N_16  and  C_41
    2  A    between atoms: C_22  and  C_29
    3  A    between atoms: C_26  and  C_35
    4  A    between atoms: C_33  and  O_39
                            x       y       z     vdW  Elec       q    Type
                         _______ _______ _______ _____ _____    ______ ____

>  <TORSDO>
F 4

$$$$
