=
 OpenBabel11052410403D

 53 56  0  0  1  0  0  0  0  0999 V2000
  160.1210  213.8480  151.6140 C   0  0  0  0  0  2  0  0  0  0  0  0
  162.2770  212.3820  150.0870 C   0  0  0  0  0  2  0  0  0  0  0  0
  160.5040  213.9590  154.4090 O   0  0  0  0  0  0  0  0  0  0  0  0
  159.7670  213.9260  150.3200 C   0  0  1  0  0  3  0  0  0  0  0  0
  159.4530  212.9250  152.5710 C   0  0  2  0  0  3  0  0  0  0  0  0
  161.0300  210.3030  150.1720 O   0  0  0  0  0  0  0  0  0  0  0  0
  160.8290  214.3400  149.3590 C   0  0  0  0  0  2  0  0  0  0  0  0
  158.4880  210.2680  153.7280 C   0  0  0  0  0  2  0  0  0  0  0  0
  158.8790  211.7460  155.6410 N   0  0  0  0  0  0  0  0  0  0  0  0
  158.9270  210.5420  155.1470 C   0  0  0  0  0  0  0  0  0  0  0  0
  159.6400  210.3950  152.7770 C   0  0  0  0  0  0  0  0  0  0  0  0
  161.2660  209.3490  151.1800 C   0  0  1  0  0  3  0  0  0  0  0  0
  159.5100  213.3970  153.9840 C   0  0  0  0  0  0  0  0  0  0  0  0
  158.4330  212.9320  154.9200 C   0  0  2  0  0  3  0  0  0  0  0  0
  161.6880  213.1600  148.9010 C   0  0  1  0  0  3  0  0  0  0  0  0
  160.1780  211.6710  152.4620 N   0  0  0  0  0  2  0  0  0  0  0  0
  162.2750  210.8730  149.8620 C   0  0  0  0  0  2  0  0  0  0  0  0
  158.0740  214.0250  155.9080 C   0  0  0  0  0  1  0  0  0  0  0  0
  160.1270  209.3140  152.1700 C   0  0  0  0  0  3  0  0  0  0  0  0
  159.4860  209.5030  155.9680 N   0  0  0  0  0  0  0  0  0  0  0  0
  161.7430  210.2360  155.9000 N   0  0  0  0  0  1  0  0  0  0  0  0
  161.0670  208.2580  157.1790 N   0  0  0  0  0  1  0  0  0  0  0  0
  160.7190  209.3700  156.3590 C   0  0  0  0  0  0  0  0  0  0  0  0
  163.6930  214.4480  148.7620 F   0  0  0  0  0  0  0  0  0  0  0  0
  162.3220  214.4520  146.9780 F   0  0  0  0  0  0  0  0  0  0  0  0
  162.8270  213.6760  148.0140 C   0  0  0  0  0  0  0  0  0  0  0  0
  163.5290  212.5980  147.4670 F   0  0  0  0  0  0  0  0  0  0  0  0
  161.3880  207.9600  150.5640 C   0  0  0  0  0  2  0  0  0  0  0  0
  161.9080  206.9350  151.5520 C   0  0  0  0  0  2  0  0  0  0  0  0
  161.5750  204.5530  151.2630 C   0  0  1  0  0  3  0  0  0  0  0  0
  160.9270  205.7860  151.6960 C   0  0  1  0  0  3  0  0  0  0  0  0
  161.4310  204.8350  152.7000 N   0  0  0  0  0  2  0  0  0  0  0  0
  160.5190  203.5430  150.8430 C   0  0  0  0  0  2  0  0  0  0  0  0
  161.0430  202.6550  149.7200 C   0  0  0  0  0  2  0  0  0  0  0  0
  160.7640  203.2630  148.3480 C   0  0  0  0  0  2  0  0  0  0  0  0
  163.3140  204.7910  146.2160 O   0  0  0  0  0  0  0  0  0  0  0  0
  162.2120  204.6400  146.8010 C   0  0  0  0  0  0  0  0  0  0  0  0
  162.0160  203.5070  147.6430 N   0  0  0  0  0  2  0  0  0  0  0  0
  161.1240  205.6310  146.5710 C   0  0  0  0  0  2  0  0  0  0  0  0
  161.4150  206.9050  147.3530 C   0  0  0  0  0  1  0  0  0  0  0  0
  158.4550  213.4240  149.7680 C   0  0  1  0  0  3  0  0  0  0  0  0
  157.2850  213.7160  150.6550 C   0  0  0  0  0  0  0  0  0  0  0  0
  157.4770  214.0290  151.8640 O   0  0  0  0  0  1  0  0  0  0  0  0
  155.9880  213.5840  150.1690 O   0  0  0  0  0  0  0  0  0  0  0  0
  158.2380  213.9090  148.4690 O   0  0  0  0  0  0  0  0  0  0  0  0
  158.1390  212.6490  145.1180 C   0  0  1  0  0  3  0  0  0  0  0  0
  157.8100  213.8930  144.3170 C   0  0  0  0  0  1  0  0  0  0  0  0
  159.0130  213.0260  146.3060 C   0  0  1  0  0  3  0  0  0  0  0  0
  156.7540  212.4730  147.1300 C   0  0  0  0  0  2  0  0  0  0  0  0
  158.1660  212.8290  147.5600 C   0  0  2  0  0  3  0  0  0  0  0  0
  156.8680  212.0390  145.6770 C   0  0  0  0  0  2  0  0  0  0  0  0
  161.0330  212.2990  145.1960 O   0  0  0  0  0  1  0  0  0  0  0  0
  160.2750  212.1650  146.3650 C   0  0  0  0  0  2  0  0  0  0  0  0
  4 41  1  6  0  0  0
  4  1  1  0  0  0  0
  5  1  1  6  0  0  0
  5 13  1  0  0  0  0
  6 12  1  0  0  0  0
  7  4  1  0  0  0  0
  8 10  1  0  0  0  0
 10  9  2  0  0  0  0
 10 20  1  0  0  0  0
 11  8  1  0  0  0  0
 12 28  1  6  0  0  0
 12 19  1  0  0  0  0
 13  3  2  0  0  0  0
 13 14  1  0  0  0  0
 14  9  1  0  0  0  0
 14 18  1  1  0  0  0
 15 26  1  6  0  0  0
 15  7  1  0  0  0  0
 15  2  1  0  0  0  0
 16  5  1  0  0  0  0
 16 11  1  0  0  0  0
 17  2  1  0  0  0  0
 17  6  1  0  0  0  0
 19 11  2  0  0  0  0
 20 23  2  0  0  0  0
 21 23  1  0  0  0  0
 23 22  1  0  0  0  0
 25 26  1  0  0  0  0
 26 24  1  0  0  0  0
 27 26  1  0  0  0  0
 28 29  1  0  0  0  0
 30 33  1  1  0  0  0
 30 31  1  0  0  0  0
 30 32  1  0  0  0  0
 31 29  1  6  0  0  0
 31 32  1  0  0  0  0
 34 33  1  0  0  0  0
 35 34  1  0  0  0  0
 36 37  2  0  0  0  0
 37 38  1  0  0  0  0
 38 35  1  0  0  0  0
 39 37  1  0  0  0  0
 39 40  1  0  0  0  0
 41 45  1  6  0  0  0
 41 42  1  0  0  0  0
 42 43  1  0  0  0  0
 44 42  2  0  0  0  0
 46 47  1  1  0  0  0
 46 51  1  0  0  0  0
 46 48  1  0  0  0  0
 48 53  1  1  0  0  0
 48 50  1  0  0  0  0
 49 50  1  0  0  0  0
 50 45  1  6  0  0  0
 51 49  1  0  0  0  0
 52 53  1  0  0  0  0
M  END
>  <MODEL>
1

>  <REMARK>
 VINA RESULT:      -2.3      0.000      0.000
  Name = 
  15 active torsions:
  status: ('A' for Active; 'I' for Inactive)
    1  A    between atoms: C_1  and  C_15
    2  A    between atoms: C_1  and  C_37
    3  A    between atoms: N_2  and  C_35
    4  A    between atoms: C_5  and  C_12
    5  A    between atoms: C_5  and  C_32
    6  A    between atoms: C_10  and  C_13
    7  A    between atoms: C_10  and  C_17
    8  A    between atoms: C_10  and  O_52
    9  A    between atoms: C_15  and  C_23
   10  A    between atoms: C_18  and  C_33
   11  A    between atoms: C_26  and  C_28
   12  A    between atoms: C_31  and  C_40
   13  A    between atoms: C_32  and  C_43
   14  A    between atoms: C_42  and  O_52
   15  A    between atoms: C_43  and  N_48
                            x       y       z     vdW  Elec       q    Type
                         _______ _______ _______ _____ _____    ______ ____

>  <TORSDO>
F 15

$$$$
=
 OpenBabel11052410403D

 53 56  0  0  1  0  0  0  0  0999 V2000
  160.2620  213.7930  151.3140 C   0  0  0  0  0  2  0  0  0  0  0  0
  162.5160  212.3820  149.8800 C   0  0  0  0  0  2  0  0  0  0  0  0
  160.5490  213.9570  154.1180 O   0  0  0  0  0  0  0  0  0  0  0  0
  159.9480  213.8400  150.0080 C   0  0  1  0  0  3  0  0  0  0  0  0
  159.5950  212.8610  152.2630 C   0  0  2  0  0  3  0  0  0  0  0  0
  161.3400  210.2630  149.9560 O   0  0  0  0  0  0  0  0  0  0  0  0
  161.0250  214.2780  149.0760 C   0  0  0  0  0  2  0  0  0  0  0  0
  158.6860  210.1880  153.4290 C   0  0  0  0  0  2  0  0  0  0  0  0
  158.9630  211.7050  155.3310 N   0  0  0  0  0  0  0  0  0  0  0  0
  159.0680  210.4980  154.8570 C   0  0  0  0  0  0  0  0  0  0  0  0
  159.8620  210.3420  152.5140 C   0  0  0  0  0  0  0  0  0  0  0  0
  161.5760  209.3310  150.9860 C   0  0  1  0  0  3  0  0  0  0  0  0
  159.5900  213.3540  153.6700 C   0  0  0  0  0  0  0  0  0  0  0  0
  158.5000  212.8650  154.5780 C   0  0  2  0  0  3  0  0  0  0  0  0
  161.9390  213.1230  148.6640 C   0  0  1  0  0  3  0  0  0  0  0  0
  160.3670  211.6320  152.1970 N   0  0  0  0  0  2  0  0  0  0  0  0
  162.5740  210.8710  149.6780 C   0  0  0  0  0  2  0  0  0  0  0  0
  158.0700  213.9580  155.5370 C   0  0  0  0  0  1  0  0  0  0  0  0
  160.4070  209.2700  151.9400 C   0  0  0  0  0  3  0  0  0  0  0  0
  159.6360  209.4900  155.7110 N   0  0  0  0  0  0  0  0  0  0  0  0
  161.8740  210.2820  155.6790 N   0  0  0  0  0  1  0  0  0  0  0  0
  161.2210  208.3130  156.9830 N   0  0  0  0  0  1  0  0  0  0  0  0
  160.8630  209.3980  156.1320 C   0  0  0  0  0  0  0  0  0  0  0  0
  162.5850  214.4520  146.7900 F   0  0  0  0  0  0  0  0  0  0  0  0
  163.8080  212.6190  147.2430 F   0  0  0  0  0  0  0  0  0  0  0  0
  163.0880  213.6660  147.8070 C   0  0  0  0  0  0  0  0  0  0  0  0
  163.9500  214.4310  148.5960 F   0  0  0  0  0  0  0  0  0  0  0  0
  161.7650  207.9390  150.3960 C   0  0  0  0  0  2  0  0  0  0  0  0
  161.0400  207.7700  149.0750 C   0  0  0  0  0  2  0  0  0  0  0  0
  161.1690  205.6610  147.8890 C   0  0  1  0  0  3  0  0  0  0  0  0
  161.8630  206.9230  148.1200 C   0  0  1  0  0  3  0  0  0  0  0  0
  161.1090  206.7220  146.8720 N   0  0  0  0  0  2  0  0  0  0  0  0
  162.1680  204.6030  147.4510 C   0  0  0  0  0  2  0  0  0  0  0  0
  161.5680  203.2090  147.5870 C   0  0  0  0  0  2  0  0  0  0  0  0
  160.3580  203.2080  148.5170 C   0  0  0  0  0  2  0  0  0  0  0  0
  161.3370  201.8390  151.7650 O   0  0  0  0  0  0  0  0  0  0  0  0
  161.1750  202.6850  150.8510 C   0  0  0  0  0  0  0  0  0  0  0  0
  160.5730  202.2830  149.6230 N   0  0  0  0  0  2  0  0  0  0  0  0
  161.6490  204.0820  151.0600 C   0  0  0  0  0  2  0  0  0  0  0  0
  160.5730  204.8890  151.7740 C   0  0  0  0  0  1  0  0  0  0  0  0
  158.6720  213.2850  149.4220 C   0  0  1  0  0  3  0  0  0  0  0  0
  157.5270  213.2790  150.3860 C   0  0  0  0  0  0  0  0  0  0  0  0
  157.1950  212.2030  150.9600 O   0  0  0  0  0  1  0  0  0  0  0  0
  156.7890  214.4390  150.6040 O   0  0  0  0  0  0  0  0  0  0  0  0
  158.3320  213.9530  148.2360 O   0  0  0  0  0  0  0  0  0  0  0  0
  158.0420  213.0920  144.7720 C   0  0  1  0  0  3  0  0  0  0  0  0
  158.0030  214.4530  144.1050 C   0  0  0  0  0  1  0  0  0  0  0  0
  158.9500  213.1500  145.9920 C   0  0  1  0  0  3  0  0  0  0  0  0
  156.6070  213.0110  146.7540 C   0  0  0  0  0  2  0  0  0  0  0  0
  158.0530  213.0110  147.2190 C   0  0  2  0  0  3  0  0  0  0  0  0
  156.6590  212.7140  145.2640 C   0  0  0  0  0  2  0  0  0  0  0  0
  160.0410  211.4190  144.7070 O   0  0  0  0  0  1  0  0  0  0  0  0
  159.9990  212.0390  145.9610 C   0  0  0  0  0  2  0  0  0  0  0  0
  4 41  1  6  0  0  0
  4  1  1  0  0  0  0
  5  1  1  6  0  0  0
  5 13  1  0  0  0  0
  6 12  1  0  0  0  0
  7  4  1  0  0  0  0
  8 10  1  0  0  0  0
 10  9  2  0  0  0  0
 10 20  1  0  0  0  0
 11  8  1  0  0  0  0
 12 28  1  6  0  0  0
 12 19  1  0  0  0  0
 13  3  2  0  0  0  0
 13 14  1  0  0  0  0
 14  9  1  0  0  0  0
 14 18  1  1  0  0  0
 15 26  1  1  0  0  0
 15  7  1  0  0  0  0
 15  2  1  0  0  0  0
 16  5  1  0  0  0  0
 16 11  1  0  0  0  0
 17  2  1  0  0  0  0
 17  6  1  0  0  0  0
 19 11  2  0  0  0  0
 20 23  2  0  0  0  0
 21 23  1  0  0  0  0
 23 22  1  0  0  0  0
 24 26  1  0  0  0  0
 25 26  1  0  0  0  0
 26 27  1  0  0  0  0
 29 28  1  0  0  0  0
 30 33  1  6  0  0  0
 30 31  1  0  0  0  0
 31 29  1  1  0  0  0
 32 30  1  0  0  0  0
 32 31  1  0  0  0  0
 33 34  1  0  0  0  0
 34 35  1  0  0  0  0
 35 38  1  0  0  0  0
 37 39  1  0  0  0  0
 37 36  2  0  0  0  0
 38 37  1  0  0  0  0
 39 40  1  0  0  0  0
 41 45  1  6  0  0  0
 41 42  1  0  0  0  0
 42 44  2  0  0  0  0
 42 43  1  0  0  0  0
 46 47  1  1  0  0  0
 46 51  1  0  0  0  0
 46 48  1  0  0  0  0
 48 53  1  6  0  0  0
 48 50  1  0  0  0  0
 49 50  1  0  0  0  0
 50 45  1  1  0  0  0
 51 49  1  0  0  0  0
 52 53  1  0  0  0  0
M  END
>  <MODEL>
2

>  <REMARK>
 VINA RESULT:      -1.8      1.294      2.137
  Name = 
  15 active torsions:
  status: ('A' for Active; 'I' for Inactive)
    1  A    between atoms: C_1  and  C_15
    2  A    between atoms: C_1  and  C_37
    3  A    between atoms: N_2  and  C_35
    4  A    between atoms: C_5  and  C_12
    5  A    between atoms: C_5  and  C_32
    6  A    between atoms: C_10  and  C_13
    7  A    between atoms: C_10  and  C_17
    8  A    between atoms: C_10  and  O_52
    9  A    between atoms: C_15  and  C_23
   10  A    between atoms: C_18  and  C_33
   11  A    between atoms: C_26  and  C_28
   12  A    between atoms: C_31  and  C_40
   13  A    between atoms: C_32  and  C_43
   14  A    between atoms: C_42  and  O_52
   15  A    between atoms: C_43  and  N_48
                            x       y       z     vdW  Elec       q    Type
                         _______ _______ _______ _____ _____    ______ ____

>  <TORSDO>
F 15

$$$$
=
 OpenBabel11052410403D

 53 56  0  0  1  0  0  0  0  0999 V2000
  160.1770  213.8910  151.4290 C   0  0  0  0  0  2  0  0  0  0  0  0
  162.4080  212.2970  150.1630 C   0  0  0  0  0  2  0  0  0  0  0  0
  160.3910  214.2320  154.2240 O   0  0  0  0  0  0  0  0  0  0  0  0
  159.9020  213.8630  150.1140 C   0  0  1  0  0  3  0  0  0  0  0  0
  159.4440  213.0530  152.4170 C   0  0  2  0  0  3  0  0  0  0  0  0
  161.1420  210.2370  150.3420 O   0  0  0  0  0  0  0  0  0  0  0  0
  161.0230  214.1930  149.1890 C   0  0  0  0  0  2  0  0  0  0  0  0
  158.3890  210.5040  153.7280 C   0  0  0  0  0  2  0  0  0  0  0  0
  158.6760  212.1340  155.5340 N   0  0  0  0  0  0  0  0  0  0  0  0
  158.7440  210.8930  155.1430 C   0  0  0  0  0  0  0  0  0  0  0  0
  159.5970  210.5490  152.8420 C   0  0  0  0  0  0  0  0  0  0  0  0
  161.3080  209.3680  151.4380 C   0  0  1  0  0  3  0  0  0  0  0  0
  159.4200  213.6400  153.7870 C   0  0  0  0  0  0  0  0  0  0  0  0
  158.2850  213.2580  154.6910 C   0  0  2  0  0  3  0  0  0  0  0  0
  161.8980  212.9770  148.8830 C   0  0  1  0  0  3  0  0  0  0  0  0
  160.1640  211.7920  152.4560 N   0  0  0  0  0  2  0  0  0  0  0  0
  162.4080  210.7740  150.0630 C   0  0  0  0  0  2  0  0  0  0  0  0
  157.8750  214.4290  155.5620 C   0  0  0  0  0  1  0  0  0  0  0  0
  160.1110  209.4190  152.3570 C   0  0  0  0  0  3  0  0  0  0  0  0
  159.2430  209.9240  156.0800 N   0  0  0  0  0  0  0  0  0  0  0  0
  161.5280  210.0290  155.4450 N   0  0  0  0  0  1  0  0  0  0  0  0
  160.7610  208.5740  157.2600 N   0  0  0  0  0  1  0  0  0  0  0  0
  160.4770  209.5580  156.2700 C   0  0  0  0  0  0  0  0  0  0  0  0
  163.8620  212.3150  147.7000 F   0  0  0  0  0  0  0  0  0  0  0  0
  163.8850  214.3180  148.7250 F   0  0  0  0  0  0  0  0  0  0  0  0
  163.0930  213.4130  148.0280 C   0  0  0  0  0  0  0  0  0  0  0  0
  162.6410  214.0230  146.8550 F   0  0  0  0  0  0  0  0  0  0  0  0
  161.4550  207.9330  150.9470 C   0  0  0  0  0  2  0  0  0  0  0  0
  160.9010  207.7430  149.5490 C   0  0  0  0  0  2  0  0  0  0  0  0
  161.3860  206.8750  147.3400 C   0  0  1  0  0  3  0  0  0  0  0  0
  161.9950  207.2850  148.6000 C   0  0  1  0  0  3  0  0  0  0  0  0
  162.0420  208.1880  147.4380 N   0  0  0  0  0  2  0  0  0  0  0  0
  162.3100  205.9060  146.6200 C   0  0  0  0  0  2  0  0  0  0  0  0
  162.4180  204.5950  147.3890 C   0  0  0  0  0  2  0  0  0  0  0  0
  161.1080  203.8120  147.3480 C   0  0  0  0  0  2  0  0  0  0  0  0
  160.9040  200.6790  149.2250 O   0  0  0  0  0  0  0  0  0  0  0  0
  160.9470  201.4510  148.2350 C   0  0  0  0  0  0  0  0  0  0  0  0
  161.0580  202.8560  148.4470 N   0  0  0  0  0  2  0  0  0  0  0  0
  160.8420  200.8810  146.8630 C   0  0  0  0  0  2  0  0  0  0  0  0
  161.6120  199.5700  146.7900 C   0  0  0  0  0  1  0  0  0  0  0  0
  158.6210  213.3220  149.5260 C   0  0  1  0  0  3  0  0  0  0  0  0
  157.4720  213.3380  150.4850 C   0  0  0  0  0  0  0  0  0  0  0  0
  156.6970  214.3360  150.5200 O   0  0  0  0  0  0  0  0  0  0  0  0
  157.2920  212.2880  151.3800 O   0  0  0  0  0  1  0  0  0  0  0  0
  158.2950  213.9870  148.3350 O   0  0  0  0  0  0  0  0  0  0  0  0
  157.7850  213.2380  144.8700 C   0  0  1  0  0  3  0  0  0  0  0  0
  156.9810  214.4330  144.3990 C   0  0  0  0  0  1  0  0  0  0  0  0
  158.7730  213.6810  145.9400 C   0  0  1  0  0  3  0  0  0  0  0  0
  156.9700  212.3860  147.0160 C   0  0  0  0  0  2  0  0  0  0  0  0
  158.3030  213.0720  147.2580 C   0  0  2  0  0  3  0  0  0  0  0  0
  156.8680  212.2130  145.5100 C   0  0  0  0  0  2  0  0  0  0  0  0
  160.4450  211.9460  146.1200 O   0  0  0  0  0  1  0  0  0  0  0  0
  160.1940  213.2240  145.6090 C   0  0  0  0  0  2  0  0  0  0  0  0
  4 41  1  6  0  0  0
  4  1  1  0  0  0  0
  5  1  1  6  0  0  0
  5 16  1  0  0  0  0
  5 13  1  0  0  0  0
  6 12  1  0  0  0  0
  7  4  1  0  0  0  0
  8 10  1  0  0  0  0
 10  9  2  0  0  0  0
 10 20  1  0  0  0  0
 11  8  1  0  0  0  0
 12 28  1  6  0  0  0
 12 19  1  0  0  0  0
 13  3  2  0  0  0  0
 13 14  1  0  0  0  0
 14  9  1  0  0  0  0
 14 18  1  1  0  0  0
 15 26  1  6  0  0  0
 15  7  1  0  0  0  0
 15  2  1  0  0  0  0
 16 11  1  0  0  0  0
 17  2  1  0  0  0  0
 17  6  1  0  0  0  0
 19 11  2  0  0  0  0
 20 23  2  0  0  0  0
 21 23  1  0  0  0  0
 23 22  1  0  0  0  0
 24 26  1  0  0  0  0
 26 25  1  0  0  0  0
 27 26  1  0  0  0  0
 29 28  1  0  0  0  0
 30 33  1  6  0  0  0
 30 32  1  0  0  0  0
 30 31  1  0  0  0  0
 31 29  1  1  0  0  0
 32 31  1  0  0  0  0
 33 34  1  0  0  0  0
 35 34  1  0  0  0  0
 35 38  1  0  0  0  0
 37 38  1  0  0  0  0
 37 36  2  0  0  0  0
 39 37  1  0  0  0  0
 40 39  1  0  0  0  0
 41 45  1  6  0  0  0
 41 42  1  0  0  0  0
 42 43  2  0  0  0  0
 42 44  1  0  0  0  0
 46 47  1  1  0  0  0
 46 51  1  0  0  0  0
 46 48  1  0  0  0  0
 48 53  1  6  0  0  0
 48 50  1  0  0  0  0
 49 50  1  0  0  0  0
 50 45  1  1  0  0  0
 51 49  1  0  0  0  0
 53 52  1  0  0  0  0
M  END
>  <MODEL>
3

>  <REMARK>
 VINA RESULT:      -1.1      1.411      2.269
  Name = 
  15 active torsions:
  status: ('A' for Active; 'I' for Inactive)
    1  A    between atoms: C_1  and  C_15
    2  A    between atoms: C_1  and  C_37
    3  A    between atoms: N_2  and  C_35
    4  A    between atoms: C_5  and  C_12
    5  A    between atoms: C_5  and  C_32
    6  A    between atoms: C_10  and  C_13
    7  A    between atoms: C_10  and  C_17
    8  A    between atoms: C_10  and  O_52
    9  A    between atoms: C_15  and  C_23
   10  A    between atoms: C_18  and  C_33
   11  A    between atoms: C_26  and  C_28
   12  A    between atoms: C_31  and  C_40
   13  A    between atoms: C_32  and  C_43
   14  A    between atoms: C_42  and  O_52
   15  A    between atoms: C_43  and  N_48
                            x       y       z     vdW  Elec       q    Type
                         _______ _______ _______ _____ _____    ______ ____

>  <TORSDO>
F 15

$$$$
=
 OpenBabel11052410403D

 53 56  0  0  1  0  0  0  0  0999 V2000
  161.5760  212.0320  151.3620 C   0  0  0  0  0  2  0  0  0  0  0  0
  162.9710  211.4520  148.7450 C   0  0  0  0  0  2  0  0  0  0  0  0
  162.7510  210.8330  153.6320 O   0  0  0  0  0  0  0  0  0  0  0  0
  160.8840  212.7010  150.4250 C   0  0  1  0  0  3  0  0  0  0  0  0
  161.0810  210.7670  151.9700 C   0  0  2  0  0  3  0  0  0  0  0  0
  161.5120  209.5680  148.2970 O   0  0  0  0  0  0  0  0  0  0  0  0
  161.6770  213.5190  149.4630 C   0  0  0  0  0  2  0  0  0  0  0  0
  160.1110  207.8730  152.0760 C   0  0  0  0  0  2  0  0  0  0  0  0
  161.2410  208.2930  154.2070 N   0  0  0  0  0  0  0  0  0  0  0  0
  160.9700  207.4580  153.2460 C   0  0  0  0  0  0  0  0  0  0  0  0
  160.9490  208.4320  150.9670 C   0  0  0  0  0  0  0  0  0  0  0  0
  161.8840  208.2550  148.6460 C   0  0  1  0  0  3  0  0  0  0  0  0
  161.6060  210.5280  153.3450 C   0  0  0  0  0  0  0  0  0  0  0  0
  160.7850  209.6770  154.2690 C   0  0  2  0  0  3  0  0  0  0  0  0
  162.1890  212.6900  148.2840 C   0  0  1  0  0  3  0  0  0  0  0  0
  161.5560  209.7100  151.0940 N   0  0  0  0  0  2  0  0  0  0  0  0
  162.6860  210.2200  147.8910 C   0  0  0  0  0  2  0  0  0  0  0  0
  160.8840  210.1840  155.6940 C   0  0  0  0  0  1  0  0  0  0  0  0
  161.0820  207.7590  149.8240 C   0  0  0  0  0  3  0  0  0  0  0  0
  161.5820  206.1590  153.2970 N   0  0  0  0  0  0  0  0  0  0  0  0
  160.7020  205.3220  151.2570 N   0  0  0  0  0  1  0  0  0  0  0  0
  162.2100  203.9890  152.6540 N   0  0  0  0  0  1  0  0  0  0  0  0
  161.5220  205.2110  152.4080 C   0  0  0  0  0  0  0  0  0  0  0  0
  162.3190  214.3260  146.5510 F   0  0  0  0  0  0  0  0  0  0  0  0
  163.9400  212.7700  146.6430 F   0  0  0  0  0  0  0  0  0  0  0  0
  163.0900  213.5630  147.4040 C   0  0  0  0  0  0  0  0  0  0  0  0
  163.8620  214.4090  148.2050 F   0  0  0  0  0  0  0  0  0  0  0  0
  161.6220  207.3120  147.4770 C   0  0  0  0  0  2  0  0  0  0  0  0
  162.8170  206.4330  147.1670 C   0  0  0  0  0  2  0  0  0  0  0  0
  161.7250  205.1710  145.4110 C   0  0  1  0  0  3  0  0  0  0  0  0
  162.3640  205.0550  146.7170 C   0  0  1  0  0  3  0  0  0  0  0  0
  163.1050  204.6690  145.5050 N   0  0  0  0  0  2  0  0  0  0  0  0
  160.7800  204.0000  145.2010 C   0  0  0  0  0  2  0  0  0  0  0  0
  161.4800  202.6820  145.5120 C   0  0  0  0  0  2  0  0  0  0  0  0
  160.4800  201.5860  145.8700 C   0  0  0  0  0  2  0  0  0  0  0  0
  159.3290  202.1990  149.2880 O   0  0  0  0  0  0  0  0  0  0  0  0
  160.0810  201.8240  148.3550 C   0  0  0  0  0  0  0  0  0  0  0  0
  159.6630  202.0020  147.0030 N   0  0  0  0  0  2  0  0  0  0  0  0
  161.3770  201.1660  148.6830 C   0  0  0  0  0  2  0  0  0  0  0  0
  161.6150  201.2210  150.1860 C   0  0  0  0  0  1  0  0  0  0  0  0
  159.4100  212.5090  150.1600 C   0  0  1  0  0  3  0  0  0  0  0  0
  158.5590  212.6770  151.3790 C   0  0  0  0  0  0  0  0  0  0  0  0
  158.4410  211.7220  152.1990 O   0  0  0  0  0  1  0  0  0  0  0  0
  157.8490  213.8560  151.5810 O   0  0  0  0  0  0  0  0  0  0  0  0
  158.9730  213.3420  149.1200 O   0  0  0  0  0  0  0  0  0  0  0  0
  157.8150  212.9810  145.7510 C   0  0  1  0  0  3  0  0  0  0  0  0
  157.7270  214.4210  145.2850 C   0  0  0  0  0  1  0  0  0  0  0  0
  158.9850  212.8290  146.7120 C   0  0  1  0  0  3  0  0  0  0  0  0
  156.8820  212.6940  147.9960 C   0  0  0  0  0  2  0  0  0  0  0  0
  158.3920  212.5640  148.0930 C   0  0  2  0  0  3  0  0  0  0  0  0
  156.5600  212.6030  146.5130 C   0  0  0  0  0  2  0  0  0  0  0  0
  160.7130  212.0580  145.2100 O   0  0  0  0  0  1  0  0  0  0  0  0
  159.9070  211.6850  146.2910 C   0  0  0  0  0  2  0  0  0  0  0  0
  4 41  1  6  0  0  0
  4  1  1  0  0  0  0
  5  1  1  6  0  0  0
  5 13  1  0  0  0  0
  6 12  1  0  0  0  0
  7  4  1  0  0  0  0
  8 10  1  0  0  0  0
  9 14  1  0  0  0  0
 10 20  1  0  0  0  0
 10  9  2  0  0  0  0
 11 16  1  0  0  0  0
 11  8  1  0  0  0  0
 12 28  1  6  0  0  0
 12 19  1  0  0  0  0
 13  3  2  0  0  0  0
 13 14  1  0  0  0  0
 14 18  1  1  0  0  0
 15 26  1  6  0  0  0
 15  2  1  0  0  0  0
 15  7  1  0  0  0  0
 16  5  1  0  0  0  0
 17  6  1  0  0  0  0
 17  2  1  0  0  0  0
 19 11  2  0  0  0  0
 21 23  1  0  0  0  0
 23 22  1  0  0  0  0
 23 20  2  0  0  0  0
 24 26  1  0  0  0  0
 25 26  1  0  0  0  0
 26 27  1  0  0  0  0
 29 28  1  0  0  0  0
 30 33  1  1  0  0  0
 30 32  1  0  0  0  0
 30 31  1  0  0  0  0
 31 29  1  6  0  0  0
 32 31  1  0  0  0  0
 33 34  1  0  0  0  0
 34 35  1  0  0  0  0
 35 38  1  0  0  0  0
 37 39  1  0  0  0  0
 37 36  2  0  0  0  0
 38 37  1  0  0  0  0
 39 40  1  0  0  0  0
 41 45  1  6  0  0  0
 41 42  1  0  0  0  0
 42 44  2  0  0  0  0
 42 43  1  0  0  0  0
 46 47  1  1  0  0  0
 46 51  1  0  0  0  0
 46 48  1  0  0  0  0
 48 53  1  6  0  0  0
 48 50  1  0  0  0  0
 49 50  1  0  0  0  0
 50 45  1  1  0  0  0
 51 49  1  0  0  0  0
 52 53  1  0  0  0  0
M  END
>  <MODEL>
4

>  <REMARK>
 VINA RESULT:      -0.7      2.044      3.603
  Name = 
  15 active torsions:
  status: ('A' for Active; 'I' for Inactive)
    1  A    between atoms: C_1  and  C_15
    2  A    between atoms: C_1  and  C_37
    3  A    between atoms: N_2  and  C_35
    4  A    between atoms: C_5  and  C_12
    5  A    between atoms: C_5  and  C_32
    6  A    between atoms: C_10  and  C_13
    7  A    between atoms: C_10  and  C_17
    8  A    between atoms: C_10  and  O_52
    9  A    between atoms: C_15  and  C_23
   10  A    between atoms: C_18  and  C_33
   11  A    between atoms: C_26  and  C_28
   12  A    between atoms: C_31  and  C_40
   13  A    between atoms: C_32  and  C_43
   14  A    between atoms: C_42  and  O_52
   15  A    between atoms: C_43  and  N_48
                            x       y       z     vdW  Elec       q    Type
                         _______ _______ _______ _____ _____    ______ ____

>  <TORSDO>
F 15

$$$$
=
 OpenBabel11052410403D

 53 56  0  0  1  0  0  0  0  0999 V2000
  160.1990  213.9660  151.2170 C   0  0  0  0  0  2  0  0  0  0  0  0
  162.4020  212.3280  149.9540 C   0  0  0  0  0  2  0  0  0  0  0  0
  160.3490  214.2020  154.0260 O   0  0  0  0  0  0  0  0  0  0  0  0
  159.9600  213.9930  149.8950 C   0  0  1  0  0  3  0  0  0  0  0  0
  159.4080  213.1240  152.1540 C   0  0  2  0  0  3  0  0  0  0  0  0
  161.0520  210.3150  150.0270 O   0  0  0  0  0  0  0  0  0  0  0  0
  161.1180  214.3100  149.0120 C   0  0  0  0  0  2  0  0  0  0  0  0
  158.2190  210.5750  153.3470 C   0  0  0  0  0  2  0  0  0  0  0  0
  158.5190  212.1290  155.2150 N   0  0  0  0  0  0  0  0  0  0  0  0
  158.5490  210.9010  154.7840 C   0  0  0  0  0  0  0  0  0  0  0  0
  159.4520  210.6020  152.4950 C   0  0  0  0  0  0  0  0  0  0  0  0
  161.1540  209.4040  151.0960 C   0  0  1  0  0  3  0  0  0  0  0  0
  159.3680  213.6640  153.5440 C   0  0  0  0  0  0  0  0  0  0  0  0
  158.1940  213.2960  154.4030 C   0  0  2  0  0  3  0  0  0  0  0  0
  161.9540  213.0710  148.6860 C   0  0  1  0  0  3  0  0  0  0  0  0
  160.0770  211.8340  152.1680 N   0  0  0  0  0  2  0  0  0  0  0  0
  162.3450  210.8110  149.8000 C   0  0  0  0  0  2  0  0  0  0  0  0
  157.8070  214.4520  155.3040 C   0  0  0  0  0  1  0  0  0  0  0  0
  159.9350  209.4700  151.9840 C   0  0  0  0  0  3  0  0  0  0  0  0
  158.9850  209.8810  155.6980 N   0  0  0  0  0  0  0  0  0  0  0  0
  161.3210  210.1690  155.3930 N   0  0  0  0  0  1  0  0  0  0  0  0
  160.4200  208.5170  156.9620 N   0  0  0  0  0  1  0  0  0  0  0  0
  160.2040  209.5680  156.0250 C   0  0  0  0  0  0  0  0  0  0  0  0
  164.0900  214.1360  148.6990 F   0  0  0  0  0  0  0  0  0  0  0  0
  162.8260  214.3510  146.8500 F   0  0  0  0  0  0  0  0  0  0  0  0
  163.1880  213.4890  147.8780 C   0  0  0  0  0  0  0  0  0  0  0  0
  163.7980  212.3610  147.3250 F   0  0  0  0  0  0  0  0  0  0  0  0
  161.2590  207.9810  150.5580 C   0  0  0  0  0  2  0  0  0  0  0  0
  161.6320  207.9460  149.0890 C   0  0  0  0  0  2  0  0  0  0  0  0
  161.0620  205.6180  149.4390 C   0  0  1  0  0  3  0  0  0  0  0  0
  161.8810  206.5190  148.6360 C   0  0  1  0  0  3  0  0  0  0  0  0
  160.6410  205.9620  148.0720 N   0  0  0  0  0  2  0  0  0  0  0  0
  161.6810  204.2300  149.4370 C   0  0  0  0  0  2  0  0  0  0  0  0
  160.7880  203.2450  148.6920 C   0  0  0  0  0  2  0  0  0  0  0  0
  161.6090  202.1740  147.9780 C   0  0  0  0  0  2  0  0  0  0  0  0
  160.2700  202.0660  144.5760 O   0  0  0  0  0  0  0  0  0  0  0  0
  160.8870  202.5030  145.5780 C   0  0  0  0  0  0  0  0  0  0  0  0
  160.9180  201.7290  146.7740 N   0  0  0  0  0  2  0  0  0  0  0  0
  161.5420  203.8400  145.5040 C   0  0  0  0  0  2  0  0  0  0  0  0
  160.7860  204.7290  144.5260 C   0  0  0  0  0  1  0  0  0  0  0  0
  158.6760  213.5240  149.2550 C   0  0  1  0  0  3  0  0  0  0  0  0
  157.6050  213.1870  150.2450 C   0  0  0  0  0  0  0  0  0  0  0  0
  157.2690  211.9810  150.4200 O   0  0  0  0  0  0  0  0  0  0  0  0
  156.9380  214.2000  150.9260 O   0  0  0  0  0  1  0  0  0  0  0  0
  158.2170  214.4530  148.3100 O   0  0  0  0  0  0  0  0  0  0  0  0
  159.5740  212.0110  146.0690 C   0  0  1  0  0  3  0  0  0  0  0  0
  160.6580  211.3700  146.9120 C   0  0  0  0  0  1  0  0  0  0  0  0
  158.4030  212.4030  146.9600 C   0  0  1  0  0  3  0  0  0  0  0  0
  159.5930  214.4510  146.2690 C   0  0  0  0  0  2  0  0  0  0  0  0
  158.3730  213.9280  147.0060 C   0  0  2  0  0  3  0  0  0  0  0  0
  160.0940  213.2850  145.4330 C   0  0  0  0  0  2  0  0  0  0  0  0
  156.5460  212.6950  145.4420 O   0  0  0  0  0  1  0  0  0  0  0  0
  157.0830  211.8520  146.4210 C   0  0  0  0  0  2  0  0  0  0  0  0
  4 41  1  6  0  0  0
  4  1  1  0  0  0  0
  5  1  1  6  0  0  0
  5 16  1  0  0  0  0
  5 13  1  0  0  0  0
  6 12  1  0  0  0  0
  7  4  1  0  0  0  0
  8 10  1  0  0  0  0
 10  9  2  0  0  0  0
 10 20  1  0  0  0  0
 11  8  1  0  0  0  0
 12 28  1  6  0  0  0
 12 19  1  0  0  0  0
 13  3  2  0  0  0  0
 13 14  1  0  0  0  0
 14  9  1  0  0  0  0
 14 18  1  1  0  0  0
 15 26  1  1  0  0  0
 15  7  1  0  0  0  0
 15  2  1  0  0  0  0
 16 11  1  0  0  0  0
 17  2  1  0  0  0  0
 17  6  1  0  0  0  0
 19 11  2  0  0  0  0
 20 23  2  0  0  0  0
 21 23  1  0  0  0  0
 23 22  1  0  0  0  0
 25 26  1  0  0  0  0
 26 24  1  0  0  0  0
 27 26  1  0  0  0  0
 29 28  1  0  0  0  0
 30 33  1  6  0  0  0
 31 29  1  1  0  0  0
 31 30  1  0  0  0  0
 32 31  1  0  0  0  0
 32 30  1  0  0  0  0
 34 33  1  0  0  0  0
 35 34  1  0  0  0  0
 36 37  2  0  0  0  0
 37 38  1  0  0  0  0
 38 35  1  0  0  0  0
 39 37  1  0  0  0  0
 40 39  1  0  0  0  0
 41 45  1  6  0  0  0
 41 42  1  0  0  0  0
 42 43  2  0  0  0  0
 42 44  1  0  0  0  0
 46 47  1  1  0  0  0
 46 48  1  0  0  0  0
 48 53  1  6  0  0  0
 48 50  1  0  0  0  0
 49 50  1  0  0  0  0
 50 45  1  1  0  0  0
 51 46  1  0  0  0  0
 51 49  1  0  0  0  0
 52 53  1  0  0  0  0
M  END
>  <MODEL>
5

>  <REMARK>
 VINA RESULT:      -0.1      1.501      1.954
  Name = 
  15 active torsions:
  status: ('A' for Active; 'I' for Inactive)
    1  A    between atoms: C_1  and  C_15
    2  A    between atoms: C_1  and  C_37
    3  A    between atoms: N_2  and  C_35
    4  A    between atoms: C_5  and  C_12
    5  A    between atoms: C_5  and  C_32
    6  A    between atoms: C_10  and  C_13
    7  A    between atoms: C_10  and  C_17
    8  A    between atoms: C_10  and  O_52
    9  A    between atoms: C_15  and  C_23
   10  A    between atoms: C_18  and  C_33
   11  A    between atoms: C_26  and  C_28
   12  A    between atoms: C_31  and  C_40
   13  A    between atoms: C_32  and  C_43
   14  A    between atoms: C_42  and  O_52
   15  A    between atoms: C_43  and  N_48
                            x       y       z     vdW  Elec       q    Type
                         _______ _______ _______ _____ _____    ______ ____

>  <TORSDO>
F 15

$$$$
