=
 OpenBabel11042423013D

 65 68  0  0  1  0  0  0  0  0999 V2000
  160.0160  209.4120  155.0990 C   0  0  0  0  0  0  0  0  0  0  0  0
  160.3350  209.8320  153.8600 C   0  0  0  0  0  0  0  0  0  0  0  0
  161.0290  209.0310  155.9760 O   0  0  0  0  0  1  0  0  0  0  0  0
  157.8910  210.3820  156.0360 C   0  0  0  0  0  3  0  0  0  0  0  0
  158.6250  209.3640  155.5720 C   0  0  0  0  0  3  0  0  0  0  0  0
  159.5100  211.9470  156.7080 O   0  0  0  0  0  0  0  0  0  0  0  0
  157.4910  212.8840  156.0110 N   0  0  0  0  0  2  0  0  0  0  0  0
  158.3310  211.7630  156.2990 C   0  0  0  0  0  0  0  0  0  0  0  0
  157.9580  214.2550  156.1560 C   0  0  0  0  0  2  0  0  0  0  0  0
  159.2100  214.4510  155.3210 C   0  0  0  0  0  2  0  0  0  0  0  0
  159.1340  213.5940  154.0690 C   0  0  0  0  0  2  0  0  0  0  0  0
  157.7130  214.4020  152.5970 C   0  0  0  0  0  1  0  0  0  0  0  0
  159.0630  214.4010  152.9390 O   0  0  0  0  0  0  0  0  0  0  0  0
  159.3890  210.1920  152.8880 O   0  0  0  0  0  0  0  0  0  0  0  0
  159.6900  210.4290  151.5220 C   0  0  0  0  0  2  0  0  0  0  0  0
  160.1130  211.8730  151.3310 C   0  0  0  0  0  2  0  0  0  0  0  0
  161.7390  211.0780  149.6430 C   0  0  0  0  0  1  0  0  0  0  0  0
  160.6390  212.0770  149.9270 C   0  0  2  0  0  3  0  0  0  0  0  0
  161.1790  213.4820  149.7670 C   0  0  0  0  0  2  0  0  0  0  0  0
  161.8140  213.6760  148.3990 C   0  0  1  0  0  3  0  0  0  0  0  0
  162.8190  212.5630  148.1650 C   0  0  0  0  0  1  0  0  0  0  0  0
  160.8190  212.7210  146.5330 N   0  0  0  0  0  0  0  0  0  0  0  0
  160.7790  213.6060  147.4030 N   0  0  0  0  0  0  0  0  0  0  0  0
  159.8440  212.6920  145.4700 C   0  0  0  0  0  2  0  0  0  0  0  0
  161.2970  214.2670  144.4900 C   0  0  0  0  0  2  0  0  0  0  0  0
  161.5320  214.2720  143.0510 N   0  0  0  0  0  0  0  0  0  0  0  0
  159.4070  213.6840  143.4020 N   0  0  0  0  0  2  0  0  0  0  0  0
  160.4410  213.9220  142.4780 C   0  0  0  0  0  0  0  0  0  0  0  0
  159.8750  213.9370  144.7000 N   0  0  0  0  0  0  0  0  0  0  0  0
  161.8300  212.2970  139.0120 C   0  0  2  0  0  3  0  0  0  0  0  0
  162.4910  213.3660  139.9080 C   0  0  2  0  0  0  0  0  0  0  0  0
  158.5900  212.1340  140.7900 N   0  0  0  0  0  2  0  0  0  0  0  0
  163.0040  212.7890  141.0740 O   0  0  0  0  0  1  0  0  0  0  0  0
  159.7620  212.5760  140.4650 C   0  0  0  0  0  0  0  0  0  0  0  0
  161.4590  214.4420  140.2590 C   0  0  0  0  0  2  0  0  0  0  0  0
  160.6060  211.7820  139.6200 N   0  0  0  0  0  2  0  0  0  0  0  0
  160.2280  213.9080  140.9930 C   0  0  2  0  0  3  0  0  0  0  0  0
  163.6210  214.0540  139.1620 C   0  0  0  0  0  1  0  0  0  0  0  0
  162.7760  211.1440  138.7010 C   0  0  0  0  0  2  0  0  0  0  0  0
  162.4700  210.0300  139.4870 O   0  0  0  0  0  1  0  0  0  0  0  0
  162.0630  209.9280  153.3680 S   0  0  0  0  0  0  0  0  0  0  0  0
  162.1690  207.9760  151.4210 C   0  0  0  0  0  3  0  0  0  0  0  0
  162.0480  205.5870  151.8510 C   0  0  0  0  0  0  0  0  0  0  0  0
  161.9390  205.8550  153.2240 C   0  0  0  0  0  3  0  0  0  0  0  0
  162.0850  208.2320  152.7890 C   0  0  0  0  0  0  0  0  0  0  0  0
  162.1560  206.6580  150.9400 C   0  0  0  0  0  0  0  0  0  0  0  0
  161.9600  207.1720  153.6910 C   0  0  0  0  0  3  0  0  0  0  0  0
  160.6150  203.6370  151.6250 N   0  0  0  0  0  1  0  0  0  0  0  0
  161.9440  204.1750  151.3640 C   0  0  0  0  0  2  0  0  0  0  0  0
  162.1990  206.4320  149.4590 C   0  0  0  0  0  2  0  0  0  0  0  0
  160.8450  206.7170  148.8440 C   0  0  0  0  0  2  0  0  0  0  0  0
  160.3230  205.4690  148.1620 C   0  0  0  0  0  2  0  0  0  0  0  0
  160.6470  205.5050  146.7970 O   0  0  0  0  0  0  0  0  0  0  0  0
  164.1720  204.3690  146.0040 C   0  0  0  0  0  1  0  0  0  0  0  0
  162.9410  205.2100  146.1070 C   0  0  0  0  0  0  0  0  0  0  0  0
  162.9760  206.3980  145.6850 O   0  0  0  0  0  0  0  0  0  0  0  0
  161.7210  204.6850  146.6620 N   0  0  0  0  0  0  0  0  0  0  0  0
  161.6110  203.2500  146.9520 C   0  0  0  0  0  2  0  0  0  0  0  0
  160.1000  203.3780  144.9340 C   0  0  0  0  0  1  0  0  0  0  0  0
  160.8610  202.4530  145.8780 C   0  0  2  0  0  3  0  0  0  0  0  0
  161.5000  199.7170  147.5360 C   0  0  0  0  0  2  0  0  0  0  0  0
  160.5190  200.8580  147.7880 C   0  0  0  0  0  2  0  0  0  0  0  0
  161.4830  199.3540  146.0590 C   0  0  0  0  0  2  0  0  0  0  0  0
  159.9640  201.3540  146.4630 C   0  0  2  0  0  3  0  0  0  0  0  0
  159.9070  199.9070  145.3610 S   0  0  0  0  0  0  0  0  0  0  0  0
  1  5  1  0  0  0  0
  1  3  1  0  0  0  0
  2  1  2  0  0  0  0
  4  8  1  0  0  0  0
  5  4  2  0  0  0  0
  7  9  1  0  0  0  0
  7  8  1  0  0  0  0
  8  6  2  0  0  0  0
 10  9  1  0  0  0  0
 11 10  1  0  0  0  0
 12 13  1  0  0  0  0
 13 11  1  0  0  0  0
 14  2  1  0  0  0  0
 15 14  1  0  0  0  0
 16 15  1  0  0  0  0
 18 17  1  1  0  0  0
 18 16  1  0  0  0  0
 19 18  1  0  0  0  0
 20 21  1  6  0  0  0
 20 19  1  0  0  0  0
 22 23  2  0  0  0  0
 23 20  1  0  0  0  0
 24 22  1  0  0  0  0
 25 29  1  0  0  0  0
 26 25  1  0  0  0  0
 27 29  1  0  0  0  0
 28 26  2  0  0  0  0
 28 27  1  0  0  0  0
 29 24  1  0  0  0  0
 30 39  1  1  0  0  0
 30 36  1  0  0  0  0
 30 31  1  0  0  0  0
 31 38  1  6  0  0  0
 31 35  1  0  0  0  0
 31 33  1  0  0  0  0
 34 32  2  0  0  0  0
 34 37  1  0  0  0  0
 35 37  1  0  0  0  0
 36 34  1  0  0  0  0
 37 28  1  1  0  0  0
 39 40  1  0  0  0  0
 41  2  1  0  0  0  0
 42 45  1  0  0  0  0
 43 44  2  0  0  0  0
 44 47  1  0  0  0  0
 45 41  1  0  0  0  0
 45 47  2  0  0  0  0
 46 42  2  0  0  0  0
 46 43  1  0  0  0  0
 49 48  1  0  0  0  0
 49 43  1  0  0  0  0
 50 46  1  0  0  0  0
 51 50  1  0  0  0  0
 52 51  1  0  0  0  0
 53 52  1  0  0  0  0
 54 55  1  0  0  0  0
 55 57  1  0  0  0  0
 56 55  2  0  0  0  0
 57 53  1  0  0  0  0
 57 58  1  0  0  0  0
 60 59  1  1  0  0  0
 60 58  1  0  0  0  0
 61 62  1  0  0  0  0
 63 61  1  0  0  0  0
 64 60  1  6  0  0  0
 64 62  1  0  0  0  0
 65 63  1  0  0  0  0
 65 64  1  0  0  0  0
M  END
>  <MODEL>
1

>  <REMARK>
 VINA RESULT:      -1.7      0.000      0.000
  Name = 
  28 active torsions:
  status: ('A' for Active; 'I' for Inactive)
    1  A    between atoms: C_3  and  CA_18
    2  A    between atoms: N_6  and  C_13
    3  A    between atoms: C_7  and  N_57
    4  A    between atoms: C_7  and  C_65
    5  A    between atoms: C_10  and  C_46
    6  A    between atoms: C_13  and  N_53
    7  A    between atoms: C_14  and  C_56
    8  A    between atoms: C_15  and  C_19
    9  A    between atoms: C_20  and  S_23
   10  A    between atoms: C_21  and  C_33
   11  A    between atoms: C_21  and  C_52
   12  A    between atoms: S_23  and  C_61
   13  A    between atoms: O_24  and  C_47
   14  A    between atoms: O_24  and  C_61
   15  A    between atoms: N_27  and  C_33
   16  A    between atoms: C_30  and  C_32
   17  A    between atoms: C_30  and  C_35
   18  A    between atoms: C_32  and  C_40
   19  A    between atoms: C_34  and  C_37
   20  A    between atoms: C_34  and  C_42
   21  A    between atoms: C_35  and  C_47
   22  A    between atoms: C_37  and  C_51
   23  A    between atoms: C_38  and  C_58
   24  A    between atoms: C_40  and  N_49
   25  A    between atoms: O_48  and  C_52
   26  A    between atoms: C_50  and  C_65
   27  A    between atoms: C_51  and  O_60
   28  A    between atoms: N_57  and  O_60
                            x       y       z     vdW  Elec       q    Type
                         _______ _______ _______ _____ _____    ______ ____

>  <TORSDO>
F 28

$$$$
=
 OpenBabel11042423013D

 65 68  0  0  1  0  0  0  0  0999 V2000
  162.0020  204.9270  147.1490 C   0  0  0  0  0  0  0  0  0  0  0  0
  161.3470  205.5160  148.1680 C   0  0  0  0  0  0  0  0  0  0  0  0
  161.8360  203.5620  146.9260 O   0  0  0  0  0  1  0  0  0  0  0  0
  162.6500  205.9760  144.9550 C   0  0  0  0  0  3  0  0  0  0  0  0
  162.8760  205.6840  146.2410 C   0  0  0  0  0  3  0  0  0  0  0  0
  161.5890  205.7480  142.8700 O   0  0  0  0  0  0  0  0  0  0  0  0
  160.4720  204.7200  144.6410 N   0  0  0  0  0  2  0  0  0  0  0  0
  161.5400  205.5090  144.1080 C   0  0  0  0  0  0  0  0  0  0  0  0
  159.4330  204.1550  143.7930 C   0  0  0  0  0  2  0  0  0  0  0  0
  158.7690  202.9960  144.5140 C   0  0  0  0  0  2  0  0  0  0  0  0
  159.8260  202.1180  145.1590 C   0  0  0  0  0  2  0  0  0  0  0  0
  160.6890  200.0940  145.1410 C   0  0  0  0  0  1  0  0  0  0  0  0
  159.4800  200.7760  145.0290 O   0  0  0  0  0  0  0  0  0  0  0  0
  161.4830  206.8720  148.5050 O   0  0  0  0  0  0  0  0  0  0  0  0
  162.7180  207.5100  148.7880 C   0  0  0  0  0  2  0  0  0  0  0  0
  162.8270  208.7950  147.9900 C   0  0  0  0  0  2  0  0  0  0  0  0
  160.5930  209.8580  148.0240 C   0  0  0  0  0  1  0  0  0  0  0  0
  161.9790  209.8750  148.6280 C   0  0  2  0  0  3  0  0  0  0  0  0
  162.6090  211.2340  148.4120 C   0  0  0  0  0  2  0  0  0  0  0  0
  161.5660  212.2690  148.0250 C   0  0  1  0  0  3  0  0  0  0  0  0
  162.1630  213.6540  148.1980 C   0  0  0  0  0  1  0  0  0  0  0  0
  160.9390  213.0440  145.9300 N   0  0  0  0  0  0  0  0  0  0  0  0
  161.2130  212.0670  146.6450 N   0  0  0  0  0  0  0  0  0  0  0  0
  160.4920  212.8550  144.5710 C   0  0  0  0  0  2  0  0  0  0  0  0
  162.6060  213.6130  143.8550 C   0  0  0  0  0  2  0  0  0  0  0  0
  163.1560  213.1890  142.5740 N   0  0  0  0  0  0  0  0  0  0  0  0
  160.9440  213.3890  142.3430 N   0  0  0  0  0  2  0  0  0  0  0  0
  162.1800  213.0610  141.7550 C   0  0  0  0  0  0  0  0  0  0  0  0
  161.1540  213.7990  143.6690 N   0  0  0  0  0  0  0  0  0  0  0  0
  160.6680  210.7600  138.7540 C   0  0  2  0  0  3  0  0  0  0  0  0
  161.5360  210.3280  139.9560 C   0  0  2  0  0  0  0  0  0  0  0  0
  160.8640  214.4100  139.3220 N   0  0  0  0  0  2  0  0  0  0  0  0
  160.7840  210.3240  141.1340 O   0  0  0  0  0  1  0  0  0  0  0  0
  161.1410  213.1540  139.4660 C   0  0  0  0  0  0  0  0  0  0  0  0
  162.7260  211.2830  140.0900 C   0  0  0  0  0  2  0  0  0  0  0  0
  160.3020  212.1700  138.8470 N   0  0  0  0  0  2  0  0  0  0  0  0
  162.3310  212.7460  140.2950 C   0  0  2  0  0  3  0  0  0  0  0  0
  162.0990  208.9370  139.7270 C   0  0  0  0  0  1  0  0  0  0  0  0
  159.4120  209.9080  138.6180 C   0  0  0  0  0  2  0  0  0  0  0  0
  159.2880  209.4190  137.3160 O   0  0  0  0  0  1  0  0  0  0  0  0
  160.2430  204.5430  149.2010 S   0  0  0  0  0  0  0  0  0  0  0  0
  160.4200  206.3360  151.2900 C   0  0  0  0  0  3  0  0  0  0  0  0
  162.0910  206.2450  153.0520 C   0  0  0  0  0  0  0  0  0  0  0  0
  162.6360  205.0980  152.4550 C   0  0  0  0  0  3  0  0  0  0  0  0
  160.9530  205.1820  150.7180 C   0  0  0  0  0  0  0  0  0  0  0  0
  160.9780  206.8750  152.4590 C   0  0  0  0  0  0  0  0  0  0  0  0
  162.0680  204.5670  151.2940 C   0  0  0  0  0  3  0  0  0  0  0  0
  161.9550  207.9210  154.8060 N   0  0  0  0  0  1  0  0  0  0  0  0
  162.7620  206.8430  154.2500 C   0  0  0  0  0  2  0  0  0  0  0  0
  160.4040  208.1450  153.0120 C   0  0  0  0  0  2  0  0  0  0  0  0
  160.3550  209.2110  151.9380 C   0  0  0  0  0  2  0  0  0  0  0  0
  160.1050  210.5630  152.5750 C   0  0  0  0  0  2  0  0  0  0  0  0
  158.7370  210.7090  152.8500 O   0  0  0  0  0  0  0  0  0  0  0  0
  158.1310  214.4480  152.8050 C   0  0  0  0  0  1  0  0  0  0  0  0
  158.3650  213.0420  152.3550 C   0  0  0  0  0  0  0  0  0  0  0  0
  158.3700  212.7890  151.1190 O   0  0  0  0  0  0  0  0  0  0  0  0
  158.5960  211.9830  153.3010 N   0  0  0  0  0  0  0  0  0  0  0  0
  158.8060  212.3050  154.7190 C   0  0  0  0  0  2  0  0  0  0  0  0
  156.6480  211.7150  155.8890 C   0  0  0  0  0  1  0  0  0  0  0  0
  158.1120  211.3380  155.6860 C   0  0  2  0  0  3  0  0  0  0  0  0
  161.2580  211.6020  156.5040 C   0  0  0  0  0  2  0  0  0  0  0  0
  159.9910  212.1880  157.1190 C   0  0  0  0  0  2  0  0  0  0  0  0
  161.0120  210.1490  156.1290 C   0  0  0  0  0  2  0  0  0  0  0  0
  158.8610  211.1770  157.0140 C   0  0  2  0  0  3  0  0  0  0  0  0
  159.6340  209.5350  157.1300 S   0  0  0  0  0  0  0  0  0  0  0  0
  1  2  2  0  0  0  0
  2 14  1  0  0  0  0
  2 41  1  0  0  0  0
  3  1  1  0  0  0  0
  4  5  2  0  0  0  0
  5  1  1  0  0  0  0
  6  8  2  0  0  0  0
  8  7  1  0  0  0  0
  8  4  1  0  0  0  0
  9 10  1  0  0  0  0
  9  7  1  0  0  0  0
 10 11  1  0  0  0  0
 13 12  1  0  0  0  0
 13 11  1  0  0  0  0
 14 15  1  0  0  0  0
 16 18  1  0  0  0  0
 16 15  1  0  0  0  0
 18 17  1  6  0  0  0
 19 18  1  0  0  0  0
 20 21  1  6  0  0  0
 20 19  1  0  0  0  0
 22 23  2  0  0  0  0
 23 20  1  0  0  0  0
 24 22  1  0  0  0  0
 26 25  1  0  0  0  0
 27 29  1  0  0  0  0
 28 27  1  0  0  0  0
 28 26  2  0  0  0  0
 29 25  1  0  0  0  0
 29 24  1  0  0  0  0
 30 39  1  1  0  0  0
 30 36  1  0  0  0  0
 30 31  1  0  0  0  0
 31 38  1  6  0  0  0
 31 35  1  0  0  0  0
 31 33  1  0  0  0  0
 32 34  2  0  0  0  0
 34 37  1  0  0  0  0
 35 37  1  0  0  0  0
 36 34  1  0  0  0  0
 37 28  1  1  0  0  0
 40 39  1  0  0  0  0
 41 45  1  0  0  0  0
 42 46  1  0  0  0  0
 43 49  1  0  0  0  0
 44 43  1  0  0  0  0
 45 42  2  0  0  0  0
 45 47  1  0  0  0  0
 46 50  1  0  0  0  0
 46 43  2  0  0  0  0
 47 44  2  0  0  0  0
 49 48  1  0  0  0  0
 51 52  1  0  0  0  0
 51 50  1  0  0  0  0
 52 53  1  0  0  0  0
 53 57  1  0  0  0  0
 55 54  1  0  0  0  0
 55 57  1  0  0  0  0
 56 55  2  0  0  0  0
 57 58  1  0  0  0  0
 58 60  1  0  0  0  0
 60 59  1  1  0  0  0
 61 62  1  0  0  0  0
 63 61  1  0  0  0  0
 63 65  1  0  0  0  0
 64 60  1  6  0  0  0
 64 62  1  0  0  0  0
 64 65  1  0  0  0  0
M  END
>  <MODEL>
2

>  <REMARK>
 VINA RESULT:      -0.4      2.187      8.839
  Name = 
  28 active torsions:
  status: ('A' for Active; 'I' for Inactive)
    1  A    between atoms: C_3  and  CA_18
    2  A    between atoms: N_6  and  C_13
    3  A    between atoms: C_7  and  N_57
    4  A    between atoms: C_7  and  C_65
    5  A    between atoms: C_10  and  C_46
    6  A    between atoms: C_13  and  N_53
    7  A    between atoms: C_14  and  C_56
    8  A    between atoms: C_15  and  C_19
    9  A    between atoms: C_20  and  S_23
   10  A    between atoms: C_21  and  C_33
   11  A    between atoms: C_21  and  C_52
   12  A    between atoms: S_23  and  C_61
   13  A    between atoms: O_24  and  C_47
   14  A    between atoms: O_24  and  C_61
   15  A    between atoms: N_27  and  C_33
   16  A    between atoms: C_30  and  C_32
   17  A    between atoms: C_30  and  C_35
   18  A    between atoms: C_32  and  C_40
   19  A    between atoms: C_34  and  C_37
   20  A    between atoms: C_34  and  C_42
   21  A    between atoms: C_35  and  C_47
   22  A    between atoms: C_37  and  C_51
   23  A    between atoms: C_38  and  C_58
   24  A    between atoms: C_40  and  N_49
   25  A    between atoms: O_48  and  C_52
   26  A    between atoms: C_50  and  C_65
   27  A    between atoms: C_51  and  O_60
   28  A    between atoms: N_57  and  O_60
                            x       y       z     vdW  Elec       q    Type
                         _______ _______ _______ _____ _____    ______ ____

>  <TORSDO>
F 28

$$$$
=
 OpenBabel11042423013D

 65 68  0  0  1  0  0  0  0  0999 V2000
  161.3010  205.7400  150.7670 C   0  0  0  0  0  0  0  0  0  0  0  0
  161.4320  206.8780  151.4750 C   0  0  0  0  0  0  0  0  0  0  0  0
  162.3950  205.2380  150.0670 O   0  0  0  0  0  1  0  0  0  0  0  0
  159.7660  203.9000  149.9960 C   0  0  0  0  0  3  0  0  0  0  0  0
  160.0370  204.9890  150.7250 C   0  0  0  0  0  3  0  0  0  0  0  0
  161.8620  203.2370  149.1670 O   0  0  0  0  0  0  0  0  0  0  0  0
  160.0540  202.6070  147.8360 N   0  0  0  0  0  2  0  0  0  0  0  0
  160.6160  203.2650  148.9750 C   0  0  0  0  0  0  0  0  0  0  0  0
  160.8770  201.8760  146.8840 C   0  0  0  0  0  2  0  0  0  0  0  0
  161.5410  202.8580  145.9340 C   0  0  0  0  0  2  0  0  0  0  0  0
  160.4830  203.5740  145.1120 C   0  0  0  0  0  2  0  0  0  0  0  0
  162.1970  204.9530  145.1320 C   0  0  0  0  0  1  0  0  0  0  0  0
  161.0570  204.6240  144.4020 O   0  0  0  0  0  0  0  0  0  0  0  0
  160.3800  207.4900  152.1740 O   0  0  0  0  0  0  0  0  0  0  0  0
  160.3060  207.5940  153.5870 C   0  0  0  0  0  2  0  0  0  0  0  0
  161.6760  207.3560  154.1920 C   0  0  0  0  0  2  0  0  0  0  0  0
  161.4940  207.6060  156.6480 C   0  0  0  0  0  1  0  0  0  0  0  0
  161.8950  208.2930  155.3610 C   0  0  2  0  0  3  0  0  0  0  0  0
  161.0770  209.5540  155.1840 C   0  0  0  0  0  2  0  0  0  0  0  0
  160.3010  209.8890  156.4470 C   0  0  1  0  0  3  0  0  0  0  0  0
  160.3360  211.3920  156.6590 C   0  0  0  0  0  1  0  0  0  0  0  0
  158.2480  209.9550  155.3680 N   0  0  0  0  0  0  0  0  0  0  0  0
  158.9400  209.4590  156.2730 N   0  0  0  0  0  0  0  0  0  0  0  0
  156.8550  209.6080  155.2370 C   0  0  0  0  0  2  0  0  0  0  0  0
  156.7240  211.3830  156.7810 C   0  0  0  0  0  2  0  0  0  0  0  0
  156.9560  212.7590  156.3580 N   0  0  0  0  0  0  0  0  0  0  0  0
  155.9410  211.6840  154.6850 N   0  0  0  0  0  2  0  0  0  0  0  0
  156.5110  212.8780  155.1630 C   0  0  0  0  0  0  0  0  0  0  0  0
  155.9990  210.7060  155.6890 N   0  0  0  0  0  0  0  0  0  0  0  0
  156.7530  214.4530  151.4150 C   0  0  2  0  0  3  0  0  0  0  0  0
  157.8820  213.8620  152.2860 C   0  0  2  0  0  0  0  0  0  0  0  0
  154.0810  214.3430  153.9700 N   0  0  0  0  0  2  0  0  0  0  0  0
  157.7950  212.4670  152.3330 O   0  0  0  0  0  1  0  0  0  0  0  0
  155.2750  214.2750  153.4750 C   0  0  0  0  0  0  0  0  0  0  0  0
  157.7890  214.4460  153.7000 C   0  0  0  0  0  2  0  0  0  0  0  0
  155.4510  214.2840  152.0520 N   0  0  0  0  0  2  0  0  0  0  0  0
  156.4590  214.1710  154.4010 C   0  0  2  0  0  3  0  0  0  0  0  0
  159.2390  214.2510  151.7270 C   0  0  0  0  0  1  0  0  0  0  0  0
  156.7270  213.8430  150.0190 C   0  0  0  0  0  2  0  0  0  0  0  0
  156.6350  212.4510  150.0910 O   0  0  0  0  0  1  0  0  0  0  0  0
  163.0240  207.7120  151.5350 S   0  0  0  0  0  0  0  0  0  0  0  0
  162.3290  209.6980  149.7500 C   0  0  0  0  0  3  0  0  0  0  0  0
  161.2750  211.8000  150.3630 C   0  0  0  0  0  0  0  0  0  0  0  0
  161.2860  211.3970  151.7060 C   0  0  0  0  0  3  0  0  0  0  0  0
  162.3130  209.2950  151.0850 C   0  0  0  0  0  0  0  0  0  0  0  0
  161.8090  210.9460  149.3760 C   0  0  0  0  0  0  0  0  0  0  0  0
  161.8010  210.1480  152.0660 C   0  0  0  0  0  3  0  0  0  0  0  0
  161.4320  213.6430  148.7860 N   0  0  0  0  0  1  0  0  0  0  0  0
  160.7910  213.1720  150.0080 C   0  0  0  0  0  2  0  0  0  0  0  0
  161.8910  211.3580  147.9370 C   0  0  0  0  0  2  0  0  0  0  0  0
  160.6620  210.8900  147.1860 C   0  0  0  0  0  2  0  0  0  0  0  0
  160.6330  211.5290  145.8120 C   0  0  0  0  0  2  0  0  0  0  0  0
  160.4670  212.9160  145.9400 O   0  0  0  0  0  0  0  0  0  0  0  0
  157.1040  214.4520  145.1170 C   0  0  0  0  0  1  0  0  0  0  0  0
  158.3340  214.0440  145.8600 C   0  0  0  0  0  0  0  0  0  0  0  0
  158.4870  214.4350  147.0490 O   0  0  0  0  0  0  0  0  0  0  0  0
  159.3330  213.2070  145.2500 N   0  0  0  0  0  0  0  0  0  0  0  0
  159.0610  212.5740  143.9530 C   0  0  0  0  0  2  0  0  0  0  0  0
  159.1150  213.2200  141.5130 C   0  0  0  0  0  1  0  0  0  0  0  0
  159.9200  213.1160  142.8040 C   0  0  2  0  0  3  0  0  0  0  0  0
  162.9930  214.0450  142.2260 C   0  0  0  0  0  2  0  0  0  0  0  0
  162.3930  213.0800  143.2440 C   0  0  0  0  0  2  0  0  0  0  0  0
  162.3260  213.8330  140.8760 C   0  0  0  0  0  2  0  0  0  0  0  0
  161.2270  212.3360  142.6130 C   0  0  2  0  0  3  0  0  0  0  0  0
  161.6290  212.1620  140.8470 S   0  0  0  0  0  0  0  0  0  0  0  0
  1  2  2  0  0  0  0
  2 41  1  0  0  0  0
  2 14  1  0  0  0  0
  3  1  1  0  0  0  0
  4  5  2  0  0  0  0
  5  1  1  0  0  0  0
  7  8  1  0  0  0  0
  8  6  2  0  0  0  0
  8  4  1  0  0  0  0
  9  7  1  0  0  0  0
 10  9  1  0  0  0  0
 11 10  1  0  0  0  0
 13 11  1  0  0  0  0
 13 12  1  0  0  0  0
 14 15  1  0  0  0  0
 15 16  1  0  0  0  0
 16 18  1  0  0  0  0
 18 17  1  1  0  0  0
 19 18  1  0  0  0  0
 19 20  1  0  0  0  0
 20 21  1  6  0  0  0
 22 23  2  0  0  0  0
 23 20  1  0  0  0  0
 24 22  1  0  0  0  0
 24 29  1  0  0  0  0
 26 25  1  0  0  0  0
 27 28  1  0  0  0  0
 27 29  1  0  0  0  0
 28 26  2  0  0  0  0
 29 25  1  0  0  0  0
 30 39  1  6  0  0  0
 30 36  1  0  0  0  0
 30 31  1  0  0  0  0
 31 38  1  6  0  0  0
 31 33  1  0  0  0  0
 31 35  1  0  0  0  0
 34 32  2  0  0  0  0
 34 37  1  0  0  0  0
 35 37  1  0  0  0  0
 36 34  1  0  0  0  0
 37 28  1  6  0  0  0
 39 40  1  0  0  0  0
 42 45  1  0  0  0  0
 43 44  2  0  0  0  0
 44 47  1  0  0  0  0
 45 41  1  0  0  0  0
 45 47  2  0  0  0  0
 46 42  2  0  0  0  0
 46 43  1  0  0  0  0
 48 49  1  0  0  0  0
 49 43  1  0  0  0  0
 50 46  1  0  0  0  0
 51 50  1  0  0  0  0
 52 53  1  0  0  0  0
 52 51  1  0  0  0  0
 54 55  1  0  0  0  0
 55 56  2  0  0  0  0
 57 55  1  0  0  0  0
 57 53  1  0  0  0  0
 58 57  1  0  0  0  0
 60 59  1  6  0  0  0
 60 58  1  0  0  0  0
 61 62  1  0  0  0  0
 63 61  1  0  0  0  0
 64 60  1  6  0  0  0
 64 62  1  0  0  0  0
 65 63  1  0  0  0  0
 65 64  1  0  0  0  0
M  END
>  <MODEL>
3

>  <REMARK>
 VINA RESULT:       0.3      2.853     10.631
  Name = 
  28 active torsions:
  status: ('A' for Active; 'I' for Inactive)
    1  A    between atoms: C_3  and  CA_18
    2  A    between atoms: N_6  and  C_13
    3  A    between atoms: C_7  and  N_57
    4  A    between atoms: C_7  and  C_65
    5  A    between atoms: C_10  and  C_46
    6  A    between atoms: C_13  and  N_53
    7  A    between atoms: C_14  and  C_56
    8  A    between atoms: C_15  and  C_19
    9  A    between atoms: C_20  and  S_23
   10  A    between atoms: C_21  and  C_33
   11  A    between atoms: C_21  and  C_52
   12  A    between atoms: S_23  and  C_61
   13  A    between atoms: O_24  and  C_47
   14  A    between atoms: O_24  and  C_61
   15  A    between atoms: N_27  and  C_33
   16  A    between atoms: C_30  and  C_32
   17  A    between atoms: C_30  and  C_35
   18  A    between atoms: C_32  and  C_40
   19  A    between atoms: C_34  and  C_37
   20  A    between atoms: C_34  and  C_42
   21  A    between atoms: C_35  and  C_47
   22  A    between atoms: C_37  and  C_51
   23  A    between atoms: C_38  and  C_58
   24  A    between atoms: C_40  and  N_49
   25  A    between atoms: O_48  and  C_52
   26  A    between atoms: C_50  and  C_65
   27  A    between atoms: C_51  and  O_60
   28  A    between atoms: N_57  and  O_60
                            x       y       z     vdW  Elec       q    Type
                         _______ _______ _______ _____ _____    ______ ____

>  <TORSDO>
F 28

$$$$
=
 OpenBabel11042423013D

 65 68  0  0  1  0  0  0  0  0999 V2000
  161.8550  209.4230  152.0680 C   0  0  0  0  0  0  0  0  0  0  0  0
  161.7170  208.5790  151.0280 C   0  0  0  0  0  0  0  0  0  0  0  0
  162.1290  208.9120  153.3350 O   0  0  0  0  0  1  0  0  0  0  0  0
  160.8130  211.6860  152.4270 C   0  0  0  0  0  3  0  0  0  0  0  0
  161.7480  210.8810  151.9090 C   0  0  0  0  0  3  0  0  0  0  0  0
  158.4790  211.5590  152.6670 O   0  0  0  0  0  0  0  0  0  0  0  0
  159.6850  210.5580  154.3950 N   0  0  0  0  0  2  0  0  0  0  0  0
  159.6050  211.2990  153.1730 C   0  0  0  0  0  0  0  0  0  0  0  0
  158.4970  210.0690  155.0790 C   0  0  0  0  0  2  0  0  0  0  0  0
  157.6980  211.2480  155.6050 C   0  0  0  0  0  2  0  0  0  0  0  0
  156.2340  210.8610  155.7310 C   0  0  0  0  0  2  0  0  0  0  0  0
  156.3080  213.0370  155.4150 C   0  0  0  0  0  1  0  0  0  0  0  0
  155.4370  212.0010  155.7440 O   0  0  0  0  0  0  0  0  0  0  0  0
  161.3950  208.9890  149.7250 O   0  0  0  0  0  0  0  0  0  0  0  0
  162.3220  209.5330  148.8000 C   0  0  0  0  0  2  0  0  0  0  0  0
  161.5800  210.1910  147.6540 C   0  0  0  0  0  2  0  0  0  0  0  0
  162.4470  212.0700  149.0110 C   0  0  0  0  0  1  0  0  0  0  0  0
  161.7430  211.6950  147.7270 C   0  0  2  0  0  3  0  0  0  0  0  0
  160.3910  212.3720  147.6740 C   0  0  0  0  0  2  0  0  0  0  0  0
  160.3270  213.3860  146.5430 C   0  0  1  0  0  3  0  0  0  0  0  0
  161.4220  214.4170  146.7470 C   0  0  0  0  0  1  0  0  0  0  0  0
  159.8970  213.0250  144.2920 N   0  0  0  0  0  0  0  0  0  0  0  0
  160.5420  212.6950  145.3000 N   0  0  0  0  0  0  0  0  0  0  0  0
  160.0290  212.2840  143.0620 C   0  0  0  0  0  2  0  0  0  0  0  0
  158.9100  214.0160  141.9220 C   0  0  0  0  0  2  0  0  0  0  0  0
  159.1070  214.2180  140.4920 N   0  0  0  0  0  0  0  0  0  0  0  0
  159.1910  212.0240  140.8980 N   0  0  0  0  0  2  0  0  0  0  0  0
  159.2760  213.0670  139.9570 C   0  0  0  0  0  0  0  0  0  0  0  0
  158.9070  212.5610  142.1630 N   0  0  0  0  0  0  0  0  0  0  0  0
  161.2900  210.8680  137.1820 C   0  0  2  0  0  3  0  0  0  0  0  0
  161.8070  212.0420  138.0420 C   0  0  2  0  0  0  0  0  0  0  0  0
  157.7310  211.1010  138.1630 N   0  0  0  0  0  2  0  0  0  0  0  0
  162.0030  211.6380  139.3660 O   0  0  0  0  0  1  0  0  0  0  0  0
  158.9740  211.4440  138.0580 C   0  0  0  0  0  0  0  0  0  0  0  0
  160.8000  213.1940  137.9830 C   0  0  0  0  0  2  0  0  0  0  0  0
  159.9280  210.4990  137.5570 N   0  0  0  0  0  2  0  0  0  0  0  0
  159.4020  212.8260  138.4800 C   0  0  2  0  0  3  0  0  0  0  0  0
  163.1200  212.5630  137.4880 C   0  0  0  0  0  1  0  0  0  0  0  0
  162.1980  209.6480  137.2710 C   0  0  0  0  0  2  0  0  0  0  0  0
  161.4850  208.5350  137.7210 O   0  0  0  0  0  1  0  0  0  0  0  0
  161.9240  206.8110  151.2820 S   0  0  0  0  0  0  0  0  0  0  0  0
  161.8230  205.1650  149.0690 C   0  0  0  0  0  3  0  0  0  0  0  0
  160.9680  205.8270  146.8930 C   0  0  0  0  0  0  0  0  0  0  0  0
  160.6910  207.1030  147.4060 C   0  0  0  0  0  3  0  0  0  0  0  0
  161.5210  206.4280  149.5770 C   0  0  0  0  0  0  0  0  0  0  0  0
  161.5470  204.8510  147.7300 C   0  0  0  0  0  0  0  0  0  0  0  0
  160.9640  207.4010  148.7440 C   0  0  0  0  0  3  0  0  0  0  0  0
  159.4120  205.9920  145.0320 N   0  0  0  0  0  1  0  0  0  0  0  0
  160.7410  205.5520  145.4380 C   0  0  0  0  0  2  0  0  0  0  0  0
  161.9330  203.4980  147.2130 C   0  0  0  0  0  2  0  0  0  0  0  0
  162.0550  203.5260  145.7050 C   0  0  0  0  0  2  0  0  0  0  0  0
  160.8490  202.8520  145.0840 C   0  0  0  0  0  2  0  0  0  0  0  0
  159.9490  202.4730  146.0920 O   0  0  0  0  0  0  0  0  0  0  0  0
  161.1120  198.8940  145.6670 C   0  0  0  0  0  1  0  0  0  0  0  0
  160.6650  200.2860  145.3620 C   0  0  0  0  0  0  0  0  0  0  0  0
  160.6110  200.6610  144.1590 O   0  0  0  0  0  0  0  0  0  0  0  0
  160.2850  201.1960  146.4110 N   0  0  0  0  0  0  0  0  0  0  0  0
  160.1380  200.7020  147.7860 C   0  0  0  0  0  2  0  0  0  0  0  0
  162.5930  200.5290  148.3490 C   0  0  0  0  0  1  0  0  0  0  0  0
  161.2570  201.1550  148.7320 C   0  0  2  0  0  3  0  0  0  0  0  0
  159.7840  203.0210  150.9660 C   0  0  0  0  0  2  0  0  0  0  0  0
  159.5750  201.5680  150.5520 C   0  0  0  0  0  2  0  0  0  0  0  0
  161.2740  203.3120  151.0490 C   0  0  0  0  0  2  0  0  0  0  0  0
  160.9160  200.9380  150.2120 C   0  0  2  0  0  3  0  0  0  0  0  0
  162.1430  201.7420  151.2870 S   0  0  0  0  0  0  0  0  0  0  0  0
  1  3  1  0  0  0  0
  2 41  1  0  0  0  0
  2  1  2  0  0  0  0
  4  8  1  0  0  0  0
  5  1  1  0  0  0  0
  5  4  2  0  0  0  0
  6  8  2  0  0  0  0
  7  9  1  0  0  0  0
  8  7  1  0  0  0  0
  9 10  1  0  0  0  0
 10 11  1  0  0  0  0
 11 13  1  0  0  0  0
 12 13  1  0  0  0  0
 14  2  1  0  0  0  0
 15 14  1  0  0  0  0
 16 18  1  0  0  0  0
 16 15  1  0  0  0  0
 18 17  1  1  0  0  0
 19 18  1  0  0  0  0
 20 21  1  1  0  0  0
 20 19  1  0  0  0  0
 22 23  2  0  0  0  0
 23 20  1  0  0  0  0
 24 22  1  0  0  0  0
 25 29  1  0  0  0  0
 26 25  1  0  0  0  0
 27 29  1  0  0  0  0
 28 26  2  0  0  0  0
 28 27  1  0  0  0  0
 29 24  1  0  0  0  0
 30 39  1  1  0  0  0
 30 36  1  0  0  0  0
 30 31  1  0  0  0  0
 31 38  1  6  0  0  0
 31 33  1  0  0  0  0
 34 32  2  0  0  0  0
 34 37  1  0  0  0  0
 35 31  1  0  0  0  0
 35 37  1  0  0  0  0
 36 34  1  0  0  0  0
 37 28  1  1  0  0  0
 39 40  1  0  0  0  0
 42 45  1  0  0  0  0
 43 44  2  0  0  0  0
 43 46  1  0  0  0  0
 44 47  1  0  0  0  0
 45 41  1  0  0  0  0
 46 42  2  0  0  0  0
 47 45  2  0  0  0  0
 48 49  1  0  0  0  0
 49 43  1  0  0  0  0
 50 46  1  0  0  0  0
 51 50  1  0  0  0  0
 52 51  1  0  0  0  0
 52 53  1  0  0  0  0
 53 57  1  0  0  0  0
 55 54  1  0  0  0  0
 55 57  1  0  0  0  0
 56 55  2  0  0  0  0
 57 58  1  0  0  0  0
 58 60  1  0  0  0  0
 60 59  1  6  0  0  0
 61 63  1  0  0  0  0
 62 61  1  0  0  0  0
 63 65  1  0  0  0  0
 64 60  1  6  0  0  0
 64 62  1  0  0  0  0
 64 65  1  0  0  0  0
M  END
>  <MODEL>
4

>  <REMARK>
 VINA RESULT:       1.2      2.352      3.974
  Name = 
  28 active torsions:
  status: ('A' for Active; 'I' for Inactive)
    1  A    between atoms: C_3  and  CA_18
    2  A    between atoms: N_6  and  C_13
    3  A    between atoms: C_7  and  N_57
    4  A    between atoms: C_7  and  C_65
    5  A    between atoms: C_10  and  C_46
    6  A    between atoms: C_13  and  N_53
    7  A    between atoms: C_14  and  C_56
    8  A    between atoms: C_15  and  C_19
    9  A    between atoms: C_20  and  S_23
   10  A    between atoms: C_21  and  C_33
   11  A    between atoms: C_21  and  C_52
   12  A    between atoms: S_23  and  C_61
   13  A    between atoms: O_24  and  C_47
   14  A    between atoms: O_24  and  C_61
   15  A    between atoms: N_27  and  C_33
   16  A    between atoms: C_30  and  C_32
   17  A    between atoms: C_30  and  C_35
   18  A    between atoms: C_32  and  C_40
   19  A    between atoms: C_34  and  C_37
   20  A    between atoms: C_34  and  C_42
   21  A    between atoms: C_35  and  C_47
   22  A    between atoms: C_37  and  C_51
   23  A    between atoms: C_38  and  C_58
   24  A    between atoms: C_40  and  N_49
   25  A    between atoms: O_48  and  C_52
   26  A    between atoms: C_50  and  C_65
   27  A    between atoms: C_51  and  O_60
   28  A    between atoms: N_57  and  O_60
                            x       y       z     vdW  Elec       q    Type
                         _______ _______ _______ _____ _____    ______ ____

>  <TORSDO>
F 28

$$$$
