=
 OpenBabel11042423033D

 65 69  0  0  1  0  0  0  0  0999 V2000
  161.0640  212.0960  148.9640 C   0  0  0  0  0  0  0  0  0  0  0  0
  160.0170  214.0310  150.2380 C   0  0  0  0  0  1  0  0  0  0  0  0
  161.0510  212.5020  147.6990 C   0  0  0  0  0  0  0  0  0  0  0  0
  160.5930  212.6610  150.1720 C   0  0  0  0  0  0  0  0  0  0  0  0
  161.6110  210.8400  148.9400 C   0  0  0  0  0  0  0  0  0  0  0  0
  161.6870  210.0950  150.1050 C   0  0  0  0  0  0  0  0  0  0  0  0
  161.5900  211.4570  146.8730 N   0  0  0  0  0  0  0  0  0  0  0  0
  160.6710  211.9050  151.3160 N   0  0  0  0  0  0  0  0  0  0  0  0
  161.9020  208.5580  151.6710 C   0  0  0  0  0  0  0  0  0  0  0  0
  161.3010  209.7720  152.2490 C   0  0  0  0  0  0  0  0  0  0  0  0
  161.9260  210.4700  147.6080 N   0  0  0  0  0  0  0  0  0  0  0  0
  162.1340  208.7310  150.3640 C   0  0  0  0  0  3  0  0  0  0  0  0
  161.2050  210.6470  151.2680 C   0  0  0  0  0  0  0  0  0  0  0  0
  162.1560  207.2850  152.4000 C   0  0  0  0  0  2  0  0  0  0  0  0
  161.2500  207.1690  153.5320 N   0  0  0  0  0  2  0  0  0  0  0  0
  160.6520  205.8490  153.4540 C   0  0  0  0  0  2  0  0  0  0  0  0
  161.1030  205.1760  152.2490 N   0  0  0  0  0  2  0  0  0  0  0  0
  160.0180  204.3140  151.8140 C   0  0  0  0  0  2  0  0  0  0  0  0
  161.5010  202.4170  151.6630 O   0  0  0  0  0  1  0  0  0  0  0  0
  160.5570  203.1710  150.9570 C   0  0  2  0  0  3  0  0  0  0  0  0
  161.1280  203.6630  149.7020 N   0  0  0  0  0  2  0  0  0  0  0  0
  160.9180  202.6900  148.6300 C   0  0  0  0  0  2  0  0  0  0  0  0
  161.6140  203.1250  147.3370 C   0  0  1  0  0  3  0  0  0  0  0  0
  160.7230  201.1700  145.9820 N   0  0  0  0  0  0  0  0  0  0  0  0
  160.0120  200.6270  144.8380 C   0  0  0  0  0  1  0  0  0  0  0  0
  161.1960  200.3190  146.9250 O   0  0  0  0  0  1  0  0  0  0  0  0
  160.5660  203.3640  145.1960 O   0  0  0  0  0  0  0  0  0  0  0  0
  160.9330  202.5820  146.1150 C   0  0  0  0  0  0  0  0  0  0  0  0
  161.7870  204.6350  147.2440 C   0  0  0  0  0  2  0  0  0  0  0  0
  163.9080  204.6630  146.1710 O   0  0  0  0  0  1  0  0  0  0  0  0
  162.5650  204.9980  145.9950 C   0  0  0  0  0  2  0  0  0  0  0  0
  160.4000  213.7410  147.1700 C   0  0  2  0  0  3  0  0  0  0  0  0
  159.0260  213.5170  147.0230 O   0  0  0  0  0  0  0  0  0  0  0  0
  158.4400  214.0790  148.1620 C   0  0  0  0  0  1  0  0  0  0  0  0
  161.0070  214.1140  145.8220 C   0  0  0  0  0  2  0  0  0  0  0  0
  159.4590  212.5690  144.5810 C   0  0  0  0  0  2  0  0  0  0  0  0
  160.5490  213.0600  142.5070 C   0  0  1  0  0  3  0  0  0  0  0  0
  160.2320  211.9270  143.4540 C   0  0  0  0  0  2  0  0  0  0  0  0
  159.9900  213.9920  144.6940 C   0  0  2  0  0  3  0  0  0  0  0  0
  160.6790  214.3000  143.3720 C   0  0  0  0  0  2  0  0  0  0  0  0
  161.7640  212.8030  141.8420 O   0  0  0  0  0  0  0  0  0  0  0  0
  160.3330  213.5060  140.1570 O   0  0  0  0  0  1  0  0  0  0  0  0
  161.5900  212.9460  140.4400 C   0  0  2  0  0  0  0  0  0  0  0  0
  162.6940  210.9500  139.8090 O   0  0  0  0  0  0  0  0  0  0  0  0
  161.6510  211.5850  139.7930 C   0  0  0  0  0  0  0  0  0  0  0  0
  160.2110  210.8590  139.0050 S   0  0  0  0  0  1  0  0  0  0  0  0
  162.4860  214.4510  138.6420 O   0  0  0  0  0  0  0  0  0  0  0  0
  162.6900  213.7960  139.8500 C   0  0  0  0  0  0  0  0  0  0  0  0
  163.7720  213.9660  140.4700 O   0  0  0  0  0  1  0  0  0  0  0  0
  160.8420  209.9640  153.6550 C   0  0  0  0  0  2  0  0  0  0  0  0
  162.2670  210.0910  154.7710 S   0  0  0  0  0  0  0  0  0  0  0  0
  161.1860  210.5000  156.1690 C   0  0  0  0  0  2  0  0  0  0  0  0
  158.4280  210.4640  155.5300 O   0  0  0  0  0  0  0  0  0  0  0  0
  159.0020  211.5890  155.5730 C   0  0  0  0  0  0  0  0  0  0  0  0
  160.4000  211.6770  155.8490 N   0  0  0  0  0  2  0  0  0  0  0  0
  158.2140  212.8470  155.3380 C   0  0  2  0  0  3  0  0  0  0  0  0
  156.5800  211.7210  156.6650 C   0  0  0  0  0  2  0  0  0  0  0  0
  156.7680  212.6290  155.5270 N   0  0  0  0  0  0  0  0  0  0  0  0
  154.6280  213.6790  156.1030 C   0  0  0  0  0  2  0  0  0  0  0  0
  155.0910  211.4850  156.8980 C   0  0  0  0  0  2  0  0  0  0  0  0
  154.4370  212.7530  157.2180 N   0  0  0  0  0  2  0  0  0  0  0  0
  156.1230  213.9030  155.8740 C   0  0  0  0  0  2  0  0  0  0  0  0
  159.1790  214.4320  153.8290 O   0  0  0  0  0  0  0  0  0  0  0  0
  158.1170  212.6420  152.8040 N   0  0  0  0  0  1  0  0  0  0  0  0
  158.5320  213.3600  153.9600 C   0  0  0  0  0  0  0  0  0  0  0  0
  1  4  2  0  0  0  0
  3  1  1  0  0  0  0
  4  2  1  0  0  0  0
  4  8  1  0  0  0  0
  5  1  1  0  0  0  0
  5  6  1  0  0  0  0
  6 12  2  0  0  0  0
  6 13  1  0  0  0  0
  7 11  1  0  0  0  0
  7  3  2  0  0  0  0
  9 10  2  0  0  0  0
  9 14  1  0  0  0  0
 10 50  1  0  0  0  0
 11  5  2  0  0  0  0
 12  9  1  0  0  0  0
 13  8  2  0  0  0  0
 13 10  1  0  0  0  0
 14 15  1  0  0  0  0
 16 15  1  0  0  0  0
 17 16  1  0  0  0  0
 18 17  1  0  0  0  0
 20 19  1  1  0  0  0
 20 18  1  0  0  0  0
 21 20  1  0  0  0  0
 22 21  1  0  0  0  0
 23 29  1  6  0  0  0
 23 22  1  0  0  0  0
 24 28  1  0  0  0  0
 24 26  1  0  0  0  0
 25 24  1  0  0  0  0
 27 28  2  0  0  0  0
 28 23  1  0  0  0  0
 31 30  1  0  0  0  0
 31 29  1  0  0  0  0
 32 35  1  6  0  0  0
 32  3  1  0  0  0  0
 33 32  1  0  0  0  0
 33 34  1  0  0  0  0
 36 39  1  0  0  0  0
 37 41  1  1  0  0  0
 37 40  1  0  0  0  0
 37 38  1  0  0  0  0
 38 36  1  0  0  0  0
 39 35  1  1  0  0  0
 40 39  1  0  0  0  0
 43 42  1  6  0  0  0
 43 41  1  0  0  0  0
 45 44  2  0  0  0  0
 45 43  1  0  0  0  0
 46 45  1  0  0  0  0
 47 48  2  0  0  0  0
 48 43  1  0  0  0  0
 48 49  1  0  0  0  0
 50 51  1  0  0  0  0
 51 52  1  0  0  0  0
 53 54  2  0  0  0  0
 54 55  1  0  0  0  0
 55 52  1  0  0  0  0
 56 65  1  6  0  0  0
 56 58  1  0  0  0  0
 56 54  1  0  0  0  0
 57 60  1  0  0  0  0
 58 62  1  0  0  0  0
 58 57  1  0  0  0  0
 59 61  1  0  0  0  0
 60 61  1  0  0  0  0
 62 59  1  0  0  0  0
 63 65  2  0  0  0  0
 64 65  1  0  0  0  0
M  END
>  <MODEL>
1

>  <REMARK>
 VINA RESULT:      -4.2      0.000      0.000
  Name = 
  27 active torsions:
  status: ('A' for Active; 'I' for Inactive)
    1  A    between atoms: C_4  and  C_12
    2  A    between atoms: N_9  and  C_25
    3  A    between atoms: N_9  and  C_52
    4  A    between atoms: C_11  and  C_36
    5  A    between atoms: C_11  and  S_62
    6  A    between atoms: C_12  and  C_23
    7  A    between atoms: C_12  and  O_42
    8  A    between atoms: C_14  and  N_21
    9  A    between atoms: C_14  and  C_33
   10  A    between atoms: C_14  and  C_40
   11  A    between atoms: C_15  and  C_54
   12  A    between atoms: C_15  and  C_65
   13  A    between atoms: C_19  and  C_27
   14  A    between atoms: C_19  and  C_31
   15  A    between atoms: C_19  and  O_43
   16  A    between atoms: C_23  and  C_55
   17  A    between atoms: C_25  and  C_29
   18  A    between atoms: C_34  and  O_43
   19  A    between atoms: C_48  and  N_49
   20  A    between atoms: C_48  and  C_53
   21  A    between atoms: N_49  and  C_59
   22  A    between atoms: C_52  and  N_61
   23  A    between atoms: C_53  and  N_61
   24  A    between atoms: C_54  and  C_57
   25  A    between atoms: C_54  and  C_59
   26  A    between atoms: C_60  and  S_62
   27  A    between atoms: C_60  and  N_63
                            x       y       z     vdW  Elec       q    Type
                         _______ _______ _______ _____ _____    ______ ____

>  <TORSDO>
F 27

$$$$
=
 OpenBabel11042423033D

 65 69  0  0  1  0  0  0  0  0999 V2000
  161.2110  212.1070  149.5190 C   0  0  0  0  0  0  0  0  0  0  0  0
  160.2640  214.0850  150.8060 C   0  0  0  0  0  1  0  0  0  0  0  0
  161.2160  212.5210  148.2560 C   0  0  0  0  0  0  0  0  0  0  0  0
  160.7700  212.6870  150.7310 C   0  0  0  0  0  0  0  0  0  0  0  0
  161.6930  210.8250  149.4870 C   0  0  0  0  0  0  0  0  0  0  0  0
  161.7330  210.0700  150.6470 C   0  0  0  0  0  0  0  0  0  0  0  0
  161.7010  211.4540  147.4230 N   0  0  0  0  0  0  0  0  0  0  0  0
  160.8110  211.9220  151.8700 N   0  0  0  0  0  0  0  0  0  0  0  0
  161.8730  208.5150  152.2030 C   0  0  0  0  0  0  0  0  0  0  0  0
  161.3350  209.7550  152.7900 C   0  0  0  0  0  0  0  0  0  0  0  0
  161.9880  210.4480  148.1520 N   0  0  0  0  0  0  0  0  0  0  0  0
  162.1120  208.6840  150.8980 C   0  0  0  0  0  3  0  0  0  0  0  0
  161.2820  210.6390  151.8140 C   0  0  0  0  0  0  0  0  0  0  0  0
  162.0640  207.2260  152.9240 C   0  0  0  0  0  2  0  0  0  0  0  0
  161.1790  207.1640  154.0770 N   0  0  0  0  0  2  0  0  0  0  0  0
  160.7670  205.7790  154.2140 C   0  0  0  0  0  2  0  0  0  0  0  0
  161.2450  205.0110  153.0770 N   0  0  0  0  0  2  0  0  0  0  0  0
  160.4310  205.3920  151.9360 C   0  0  0  0  0  2  0  0  0  0  0  0
  160.7070  203.0540  151.4120 O   0  0  0  0  0  1  0  0  0  0  0  0
  160.4980  204.3190  150.8520 C   0  0  2  0  0  3  0  0  0  0  0  0
  161.5330  204.6190  149.8610 N   0  0  0  0  0  2  0  0  0  0  0  0
  161.8520  203.4250  149.0790 C   0  0  0  0  0  2  0  0  0  0  0  0
  160.9920  203.3400  147.8140 C   0  0  1  0  0  3  0  0  0  0  0  0
  160.9380  205.7370  146.9780 N   0  0  0  0  0  0  0  0  0  0  0  0
  161.3410  206.7750  146.0430 C   0  0  0  0  0  1  0  0  0  0  0  0
  160.1390  206.0680  148.0210 O   0  0  0  0  0  1  0  0  0  0  0  0
  162.0420  204.0600  145.7850 O   0  0  0  0  0  0  0  0  0  0  0  0
  161.3690  204.3810  146.8010 C   0  0  0  0  0  0  0  0  0  0  0  0
  160.9930  201.9480  147.1970 C   0  0  0  0  0  2  0  0  0  0  0  0
  161.2770  199.6380  147.6810 O   0  0  0  0  0  1  0  0  0  0  0  0
  161.3850  200.9140  148.2340 C   0  0  0  0  0  2  0  0  0  0  0  0
  160.6280  213.7940  147.7350 C   0  0  2  0  0  3  0  0  0  0  0  0
  159.2370  213.6600  147.6440 O   0  0  0  0  0  0  0  0  0  0  0  0
  158.9140  212.6000  148.4970 C   0  0  0  0  0  1  0  0  0  0  0  0
  161.2050  214.1110  146.3610 C   0  0  0  0  0  2  0  0  0  0  0  0
  159.7700  212.5060  145.0620 C   0  0  0  0  0  2  0  0  0  0  0  0
  160.7150  213.2540  142.9940 C   0  0  1  0  0  3  0  0  0  0  0  0
  160.5560  212.0300  143.8630 C   0  0  0  0  0  2  0  0  0  0  0  0
  160.1580  213.9650  145.2630 C   0  0  2  0  0  3  0  0  0  0  0  0
  160.7550  214.4370  143.9450 C   0  0  0  0  0  2  0  0  0  0  0  0
  161.9200  213.1740  142.2690 O   0  0  0  0  0  0  0  0  0  0  0  0
  161.3550  211.2650  141.0780 O   0  0  0  0  0  1  0  0  0  0  0  0
  161.6770  212.6290  140.9810 C   0  0  2  0  0  0  0  0  0  0  0  0
  163.6530  213.7270  140.2820 O   0  0  0  0  0  0  0  0  0  0  0  0
  162.9270  212.7550  140.1460 C   0  0  0  0  0  0  0  0  0  0  0  0
  163.3900  211.4910  138.9580 S   0  0  0  0  0  1  0  0  0  0  0  0
  160.0040  212.8660  139.1240 O   0  0  0  0  0  0  0  0  0  0  0  0
  160.5700  213.3830  140.2830 C   0  0  0  0  0  0  0  0  0  0  0  0
  160.1110  214.4480  140.7730 O   0  0  0  0  0  1  0  0  0  0  0  0
  160.8870  209.9600  154.1980 C   0  0  0  0  0  2  0  0  0  0  0  0
  162.2240  210.6950  155.1810 S   0  0  0  0  0  0  0  0  0  0  0  0
  161.0490  211.2090  156.4650 C   0  0  0  0  0  2  0  0  0  0  0  0
  158.2840  210.6620  156.1900 O   0  0  0  0  0  0  0  0  0  0  0  0
  158.6920  211.8010  155.8270 C   0  0  0  0  0  0  0  0  0  0  0  0
  160.0800  212.1290  155.9000 N   0  0  0  0  0  2  0  0  0  0  0  0
  157.7170  212.8240  155.3170 C   0  0  2  0  0  3  0  0  0  0  0  0
  156.2390  210.9730  155.6120 C   0  0  0  0  0  2  0  0  0  0  0  0
  156.3230  212.4390  155.6020 N   0  0  0  0  0  0  0  0  0  0  0  0
  154.5170  212.4810  157.2600 C   0  0  0  0  0  2  0  0  0  0  0  0
  154.8090  210.5390  155.9180 C   0  0  0  0  0  2  0  0  0  0  0  0
  154.4220  211.0230  157.2430 N   0  0  0  0  0  2  0  0  0  0  0  0
  155.9500  212.9060  156.9440 C   0  0  0  0  0  2  0  0  0  0  0  0
  158.0510  212.0230  153.0890 O   0  0  0  0  0  0  0  0  0  0  0  0
  158.0710  214.3340  153.2990 N   0  0  0  0  0  1  0  0  0  0  0  0
  157.9580  213.0240  153.8450 C   0  0  0  0  0  0  0  0  0  0  0  0
  1  4  2  0  0  0  0
  3  1  1  0  0  0  0
  4  2  1  0  0  0  0
  4  8  1  0  0  0  0
  5  1  1  0  0  0  0
  5  6  1  0  0  0  0
  6 12  2  0  0  0  0
  6 13  1  0  0  0  0
  7 11  1  0  0  0  0
  7  3  2  0  0  0  0
  9 10  2  0  0  0  0
  9 14  1  0  0  0  0
 10 50  1  0  0  0  0
 11  5  2  0  0  0  0
 12  9  1  0  0  0  0
 13  8  2  0  0  0  0
 13 10  1  0  0  0  0
 14 15  1  0  0  0  0
 15 16  1  0  0  0  0
 17 16  1  0  0  0  0
 18 17  1  0  0  0  0
 20 19  1  1  0  0  0
 20 18  1  0  0  0  0
 21 20  1  0  0  0  0
 22 21  1  0  0  0  0
 23 29  1  6  0  0  0
 23 22  1  0  0  0  0
 24 26  1  0  0  0  0
 25 24  1  0  0  0  0
 27 28  2  0  0  0  0
 28 24  1  0  0  0  0
 28 23  1  0  0  0  0
 29 31  1  0  0  0  0
 30 31  1  0  0  0  0
 32 35  1  6  0  0  0
 32  3  1  0  0  0  0
 33 32  1  0  0  0  0
 33 34  1  0  0  0  0
 36 39  1  0  0  0  0
 37 41  1  1  0  0  0
 37 38  1  0  0  0  0
 37 40  1  0  0  0  0
 38 36  1  0  0  0  0
 39 35  1  1  0  0  0
 40 39  1  0  0  0  0
 43 42  1  1  0  0  0
 43 41  1  0  0  0  0
 45 44  2  0  0  0  0
 45 43  1  0  0  0  0
 46 45  1  0  0  0  0
 47 48  2  0  0  0  0
 48 49  1  0  0  0  0
 48 43  1  0  0  0  0
 50 51  1  0  0  0  0
 51 52  1  0  0  0  0
 54 55  1  0  0  0  0
 54 53  2  0  0  0  0
 55 52  1  0  0  0  0
 56 65  1  6  0  0  0
 56 58  1  0  0  0  0
 56 54  1  0  0  0  0
 57 60  1  0  0  0  0
 58 57  1  0  0  0  0
 58 62  1  0  0  0  0
 60 61  1  0  0  0  0
 61 59  1  0  0  0  0
 62 59  1  0  0  0  0
 63 65  2  0  0  0  0
 64 65  1  0  0  0  0
M  END
>  <MODEL>
2

>  <REMARK>
 VINA RESULT:      -2.7      1.302      2.047
  Name = 
  27 active torsions:
  status: ('A' for Active; 'I' for Inactive)
    1  A    between atoms: C_4  and  C_12
    2  A    between atoms: N_9  and  C_25
    3  A    between atoms: N_9  and  C_52
    4  A    between atoms: C_11  and  C_36
    5  A    between atoms: C_11  and  S_62
    6  A    between atoms: C_12  and  C_23
    7  A    between atoms: C_12  and  O_42
    8  A    between atoms: C_14  and  N_21
    9  A    between atoms: C_14  and  C_33
   10  A    between atoms: C_14  and  C_40
   11  A    between atoms: C_15  and  C_54
   12  A    between atoms: C_15  and  C_65
   13  A    between atoms: C_19  and  C_27
   14  A    between atoms: C_19  and  C_31
   15  A    between atoms: C_19  and  O_43
   16  A    between atoms: C_23  and  C_55
   17  A    between atoms: C_25  and  C_29
   18  A    between atoms: C_34  and  O_43
   19  A    between atoms: C_48  and  N_49
   20  A    between atoms: C_48  and  C_53
   21  A    between atoms: N_49  and  C_59
   22  A    between atoms: C_52  and  N_61
   23  A    between atoms: C_53  and  N_61
   24  A    between atoms: C_54  and  C_57
   25  A    between atoms: C_54  and  C_59
   26  A    between atoms: C_60  and  S_62
   27  A    between atoms: C_60  and  N_63
                            x       y       z     vdW  Elec       q    Type
                         _______ _______ _______ _____ _____    ______ ____

>  <TORSDO>
F 27

$$$$
=
 OpenBabel11042423033D

 65 70  0  0  1  0  0  0  0  0999 V2000
  161.5890  208.1280  150.6520 C   0  0  0  0  0  0  0  0  0  0  0  0
  160.3220  208.3420  152.8460 C   0  0  0  0  0  1  0  0  0  0  0  0
  161.9980  206.8630  150.6420 C   0  0  0  0  0  0  0  0  0  0  0  0
  160.8810  208.9140  151.5910 C   0  0  0  0  0  0  0  0  0  0  0  0
  162.0730  208.6800  149.4950 C   0  0  0  0  0  0  0  0  0  0  0  0
  161.8910  210.0290  149.2410 C   0  0  0  0  0  0  0  0  0  0  0  0
  162.7700  206.6380  149.4500 N   0  0  0  0  0  0  0  0  0  0  0  0
  160.7170  210.2510  151.3260 N   0  0  0  0  0  0  0  0  0  0  0  0
  161.9180  212.1060  148.5050 C   0  0  0  0  0  0  0  0  0  0  0  0
  161.2050  212.0470  149.7930 C   0  0  0  0  0  0  0  0  0  0  0  0
  162.8130  207.7140  148.7660 N   0  0  0  0  0  0  0  0  0  0  0  0
  162.3530  210.8890  148.1580 C   0  0  0  0  0  3  0  0  0  0  0  0
  161.2210  210.7850  150.1730 C   0  0  0  0  0  0  0  0  0  0  0  0
  162.1920  213.3430  147.7210 C   0  0  0  0  0  2  0  0  0  0  0  0
  160.9890  214.1570  147.6390 N   0  0  0  0  0  2  0  0  0  0  0  0
  160.7560  214.4170  146.2300 C   0  0  0  0  0  2  0  0  0  0  0  0
  161.4800  213.4470  145.4270 N   0  0  0  0  0  2  0  0  0  0  0  0
  160.5930  213.0440  144.3490 C   0  0  0  0  0  2  0  0  0  0  0  0
  162.5900  212.7350  143.0330 O   0  0  0  0  0  1  0  0  0  0  0  0
  161.3430  212.1800  143.3380 C   0  0  2  0  0  3  0  0  0  0  0  0
  160.5590  211.9760  142.1190 N   0  0  0  0  0  2  0  0  0  0  0  0
  161.4340  211.6100  141.0050 C   0  0  0  0  0  2  0  0  0  0  0  0
  161.2700  212.5750  139.8270 C   0  0  1  0  0  3  0  0  0  0  0  0
  159.3440  211.5500  138.5280 N   0  0  0  0  0  0  0  0  0  0  0  0
  157.9610  211.5460  138.0830 C   0  0  0  0  0  1  0  0  0  0  0  0
  160.1510  210.5210  138.1710 O   0  0  0  0  0  1  0  0  0  0  0  0
  159.1280  213.6210  139.5870 O   0  0  0  0  0  0  0  0  0  0  0  0
  159.8570  212.6250  139.3260 C   0  0  0  0  0  0  0  0  0  0  0  0
  161.7920  213.9720  140.1370 C   0  0  0  0  0  2  0  0  0  0  0  0
  163.6230  214.2760  138.6510 O   0  0  0  0  0  1  0  0  0  0  0  0
  163.3000  214.0150  139.9820 C   0  0  0  0  0  2  0  0  0  0  0  0
  161.8730  205.8790  151.7610 C   0  0  2  0  0  3  0  0  0  0  0  0
  162.6480  206.3090  152.8450 O   0  0  0  0  0  0  0  0  0  0  0  0
  161.7930  206.2620  153.9500 C   0  0  0  0  0  1  0  0  0  0  0  0
  162.3460  204.5050  151.3030 C   0  0  0  0  0  2  0  0  0  0  0  0
  161.8990  202.0330  151.3950 C   0  0  0  0  0  2  0  0  0  0  0  0
  160.0610  202.2560  149.8780 C   0  0  1  0  0  3  0  0  0  0  0  0
  161.4060  201.5880  150.0390 C   0  0  1  0  0  3  0  0  0  0  0  0
  161.3190  203.4230  151.6150 C   0  0  2  0  0  3  0  0  0  0  0  0
  160.1490  203.5590  150.6510 C   0  0  0  0  0  2  0  0  0  0  0  0
  159.8150  202.5170  148.5150 O   0  0  0  0  0  0  0  0  0  0  0  0
  162.0400  201.8610  148.5830 O   0  0  0  0  0  0  0  0  0  0  0  0
  161.0150  202.3730  147.7690 C   0  0  2  0  0  0  0  0  0  0  0  0
  160.9250  204.7370  147.7080 O   0  0  0  0  0  0  0  0  0  0  0  0
  161.4500  203.7270  147.2670 C   0  0  0  0  0  0  0  0  0  0  0  0
  162.7460  203.8960  146.0360 S   0  0  0  0  0  1  0  0  0  0  0  0
  160.4220  202.0290  145.3540 O   0  0  0  0  0  0  0  0  0  0  0  0
  160.7960  201.4770  146.5740 C   0  0  0  0  0  0  0  0  0  0  0  0
  161.0050  200.2380  146.6530 O   0  0  0  0  0  1  0  0  0  0  0  0
  160.6220  213.1930  150.5490 C   0  0  0  0  0  2  0  0  0  0  0  0
  160.4360  212.7600  152.3010 S   0  0  0  0  0  0  0  0  0  0  0  0
  158.7720  213.4840  152.3440 C   0  0  0  0  0  2  0  0  0  0  0  0
  156.2800  212.6370  153.3870 O   0  0  0  0  0  0  0  0  0  0  0  0
  157.0950  213.1750  154.1890 C   0  0  0  0  0  0  0  0  0  0  0  0
  158.3540  213.6620  153.7220 N   0  0  0  0  0  2  0  0  0  0  0  0
  156.7480  213.3030  155.6450 C   0  0  2  0  0  3  0  0  0  0  0  0
  158.4300  211.7070  156.2120 C   0  0  0  0  0  2  0  0  0  0  0  0
  157.9160  213.0490  156.5090 N   0  0  0  0  0  0  0  0  0  0  0  0
  160.2090  213.7290  157.0520 C   0  0  0  0  0  2  0  0  0  0  0  0
  159.6500  211.4160  157.0800 C   0  0  0  0  0  2  0  0  0  0  0  0
  160.7070  212.3810  156.7810 N   0  0  0  0  0  2  0  0  0  0  0  0
  158.9820  214.0060  156.1840 C   0  0  0  0  0  2  0  0  0  0  0  0
  155.1480  211.6330  155.0410 O   0  0  0  0  0  0  0  0  0  0  0  0
  155.0500  212.3080  157.2580 N   0  0  0  0  0  1  0  0  0  0  0  0
  155.6070  212.3700  155.9500 C   0  0  0  0  0  0  0  0  0  0  0  0
  1  4  2  0  0  0  0
  3  1  1  0  0  0  0
  3 32  1  0  0  0  0
  4  2  1  0  0  0  0
  5  1  1  0  0  0  0
  6  5  1  0  0  0  0
  6 13  1  0  0  0  0
  7  3  2  0  0  0  0
  8  4  1  0  0  0  0
  9 10  2  0  0  0  0
 10 13  1  0  0  0  0
 10 50  1  0  0  0  0
 11  7  1  0  0  0  0
 11  5  2  0  0  0  0
 12  9  1  0  0  0  0
 12  6  2  0  0  0  0
 13  8  2  0  0  0  0
 14  9  1  0  0  0  0
 15 14  1  0  0  0  0
 16 15  1  0  0  0  0
 17 16  1  0  0  0  0
 18 17  1  0  0  0  0
 20 19  1  6  0  0  0
 20 18  1  0  0  0  0
 21 20  1  0  0  0  0
 22 21  1  0  0  0  0
 23 29  1  1  0  0  0
 23 22  1  0  0  0  0
 24 28  1  0  0  0  0
 25 24  1  0  0  0  0
 26 24  1  0  0  0  0
 28 27  2  0  0  0  0
 28 23  1  0  0  0  0
 30 31  1  0  0  0  0
 31 29  1  0  0  0  0
 32 35  1  6  0  0  0
 32 33  1  0  0  0  0
 33 34  1  0  0  0  0
 36 39  1  0  0  0  0
 37 38  1  0  0  0  0
 37 40  1  1  0  0  0
 38 36  1  1  0  0  0
 39 35  1  6  0  0  0
 40 39  1  0  0  0  0
 41 37  1  0  0  0  0
 42 38  1  0  0  0  0
 43 48  1  6  0  0  0
 43 41  1  0  0  0  0
 43 42  1  0  0  0  0
 45 44  2  0  0  0  0
 45 43  1  0  0  0  0
 46 45  1  0  0  0  0
 47 48  2  0  0  0  0
 48 49  1  0  0  0  0
 50 51  1  0  0  0  0
 51 52  1  0  0  0  0
 52 55  1  0  0  0  0
 53 54  2  0  0  0  0
 55 54  1  0  0  0  0
 56 54  1  6  0  0  0
 56 65  1  0  0  0  0
 56 58  1  0  0  0  0
 57 58  1  0  0  0  0
 57 60  1  0  0  0  0
 61 59  1  0  0  0  0
 61 60  1  0  0  0  0
 62 58  1  0  0  0  0
 62 59  1  0  0  0  0
 63 65  2  0  0  0  0
 65 64  1  0  0  0  0
M  END
>  <MODEL>
3

>  <REMARK>
 VINA RESULT:      -2.2      2.583      9.338
  Name = 
  27 active torsions:
  status: ('A' for Active; 'I' for Inactive)
    1  A    between atoms: C_4  and  C_12
    2  A    between atoms: N_9  and  C_25
    3  A    between atoms: N_9  and  C_52
    4  A    between atoms: C_11  and  C_36
    5  A    between atoms: C_11  and  S_62
    6  A    between atoms: C_12  and  C_23
    7  A    between atoms: C_12  and  O_42
    8  A    between atoms: C_14  and  N_21
    9  A    between atoms: C_14  and  C_33
   10  A    between atoms: C_14  and  C_40
   11  A    between atoms: C_15  and  C_54
   12  A    between atoms: C_15  and  C_65
   13  A    between atoms: C_19  and  C_27
   14  A    between atoms: C_19  and  C_31
   15  A    between atoms: C_19  and  O_43
   16  A    between atoms: C_23  and  C_55
   17  A    between atoms: C_25  and  C_29
   18  A    between atoms: C_34  and  O_43
   19  A    between atoms: C_48  and  N_49
   20  A    between atoms: C_48  and  C_53
   21  A    between atoms: N_49  and  C_59
   22  A    between atoms: C_52  and  N_61
   23  A    between atoms: C_53  and  N_61
   24  A    between atoms: C_54  and  C_57
   25  A    between atoms: C_54  and  C_59
   26  A    between atoms: C_60  and  S_62
   27  A    between atoms: C_60  and  N_63
                            x       y       z     vdW  Elec       q    Type
                         _______ _______ _______ _____ _____    ______ ____

>  <TORSDO>
F 27

$$$$
