=
 OpenBabel11042420483D

 48 52  0  0  1  0  0  0  0  0999 V2000
  163.3240  213.9450  144.8510 F   0  0  0  0  0  0  0  0  0  0  0  0
  161.0580  212.7310  138.3810 C   0  0  0  0  0  3  0  0  0  0  0  0
  162.1080  213.3610  144.7120 C   0  0  0  0  0  0  0  0  0  0  0  0
  161.3280  213.0700  145.8420 C   0  0  0  0  0  0  0  0  0  0  0  0
  160.2620  212.3260  139.4540 C   0  0  0  0  0  0  0  0  0  0  0  0
  159.5970  212.1610  144.4120 C   0  0  0  0  0  3  0  0  0  0  0  0
  161.6230  213.0640  143.4330 C   0  0  2  0  0  3  0  0  0  0  0  0
  162.3920  213.3820  142.3140 O   0  0  0  0  0  0  0  0  0  0  0  0
  162.2890  213.3430  138.6070 C   0  0  0  0  0  3  0  0  0  0  0  0
  160.3630  212.4620  143.2810 C   0  0  0  0  0  0  0  0  0  0  0  0
  161.9490  213.1710  141.0040 C   0  0  0  0  0  0  0  0  0  0  0  0
  162.7460  213.5760  139.9060 C   0  0  0  0  0  0  0  0  0  0  0  0
  160.0760  212.4650  145.6890 C   0  0  0  0  0  3  0  0  0  0  0  0
  160.7010  212.5480  140.7750 C   0  0  0  0  0  0  0  0  0  0  0  0
  159.8220  212.1260  141.9270 C   0  0  0  0  0  3  0  0  0  0  0  0
  156.6130  211.8650  138.6300 O   0  0  0  0  0  0  0  0  0  0  0  0
  157.8180  212.4880  138.9360 C   0  0  0  0  0  0  0  0  0  0  0  0
  158.9970  211.7060  139.1860 N   0  0  0  0  0  0  0  0  0  0  0  0
  157.8630  213.7470  139.0000 O   0  0  0  0  0  1  0  0  0  0  0  0
  158.9260  210.2510  139.1630 C   0  0  0  0  0  2  0  0  0  0  0  0
  159.6900  209.7130  137.9550 C   0  0  0  0  0  2  0  0  0  0  0  0
  162.3270  206.8910  137.5330 C   0  0  0  0  0  2  0  0  0  0  0  0
  161.6120  208.2240  137.2750 C   0  0  0  0  0  2  0  0  0  0  0  0
  160.4900  208.4590  138.2900 C   0  0  0  0  0  3  0  0  0  0  0  0
  162.3430  206.4750  139.0100 C   0  0  0  0  0  2  0  0  0  0  0  0
  161.0070  208.4860  139.7390 C   0  0  0  0  0  2  0  0  0  0  0  0
  162.3030  207.6880  139.9340 C   0  0  0  0  0  2  0  0  0  0  0  0
  163.9950  214.2040  140.0430 O   0  0  0  0  0  0  0  0  0  0  0  0
  165.7800  213.2330  138.7480 C   0  0  0  0  0  1  0  0  0  0  0  0
  164.9060  214.4530  138.9810 C   0  0  0  0  0  2  0  0  0  0  0  0
  161.8200  213.3990  147.2130 C   0  0  0  0  0  2  0  0  0  0  0  0
  162.2170  211.6360  148.7860 O   0  0  0  0  0  1  0  0  0  0  0  0
  161.2190  212.4560  148.2530 C   0  0  1  0  0  3  0  0  0  0  0  0
  159.0870  213.2680  149.1670 N   0  0  0  0  0  1  0  0  0  0  0  0
  160.5250  213.2260  149.3790 C   0  0  1  0  0  3  0  0  0  0  0  0
  160.8120  212.6090  150.7390 C   0  0  0  0  0  2  0  0  0  0  0  0
  159.5640  212.5790  151.6190 C   0  0  1  0  0  3  0  0  0  0  0  0
  159.7080  211.5690  152.7650 C   0  0  2  0  0  3  0  0  0  0  0  0
  159.7100  212.1970  154.0170 O   0  0  0  0  0  1  0  0  0  0  0  0
  160.9230  210.6480  152.5950 C   0  0  1  0  0  3  0  0  0  0  0  0
  161.7060  210.4850  153.8960 C   0  0  0  0  0  2  0  0  0  0  0  0
  160.9720  209.1730  154.9220 S   0  0  0  0  0  1  0  0  0  0  0  0
  160.5080  209.3970  152.1260 O   0  0  0  0  0  0  0  0  0  0  0  0
  162.0820  207.6750  151.7020 C   0  0  0  0  0  2  0  0  0  0  0  0
  161.0910  207.7060  150.5570 C   0  0  0  0  0  2  0  0  0  0  0  0
  161.5060  208.9970  151.2360 C   0  0  0  0  0  3  0  0  0  0  0  0
  157.9280  213.9850  152.1290 C   0  0  0  0  0  1  0  0  0  0  0  0
  159.3190  213.8530  152.1380 O   0  0  0  0  0  0  0  0  0  0  0  0
  2  9  2  0  0  0  0
  2  5  1  0  0  0  0
  3  1  1  0  0  0  0
  3  4  2  0  0  0  0
  4 31  1  0  0  0  0
  5 14  2  0  0  0  0
  6 13  2  0  0  0  0
  7  8  1  6  0  0  0
  7  3  1  0  0  0  0
  9 12  1  0  0  0  0
 10  7  1  0  0  0  0
 10  6  1  0  0  0  0
 11  8  1  0  0  0  0
 12 28  1  0  0  0  0
 12 11  2  0  0  0  0
 13  4  1  0  0  0  0
 14 11  1  0  0  0  0
 14 15  1  0  0  0  0
 15 10  2  0  0  0  0
 16 17  2  0  0  0  0
 17 19  1  0  0  0  0
 17 18  1  0  0  0  0
 18  5  1  0  0  0  0
 20 18  1  0  0  0  0
 21 24  1  0  0  0  0
 21 20  1  0  0  0  0
 22 25  1  0  0  0  0
 23 22  1  0  0  0  0
 23 24  1  0  0  0  0
 24 26  1  0  0  0  0
 25 27  1  0  0  0  0
 26 27  1  0  0  0  0
 29 30  1  0  0  0  0
 30 28  1  0  0  0  0
 31 33  1  0  0  0  0
 33 32  1  1  0  0  0
 33 35  1  0  0  0  0
 35 34  1  6  0  0  0
 35 36  1  0  0  0  0
 37 36  1  1  0  0  0
 37 48  1  0  0  0  0
 37 38  1  0  0  0  0
 38 39  1  1  0  0  0
 40 38  1  0  0  0  0
 40 41  1  1  0  0  0
 41 42  1  0  0  0  0
 43 40  1  0  0  0  0
 45 46  1  0  0  0  0
 45 44  1  0  0  0  0
 46 44  1  0  0  0  0
 46 43  1  0  0  0  0
 47 48  1  0  0  0  0
M  END
>  <MODEL>
1

>  <REMARK>
 VINA RESULT:      -5.6      0.000      0.000
  Name = 
  17 active torsions:
  status: ('A' for Active; 'I' for Inactive)
    1  A    between atoms: C_1  and  C_6
    2  A    between atoms: C_1  and  C_22
    3  A    between atoms: C_3  and  C_22
    4  A    between atoms: C_6  and  C_9
    5  A    between atoms: C_6  and  O_48
    6  A    between atoms: C_7  and  C_26
    7  A    between atoms: O_8  and  C_22
    8  A    between atoms: O_8  and  C_41
    9  A    between atoms: C_9  and  C_45
   10  A    between atoms: C_15  and  C_18
   11  A    between atoms: C_15  and  C_47
   12  A    between atoms: O_20  and  C_24
   13  A    between atoms: O_20  and  C_39
   14  A    between atoms: C_21  and  N_34
   15  A    between atoms: C_26  and  C_44
   16  A    between atoms: N_34  and  C_44
   17  A    between atoms: C_45  and  C_47
                            x       y       z     vdW  Elec       q    Type
                         _______ _______ _______ _____ _____    ______ ____

>  <TORSDO>
F 17

$$$$
=
 OpenBabel11042420483D

 48 52  0  0  1  0  0  0  0  0999 V2000
  161.3450  212.1760  151.6780 F   0  0  0  0  0  0  0  0  0  0  0  0
  161.1130  205.4670  153.5250 C   0  0  0  0  0  3  0  0  0  0  0  0
  161.5050  211.2500  150.6990 C   0  0  0  0  0  0  0  0  0  0  0  0
  161.7610  211.6510  149.3790 C   0  0  0  0  0  0  0  0  0  0  0  0
  161.2780  205.7820  152.1760 C   0  0  0  0  0  0  0  0  0  0  0  0
  161.8390  209.3290  148.6900 C   0  0  0  0  0  2  0  0  0  0  0  0
  161.4310  209.8880  151.0140 C   0  0  0  0  0  0  0  0  0  0  0  0
  161.2050  209.4970  152.3330 O   0  0  0  0  0  0  0  0  0  0  0  0
  160.9750  206.4770  154.4740 C   0  0  0  0  0  3  0  0  0  0  0  0
  161.5990  208.9240  150.0060 C   0  0  0  0  0  0  0  0  0  0  0  0
  161.1780  208.1570  152.7340 C   0  0  0  0  0  0  0  0  0  0  0  0
  161.0110  207.8230  154.0990 C   0  0  0  0  0  0  0  0  0  0  0  0
  161.9220  210.6890  148.3760 C   0  0  0  0  0  3  0  0  0  0  0  0
  161.3160  207.1320  151.7710 C   0  0  0  0  0  0  0  0  0  0  0  0
  161.5180  207.4600  150.3120 C   0  0  0  0  0  3  0  0  0  0  0  0
  161.1570  202.3630  150.5930 O   0  0  0  0  0  0  0  0  0  0  0  0
  161.0510  203.3690  151.5480 C   0  0  0  0  0  0  0  0  0  0  0  0
  161.4260  204.7180  151.2260 N   0  0  0  0  0  0  0  0  0  0  0  0
  160.6290  203.0820  152.7010 O   0  0  0  0  0  1  0  0  0  0  0  0
  161.9620  205.0320  149.9080 C   0  0  0  0  0  2  0  0  0  0  0  0
  160.8420  205.0030  148.8710 C   0  0  0  0  0  2  0  0  0  0  0  0
  162.1520  204.0050  145.3510 C   0  0  0  0  0  2  0  0  0  0  0  0
  161.4960  203.8380  146.7290 C   0  0  0  0  0  2  0  0  0  0  0  0
  161.3660  205.1830  147.4510 C   0  0  0  0  0  3  0  0  0  0  0  0
  161.8640  205.3610  144.6910 C   0  0  0  0  0  2  0  0  0  0  0  0
  160.5200  206.1930  146.6560 C   0  0  0  0  0  2  0  0  0  0  0  0
  160.5230  205.9310  145.1450 C   0  0  0  0  0  2  0  0  0  0  0  0
  160.8700  208.7770  155.1210 O   0  0  0  0  0  0  0  0  0  0  0  0
  162.4860  210.0940  156.3280 C   0  0  0  0  0  1  0  0  0  0  0  0
  161.6520  208.8260  156.3070 C   0  0  0  0  0  2  0  0  0  0  0  0
  161.8640  213.0990  149.0290 C   0  0  0  0  0  2  0  0  0  0  0  0
  163.3980  212.3040  147.3690 O   0  0  0  0  0  1  0  0  0  0  0  0
  162.4370  213.2850  147.6250 C   0  0  1  0  0  3  0  0  0  0  0  0
  160.0640  213.6550  147.1040 N   0  0  0  0  0  1  0  0  0  0  0  0
  161.3430  213.2290  146.5570 C   0  0  1  0  0  3  0  0  0  0  0  0
  161.6870  214.0960  145.3560 C   0  0  0  0  0  2  0  0  0  0  0  0
  161.2530  213.4410  144.0460 C   0  0  1  0  0  3  0  0  0  0  0  0
  162.4570  212.9040  143.2600 C   0  0  2  0  0  3  0  0  0  0  0  0
  163.6530  213.5160  143.6550 O   0  0  0  0  0  1  0  0  0  0  0  0
  162.2570  212.9860  141.7410 C   0  0  1  0  0  3  0  0  0  0  0  0
  163.1500  214.0480  141.1010 C   0  0  0  0  0  2  0  0  0  0  0  0
  163.7350  213.4890  139.4700 S   0  0  0  0  0  1  0  0  0  0  0  0
  162.5060  211.7380  141.1610 O   0  0  0  0  0  0  0  0  0  0  0  0
  160.3090  211.7830  140.2720 C   0  0  0  0  0  2  0  0  0  0  0  0
  160.9770  210.4990  139.8240 C   0  0  0  0  0  2  0  0  0  0  0  0
  161.2790  211.0740  141.1940 C   0  0  0  0  0  3  0  0  0  0  0  0
  159.1540  212.8050  143.7260 C   0  0  0  0  0  1  0  0  0  0  0  0
  160.3580  212.4020  144.3100 O   0  0  0  0  0  0  0  0  0  0  0  0
  2  9  1  0  0  0  0
  3  7  2  0  0  0  0
  3  1  1  0  0  0  0
  4  3  1  0  0  0  0
  5  2  2  0  0  0  0
  6 10  1  0  0  0  0
  7  8  1  0  0  0  0
  8 11  1  0  0  0  0
 10 15  2  0  0  0  0
 10  7  1  0  0  0  0
 11 12  1  0  0  0  0
 12  9  2  0  0  0  0
 12 28  1  0  0  0  0
 13  6  1  0  0  0  0
 13  4  2  0  0  0  0
 14  5  1  0  0  0  0
 14 11  2  0  0  0  0
 15 14  1  0  0  0  0
 16 17  2  0  0  0  0
 17 19  1  0  0  0  0
 18 17  1  0  0  0  0
 18  5  1  0  0  0  0
 20 18  1  0  0  0  0
 21 20  1  0  0  0  0
 22 23  1  0  0  0  0
 23 24  1  0  0  0  0
 24 21  1  0  0  0  0
 25 27  1  0  0  0  0
 25 22  1  0  0  0  0
 26 24  1  0  0  0  0
 27 26  1  0  0  0  0
 28 30  1  0  0  0  0
 30 29  1  0  0  0  0
 31  4  1  0  0  0  0
 33 32  1  6  0  0  0
 33 31  1  0  0  0  0
 35 34  1  1  0  0  0
 35 33  1  0  0  0  0
 36 35  1  0  0  0  0
 37 48  1  0  0  0  0
 37 36  1  1  0  0  0
 38 39  1  6  0  0  0
 38 37  1  0  0  0  0
 40 41  1  6  0  0  0
 40 38  1  0  0  0  0
 42 41  1  0  0  0  0
 43 46  1  0  0  0  0
 43 40  1  0  0  0  0
 44 46  1  0  0  0  0
 45 44  1  0  0  0  0
 45 46  1  0  0  0  0
 47 48  1  0  0  0  0
M  END
>  <MODEL>
2

>  <REMARK>
 VINA RESULT:      -5.3      4.127     11.210
  Name = 
  17 active torsions:
  status: ('A' for Active; 'I' for Inactive)
    1  A    between atoms: C_1  and  C_6
    2  A    between atoms: C_1  and  C_22
    3  A    between atoms: C_3  and  C_22
    4  A    between atoms: C_6  and  C_9
    5  A    between atoms: C_6  and  O_48
    6  A    between atoms: C_7  and  C_26
    7  A    between atoms: O_8  and  C_22
    8  A    between atoms: O_8  and  C_41
    9  A    between atoms: C_9  and  C_45
   10  A    between atoms: C_15  and  C_18
   11  A    between atoms: C_15  and  C_47
   12  A    between atoms: O_20  and  C_24
   13  A    between atoms: O_20  and  C_39
   14  A    between atoms: C_21  and  N_34
   15  A    between atoms: C_26  and  C_44
   16  A    between atoms: N_34  and  C_44
   17  A    between atoms: C_45  and  C_47
                            x       y       z     vdW  Elec       q    Type
                         _______ _______ _______ _____ _____    ______ ____

>  <TORSDO>
F 17

$$$$
=
 OpenBabel11042420483D

 48 52  0  0  1  0  0  0  0  0999 V2000
  161.9930  209.5280  148.0000 F   0  0  0  0  0  0  0  0  0  0  0  0
  161.0340  207.4920  154.5890 C   0  0  0  0  0  3  0  0  0  0  0  0
  161.6720  210.4810  148.9110 C   0  0  0  0  0  0  0  0  0  0  0  0
  161.4920  211.8130  148.5080 C   0  0  0  0  0  0  0  0  0  0  0  0
  160.9280  208.8510  154.2880 C   0  0  0  0  0  0  0  0  0  0  0  0
  161.0040  212.4380  150.7980 C   0  0  0  0  0  3  0  0  0  0  0  0
  161.5040  210.1270  150.2540 C   0  0  2  0  0  3  0  0  0  0  0  0
  161.6570  208.7970  150.6420 O   0  0  0  0  0  0  0  0  0  0  0  0
  161.3480  206.5710  153.5920 C   0  0  0  0  0  3  0  0  0  0  0  0
  161.1680  211.1090  151.2020 C   0  0  0  0  0  0  0  0  0  0  0  0
  161.4460  208.3590  151.9530 C   0  0  0  0  0  0  0  0  0  0  0  0
  161.5510  206.9840  152.2730 C   0  0  0  0  0  0  0  0  0  0  0  0
  161.1640  212.7900  149.4550 C   0  0  0  0  0  3  0  0  0  0  0  0
  161.1290  209.2940  152.9640 C   0  0  0  0  0  0  0  0  0  0  0  0
  160.9890  210.7620  152.6470 C   0  0  0  0  0  3  0  0  0  0  0  0
  161.2400  211.1470  157.2600 O   0  0  0  0  0  1  0  0  0  0  0  0
  161.5770  210.2160  156.2840 C   0  0  0  0  0  0  0  0  0  0  0  0
  160.5930  209.7710  155.3360 N   0  0  0  0  0  0  0  0  0  0  0  0
  162.7520  209.7600  156.2450 O   0  0  0  0  0  0  0  0  0  0  0  0
  159.2240  210.2620  155.4190 C   0  0  0  0  0  2  0  0  0  0  0  0
  159.1980  211.7710  155.1900 C   0  0  0  0  0  2  0  0  0  0  0  0
  155.3890  211.8720  155.9490 C   0  0  0  0  0  2  0  0  0  0  0  0
  156.8030  211.2900  155.8280 C   0  0  0  0  0  2  0  0  0  0  0  0
  157.8190  212.3700  155.4430 C   0  0  0  0  0  3  0  0  0  0  0  0
  155.3610  213.3400  156.3970 C   0  0  0  0  0  2  0  0  0  0  0  0
  157.8760  213.5130  156.4710 C   0  0  0  0  0  2  0  0  0  0  0  0
  156.5720  213.6850  157.2600 C   0  0  0  0  0  2  0  0  0  0  0  0
  161.8580  205.9890  151.3300 O   0  0  0  0  0  0  0  0  0  0  0  0
  161.3290  203.6380  151.2710 C   0  0  0  0  0  1  0  0  0  0  0  0
  160.9370  205.0330  150.8190 C   0  0  0  0  0  2  0  0  0  0  0  0
  161.6470  212.2040  147.0750 C   0  0  0  0  0  2  0  0  0  0  0  0
  163.0210  214.1660  147.1330 O   0  0  0  0  0  1  0  0  0  0  0  0
  161.7120  213.7230  146.9250 C   0  0  1  0  0  3  0  0  0  0  0  0
  162.3510  214.4200  144.6570 N   0  0  0  0  0  1  0  0  0  0  0  0
  161.2260  214.1750  145.5460 C   0  0  1  0  0  3  0  0  0  0  0  0
  160.3020  213.1480  144.9120 C   0  0  0  0  0  2  0  0  0  0  0  0
  159.5740  213.7190  143.6970 C   0  0  1  0  0  3  0  0  0  0  0  0
  159.6300  212.7550  142.5040 C   0  0  2  0  0  3  0  0  0  0  0  0
  160.1700  211.5140  142.8600 O   0  0  0  0  0  1  0  0  0  0  0  0
  160.3510  213.3560  141.2900 C   0  0  1  0  0  3  0  0  0  0  0  0
  161.8550  213.0920  141.3290 C   0  0  0  0  0  2  0  0  0  0  0  0
  162.3280  211.9110  140.0270 S   0  0  0  0  0  1  0  0  0  0  0  0
  159.8040  212.8410  140.1100 O   0  0  0  0  0  0  0  0  0  0  0  0
  158.2370  213.4930  138.4550 C   0  0  0  0  0  2  0  0  0  0  0  0
  157.5260  212.6130  139.4620 C   0  0  0  0  0  2  0  0  0  0  0  0
  158.6210  213.5570  139.9190 C   0  0  0  0  0  3  0  0  0  0  0  0
  157.9940  213.2270  145.1730 C   0  0  0  0  0  1  0  0  0  0  0  0
  158.2430  213.9870  144.0270 O   0  0  0  0  0  0  0  0  0  0  0  0
  1  3  1  0  0  0  0
  4  3  2  0  0  0  0
  4 13  1  0  0  0  0
  5  2  1  0  0  0  0
  5 18  1  0  0  0  0
  6 10  1  0  0  0  0
  7  3  1  6  0  0  0
  7  8  1  0  0  0  0
  7 10  1  0  0  0  0
  8 11  1  0  0  0  0
  9  2  2  0  0  0  0
 10 15  2  0  0  0  0
 11 12  2  0  0  0  0
 11 14  1  0  0  0  0
 12  9  1  0  0  0  0
 13  6  2  0  0  0  0
 14  5  2  0  0  0  0
 15 14  1  0  0  0  0
 17 16  1  0  0  0  0
 18 20  1  0  0  0  0
 18 17  1  0  0  0  0
 19 17  2  0  0  0  0
 21 20  1  0  0  0  0
 21 24  1  0  0  0  0
 22 25  1  0  0  0  0
 23 22  1  0  0  0  0
 24 23  1  0  0  0  0
 24 26  1  0  0  0  0
 25 27  1  0  0  0  0
 26 27  1  0  0  0  0
 28 12  1  0  0  0  0
 30 29  1  0  0  0  0
 30 28  1  0  0  0  0
 31  4  1  0  0  0  0
 33 31  1  0  0  0  0
 33 32  1  6  0  0  0
 35 34  1  6  0  0  0
 35 33  1  0  0  0  0
 36 35  1  0  0  0  0
 37 48  1  0  0  0  0
 37 36  1  1  0  0  0
 38 39  1  1  0  0  0
 38 37  1  0  0  0  0
 40 41  1  1  0  0  0
 40 38  1  0  0  0  0
 42 41  1  0  0  0  0
 43 40  1  0  0  0  0
 44 45  1  0  0  0  0
 44 46  1  0  0  0  0
 45 46  1  0  0  0  0
 46 43  1  0  0  0  0
 48 47  1  0  0  0  0
M  END
>  <MODEL>
3

>  <REMARK>
 VINA RESULT:      -4.5      4.091     13.108
  Name = 
  17 active torsions:
  status: ('A' for Active; 'I' for Inactive)
    1  A    between atoms: C_1  and  C_6
    2  A    between atoms: C_1  and  C_22
    3  A    between atoms: C_3  and  C_22
    4  A    between atoms: C_6  and  C_9
    5  A    between atoms: C_6  and  O_48
    6  A    between atoms: C_7  and  C_26
    7  A    between atoms: O_8  and  C_22
    8  A    between atoms: O_8  and  C_41
    9  A    between atoms: C_9  and  C_45
   10  A    between atoms: C_15  and  C_18
   11  A    between atoms: C_15  and  C_47
   12  A    between atoms: O_20  and  C_24
   13  A    between atoms: O_20  and  C_39
   14  A    between atoms: C_21  and  N_34
   15  A    between atoms: C_26  and  C_44
   16  A    between atoms: N_34  and  C_44
   17  A    between atoms: C_45  and  C_47
                            x       y       z     vdW  Elec       q    Type
                         _______ _______ _______ _____ _____    ______ ____

>  <TORSDO>
F 17

$$$$
=
 OpenBabel11042420483D

 48 52  0  0  1  0  0  0  0  0999 V2000
  162.5180  211.6840  147.6460 F   0  0  0  0  0  0  0  0  0  0  0  0
  160.8220  208.4410  153.5690 C   0  0  0  0  0  3  0  0  0  0  0  0
  161.8390  212.3970  148.5790 C   0  0  0  0  0  0  0  0  0  0  0  0
  161.4540  213.7220  148.3170 C   0  0  0  0  0  0  0  0  0  0  0  0
  160.4840  209.7880  153.4250 C   0  0  0  0  0  0  0  0  0  0  0  0
  160.4320  213.8560  150.5100 C   0  0  0  0  0  3  0  0  0  0  0  0
  161.5060  211.8010  149.8010 C   0  0  2  0  0  3  0  0  0  0  0  0
  161.8670  210.4760  150.0420 O   0  0  0  0  0  0  0  0  0  0  0  0
  161.5040  207.7730  152.5560 C   0  0  0  0  0  3  0  0  0  0  0  0
  160.7990  212.5320  150.7700 C   0  0  0  0  0  0  0  0  0  0  0  0
  161.5160  209.7950  151.2130 C   0  0  0  0  0  0  0  0  0  0  0  0
  161.8530  208.4290  151.3720 C   0  0  0  0  0  0  0  0  0  0  0  0
  160.7560  214.4500  149.2870 C   0  0  0  0  0  3  0  0  0  0  0  0
  160.8260  210.4740  152.2420 C   0  0  0  0  0  0  0  0  0  0  0  0
  160.4350  211.9230  152.0890 C   0  0  0  0  0  3  0  0  0  0  0  0
  159.0690  210.5690  156.8300 O   0  0  0  0  0  1  0  0  0  0  0  0
  159.7220  209.8890  155.8080 C   0  0  0  0  0  0  0  0  0  0  0  0
  159.7740  210.4440  154.4850 N   0  0  0  0  0  0  0  0  0  0  0  0
  160.2610  208.7760  156.0540 O   0  0  0  0  0  0  0  0  0  0  0  0
  159.1040  211.7050  154.1950 C   0  0  0  0  0  2  0  0  0  0  0  0
  157.6050  211.4710  154.0270 C   0  0  0  0  0  2  0  0  0  0  0  0
  156.8390  214.2390  156.6450 C   0  0  0  0  0  2  0  0  0  0  0  0
  157.6550  213.4100  155.6440 C   0  0  0  0  0  2  0  0  0  0  0  0
  156.7750  212.3870  154.9200 C   0  0  0  0  0  3  0  0  0  0  0  0
  155.3740  214.4390  156.2320 C   0  0  0  0  0  2  0  0  0  0  0  0
  155.6260  213.0500  154.1410 C   0  0  0  0  0  2  0  0  0  0  0  0
  155.2120  214.4120  154.7140 C   0  0  0  0  0  2  0  0  0  0  0  0
  162.5340  207.6780  150.4000 O   0  0  0  0  0  0  0  0  0  0  0  0
  160.9840  206.7240  148.8210 C   0  0  0  0  0  1  0  0  0  0  0  0
  162.1910  207.6220  149.0210 C   0  0  0  0  0  2  0  0  0  0  0  0
  161.7830  214.3660  147.0120 C   0  0  0  0  0  2  0  0  0  0  0  0
  159.6270  214.1790  145.9830 O   0  0  0  0  0  1  0  0  0  0  0  0
  160.9560  213.7620  145.8780 C   0  0  1  0  0  3  0  0  0  0  0  0
  162.9680  214.1450  144.5190 N   0  0  0  0  0  1  0  0  0  0  0  0
  161.5130  214.1460  144.5050 C   0  0  1  0  0  3  0  0  0  0  0  0
  161.0220  213.2040  143.4170 C   0  0  0  0  0  2  0  0  0  0  0  0
  161.0740  213.8600  142.0390 C   0  0  1  0  0  3  0  0  0  0  0  0
  161.9990  213.0930  141.0850 C   0  0  2  0  0  3  0  0  0  0  0  0
  163.3300  213.5090  141.2020 O   0  0  0  0  0  1  0  0  0  0  0  0
  161.5190  213.1410  139.6280 C   0  0  1  0  0  3  0  0  0  0  0  0
  162.1500  214.2970  138.8550 C   0  0  0  0  0  2  0  0  0  0  0  0
  163.3080  213.6670  137.5990 S   0  0  0  0  0  1  0  0  0  0  0  0
  161.8060  211.9270  138.9940 O   0  0  0  0  0  0  0  0  0  0  0  0
  160.4550  209.9960  139.2470 C   0  0  0  0  0  2  0  0  0  0  0  0
  161.9040  209.5890  139.4220 C   0  0  0  0  0  2  0  0  0  0  0  0
  161.4320  210.9440  139.9110 C   0  0  0  0  0  3  0  0  0  0  0  0
  159.0110  213.0940  142.3100 C   0  0  0  0  0  1  0  0  0  0  0  0
  159.7870  213.9280  141.4990 O   0  0  0  0  0  0  0  0  0  0  0  0
  1  3  1  0  0  0  0
  4  3  2  0  0  0  0
  4 13  1  0  0  0  0
  5  2  1  0  0  0  0
  5 18  1  0  0  0  0
  6 10  1  0  0  0  0
  7  3  1  6  0  0  0
  7  8  1  0  0  0  0
  7 10  1  0  0  0  0
  8 11  1  0  0  0  0
  9  2  2  0  0  0  0
 10 15  2  0  0  0  0
 11 12  2  0  0  0  0
 11 14  1  0  0  0  0
 12  9  1  0  0  0  0
 13  6  2  0  0  0  0
 14  5  2  0  0  0  0
 15 14  1  0  0  0  0
 17 19  2  0  0  0  0
 17 16  1  0  0  0  0
 18 17  1  0  0  0  0
 20 18  1  0  0  0  0
 21 20  1  0  0  0  0
 21 24  1  0  0  0  0
 23 22  1  0  0  0  0
 24 23  1  0  0  0  0
 25 22  1  0  0  0  0
 26 27  1  0  0  0  0
 26 24  1  0  0  0  0
 27 25  1  0  0  0  0
 28 12  1  0  0  0  0
 29 30  1  0  0  0  0
 30 28  1  0  0  0  0
 31  4  1  0  0  0  0
 33 32  1  6  0  0  0
 33 31  1  0  0  0  0
 35 34  1  1  0  0  0
 35 33  1  0  0  0  0
 36 35  1  0  0  0  0
 37 36  1  1  0  0  0
 38 39  1  6  0  0  0
 38 37  1  0  0  0  0
 40 41  1  6  0  0  0
 40 38  1  0  0  0  0
 42 41  1  0  0  0  0
 43 40  1  0  0  0  0
 43 46  1  0  0  0  0
 44 45  1  0  0  0  0
 44 46  1  0  0  0  0
 45 46  1  0  0  0  0
 48 37  1  0  0  0  0
 48 47  1  0  0  0  0
M  END
>  <MODEL>
4

>  <REMARK>
 VINA RESULT:      -4.2      3.676     12.787
  Name = 
  17 active torsions:
  status: ('A' for Active; 'I' for Inactive)
    1  A    between atoms: C_1  and  C_6
    2  A    between atoms: C_1  and  C_22
    3  A    between atoms: C_3  and  C_22
    4  A    between atoms: C_6  and  C_9
    5  A    between atoms: C_6  and  O_48
    6  A    between atoms: C_7  and  C_26
    7  A    between atoms: O_8  and  C_22
    8  A    between atoms: O_8  and  C_41
    9  A    between atoms: C_9  and  C_45
   10  A    between atoms: C_15  and  C_18
   11  A    between atoms: C_15  and  C_47
   12  A    between atoms: O_20  and  C_24
   13  A    between atoms: O_20  and  C_39
   14  A    between atoms: C_21  and  N_34
   15  A    between atoms: C_26  and  C_44
   16  A    between atoms: N_34  and  C_44
   17  A    between atoms: C_45  and  C_47
                            x       y       z     vdW  Elec       q    Type
                         _______ _______ _______ _____ _____    ______ ____

>  <TORSDO>
F 17

$$$$
=
 OpenBabel11042420483D

 48 52  0  0  1  0  0  0  0  0999 V2000
  161.8800  209.4690  150.4300 F   0  0  0  0  0  0  0  0  0  0  0  0
  157.9770  214.0620  153.9140 C   0  0  0  0  0  3  0  0  0  0  0  0
  161.2710  209.0420  151.5640 C   0  0  0  0  0  0  0  0  0  0  0  0
  161.4780  207.7340  152.0300 C   0  0  0  0  0  0  0  0  0  0  0  0
  158.0550  212.7540  154.3940 C   0  0  0  0  0  0  0  0  0  0  0  0
  160.0150  208.1730  153.9110 C   0  0  0  0  0  3  0  0  0  0  0  0
  160.4470  209.9170  152.2810 C   0  0  2  0  0  3  0  0  0  0  0  0
  160.2690  211.2230  151.8280 O   0  0  0  0  0  0  0  0  0  0  0  0
  158.6480  214.4290  152.7500 C   0  0  0  0  0  3  0  0  0  0  0  0
  159.8170  209.4820  153.4590 C   0  0  0  0  0  0  0  0  0  0  0  0
  159.5110  212.1720  152.5220 C   0  0  0  0  0  0  0  0  0  0  0  0
  159.4220  213.5020  152.0470 C   0  0  0  0  0  0  0  0  0  0  0  0
  160.8440  207.3010  153.2000 C   0  0  0  0  0  3  0  0  0  0  0  0
  158.8290  211.7990  153.7020 C   0  0  0  0  0  0  0  0  0  0  0  0
  158.9240  210.3930  154.2430 C   0  0  0  0  0  3  0  0  0  0  0  0
  155.2820  212.2240  156.8910 O   0  0  0  0  0  1  0  0  0  0  0  0
  155.9430  212.6100  155.7290 C   0  0  0  0  0  0  0  0  0  0  0  0
  157.3590  212.4120  155.6000 N   0  0  0  0  0  0  0  0  0  0  0  0
  155.2850  213.1420  154.7940 O   0  0  0  0  0  0  0  0  0  0  0  0
  158.1210  211.8450  156.7050 C   0  0  0  0  0  2  0  0  0  0  0  0
  159.4750  212.5420  156.8150 C   0  0  0  0  0  2  0  0  0  0  0  0
  161.2550  209.1160  157.2610 C   0  0  0  0  0  2  0  0  0  0  0  0
  160.1180  210.1050  156.9720 C   0  0  0  0  0  2  0  0  0  0  0  0
  160.6240  211.5510  156.9650 C   0  0  0  0  0  3  0  0  0  0  0  0
  162.6270  209.5920  156.7620 C   0  0  0  0  0  2  0  0  0  0  0  0
  161.7160  211.7830  155.9080 C   0  0  0  0  0  2  0  0  0  0  0  0
  162.4950  210.5110  155.5500 C   0  0  0  0  0  2  0  0  0  0  0  0
  160.0700  213.9570  150.8870 O   0  0  0  0  0  0  0  0  0  0  0  0
  160.9350  213.9660  148.6370 C   0  0  0  0  0  1  0  0  0  0  0  0
  159.8700  213.4340  149.5790 C   0  0  0  0  0  2  0  0  0  0  0  0
  162.3700  206.7940  151.2890 C   0  0  0  0  0  2  0  0  0  0  0  0
  160.9370  205.2840  152.4750 O   0  0  0  0  0  1  0  0  0  0  0  0
  162.0790  205.3440  151.6720 C   0  0  1  0  0  3  0  0  0  0  0  0
  161.2070  203.2240  150.7860 N   0  0  0  0  0  1  0  0  0  0  0  0
  161.8890  204.4600  150.4370 C   0  0  1  0  0  3  0  0  0  0  0  0
  161.1020  205.1760  149.3510 C   0  0  0  0  0  2  0  0  0  0  0  0
  162.0210  205.7520  148.2760 C   0  0  1  0  0  3  0  0  0  0  0  0
  162.4350  204.6820  147.2570 C   0  0  2  0  0  3  0  0  0  0  0  0
  163.4020  205.1590  146.3630 O   0  0  0  0  0  1  0  0  0  0  0  0
  161.2370  204.0720  146.5180 C   0  0  1  0  0  3  0  0  0  0  0  0
  161.2430  204.4190  145.0300 C   0  0  0  0  0  2  0  0  0  0  0  0
  160.5310  206.0720  144.7590 S   0  0  0  0  0  1  0  0  0  0  0  0
  161.2320  202.6830  146.6860 O   0  0  0  0  0  0  0  0  0  0  0  0
  160.5410  200.6730  145.6370 C   0  0  0  0  0  2  0  0  0  0  0  0
  159.3090  201.5040  145.9320 C   0  0  0  0  0  2  0  0  0  0  0  0
  160.6070  202.1840  145.5430 C   0  0  0  0  0  3  0  0  0  0  0  0
  162.0360  207.9590  148.0650 C   0  0  0  0  0  1  0  0  0  0  0  0
  161.3800  206.8070  147.6210 O   0  0  0  0  0  0  0  0  0  0  0  0
  1  3  1  0  0  0  0
  2  5  1  0  0  0  0
  3  4  2  0  0  0  0
  4 13  1  0  0  0  0
  5 18  1  0  0  0  0
  7  3  1  1  0  0  0
  7 10  1  0  0  0  0
  8  7  1  0  0  0  0
  8 11  1  0  0  0  0
  9  2  2  0  0  0  0
 10  6  1  0  0  0  0
 10 15  2  0  0  0  0
 11 14  1  0  0  0  0
 12 11  2  0  0  0  0
 12  9  1  0  0  0  0
 13  6  2  0  0  0  0
 14 15  1  0  0  0  0
 14  5  2  0  0  0  0
 17 16  1  0  0  0  0
 18 17  1  0  0  0  0
 18 20  1  0  0  0  0
 19 17  2  0  0  0  0
 20 21  1  0  0  0  0
 21 24  1  0  0  0  0
 23 22  1  0  0  0  0
 24 23  1  0  0  0  0
 25 22  1  0  0  0  0
 26 24  1  0  0  0  0
 27 26  1  0  0  0  0
 27 25  1  0  0  0  0
 28 12  1  0  0  0  0
 29 30  1  0  0  0  0
 30 28  1  0  0  0  0
 31 33  1  0  0  0  0
 31  4  1  0  0  0  0
 33 32  1  1  0  0  0
 35 34  1  1  0  0  0
 35 33  1  0  0  0  0
 36 35  1  0  0  0  0
 37 36  1  1  0  0  0
 38 39  1  6  0  0  0
 38 37  1  0  0  0  0
 40 41  1  6  0  0  0
 40 43  1  0  0  0  0
 40 38  1  0  0  0  0
 42 41  1  0  0  0  0
 44 45  1  0  0  0  0
 46 44  1  0  0  0  0
 46 45  1  0  0  0  0
 46 43  1  0  0  0  0
 48 47  1  0  0  0  0
 48 37  1  0  0  0  0
M  END
>  <MODEL>
5

>  <REMARK>
 VINA RESULT:      -3.6      7.083     12.639
  Name = 
  17 active torsions:
  status: ('A' for Active; 'I' for Inactive)
    1  A    between atoms: C_1  and  C_6
    2  A    between atoms: C_1  and  C_22
    3  A    between atoms: C_3  and  C_22
    4  A    between atoms: C_6  and  C_9
    5  A    between atoms: C_6  and  O_48
    6  A    between atoms: C_7  and  C_26
    7  A    between atoms: O_8  and  C_22
    8  A    between atoms: O_8  and  C_41
    9  A    between atoms: C_9  and  C_45
   10  A    between atoms: C_15  and  C_18
   11  A    between atoms: C_15  and  C_47
   12  A    between atoms: O_20  and  C_24
   13  A    between atoms: O_20  and  C_39
   14  A    between atoms: C_21  and  N_34
   15  A    between atoms: C_26  and  C_44
   16  A    between atoms: N_34  and  C_44
   17  A    between atoms: C_45  and  C_47
                            x       y       z     vdW  Elec       q    Type
                         _______ _______ _______ _____ _____    ______ ____

>  <TORSDO>
F 17

$$$$
=
 OpenBabel11042420483D

 48 52  0  0  1  0  0  0  0  0999 V2000
  161.6020  210.7630  147.6320 F   0  0  0  0  0  0  0  0  0  0  0  0
  161.2780  206.8080  153.3530 C   0  0  0  0  0  3  0  0  0  0  0  0
  161.3050  211.3780  148.8040 C   0  0  0  0  0  0  0  0  0  0  0  0
  161.0220  212.7530  148.8310 C   0  0  0  0  0  0  0  0  0  0  0  0
  161.0760  208.1830  153.4800 C   0  0  0  0  0  0  0  0  0  0  0  0
  160.6860  212.6360  151.2280 C   0  0  0  0  0  3  0  0  0  0  0  0
  161.2620  210.6330  149.9880 C   0  0  2  0  0  3  0  0  0  0  0  0
  161.5160  209.2630  149.9490 O   0  0  0  0  0  0  0  0  0  0  0  0
  161.5600  206.2480  152.1090 C   0  0  0  0  0  3  0  0  0  0  0  0
  160.9510  211.2630  151.2040 C   0  0  0  0  0  0  0  0  0  0  0  0
  161.4330  208.4420  151.0790 C   0  0  0  0  0  0  0  0  0  0  0  0
  161.6360  207.0460  150.9640 C   0  0  0  0  0  0  0  0  0  0  0  0
  160.7190  213.3790  150.0450 C   0  0  0  0  0  3  0  0  0  0  0  0
  161.1480  209.0110  152.3410 C   0  0  0  0  0  0  0  0  0  0  0  0
  160.9060  210.4930  152.4880 C   0  0  0  0  0  3  0  0  0  0  0  0
  160.2160  208.4230  157.1420 O   0  0  0  0  0  1  0  0  0  0  0  0
  160.4520  207.8770  155.8850 C   0  0  0  0  0  0  0  0  0  0  0  0
  160.7780  208.7260  154.7740 N   0  0  0  0  0  0  0  0  0  0  0  0
  160.3700  206.6280  155.7310 O   0  0  0  0  0  0  0  0  0  0  0  0
  160.8200  210.1720  154.9480 C   0  0  0  0  0  2  0  0  0  0  0  0
  159.4390  210.6890  155.3430 C   0  0  0  0  0  2  0  0  0  0  0  0
  157.4040  213.1910  153.1770 C   0  0  0  0  0  2  0  0  0  0  0  0
  157.6990  211.9300  154.0000 C   0  0  0  0  0  2  0  0  0  0  0  0
  159.0890  211.9950  154.6400 C   0  0  0  0  0  3  0  0  0  0  0  0
  158.0940  214.4530  153.7130 C   0  0  0  0  0  2  0  0  0  0  0  0
  159.2450  213.2050  155.5780 C   0  0  0  0  0  2  0  0  0  0  0  0
  158.3170  214.3720  155.2210 C   0  0  0  0  0  2  0  0  0  0  0  0
  161.9190  206.3990  149.7500 O   0  0  0  0  0  0  0  0  0  0  0  0
  161.1640  204.4010  148.6340 C   0  0  0  0  0  1  0  0  0  0  0  0
  160.9460  205.8880  148.8490 C   0  0  0  0  0  2  0  0  0  0  0  0
  161.0420  213.5600  147.5750 C   0  0  0  0  0  2  0  0  0  0  0  0
  158.8110  214.1190  146.9060 O   0  0  0  0  0  1  0  0  0  0  0  0
  159.8520  213.2140  146.6820 C   0  0  1  0  0  3  0  0  0  0  0  0
  159.7980  214.4530  144.5610 N   0  0  0  0  0  1  0  0  0  0  0  0
  160.2350  213.2220  145.2010 C   0  0  1  0  0  3  0  0  0  0  0  0
  161.7350  213.0630  145.0090 C   0  0  0  0  0  2  0  0  0  0  0  0
  162.0850  212.7310  143.5600 C   0  0  1  0  0  3  0  0  0  0  0  0
  160.8250  212.5770  142.6970 C   0  0  2  0  0  3  0  0  0  0  0  0
  160.4530  211.2350  142.5520 O   0  0  0  0  0  1  0  0  0  0  0  0
  160.9490  213.2770  141.3380 C   0  0  1  0  0  3  0  0  0  0  0  0
  161.3980  212.3180  140.2370 C   0  0  0  0  0  2  0  0  0  0  0  0
  162.3300  213.2120  138.9540 S   0  0  0  0  0  1  0  0  0  0  0  0
  159.7260  213.8630  140.9930 O   0  0  0  0  0  0  0  0  0  0  0  0
  157.6300  213.0620  140.2280 C   0  0  0  0  0  2  0  0  0  0  0  0
  158.3340  213.7350  139.0670 C   0  0  0  0  0  2  0  0  0  0  0  0
  159.1370  212.9670  140.1000 C   0  0  0  0  0  3  0  0  0  0  0  0
  163.4850  214.3490  144.1410 C   0  0  0  0  0  1  0  0  0  0  0  0
  162.9030  213.7310  143.0300 O   0  0  0  0  0  0  0  0  0  0  0  0
  1  3  1  0  0  0  0
  2  5  1  0  0  0  0
  3  4  2  0  0  0  0
  4 13  1  0  0  0  0
  5 18  1  0  0  0  0
  7  3  1  6  0  0  0
  7 10  1  0  0  0  0
  8  7  1  0  0  0  0
  8 11  1  0  0  0  0
  9  2  2  0  0  0  0
 10  6  1  0  0  0  0
 10 15  2  0  0  0  0
 11 14  1  0  0  0  0
 12 11  2  0  0  0  0
 12  9  1  0  0  0  0
 13  6  2  0  0  0  0
 14 15  1  0  0  0  0
 14  5  2  0  0  0  0
 17 16  1  0  0  0  0
 18 20  1  0  0  0  0
 18 17  1  0  0  0  0
 19 17  2  0  0  0  0
 20 21  1  0  0  0  0
 22 25  1  0  0  0  0
 22 23  1  0  0  0  0
 23 24  1  0  0  0  0
 24 21  1  0  0  0  0
 24 26  1  0  0  0  0
 25 27  1  0  0  0  0
 27 26  1  0  0  0  0
 28 12  1  0  0  0  0
 29 30  1  0  0  0  0
 30 28  1  0  0  0  0
 31  4  1  0  0  0  0
 33 32  1  6  0  0  0
 33 31  1  0  0  0  0
 35 34  1  1  0  0  0
 35 33  1  0  0  0  0
 36 35  1  0  0  0  0
 37 36  1  1  0  0  0
 38 39  1  6  0  0  0
 38 37  1  0  0  0  0
 40 41  1  6  0  0  0
 40 38  1  0  0  0  0
 42 41  1  0  0  0  0
 43 40  1  0  0  0  0
 45 46  1  0  0  0  0
 45 44  1  0  0  0  0
 46 44  1  0  0  0  0
 46 43  1  0  0  0  0
 48 37  1  0  0  0  0
 48 47  1  0  0  0  0
M  END
>  <MODEL>
6

>  <REMARK>
 VINA RESULT:      -3.5      3.859     12.544
  Name = 
  17 active torsions:
  status: ('A' for Active; 'I' for Inactive)
    1  A    between atoms: C_1  and  C_6
    2  A    between atoms: C_1  and  C_22
    3  A    between atoms: C_3  and  C_22
    4  A    between atoms: C_6  and  C_9
    5  A    between atoms: C_6  and  O_48
    6  A    between atoms: C_7  and  C_26
    7  A    between atoms: O_8  and  C_22
    8  A    between atoms: O_8  and  C_41
    9  A    between atoms: C_9  and  C_45
   10  A    between atoms: C_15  and  C_18
   11  A    between atoms: C_15  and  C_47
   12  A    between atoms: O_20  and  C_24
   13  A    between atoms: O_20  and  C_39
   14  A    between atoms: C_21  and  N_34
   15  A    between atoms: C_26  and  C_44
   16  A    between atoms: N_34  and  C_44
   17  A    between atoms: C_45  and  C_47
                            x       y       z     vdW  Elec       q    Type
                         _______ _______ _______ _____ _____    ______ ____

>  <TORSDO>
F 17

$$$$
=
 OpenBabel11042420483D

 48 52  0  0  1  0  0  0  0  0999 V2000
  162.3270  208.4150  150.5770 F   0  0  0  0  0  0  0  0  0  0  0  0
  158.7840  214.0830  152.5250 C   0  0  0  0  0  3  0  0  0  0  0  0
  161.5810  208.3300  151.7060 C   0  0  0  0  0  0  0  0  0  0  0  0
  161.5800  207.1520  152.4690 C   0  0  0  0  0  0  0  0  0  0  0  0
  158.6550  212.9210  153.2870 C   0  0  0  0  0  0  0  0  0  0  0  0
  160.0400  208.1700  154.0380 C   0  0  0  0  0  3  0  0  0  0  0  0
  160.8220  209.4320  152.1200 C   0  0  2  0  0  3  0  0  0  0  0  0
  160.8500  210.6080  151.3730 O   0  0  0  0  0  0  0  0  0  0  0  0
  159.5870  214.0950  151.3870 C   0  0  0  0  0  3  0  0  0  0  0  0
  160.0490  209.3520  153.2910 C   0  0  0  0  0  0  0  0  0  0  0  0
  160.1680  211.7680  151.7560 C   0  0  0  0  0  0  0  0  0  0  0  0
  160.2890  212.9530  150.9920 C   0  0  0  0  0  0  0  0  0  0  0  0
  160.8040  207.0730  153.6300 C   0  0  0  0  0  3  0  0  0  0  0  0
  159.3510  211.7540  152.9100 C   0  0  0  0  0  0  0  0  0  0  0  0
  159.2220  210.5100  153.7550 C   0  0  0  0  0  3  0  0  0  0  0  0
  155.6300  213.1920  155.5190 O   0  0  0  0  0  1  0  0  0  0  0  0
  156.4210  213.2240  154.3750 C   0  0  0  0  0  0  0  0  0  0  0  0
  157.8270  212.9450  154.4580 N   0  0  0  0  0  0  0  0  0  0  0  0
  155.8920  213.5090  153.2670 O   0  0  0  0  0  0  0  0  0  0  0  0
  158.4420  212.6680  155.7500 C   0  0  0  0  0  2  0  0  0  0  0  0
  159.9410  212.9470  155.6820 C   0  0  0  0  0  2  0  0  0  0  0  0
  160.7290  209.4840  157.2590 C   0  0  0  0  0  2  0  0  0  0  0  0
  159.9480  210.5520  156.4840 C   0  0  0  0  0  2  0  0  0  0  0  0
  160.7640  211.8390  156.3310 C   0  0  0  0  0  3  0  0  0  0  0  0
  162.2500  209.5720  157.0690 C   0  0  0  0  0  2  0  0  0  0  0  0
  162.0900  211.6060  155.5860 C   0  0  0  0  0  2  0  0  0  0  0  0
  162.6110  210.1680  155.7110 C   0  0  0  0  0  2  0  0  0  0  0  0
  161.0800  213.0550  149.8360 O   0  0  0  0  0  0  0  0  0  0  0  0
  160.4140  213.9510  147.7000 C   0  0  0  0  0  1  0  0  0  0  0  0
  161.1600  214.2010  148.9980 C   0  0  0  0  0  2  0  0  0  0  0  0
  162.3990  205.9750  152.0530 C   0  0  0  0  0  2  0  0  0  0  0  0
  160.2640  204.9440  152.3940 O   0  0  0  0  0  1  0  0  0  0  0  0
  161.6260  204.6720  152.2470 C   0  0  1  0  0  3  0  0  0  0  0  0
  162.3120  202.4180  151.5490 N   0  0  0  0  0  1  0  0  0  0  0  0
  161.8380  203.7090  151.0760 C   0  0  1  0  0  3  0  0  0  0  0  0
  160.5610  203.5110  150.2750 C   0  0  0  0  0  2  0  0  0  0  0  0
  160.7580  203.8700  148.8040 C   0  0  1  0  0  3  0  0  0  0  0  0
  161.1840  205.3340  148.6330 C   0  0  2  0  0  3  0  0  0  0  0  0
  160.3360  206.2080  149.3250 O   0  0  0  0  0  1  0  0  0  0  0  0
  161.3320  205.7410  147.1610 C   0  0  1  0  0  3  0  0  0  0  0  0
  162.7730  206.1080  146.8110 C   0  0  0  0  0  2  0  0  0  0  0  0
  163.6500  204.6650  146.1300 S   0  0  0  0  0  1  0  0  0  0  0  0
  160.8870  204.7050  146.3350 O   0  0  0  0  0  0  0  0  0  0  0  0
  161.2530  205.2680  144.0620 C   0  0  0  0  0  2  0  0  0  0  0  0
  160.0630  204.3320  144.1340 C   0  0  0  0  0  2  0  0  0  0  0  0
  160.3030  205.3420  145.2400 C   0  0  0  0  0  3  0  0  0  0  0  0
  161.1460  201.7530  148.2690 C   0  0  0  0  0  1  0  0  0  0  0  0
  161.7180  203.0280  148.2360 O   0  0  0  0  0  0  0  0  0  0  0  0
  1  3  1  0  0  0  0
  2  5  1  0  0  0  0
  3  7  1  0  0  0  0
  3  4  2  0  0  0  0
  4 13  1  0  0  0  0
  5 18  1  0  0  0  0
  7  8  1  1  0  0  0
  7 10  1  0  0  0  0
  8 11  1  0  0  0  0
  9  2  2  0  0  0  0
 10 15  2  0  0  0  0
 10  6  1  0  0  0  0
 11 14  1  0  0  0  0
 12  9  1  0  0  0  0
 12 11  2  0  0  0  0
 13  6  2  0  0  0  0
 14  5  2  0  0  0  0
 14 15  1  0  0  0  0
 17 18  1  0  0  0  0
 17 16  1  0  0  0  0
 18 20  1  0  0  0  0
 19 17  2  0  0  0  0
 21 20  1  0  0  0  0
 21 24  1  0  0  0  0
 23 22  1  0  0  0  0
 24 23  1  0  0  0  0
 25 22  1  0  0  0  0
 26 27  1  0  0  0  0
 26 24  1  0  0  0  0
 27 25  1  0  0  0  0
 28 12  1  0  0  0  0
 29 30  1  0  0  0  0
 30 28  1  0  0  0  0
 31 33  1  0  0  0  0
 31  4  1  0  0  0  0
 33 32  1  6  0  0  0
 35 34  1  1  0  0  0
 35 33  1  0  0  0  0
 36 35  1  0  0  0  0
 37 36  1  1  0  0  0
 38 37  1  0  0  0  0
 38 39  1  6  0  0  0
 40 41  1  6  0  0  0
 40 38  1  0  0  0  0
 42 41  1  0  0  0  0
 43 40  1  0  0  0  0
 44 45  1  0  0  0  0
 44 46  1  0  0  0  0
 45 46  1  0  0  0  0
 46 43  1  0  0  0  0
 48 47  1  0  0  0  0
 48 37  1  0  0  0  0
M  END
>  <MODEL>
7

>  <REMARK>
 VINA RESULT:      -3.4      6.552     12.245
  Name = 
  17 active torsions:
  status: ('A' for Active; 'I' for Inactive)
    1  A    between atoms: C_1  and  C_6
    2  A    between atoms: C_1  and  C_22
    3  A    between atoms: C_3  and  C_22
    4  A    between atoms: C_6  and  C_9
    5  A    between atoms: C_6  and  O_48
    6  A    between atoms: C_7  and  C_26
    7  A    between atoms: O_8  and  C_22
    8  A    between atoms: O_8  and  C_41
    9  A    between atoms: C_9  and  C_45
   10  A    between atoms: C_15  and  C_18
   11  A    between atoms: C_15  and  C_47
   12  A    between atoms: O_20  and  C_24
   13  A    between atoms: O_20  and  C_39
   14  A    between atoms: C_21  and  N_34
   15  A    between atoms: C_26  and  C_44
   16  A    between atoms: N_34  and  C_44
   17  A    between atoms: C_45  and  C_47
                            x       y       z     vdW  Elec       q    Type
                         _______ _______ _______ _____ _____    ______ ____

>  <TORSDO>
F 17

$$$$
=
 OpenBabel11042420483D

 48 52  0  0  1  0  0  0  0  0999 V2000
  162.2020  210.1070  150.0800 F   0  0  0  0  0  0  0  0  0  0  0  0
  157.9380  213.8890  154.0780 C   0  0  0  0  0  3  0  0  0  0  0  0
  161.6330  209.4920  151.1470 C   0  0  0  0  0  0  0  0  0  0  0  0
  161.9490  208.1580  151.4470 C   0  0  0  0  0  0  0  0  0  0  0  0
  158.1260  212.5420  154.3910 C   0  0  0  0  0  0  0  0  0  0  0  0
  160.4580  208.2360  153.3560 C   0  0  0  0  0  3  0  0  0  0  0  0
  160.7410  210.2000  151.9610 C   0  0  2  0  0  3  0  0  0  0  0  0
  160.4540  211.5330  151.6730 O   0  0  0  0  0  0  0  0  0  0  0  0
  158.5740  214.4530  152.9750 C   0  0  0  0  0  3  0  0  0  0  0  0
  160.1510  209.5700  153.0690 C   0  0  0  0  0  0  0  0  0  0  0  0
  159.6210  212.3210  152.4740 C   0  0  0  0  0  0  0  0  0  0  0  0
  159.4210  213.6890  152.1680 C   0  0  0  0  0  0  0  0  0  0  0  0
  161.3560  207.5310  152.5480 C   0  0  0  0  0  3  0  0  0  0  0  0
  158.9740  211.7480  153.5920 C   0  0  0  0  0  0  0  0  0  0  0  0
  159.1880  210.2990  153.9540 C   0  0  0  0  0  3  0  0  0  0  0  0
  155.4490  211.7000  156.9070 O   0  0  0  0  0  1  0  0  0  0  0  0
  156.0830  212.2820  155.8150 C   0  0  0  0  0  0  0  0  0  0  0  0
  157.4630  211.9950  155.5400 N   0  0  0  0  0  0  0  0  0  0  0  0
  155.4350  213.0710  155.0740 O   0  0  0  0  0  0  0  0  0  0  0  0
  158.2200  211.1250  156.4300 C   0  0  0  0  0  2  0  0  0  0  0  0
  159.3290  211.9190  157.1150 C   0  0  0  0  0  2  0  0  0  0  0  0
  161.6450  208.8000  157.2250 C   0  0  0  0  0  2  0  0  0  0  0  0
  160.3810  209.6290  156.9570 C   0  0  0  0  0  2  0  0  0  0  0  0
  160.6170  211.1140  157.2490 C   0  0  0  0  0  3  0  0  0  0  0  0
  162.9500  209.5720  156.9890 C   0  0  0  0  0  2  0  0  0  0  0  0
  161.7480  211.7060  156.3900 C   0  0  0  0  0  2  0  0  0  0  0  0
  162.7740  210.6610  155.9340 C   0  0  0  0  0  2  0  0  0  0  0  0
  160.0260  214.3380  151.0790 O   0  0  0  0  0  0  0  0  0  0  0  0
  161.1880  214.0500  148.9870 C   0  0  0  0  0  1  0  0  0  0  0  0
  159.8580  213.9760  149.7140 C   0  0  0  0  0  2  0  0  0  0  0  0
  162.9150  207.3950  150.6020 C   0  0  0  0  0  2  0  0  0  0  0  0
  163.1450  206.4600  148.4080 O   0  0  0  0  0  1  0  0  0  0  0  0
  162.2120  206.7600  149.4040 C   0  0  1  0  0  3  0  0  0  0  0  0
  160.0190  205.6800  149.6590 N   0  0  0  0  0  1  0  0  0  0  0  0
  161.4540  205.4910  149.8010 C   0  0  1  0  0  3  0  0  0  0  0  0
  161.8860  204.2950  148.9670 C   0  0  0  0  0  2  0  0  0  0  0  0
  160.7530  203.2850  148.8010 C   0  0  1  0  0  3  0  0  0  0  0  0
  161.0580  202.2760  147.6850 C   0  0  2  0  0  3  0  0  0  0  0  0
  162.1780  201.4900  147.9840 O   0  0  0  0  0  1  0  0  0  0  0  0
  161.1850  202.9370  146.3060 C   0  0  1  0  0  3  0  0  0  0  0  0
  160.6100  202.0610  145.1950 C   0  0  0  0  0  2  0  0  0  0  0  0
  160.4690  200.3340  145.7540 S   0  0  0  0  0  1  0  0  0  0  0  0
  160.5450  204.1810  146.3160 O   0  0  0  0  0  0  0  0  0  0  0  0
  161.2550  206.2950  145.5130 C   0  0  0  0  0  2  0  0  0  0  0  0
  162.4260  205.3370  145.4300 C   0  0  0  0  0  2  0  0  0  0  0  0
  161.0170  204.8370  145.1780 C   0  0  0  0  0  3  0  0  0  0  0  0
  160.0280  201.3630  149.6340 C   0  0  0  0  0  1  0  0  0  0  0  0
  160.5420  202.6090  150.0050 O   0  0  0  0  0  0  0  0  0  0  0  0
  1  3  1  0  0  0  0
  2  5  1  0  0  0  0
  3  4  2  0  0  0  0
  4 13  1  0  0  0  0
  5 18  1  0  0  0  0
  7  3  1  1  0  0  0
  7 10  1  0  0  0  0
  8  7  1  0  0  0  0
  8 11  1  0  0  0  0
  9  2  2  0  0  0  0
 10  6  1  0  0  0  0
 10 15  2  0  0  0  0
 11 14  1  0  0  0  0
 12 11  2  0  0  0  0
 12  9  1  0  0  0  0
 13  6  2  0  0  0  0
 14 15  1  0  0  0  0
 14  5  2  0  0  0  0
 17 16  1  0  0  0  0
 18 17  1  0  0  0  0
 18 20  1  0  0  0  0
 19 17  2  0  0  0  0
 20 21  1  0  0  0  0
 21 24  1  0  0  0  0
 23 22  1  0  0  0  0
 23 24  1  0  0  0  0
 25 22  1  0  0  0  0
 26 24  1  0  0  0  0
 27 26  1  0  0  0  0
 27 25  1  0  0  0  0
 28 12  1  0  0  0  0
 29 30  1  0  0  0  0
 30 28  1  0  0  0  0
 31  4  1  0  0  0  0
 33 32  1  6  0  0  0
 33 35  1  0  0  0  0
 33 31  1  0  0  0  0
 35 34  1  6  0  0  0
 36 35  1  0  0  0  0
 37 36  1  1  0  0  0
 37 48  1  0  0  0  0
 38 39  1  1  0  0  0
 38 37  1  0  0  0  0
 40 41  1  6  0  0  0
 40 43  1  0  0  0  0
 40 38  1  0  0  0  0
 41 42  1  0  0  0  0
 45 44  1  0  0  0  0
 46 45  1  0  0  0  0
 46 44  1  0  0  0  0
 46 43  1  0  0  0  0
 47 48  1  0  0  0  0
M  END
>  <MODEL>
8

>  <REMARK>
 VINA RESULT:      -3.3      7.029     12.724
  Name = 
  17 active torsions:
  status: ('A' for Active; 'I' for Inactive)
    1  A    between atoms: C_1  and  C_6
    2  A    between atoms: C_1  and  C_22
    3  A    between atoms: C_3  and  C_22
    4  A    between atoms: C_6  and  C_9
    5  A    between atoms: C_6  and  O_48
    6  A    between atoms: C_7  and  C_26
    7  A    between atoms: O_8  and  C_22
    8  A    between atoms: O_8  and  C_41
    9  A    between atoms: C_9  and  C_45
   10  A    between atoms: C_15  and  C_18
   11  A    between atoms: C_15  and  C_47
   12  A    between atoms: O_20  and  C_24
   13  A    between atoms: O_20  and  C_39
   14  A    between atoms: C_21  and  N_34
   15  A    between atoms: C_26  and  C_44
   16  A    between atoms: N_34  and  C_44
   17  A    between atoms: C_45  and  C_47
                            x       y       z     vdW  Elec       q    Type
                         _______ _______ _______ _____ _____    ______ ____

>  <TORSDO>
F 17

$$$$
=
 OpenBabel11042420483D

 48 52  0  0  1  0  0  0  0  0999 V2000
  161.9660  211.1040  151.6080 F   0  0  0  0  0  0  0  0  0  0  0  0
  161.0770  204.3260  152.9280 C   0  0  0  0  0  3  0  0  0  0  0  0
  161.8830  210.2640  150.5460 C   0  0  0  0  0  0  0  0  0  0  0  0
  162.0290  210.7560  149.2390 C   0  0  0  0  0  0  0  0  0  0  0  0
  161.1180  204.7470  151.5980 C   0  0  0  0  0  0  0  0  0  0  0  0
  161.7160  208.5190  148.3630 C   0  0  0  0  0  2  0  0  0  0  0  0
  161.6690  208.8970  150.7580 C   0  0  0  0  0  0  0  0  0  0  0  0
  161.5540  208.4110  152.0590 O   0  0  0  0  0  0  0  0  0  0  0  0
  161.1890  205.2500  153.9640 C   0  0  0  0  0  3  0  0  0  0  0  0
  161.5860  208.0210  149.6630 C   0  0  0  0  0  0  0  0  0  0  0  0
  161.4000  207.0520  152.3520 C   0  0  0  0  0  0  0  0  0  0  0  0
  161.3560  206.6110  153.6960 C   0  0  0  0  0  0  0  0  0  0  0  0
  161.9390  209.8820  148.1500 C   0  0  0  0  0  3  0  0  0  0  0  0
  161.2850  206.1150  151.3000 C   0  0  0  0  0  0  0  0  0  0  0  0
  161.3500  206.5550  149.8580 C   0  0  0  0  0  3  0  0  0  0  0  0
  161.0990  201.4410  149.7880 O   0  0  0  0  0  0  0  0  0  0  0  0
  161.2600  202.3770  150.8040 C   0  0  0  0  0  0  0  0  0  0  0  0
  161.0090  203.7690  150.5550 N   0  0  0  0  0  0  0  0  0  0  0  0
  161.6370  201.9910  151.9440 O   0  0  0  0  0  1  0  0  0  0  0  0
  160.6240  204.2140  149.2220 C   0  0  0  0  0  2  0  0  0  0  0  0
  161.7810  204.0020  148.2490 C   0  0  0  0  0  2  0  0  0  0  0  0
  162.6020  205.7770  144.8910 C   0  0  0  0  0  2  0  0  0  0  0  0
  162.8470  204.9820  146.1800 C   0  0  0  0  0  2  0  0  0  0  0  0
  161.5320  204.6710  146.9020 C   0  0  0  0  0  3  0  0  0  0  0  0
  161.2550  205.4690  144.2220 C   0  0  0  0  0  2  0  0  0  0  0  0
  160.5660  203.8500  146.0300 C   0  0  0  0  0  2  0  0  0  0  0  0
  160.7920  204.0460  144.5250 C   0  0  0  0  0  2  0  0  0  0  0  0
  161.4670  207.4720  154.8000 O   0  0  0  0  0  0  0  0  0  0  0  0
  159.5590  207.9880  156.1800 C   0  0  0  0  0  1  0  0  0  0  0  0
  160.5370  208.4950  155.1360 C   0  0  0  0  0  2  0  0  0  0  0  0
  162.2790  212.2080  148.9960 C   0  0  0  0  0  2  0  0  0  0  0  0
  160.2040  212.2270  147.7970 O   0  0  0  0  0  1  0  0  0  0  0  0
  160.9730  212.9490  148.7130 C   0  0  1  0  0  3  0  0  0  0  0  0
  160.9530  213.9250  150.9690 N   0  0  0  0  0  1  0  0  0  0  0  0
  160.1680  213.1840  149.9930 C   0  0  1  0  0  3  0  0  0  0  0  0
  158.8770  213.9360  149.7140 C   0  0  0  0  0  2  0  0  0  0  0  0
  157.7250  213.4170  150.5710 C   0  0  1  0  0  3  0  0  0  0  0  0
  157.6010  214.2040  151.8830 C   0  0  2  0  0  3  0  0  0  0  0  0
  158.8510  214.4530  152.4630 O   0  0  0  0  0  1  0  0  0  0  0  0
  156.6380  213.5470  152.8800 C   0  0  1  0  0  3  0  0  0  0  0  0
  157.2210  212.2710  153.4840 C   0  0  0  0  0  2  0  0  0  0  0  0
  159.0050  212.1610  153.1400 S   0  0  0  0  0  1  0  0  0  0  0  0
  156.3140  214.4530  153.8950 O   0  0  0  0  0  0  0  0  0  0  0  0
  156.6630  214.3360  156.2370 C   0  0  0  0  0  2  0  0  0  0  0  0
  155.1720  214.4190  155.9820 C   0  0  0  0  0  2  0  0  0  0  0  0
  156.0660  213.6630  155.0180 C   0  0  0  0  0  3  0  0  0  0  0  0
  156.8220  212.9580  148.6000 C   0  0  0  0  0  1  0  0  0  0  0  0
  156.5280  213.4980  149.8550 O   0  0  0  0  0  0  0  0  0  0  0  0
  2  9  1  0  0  0  0
  3  7  2  0  0  0  0
  3  1  1  0  0  0  0
  4  3  1  0  0  0  0
  5  2  2  0  0  0  0
  6 10  1  0  0  0  0
  7  8  1  0  0  0  0
  8 11  1  0  0  0  0
 10 15  2  0  0  0  0
 10  7  1  0  0  0  0
 11 12  1  0  0  0  0
 12  9  2  0  0  0  0
 12 28  1  0  0  0  0
 13  6  1  0  0  0  0
 13  4  2  0  0  0  0
 14  5  1  0  0  0  0
 14 11  2  0  0  0  0
 15 14  1  0  0  0  0
 16 17  2  0  0  0  0
 17 19  1  0  0  0  0
 18 17  1  0  0  0  0
 18  5  1  0  0  0  0
 20 18  1  0  0  0  0
 21 20  1  0  0  0  0
 22 23  1  0  0  0  0
 23 24  1  0  0  0  0
 24 21  1  0  0  0  0
 25 27  1  0  0  0  0
 25 22  1  0  0  0  0
 26 24  1  0  0  0  0
 27 26  1  0  0  0  0
 28 30  1  0  0  0  0
 30 29  1  0  0  0  0
 31  4  1  0  0  0  0
 33 32  1  6  0  0  0
 33 31  1  0  0  0  0
 33 35  1  0  0  0  0
 35 34  1  1  0  0  0
 36 35  1  0  0  0  0
 37 36  1  6  0  0  0
 37 38  1  0  0  0  0
 38 39  1  1  0  0  0
 38 40  1  0  0  0  0
 40 41  1  1  0  0  0
 40 43  1  0  0  0  0
 42 41  1  0  0  0  0
 43 46  1  0  0  0  0
 45 44  1  0  0  0  0
 46 45  1  0  0  0  0
 46 44  1  0  0  0  0
 47 48  1  0  0  0  0
 48 37  1  0  0  0  0
M  END
>  <MODEL>
9

>  <REMARK>
 VINA RESULT:      -3.0      6.192     10.158
  Name = 
  17 active torsions:
  status: ('A' for Active; 'I' for Inactive)
    1  A    between atoms: C_1  and  C_6
    2  A    between atoms: C_1  and  C_22
    3  A    between atoms: C_3  and  C_22
    4  A    between atoms: C_6  and  C_9
    5  A    between atoms: C_6  and  O_48
    6  A    between atoms: C_7  and  C_26
    7  A    between atoms: O_8  and  C_22
    8  A    between atoms: O_8  and  C_41
    9  A    between atoms: C_9  and  C_45
   10  A    between atoms: C_15  and  C_18
   11  A    between atoms: C_15  and  C_47
   12  A    between atoms: O_20  and  C_24
   13  A    between atoms: O_20  and  C_39
   14  A    between atoms: C_21  and  N_34
   15  A    between atoms: C_26  and  C_44
   16  A    between atoms: N_34  and  C_44
   17  A    between atoms: C_45  and  C_47
                            x       y       z     vdW  Elec       q    Type
                         _______ _______ _______ _____ _____    ______ ____

>  <TORSDO>
F 17

$$$$
