=
 OpenBabel11052412103D

 56 67  0  0  1  0  0  0  0  0999 V2000
  161.5770  212.3350  148.3080 C   0  0  0  0  0  0  0  0  0  0  0  0
  161.7990  211.0590  147.8380 C   0  0  0  0  0  3  0  0  0  0  0  0
  161.9540  210.2170  148.8850 N   0  0  0  0  0  0  0  0  0  0  0  0
  161.5610  212.2990  149.6910 C   0  0  0  0  0  3  0  0  0  0  0  0
  161.8290  210.9730  150.0100 C   0  0  0  0  0  0  0  0  0  0  0  0
  159.6510  211.9050  151.6390 C   0  0  0  0  0  3  0  0  0  0  0  0
  155.5830  212.4270  152.8750 O   0  0  0  0  0  0  0  0  0  0  0  0
  158.1530  212.3240  153.5850 N   0  0  0  0  0  0  0  0  0  0  0  0
  158.7900  211.6830  154.7500 C   0  0  1  0  0  3  0  0  0  0  0  0
  160.2760  211.4370  154.6810 C   0  0  0  0  0  3  0  0  0  0  0  0
  156.0720  212.4370  155.5340 C   0  0  2  0  0  3  0  0  0  0  0  0
  155.8220  210.4720  156.8590 N   0  0  0  0  0  2  0  0  0  0  0  0
  157.2360  212.3890  156.5250 C   0  0  2  0  0  3  0  0  0  0  0  0
  160.5440  209.4930  151.6310 C   0  0  0  0  0  2  0  0  0  0  0  0
  155.5220  211.0250  155.5390 C   0  0  0  0  0  2  0  0  0  0  0  0
  158.5750  212.5360  155.9260 N   0  0  0  0  0  2  0  0  0  0  0  0
  157.1010  211.0560  157.2520 C   0  0  0  0  0  2  0  0  0  0  0  0
  156.5670  212.9500  153.8900 S   0  0  0  0  0  0  0  0  0  0  0  0
  156.6020  214.4530  153.8310 O   0  0  0  0  0  0  0  0  0  0  0  0
  161.0140  211.0500  153.6460 C   0  0  0  0  0  3  0  0  0  0  0  0
  160.5390  210.8690  152.2510 C   0  0  2  0  0  0  0  0  0  0  0  0
  161.7430  210.4200  151.4170 C   0  0  2  0  0  3  0  0  0  0  0  0
  158.6240  212.5050  152.2360 C   0  0  0  0  0  3  0  0  0  0  0  0
  162.6800  213.1340  143.0590 C   0  0  0  0  0  3  0  0  0  0  0  0
  161.6130  213.2620  145.9780 C   0  0  0  0  0  0  0  0  0  0  0  0
  160.7380  212.6310  141.7150 N   0  0  0  0  0  0  0  0  0  0  0  0
  159.4000  214.0670  146.0060 N   0  0  0  0  0  0  0  0  0  0  0  0
  161.2530  213.4850  147.4080 C   0  0  1  0  0  3  0  0  0  0  0  0
  158.9870  213.2800  140.1890 C   0  0  0  0  0  1  0  0  0  0  0  0
  158.8710  214.0180  142.9530 S   0  0  0  0  0  0  0  0  0  0  0  0
  161.2640  212.6530  143.0540 C   0  0  2  0  0  3  0  0  0  0  0  0
  159.7690  213.8660  147.4030 C   0  0  0  0  0  2  0  0  0  0  0  0
  162.8880  213.1720  145.5760 C   0  0  0  0  0  3  0  0  0  0  0  0
  159.5800  213.1720  141.5510 C   0  0  0  0  0  0  0  0  0  0  0  0
  160.3500  213.5250  143.8410 C   0  0  2  0  0  3  0  0  0  0  0  0
  163.3930  213.2980  144.1820 C   0  0  0  0  0  3  0  0  0  0  0  0
  160.4540  213.6240  145.1740 C   0  0  0  0  0  0  0  0  0  0  0  0
  160.0290  207.4000  148.4620 N   0  0  0  0  0  2  0  0  0  0  0  0
  163.0870  208.1060  148.2990 C   0  0  0  0  0  0  0  0  0  0  0  0
  160.9540  207.9940  149.3270 N   0  0  0  0  0  2  0  0  0  0  0  0
  162.2740  204.3260  147.8580 N   0  0  2  0  0  0  0  0  0  0  0  0
  160.2240  205.8400  146.5110 C   0  0  0  0  0  2  0  0  0  0  0  0
  162.0190  208.7660  148.7970 C   0  0  0  0  0  0  0  0  0  0  0  0
  161.9790  205.6570  148.4480 C   0  0  1  0  0  3  0  0  0  0  0  0
  163.1760  206.6000  148.1670 C   0  0  0  0  0  2  0  0  0  0  0  0
  161.5040  205.5440  145.7360 C   0  0  0  0  0  2  0  0  0  0  0  0
  162.2730  204.3670  146.3650 C   0  0  0  0  0  2  0  0  0  0  0  0
  160.5800  206.1380  147.9620 C   0  0  1  0  0  3  0  0  0  0  0  0
  164.2090  208.8070  147.8660 O   0  0  0  0  0  1  0  0  0  0  0  0
  161.6210  202.9820  149.8460 C   0  0  2  0  0  3  0  0  0  0  0  0
  160.4760  203.4210  150.7450 C   0  0  0  0  0  2  0  0  0  0  0  0
  159.5870  201.4910  149.4310 C   0  0  0  0  0  2  0  0  0  0  0  0
  161.3090  203.3310  148.3790 C   0  0  2  0  0  3  0  0  0  0  0  0
  161.2540  202.0190  147.5610 C   0  0  0  0  0  2  0  0  0  0  0  0
  160.6510  201.9460  150.4360 C   0  0  1  0  0  3  0  0  0  0  0  0
  160.2250  201.0190  148.1240 C   0  0  0  0  0  2  0  0  0  0  0  0
  1  4  1  0  0  0  0
  2  1  2  0  0  0  0
  2  3  1  0  0  0  0
  3  5  1  0  0  0  0
  4  5  2  0  0  0  0
  6 23  2  0  0  0  0
  6 21  1  0  0  0  0
  7 18  2  0  0  0  0
  8 18  1  0  0  0  0
  8  9  1  0  0  0  0
  9 10  1  6  0  0  0
  9 16  1  0  0  0  0
 11 15  1  6  0  0  0
 11 13  1  0  0  0  0
 12 17  1  0  0  0  0
 13 17  1  6  0  0  0
 15 12  1  0  0  0  0
 16 13  1  0  0  0  0
 18 11  1  0  0  0  0
 19 18  2  0  0  0  0
 20 10  2  0  0  0  0
 21 14  1  1  0  0  0
 21 20  1  0  0  0  0
 22  5  1  6  0  0  0
 22 14  1  0  0  0  0
 22 21  1  0  0  0  0
 23  8  1  0  0  0  0
 24 36  2  0  0  0  0
 25 28  1  0  0  0  0
 26 31  1  0  0  0  0
 27 32  1  0  0  0  0
 28  1  1  1  0  0  0
 29 34  1  0  0  0  0
 31 24  1  6  0  0  0
 31 35  1  0  0  0  0
 32 28  1  0  0  0  0
 33 25  2  0  0  0  0
 34 26  2  0  0  0  0
 34 30  1  0  0  0  0
 35 30  1  1  0  0  0
 35 37  1  0  0  0  0
 36 33  1  0  0  0  0
 37 25  1  0  0  0  0
 37 27  2  0  0  0  0
 38 40  1  0  0  0  0
 39 43  2  0  0  0  0
 41 47  1  6  0  0  0
 41 53  1  0  0  0  0
 41 44  1  0  0  0  0
 43  3  1  0  0  0  0
 43 40  1  0  0  0  0
 44 45  1  6  0  0  0
 45 39  1  0  0  0  0
 46 47  1  0  0  0  0
 46 42  1  0  0  0  0
 48 42  1  6  0  0  0
 48 44  1  0  0  0  0
 48 38  1  0  0  0  0
 49 39  1  0  0  0  0
 50 55  1  0  0  0  0
 50 51  1  1  0  0  0
 53 54  1  6  0  0  0
 53 50  1  0  0  0  0
 54 56  1  0  0  0  0
 55 52  1  6  0  0  0
 55 51  1  0  0  0  0
 56 52  1  0  0  0  0
M  END
>  <MODEL>
1

>  <REMARK>
 VINA RESULT:      -1.8      0.000      0.000
  Name = 
  4 active torsions:
  status: ('A' for Active; 'I' for Inactive)
    1  A    between atoms: C_9  and  C_17
    2  A    between atoms: N_23  and  C_36
    3  A    between atoms: N_27  and  C_34
    4  A    between atoms: C_33  and  C_54
                            x       y       z     vdW  Elec       q    Type
                         _______ _______ _______ _____ _____    ______ ____

>  <TORSDO>
F 4

$$$$
