=
 OpenBabel11042423093D

 29 31  0  0  1  0  0  0  0  0999 V2000
  161.1900  206.8170  153.9080 C   0  0  0  0  0  0  0  0  0  0  0  0
  161.0450  207.8190  152.8740 C   0  0  0  0  0  0  0  0  0  0  0  0
  161.0820  205.8160  152.0330 C   0  0  0  0  0  0  0  0  0  0  0  0
  161.3060  207.0160  155.1460 O   0  0  0  0  0  0  0  0  0  0  0  0
  161.2030  205.5410  153.2980 N   0  0  0  0  0  0  0  0  0  0  0  0
  160.9910  207.2190  151.7340 N   0  0  0  0  0  0  0  0  0  0  0  0
  161.1850  205.1330  149.6420 C   0  0  0  0  0  3  0  0  0  0  0  0
  161.0210  202.7990  148.9910 C   0  0  0  0  0  0  0  0  0  0  0  0
  161.0600  204.7770  150.9910 C   0  0  0  0  0  0  0  0  0  0  0  0
  161.1660  204.1510  148.6490 C   0  0  0  0  0  3  0  0  0  0  0  0
  160.8970  202.4430  150.3410 C   0  0  0  0  0  3  0  0  0  0  0  0
  160.9160  203.4250  151.3350 C   0  0  0  0  0  3  0  0  0  0  0  0
  160.7840  202.1070  146.6190 O   0  0  0  0  0  0  0  0  0  0  0  0
  161.1820  200.5510  148.2480 O   0  0  0  0  0  1  0  0  0  0  0  0
  161.0010  201.7610  147.9480 C   0  0  0  0  0  0  0  0  0  0  0  0
  161.0530  209.3110  153.0150 C   0  0  1  0  0  3  0  0  0  0  0  0
  160.9360  210.0220  151.6760 C   0  0  0  0  0  1  0  0  0  0  0  0
  159.6160  210.6530  156.2400 C   0  0  0  0  0  2  0  0  0  0  0  0
  157.4940  212.3400  154.0530 C   0  0  0  0  0  2  0  0  0  0  0  0
  160.3780  212.0720  154.5220 N   0  0  0  0  0  0  0  0  0  0  0  0
  160.0410  209.7920  153.9540 N   0  0  0  0  0  2  0  0  0  0  0  0
  158.5210  212.1010  152.9370 C   0  0  0  0  0  2  0  0  0  0  0  0
  157.3940  211.1600  155.0330 C   0  0  1  0  0  3  0  0  0  0  0  0
  160.2550  210.8390  154.9100 C   0  0  0  0  0  0  0  0  0  0  0  0
  159.8260  212.5250  153.3410 O   0  0  0  0  0  0  0  0  0  0  0  0
  158.2590  211.3800  156.2880 C   0  0  0  0  0  2  0  0  0  0  0  0
  155.2060  210.2980  154.6730 O   0  0  0  0  0  0  0  0  0  0  0  0
  155.4730  211.4770  156.6550 N   0  0  0  0  0  1  0  0  0  0  0  0
  155.9720  210.9490  155.4290 C   0  0  0  0  0  0  0  0  0  0  0  0
  1  4  2  0  0  0  0
  2 16  1  0  0  0  0
  2  1  1  0  0  0  0
  3  5  2  0  0  0  0
  5  1  1  0  0  0  0
  6  3  1  0  0  0  0
  6  2  2  0  0  0  0
  7  9  1  0  0  0  0
  8 11  2  0  0  0  0
  9 12  2  0  0  0  0
  9  3  1  0  0  0  0
 10  8  1  0  0  0  0
 10  7  2  0  0  0  0
 11 12  1  0  0  0  0
 13 15  2  0  0  0  0
 15 14  1  0  0  0  0
 15  8  1  0  0  0  0
 16 17  1  6  0  0  0
 16 21  1  0  0  0  0
 18 26  1  0  0  0  0
 19 23  1  0  0  0  0
 20 24  2  0  0  0  0
 21 24  1  0  0  0  0
 22 25  1  0  0  0  0
 22 19  1  0  0  0  0
 23 29  1  1  0  0  0
 23 26  1  0  0  0  0
 24 18  1  0  0  0  0
 25 20  1  0  0  0  0
 27 29  2  0  0  0  0
 29 28  1  0  0  0  0
M  END
>  <MODEL>
1

>  <REMARK>
 VINA RESULT:      -8.9      0.000      0.000
  Name = 
  5 active torsions:
  status: ('A' for Active; 'I' for Inactive)
    1  A    between atoms: C_7  and  C_23
    2  A    between atoms: N_8  and  C_13
    3  A    between atoms: C_12  and  C_13
    4  A    between atoms: C_14  and  C_16
    5  A    between atoms: C_18  and  C_24
                            x       y       z     vdW  Elec       q    Type
                         _______ _______ _______ _____ _____    ______ ____

>  <TORSDO>
F 5

$$$$
=
 OpenBabel11042423093D

 29 31  0  0  1  0  0  0  0  0999 V2000
  161.9650  209.6160  150.4480 C   0  0  0  0  0  0  0  0  0  0  0  0
  161.9250  210.1010  149.0860 C   0  0  0  0  0  0  0  0  0  0  0  0
  161.7460  207.9370  149.1600 C   0  0  0  0  0  0  0  0  0  0  0  0
  162.1050  210.3030  151.4940 O   0  0  0  0  0  0  0  0  0  0  0  0
  161.8400  208.2070  150.4270 N   0  0  0  0  0  0  0  0  0  0  0  0
  161.8040  209.0870  148.2990 N   0  0  0  0  0  0  0  0  0  0  0  0
  161.1050  205.5530  149.4730 C   0  0  0  0  0  3  0  0  0  0  0  0
  161.3440  203.9380  147.6740 C   0  0  0  0  0  0  0  0  0  0  0  0
  161.6090  206.5640  148.6460 C   0  0  0  0  0  0  0  0  0  0  0  0
  160.9730  204.2480  148.9900 C   0  0  0  0  0  3  0  0  0  0  0  0
  161.8480  204.9510  146.8470 C   0  0  0  0  0  3  0  0  0  0  0  0
  161.9810  206.2560  147.3300 C   0  0  0  0  0  3  0  0  0  0  0  0
  161.0500  202.3400  145.7980 O   0  0  0  0  0  0  0  0  0  0  0  0
  161.2290  201.5840  147.9510 O   0  0  0  0  0  1  0  0  0  0  0  0
  161.2060  202.5660  147.1610 C   0  0  0  0  0  0  0  0  0  0  0  0
  162.0930  211.5060  148.5920 C   0  0  1  0  0  3  0  0  0  0  0  0
  163.5400  211.8330  148.2540 C   0  0  0  0  0  1  0  0  0  0  0  0
  158.9690  212.6340  146.7930 C   0  0  0  0  0  2  0  0  0  0  0  0
  161.2870  213.8650  144.5040 C   0  0  0  0  0  2  0  0  0  0  0  0
  160.6950  214.1300  147.3650 N   0  0  0  0  0  0  0  0  0  0  0  0
  161.2110  211.8160  147.4680 N   0  0  0  0  0  2  0  0  0  0  0  0
  162.3530  213.7920  145.6060 C   0  0  0  0  0  2  0  0  0  0  0  0
  160.2790  212.7060  144.5740 C   0  0  1  0  0  3  0  0  0  0  0  0
  160.2770  212.9040  147.4480 C   0  0  0  0  0  0  0  0  0  0  0  0
  161.9100  214.4520  146.7940 O   0  0  0  0  0  0  0  0  0  0  0  0
  158.9970  213.1050  145.3270 C   0  0  0  0  0  2  0  0  0  0  0  0
  160.5320  211.2590  142.7020 O   0  0  0  0  0  0  0  0  0  0  0  0
  158.9390  212.9260  142.4340 N   0  0  0  0  0  1  0  0  0  0  0  0
  159.9350  212.2500  143.1960 C   0  0  0  0  0  0  0  0  0  0  0  0
  1  4  2  0  0  0  0
  2  1  1  0  0  0  0
  3  5  2  0  0  0  0
  5  1  1  0  0  0  0
  6  2  2  0  0  0  0
  6  3  1  0  0  0  0
  8 10  2  0  0  0  0
  9  3  1  0  0  0  0
  9  7  2  0  0  0  0
 10  7  1  0  0  0  0
 11 12  2  0  0  0  0
 11  8  1  0  0  0  0
 12  9  1  0  0  0  0
 13 15  2  0  0  0  0
 15  8  1  0  0  0  0
 15 14  1  0  0  0  0
 16 17  1  6  0  0  0
 16  2  1  0  0  0  0
 18 24  1  0  0  0  0
 19 23  1  0  0  0  0
 19 22  1  0  0  0  0
 20 24  2  0  0  0  0
 21 16  1  0  0  0  0
 22 25  1  0  0  0  0
 23 29  1  6  0  0  0
 23 26  1  0  0  0  0
 24 21  1  0  0  0  0
 25 20  1  0  0  0  0
 26 18  1  0  0  0  0
 27 29  2  0  0  0  0
 28 29  1  0  0  0  0
M  END
>  <MODEL>
2

>  <REMARK>
 VINA RESULT:      -8.1      5.395      7.203
  Name = 
  5 active torsions:
  status: ('A' for Active; 'I' for Inactive)
    1  A    between atoms: C_7  and  C_23
    2  A    between atoms: N_8  and  C_13
    3  A    between atoms: C_12  and  C_13
    4  A    between atoms: C_14  and  C_16
    5  A    between atoms: C_18  and  C_24
                            x       y       z     vdW  Elec       q    Type
                         _______ _______ _______ _____ _____    ______ ____

>  <TORSDO>
F 5

$$$$
=
 OpenBabel11042423093D

 29 31  0  0  1  0  0  0  0  0999 V2000
  161.1410  206.8890  152.8940 C   0  0  0  0  0  0  0  0  0  0  0  0
  161.1710  208.1580  152.2000 C   0  0  0  0  0  0  0  0  0  0  0  0
  161.1790  206.4930  150.8040 C   0  0  0  0  0  0  0  0  0  0  0  0
  161.1320  206.7050  154.1400 O   0  0  0  0  0  0  0  0  0  0  0  0
  161.1430  205.8510  151.9320 N   0  0  0  0  0  0  0  0  0  0  0  0
  161.2060  207.9250  150.9320 N   0  0  0  0  0  0  0  0  0  0  0  0
  161.2040  206.5590  148.3160 C   0  0  0  0  0  3  0  0  0  0  0  0
  161.2660  204.5180  147.0020 C   0  0  0  0  0  0  0  0  0  0  0  0
  161.2080  205.8110  149.5000 C   0  0  0  0  0  0  0  0  0  0  0  0
  161.2340  205.9170  147.0750 C   0  0  0  0  0  3  0  0  0  0  0  0
  161.2700  203.7690  148.1870 C   0  0  0  0  0  3  0  0  0  0  0  0
  161.2410  204.4110  149.4280 C   0  0  0  0  0  3  0  0  0  0  0  0
  161.3630  204.5770  144.5230 O   0  0  0  0  0  0  0  0  0  0  0  0
  161.2680  202.5790  145.6340 O   0  0  0  0  0  1  0  0  0  0  0  0
  161.2980  203.8370  145.6980 C   0  0  0  0  0  0  0  0  0  0  0  0
  161.2540  209.5360  152.7830 C   0  0  1  0  0  3  0  0  0  0  0  0
  161.4280  210.6080  151.7170 C   0  0  0  0  0  1  0  0  0  0  0  0
  159.2740  209.8240  155.9860 C   0  0  0  0  0  2  0  0  0  0  0  0
  158.0550  212.6930  154.4320 C   0  0  0  0  0  2  0  0  0  0  0  0
  160.6510  211.5670  155.2040 N   0  0  0  0  0  0  0  0  0  0  0  0
  160.1240  209.8460  153.6570 N   0  0  0  0  0  2  0  0  0  0  0  0
  159.2800  212.6640  153.5080 C   0  0  0  0  0  2  0  0  0  0  0  0
  157.5320  211.2880  154.7720 C   0  0  1  0  0  3  0  0  0  0  0  0
  160.2480  210.3500  154.9930 C   0  0  0  0  0  0  0  0  0  0  0  0
  160.4910  212.5640  154.2640 O   0  0  0  0  0  0  0  0  0  0  0  0
  158.0760  210.7840  156.1210 C   0  0  0  0  0  2  0  0  0  0  0  0
  155.4170  212.3290  154.4470 O   0  0  0  0  0  0  0  0  0  0  0  0
  155.3170  210.1410  155.2160 N   0  0  0  0  0  1  0  0  0  0  0  0
  156.0410  211.2940  154.7980 C   0  0  0  0  0  0  0  0  0  0  0  0
  1  4  2  0  0  0  0
  2 16  1  0  0  0  0
  2  1  1  0  0  0  0
  3  6  1  0  0  0  0
  3  5  2  0  0  0  0
  5  1  1  0  0  0  0
  6  2  2  0  0  0  0
  7  9  1  0  0  0  0
  8 10  1  0  0  0  0
  8 11  2  0  0  0  0
  9  3  1  0  0  0  0
 10  7  2  0  0  0  0
 11 12  1  0  0  0  0
 12  9  2  0  0  0  0
 13 15  2  0  0  0  0
 14 15  1  0  0  0  0
 15  8  1  0  0  0  0
 16 17  1  6  0  0  0
 16 21  1  0  0  0  0
 18 26  1  0  0  0  0
 19 23  1  0  0  0  0
 21 24  1  0  0  0  0
 22 25  1  0  0  0  0
 22 19  1  0  0  0  0
 23 29  1  1  0  0  0
 23 26  1  0  0  0  0
 24 20  2  0  0  0  0
 24 18  1  0  0  0  0
 25 20  1  0  0  0  0
 27 29  2  0  0  0  0
 29 28  1  0  0  0  0
M  END
>  <MODEL>
3

>  <REMARK>
 VINA RESULT:      -8.0      1.407      1.713
  Name = 
  5 active torsions:
  status: ('A' for Active; 'I' for Inactive)
    1  A    between atoms: C_7  and  C_23
    2  A    between atoms: N_8  and  C_13
    3  A    between atoms: C_12  and  C_13
    4  A    between atoms: C_14  and  C_16
    5  A    between atoms: C_18  and  C_24
                            x       y       z     vdW  Elec       q    Type
                         _______ _______ _______ _____ _____    ______ ____

>  <TORSDO>
F 5

$$$$
=
 OpenBabel11042423093D

 29 31  0  0  1  0  0  0  0  0999 V2000
  161.3790  209.3620  152.0260 C   0  0  0  0  0  0  0  0  0  0  0  0
  161.0680  208.7930  153.3190 C   0  0  0  0  0  0  0  0  0  0  0  0
  161.1550  207.2590  151.7830 C   0  0  0  0  0  0  0  0  0  0  0  0
  161.5650  210.5770  151.7570 O   0  0  0  0  0  0  0  0  0  0  0  0
  161.4260  208.3150  151.0750 N   0  0  0  0  0  0  0  0  0  0  0  0
  160.9180  207.5200  153.1760 N   0  0  0  0  0  0  0  0  0  0  0  0
  161.1760  204.7830  152.0280 C   0  0  0  0  0  3  0  0  0  0  0  0
  160.9320  203.3240  150.1020 C   0  0  0  0  0  0  0  0  0  0  0  0
  161.0790  205.9090  151.2020 C   0  0  0  0  0  0  0  0  0  0  0  0
  161.1030  203.4990  151.4820 C   0  0  0  0  0  3  0  0  0  0  0  0
  160.8350  204.4520  149.2750 C   0  0  0  0  0  3  0  0  0  0  0  0
  160.9080  205.7360  149.8210 C   0  0  0  0  0  3  0  0  0  0  0  0
  160.7910  201.8060  148.1430 O   0  0  0  0  0  0  0  0  0  0  0  0
  160.8440  200.9580  150.2680 O   0  0  0  0  0  1  0  0  0  0  0  0
  160.8540  201.9740  149.5220 C   0  0  0  0  0  0  0  0  0  0  0  0
  160.8380  209.5040  154.6180 C   0  0  1  0  0  3  0  0  0  0  0  0
  162.0570  210.2920  155.0730 C   0  0  0  0  0  1  0  0  0  0  0  0
  157.2590  210.5460  155.2310 C   0  0  0  0  0  2  0  0  0  0  0  0
  158.7230  213.6830  155.6120 C   0  0  0  0  0  2  0  0  0  0  0  0
  158.9780  211.0020  156.7740 N   0  0  0  0  0  0  0  0  0  0  0  0
  159.6480  210.3520  154.5920 N   0  0  0  0  0  2  0  0  0  0  0  0
  160.0670  212.9820  155.8510 C   0  0  0  0  0  2  0  0  0  0  0  0
  157.8550  212.9650  154.5660 C   0  0  1  0  0  3  0  0  0  0  0  0
  158.6820  210.4260  155.6490 C   0  0  0  0  0  0  0  0  0  0  0  0
  159.9500  211.9780  156.8630 O   0  0  0  0  0  0  0  0  0  0  0  0
  156.8270  212.0240  155.2210 C   0  0  0  0  0  2  0  0  0  0  0  0
  156.0180  214.3900  154.0580 O   0  0  0  0  0  0  0  0  0  0  0  0
  157.7530  214.4530  152.5170 N   0  0  0  0  0  1  0  0  0  0  0  0
  157.1520  213.9680  153.7150 C   0  0  0  0  0  0  0  0  0  0  0  0
  1  2  1  0  0  0  0
  2 16  1  0  0  0  0
  3  6  1  0  0  0  0
  4  1  2  0  0  0  0
  5  3  2  0  0  0  0
  5  1  1  0  0  0  0
  6  2  2  0  0  0  0
  8 10  2  0  0  0  0
  9  3  1  0  0  0  0
  9  7  2  0  0  0  0
 10  7  1  0  0  0  0
 11 12  2  0  0  0  0
 11  8  1  0  0  0  0
 12  9  1  0  0  0  0
 13 15  2  0  0  0  0
 15  8  1  0  0  0  0
 15 14  1  0  0  0  0
 16 17  1  6  0  0  0
 18 24  1  0  0  0  0
 19 22  1  0  0  0  0
 20 25  1  0  0  0  0
 21 16  1  0  0  0  0
 21 24  1  0  0  0  0
 22 25  1  0  0  0  0
 23 29  1  1  0  0  0
 23 26  1  0  0  0  0
 23 19  1  0  0  0  0
 24 20  2  0  0  0  0
 26 18  1  0  0  0  0
 28 29  1  0  0  0  0
 29 27  2  0  0  0  0
M  END
>  <MODEL>
4

>  <REMARK>
 VINA RESULT:      -7.8      1.915      2.791
  Name = 
  5 active torsions:
  status: ('A' for Active; 'I' for Inactive)
    1  A    between atoms: C_7  and  C_23
    2  A    between atoms: N_8  and  C_13
    3  A    between atoms: C_12  and  C_13
    4  A    between atoms: C_14  and  C_16
    5  A    between atoms: C_18  and  C_24
                            x       y       z     vdW  Elec       q    Type
                         _______ _______ _______ _____ _____    ______ ____

>  <TORSDO>
F 5

$$$$
=
 OpenBabel11042423093D

 29 31  0  0  1  0  0  0  0  0999 V2000
  161.1540  209.5530  152.3690 C   0  0  0  0  0  0  0  0  0  0  0  0
  161.3150  208.9230  153.6620 C   0  0  0  0  0  0  0  0  0  0  0  0
  161.1120  207.4450  152.0820 C   0  0  0  0  0  0  0  0  0  0  0  0
  161.1080  210.7880  152.1270 O   0  0  0  0  0  0  0  0  0  0  0  0
  161.0330  208.5410  151.3880 N   0  0  0  0  0  0  0  0  0  0  0  0
  161.2780  207.6450  153.4960 N   0  0  0  0  0  0  0  0  0  0  0  0
  161.0460  204.9650  152.2820 C   0  0  0  0  0  3  0  0  0  0  0  0
  160.8450  203.5480  150.3200 C   0  0  0  0  0  0  0  0  0  0  0  0
  161.0210  206.1080  151.4730 C   0  0  0  0  0  0  0  0  0  0  0  0
  160.9590  203.6940  151.7100 C   0  0  0  0  0  3  0  0  0  0  0  0
  160.8200  204.6930  149.5100 C   0  0  0  0  0  3  0  0  0  0  0  0
  160.9080  205.9640  150.0830 C   0  0  0  0  0  3  0  0  0  0  0  0
  160.3310  202.0690  148.3950 O   0  0  0  0  0  0  0  0  0  0  0  0
  161.0540  201.1850  150.3780 O   0  0  0  0  0  1  0  0  0  0  0  0
  160.7520  202.2110  149.7120 C   0  0  0  0  0  0  0  0  0  0  0  0
  161.4070  209.5730  155.0090 C   0  0  1  0  0  3  0  0  0  0  0  0
  162.4450  210.6840  155.0490 C   0  0  0  0  0  1  0  0  0  0  0  0
  158.9330  211.3280  157.2600 C   0  0  0  0  0  2  0  0  0  0  0  0
  157.3390  211.9750  154.2320 C   0  0  0  0  0  2  0  0  0  0  0  0
  159.9710  212.4170  155.4490 N   0  0  0  0  0  0  0  0  0  0  0  0
  160.1120  210.0490  155.4930 N   0  0  0  0  0  2  0  0  0  0  0  0
  158.6670  211.6890  153.5180 C   0  0  0  0  0  2  0  0  0  0  0  0
  157.1120  211.0680  155.4530 C   0  0  1  0  0  3  0  0  0  0  0  0
  159.9020  211.3150  156.1320 C   0  0  0  0  0  0  0  0  0  0  0  0
  159.7320  212.4530  154.0900 O   0  0  0  0  0  0  0  0  0  0  0  0
  157.5380  211.7540  156.7640 C   0  0  0  0  0  2  0  0  0  0  0  0
  155.1510  210.0440  154.5770 O   0  0  0  0  0  0  0  0  0  0  0  0
  154.8930  211.0040  156.6750 N   0  0  0  0  0  1  0  0  0  0  0  0
  155.6760  210.6740  155.5310 C   0  0  0  0  0  0  0  0  0  0  0  0
  1  2  1  0  0  0  0
  2 16  1  0  0  0  0
  3  6  1  0  0  0  0
  4  1  2  0  0  0  0
  5  3  2  0  0  0  0
  5  1  1  0  0  0  0
  6  2  2  0  0  0  0
  8 10  2  0  0  0  0
  9  3  1  0  0  0  0
  9  7  2  0  0  0  0
 10  7  1  0  0  0  0
 11 12  2  0  0  0  0
 11  8  1  0  0  0  0
 12  9  1  0  0  0  0
 13 15  2  0  0  0  0
 15  8  1  0  0  0  0
 15 14  1  0  0  0  0
 16 17  1  6  0  0  0
 16 21  1  0  0  0  0
 19 23  1  0  0  0  0
 20 24  2  0  0  0  0
 21 24  1  0  0  0  0
 22 25  1  0  0  0  0
 22 19  1  0  0  0  0
 23 29  1  1  0  0  0
 23 26  1  0  0  0  0
 24 18  1  0  0  0  0
 25 20  1  0  0  0  0
 26 18  1  0  0  0  0
 27 29  2  0  0  0  0
 29 28  1  0  0  0  0
M  END
>  <MODEL>
5

>  <REMARK>
 VINA RESULT:      -7.7      1.435      2.111
  Name = 
  5 active torsions:
  status: ('A' for Active; 'I' for Inactive)
    1  A    between atoms: C_7  and  C_23
    2  A    between atoms: N_8  and  C_13
    3  A    between atoms: C_12  and  C_13
    4  A    between atoms: C_14  and  C_16
    5  A    between atoms: C_18  and  C_24
                            x       y       z     vdW  Elec       q    Type
                         _______ _______ _______ _____ _____    ______ ____

>  <TORSDO>
F 5

$$$$
=
 OpenBabel11042423093D

 29 31  0  0  1  0  0  0  0  0999 V2000
  160.9180  207.2210  154.3500 C   0  0  0  0  0  0  0  0  0  0  0  0
  160.8200  208.6130  153.9680 C   0  0  0  0  0  0  0  0  0  0  0  0
  161.0410  207.3300  152.2290 C   0  0  0  0  0  0  0  0  0  0  0  0
  160.9060  206.7530  155.5190 O   0  0  0  0  0  0  0  0  0  0  0  0
  161.0560  206.4420  153.1770 N   0  0  0  0  0  0  0  0  0  0  0  0
  160.9060  208.6870  152.6830 N   0  0  0  0  0  0  0  0  0  0  0  0
  160.7820  205.7080  150.3580 C   0  0  0  0  0  3  0  0  0  0  0  0
  161.4170  206.2920  148.0880 C   0  0  0  0  0  0  0  0  0  0  0  0
  161.1720  206.9770  150.8060 C   0  0  0  0  0  0  0  0  0  0  0  0
  160.9030  205.3680  149.0090 C   0  0  0  0  0  3  0  0  0  0  0  0
  161.8080  207.5620  148.5360 C   0  0  0  0  0  3  0  0  0  0  0  0
  161.6870  207.9020  149.8860 C   0  0  0  0  0  3  0  0  0  0  0  0
  162.6910  205.3000  146.2040 O   0  0  0  0  0  1  0  0  0  0  0  0
  160.6210  206.2100  145.8540 O   0  0  0  0  0  0  0  0  0  0  0  0
  161.5460  205.9390  146.6650 C   0  0  0  0  0  0  0  0  0  0  0  0
  160.7370  209.8190  154.8540 C   0  0  1  0  0  3  0  0  0  0  0  0
  161.9450  210.7320  154.7060 C   0  0  0  0  0  1  0  0  0  0  0  0
  157.0820  210.6880  155.2460 C   0  0  0  0  0  2  0  0  0  0  0  0
  158.3180  213.9420  155.1220 C   0  0  0  0  0  2  0  0  0  0  0  0
  158.7300  211.5120  156.7130 N   0  0  0  0  0  0  0  0  0  0  0  0
  159.4920  210.5640  154.6750 N   0  0  0  0  0  2  0  0  0  0  0  0
  159.7020  213.3870  155.4890 C   0  0  0  0  0  2  0  0  0  0  0  0
  157.5250  213.0020  154.1990 C   0  0  1  0  0  3  0  0  0  0  0  0
  158.5000  210.7400  155.6940 C   0  0  0  0  0  0  0  0  0  0  0  0
  159.6300  212.5560  156.6510 O   0  0  0  0  0  0  0  0  0  0  0  0
  156.5500  212.1100  154.9880 C   0  0  0  0  0  2  0  0  0  0  0  0
  157.4070  214.4530  152.3160 O   0  0  0  0  0  0  0  0  0  0  0  0
  155.3510  213.8310  153.1960 N   0  0  0  0  0  1  0  0  0  0  0  0
  156.7750  213.8000  153.1860 C   0  0  0  0  0  0  0  0  0  0  0  0
  1  4  2  0  0  0  0
  2  1  1  0  0  0  0
  2 16  1  0  0  0  0
  3  6  1  0  0  0  0
  3  5  2  0  0  0  0
  5  1  1  0  0  0  0
  6  2  2  0  0  0  0
  7  9  1  0  0  0  0
  8 11  2  0  0  0  0
  8 10  1  0  0  0  0
  9  3  1  0  0  0  0
 10  7  2  0  0  0  0
 11 12  1  0  0  0  0
 12  9  2  0  0  0  0
 13 15  1  0  0  0  0
 14 15  2  0  0  0  0
 15  8  1  0  0  0  0
 16 17  1  6  0  0  0
 18 24  1  0  0  0  0
 19 22  1  0  0  0  0
 21 16  1  0  0  0  0
 21 24  1  0  0  0  0
 22 25  1  0  0  0  0
 23 29  1  6  0  0  0
 23 26  1  0  0  0  0
 23 19  1  0  0  0  0
 24 20  2  0  0  0  0
 25 20  1  0  0  0  0
 26 18  1  0  0  0  0
 27 29  2  0  0  0  0
 29 28  1  0  0  0  0
M  END
>  <MODEL>
6

>  <REMARK>
 VINA RESULT:      -7.6      2.367      3.119
  Name = 
  5 active torsions:
  status: ('A' for Active; 'I' for Inactive)
    1  A    between atoms: C_7  and  C_23
    2  A    between atoms: N_8  and  C_13
    3  A    between atoms: C_12  and  C_13
    4  A    between atoms: C_14  and  C_16
    5  A    between atoms: C_18  and  C_24
                            x       y       z     vdW  Elec       q    Type
                         _______ _______ _______ _____ _____    ______ ____

>  <TORSDO>
F 5

$$$$
=
 OpenBabel11042423093D

 29 31  0  0  1  0  0  0  0  0999 V2000
  160.5090  207.3880  155.7840 C   0  0  0  0  0  0  0  0  0  0  0  0
  161.0000  208.6910  155.3910 C   0  0  0  0  0  0  0  0  0  0  0  0
  160.8890  207.3420  153.6910 C   0  0  0  0  0  0  0  0  0  0  0  0
  160.1930  207.0150  156.9440 O   0  0  0  0  0  0  0  0  0  0  0  0
  160.4570  206.5630  154.6360 N   0  0  0  0  0  0  0  0  0  0  0  0
  161.2430  208.6660  154.1250 N   0  0  0  0  0  0  0  0  0  0  0  0
  161.0800  205.5340  151.9910 C   0  0  0  0  0  3  0  0  0  0  0  0
  161.2760  206.0450  149.6250 C   0  0  0  0  0  0  0  0  0  0  0  0
  161.0220  206.9010  152.2930 C   0  0  0  0  0  0  0  0  0  0  0  0
  161.2050  205.1090  150.6660 C   0  0  0  0  0  3  0  0  0  0  0  0
  161.2180  207.4130  149.9270 C   0  0  0  0  0  3  0  0  0  0  0  0
  161.0930  207.8380  151.2520 C   0  0  0  0  0  3  0  0  0  0  0  0
  161.4600  206.5370  147.1990 O   0  0  0  0  0  0  0  0  0  0  0  0
  161.4750  204.3750  147.9510 O   0  0  0  0  0  1  0  0  0  0  0  0
  161.4070  205.6030  148.2280 C   0  0  0  0  0  0  0  0  0  0  0  0
  161.2990  209.8750  156.2590 C   0  0  1  0  0  3  0  0  0  0  0  0
  162.4610  210.7030  155.7330 C   0  0  0  0  0  1  0  0  0  0  0  0
  159.3070  212.9300  157.2450 C   0  0  0  0  0  2  0  0  0  0  0  0
  157.2660  211.8740  154.6270 C   0  0  0  0  0  2  0  0  0  0  0  0
  160.0790  212.5930  155.0460 N   0  0  0  0  0  0  0  0  0  0  0  0
  160.1230  210.7120  156.4920 N   0  0  0  0  0  2  0  0  0  0  0  0
  158.4460  211.0490  154.0940 C   0  0  0  0  0  2  0  0  0  0  0  0
  157.2040  211.9020  156.1630 C   0  0  1  0  0  3  0  0  0  0  0  0
  160.0760  212.1260  156.2570 C   0  0  0  0  0  0  0  0  0  0  0  0
  159.6220  211.8530  153.9740 O   0  0  0  0  0  0  0  0  0  0  0  0
  157.8700  213.1630  156.7420 C   0  0  0  0  0  2  0  0  0  0  0  0
  155.1280  210.7690  156.4250 O   0  0  0  0  0  0  0  0  0  0  0  0
  155.1660  212.9360  157.2570 N   0  0  0  0  0  1  0  0  0  0  0  0
  155.7850  211.8250  156.6150 C   0  0  0  0  0  0  0  0  0  0  0  0
  1  4  2  0  0  0  0
  2  1  1  0  0  0  0
  2 16  1  0  0  0  0
  3  6  1  0  0  0  0
  3  5  2  0  0  0  0
  5  1  1  0  0  0  0
  6  2  2  0  0  0  0
  7  9  1  0  0  0  0
  8 11  2  0  0  0  0
  8 10  1  0  0  0  0
  9  3  1  0  0  0  0
 10  7  2  0  0  0  0
 11 12  1  0  0  0  0
 12  9  2  0  0  0  0
 13 15  2  0  0  0  0
 14 15  1  0  0  0  0
 15  8  1  0  0  0  0
 16 17  1  6  0  0  0
 16 21  1  0  0  0  0
 19 23  1  0  0  0  0
 20 24  2  0  0  0  0
 22 19  1  0  0  0  0
 23 29  1  6  0  0  0
 23 26  1  0  0  0  0
 24 21  1  0  0  0  0
 24 18  1  0  0  0  0
 25 22  1  0  0  0  0
 25 20  1  0  0  0  0
 26 18  1  0  0  0  0
 27 29  2  0  0  0  0
 29 28  1  0  0  0  0
M  END
>  <MODEL>
7

>  <REMARK>
 VINA RESULT:      -7.4      1.942      2.755
  Name = 
  5 active torsions:
  status: ('A' for Active; 'I' for Inactive)
    1  A    between atoms: C_7  and  C_23
    2  A    between atoms: N_8  and  C_13
    3  A    between atoms: C_12  and  C_13
    4  A    between atoms: C_14  and  C_16
    5  A    between atoms: C_18  and  C_24
                            x       y       z     vdW  Elec       q    Type
                         _______ _______ _______ _____ _____    ______ ____

>  <TORSDO>
F 5

$$$$
=
 OpenBabel11042423093D

 29 31  0  0  1  0  0  0  0  0999 V2000
  161.8630  210.3780  150.3120 C   0  0  0  0  0  0  0  0  0  0  0  0
  161.0930  210.4050  151.5360 C   0  0  0  0  0  0  0  0  0  0  0  0
  161.3960  208.3700  150.8390 C   0  0  0  0  0  0  0  0  0  0  0  0
  162.3090  211.3670  149.6730 O   0  0  0  0  0  0  0  0  0  0  0  0
  162.0270  209.0290  149.9150 N   0  0  0  0  0  0  0  0  0  0  0  0
  160.7960  209.1910  151.8550 N   0  0  0  0  0  0  0  0  0  0  0  0
  161.4000  206.1870  152.0340 C   0  0  0  0  0  3  0  0  0  0  0  0
  161.0760  204.0960  150.8410 C   0  0  0  0  0  0  0  0  0  0  0  0
  161.2860  206.9020  150.8360 C   0  0  0  0  0  0  0  0  0  0  0  0
  161.2960  204.7940  152.0380 C   0  0  0  0  0  3  0  0  0  0  0  0
  160.9620  204.8130  149.6420 C   0  0  0  0  0  3  0  0  0  0  0  0
  161.0660  206.2060  149.6380 C   0  0  0  0  0  3  0  0  0  0  0  0
  160.2020  201.9860  149.8710 O   0  0  0  0  0  0  0  0  0  0  0  0
  161.5590  201.9430  151.7130 O   0  0  0  0  0  1  0  0  0  0  0  0
  160.9650  202.6290  150.8390 C   0  0  0  0  0  0  0  0  0  0  0  0
  160.6000  211.5970  152.3000 C   0  0  1  0  0  3  0  0  0  0  0  0
  159.9760  212.6480  151.3950 C   0  0  0  0  0  1  0  0  0  0  0  0
  159.4900  210.1800  155.6210 C   0  0  0  0  0  2  0  0  0  0  0  0
  157.2780  212.8680  155.5050 C   0  0  0  0  0  2  0  0  0  0  0  0
  160.1750  212.4200  155.3800 N   0  0  0  0  0  0  0  0  0  0  0  0
  159.6900  211.2320  153.3830 N   0  0  0  0  0  2  0  0  0  0  0  0
  158.1990  213.5290  154.4700 C   0  0  0  0  0  2  0  0  0  0  0  0
  157.2040  211.3400  155.3460 C   0  0  1  0  0  3  0  0  0  0  0  0
  160.0280  211.2800  154.7760 C   0  0  0  0  0  0  0  0  0  0  0  0
  159.5510  213.5690  154.9370 O   0  0  0  0  0  0  0  0  0  0  0  0
  158.1760  210.6160  156.2950 C   0  0  0  0  0  2  0  0  0  0  0  0
  155.2190  210.1860  154.7210 O   0  0  0  0  0  0  0  0  0  0  0  0
  155.1410  211.1940  156.8110 N   0  0  0  0  0  1  0  0  0  0  0  0
  155.8100  210.8720  155.5950 C   0  0  0  0  0  0  0  0  0  0  0  0
  1  2  1  0  0  0  0
  2  6  2  0  0  0  0
  2 16  1  0  0  0  0
  3  6  1  0  0  0  0
  4  1  2  0  0  0  0
  5  1  1  0  0  0  0
  5  3  2  0  0  0  0
  7 10  1  0  0  0  0
  8 10  2  0  0  0  0
  9  3  1  0  0  0  0
  9  7  2  0  0  0  0
 11  8  1  0  0  0  0
 12 11  2  0  0  0  0
 12  9  1  0  0  0  0
 13 15  2  0  0  0  0
 15  8  1  0  0  0  0
 15 14  1  0  0  0  0
 16 17  1  6  0  0  0
 16 21  1  0  0  0  0
 18 26  1  0  0  0  0
 21 24  1  0  0  0  0
 22 25  1  0  0  0  0
 22 19  1  0  0  0  0
 23 19  1  0  0  0  0
 23 29  1  1  0  0  0
 23 26  1  0  0  0  0
 24 20  2  0  0  0  0
 24 18  1  0  0  0  0
 25 20  1  0  0  0  0
 27 29  2  0  0  0  0
 29 28  1  0  0  0  0
M  END
>  <MODEL>
8

>  <REMARK>
 VINA RESULT:      -7.3      2.002      2.816
  Name = 
  5 active torsions:
  status: ('A' for Active; 'I' for Inactive)
    1  A    between atoms: C_7  and  C_23
    2  A    between atoms: N_8  and  C_13
    3  A    between atoms: C_12  and  C_13
    4  A    between atoms: C_14  and  C_16
    5  A    between atoms: C_18  and  C_24
                            x       y       z     vdW  Elec       q    Type
                         _______ _______ _______ _____ _____    ______ ____

>  <TORSDO>
F 5

$$$$
=
 OpenBabel11042423093D

 29 31  0  0  1  0  0  0  0  0999 V2000
  162.0610  209.4990  149.2090 C   0  0  0  0  0  0  0  0  0  0  0  0
  161.8490  209.3730  150.6350 C   0  0  0  0  0  0  0  0  0  0  0  0
  161.6390  207.4560  149.6330 C   0  0  0  0  0  0  0  0  0  0  0  0
  162.3150  210.5530  148.5700 O   0  0  0  0  0  0  0  0  0  0  0  0
  161.9150  208.2210  148.6190 N   0  0  0  0  0  0  0  0  0  0  0  0
  161.5800  208.1390  150.8960 N   0  0  0  0  0  0  0  0  0  0  0  0
  161.2770  205.4370  148.2240 C   0  0  0  0  0  3  0  0  0  0  0  0
  160.9080  203.2540  149.2230 C   0  0  0  0  0  0  0  0  0  0  0  0
  161.3870  206.0130  149.4960 C   0  0  0  0  0  0  0  0  0  0  0  0
  161.0390  204.0670  148.0880 C   0  0  0  0  0  3  0  0  0  0  0  0
  161.0180  203.8310  150.4960 C   0  0  0  0  0  3  0  0  0  0  0  0
  161.2560  205.2010  150.6320 C   0  0  0  0  0  3  0  0  0  0  0  0
  161.3840  201.0590  148.1680 O   0  0  0  0  0  0  0  0  0  0  0  0
  159.7870  201.2430  149.7960 O   0  0  0  0  0  1  0  0  0  0  0  0
  160.6580  201.8100  149.0850 C   0  0  0  0  0  0  0  0  0  0  0  0
  161.8240  210.4550  151.6710 C   0  0  1  0  0  3  0  0  0  0  0  0
  160.7590  211.5040  151.3900 C   0  0  0  0  0  1  0  0  0  0  0  0
  162.5630  210.0220  155.3500 C   0  0  0  0  0  2  0  0  0  0  0  0
  159.1120  209.5810  155.5190 C   0  0  0  0  0  2  0  0  0  0  0  0
  161.0080  211.6050  154.5620 N   0  0  0  0  0  0  0  0  0  0  0  0
  161.6940  209.9290  153.0290 N   0  0  0  0  0  2  0  0  0  0  0  0
  158.9970  210.2820  154.1580 C   0  0  0  0  0  2  0  0  0  0  0  0
  160.3670  208.7000  155.6310 C   0  0  1  0  0  3  0  0  0  0  0  0
  161.8800  210.7060  154.2200 C   0  0  0  0  0  0  0  0  0  0  0  0
  159.6880  211.5340  154.1650 O   0  0  0  0  0  0  0  0  0  0  0  0
  161.5260  209.4360  156.3270 C   0  0  0  0  0  2  0  0  0  0  0  0
  158.9190  206.9040  156.2170 O   0  0  0  0  0  0  0  0  0  0  0  0
  160.9930  206.8630  157.2600 N   0  0  0  0  0  1  0  0  0  0  0  0
  160.0430  207.4480  156.3740 C   0  0  0  0  0  0  0  0  0  0  0  0
  1  2  1  0  0  0  0
  2  6  2  0  0  0  0
  2 16  1  0  0  0  0
  3  6  1  0  0  0  0
  4  1  2  0  0  0  0
  5  1  1  0  0  0  0
  5  3  2  0  0  0  0
  7  9  1  0  0  0  0
  8 11  2  0  0  0  0
  9  3  1  0  0  0  0
  9 12  2  0  0  0  0
 10  7  2  0  0  0  0
 10  8  1  0  0  0  0
 11 12  1  0  0  0  0
 13 15  2  0  0  0  0
 15  8  1  0  0  0  0
 15 14  1  0  0  0  0
 16 17  1  6  0  0  0
 16 21  1  0  0  0  0
 18 26  1  0  0  0  0
 19 23  1  0  0  0  0
 21 24  1  0  0  0  0
 22 25  1  0  0  0  0
 22 19  1  0  0  0  0
 23 26  1  0  0  0  0
 23 29  1  1  0  0  0
 24 20  2  0  0  0  0
 24 18  1  0  0  0  0
 25 20  1  0  0  0  0
 27 29  2  0  0  0  0
 29 28  1  0  0  0  0
M  END
>  <MODEL>
9

>  <REMARK>
 VINA RESULT:      -7.0      2.293      3.420
  Name = 
  5 active torsions:
  status: ('A' for Active; 'I' for Inactive)
    1  A    between atoms: C_7  and  C_23
    2  A    between atoms: N_8  and  C_13
    3  A    between atoms: C_12  and  C_13
    4  A    between atoms: C_14  and  C_16
    5  A    between atoms: C_18  and  C_24
                            x       y       z     vdW  Elec       q    Type
                         _______ _______ _______ _____ _____    ______ ____

>  <TORSDO>
F 5

$$$$
