=
 OpenBabel11042420203D

 51 58  0  0  1  0  0  0  0  0999 V2000
  162.7970  211.0430  149.0000 S   0  0  0  0  0  0  0  0  0  0  0  0
  160.7370  212.7800  149.4080 C   0  0  0  0  0  1  0  0  0  0  0  0
  161.3110  211.8560  148.3490 C   0  0  1  0  0  3  0  0  0  0  0  0
  161.6830  212.6490  147.1110 C   0  0  0  0  0  2  0  0  0  0  0  0
  160.6650  212.4220  146.0090 C   0  0  0  0  0  2  0  0  0  0  0  0
  163.2870  214.2850  140.3850 C   0  0  0  0  0  3  0  0  0  0  0  0
  164.4530  214.2300  139.6180 C   0  0  0  0  0  3  0  0  0  0  0  0
  162.3420  213.4970  144.7840 C   0  0  0  0  0  2  0  0  0  0  0  0
  160.4190  212.7480  143.6950 C   0  0  1  0  0  3  0  0  0  0  0  0
  160.8990  213.3660  144.9280 N   0  0  0  0  0  0  0  0  0  0  0  0
  162.4980  212.2440  139.3520 C   0  0  0  0  0  0  0  0  0  0  0  0
  159.1600  213.4770  143.2160 C   0  0  0  0  0  2  0  0  0  0  0  0
  160.1870  212.0240  138.6420 C   0  0  1  0  0  3  0  0  0  0  0  0
  164.6490  213.1780  138.7240 C   0  0  0  0  0  3  0  0  0  0  0  0
  161.5600  212.7730  142.6580 C   0  0  1  0  0  3  0  0  0  0  0  0
  161.4230  211.3660  139.0380 N   0  0  0  0  0  0  0  0  0  0  0  0
  158.7870  212.9950  141.9310 O   0  0  0  0  0  0  0  0  0  0  0  0
  163.6700  212.1940  138.5840 C   0  0  0  0  0  3  0  0  0  0  0  0
  161.1580  213.3260  141.2710 C   0  0  2  0  0  3  0  0  0  0  0  0
  159.4740  211.2360  137.7360 O   0  0  0  0  0  1  0  0  0  0  0  0
  159.7430  212.8650  140.9210 C   0  0  0  0  0  0  0  0  0  0  0  0
  159.3690  212.3020  139.8080 N   0  0  0  0  0  0  0  0  0  0  0  0
  162.6400  213.5990  143.3100 C   0  0  0  0  0  2  0  0  0  0  0  0
  162.2980  213.2970  140.2670 C   0  0  0  0  0  0  0  0  0  0  0  0
  162.0040  209.3890  140.3110 C   0  0  0  0  0  2  0  0  0  0  0  0
  161.4880  209.9420  139.2210 C   0  0  0  0  0  3  0  0  0  0  0  0
  161.8340  209.8450  149.9790 C   0  0  1  0  0  3  0  0  0  0  0  0
  160.8630  203.4480  149.3320 C   0  0  0  0  0  3  0  0  0  0  0  0
  161.5730  205.6980  148.7590 C   0  0  0  0  0  0  0  0  0  0  0  0
  162.1160  206.6950  147.7660 C   0  0  0  0  0  2  0  0  0  0  0  0
  160.6520  203.8450  150.6550 C   0  0  0  0  0  3  0  0  0  0  0  0
  161.5530  203.8930  146.9860 C   0  0  0  0  0  1  0  0  0  0  0  0
  161.5940  207.4450  150.4950 N   0  0  0  0  0  2  0  0  0  0  0  0
  161.3280  204.3640  148.3830 C   0  0  0  0  0  0  0  0  0  0  0  0
  160.9040  205.1640  151.0380 C   0  0  0  0  0  3  0  0  0  0  0  0
  161.3720  206.0870  150.1000 C   0  0  0  0  0  0  0  0  0  0  0  0
  161.7410  208.1270  148.1420 C   0  0  0  0  0  2  0  0  0  0  0  0
  162.1870  208.4140  149.5750 C   0  0  1  0  0  3  0  0  0  0  0  0
  162.0840  210.0550  151.3990 N   0  0  0  0  0  2  0  0  0  0  0  0
  160.7930  210.1020  152.0680 C   0  0  0  0  0  2  0  0  0  0  0  0
  159.4790  211.5860  153.6320 C   0  0  2  0  0  0  0  0  0  0  0  0
  160.1040  210.4690  154.4360 C   0  0  0  0  0  2  0  0  0  0  0  0
  158.3890  211.2220  152.8330 O   0  0  0  0  0  1  0  0  0  0  0  0
  160.8530  211.0660  153.2450 C   0  0  1  0  0  3  0  0  0  0  0  0
  157.2280  211.2870  156.0280 O   0  0  0  0  0  1  0  0  0  0  0  0
  159.4650  212.9030  154.2720 N   0  0  1  0  0  0  0  0  0  0  0  0
  158.6830  213.8530  153.4550 C   0  0  0  0  0  2  0  0  0  0  0  0
  157.4480  214.4180  154.1580 C   0  0  0  0  0  2  0  0  0  0  0  0
  157.5490  212.6380  155.9080 C   0  0  2  0  0  3  0  0  0  0  0  0
  156.6940  213.2820  154.8210 C   0  0  0  0  0  2  0  0  0  0  0  0
  159.0620  212.8100  155.6890 C   0  0  0  0  0  2  0  0  0  0  0  0
  3  1  1  0  0  0  0
  3  2  1  1  0  0  0
  4  3  1  0  0  0  0
  5  4  1  0  0  0  0
  7  6  2  0  0  0  0
  8 10  1  0  0  0  0
  9 12  1  6  0  0  0
  9 10  1  0  0  0  0
 10  5  1  0  0  0  0
 11 24  2  0  0  0  0
 13 20  1  6  0  0  0
 13 16  1  0  0  0  0
 13 22  1  0  0  0  0
 14  7  1  0  0  0  0
 15 23  1  1  0  0  0
 15  9  1  0  0  0  0
 16 26  1  0  0  0  0
 16 11  1  0  0  0  0
 17 12  1  0  0  0  0
 18 14  2  0  0  0  0
 18 11  1  0  0  0  0
 19 24  1  6  0  0  0
 19 15  1  0  0  0  0
 21 19  1  0  0  0  0
 21 17  1  0  0  0  0
 22 21  2  0  0  0  0
 23  8  1  0  0  0  0
 24  6  1  0  0  0  0
 26 25  2  0  0  0  0
 27  1  1  6  0  0  0
 27 39  1  0  0  0  0
 28 31  1  0  0  0  0
 29 36  2  0  0  0  0
 30 37  1  0  0  0  0
 30 29  1  0  0  0  0
 31 35  2  0  0  0  0
 32 34  1  0  0  0  0
 34 29  1  0  0  0  0
 34 28  2  0  0  0  0
 36 33  1  0  0  0  0
 36 35  1  0  0  0  0
 37 38  1  0  0  0  0
 38 27  1  1  0  0  0
 38 33  1  0  0  0  0
 39 40  1  0  0  0  0
 41 43  1  6  0  0  0
 41 46  1  0  0  0  0
 41 42  1  0  0  0  0
 44 40  1  6  0  0  0
 44 41  1  0  0  0  0
 44 42  1  0  0  0  0
 46 47  1  6  0  0  0
 46 51  1  0  0  0  0
 47 48  1  0  0  0  0
 48 50  1  0  0  0  0
 49 45  1  6  0  0  0
 50 49  1  0  0  0  0
 51 49  1  0  0  0  0
M  END
>  <MODEL>
1

>  <REMARK>
 VINA RESULT:      -8.4      0.000      0.000
  Name = 
  11 active torsions:
  status: ('A' for Active; 'I' for Inactive)
    1  A    between atoms: C_2  and  N_16
    2  A    between atoms: C_3  and  N_11
    3  A    between atoms: C_3  and  S_45
    4  A    between atoms: C_3  and  C_49
    5  A    between atoms: N_10  and  C_27
    6  A    between atoms: N_11  and  C_42
    7  A    between atoms: C_23  and  C_42
    8  A    between atoms: C_24  and  N_33
    9  A    between atoms: C_27  and  C_43
   10  A    between atoms: C_35  and  C_43
   11  A    between atoms: C_35  and  S_45
                            x       y       z     vdW  Elec       q    Type
                         _______ _______ _______ _____ _____    ______ ____

>  <TORSDO>
F 11

$$$$
=
 OpenBabel11042420203D

 51 58  0  0  1  0  0  0  0  0999 V2000
  162.7170  211.1230  149.6320 S   0  0  0  0  0  0  0  0  0  0  0  0
  160.7870  213.0420  149.4960 C   0  0  0  0  0  1  0  0  0  0  0  0
  161.3360  211.8620  148.7140 C   0  0  1  0  0  3  0  0  0  0  0  0
  161.8350  212.3210  147.3580 C   0  0  0  0  0  2  0  0  0  0  0  0
  160.7280  212.2210  146.3240 C   0  0  0  0  0  2  0  0  0  0  0  0
  163.1890  214.1520  140.6510 C   0  0  0  0  0  3  0  0  0  0  0  0
  164.3160  214.0670  139.8290 C   0  0  0  0  0  3  0  0  0  0  0  0
  162.4010  213.2550  145.0600 C   0  0  0  0  0  2  0  0  0  0  0  0
  160.3960  212.6400  144.0360 C   0  0  1  0  0  3  0  0  0  0  0  0
  160.9610  213.1900  145.2660 N   0  0  0  0  0  0  0  0  0  0  0  0
  162.2540  212.1890  139.5880 C   0  0  0  0  0  0  0  0  0  0  0  0
  159.1560  213.4460  143.6400 C   0  0  0  0  0  2  0  0  0  0  0  0
  159.9060  212.1070  138.9770 C   0  0  1  0  0  3  0  0  0  0  0  0
  164.4190  213.0390  138.8930 C   0  0  0  0  0  3  0  0  0  0  0  0
  161.4910  212.6460  142.9490 C   0  0  1  0  0  3  0  0  0  0  0  0
  161.1230  211.3760  139.2940 N   0  0  0  0  0  0  0  0  0  0  0  0
  158.7030  213.0280  142.3580 O   0  0  0  0  0  0  0  0  0  0  0  0
  163.3870  212.1100  138.7660 C   0  0  0  0  0  3  0  0  0  0  0  0
  161.0560  213.2660  141.6010 C   0  0  2  0  0  3  0  0  0  0  0  0
  159.1150  211.3870  138.0800 O   0  0  0  0  0  1  0  0  0  0  0  0
  159.6050  212.8880  141.3010 C   0  0  0  0  0  0  0  0  0  0  0  0
  159.1560  212.3830  140.1890 N   0  0  0  0  0  0  0  0  0  0  0  0
  162.6380  213.3950  143.5780 C   0  0  0  0  0  2  0  0  0  0  0  0
  162.1480  213.2180  140.5460 C   0  0  0  0  0  0  0  0  0  0  0  0
  161.4850  209.1400  138.4360 C   0  0  0  0  0  2  0  0  0  0  0  0
  161.1250  209.9450  139.4270 C   0  0  0  0  0  3  0  0  0  0  0  0
  161.6240  210.0120  150.5770 C   0  0  1  0  0  3  0  0  0  0  0  0
  160.9800  203.5580  151.0530 C   0  0  0  0  0  3  0  0  0  0  0  0
  161.4010  205.7220  150.0330 C   0  0  0  0  0  0  0  0  0  0  0  0
  161.6590  206.5760  148.8180 C   0  0  0  0  0  2  0  0  0  0  0  0
  161.0190  204.1430  152.3220 C   0  0  0  0  0  3  0  0  0  0  0  0
  161.1410  203.6700  148.5750 C   0  0  0  0  0  1  0  0  0  0  0  0
  161.6590  207.7100  151.4620 N   0  0  0  0  0  2  0  0  0  0  0  0
  161.1760  204.3370  149.9090 C   0  0  0  0  0  0  0  0  0  0  0  0
  161.2540  205.5130  152.4540 C   0  0  0  0  0  3  0  0  0  0  0  0
  161.4540  206.3010  151.3180 C   0  0  0  0  0  0  0  0  0  0  0  0
  161.2720  208.0330  149.0610 C   0  0  0  0  0  2  0  0  0  0  0  0
  161.9830  208.5510  150.3110 C   0  0  1  0  0  3  0  0  0  0  0  0
  161.7220  210.3150  151.9980 N   0  0  0  0  0  2  0  0  0  0  0  0
  160.5390  211.0760  152.3670 C   0  0  0  0  0  2  0  0  0  0  0  0
  159.6920  211.1900  154.7420 C   0  0  2  0  0  0  0  0  0  0  0  0
  158.5050  211.1250  153.8090 C   0  0  0  0  0  2  0  0  0  0  0  0
  160.3710  212.4130  154.7760 O   0  0  0  0  0  1  0  0  0  0  0  0
  159.7840  210.3560  153.4760 C   0  0  1  0  0  3  0  0  0  0  0  0
  162.8150  210.6350  155.6570 O   0  0  0  0  0  1  0  0  0  0  0  0
  159.5670  210.4280  155.9870 N   0  0  1  0  0  0  0  0  0  0  0  0
  159.2500  209.0170  155.6850 C   0  0  0  0  0  2  0  0  0  0  0  0
  160.3100  208.0200  156.1540 C   0  0  0  0  0  2  0  0  0  0  0  0
  161.9880  209.8480  156.4570 C   0  0  2  0  0  3  0  0  0  0  0  0
  161.6800  208.5300  155.7510 C   0  0  0  0  0  2  0  0  0  0  0  0
  160.7330  210.6370  156.8680 C   0  0  0  0  0  2  0  0  0  0  0  0
  3  2  1  1  0  0  0
  3  1  1  0  0  0  0
  4  3  1  0  0  0  0
  5  4  1  0  0  0  0
  7  6  2  0  0  0  0
  8 10  1  0  0  0  0
  9 12  1  6  0  0  0
  9 10  1  0  0  0  0
 10  5  1  0  0  0  0
 11 24  2  0  0  0  0
 13 20  1  6  0  0  0
 13 16  1  0  0  0  0
 13 22  1  0  0  0  0
 14  7  1  0  0  0  0
 15 23  1  1  0  0  0
 15  9  1  0  0  0  0
 16 26  1  0  0  0  0
 16 11  1  0  0  0  0
 17 12  1  0  0  0  0
 18 14  2  0  0  0  0
 18 11  1  0  0  0  0
 19 24  1  6  0  0  0
 19 15  1  0  0  0  0
 21 19  1  0  0  0  0
 21 17  1  0  0  0  0
 22 21  2  0  0  0  0
 23  8  1  0  0  0  0
 24  6  1  0  0  0  0
 25 26  2  0  0  0  0
 27  1  1  6  0  0  0
 27 39  1  0  0  0  0
 28 31  1  0  0  0  0
 29 36  2  0  0  0  0
 30 37  1  0  0  0  0
 30 29  1  0  0  0  0
 31 35  2  0  0  0  0
 32 34  1  0  0  0  0
 34 29  1  0  0  0  0
 34 28  2  0  0  0  0
 36 33  1  0  0  0  0
 36 35  1  0  0  0  0
 37 38  1  0  0  0  0
 38 27  1  1  0  0  0
 38 33  1  0  0  0  0
 39 40  1  0  0  0  0
 41 43  1  1  0  0  0
 41 46  1  0  0  0  0
 42 41  1  0  0  0  0
 44 40  1  6  0  0  0
 44 42  1  0  0  0  0
 44 41  1  0  0  0  0
 46 47  1  6  0  0  0
 46 51  1  0  0  0  0
 47 48  1  0  0  0  0
 49 45  1  6  0  0  0
 49 51  1  0  0  0  0
 50 48  1  0  0  0  0
 50 49  1  0  0  0  0
M  END
>  <MODEL>
2

>  <REMARK>
 VINA RESULT:      -8.3      1.427      2.230
  Name = 
  11 active torsions:
  status: ('A' for Active; 'I' for Inactive)
    1  A    between atoms: C_2  and  N_16
    2  A    between atoms: C_3  and  N_11
    3  A    between atoms: C_3  and  S_45
    4  A    between atoms: C_3  and  C_49
    5  A    between atoms: N_10  and  C_27
    6  A    between atoms: N_11  and  C_42
    7  A    between atoms: C_23  and  C_42
    8  A    between atoms: C_24  and  N_33
    9  A    between atoms: C_27  and  C_43
   10  A    between atoms: C_35  and  C_43
   11  A    between atoms: C_35  and  S_45
                            x       y       z     vdW  Elec       q    Type
                         _______ _______ _______ _____ _____    ______ ____

>  <TORSDO>
F 11

$$$$
=
 OpenBabel11042420203D

 51 58  0  0  1  0  0  0  0  0999 V2000
  160.6690  205.3030  151.3460 S   0  0  0  0  0  0  0  0  0  0  0  0
  162.9550  206.1670  152.5500 C   0  0  0  0  0  1  0  0  0  0  0  0
  161.4970  205.8770  152.8560 C   0  0  1  0  0  3  0  0  0  0  0  0
  160.8080  207.1340  153.3500 C   0  0  0  0  0  2  0  0  0  0  0  0
  161.3890  207.5680  154.6830 C   0  0  0  0  0  2  0  0  0  0  0  0
  159.3270  213.5380  153.2400 C   0  0  0  0  0  3  0  0  0  0  0  0
  158.7890  214.3230  152.2160 C   0  0  0  0  0  3  0  0  0  0  0  0
  161.4470  209.4940  153.3580 C   0  0  0  0  0  2  0  0  0  0  0  0
  160.2150  209.4950  155.3400 C   0  0  1  0  0  3  0  0  0  0  0  0
  161.4570  209.0190  154.7350 N   0  0  0  0  0  0  0  0  0  0  0  0
  157.0970  212.9310  153.9580 C   0  0  0  0  0  0  0  0  0  0  0  0
  160.5110  210.0600  156.7330 C   0  0  0  0  0  2  0  0  0  0  0  0
  156.5200  212.8870  156.3160 C   0  0  1  0  0  3  0  0  0  0  0  0
  157.4070  214.4050  152.0550 C   0  0  0  0  0  3  0  0  0  0  0  0
  159.5750  210.5310  154.3940 C   0  0  1  0  0  3  0  0  0  0  0  0
  156.2300  212.4250  154.9680 N   0  0  0  0  0  0  0  0  0  0  0  0
  159.3420  210.6780  157.2550 O   0  0  0  0  0  0  0  0  0  0  0  0
  156.5630  213.7210  152.9300 C   0  0  0  0  0  3  0  0  0  0  0  0
  159.1550  211.8540  155.0760 C   0  0  2  0  0  3  0  0  0  0  0  0
  155.3520  212.9610  157.0770 O   0  0  0  0  0  1  0  0  0  0  0  0
  158.5990  211.5630  156.4700 C   0  0  0  0  0  0  0  0  0  0  0  0
  157.4740  212.0000  156.9570 N   0  0  0  0  0  0  0  0  0  0  0  0
  160.6100  210.7470  153.3190 C   0  0  0  0  0  2  0  0  0  0  0  0
  158.4930  212.8310  154.1200 C   0  0  0  0  0  0  0  0  0  0  0  0
  155.3790  210.1590  155.0700 C   0  0  0  0  0  2  0  0  0  0  0  0
  155.2240  211.4280  154.7170 C   0  0  0  0  0  3  0  0  0  0  0  0
  161.6400  206.4110  150.2730 C   0  0  1  0  0  3  0  0  0  0  0  0
  160.6540  202.1480  145.4630 C   0  0  0  0  0  3  0  0  0  0  0  0
  161.1180  204.2720  146.5440 C   0  0  0  0  0  0  0  0  0  0  0  0
  161.3260  205.7640  146.4810 C   0  0  0  0  0  2  0  0  0  0  0  0
  160.8320  201.4830  146.6780 C   0  0  0  0  0  3  0  0  0  0  0  0
  160.6170  204.2030  144.0650 C   0  0  0  0  0  1  0  0  0  0  0  0
  161.6110  204.3250  148.9560 N   0  0  0  0  0  2  0  0  0  0  0  0
  160.8010  203.5360  145.3860 C   0  0  0  0  0  0  0  0  0  0  0  0
  161.1590  202.2050  147.8290 C   0  0  0  0  0  3  0  0  0  0  0  0
  161.3110  203.5910  147.7650 C   0  0  0  0  0  0  0  0  0  0  0  0
  161.0480  206.4300  147.8270 C   0  0  0  0  0  2  0  0  0  0  0  0
  161.8890  205.7600  148.9130 C   0  0  1  0  0  3  0  0  0  0  0  0
  160.9440  207.6810  150.1170 N   0  0  0  0  0  2  0  0  0  0  0  0
  161.9530  208.7190  149.9730 C   0  0  0  0  0  2  0  0  0  0  0  0
  161.7100  210.9950  148.9080 C   0  0  2  0  0  0  0  0  0  0  0  0
  162.9550  210.3360  148.3620 C   0  0  0  0  0  2  0  0  0  0  0  0
  161.7980  211.4630  150.2240 O   0  0  0  0  0  1  0  0  0  0  0  0
  161.7220  209.4930  148.6820 C   0  0  1  0  0  3  0  0  0  0  0  0
  163.6750  213.5240  148.1080 O   0  0  0  0  0  1  0  0  0  0  0  0
  160.9210  211.7670  147.9440 N   0  0  1  0  0  0  0  0  0  0  0  0
  159.9160  212.5820  148.6540 C   0  0  0  0  0  2  0  0  0  0  0  0
  160.0830  214.0900  148.4680 C   0  0  0  0  0  2  0  0  0  0  0  0
  162.4070  213.7900  147.5970 C   0  0  2  0  0  3  0  0  0  0  0  0
  161.5420  214.4530  148.6650 C   0  0  0  0  0  2  0  0  0  0  0  0
  161.7880  212.5090  147.0090 C   0  0  0  0  0  2  0  0  0  0  0  0
  1  3  1  0  0  0  0
  3  2  1  6  0  0  0
  3  4  1  0  0  0  0
  4  5  1  0  0  0  0
  5 10  1  0  0  0  0
  6 24  1  0  0  0  0
  7  6  2  0  0  0  0
  8 10  1  0  0  0  0
  9 12  1  1  0  0  0
 10  9  1  0  0  0  0
 11 24  2  0  0  0  0
 11 16  1  0  0  0  0
 12 17  1  0  0  0  0
 13 22  1  0  0  0  0
 13 20  1  1  0  0  0
 14  7  1  0  0  0  0
 14 18  2  0  0  0  0
 15 23  1  6  0  0  0
 15 19  1  0  0  0  0
 15  9  1  0  0  0  0
 16 13  1  0  0  0  0
 18 11  1  0  0  0  0
 19 24  1  6  0  0  0
 19 21  1  0  0  0  0
 21 22  2  0  0  0  0
 21 17  1  0  0  0  0
 23  8  1  0  0  0  0
 26 16  1  0  0  0  0
 26 25  2  0  0  0  0
 27 39  1  6  0  0  0
 27  1  1  0  0  0  0
 28 31  1  0  0  0  0
 29 36  2  0  0  0  0
 30 29  1  0  0  0  0
 30 37  1  0  0  0  0
 31 35  2  0  0  0  0
 32 34  1  0  0  0  0
 34 28  2  0  0  0  0
 34 29  1  0  0  0  0
 36 35  1  0  0  0  0
 36 33  1  0  0  0  0
 37 38  1  0  0  0  0
 38 33  1  0  0  0  0
 38 27  1  1  0  0  0
 40 39  1  0  0  0  0
 41 43  1  1  0  0  0
 42 44  1  0  0  0  0
 42 41  1  0  0  0  0
 44 41  1  0  0  0  0
 44 40  1  1  0  0  0
 46 51  1  1  0  0  0
 46 47  1  0  0  0  0
 46 41  1  0  0  0  0
 48 47  1  0  0  0  0
 48 50  1  0  0  0  0
 49 45  1  1  0  0  0
 49 50  1  0  0  0  0
 51 49  1  0  0  0  0
M  END
>  <MODEL>
3

>  <REMARK>
 VINA RESULT:      -6.5      4.794     10.568
  Name = 
  11 active torsions:
  status: ('A' for Active; 'I' for Inactive)
    1  A    between atoms: C_2  and  N_16
    2  A    between atoms: C_3  and  N_11
    3  A    between atoms: C_3  and  S_45
    4  A    between atoms: C_3  and  C_49
    5  A    between atoms: N_10  and  C_27
    6  A    between atoms: N_11  and  C_42
    7  A    between atoms: C_23  and  C_42
    8  A    between atoms: C_24  and  N_33
    9  A    between atoms: C_27  and  C_43
   10  A    between atoms: C_35  and  C_43
   11  A    between atoms: C_35  and  S_45
                            x       y       z     vdW  Elec       q    Type
                         _______ _______ _______ _____ _____    ______ ____

>  <TORSDO>
F 11

$$$$
=
 OpenBabel11042420203D

 51 58  0  0  1  0  0  0  0  0999 V2000
  161.3070  210.8080  148.5500 S   0  0  0  0  0  0  0  0  0  0  0  0
  163.8360  211.8190  148.6260 C   0  0  0  0  0  1  0  0  0  0  0  0
  162.4190  212.2100  148.2470 C   0  0  1  0  0  3  0  0  0  0  0  0
  162.3560  212.5810  146.7780 C   0  0  0  0  0  2  0  0  0  0  0  0
  161.0210  213.2270  146.4510 C   0  0  0  0  0  2  0  0  0  0  0  0
  163.1810  214.1660  140.4160 C   0  0  0  0  0  3  0  0  0  0  0  0
  164.3010  214.0300  139.5910 C   0  0  0  0  0  3  0  0  0  0  0  0
  162.5530  214.1430  144.9400 C   0  0  0  0  0  2  0  0  0  0  0  0
  160.6170  213.1150  144.1390 C   0  0  1  0  0  3  0  0  0  0  0  0
  161.1310  213.9690  145.2060 N   0  0  0  0  0  0  0  0  0  0  0  0
  162.4580  211.9350  139.8200 C   0  0  0  0  0  0  0  0  0  0  0  0
  159.2890  213.6820  143.6270 C   0  0  0  0  0  2  0  0  0  0  0  0
  160.1270  211.4750  139.3240 C   0  0  1  0  0  3  0  0  0  0  0  0
  164.5070  212.8440  138.8870 C   0  0  0  0  0  3  0  0  0  0  0  0
  161.6900  213.0080  143.0370 C   0  0  1  0  0  3  0  0  0  0  0  0
  161.4220  210.9620  139.7430 N   0  0  0  0  0  0  0  0  0  0  0  0
  158.8700  212.9560  142.4780 O   0  0  0  0  0  0  0  0  0  0  0  0
  163.5830  211.8050  138.9930 C   0  0  0  0  0  3  0  0  0  0  0  0
  161.1720  213.2790  141.6050 C   0  0  2  0  0  3  0  0  0  0  0  0
  159.4100  210.5020  138.6250 O   0  0  0  0  0  1  0  0  0  0  0  0
  159.7690  212.6930  141.4430 C   0  0  0  0  0  0  0  0  0  0  0  0
  159.3650  211.9190  140.4770 N   0  0  0  0  0  0  0  0  0  0  0  0
  162.7540  213.9910  143.4540 C   0  0  0  0  0  2  0  0  0  0  0  0
  162.2490  213.1250  140.5450 C   0  0  0  0  0  0  0  0  0  0  0  0
  161.9560  208.6330  139.3410 C   0  0  0  0  0  2  0  0  0  0  0  0
  161.5860  209.6000  140.1710 C   0  0  0  0  0  3  0  0  0  0  0  0
  162.2860  210.2100  149.9660 C   0  0  1  0  0  3  0  0  0  0  0  0
  157.6560  212.5670  153.8780 C   0  0  0  0  0  3  0  0  0  0  0  0
  159.5490  211.2220  153.1660 C   0  0  0  0  0  0  0  0  0  0  0  0
  160.5420  210.1140  153.4090 C   0  0  0  0  0  2  0  0  0  0  0  0
  157.7750  213.3530  152.7300 C   0  0  0  0  0  3  0  0  0  0  0  0
  158.3860  210.7030  155.3530 C   0  0  0  0  0  1  0  0  0  0  0  0
  160.6760  211.7420  151.0400 N   0  0  0  0  0  2  0  0  0  0  0  0
  158.5400  211.5080  154.1060 C   0  0  0  0  0  0  0  0  0  0  0  0
  158.7810  213.0840  151.7990 C   0  0  0  0  0  3  0  0  0  0  0  0
  159.6720  212.0310  152.0170 C   0  0  0  0  0  0  0  0  0  0  0  0
  161.1130  209.5720  152.1000 C   0  0  0  0  0  2  0  0  0  0  0  0
  161.6960  210.7220  151.2800 C   0  0  1  0  0  3  0  0  0  0  0  0
  162.3300  208.7540  149.9550 N   0  0  0  0  0  2  0  0  0  0  0  0
  161.6360  208.3040  148.7580 C   0  0  0  0  0  2  0  0  0  0  0  0
  161.6080  205.9900  147.7490 C   0  0  2  0  0  0  0  0  0  0  0  0
  161.9040  206.9900  146.6560 C   0  0  0  0  0  2  0  0  0  0  0  0
  160.2850  205.9620  148.2040 O   0  0  0  0  0  1  0  0  0  0  0  0
  162.4470  207.2160  148.0670 C   0  0  1  0  0  3  0  0  0  0  0  0
  161.4610  205.1600  144.5570 O   0  0  0  0  0  1  0  0  0  0  0  0
  162.3470  204.7270  147.6760 N   0  0  1  0  0  0  0  0  0  0  0  0
  161.4980  203.6180  148.1550 C   0  0  0  0  0  2  0  0  0  0  0  0
  161.2060  202.5490  147.1010 C   0  0  0  0  0  2  0  0  0  0  0  0
  161.9570  204.0650  145.2620 C   0  0  2  0  0  3  0  0  0  0  0  0
  160.8040  203.2280  145.8070 C   0  0  0  0  0  2  0  0  0  0  0  0
  162.9480  204.5300  146.3430 C   0  0  0  0  0  2  0  0  0  0  0  0
  3  1  1  0  0  0  0
  3  2  1  6  0  0  0
  4  3  1  0  0  0  0
  5  4  1  0  0  0  0
  6 24  1  0  0  0  0
  7  6  2  0  0  0  0
  8 10  1  0  0  0  0
  9 12  1  6  0  0  0
  9 10  1  0  0  0  0
 10  5  1  0  0  0  0
 11 24  2  0  0  0  0
 13 20  1  1  0  0  0
 13 16  1  0  0  0  0
 13 22  1  0  0  0  0
 14 18  2  0  0  0  0
 14  7  1  0  0  0  0
 15 23  1  1  0  0  0
 15  9  1  0  0  0  0
 16 11  1  0  0  0  0
 16 26  1  0  0  0  0
 17 12  1  0  0  0  0
 18 11  1  0  0  0  0
 19 24  1  6  0  0  0
 19 15  1  0  0  0  0
 21 19  1  0  0  0  0
 21 17  1  0  0  0  0
 22 21  2  0  0  0  0
 23  8  1  0  0  0  0
 25 26  2  0  0  0  0
 27  1  1  6  0  0  0
 28 34  1  0  0  0  0
 29 30  1  0  0  0  0
 29 34  2  0  0  0  0
 31 28  2  0  0  0  0
 33 38  1  0  0  0  0
 33 36  1  0  0  0  0
 34 32  1  0  0  0  0
 35 36  2  0  0  0  0
 35 31  1  0  0  0  0
 36 29  1  0  0  0  0
 37 30  1  0  0  0  0
 38 27  1  6  0  0  0
 38 37  1  0  0  0  0
 39 27  1  0  0  0  0
 40 39  1  0  0  0  0
 41 44  1  0  0  0  0
 41 43  1  1  0  0  0
 42 41  1  0  0  0  0
 42 44  1  0  0  0  0
 44 40  1  1  0  0  0
 46 51  1  6  0  0  0
 46 41  1  0  0  0  0
 46 47  1  0  0  0  0
 48 47  1  0  0  0  0
 49 45  1  1  0  0  0
 49 50  1  0  0  0  0
 49 51  1  0  0  0  0
 50 48  1  0  0  0  0
M  END
>  <MODEL>
4

>  <REMARK>
 VINA RESULT:      -6.1      2.166      6.579
  Name = 
  11 active torsions:
  status: ('A' for Active; 'I' for Inactive)
    1  A    between atoms: C_2  and  N_16
    2  A    between atoms: C_3  and  N_11
    3  A    between atoms: C_3  and  S_45
    4  A    between atoms: C_3  and  C_49
    5  A    between atoms: N_10  and  C_27
    6  A    between atoms: N_11  and  C_42
    7  A    between atoms: C_23  and  C_42
    8  A    between atoms: C_24  and  N_33
    9  A    between atoms: C_27  and  C_43
   10  A    between atoms: C_35  and  C_43
   11  A    between atoms: C_35  and  S_45
                            x       y       z     vdW  Elec       q    Type
                         _______ _______ _______ _____ _____    ______ ____

>  <TORSDO>
F 11

$$$$
