=
 OpenBabel11052410493D

 28 34  0  0  1  0  0  0  0  0999 V2000
  161.3250  204.4550  150.0200 C   0  0  2  0  0  0  0  0  0  0  0  0
  161.1780  201.0280  148.4170 O   0  0  0  0  0  0  0  0  0  0  0  0
  161.2880  202.2940  151.6710 C   0  0  0  0  0  3  0  0  0  0  0  0
  161.3030  203.6430  151.2700 N   0  0  0  0  0  0  0  0  0  0  0  0
  161.1440  201.8860  149.3380 C   0  0  0  0  0  0  0  0  0  0  0  0
  160.8850  203.3700  148.9880 C   0  0  2  0  0  3  0  0  0  0  0  0
  160.7050  204.9840  151.1740 C   0  0  2  0  0  0  0  0  0  0  0  0
  160.2220  205.4030  149.8880 N   0  0  0  0  0  2  0  0  0  0  0  0
  161.2380  201.4340  150.7070 N   0  0  0  0  0  0  0  0  0  0  0  0
  162.3550  204.3870  145.1160 N   0  0  0  0  0  0  0  0  0  0  0  0
  161.3950  203.7190  147.6210 C   0  0  0  0  0  0  0  0  0  0  0  0
  161.3940  203.4300  145.2250 C   0  0  0  0  0  3  0  0  0  0  0  0
  160.8950  203.0770  146.4810 C   0  0  0  0  0  3  0  0  0  0  0  0
  162.8520  205.0230  146.2110 C   0  0  0  0  0  3  0  0  0  0  0  0
  162.3800  204.6990  147.4850 C   0  0  0  0  0  3  0  0  0  0  0  0
  161.6350  206.0260  151.7680 C   0  0  0  0  0  2  0  0  0  0  0  0
  161.4390  207.2540  153.9650 C   0  0  1  0  0  3  0  0  0  0  0  0
  160.3740  207.8390  156.1260 C   0  0  0  0  0  2  0  0  0  0  0  0
  160.8470  207.0520  152.5770 C   0  0  1  0  0  3  0  0  0  0  0  0
  160.7260  209.6160  152.9230 C   0  0  0  0  0  3  0  0  0  0  0  0
  160.7170  208.4700  151.9000 C   0  0  1  0  0  3  0  0  0  0  0  0
  160.5460  209.3550  154.2390 C   0  0  0  0  0  3  0  0  0  0  0  0
  160.2240  207.9360  154.6250 C   0  0  1  0  0  0  0  0  0  0  0  0
  160.8960  206.7210  155.2490 C   0  0  1  0  0  3  0  0  0  0  0  0
  162.7770  209.3950  151.0960 O   0  0  0  0  0  0  0  0  0  0  0  0
  161.5100  208.2410  149.5140 N   0  0  0  0  0  2  0  0  0  0  0  0
  162.4410  208.4640  148.4920 N   0  0  0  0  0  1  0  0  0  0  0  0
  161.7310  208.7420  150.8310 C   0  0  0  0  0  0  0  0  0  0  0  0
  1  8  1  1  0  0  0
  1  7  1  0  0  0  0
  1  4  1  0  0  0  0
  2  5  2  0  0  0  0
  4  3  1  0  0  0  0
  5  9  1  0  0  0  0
  6 11  1  6  0  0  0
  6  5  1  0  0  0  0
  6  1  1  0  0  0  0
  7  4  1  0  0  0  0
  7 16  1  1  0  0  0
  8  7  1  0  0  0  0
  9  3  2  0  0  0  0
 10 12  2  0  0  0  0
 10 14  1  0  0  0  0
 12 13  1  0  0  0  0
 13 11  2  0  0  0  0
 14 15  2  0  0  0  0
 15 11  1  0  0  0  0
 16 19  1  0  0  0  0
 17 23  1  0  0  0  0
 17 24  1  0  0  0  0
 19 17  1  0  0  0  0
 20 22  2  0  0  0  0
 21 19  1  0  0  0  0
 21 20  1  0  0  0  0
 22 23  1  0  0  0  0
 23 24  1  0  0  0  0
 23 18  1  0  0  0  0
 24 18  1  0  0  0  0
 26 28  1  0  0  0  0
 27 26  1  0  0  0  0
 28 25  2  0  0  0  0
 28 21  1  0  0  0  0
M  END
>  <MODEL>
1

>  <REMARK>
 VINA RESULT:      -9.3      0.000      0.000
  Name = 
  4 active torsions:
  status: ('A' for Active; 'I' for Inactive)
    1  A    between atoms: C_6  and  C_15
    2  A    between atoms: C_12  and  C_27
    3  A    between atoms: C_13  and  C_19
    4  A    between atoms: C_15  and  C_22
                            x       y       z     vdW  Elec       q    Type
                         _______ _______ _______ _____ _____    ______ ____

>  <TORSDO>
F 4

$$$$
=
 OpenBabel11052410493D

 28 34  0  0  1  0  0  0  0  0999 V2000
  160.8860  208.4070  151.6540 C   0  0  2  0  0  0  0  0  0  0  0  0
  160.7000  209.4760  155.2820 O   0  0  0  0  0  0  0  0  0  0  0  0
  161.4250  206.5310  153.5480 C   0  0  0  0  0  3  0  0  0  0  0  0
  161.2640  207.1050  152.2730 N   0  0  0  0  0  0  0  0  0  0  0  0
  160.9530  208.7320  154.2980 C   0  0  0  0  0  0  0  0  0  0  0  0
  161.0660  209.3500  152.8840 C   0  0  2  0  0  3  0  0  0  0  0  0
  161.7750  207.5510  150.9670 C   0  0  2  0  0  0  0  0  0  0  0  0
  161.8850  208.9660  150.7480 N   0  0  0  0  0  2  0  0  0  0  0  0
  161.2410  207.3380  154.5420 N   0  0  0  0  0  0  0  0  0  0  0  0
  158.6290  212.8230  152.4450 N   0  0  0  0  0  0  0  0  0  0  0  0
  160.1990  210.5670  152.7360 C   0  0  0  0  0  0  0  0  0  0  0  0
  158.1610  211.7780  153.1800 C   0  0  0  0  0  3  0  0  0  0  0  0
  158.9370  210.6290  153.3400 C   0  0  0  0  0  3  0  0  0  0  0  0
  159.8520  212.7820  151.8510 C   0  0  0  0  0  3  0  0  0  0  0  0
  160.6600  211.6510  151.9870 C   0  0  0  0  0  3  0  0  0  0  0  0
  161.0070  206.8860  149.8400 C   0  0  0  0  0  2  0  0  0  0  0  0
  160.4350  204.4370  150.0510 C   0  0  1  0  0  3  0  0  0  0  0  0
  160.6520  202.1500  150.9860 C   0  0  0  0  0  2  0  0  0  0  0  0
  161.4890  205.4530  149.6320 C   0  0  1  0  0  3  0  0  0  0  0  0
  161.5970  203.6610  147.7650 C   0  0  0  0  0  3  0  0  0  0  0  0
  161.9280  205.1090  148.1590 C   0  0  1  0  0  3  0  0  0  0  0  0
  161.2640  202.7570  148.7170 C   0  0  0  0  0  3  0  0  0  0  0  0
  161.3520  203.2000  150.1530 C   0  0  1  0  0  0  0  0  0  0  0  0
  160.4380  203.6160  151.2980 C   0  0  1  0  0  3  0  0  0  0  0  0
  161.6170  207.2860  147.2030 O   0  0  0  0  0  0  0  0  0  0  0  0
  160.6510  205.5230  146.0200 N   0  0  0  0  0  2  0  0  0  0  0  0
  160.1490  206.3670  145.0210 N   0  0  0  0  0  1  0  0  0  0  0  0
  161.3960  206.0470  147.1180 C   0  0  0  0  0  0  0  0  0  0  0  0
  1  8  1  1  0  0  0
  1  4  1  0  0  0  0
  1  6  1  0  0  0  0
  3  9  2  0  0  0  0
  4  3  1  0  0  0  0
  5  9  1  0  0  0  0
  5  2  2  0  0  0  0
  6 11  1  1  0  0  0
  6  5  1  0  0  0  0
  7 16  1  6  0  0  0
  7  1  1  0  0  0  0
  7  4  1  0  0  0  0
  8  7  1  0  0  0  0
 10 12  1  0  0  0  0
 11 13  1  0  0  0  0
 12 13  2  0  0  0  0
 14 15  1  0  0  0  0
 14 10  2  0  0  0  0
 15 11  2  0  0  0  0
 17 23  1  0  0  0  0
 17 24  1  0  0  0  0
 18 24  1  0  0  0  0
 19 16  1  0  0  0  0
 19 17  1  0  0  0  0
 20 21  1  0  0  0  0
 20 22  2  0  0  0  0
 21 19  1  0  0  0  0
 22 23  1  0  0  0  0
 23 18  1  0  0  0  0
 23 24  1  0  0  0  0
 26 28  1  0  0  0  0
 27 26  1  0  0  0  0
 28 25  2  0  0  0  0
 28 21  1  0  0  0  0
M  END
>  <MODEL>
2

>  <REMARK>
 VINA RESULT:      -8.4      2.553      7.126
  Name = 
  4 active torsions:
  status: ('A' for Active; 'I' for Inactive)
    1  A    between atoms: C_6  and  C_15
    2  A    between atoms: C_12  and  C_27
    3  A    between atoms: C_13  and  C_19
    4  A    between atoms: C_15  and  C_22
                            x       y       z     vdW  Elec       q    Type
                         _______ _______ _______ _____ _____    ______ ____

>  <TORSDO>
F 4

$$$$
=
 OpenBabel11052410493D

 28 34  0  0  1  0  0  0  0  0999 V2000
  161.0110  207.9100  151.5170 C   0  0  2  0  0  0  0  0  0  0  0  0
  160.8300  208.9170  155.1630 O   0  0  0  0  0  0  0  0  0  0  0  0
  161.3550  205.9590  153.3800 C   0  0  0  0  0  3  0  0  0  0  0  0
  161.2690  206.5690  152.1150 N   0  0  0  0  0  0  0  0  0  0  0  0
  161.0450  208.1750  154.1680 C   0  0  0  0  0  0  0  0  0  0  0  0
  161.2390  208.8100  152.7710 C   0  0  2  0  0  3  0  0  0  0  0  0
  161.8440  206.9990  150.8300 C   0  0  2  0  0  0  0  0  0  0  0  0
  162.0720  208.4040  150.6440 N   0  0  0  0  0  2  0  0  0  0  0  0
  161.2140  206.7570  154.3870 N   0  0  0  0  0  0  0  0  0  0  0  0
  159.0450  212.4480  152.3910 N   0  0  0  0  0  0  0  0  0  0  0  0
  160.4760  210.0950  152.6310 C   0  0  0  0  0  0  0  0  0  0  0  0
  160.2410  212.3310  151.7540 C   0  0  0  0  0  3  0  0  0  0  0  0
  160.9810  211.1510  151.8620 C   0  0  0  0  0  3  0  0  0  0  0  0
  158.5370  211.4330  153.1420 C   0  0  0  0  0  3  0  0  0  0  0  0
  159.2450  210.2370  153.2750 C   0  0  0  0  0  3  0  0  0  0  0  0
  161.0510  206.4220  149.6720 C   0  0  0  0  0  2  0  0  0  0  0  0
  160.3980  203.9830  149.6470 C   0  0  1  0  0  3  0  0  0  0  0  0
  160.4980  201.6210  150.3950 C   0  0  0  0  0  2  0  0  0  0  0  0
  161.5020  204.9950  149.3700 C   0  0  1  0  0  3  0  0  0  0  0  0
  161.6580  203.3610  147.3660 C   0  0  0  0  0  3  0  0  0  0  0  0
  162.0100  204.7590  147.8970 C   0  0  1  0  0  3  0  0  0  0  0  0
  161.2480  202.3930  148.2200 C   0  0  0  0  0  3  0  0  0  0  0  0
  161.2720  202.7130  149.6910 C   0  0  1  0  0  0  0  0  0  0  0  0
  160.3100  203.0620  150.8180 C   0  0  1  0  0  3  0  0  0  0  0  0
  162.0130  206.9730  146.9770 O   0  0  0  0  0  0  0  0  0  0  0  0
  160.6310  205.4390  145.8930 N   0  0  0  0  0  2  0  0  0  0  0  0
  160.1990  206.3780  144.9480 N   0  0  0  0  0  1  0  0  0  0  0  0
  161.5620  205.7970  146.9130 C   0  0  0  0  0  0  0  0  0  0  0  0
  1  8  1  1  0  0  0
  1  4  1  0  0  0  0
  1  6  1  0  0  0  0
  3  9  2  0  0  0  0
  4  3  1  0  0  0  0
  5  9  1  0  0  0  0
  5  2  2  0  0  0  0
  6 11  1  6  0  0  0
  6  5  1  0  0  0  0
  7 16  1  6  0  0  0
  7  1  1  0  0  0  0
  7  4  1  0  0  0  0
  8  7  1  0  0  0  0
 10 14  1  0  0  0  0
 11 15  1  0  0  0  0
 12 13  1  0  0  0  0
 12 10  2  0  0  0  0
 13 11  2  0  0  0  0
 14 15  2  0  0  0  0
 17 23  1  0  0  0  0
 17 24  1  0  0  0  0
 18 24  1  0  0  0  0
 19 17  1  0  0  0  0
 19 16  1  0  0  0  0
 20 21  1  0  0  0  0
 20 22  2  0  0  0  0
 21 19  1  0  0  0  0
 22 23  1  0  0  0  0
 23 18  1  0  0  0  0
 23 24  1  0  0  0  0
 26 28  1  0  0  0  0
 27 26  1  0  0  0  0
 28 25  2  0  0  0  0
 28 21  1  0  0  0  0
M  END
>  <MODEL>
3

>  <REMARK>
 VINA RESULT:      -8.4      2.411      7.061
  Name = 
  4 active torsions:
  status: ('A' for Active; 'I' for Inactive)
    1  A    between atoms: C_6  and  C_15
    2  A    between atoms: C_12  and  C_27
    3  A    between atoms: C_13  and  C_19
    4  A    between atoms: C_15  and  C_22
                            x       y       z     vdW  Elec       q    Type
                         _______ _______ _______ _____ _____    ______ ____

>  <TORSDO>
F 4

$$$$
=
 OpenBabel11052410493D

 28 34  0  0  1  0  0  0  0  0999 V2000
  161.7590  208.4380  148.8040 C   0  0  2  0  0  0  0  0  0  0  0  0
  161.3370  211.1470  151.4170 O   0  0  0  0  0  0  0  0  0  0  0  0
  160.8950  207.6840  151.2710 C   0  0  0  0  0  3  0  0  0  0  0  0
  161.3130  207.5700  149.9310 N   0  0  0  0  0  0  0  0  0  0  0  0
  161.4030  209.9790  150.9480 C   0  0  0  0  0  0  0  0  0  0  0  0
  162.1040  209.7410  149.5900 C   0  0  2  0  0  3  0  0  0  0  0  0
  162.2450  207.1140  148.8880 C   0  0  2  0  0  0  0  0  0  0  0  0
  163.0730  208.1050  148.2600 N   0  0  0  0  0  2  0  0  0  0  0  0
  160.9160  208.8830  151.7540 N   0  0  0  0  0  0  0  0  0  0  0  0
  161.8190  213.1460  147.0370 N   0  0  0  0  0  0  0  0  0  0  0  0
  161.9930  210.9350  148.6870 C   0  0  0  0  0  0  0  0  0  0  0  0
  160.7770  212.2720  147.0880 C   0  0  0  0  0  3  0  0  0  0  0  0
  160.8440  211.1490  147.9150 C   0  0  0  0  0  3  0  0  0  0  0  0
  162.9420  212.9570  147.7800 C   0  0  0  0  0  3  0  0  0  0  0  0
  163.0490  211.8460  148.6200 C   0  0  0  0  0  3  0  0  0  0  0  0
  161.5150  206.2820  147.8500 C   0  0  0  0  0  2  0  0  0  0  0  0
  160.6490  204.2070  148.9980 C   0  0  1  0  0  3  0  0  0  0  0  0
  160.7150  202.3570  150.6470 C   0  0  0  0  0  2  0  0  0  0  0  0
  161.7340  204.7930  148.1040 C   0  0  1  0  0  3  0  0  0  0  0  0
  161.2060  202.5080  147.0030 C   0  0  0  0  0  3  0  0  0  0  0  0
  161.8150  203.9050  146.8040 C   0  0  1  0  0  3  0  0  0  0  0  0
  160.9430  202.0520  148.2500 C   0  0  0  0  0  3  0  0  0  0  0  0
  161.3790  202.9120  149.4070 C   0  0  1  0  0  0  0  0  0  0  0  0
  160.7820  203.8550  150.4420 C   0  0  1  0  0  3  0  0  0  0  0  0
  159.9840  204.4940  145.3740 O   0  0  0  0  0  0  0  0  0  0  0  0
  162.0860  205.2110  144.6610 N   0  0  0  0  0  2  0  0  0  0  0  0
  161.5720  205.8280  143.5130 N   0  0  0  0  0  1  0  0  0  0  0  0
  161.2280  204.5400  145.5810 C   0  0  0  0  0  0  0  0  0  0  0  0
  1  8  1  1  0  0  0
  1  7  1  0  0  0  0
  1  6  1  0  0  0  0
  1  4  1  0  0  0  0
  3  9  2  0  0  0  0
  4  3  1  0  0  0  0
  5  2  2  0  0  0  0
  5  9  1  0  0  0  0
  6 11  1  6  0  0  0
  6  5  1  0  0  0  0
  7 16  1  6  0  0  0
  7  4  1  0  0  0  0
  8  7  1  0  0  0  0
 10 12  2  0  0  0  0
 10 14  1  0  0  0  0
 12 13  1  0  0  0  0
 13 11  2  0  0  0  0
 14 15  2  0  0  0  0
 15 11  1  0  0  0  0
 16 19  1  0  0  0  0
 17 23  1  0  0  0  0
 17 24  1  0  0  0  0
 19 17  1  0  0  0  0
 20 22  2  0  0  0  0
 21 20  1  0  0  0  0
 21 19  1  0  0  0  0
 22 23  1  0  0  0  0
 23 24  1  0  0  0  0
 23 18  1  0  0  0  0
 24 18  1  0  0  0  0
 25 28  2  0  0  0  0
 26 28  1  0  0  0  0
 27 26  1  0  0  0  0
 28 21  1  0  0  0  0
M  END
>  <MODEL>
4

>  <REMARK>
 VINA RESULT:      -7.7      2.609      7.058
  Name = 
  4 active torsions:
  status: ('A' for Active; 'I' for Inactive)
    1  A    between atoms: C_6  and  C_15
    2  A    between atoms: C_12  and  C_27
    3  A    between atoms: C_13  and  C_19
    4  A    between atoms: C_15  and  C_22
                            x       y       z     vdW  Elec       q    Type
                         _______ _______ _______ _____ _____    ______ ____

>  <TORSDO>
F 4

$$$$
=
 OpenBabel11052410493D

 28 34  0  0  1  0  0  0  0  0999 V2000
  160.7280  208.7900  153.1900 C   0  0  2  0  0  0  0  0  0  0  0  0
  160.0850  208.8800  156.9210 O   0  0  0  0  0  0  0  0  0  0  0  0
  160.7120  206.4190  154.5220 C   0  0  0  0  0  3  0  0  0  0  0  0
  160.8340  207.3270  153.4540 N   0  0  0  0  0  0  0  0  0  0  0  0
  160.4010  208.3910  155.8040 C   0  0  0  0  0  0  0  0  0  0  0  0
  160.8200  209.3320  154.6510 C   0  0  2  0  0  3  0  0  0  0  0  0
  161.6040  208.0110  152.4030 C   0  0  2  0  0  0  0  0  0  0  0  0
  161.9240  209.3950  152.6110 N   0  0  0  0  0  2  0  0  0  0  0  0
  160.4690  206.9530  155.6740 N   0  0  0  0  0  0  0  0  0  0  0  0
  158.9310  213.1430  154.9580 N   0  0  0  0  0  0  0  0  0  0  0  0
  160.1480  210.6700  154.7500 C   0  0  0  0  0  0  0  0  0  0  0  0
  158.4070  212.2150  154.1130 C   0  0  0  0  0  3  0  0  0  0  0  0
  159.0050  210.9590  153.9930 C   0  0  0  0  0  3  0  0  0  0  0  0
  160.0380  212.8820  155.7030 C   0  0  0  0  0  3  0  0  0  0  0  0
  160.6670  211.6380  155.6120 C   0  0  0  0  0  3  0  0  0  0  0  0
  160.9550  207.8040  151.0470 C   0  0  0  0  0  2  0  0  0  0  0  0
  160.4610  205.4920  150.1610 C   0  0  1  0  0  3  0  0  0  0  0  0
  160.6250  203.0180  150.1200 C   0  0  0  0  0  2  0  0  0  0  0  0
  161.5240  206.5640  150.3620 C   0  0  1  0  0  3  0  0  0  0  0  0
  162.0000  205.6750  147.9760 C   0  0  0  0  0  3  0  0  0  0  0  0
  162.2040  206.8320  148.9660 C   0  0  1  0  0  3  0  0  0  0  0  0
  161.5600  204.4730  148.4170 C   0  0  0  0  0  3  0  0  0  0  0  0
  161.4020  204.2970  149.9040 C   0  0  1  0  0  0  0  0  0  0  0  0
  160.3030  204.2380  150.9560 C   0  0  1  0  0  3  0  0  0  0  0  0
  161.0070  208.1250  147.3400 O   0  0  0  0  0  0  0  0  0  0  0  0
  162.3180  209.3510  148.8300 N   0  0  0  0  0  2  0  0  0  0  0  0
  161.9560  210.5780  148.2600 N   0  0  0  0  0  1  0  0  0  0  0  0
  161.8030  208.1230  148.3190 C   0  0  0  0  0  0  0  0  0  0  0  0
  1  8  1  1  0  0  0
  1  4  1  0  0  0  0
  1  6  1  0  0  0  0
  3  9  2  0  0  0  0
  4  3  1  0  0  0  0
  5  2  2  0  0  0  0
  6 11  1  6  0  0  0
  6  5  1  0  0  0  0
  7 16  1  6  0  0  0
  7  8  1  0  0  0  0
  7  1  1  0  0  0  0
  7  4  1  0  0  0  0
  9  5  1  0  0  0  0
 10 14  1  0  0  0  0
 11 15  1  0  0  0  0
 12 10  2  0  0  0  0
 13 12  1  0  0  0  0
 13 11  2  0  0  0  0
 15 14  2  0  0  0  0
 17 19  1  0  0  0  0
 17 24  1  0  0  0  0
 18 24  1  0  0  0  0
 19 16  1  0  0  0  0
 20 22  2  0  0  0  0
 20 21  1  0  0  0  0
 21 19  1  0  0  0  0
 22 23  1  0  0  0  0
 23 18  1  0  0  0  0
 23 17  1  0  0  0  0
 23 24  1  0  0  0  0
 25 28  2  0  0  0  0
 27 26  1  0  0  0  0
 28 26  1  0  0  0  0
 28 21  1  0  0  0  0
M  END
>  <MODEL>
5

>  <REMARK>
 VINA RESULT:      -7.7      3.009      7.560
  Name = 
  4 active torsions:
  status: ('A' for Active; 'I' for Inactive)
    1  A    between atoms: C_6  and  C_15
    2  A    between atoms: C_12  and  C_27
    3  A    between atoms: C_13  and  C_19
    4  A    between atoms: C_15  and  C_22
                            x       y       z     vdW  Elec       q    Type
                         _______ _______ _______ _____ _____    ______ ____

>  <TORSDO>
F 4

$$$$
=
 OpenBabel11052410493D

 28 34  0  0  1  0  0  0  0  0999 V2000
  161.4620  207.1050  151.1390 C   0  0  2  0  0  0  0  0  0  0  0  0
  162.3220  206.6690  147.4770 O   0  0  0  0  0  0  0  0  0  0  0  0
  161.9480  209.3510  149.6850 C   0  0  0  0  0  3  0  0  0  0  0  0
  161.6520  208.5440  150.7990 N   0  0  0  0  0  0  0  0  0  0  0  0
  162.1750  207.2650  148.5770 C   0  0  0  0  0  0  0  0  0  0  0  0
  162.1200  206.4450  149.8870 C   0  0  2  0  0  3  0  0  0  0  0  0
  161.9570  207.9850  152.1260 C   0  0  2  0  0  0  0  0  0  0  0  0
  162.3430  206.6040  152.1910 N   0  0  0  0  0  2  0  0  0  0  0  0
  162.1760  208.7100  148.5860 N   0  0  0  0  0  0  0  0  0  0  0  0
  160.4910  202.5490  149.2880 N   0  0  0  0  0  0  0  0  0  0  0  0
  161.5480  205.0750  149.6640 C   0  0  0  0  0  0  0  0  0  0  0  0
  161.0360  203.2040  148.2280 C   0  0  0  0  0  3  0  0  0  0  0  0
  161.5760  204.4810  148.3960 C   0  0  0  0  0  3  0  0  0  0  0  0
  160.4550  203.1080  150.5280 C   0  0  0  0  0  3  0  0  0  0  0  0
  160.9850  204.3830  150.7380 C   0  0  0  0  0  3  0  0  0  0  0  0
  160.8300  208.2790  153.0990 C   0  0  0  0  0  2  0  0  0  0  0  0
  159.5770  210.4470  153.4180 C   0  0  1  0  0  3  0  0  0  0  0  0
  159.0620  212.8320  152.9780 C   0  0  0  0  0  2  0  0  0  0  0  0
  160.9050  209.7230  153.5890 C   0  0  1  0  0  3  0  0  0  0  0  0
  160.6610  211.0720  155.7870 C   0  0  0  0  0  3  0  0  0  0  0  0
  161.3520  209.8890  155.0910 C   0  0  1  0  0  3  0  0  0  0  0  0
  160.0080  212.0050  155.0540 C   0  0  0  0  0  3  0  0  0  0  0  0
  160.0960  211.8930  153.5540 C   0  0  1  0  0  0  0  0  0  0  0  0
  159.2440  211.4570  152.3710 C   0  0  1  0  0  3  0  0  0  0  0  0
  162.2000  208.1190  156.4680 O   0  0  0  0  0  0  0  0  0  0  0  0
  159.8950  208.0990  156.1150 N   0  0  0  0  0  2  0  0  0  0  0  0
  159.7070  206.9540  156.8980 N   0  0  0  0  0  1  0  0  0  0  0  0
  161.1950  208.6540  155.9260 C   0  0  0  0  0  0  0  0  0  0  0  0
  1  7  1  0  0  0  0
  1  8  1  6  0  0  0
  2  5  2  0  0  0  0
  3  4  1  0  0  0  0
  4  1  1  0  0  0  0
  4  7  1  0  0  0  0
  5  9  1  0  0  0  0
  5  6  1  0  0  0  0
  6 11  1  6  0  0  0
  6  1  1  0  0  0  0
  7  8  1  0  0  0  0
  7 16  1  1  0  0  0
  9  3  2  0  0  0  0
 10 14  1  0  0  0  0
 11 15  1  0  0  0  0
 12 13  1  0  0  0  0
 12 10  2  0  0  0  0
 13 11  2  0  0  0  0
 14 15  2  0  0  0  0
 16 19  1  0  0  0  0
 17 23  1  0  0  0  0
 17 19  1  0  0  0  0
 18 23  1  0  0  0  0
 19 21  1  0  0  0  0
 21 20  1  0  0  0  0
 21 28  1  0  0  0  0
 22 20  2  0  0  0  0
 23 22  1  0  0  0  0
 24 18  1  0  0  0  0
 24 17  1  0  0  0  0
 24 23  1  0  0  0  0
 26 27  1  0  0  0  0
 28 26  1  0  0  0  0
 28 25  2  0  0  0  0
M  END
>  <MODEL>
6

>  <REMARK>
 VINA RESULT:      -7.6      2.842      4.861
  Name = 
  4 active torsions:
  status: ('A' for Active; 'I' for Inactive)
    1  A    between atoms: C_6  and  C_15
    2  A    between atoms: C_12  and  C_27
    3  A    between atoms: C_13  and  C_19
    4  A    between atoms: C_15  and  C_22
                            x       y       z     vdW  Elec       q    Type
                         _______ _______ _______ _____ _____    ______ ____

>  <TORSDO>
F 4

$$$$
=
 OpenBabel11052410493D

 28 34  0  0  1  0  0  0  0  0999 V2000
  161.2270  207.8030  151.2950 C   0  0  2  0  0  0  0  0  0  0  0  0
  162.7020  206.7880  147.9580 O   0  0  0  0  0  0  0  0  0  0  0  0
  161.8940  209.7870  149.5580 C   0  0  0  0  0  3  0  0  0  0  0  0
  161.4350  209.1700  150.7370 N   0  0  0  0  0  0  0  0  0  0  0  0
  162.3570  207.5560  148.8950 C   0  0  0  0  0  0  0  0  0  0  0  0
  162.1020  206.9730  150.3050 C   0  0  2  0  0  3  0  0  0  0  0  0
  161.5260  208.8670  152.1740 C   0  0  2  0  0  0  0  0  0  0  0  0
  161.9310  207.5410  152.5480 N   0  0  0  0  0  2  0  0  0  0  0  0
  162.3200  208.9790  148.6440 N   0  0  0  0  0  0  0  0  0  0  0  0
  160.7160  202.9420  150.1620 N   0  0  0  0  0  0  0  0  0  0  0  0
  161.6110  205.5560  150.2430 C   0  0  0  0  0  0  0  0  0  0  0  0
  160.7560  203.6660  149.0110 C   0  0  0  0  0  3  0  0  0  0  0  0
  161.2050  204.9880  149.0290 C   0  0  0  0  0  3  0  0  0  0  0  0
  161.1070  203.4760  151.3510 C   0  0  0  0  0  3  0  0  0  0  0  0
  161.5630  204.7940  151.4120 C   0  0  0  0  0  3  0  0  0  0  0  0
  160.2450  209.2630  152.8840 C   0  0  0  0  0  2  0  0  0  0  0  0
  158.8970  211.3860  153.1110 C   0  0  1  0  0  3  0  0  0  0  0  0
  158.2330  213.7000  152.5200 C   0  0  0  0  0  2  0  0  0  0  0  0
  160.2700  210.7430  153.2560 C   0  0  1  0  0  3  0  0  0  0  0  0
  160.0800  212.2500  155.3540 C   0  0  0  0  0  3  0  0  0  0  0  0
  160.7920  211.0500  154.7110 C   0  0  1  0  0  3  0  0  0  0  0  0
  159.3380  213.0880  154.5920 C   0  0  0  0  0  3  0  0  0  0  0  0
  159.3460  212.8610  153.1040 C   0  0  1  0  0  0  0  0  0  0  0  0
  158.4530  212.2920  152.0110 C   0  0  1  0  0  3  0  0  0  0  0  0
  159.6530  209.5030  156.1450 O   0  0  0  0  0  0  0  0  0  0  0  0
  161.9560  209.1860  155.9550 N   0  0  0  0  0  2  0  0  0  0  0  0
  161.9530  208.0800  156.8140 N   0  0  0  0  0  1  0  0  0  0  0  0
  160.7490  209.8800  155.6460 C   0  0  0  0  0  0  0  0  0  0  0  0
  1  7  1  0  0  0  0
  1  8  1  6  0  0  0
  2  5  2  0  0  0  0
  3  4  1  0  0  0  0
  4  1  1  0  0  0  0
  4  7  1  0  0  0  0
  5  6  1  0  0  0  0
  6 11  1  6  0  0  0
  6  1  1  0  0  0  0
  7  8  1  0  0  0  0
  7 16  1  1  0  0  0
  9  5  1  0  0  0  0
  9  3  2  0  0  0  0
 10 14  1  0  0  0  0
 11 15  1  0  0  0  0
 12 13  1  0  0  0  0
 12 10  2  0  0  0  0
 13 11  2  0  0  0  0
 14 15  2  0  0  0  0
 16 19  1  0  0  0  0
 17 19  1  0  0  0  0
 18 23  1  0  0  0  0
 19 21  1  0  0  0  0
 21 20  1  0  0  0  0
 21 28  1  0  0  0  0
 22 20  2  0  0  0  0
 23 17  1  0  0  0  0
 23 22  1  0  0  0  0
 24 18  1  0  0  0  0
 24 23  1  0  0  0  0
 24 17  1  0  0  0  0
 26 27  1  0  0  0  0
 28 26  1  0  0  0  0
 28 25  2  0  0  0  0
M  END
>  <MODEL>
7

>  <REMARK>
 VINA RESULT:      -7.3      3.085      5.322
  Name = 
  4 active torsions:
  status: ('A' for Active; 'I' for Inactive)
    1  A    between atoms: C_6  and  C_15
    2  A    between atoms: C_12  and  C_27
    3  A    between atoms: C_13  and  C_19
    4  A    between atoms: C_15  and  C_22
                            x       y       z     vdW  Elec       q    Type
                         _______ _______ _______ _____ _____    ______ ____

>  <TORSDO>
F 4

$$$$
=
 OpenBabel11052410493D

 28 34  0  0  1  0  0  0  0  0999 V2000
  161.3520  208.0100  152.1650 C   0  0  2  0  0  0  0  0  0  0  0  0
  161.0790  204.3350  151.2930 O   0  0  0  0  0  0  0  0  0  0  0  0
  161.4680  206.2200  154.2090 C   0  0  0  0  0  3  0  0  0  0  0  0
  161.4430  207.4620  153.5480 N   0  0  0  0  0  0  0  0  0  0  0  0
  161.1230  205.3590  152.0250 C   0  0  0  0  0  0  0  0  0  0  0  0
  160.8280  206.7480  151.4110 C   0  0  2  0  0  3  0  0  0  0  0  0
  160.8340  208.7660  153.2390 C   0  0  2  0  0  0  0  0  0  0  0  0
  160.2380  208.9280  151.9430 N   0  0  0  0  0  2  0  0  0  0  0  0
  161.3380  205.1870  153.4430 N   0  0  0  0  0  0  0  0  0  0  0  0
  161.9560  206.9530  147.3030 N   0  0  0  0  0  0  0  0  0  0  0  0
  161.2160  206.8120  149.9620 C   0  0  0  0  0  0  0  0  0  0  0  0
  160.8520  206.2370  147.6480 C   0  0  0  0  0  3  0  0  0  0  0  0
  160.4600  206.1520  148.9850 C   0  0  0  0  0  3  0  0  0  0  0  0
  162.7030  207.6020  148.2370 C   0  0  0  0  0  3  0  0  0  0  0  0
  162.3450  207.5430  149.5850 C   0  0  0  0  0  3  0  0  0  0  0  0
  161.8080  209.8920  153.5330 C   0  0  0  0  0  2  0  0  0  0  0  0
  159.6150  211.1180  153.7770 C   0  0  1  0  0  3  0  0  0  0  0  0
  158.0600  213.0250  153.4730 C   0  0  0  0  0  2  0  0  0  0  0  0
  161.0850  211.0760  154.1700 C   0  0  1  0  0  3  0  0  0  0  0  0
  159.8840  211.6940  156.3790 C   0  0  0  0  0  3  0  0  0  0  0  0
  161.1640  211.1310  155.7430 C   0  0  1  0  0  3  0  0  0  0  0  0
  158.9730  212.3410  155.6160 C   0  0  0  0  0  3  0  0  0  0  0  0
  159.3250  212.5810  154.1710 C   0  0  1  0  0  0  0  0  0  0  0  0
  158.9850  212.0420  152.7890 C   0  0  1  0  0  3  0  0  0  0  0  0
  162.7080  209.5840  156.7280 O   0  0  0  0  0  0  0  0  0  0  0  0
  160.4890  208.8700  156.6420 N   0  0  0  0  0  2  0  0  0  0  0  0
  160.7780  207.6460  157.2580 N   0  0  0  0  0  1  0  0  0  0  0  0
  161.5160  209.8280  156.3920 C   0  0  0  0  0  0  0  0  0  0  0  0
  1  8  1  1  0  0  0
  1  7  1  0  0  0  0
  1  4  1  0  0  0  0
  2  5  2  0  0  0  0
  4  3  1  0  0  0  0
  5  9  1  0  0  0  0
  6 11  1  6  0  0  0
  6  5  1  0  0  0  0
  6  1  1  0  0  0  0
  7 16  1  1  0  0  0
  7  4  1  0  0  0  0
  8  7  1  0  0  0  0
  9  3  2  0  0  0  0
 10 12  2  0  0  0  0
 10 14  1  0  0  0  0
 12 13  1  0  0  0  0
 13 11  2  0  0  0  0
 14 15  2  0  0  0  0
 15 11  1  0  0  0  0
 16 19  1  0  0  0  0
 17 19  1  0  0  0  0
 17 23  1  0  0  0  0
 18 23  1  0  0  0  0
 19 21  1  0  0  0  0
 21 20  1  0  0  0  0
 21 28  1  0  0  0  0
 22 20  2  0  0  0  0
 23 22  1  0  0  0  0
 24 18  1  0  0  0  0
 24 17  1  0  0  0  0
 24 23  1  0  0  0  0
 26 27  1  0  0  0  0
 28 26  1  0  0  0  0
 28 25  2  0  0  0  0
M  END
>  <MODEL>
8

>  <REMARK>
 VINA RESULT:      -7.1      3.304      4.837
  Name = 
  4 active torsions:
  status: ('A' for Active; 'I' for Inactive)
    1  A    between atoms: C_6  and  C_15
    2  A    between atoms: C_12  and  C_27
    3  A    between atoms: C_13  and  C_19
    4  A    between atoms: C_15  and  C_22
                            x       y       z     vdW  Elec       q    Type
                         _______ _______ _______ _____ _____    ______ ____

>  <TORSDO>
F 4

$$$$
=
 OpenBabel11052410493D

 28 34  0  0  1  0  0  0  0  0999 V2000
  161.2390  206.7830  150.4270 C   0  0  2  0  0  0  0  0  0  0  0  0
  162.0000  210.3210  151.5420 O   0  0  0  0  0  0  0  0  0  0  0  0
  162.3400  208.4700  148.5990 C   0  0  0  0  0  3  0  0  0  0  0  0
  161.7800  207.2950  149.1360 N   0  0  0  0  0  0  0  0  0  0  0  0
  161.8570  209.3550  150.7470 C   0  0  0  0  0  0  0  0  0  0  0  0
  161.0110  208.1330  151.1750 C   0  0  2  0  0  3  0  0  0  0  0  0
  160.7320  206.2650  149.2150 C   0  0  2  0  0  0  0  0  0  0  0  0
  159.8670  206.2860  150.3600 N   0  0  0  0  0  2  0  0  0  0  0  0
  162.3990  209.4720  149.4120 N   0  0  0  0  0  0  0  0  0  0  0  0
  161.1440  207.4830  155.3880 N   0  0  0  0  0  0  0  0  0  0  0  0
  161.0550  207.9160  152.6600 C   0  0  0  0  0  0  0  0  0  0  0  0
  160.7740  208.7060  154.9220 C   0  0  0  0  0  3  0  0  0  0  0  0
  160.7220  208.9470  153.5480 C   0  0  0  0  0  3  0  0  0  0  0  0
  161.4700  206.4690  154.5420 C   0  0  0  0  0  3  0  0  0  0  0  0
  161.4310  206.6680  153.1600 C   0  0  0  0  0  3  0  0  0  0  0  0
  161.3270  204.8840  149.0120 C   0  0  0  0  0  2  0  0  0  0  0  0
  161.9070  204.4700  146.5890 C   0  0  1  0  0  3  0  0  0  0  0  0
  161.6660  204.7620  144.1390 C   0  0  0  0  0  2  0  0  0  0  0  0
  160.8640  204.2880  147.6850 C   0  0  1  0  0  3  0  0  0  0  0  0
  160.8470  202.0130  146.4460 C   0  0  0  0  0  3  0  0  0  0  0  0
  160.4890  202.7580  147.7410 C   0  0  1  0  0  3  0  0  0  0  0  0
  161.1460  202.7080  145.3220 C   0  0  0  0  0  3  0  0  0  0  0  0
  160.9950  204.2050  145.3740 C   0  0  1  0  0  0  0  0  0  0  0  0
  161.8570  205.4560  145.4700 C   0  0  1  0  0  3  0  0  0  0  0  0
  161.7640  200.9920  148.7430 O   0  0  0  0  0  0  0  0  0  0  0  0
  160.8060  202.5090  150.2330 N   0  0  0  0  0  2  0  0  0  0  0  0
  161.3320  201.8560  151.3560 N   0  0  0  0  0  1  0  0  0  0  0  0
  161.0580  202.0230  148.9160 C   0  0  0  0  0  0  0  0  0  0  0  0
  1  8  1  6  0  0  0
  1  6  1  0  0  0  0
  3  4  1  0  0  0  0
  3  9  2  0  0  0  0
  4  7  1  0  0  0  0
  4  1  1  0  0  0  0
  5  6  1  0  0  0  0
  5  2  2  0  0  0  0
  6 11  1  1  0  0  0
  7 16  1  6  0  0  0
  7  8  1  0  0  0  0
  7  1  1  0  0  0  0
  9  5  1  0  0  0  0
 11 15  2  0  0  0  0
 11 13  1  0  0  0  0
 12 10  1  0  0  0  0
 13 12  2  0  0  0  0
 14 10  2  0  0  0  0
 15 14  1  0  0  0  0
 17 19  1  0  0  0  0
 18 23  1  0  0  0  0
 18 24  1  0  0  0  0
 19 21  1  0  0  0  0
 19 16  1  0  0  0  0
 20 21  1  0  0  0  0
 21 28  1  0  0  0  0
 22 23  1  0  0  0  0
 22 20  2  0  0  0  0
 23 24  1  0  0  0  0
 23 17  1  0  0  0  0
 24 17  1  0  0  0  0
 25 28  2  0  0  0  0
 26 27  1  0  0  0  0
 28 26  1  0  0  0  0
M  END
>  <MODEL>
9

>  <REMARK>
 VINA RESULT:      -7.0      1.578      7.904
  Name = 
  4 active torsions:
  status: ('A' for Active; 'I' for Inactive)
    1  A    between atoms: C_6  and  C_15
    2  A    between atoms: C_12  and  C_27
    3  A    between atoms: C_13  and  C_19
    4  A    between atoms: C_15  and  C_22
                            x       y       z     vdW  Elec       q    Type
                         _______ _______ _______ _____ _____    ______ ____

>  <TORSDO>
F 4

$$$$
