=
 OpenBabel11042420453D

 27 30  0  0  1  0  0  0  0  0999 V2000
  161.4010  207.7760  148.6580 C   0  0  0  0  0  3  0  0  0  0  0  0
  161.1970  204.5870  151.1440 O   0  0  0  0  0  0  0  0  0  0  0  0
  161.3050  205.7110  150.4870 C   0  0  0  0  0  0  0  0  0  0  0  0
  160.8270  208.2660  152.9500 C   0  0  0  0  0  2  0  0  0  0  0  0
  161.4250  209.6710  152.8140 C   0  0  1  0  0  3  0  0  0  0  0  0
  161.7730  207.1860  152.4480 C   0  0  0  0  0  2  0  0  0  0  0  0
  161.6450  208.0480  150.0230 C   0  0  0  0  0  0  0  0  0  0  0  0
  160.8290  204.1600  148.9750 N   0  0  0  0  0  0  0  0  0  0  0  0
  161.0830  205.4640  149.1680 C   0  0  0  0  0  0  0  0  0  0  0  0
  161.1170  206.4730  148.2120 C   0  0  0  0  0  3  0  0  0  0  0  0
  162.4510  209.8350  151.6850 C   0  0  0  0  0  2  0  0  0  0  0  0
  161.9250  209.4060  150.3940 N   0  0  0  0  0  2  0  0  0  0  0  0
  161.5870  206.9880  150.9740 C   0  0  0  0  0  0  0  0  0  0  0  0
  160.9140  203.6650  150.2380 C   0  0  0  0  0  0  0  0  0  0  0  0
  158.3450  212.6820  152.7310 C   0  0  0  0  0  0  0  0  0  0  0  0
  158.2680  211.6010  153.6260 C   0  0  0  0  0  0  0  0  0  0  0  0
  160.4420  211.7990  151.8750 C   0  0  0  0  0  3  0  0  0  0  0  0
  157.1230  211.4710  154.5700 C   0  0  0  0  0  1  0  0  0  0  0  0
  160.3610  210.7220  152.7680 C   0  0  0  0  0  0  0  0  0  0  0  0
  159.4400  212.7720  151.8560 C   0  0  0  0  0  3  0  0  0  0  0  0
  159.2730  210.6300  153.6410 C   0  0  0  0  0  3  0  0  0  0  0  0
  157.3320  213.6490  152.7240 O   0  0  0  0  0  0  0  0  0  0  0  0
  156.8580  214.2580  151.5300 C   0  0  0  0  0  1  0  0  0  0  0  0
  160.7050  202.2360  150.5360 C   0  0  0  0  0  3  0  0  0  0  0  0
  160.8010  201.2760  149.6660 N   0  0  0  0  0  0  0  0  0  0  0  0
  161.1280  201.4590  148.2600 C   0  0  0  0  0  2  0  0  0  0  0  0
  161.4830  200.1800  147.6750 N   0  0  0  0  0  1  0  0  0  0  0  0
  1  7  1  0  0  0  0
  3 13  1  0  0  0  0
  3  2  1  0  0  0  0
  5 19  1  6  0  0  0
  5  4  1  0  0  0  0
  6  4  1  0  0  0  0
  7 12  1  0  0  0  0
  7 13  2  0  0  0  0
  8  9  1  0  0  0  0
  8 14  2  0  0  0  0
  9  3  2  0  0  0  0
 10  1  2  0  0  0  0
 10  9  1  0  0  0  0
 11  5  1  0  0  0  0
 12 11  1  0  0  0  0
 13  6  1  0  0  0  0
 14 24  1  0  0  0  0
 14  2  1  0  0  0  0
 15 16  1  0  0  0  0
 16 21  2  0  0  0  0
 16 18  1  0  0  0  0
 17 19  2  0  0  0  0
 19 21  1  0  0  0  0
 20 17  1  0  0  0  0
 20 15  2  0  0  0  0
 22 15  1  0  0  0  0
 23 22  1  0  0  0  0
 25 24  2  0  0  0  0
 26 25  1  0  0  0  0
 27 26  1  0  0  0  0
M  END
>  <MODEL>
1

>  <REMARK>
 VINA RESULT:      -8.3      0.000      0.000
  Name = 
  4 active torsions:
  status: ('A' for Active; 'I' for Inactive)
    1  A    between atoms: C_3  and  C_26
    2  A    between atoms: O_6  and  C_7
    3  A    between atoms: C_8  and  C_15
    4  A    between atoms: C_17  and  N_20
                            x       y       z     vdW  Elec       q    Type
                         _______ _______ _______ _____ _____    ______ ____

>  <TORSDO>
F 4

$$$$
=
 OpenBabel11042420453D

 27 30  0  0  1  0  0  0  0  0999 V2000
  161.4100  207.7140  148.6490 C   0  0  0  0  0  3  0  0  0  0  0  0
  161.1970  204.5150  151.1220 O   0  0  0  0  0  0  0  0  0  0  0  0
  161.3080  205.6420  150.4700 C   0  0  0  0  0  0  0  0  0  0  0  0
  160.8310  208.1880  152.9420 C   0  0  0  0  0  2  0  0  0  0  0  0
  161.4320  209.5910  152.8130 C   0  0  1  0  0  3  0  0  0  0  0  0
  161.7760  207.1080  152.4370 C   0  0  0  0  0  2  0  0  0  0  0  0
  161.6530  207.9800  150.0160 C   0  0  0  0  0  0  0  0  0  0  0  0
  160.8310  204.0970  148.9510 N   0  0  0  0  0  0  0  0  0  0  0  0
  161.0880  205.4000  149.1500 C   0  0  0  0  0  0  0  0  0  0  0  0
  161.1240  206.4130  148.1980 C   0  0  0  0  0  3  0  0  0  0  0  0
  162.4590  209.7590  151.6860 C   0  0  0  0  0  2  0  0  0  0  0  0
  161.9350  209.3360  150.3920 N   0  0  0  0  0  2  0  0  0  0  0  0
  161.5910  206.9160  150.9630 C   0  0  0  0  0  0  0  0  0  0  0  0
  160.9140  203.5970  150.2120 C   0  0  0  0  0  0  0  0  0  0  0  0
  158.3910  212.6390  152.6410 C   0  0  0  0  0  0  0  0  0  0  0  0
  159.5180  212.7020  151.8040 C   0  0  0  0  0  0  0  0  0  0  0  0
  159.2450  210.5770  153.6050 C   0  0  0  0  0  3  0  0  0  0  0  0
  159.6880  213.8210  150.8360 C   0  0  0  0  0  1  0  0  0  0  0  0
  160.3690  210.6450  152.7700 C   0  0  0  0  0  0  0  0  0  0  0  0
  158.2630  211.5680  153.5410 C   0  0  0  0  0  3  0  0  0  0  0  0
  160.4990  211.7080  151.8720 C   0  0  0  0  0  3  0  0  0  0  0  0
  157.4140  213.6400  152.5660 O   0  0  0  0  0  0  0  0  0  0  0  0
  156.3420  213.7400  153.4920 C   0  0  0  0  0  1  0  0  0  0  0  0
  160.7030  202.1670  150.5040 C   0  0  0  0  0  3  0  0  0  0  0  0
  160.7300  201.2180  149.6180 N   0  0  0  0  0  0  0  0  0  0  0  0
  160.9730  201.4160  148.1970 C   0  0  0  0  0  2  0  0  0  0  0  0
  161.5810  200.2230  147.6390 N   0  0  0  0  0  1  0  0  0  0  0  0
  1  7  1  0  0  0  0
  3 13  1  0  0  0  0
  3  2  1  0  0  0  0
  5 19  1  6  0  0  0
  5  4  1  0  0  0  0
  6  4  1  0  0  0  0
  7 12  1  0  0  0  0
  7 13  2  0  0  0  0
  8  9  1  0  0  0  0
  8 14  2  0  0  0  0
  9  3  2  0  0  0  0
 10  1  2  0  0  0  0
 10  9  1  0  0  0  0
 11  5  1  0  0  0  0
 12 11  1  0  0  0  0
 13  6  1  0  0  0  0
 14 24  1  0  0  0  0
 14  2  1  0  0  0  0
 15 20  1  0  0  0  0
 16 21  1  0  0  0  0
 16 15  2  0  0  0  0
 18 16  1  0  0  0  0
 19 17  1  0  0  0  0
 20 17  2  0  0  0  0
 21 19  2  0  0  0  0
 22 15  1  0  0  0  0
 22 23  1  0  0  0  0
 25 24  2  0  0  0  0
 26 25  1  0  0  0  0
 27 26  1  0  0  0  0
M  END
>  <MODEL>
2

>  <REMARK>
 VINA RESULT:      -8.3      0.508      1.415
  Name = 
  4 active torsions:
  status: ('A' for Active; 'I' for Inactive)
    1  A    between atoms: C_3  and  C_26
    2  A    between atoms: O_6  and  C_7
    3  A    between atoms: C_8  and  C_15
    4  A    between atoms: C_17  and  N_20
                            x       y       z     vdW  Elec       q    Type
                         _______ _______ _______ _____ _____    ______ ____

>  <TORSDO>
F 4

$$$$
=
 OpenBabel11042420453D

 27 30  0  0  1  0  0  0  0  0999 V2000
  160.8520  206.9530  155.1410 C   0  0  0  0  0  3  0  0  0  0  0  0
  159.7000  210.5670  153.7290 O   0  0  0  0  0  0  0  0  0  0  0  0
  160.1650  209.3850  154.0330 C   0  0  0  0  0  0  0  0  0  0  0  0
  161.0520  207.9080  150.8940 C   0  0  0  0  0  2  0  0  0  0  0  0
  162.1390  206.8360  150.7600 C   0  0  1  0  0  3  0  0  0  0  0  0
  161.4200  208.9770  151.9120 C   0  0  0  0  0  2  0  0  0  0  0  0
  161.3500  207.2970  153.8640 C   0  0  0  0  0  0  0  0  0  0  0  0
  158.9290  210.0220  155.7600 N   0  0  0  0  0  0  0  0  0  0  0  0
  159.7040  209.0440  155.2660 C   0  0  0  0  0  0  0  0  0  0  0  0
  160.0190  207.8270  155.8610 C   0  0  0  0  0  3  0  0  0  0  0  0
  162.9980  206.6190  152.0120 C   0  0  0  0  0  2  0  0  0  0  0  0
  162.1910  206.3450  153.1960 N   0  0  0  0  0  2  0  0  0  0  0  0
  160.9900  208.5480  153.2820 C   0  0  0  0  0  0  0  0  0  0  0  0
  158.9640  210.9430  154.7620 C   0  0  0  0  0  0  0  0  0  0  0  0
  160.5750  203.1460  149.1790 C   0  0  0  0  0  0  0  0  0  0  0  0
  161.2060  204.0770  148.3370 C   0  0  0  0  0  0  0  0  0  0  0  0
  160.9590  204.6250  151.0700 C   0  0  0  0  0  3  0  0  0  0  0  0
  161.3520  203.8110  146.8780 C   0  0  0  0  0  1  0  0  0  0  0  0
  161.5850  205.5520  150.2260 C   0  0  0  0  0  0  0  0  0  0  0  0
  160.4560  203.4300  150.5500 C   0  0  0  0  0  3  0  0  0  0  0  0
  161.7070  205.2720  148.8630 C   0  0  0  0  0  3  0  0  0  0  0  0
  160.0760  201.9520  148.6420 O   0  0  0  0  0  0  0  0  0  0  0  0
  160.8330  200.7500  148.6050 C   0  0  0  0  0  1  0  0  0  0  0  0
  158.2410  212.2250  154.8520 C   0  0  0  0  0  3  0  0  0  0  0  0
  156.9490  212.3530  154.7990 N   0  0  0  0  0  0  0  0  0  0  0  0
  156.0120  211.2510  154.6430 C   0  0  0  0  0  2  0  0  0  0  0  0
  155.4690  210.8900  155.9390 N   0  0  0  0  0  1  0  0  0  0  0  0
  1 10  1  0  0  0  0
  2  3  1  0  0  0  0
  2 14  1  0  0  0  0
  3  9  1  0  0  0  0
  4  6  1  0  0  0  0
  5 19  1  1  0  0  0
  5  4  1  0  0  0  0
  5 11  1  0  0  0  0
  6 13  1  0  0  0  0
  7  1  2  0  0  0  0
  9  8  1  0  0  0  0
  9 10  2  0  0  0  0
 11 12  1  0  0  0  0
 12  7  1  0  0  0  0
 13  7  1  0  0  0  0
 13  3  2  0  0  0  0
 14 24  1  0  0  0  0
 14  8  2  0  0  0  0
 15 20  1  0  0  0  0
 16 21  1  0  0  0  0
 16 15  2  0  0  0  0
 18 16  1  0  0  0  0
 19 17  1  0  0  0  0
 20 17  2  0  0  0  0
 21 19  2  0  0  0  0
 22 15  1  0  0  0  0
 23 22  1  0  0  0  0
 25 24  2  0  0  0  0
 26 25  1  0  0  0  0
 26 27  1  0  0  0  0
M  END
>  <MODEL>
3

>  <REMARK>
 VINA RESULT:      -7.8      3.126      8.761
  Name = 
  4 active torsions:
  status: ('A' for Active; 'I' for Inactive)
    1  A    between atoms: C_3  and  C_26
    2  A    between atoms: O_6  and  C_7
    3  A    between atoms: C_8  and  C_15
    4  A    between atoms: C_17  and  N_20
                            x       y       z     vdW  Elec       q    Type
                         _______ _______ _______ _____ _____    ______ ____

>  <TORSDO>
F 4

$$$$
=
 OpenBabel11042420453D

 27 30  0  0  1  0  0  0  0  0999 V2000
  161.9560  209.0720  149.2260 C   0  0  0  0  0  3  0  0  0  0  0  0
  161.1750  205.3110  150.5040 O   0  0  0  0  0  0  0  0  0  0  0  0
  161.4440  206.5660  150.2640 C   0  0  0  0  0  0  0  0  0  0  0  0
  160.6060  208.2830  153.2930 C   0  0  0  0  0  2  0  0  0  0  0  0
  161.2700  209.6000  153.7100 C   0  0  1  0  0  3  0  0  0  0  0  0
  161.5900  207.3240  152.6400 C   0  0  0  0  0  2  0  0  0  0  0  0
  161.9500  208.8910  150.6270 C   0  0  0  0  0  0  0  0  0  0  0  0
  161.2040  205.6010  148.2820 N   0  0  0  0  0  0  0  0  0  0  0  0
  161.4650  206.7540  148.9170 C   0  0  0  0  0  0  0  0  0  0  0  0
  161.7130  207.9990  148.3490 C   0  0  0  0  0  3  0  0  0  0  0  0
  162.4940  210.0050  152.8790 C   0  0  0  0  0  2  0  0  0  0  0  0
  162.2040  210.0400  151.4500 N   0  0  0  0  0  2  0  0  0  0  0  0
  161.6760  207.6020  151.1700 C   0  0  0  0  0  0  0  0  0  0  0  0
  161.0330  204.7390  149.3190 C   0  0  0  0  0  0  0  0  0  0  0  0
  158.4310  212.8210  154.0650 C   0  0  0  0  0  0  0  0  0  0  0  0
  159.4970  212.7010  154.9730 C   0  0  0  0  0  0  0  0  0  0  0  0
  159.2110  210.8270  152.9140 C   0  0  0  0  0  3  0  0  0  0  0  0
  159.6730  213.6850  156.0780 C   0  0  0  0  0  1  0  0  0  0  0  0
  160.2720  210.7090  153.8230 C   0  0  0  0  0  0  0  0  0  0  0  0
  158.2960  211.8750  153.0350 C   0  0  0  0  0  3  0  0  0  0  0  0
  160.4100  211.6490  154.8480 C   0  0  0  0  0  3  0  0  0  0  0  0
  157.5210  213.8780  154.2000 O   0  0  0  0  0  0  0  0  0  0  0  0
  156.1630  213.6820  154.5690 C   0  0  0  0  0  1  0  0  0  0  0  0
  160.7210  203.3130  149.1110 C   0  0  0  0  0  3  0  0  0  0  0  0
  161.0850  202.6190  148.0750 N   0  0  0  0  0  0  0  0  0  0  0  0
  161.8590  203.1380  146.9570 C   0  0  0  0  0  2  0  0  0  0  0  0
  161.1000  202.9860  145.7310 N   0  0  0  0  0  1  0  0  0  0  0  0
  1  7  1  0  0  0  0
  3  2  1  0  0  0  0
  3 13  1  0  0  0  0
  4  5  1  0  0  0  0
  5 19  1  6  0  0  0
  6  4  1  0  0  0  0
  7 13  2  0  0  0  0
  7 12  1  0  0  0  0
  8  9  1  0  0  0  0
  8 14  2  0  0  0  0
  9  3  2  0  0  0  0
 10  9  1  0  0  0  0
 10  1  2  0  0  0  0
 11  5  1  0  0  0  0
 12 11  1  0  0  0  0
 13  6  1  0  0  0  0
 14  2  1  0  0  0  0
 15 22  1  0  0  0  0
 15 16  1  0  0  0  0
 16 18  1  0  0  0  0
 17 20  1  0  0  0  0
 17 19  2  0  0  0  0
 19 21  1  0  0  0  0
 20 15  2  0  0  0  0
 21 16  2  0  0  0  0
 22 23  1  0  0  0  0
 24 14  1  0  0  0  0
 25 24  2  0  0  0  0
 26 25  1  0  0  0  0
 27 26  1  0  0  0  0
M  END
>  <MODEL>
4

>  <REMARK>
 VINA RESULT:      -7.6      1.577      1.803
  Name = 
  4 active torsions:
  status: ('A' for Active; 'I' for Inactive)
    1  A    between atoms: C_3  and  C_26
    2  A    between atoms: O_6  and  C_7
    3  A    between atoms: C_8  and  C_15
    4  A    between atoms: C_17  and  N_20
                            x       y       z     vdW  Elec       q    Type
                         _______ _______ _______ _____ _____    ______ ____

>  <TORSDO>
F 4

$$$$
=
 OpenBabel11042420453D

 27 30  0  0  1  0  0  0  0  0999 V2000
  161.4020  209.0870  151.4540 C   0  0  0  0  0  3  0  0  0  0  0  0
  161.1640  205.4310  153.1750 O   0  0  0  0  0  0  0  0  0  0  0  0
  161.2450  206.6750  152.7860 C   0  0  0  0  0  0  0  0  0  0  0  0
  160.0490  208.5890  155.5660 C   0  0  0  0  0  2  0  0  0  0  0  0
  160.4880  210.0330  155.8270 C   0  0  1  0  0  3  0  0  0  0  0  0
  161.1900  207.7250  155.0520 C   0  0  0  0  0  2  0  0  0  0  0  0
  161.3750  209.0770  152.8670 C   0  0  0  0  0  0  0  0  0  0  0  0
  161.2260  205.4530  150.9350 N   0  0  0  0  0  0  0  0  0  0  0  0
  161.2840  206.7010  151.4270 C   0  0  0  0  0  0  0  0  0  0  0  0
  161.3570  207.8930  150.7130 C   0  0  0  0  0  3  0  0  0  0  0  0
  161.6630  210.5230  154.9720 C   0  0  0  0  0  2  0  0  0  0  0  0
  161.4210  210.3410  153.5450 N   0  0  0  0  0  2  0  0  0  0  0  0
  161.2840  207.8350  153.5600 C   0  0  0  0  0  0  0  0  0  0  0  0
  161.1530  204.7060  152.0670 C   0  0  0  0  0  0  0  0  0  0  0  0
  157.1140  212.7110  155.7110 C   0  0  0  0  0  0  0  0  0  0  0  0
  156.9630  211.3510  155.3900 C   0  0  0  0  0  0  0  0  0  0  0  0
  159.4820  212.3330  156.1110 C   0  0  0  0  0  3  0  0  0  0  0  0
  155.6330  210.8020  155.0030 C   0  0  0  0  0  1  0  0  0  0  0  0
  159.3270  210.9780  155.7870 C   0  0  0  0  0  0  0  0  0  0  0  0
  158.3830  213.1930  156.0720 C   0  0  0  0  0  3  0  0  0  0  0  0
  158.0660  210.4940  155.4290 C   0  0  0  0  0  3  0  0  0  0  0  0
  156.0020  213.5610  155.6680 O   0  0  0  0  0  0  0  0  0  0  0  0
  155.3280  214.0060  156.8370 C   0  0  0  0  0  1  0  0  0  0  0  0
  161.0710  203.2340  152.0320 C   0  0  0  0  0  3  0  0  0  0  0  0
  160.8990  202.5270  150.9560 N   0  0  0  0  0  0  0  0  0  0  0  0
  160.7590  203.0770  149.6150 C   0  0  0  0  0  2  0  0  0  0  0  0
  160.3910  202.0180  148.6940 N   0  0  0  0  0  1  0  0  0  0  0  0
  1  7  1  0  0  0  0
  3  2  1  0  0  0  0
  3 13  1  0  0  0  0
  4  5  1  0  0  0  0
  5 19  1  6  0  0  0
  6  4  1  0  0  0  0
  7 12  1  0  0  0  0
  7 13  2  0  0  0  0
  8  9  1  0  0  0  0
  8 14  2  0  0  0  0
  9  3  2  0  0  0  0
 10  9  1  0  0  0  0
 10  1  2  0  0  0  0
 11  5  1  0  0  0  0
 12 11  1  0  0  0  0
 13  6  1  0  0  0  0
 14  2  1  0  0  0  0
 15 20  1  0  0  0  0
 16 21  1  0  0  0  0
 16 15  2  0  0  0  0
 18 16  1  0  0  0  0
 19 17  1  0  0  0  0
 20 17  2  0  0  0  0
 21 19  2  0  0  0  0
 22 15  1  0  0  0  0
 22 23  1  0  0  0  0
 24 14  1  0  0  0  0
 25 24  2  0  0  0  0
 26 25  1  0  0  0  0
 27 26  1  0  0  0  0
M  END
>  <MODEL>
5

>  <REMARK>
 VINA RESULT:      -7.5      2.279      2.979
  Name = 
  4 active torsions:
  status: ('A' for Active; 'I' for Inactive)
    1  A    between atoms: C_3  and  C_26
    2  A    between atoms: O_6  and  C_7
    3  A    between atoms: C_8  and  C_15
    4  A    between atoms: C_17  and  N_20
                            x       y       z     vdW  Elec       q    Type
                         _______ _______ _______ _____ _____    ______ ____

>  <TORSDO>
F 4

$$$$
=
 OpenBabel11042420453D

 27 30  0  0  1  0  0  0  0  0999 V2000
  161.9180  209.0870  148.9890 C   0  0  0  0  0  3  0  0  0  0  0  0
  161.4730  205.2020  150.0390 O   0  0  0  0  0  0  0  0  0  0  0  0
  161.6290  206.4890  149.8750 C   0  0  0  0  0  0  0  0  0  0  0  0
  160.6330  207.9410  152.9930 C   0  0  0  0  0  2  0  0  0  0  0  0
  161.1750  209.2850  153.4920 C   0  0  1  0  0  3  0  0  0  0  0  0
  161.7000  207.1140  152.2920 C   0  0  0  0  0  2  0  0  0  0  0  0
  161.9240  208.8240  150.3780 C   0  0  0  0  0  0  0  0  0  0  0  0
  161.4820  205.6240  147.8380 N   0  0  0  0  0  0  0  0  0  0  0  0
  161.6370  206.7570  148.5420 C   0  0  0  0  0  0  0  0  0  0  0  0
  161.7740  208.0500  148.0500 C   0  0  0  0  0  3  0  0  0  0  0  0
  162.3600  209.8460  152.6950 C   0  0  0  0  0  2  0  0  0  0  0  0
  162.0730  209.9400  151.2680 N   0  0  0  0  0  2  0  0  0  0  0  0
  161.7650  207.4860  150.8420 C   0  0  0  0  0  0  0  0  0  0  0  0
  161.3860  204.6910  148.8210 C   0  0  0  0  0  0  0  0  0  0  0  0
  158.0360  212.1870  154.0320 C   0  0  0  0  0  0  0  0  0  0  0  0
  158.5330  211.4550  155.1240 C   0  0  0  0  0  0  0  0  0  0  0  0
  159.5900  211.0220  152.5690 C   0  0  0  0  0  3  0  0  0  0  0  0
  157.9900  211.6660  156.4960 C   0  0  0  0  0  1  0  0  0  0  0  0
  160.0810  210.2930  153.6610 C   0  0  0  0  0  0  0  0  0  0  0  0
  158.5740  211.9620  152.7540 C   0  0  0  0  0  3  0  0  0  0  0  0
  159.5500  210.5150  154.9350 C   0  0  0  0  0  3  0  0  0  0  0  0
  157.0170  213.1260  154.2330 O   0  0  0  0  0  0  0  0  0  0  0  0
  157.0610  214.4380  153.6900 C   0  0  0  0  0  1  0  0  0  0  0  0
  161.2040  203.2580  148.5270 C   0  0  0  0  0  3  0  0  0  0  0  0
  160.8000  202.3710  149.3870 N   0  0  0  0  0  0  0  0  0  0  0  0
  160.4650  202.6530  150.7750 C   0  0  0  0  0  2  0  0  0  0  0  0
  161.5730  202.2690  151.6280 N   0  0  0  0  0  1  0  0  0  0  0  0
  1  7  1  0  0  0  0
  3  2  1  0  0  0  0
  3 13  1  0  0  0  0
  4  5  1  0  0  0  0
  5 19  1  6  0  0  0
  6  4  1  0  0  0  0
  7 13  2  0  0  0  0
  7 12  1  0  0  0  0
  8  9  1  0  0  0  0
  8 14  2  0  0  0  0
  9  3  2  0  0  0  0
 10  9  1  0  0  0  0
 10  1  2  0  0  0  0
 11  5  1  0  0  0  0
 12 11  1  0  0  0  0
 13  6  1  0  0  0  0
 14  2  1  0  0  0  0
 15 22  1  0  0  0  0
 15 16  1  0  0  0  0
 16 18  1  0  0  0  0
 17 20  1  0  0  0  0
 17 19  2  0  0  0  0
 19 21  1  0  0  0  0
 20 15  2  0  0  0  0
 21 16  2  0  0  0  0
 23 22  1  0  0  0  0
 24 14  1  0  0  0  0
 24 25  2  0  0  0  0
 25 26  1  0  0  0  0
 26 27  1  0  0  0  0
M  END
>  <MODEL>
6

>  <REMARK>
 VINA RESULT:      -7.4      1.266      1.713
  Name = 
  4 active torsions:
  status: ('A' for Active; 'I' for Inactive)
    1  A    between atoms: C_3  and  C_26
    2  A    between atoms: O_6  and  C_7
    3  A    between atoms: C_8  and  C_15
    4  A    between atoms: C_17  and  N_20
                            x       y       z     vdW  Elec       q    Type
                         _______ _______ _______ _____ _____    ______ ____

>  <TORSDO>
F 4

$$$$
=
 OpenBabel11042420453D

 27 30  0  0  1  0  0  0  0  0999 V2000
  160.8490  206.9480  155.1320 C   0  0  0  0  0  3  0  0  0  0  0  0
  159.7060  210.5500  153.6790 O   0  0  0  0  0  0  0  0  0  0  0  0
  160.1690  209.3710  153.9970 C   0  0  0  0  0  0  0  0  0  0  0  0
  161.0600  207.8590  150.8760 C   0  0  0  0  0  2  0  0  0  0  0  0
  162.1450  206.7840  150.7550 C   0  0  1  0  0  3  0  0  0  0  0  0
  161.4270  208.9380  151.8830 C   0  0  0  0  0  2  0  0  0  0  0  0
  161.3500  207.2790  153.8520 C   0  0  0  0  0  0  0  0  0  0  0  0
  158.9300  210.0280  155.7150 N   0  0  0  0  0  0  0  0  0  0  0  0
  159.7040  209.0430  155.2320 C   0  0  0  0  0  0  0  0  0  0  0  0
  160.0160  207.8320  155.8410 C   0  0  0  0  0  3  0  0  0  0  0  0
  163.0010  206.5790  152.0110 C   0  0  0  0  0  2  0  0  0  0  0  0
  162.1910  206.3190  153.1960 N   0  0  0  0  0  2  0  0  0  0  0  0
  160.9940  208.5230  153.2560 C   0  0  0  0  0  0  0  0  0  0  0  0
  158.9690  210.9380  154.7070 C   0  0  0  0  0  0  0  0  0  0  0  0
  160.5780  203.0800  149.2090 C   0  0  0  0  0  0  0  0  0  0  0  0
  161.2070  204.0040  148.3580 C   0  0  0  0  0  0  0  0  0  0  0  0
  160.9660  204.5750  151.0870 C   0  0  0  0  0  3  0  0  0  0  0  0
  161.3490  203.7260  146.9010 C   0  0  0  0  0  1  0  0  0  0  0  0
  161.5900  205.4950  150.2340 C   0  0  0  0  0  0  0  0  0  0  0  0
  160.4620  203.3760  150.5780 C   0  0  0  0  0  3  0  0  0  0  0  0
  161.7090  205.2030  148.8720 C   0  0  0  0  0  3  0  0  0  0  0  0
  160.0780  201.8820  148.6840 O   0  0  0  0  0  0  0  0  0  0  0  0
  160.8440  200.6870  148.6290 C   0  0  0  0  0  1  0  0  0  0  0  0
  158.2480  212.2220  154.7820 C   0  0  0  0  0  3  0  0  0  0  0  0
  158.3080  213.1580  153.8830 N   0  0  0  0  0  0  0  0  0  0  0  0
  159.0940  213.0860  152.6600 C   0  0  0  0  0  2  0  0  0  0  0  0
  158.2060  212.9790  151.5180 N   0  0  0  0  0  1  0  0  0  0  0  0
  1 10  1  0  0  0  0
  2  3  1  0  0  0  0
  2 14  1  0  0  0  0
  3  9  1  0  0  0  0
  4  6  1  0  0  0  0
  5 19  1  1  0  0  0
  5  4  1  0  0  0  0
  5 11  1  0  0  0  0
  6 13  1  0  0  0  0
  7  1  2  0  0  0  0
  9  8  1  0  0  0  0
  9 10  2  0  0  0  0
 11 12  1  0  0  0  0
 12  7  1  0  0  0  0
 13  7  1  0  0  0  0
 13  3  2  0  0  0  0
 14 24  1  0  0  0  0
 14  8  2  0  0  0  0
 15 20  1  0  0  0  0
 16 21  1  0  0  0  0
 16 15  2  0  0  0  0
 18 16  1  0  0  0  0
 19 17  1  0  0  0  0
 20 17  2  0  0  0  0
 21 19  2  0  0  0  0
 22 15  1  0  0  0  0
 23 22  1  0  0  0  0
 25 24  2  0  0  0  0
 26 25  1  0  0  0  0
 27 26  1  0  0  0  0
M  END
>  <MODEL>
7

>  <REMARK>
 VINA RESULT:      -7.4      2.858      8.704
  Name = 
  4 active torsions:
  status: ('A' for Active; 'I' for Inactive)
    1  A    between atoms: C_3  and  C_26
    2  A    between atoms: O_6  and  C_7
    3  A    between atoms: C_8  and  C_15
    4  A    between atoms: C_17  and  N_20
                            x       y       z     vdW  Elec       q    Type
                         _______ _______ _______ _____ _____    ______ ____

>  <TORSDO>
F 4

$$$$
=
 OpenBabel11042420453D

 27 30  0  0  1  0  0  0  0  0999 V2000
  158.9610  212.5900  145.8940 C   0  0  0  0  0  3  0  0  0  0  0  0
  162.2980  213.4060  143.7540 O   0  0  0  0  0  0  0  0  0  0  0  0
  161.3270  213.1500  144.5880 C   0  0  0  0  0  0  0  0  0  0  0  0
  162.9400  211.8550  147.5110 C   0  0  0  0  0  2  0  0  0  0  0  0
  162.3310  211.9690  148.9130 C   0  0  1  0  0  3  0  0  0  0  0  0
  162.6990  213.1020  146.6750 C   0  0  0  0  0  2  0  0  0  0  0  0
  160.1510  212.7230  146.6440 C   0  0  0  0  0  0  0  0  0  0  0  0
  160.4040  213.2120  142.5720 N   0  0  0  0  0  0  0  0  0  0  0  0
  160.1710  213.0310  143.8820 C   0  0  0  0  0  0  0  0  0  0  0  0
  158.9560  212.7440  144.4960 C   0  0  0  0  0  3  0  0  0  0  0  0
  161.1130  212.8950  149.0210 C   0  0  0  0  0  2  0  0  0  0  0  0
  160.0670  212.5470  148.0660 N   0  0  0  0  0  2  0  0  0  0  0  0
  161.3780  213.0010  145.9750 C   0  0  0  0  0  0  0  0  0  0  0  0
  161.7430  213.4420  142.5520 C   0  0  0  0  0  0  0  0  0  0  0  0
  161.6030  208.0710  150.5960 C   0  0  0  0  0  0  0  0  0  0  0  0
  161.7220  208.2420  149.2060 C   0  0  0  0  0  0  0  0  0  0  0  0
  161.9560  210.4570  150.9000 C   0  0  0  0  0  3  0  0  0  0  0  0
  161.6030  207.0800  148.2820 C   0  0  0  0  0  1  0  0  0  0  0  0
  162.0720  210.6230  149.5130 C   0  0  0  0  0  0  0  0  0  0  0  0
  161.7220  209.1890  151.4380 C   0  0  0  0  0  3  0  0  0  0  0  0
  161.9560  209.5120  148.6730 C   0  0  0  0  0  3  0  0  0  0  0  0
  161.3680  206.7930  151.1200 O   0  0  0  0  0  0  0  0  0  0  0  0
  162.2680  206.1500  152.0110 C   0  0  0  0  0  1  0  0  0  0  0  0
  162.4760  213.7040  141.3000 C   0  0  0  0  0  3  0  0  0  0  0  0
  162.7490  212.8070  140.4010 N   0  0  0  0  0  0  0  0  0  0  0  0
  162.3740  211.4030  140.4880 C   0  0  0  0  0  2  0  0  0  0  0  0
  162.7070  210.7350  139.2440 N   0  0  0  0  0  1  0  0  0  0  0  0
  1  7  1  0  0  0  0
  2  3  1  0  0  0  0
  3 13  1  0  0  0  0
  4  5  1  0  0  0  0
  5 11  1  0  0  0  0
  5 19  1  6  0  0  0
  6  4  1  0  0  0  0
  7 12  1  0  0  0  0
  8  9  1  0  0  0  0
  9 10  1  0  0  0  0
  9  3  2  0  0  0  0
 10  1  2  0  0  0  0
 12 11  1  0  0  0  0
 13  7  2  0  0  0  0
 13  6  1  0  0  0  0
 14  8  2  0  0  0  0
 14  2  1  0  0  0  0
 15 22  1  0  0  0  0
 15 20  1  0  0  0  0
 16 15  2  0  0  0  0
 17 20  2  0  0  0  0
 18 16  1  0  0  0  0
 19 17  1  0  0  0  0
 21 16  1  0  0  0  0
 21 19  2  0  0  0  0
 22 23  1  0  0  0  0
 24 14  1  0  0  0  0
 25 26  1  0  0  0  0
 25 24  2  0  0  0  0
 27 26  1  0  0  0  0
M  END
>  <MODEL>
8

>  <REMARK>
 VINA RESULT:      -6.7      6.147      8.883
  Name = 
  4 active torsions:
  status: ('A' for Active; 'I' for Inactive)
    1  A    between atoms: C_3  and  C_26
    2  A    between atoms: O_6  and  C_7
    3  A    between atoms: C_8  and  C_15
    4  A    between atoms: C_17  and  N_20
                            x       y       z     vdW  Elec       q    Type
                         _______ _______ _______ _____ _____    ______ ____

>  <TORSDO>
F 4

$$$$
=
 OpenBabel11042420453D

 27 30  0  0  1  0  0  0  0  0999 V2000
  160.8910  207.8930  154.5210 C   0  0  0  0  0  3  0  0  0  0  0  0
  159.7990  211.2800  152.5900 O   0  0  0  0  0  0  0  0  0  0  0  0
  160.2480  210.1500  153.0670 C   0  0  0  0  0  0  0  0  0  0  0  0
  161.1870  208.2410  150.1870 C   0  0  0  0  0  2  0  0  0  0  0  0
  162.2680  207.1550  150.2290 C   0  0  1  0  0  3  0  0  0  0  0  0
  161.5430  209.4400  151.0520 C   0  0  0  0  0  2  0  0  0  0  0  0
  161.4180  208.0520  153.2190 C   0  0  0  0  0  0  0  0  0  0  0  0
  158.9820  211.0300  154.6610 N   0  0  0  0  0  0  0  0  0  0  0  0
  159.7580  209.9870  154.3260 C   0  0  0  0  0  0  0  0  0  0  0  0
  160.0510  208.8650  155.0930 C   0  0  0  0  0  3  0  0  0  0  0  0
  163.0990  207.1120  151.5170 C   0  0  0  0  0  2  0  0  0  0  0  0
  162.2650  207.0110  152.7100 N   0  0  0  0  0  2  0  0  0  0  0  0
  161.0810  209.2100  152.4590 C   0  0  0  0  0  0  0  0  0  0  0  0
  159.0450  211.8010  153.5440 C   0  0  0  0  0  0  0  0  0  0  0  0
  160.6620  203.2800  149.2430 C   0  0  0  0  0  0  0  0  0  0  0  0
  161.0180  203.5940  150.5660 C   0  0  0  0  0  0  0  0  0  0  0  0
  161.3580  205.5040  148.5480 C   0  0  0  0  0  3  0  0  0  0  0  0
  160.8480  202.5970  151.6590 C   0  0  0  0  0  1  0  0  0  0  0  0
  161.7140  205.8120  149.8680 C   0  0  0  0  0  0  0  0  0  0  0  0
  160.8360  204.2460  148.2380 C   0  0  0  0  0  3  0  0  0  0  0  0
  161.5410  204.8540  150.8710 C   0  0  0  0  0  3  0  0  0  0  0  0
  160.1400  202.0140  148.9470 O   0  0  0  0  0  0  0  0  0  0  0  0
  160.9470  200.9370  148.4900 C   0  0  0  0  0  1  0  0  0  0  0  0
  158.3320  213.0870  153.4370 C   0  0  0  0  0  3  0  0  0  0  0  0
  157.1360  213.3110  153.8940 N   0  0  0  0  0  0  0  0  0  0  0  0
  156.3130  212.3290  154.5830 C   0  0  0  0  0  2  0  0  0  0  0  0
  156.2550  212.6510  155.9960 N   0  0  0  0  0  1  0  0  0  0  0  0
  1 10  1  0  0  0  0
  2  3  1  0  0  0  0
  2 14  1  0  0  0  0
  3  9  1  0  0  0  0
  4  5  1  0  0  0  0
  4  6  1  0  0  0  0
  5 19  1  1  0  0  0
  5 11  1  0  0  0  0
  6 13  1  0  0  0  0
  7  1  2  0  0  0  0
  9  8  1  0  0  0  0
  9 10  2  0  0  0  0
 11 12  1  0  0  0  0
 12  7  1  0  0  0  0
 13  3  2  0  0  0  0
 13  7  1  0  0  0  0
 14  8  2  0  0  0  0
 15 16  1  0  0  0  0
 16 21  2  0  0  0  0
 16 18  1  0  0  0  0
 17 19  2  0  0  0  0
 19 21  1  0  0  0  0
 20 17  1  0  0  0  0
 20 15  2  0  0  0  0
 22 15  1  0  0  0  0
 23 22  1  0  0  0  0
 24 14  1  0  0  0  0
 24 25  2  0  0  0  0
 25 26  1  0  0  0  0
 26 27  1  0  0  0  0
M  END
>  <MODEL>
9

>  <REMARK>
 VINA RESULT:      -6.5      2.826      8.720
  Name = 
  4 active torsions:
  status: ('A' for Active; 'I' for Inactive)
    1  A    between atoms: C_3  and  C_26
    2  A    between atoms: O_6  and  C_7
    3  A    between atoms: C_8  and  C_15
    4  A    between atoms: C_17  and  N_20
                            x       y       z     vdW  Elec       q    Type
                         _______ _______ _______ _____ _____    ______ ____

>  <TORSDO>
F 4

$$$$
