=
 OpenBabel11042420543D

 64 72  0  0  1  0  0  0  0  0999 V2000
  160.5880  205.6750  152.4900 C   0  0  0  0  0  0  0  0  0  0  0  0
  161.2060  206.4290  150.2140 S   0  0  0  0  0  0  0  0  0  0  0  0
  160.6980  206.8380  151.7650 C   0  0  0  0  0  0  0  0  0  0  0  0
  160.8470  206.1540  153.7670 N   0  0  0  0  0  0  0  0  0  0  0  0
  160.3180  207.0950  154.7640 N   0  0  0  0  0  0  0  0  0  0  0  0
  161.2680  204.7550  150.5160 C   0  0  0  0  0  0  0  0  0  0  0  0
  160.9890  204.4950  151.8670 C   0  0  0  0  0  3  0  0  0  0  0  0
  161.3730  207.4500  154.0520 C   0  0  2  0  0  3  0  0  0  0  0  0
  161.0180  208.0640  152.6650 C   0  0  1  0  0  3  0  0  0  0  0  0
  161.5520  203.7190  149.4640 C   0  0  2  0  0  3  0  0  0  0  0  0
  162.1540  206.2190  146.6400 C   0  0  0  0  0  3  0  0  0  0  0  0
  161.9680  205.6670  147.9080 C   0  0  0  0  0  3  0  0  0  0  0  0
  161.4040  203.5360  146.9020 C   0  0  0  0  0  3  0  0  0  0  0  0
  161.9940  205.4260  145.4940 C   0  0  0  0  0  0  0  0  0  0  0  0
  161.5900  204.0900  145.6320 C   0  0  0  0  0  3  0  0  0  0  0  0
  161.6320  204.3120  148.0590 C   0  0  0  0  0  0  0  0  0  0  0  0
  161.6850  206.6320  141.8620 C   0  0  0  0  0  1  0  0  0  0  0  0
  161.6000  205.6700  143.0110 C   0  0  0  0  0  0  0  0  0  0  0  0
  162.3650  205.9110  144.1980 N   0  0  0  0  0  2  0  0  0  0  0  0
  160.9150  204.5820  142.8800 N   0  0  0  0  0  2  0  0  0  0  0  0
  160.5450  202.5880  149.5590 C   0  0  0  0  0  0  0  0  0  0  0  0
  159.3190  202.8070  149.3380 O   0  0  0  0  0  0  0  0  0  0  0  0
  160.9500  201.2590  149.8890 N   0  0  0  0  0  1  0  0  0  0  0  0
  162.1860  208.9010  152.1660 C   0  0  0  0  0  2  0  0  0  0  0  0
  161.9430  209.3300  150.7350 C   0  0  0  0  0  2  0  0  0  0  0  0
  161.7790  210.7230  150.6800 O   0  0  0  0  0  0  0  0  0  0  0  0
  161.5510  211.0150  149.3430 C   0  0  2  0  0  3  0  0  0  0  0  0
  162.3290  210.0100  148.4810 C   0  0  0  0  0  1  0  0  0  0  0  0
  162.9340  212.7320  147.9950 C   0  0  0  0  0  1  0  0  0  0  0  0
  161.8540  212.4970  149.0500 C   0  0  1  0  0  3  0  0  0  0  0  0
  159.7940  213.3090  145.1400 C   0  0  2  0  0  3  0  0  0  0  0  0
  157.7170  214.3150  148.1510 C   0  0  2  0  0  3  0  0  0  0  0  0
  159.4060  212.6950  149.1610 N   0  0  0  0  0  2  0  0  0  0  0  0
  156.8880  211.9310  148.3920 O   0  0  0  0  0  1  0  0  0  0  0  0
  158.4060  212.9570  144.6230 C   0  0  0  0  0  2  0  0  0  0  0  0
  160.6440  213.4090  148.8290 C   0  0  2  0  0  3  0  0  0  0  0  0
  160.6490  212.0500  145.1130 C   0  0  0  0  0  1  0  0  0  0  0  0
  158.3800  214.4530  150.7040 C   0  0  0  0  0  1  0  0  0  0  0  0
  157.4090  213.3350  145.7130 C   0  0  1  0  0  3  0  0  0  0  0  0
  156.9720  213.2220  148.9380 C   0  0  0  0  0  0  0  0  0  0  0  0
  160.6110  213.9530  147.4720 N   0  0  0  0  0  2  0  0  0  0  0  0
  158.2620  213.7890  146.8540 C   0  0  0  0  0  0  0  0  0  0  0  0
  159.5470  213.7350  146.5400 C   0  0  0  0  0  0  0  0  0  0  0  0
  158.3450  213.6710  149.4030 C   0  0  1  0  0  0  0  0  0  0  0  0
  155.8800  213.6720  149.6790 O   0  0  0  0  0  1  0  0  0  0  0  0
  156.5070  214.4490  145.2040 C   0  0  0  0  0  2  0  0  0  0  0  0
  155.1500  213.9770  145.0390 N   0  0  0  0  0  1  0  0  0  0  0  0
  160.7900  206.6950  156.0840 C   0  0  0  0  0  2  0  0  0  0  0  0
  160.3000  207.7060  157.1140 C   0  0  0  0  0  2  0  0  0  0  0  0
  159.2070  208.4170  156.6020 O   0  0  0  0  0  0  0  0  0  0  0  0
  160.9410  211.9880  155.3950 C   0  0  0  0  0  2  0  0  0  0  0  0
  159.4650  209.7470  156.9280 C   0  0  1  0  0  3  0  0  0  0  0  0
  161.5370  210.6480  155.5260 N   0  0  0  0  0  0  0  0  0  0  0  0
  159.5090  212.0600  155.9420 C   0  0  0  0  0  2  0  0  0  0  0  0
  161.2640  210.0280  157.1710 S   0  0  0  0  0  0  0  0  0  0  0  0
  158.8510  210.6780  155.8680 C   0  0  2  0  0  3  0  0  0  0  0  0
  157.3340  210.7550  155.9860 C   0  0  0  0  0  3  0  0  0  0  0  0
  156.8450  211.8750  156.9300 C   0  0  0  0  0  2  0  0  0  0  0  0
  155.4640  212.4010  156.5450 C   0  0  0  0  0  2  0  0  0  0  0  0
  155.1500  210.7050  154.7250 C   0  0  0  0  0  2  0  0  0  0  0  0
  154.5900  211.2700  156.0370 C   0  0  0  0  0  2  0  0  0  0  0  0
  156.6750  210.8310  154.6040 C   0  0  0  0  0  2  0  0  0  0  0  0
  162.9740  210.8540  155.3960 C   0  0  0  0  0  2  0  0  0  0  0  0
  163.5910  210.6630  156.6380 O   0  0  0  0  0  1  0  0  0  0  0  0
  1  4  1  0  0  0  0
  2  6  1  0  0  0  0
  2  3  1  0  0  0  0
  3  1  2  0  0  0  0
  3  9  1  0  0  0  0
  4  5  1  0  0  0  0
  5 48  1  0  0  0  0
  6  7  2  0  0  0  0
  7  1  1  0  0  0  0
  8  4  1  6  0  0  0
  8  5  1  0  0  0  0
  9 24  1  6  0  0  0
  9  8  1  0  0  0  0
 10 21  1  6  0  0  0
 10  6  1  0  0  0  0
 11 12  1  0  0  0  0
 12 16  2  0  0  0  0
 13 16  1  0  0  0  0
 14 15  1  0  0  0  0
 14 11  2  0  0  0  0
 15 13  2  0  0  0  0
 16 10  1  0  0  0  0
 17 18  1  0  0  0  0
 18 19  1  0  0  0  0
 19 14  1  0  0  0  0
 20 18  2  0  0  0  0
 21 23  1  0  0  0  0
 22 21  2  0  0  0  0
 25 24  1  0  0  0  0
 26 25  1  0  0  0  0
 27 28  1  6  0  0  0
 27 26  1  0  0  0  0
 30 29  1  6  0  0  0
 30 27  1  0  0  0  0
 31 37  1  1  0  0  0
 31 43  1  0  0  0  0
 32 42  1  6  0  0  0
 32 40  1  0  0  0  0
 32 44  1  0  0  0  0
 33 44  1  0  0  0  0
 34 40  1  0  0  0  0
 35 31  1  0  0  0  0
 35 39  1  0  0  0  0
 36 30  1  6  0  0  0
 36 33  1  0  0  0  0
 39 46  1  6  0  0  0
 39 42  1  0  0  0  0
 40 44  1  0  0  0  0
 40 45  1  0  0  0  0
 41 36  1  0  0  0  0
 43 42  2  0  0  0  0
 43 41  1  0  0  0  0
 44 38  1  1  0  0  0
 47 46  1  0  0  0  0
 48 49  1  0  0  0  0
 50 49  1  0  0  0  0
 51 53  1  0  0  0  0
 51 54  1  0  0  0  0
 52 50  1  6  0  0  0
 52 55  1  0  0  0  0
 53 55  1  0  0  0  0
 56 54  1  0  0  0  0
 56 57  1  1  0  0  0
 56 52  1  0  0  0  0
 57 58  1  0  0  0  0
 59 58  1  0  0  0  0
 60 61  1  0  0  0  0
 61 59  1  0  0  0  0
 62 60  1  0  0  0  0
 62 57  1  0  0  0  0
 63 53  1  0  0  0  0
 63 64  1  0  0  0  0
M  END
>  <MODEL>
1

>  <REMARK>
 VINA RESULT:      -3.1      0.000      0.000
  Name = 
  17 active torsions:
  status: ('A' for Active; 'I' for Inactive)
    1  A    between atoms: C_3  and  O_38
    2  A    between atoms: C_3  and  C_58
    3  A    between atoms: C_9  and  C_54
    4  A    between atoms: C_12  and  O_38
    5  A    between atoms: C_14  and  C_35
    6  A    between atoms: C_14  and  O_48
    7  A    between atoms: C_15  and  C_51
    8  A    between atoms: C_15  and  C_52
    9  A    between atoms: N_20  and  C_58
   10  A    between atoms: C_21  and  C_23
   11  A    between atoms: C_21  and  C_28
   12  A    between atoms: C_21  and  C_60
   13  A    between atoms: N_22  and  C_44
   14  A    between atoms: C_29  and  C_35
   15  A    between atoms: C_32  and  C_36
   16  A    between atoms: C_37  and  N_50
   17  A    between atoms: O_48  and  C_51
                            x       y       z     vdW  Elec       q    Type
                         _______ _______ _______ _____ _____    ______ ____

>  <TORSDO>
F 17

$$$$
=
 OpenBabel11042420543D

 64 72  0  0  1  0  0  0  0  0999 V2000
  161.2360  211.1180  150.6530 C   0  0  0  0  0  0  0  0  0  0  0  0
  160.9180  208.8890  151.6820 S   0  0  0  0  0  0  0  0  0  0  0  0
  161.0590  209.8070  150.2800 C   0  0  0  0  0  0  0  0  0  0  0  0
  161.9760  211.5860  149.5750 N   0  0  0  0  0  0  0  0  0  0  0  0
  161.8830  211.7740  148.1210 N   0  0  0  0  0  0  0  0  0  0  0  0
  161.0870  210.2110  152.7410 C   0  0  0  0  0  0  0  0  0  0  0  0
  161.3580  211.3820  152.0160 C   0  0  0  0  0  3  0  0  0  0  0  0
  162.5770  210.7500  148.5860 C   0  0  2  0  0  3  0  0  0  0  0  0
  161.7110  209.4950  148.9030 C   0  0  1  0  0  3  0  0  0  0  0  0
  160.9320  210.1190  154.2340 C   0  0  2  0  0  3  0  0  0  0  0  0
  157.5310  211.5940  155.1490 C   0  0  0  0  0  3  0  0  0  0  0  0
  158.5210  210.7950  154.5780 C   0  0  0  0  0  3  0  0  0  0  0  0
  160.2300  212.2450  155.5000 C   0  0  0  0  0  3  0  0  0  0  0  0
  157.8820  212.7090  155.9250 C   0  0  0  0  0  0  0  0  0  0  0  0
  159.2360  213.0460  156.0720 C   0  0  0  0  0  3  0  0  0  0  0  0
  159.8800  211.0830  154.7780 C   0  0  0  0  0  0  0  0  0  0  0  0
  154.4640  214.0010  157.1020 C   0  0  0  0  0  1  0  0  0  0  0  0
  155.6150  213.7970  156.1600 C   0  0  0  0  0  0  0  0  0  0  0  0
  156.8990  213.4300  156.6770 N   0  0  0  0  0  2  0  0  0  0  0  0
  155.4610  214.0510  154.9030 N   0  0  0  0  0  2  0  0  0  0  0  0
  162.2800  210.2890  154.9100 C   0  0  0  0  0  0  0  0  0  0  0  0
  163.2760  210.7010  154.2500 O   0  0  0  0  0  0  0  0  0  0  0  0
  162.4560  210.0000  156.2980 N   0  0  0  0  0  1  0  0  0  0  0  0
  162.5940  208.2570  148.9120 C   0  0  0  0  0  2  0  0  0  0  0  0
  162.6420  207.6450  147.5280 C   0  0  0  0  0  2  0  0  0  0  0  0
  162.2950  206.2860  147.5990 O   0  0  0  0  0  0  0  0  0  0  0  0
  161.7460  205.9800  146.3620 C   0  0  2  0  0  3  0  0  0  0  0  0
  160.4850  206.8340  146.1590 C   0  0  0  0  0  1  0  0  0  0  0  0
  162.1230  203.8480  144.9520 C   0  0  0  0  0  1  0  0  0  0  0  0
  161.5340  204.4600  146.2210 C   0  0  1  0  0  3  0  0  0  0  0  0
  160.8800  205.6270  150.5100 C   0  0  2  0  0  3  0  0  0  0  0  0
  161.4090  201.8990  150.0480 C   0  0  2  0  0  3  0  0  0  0  0  0
  160.7590  202.6600  147.7040 N   0  0  0  0  0  2  0  0  0  0  0  0
  158.9560  201.6070  149.4800 O   0  0  0  0  0  1  0  0  0  0  0  0
  159.9340  205.0990  151.5810 C   0  0  0  0  0  2  0  0  0  0  0  0
  161.8490  203.6110  147.4550 C   0  0  2  0  0  3  0  0  0  0  0  0
  160.0730  206.4710  149.5330 C   0  0  0  0  0  1  0  0  0  0  0  0
  162.1730  200.5420  147.9140 C   0  0  0  0  0  1  0  0  0  0  0  0
  160.0420  203.5780  151.5670 C   0  0  1  0  0  3  0  0  0  0  0  0
  160.2390  201.0400  149.5370 C   0  0  0  0  0  0  0  0  0  0  0  0
  162.1290  204.4360  148.6280 N   0  0  0  0  0  2  0  0  0  0  0  0
  160.9590  203.2820  150.4250 C   0  0  0  0  0  0  0  0  0  0  0  0
  161.3730  204.3960  149.8430 C   0  0  0  0  0  0  0  0  0  0  0  0
  161.2590  201.5760  148.5480 C   0  0  1  0  0  0  0  0  0  0  0  0
  160.3230  199.6850  149.8530 O   0  0  0  0  0  1  0  0  0  0  0  0
  160.6190  203.1040  152.8930 C   0  0  0  0  0  2  0  0  0  0  0  0
  161.1040  204.2210  153.6720 N   0  0  0  0  0  1  0  0  0  0  0  0
  162.8320  212.8050  147.7190 C   0  0  0  0  0  2  0  0  0  0  0  0
  162.5600  213.1930  146.2700 C   0  0  0  0  0  2  0  0  0  0  0  0
  161.4250  212.5200  145.8020 O   0  0  0  0  0  0  0  0  0  0  0  0
  159.4970  212.6510  142.1290 C   0  0  0  0  0  2  0  0  0  0  0  0
  160.9250  213.3320  144.7850 C   0  0  1  0  0  3  0  0  0  0  0  0
  160.7300  211.9470  142.5220 N   0  0  0  0  0  0  0  0  0  0  0  0
  158.9670  213.5830  143.2280 C   0  0  0  0  0  2  0  0  0  0  0  0
  161.8810  213.1040  143.2330 S   0  0  0  0  0  0  0  0  0  0  0  0
  159.4180  213.0800  144.6030 C   0  0  2  0  0  3  0  0  0  0  0  0
  158.5980  213.6870  145.7350 C   0  0  0  0  0  3  0  0  0  0  0  0
  157.1110  213.9000  145.3740 C   0  0  0  0  0  2  0  0  0  0  0  0
  156.2000  213.8310  146.5970 C   0  0  0  0  0  2  0  0  0  0  0  0
  158.1090  213.6200  148.2080 C   0  0  0  0  0  2  0  0  0  0  0  0
  156.8830  214.4480  147.8020 C   0  0  0  0  0  2  0  0  0  0  0  0
  158.7730  212.8900  147.0330 C   0  0  0  0  0  2  0  0  0  0  0  0
  161.3230  211.4890  141.2730 C   0  0  0  0  0  2  0  0  0  0  0  0
  160.3540  210.8330  140.5040 O   0  0  0  0  0  1  0  0  0  0  0  0
  1  7  1  0  0  0  0
  2  6  1  0  0  0  0
  3  1  2  0  0  0  0
  3  2  1  0  0  0  0
  4  1  1  0  0  0  0
  5  4  1  0  0  0  0
  6 10  1  0  0  0  0
  7  6  2  0  0  0  0
  8  5  1  6  0  0  0
  8  9  1  0  0  0  0
  8  4  1  0  0  0  0
  9 24  1  1  0  0  0
  9  3  1  0  0  0  0
 10 16  1  0  0  0  0
 10 21  1  1  0  0  0
 11 14  1  0  0  0  0
 12 16  1  0  0  0  0
 12 11  2  0  0  0  0
 13 15  1  0  0  0  0
 14 15  2  0  0  0  0
 14 19  1  0  0  0  0
 16 13  2  0  0  0  0
 18 19  1  0  0  0  0
 18 17  1  0  0  0  0
 20 18  2  0  0  0  0
 21 23  1  0  0  0  0
 22 21  2  0  0  0  0
 25 26  1  0  0  0  0
 25 24  1  0  0  0  0
 27 28  1  1  0  0  0
 27 26  1  0  0  0  0
 30 29  1  6  0  0  0
 30 27  1  0  0  0  0
 31 37  1  6  0  0  0
 31 35  1  0  0  0  0
 32 42  1  6  0  0  0
 33 44  1  0  0  0  0
 34 40  1  0  0  0  0
 36 30  1  6  0  0  0
 36 33  1  0  0  0  0
 36 41  1  0  0  0  0
 39 35  1  0  0  0  0
 39 46  1  1  0  0  0
 40 45  1  0  0  0  0
 40 32  1  0  0  0  0
 41 43  1  0  0  0  0
 42 39  1  0  0  0  0
 43 42  2  0  0  0  0
 43 31  1  0  0  0  0
 44 38  1  6  0  0  0
 44 40  1  0  0  0  0
 44 32  1  0  0  0  0
 46 47  1  0  0  0  0
 48  5  1  0  0  0  0
 49 48  1  0  0  0  0
 50 49  1  0  0  0  0
 51 53  1  0  0  0  0
 51 54  1  0  0  0  0
 52 50  1  1  0  0  0
 53 55  1  0  0  0  0
 54 56  1  0  0  0  0
 55 52  1  0  0  0  0
 56 52  1  0  0  0  0
 56 57  1  1  0  0  0
 57 62  1  0  0  0  0
 58 57  1  0  0  0  0
 58 59  1  0  0  0  0
 59 61  1  0  0  0  0
 61 60  1  0  0  0  0
 62 60  1  0  0  0  0
 63 53  1  0  0  0  0
 64 63  1  0  0  0  0
M  END
>  <MODEL>
2

>  <REMARK>
 VINA RESULT:      -2.0      2.828     10.977
  Name = 
  17 active torsions:
  status: ('A' for Active; 'I' for Inactive)
    1  A    between atoms: C_3  and  O_38
    2  A    between atoms: C_3  and  C_58
    3  A    between atoms: C_9  and  C_54
    4  A    between atoms: C_12  and  O_38
    5  A    between atoms: C_14  and  C_35
    6  A    between atoms: C_14  and  O_48
    7  A    between atoms: C_15  and  C_51
    8  A    between atoms: C_15  and  C_52
    9  A    between atoms: N_20  and  C_58
   10  A    between atoms: C_21  and  C_23
   11  A    between atoms: C_21  and  C_28
   12  A    between atoms: C_21  and  C_60
   13  A    between atoms: N_22  and  C_44
   14  A    between atoms: C_29  and  C_35
   15  A    between atoms: C_32  and  C_36
   16  A    between atoms: C_37  and  N_50
   17  A    between atoms: O_48  and  C_51
                            x       y       z     vdW  Elec       q    Type
                         _______ _______ _______ _____ _____    ______ ____

>  <TORSDO>
F 17

$$$$
=
 OpenBabel11042420543D

 64 72  0  0  1  0  0  0  0  0999 V2000
  160.2140  213.5640  147.2680 C   0  0  0  0  0  0  0  0  0  0  0  0
  159.4290  212.2300  149.2010 S   0  0  0  0  0  0  0  0  0  0  0  0
  160.4110  212.3290  147.8390 C   0  0  0  0  0  0  0  0  0  0  0  0
  161.4530  213.7640  146.6740 N   0  0  0  0  0  0  0  0  0  0  0  0
  162.3390  213.1810  145.6570 N   0  0  0  0  0  0  0  0  0  0  0  0
  158.7690  213.7890  149.0190 C   0  0  0  0  0  0  0  0  0  0  0  0
  159.3810  214.4530  147.9440 C   0  0  0  0  0  3  0  0  0  0  0  0
  162.6100  212.9680  146.9330 C   0  0  2  0  0  3  0  0  0  0  0  0
  161.8310  211.7660  147.5470 C   0  0  1  0  0  3  0  0  0  0  0  0
  157.6660  214.3420  149.8780 C   0  0  2  0  0  3  0  0  0  0  0  0
  156.9680  213.6970  153.5770 C   0  0  0  0  0  3  0  0  0  0  0  0
  156.7980  214.0180  152.2300 C   0  0  0  0  0  3  0  0  0  0  0  0
  159.1980  213.9390  151.9040 C   0  0  0  0  0  3  0  0  0  0  0  0
  158.2520  213.4660  154.0920 C   0  0  0  0  0  0  0  0  0  0  0  0
  159.3670  213.6170  153.2550 C   0  0  0  0  0  3  0  0  0  0  0  0
  157.9030  214.1030  151.3680 C   0  0  0  0  0  0  0  0  0  0  0  0
  159.6940  211.4180  157.0020 C   0  0  0  0  0  1  0  0  0  0  0  0
  159.0020  211.6620  155.6930 C   0  0  0  0  0  0  0  0  0  0  0  0
  158.4390  212.9490  155.4150 N   0  0  0  0  0  2  0  0  0  0  0  0
  158.8340  210.6800  154.8700 N   0  0  0  0  0  2  0  0  0  0  0  0
  156.3240  213.8110  149.4120 C   0  0  0  0  0  0  0  0  0  0  0  0
  155.2640  214.4530  149.6600 O   0  0  0  0  0  0  0  0  0  0  0  0
  156.2230  212.5880  148.6800 N   0  0  0  0  0  1  0  0  0  0  0  0
  162.5580  211.2700  148.7880 C   0  0  0  0  0  2  0  0  0  0  0  0
  162.7220  209.7670  148.7250 C   0  0  0  0  0  2  0  0  0  0  0  0
  161.7330  209.1500  149.5070 O   0  0  0  0  0  0  0  0  0  0  0  0
  162.4010  208.6360  150.6090 C   0  0  2  0  0  3  0  0  0  0  0  0
  163.3620  207.5380  150.1330 C   0  0  0  0  0  1  0  0  0  0  0  0
  160.4000  209.2760  152.1140 C   0  0  0  0  0  1  0  0  0  0  0  0
  161.4010  208.1990  151.6970 C   0  0  1  0  0  3  0  0  0  0  0  0
  160.9760  205.9800  147.8140 C   0  0  2  0  0  3  0  0  0  0  0  0
  160.3450  203.7960  150.8500 C   0  0  2  0  0  3  0  0  0  0  0  0
  161.6380  205.7570  151.8400 N   0  0  0  0  0  2  0  0  0  0  0  0
  162.8370  203.4040  151.1040 O   0  0  0  0  0  1  0  0  0  0  0  0
  161.5700  204.6700  147.3140 C   0  0  0  0  0  2  0  0  0  0  0  0
  160.7170  206.8450  151.4920 C   0  0  2  0  0  3  0  0  0  0  0  0
  162.0650  207.0440  147.7770 C   0  0  0  0  0  1  0  0  0  0  0  0
  160.0840  204.4560  153.3950 C   0  0  0  0  0  1  0  0  0  0  0  0
  161.3700  203.6360  148.4180 C   0  0  1  0  0  3  0  0  0  0  0  0
  161.5500  203.2650  151.6480 C   0  0  0  0  0  0  0  0  0  0  0  0
  160.1920  206.7000  150.1350 N   0  0  0  0  0  2  0  0  0  0  0  0
  160.7690  204.4090  149.5470 C   0  0  0  0  0  0  0  0  0  0  0  0
  160.5970  205.6790  149.2170 C   0  0  0  0  0  0  0  0  0  0  0  0
  160.8640  204.5430  152.0950 C   0  0  1  0  0  0  0  0  0  0  0  0
  161.2970  202.1210  152.4020 O   0  0  0  0  0  1  0  0  0  0  0  0
  160.4350  202.5440  147.9190 C   0  0  0  0  0  2  0  0  0  0  0  0
  161.1000  201.2600  147.9130 N   0  0  0  0  0  1  0  0  0  0  0  0
  163.2500  214.2160  145.1810 C   0  0  0  0  0  2  0  0  0  0  0  0
  162.9990  214.4530  143.6950 C   0  0  0  0  0  2  0  0  0  0  0  0
  162.4390  213.3070  143.1180 O   0  0  0  0  0  0  0  0  0  0  0  0
  161.1670  212.5160  139.2490 C   0  0  0  0  0  2  0  0  0  0  0  0
  161.7290  213.7760  142.0140 C   0  0  1  0  0  3  0  0  0  0  0  0
  162.5280  212.5170  139.8120 N   0  0  0  0  0  0  0  0  0  0  0  0
  160.1130  213.0390  140.2340 C   0  0  0  0  0  2  0  0  0  0  0  0
  162.8530  214.0820  140.5940 S   0  0  0  0  0  0  0  0  0  0  0  0
  160.5840  212.8070  141.6740 C   0  0  2  0  0  3  0  0  0  0  0  0
  159.4390  212.9030  142.6750 C   0  0  0  0  0  3  0  0  0  0  0  0
  159.4610  211.7900  143.7460 C   0  0  0  0  0  2  0  0  0  0  0  0
  158.8210  212.2330  145.0600 C   0  0  0  0  0  2  0  0  0  0  0  0
  158.0920  214.4490  144.1430 C   0  0  0  0  0  2  0  0  0  0  0  0
  157.6330  213.1370  144.7920 C   0  0  0  0  0  2  0  0  0  0  0  0
  159.3620  214.3030  143.2940 C   0  0  0  0  0  2  0  0  0  0  0  0
  163.4180  212.4380  138.6610 C   0  0  0  0  0  2  0  0  0  0  0  0
  164.1560  211.2490  138.7170 O   0  0  0  0  0  1  0  0  0  0  0  0
  1  3  2  0  0  0  0
  1  7  1  0  0  0  0
  3  2  1  0  0  0  0
  4  8  1  0  0  0  0
  4  1  1  0  0  0  0
  5  4  1  0  0  0  0
  6  2  1  0  0  0  0
  6 10  1  0  0  0  0
  7  6  2  0  0  0  0
  8  5  1  6  0  0  0
  8  9  1  0  0  0  0
  9  3  1  0  0  0  0
  9 24  1  1  0  0  0
 10 21  1  6  0  0  0
 10 16  1  0  0  0  0
 11 14  1  0  0  0  0
 12 11  2  0  0  0  0
 13 15  1  0  0  0  0
 14 19  1  0  0  0  0
 15 14  2  0  0  0  0
 16 13  2  0  0  0  0
 16 12  1  0  0  0  0
 18 17  1  0  0  0  0
 19 18  1  0  0  0  0
 20 18  2  0  0  0  0
 21 22  2  0  0  0  0
 23 21  1  0  0  0  0
 25 24  1  0  0  0  0
 25 26  1  0  0  0  0
 26 27  1  0  0  0  0
 27 28  1  6  0  0  0
 27 30  1  0  0  0  0
 30 29  1  6  0  0  0
 31 37  1  1  0  0  0
 31 43  1  0  0  0  0
 32 42  1  6  0  0  0
 32 40  1  0  0  0  0
 32 44  1  0  0  0  0
 33 44  1  0  0  0  0
 34 40  1  0  0  0  0
 35 31  1  0  0  0  0
 35 39  1  0  0  0  0
 36 30  1  6  0  0  0
 36 33  1  0  0  0  0
 39 46  1  6  0  0  0
 39 42  1  0  0  0  0
 40 44  1  0  0  0  0
 40 45  1  0  0  0  0
 41 36  1  0  0  0  0
 43 42  2  0  0  0  0
 43 41  1  0  0  0  0
 44 38  1  1  0  0  0
 47 46  1  0  0  0  0
 48  5  1  0  0  0  0
 49 48  1  0  0  0  0
 50 49  1  0  0  0  0
 51 53  1  0  0  0  0
 51 54  1  0  0  0  0
 52 50  1  1  0  0  0
 53 55  1  0  0  0  0
 54 56  1  0  0  0  0
 55 52  1  0  0  0  0
 56 52  1  0  0  0  0
 56 57  1  1  0  0  0
 57 62  1  0  0  0  0
 57 58  1  0  0  0  0
 58 59  1  0  0  0  0
 60 61  1  0  0  0  0
 61 59  1  0  0  0  0
 62 60  1  0  0  0  0
 63 64  1  0  0  0  0
 63 53  1  0  0  0  0
M  END
>  <MODEL>
3

>  <REMARK>
 VINA RESULT:      -1.9      3.548     11.522
  Name = 
  17 active torsions:
  status: ('A' for Active; 'I' for Inactive)
    1  A    between atoms: C_3  and  O_38
    2  A    between atoms: C_3  and  C_58
    3  A    between atoms: C_9  and  C_54
    4  A    between atoms: C_12  and  O_38
    5  A    between atoms: C_14  and  C_35
    6  A    between atoms: C_14  and  O_48
    7  A    between atoms: C_15  and  C_51
    8  A    between atoms: C_15  and  C_52
    9  A    between atoms: N_20  and  C_58
   10  A    between atoms: C_21  and  C_23
   11  A    between atoms: C_21  and  C_28
   12  A    between atoms: C_21  and  C_60
   13  A    between atoms: N_22  and  C_44
   14  A    between atoms: C_29  and  C_35
   15  A    between atoms: C_32  and  C_36
   16  A    between atoms: C_37  and  N_50
   17  A    between atoms: O_48  and  C_51
                            x       y       z     vdW  Elec       q    Type
                         _______ _______ _______ _____ _____    ______ ____

>  <TORSDO>
F 17

$$$$
