=
 OpenBabel11052410413D

 53 55  0  0  1  0  0  0  0  0999 V2000
  161.8700  210.2180  150.0160 C   0  0  0  0  0  0  0  0  0  0  0  0
  161.7160  209.0700  149.3390 C   0  0  0  0  0  3  0  0  0  0  0  0
  158.9060  212.6640  155.5240 C   0  0  0  0  0  3  0  0  0  0  0  0
  160.1050  211.7660  153.1400 C   0  0  0  0  0  0  0  0  0  0  0  0
  159.9250  211.7130  155.5690 C   0  0  0  0  0  3  0  0  0  0  0  0
  160.5620  211.2660  154.3960 C   0  0  0  0  0  0  0  0  0  0  0  0
  161.6270  210.1890  154.5130 C   0  0  1  0  0  3  0  0  0  0  0  0
  162.1360  209.5560  152.4760 C   0  0  0  0  0  2  0  0  0  0  0  0
  158.4890  213.1750  154.2980 C   0  0  0  0  0  3  0  0  0  0  0  0
  161.4980  210.4330  151.4470 C   0  0  0  0  0  0  0  0  0  0  0  0
  160.6090  211.3770  151.7990 C   0  0  0  0  0  3  0  0  0  0  0  0
  159.0840  212.7240  153.1200 C   0  0  0  0  0  3  0  0  0  0  0  0
  162.6050  210.3350  153.5290 O   0  0  0  0  0  0  0  0  0  0  0  0
  163.0810  210.9910  156.1880 O   0  0  0  0  0  0  0  0  0  0  0  0
  162.2860  210.1220  155.8630 C   0  0  0  0  0  0  0  0  0  0  0  0
  160.7180  208.4950  156.5680 O   0  0  0  0  0  1  0  0  0  0  0  0
  162.0040  208.9860  156.7940 C   0  0  0  0  0  2  0  0  0  0  0  0
  162.4480  211.3620  149.2440 C   0  0  0  0  0  2  0  0  0  0  0  0
  161.3590  212.1250  148.5740 C   0  0  0  0  0  3  0  0  0  0  0  0
  161.2450  214.4520  145.9480 O   0  0  0  0  0  1  0  0  0  0  0  0
  161.5560  212.6560  147.4010 C   0  0  0  0  0  0  0  0  0  0  0  0
  161.7470  213.1870  146.2260 C   0  0  0  0  0  0  0  0  0  0  0  0
  162.4820  212.4290  145.1780 C   0  0  0  0  0  2  0  0  0  0  0  0
  162.8070  213.2850  144.1100 O   0  0  0  0  0  0  0  0  0  0  0  0
  162.8710  213.4600  141.6640 C   0  0  0  0  0  2  0  0  0  0  0  0
  162.3770  212.6980  142.8990 C   0  0  2  0  0  3  0  0  0  0  0  0
  162.5250  213.4970  138.9940 O   0  0  0  0  0  0  0  0  0  0  0  0
  160.5140  211.4390  141.7510 C   0  0  0  0  0  2  0  0  0  0  0  0
  160.7000  212.0870  140.3860 C   0  0  0  0  0  2  0  0  0  0  0  0
  162.3970  212.5900  140.1850 S   0  0  0  0  0  0  0  0  0  0  0  0
  160.8670  212.4070  142.8780 C   0  0  0  0  0  2  0  0  0  0  0  0
  163.2710  211.3830  139.9980 O   0  0  0  0  0  0  0  0  0  0  0  0
  161.1660  207.7970  149.8900 C   0  0  0  0  0  2  0  0  0  0  0  0
  162.3040  206.8850  150.3030 C   0  0  0  0  0  2  0  0  0  0  0  0
  161.7530  205.6290  150.9550 C   0  0  2  0  0  3  0  0  0  0  0  0
  162.6470  205.1670  151.9230 O   0  0  0  0  0  1  0  0  0  0  0  0
  161.5500  204.5610  149.8930 C   0  0  0  0  0  2  0  0  0  0  0  0
  160.6240  203.4600  150.3910 C   0  0  2  0  0  3  0  0  0  0  0  0
  160.6410  203.2610  152.7840 O   0  0  0  0  0  1  0  0  0  0  0  0
  162.0970  201.8930  151.6580 O   0  0  0  0  0  0  0  0  0  0  0  0
  161.1160  202.8750  151.6810 C   0  0  0  0  0  0  0  0  0  0  0  0
  160.5110  202.3790  149.3290 C   0  0  0  0  0  2  0  0  0  0  0  0
  161.1360  202.2820  146.9510 C   0  0  0  0  0  0  0  0  0  0  0  0
  160.7780  202.9450  148.0130 N   0  0  0  0  0  0  0  0  0  0  0  0
  161.2650  200.7940  146.9250 C   0  0  0  0  0  0  0  0  0  0  0  0
  161.6160  200.1820  147.9700 O   0  0  0  0  0  0  0  0  0  0  0  0
  161.1700  198.6050  145.6710 C   0  0  0  0  0  1  0  0  0  0  0  0
  161.0360  200.0510  145.7230 N   0  0  0  0  0  2  0  0  0  0  0  0
  160.2950  203.1170  144.8520 O   0  0  0  0  0  1  0  0  0  0  0  0
  161.3990  203.0940  145.7120 C   0  0  1  0  0  3  0  0  0  0  0  0
  161.9090  204.5010  146.0130 C   0  0  0  0  0  2  0  0  0  0  0  0
  160.9400  205.5810  145.5600 C   0  0  0  0  0  2  0  0  0  0  0  0
  160.8790  206.6740  146.6060 C   0  0  0  0  0  1  0  0  0  0  0  0
  1 10  1  0  0  0  0
  2 33  1  0  0  0  0
  2  1  2  0  0  0  0
  3  5  1  0  0  0  0
  4  6  1  0  0  0  0
  6  7  1  0  0  0  0
  6  5  2  0  0  0  0
  7 15  1  1  0  0  0
  8 13  1  0  0  0  0
  9  3  2  0  0  0  0
 10 11  2  0  0  0  0
 10  8  1  0  0  0  0
 11  4  1  0  0  0  0
 12  4  2  0  0  0  0
 12  9  1  0  0  0  0
 13  7  1  0  0  0  0
 15 14  2  0  0  0  0
 15 17  1  0  0  0  0
 16 17  1  0  0  0  0
 18  1  1  0  0  0  0
 19 18  1  0  0  0  0
 20 22  1  0  0  0  0
 21 19  2  0  0  0  0
 22 21  2  0  0  0  0
 23 22  1  0  0  0  0
 24 23  1  0  0  0  0
 25 26  1  0  0  0  0
 26 24  1  1  0  0  0
 27 30  2  0  0  0  0
 28 31  1  0  0  0  0
 29 28  1  0  0  0  0
 30 29  1  0  0  0  0
 30 25  1  0  0  0  0
 31 26  1  0  0  0  0
 32 30  2  0  0  0  0
 33 34  1  0  0  0  0
 34 35  1  0  0  0  0
 35 36  1  1  0  0  0
 37 38  1  0  0  0  0
 37 35  1  0  0  0  0
 38 42  1  6  0  0  0
 38 41  1  0  0  0  0
 40 41  2  0  0  0  0
 41 39  1  0  0  0  0
 43 44  2  0  0  0  0
 44 42  1  0  0  0  0
 45 43  1  0  0  0  0
 45 46  2  0  0  0  0
 47 48  1  0  0  0  0
 48 45  1  0  0  0  0
 50 49  1  1  0  0  0
 50 51  1  0  0  0  0
 50 43  1  0  0  0  0
 52 51  1  0  0  0  0
 52 53  1  0  0  0  0
M  END
>  <MODEL>
1

>  <REMARK>
 VINA RESULT:      -6.2      0.000      0.000
  Name = 
  20 active torsions:
  status: ('A' for Active; 'I' for Inactive)
    1  A    between atoms: C_4  and  C_10
    2  A    between atoms: C_6  and  O_15
    3  A    between atoms: C_7  and  C_10
    4  A    between atoms: C_7  and  C_42
    5  A    between atoms: C_8  and  C_19
    6  A    between atoms: C_9  and  C_14
    7  A    between atoms: C_9  and  C_21
    8  A    between atoms: C_11  and  C_19
    9  A    between atoms: C_11  and  C_39
   10  A    between atoms: C_14  and  C_33
   11  A    between atoms: C_14  and  C_40
   12  A    between atoms: O_15  and  C_16
   13  A    between atoms: C_16  and  C_30
   14  A    between atoms: C_20  and  C_39
   15  A    between atoms: C_21  and  C_28
   16  A    between atoms: C_22  and  C_28
   17  A    between atoms: C_22  and  C_50
   18  A    between atoms: C_32  and  C_51
   19  A    between atoms: C_35  and  C_51
   20  A    between atoms: C_40  and  N_48
                            x       y       z     vdW  Elec       q    Type
                         _______ _______ _______ _____ _____    ______ ____

>  <TORSDO>
F 20

$$$$
=
 OpenBabel11052410413D

 53 55  0  0  1  0  0  0  0  0999 V2000
  161.3250  205.8090  145.8150 C   0  0  0  0  0  0  0  0  0  0  0  0
  161.8780  206.8980  146.3720 C   0  0  0  0  0  3  0  0  0  0  0  0
  160.7780  201.1350  150.6070 C   0  0  0  0  0  3  0  0  0  0  0  0
  161.0740  203.1860  148.7010 C   0  0  0  0  0  0  0  0  0  0  0  0
  160.7770  200.8310  149.2460 C   0  0  0  0  0  3  0  0  0  0  0  0
  160.9510  201.8310  148.2710 C   0  0  0  0  0  0  0  0  0  0  0  0
  160.8860  201.4370  146.8060 C   0  0  1  0  0  3  0  0  0  0  0  0
  160.8860  203.2920  145.6350 C   0  0  0  0  0  2  0  0  0  0  0  0
  160.9350  202.4540  151.0210 C   0  0  0  0  0  3  0  0  0  0  0  0
  161.1480  204.4890  146.4920 C   0  0  0  0  0  0  0  0  0  0  0  0
  161.2100  204.3800  147.8290 C   0  0  0  0  0  3  0  0  0  0  0  0
  161.0780  203.4670  150.0730 C   0  0  0  0  0  3  0  0  0  0  0  0
  161.7150  202.2450  146.0260 O   0  0  0  0  0  0  0  0  0  0  0  0
  161.9770  199.4030  147.2910 O   0  0  0  0  0  0  0  0  0  0  0  0
  161.2110  199.9930  146.5440 C   0  0  0  0  0  0  0  0  0  0  0  0
  161.3170  198.0870  145.1450 O   0  0  0  0  0  1  0  0  0  0  0  0
  160.6340  199.2840  145.3600 C   0  0  0  0  0  2  0  0  0  0  0  0
  160.8720  205.9560  144.3970 C   0  0  0  0  0  2  0  0  0  0  0  0
  161.9850  205.6110  143.4700 C   0  0  0  0  0  3  0  0  0  0  0  0
  162.4020  205.7150  139.9860 O   0  0  0  0  0  1  0  0  0  0  0  0
  161.9910  206.0740  142.2520 C   0  0  0  0  0  0  0  0  0  0  0  0
  162.0030  206.5360  141.0340 C   0  0  0  0  0  0  0  0  0  0  0  0
  161.6130  207.9470  140.7690 C   0  0  0  0  0  2  0  0  0  0  0  0
  161.2830  208.1040  139.4100 O   0  0  0  0  0  0  0  0  0  0  0  0
  162.1260  210.2860  140.1490 C   0  0  0  0  0  2  0  0  0  0  0  0
  161.6750  209.3930  138.9860 C   0  0  2  0  0  3  0  0  0  0  0  0
  162.7970  212.8480  140.6360 O   0  0  0  0  0  0  0  0  0  0  0  0
  161.2570  211.2480  137.3260 C   0  0  0  0  0  2  0  0  0  0  0  0
  161.5700  212.3920  138.2810 C   0  0  0  0  0  2  0  0  0  0  0  0
  162.7230  211.8420  139.5220 S   0  0  0  0  0  0  0  0  0  0  0  0
  160.6430  210.0610  138.0630 C   0  0  0  0  0  2  0  0  0  0  0  0
  164.0840  211.6600  138.9130 O   0  0  0  0  0  0  0  0  0  0  0  0
  162.4010  206.9970  147.7660 C   0  0  0  0  0  2  0  0  0  0  0  0
  162.6510  208.4500  148.1170 C   0  0  0  0  0  2  0  0  0  0  0  0
  161.6010  208.9350  149.1000 C   0  0  2  0  0  3  0  0  0  0  0  0
  162.1410  209.9340  149.9140 O   0  0  0  0  0  1  0  0  0  0  0  0
  161.1390  207.7690  149.9580 C   0  0  0  0  0  2  0  0  0  0  0  0
  161.6920  207.8730  151.3720 C   0  0  2  0  0  3  0  0  0  0  0  0
  163.0520  205.9540  151.8540 O   0  0  0  0  0  0  0  0  0  0  0  0
  160.9040  205.8820  152.6550 O   0  0  0  0  0  1  0  0  0  0  0  0
  161.9300  206.5170  151.9670 C   0  0  0  0  0  0  0  0  0  0  0  0
  160.7240  208.6670  152.2340 C   0  0  0  0  0  2  0  0  0  0  0  0
  161.0960  210.0130  154.2600 C   0  0  0  0  0  0  0  0  0  0  0  0
  161.3360  208.9670  153.5220 N   0  0  0  0  0  0  0  0  0  0  0  0
  160.0810  211.0480  153.8990 C   0  0  0  0  0  0  0  0  0  0  0  0
  160.3970  211.9820  153.1130 O   0  0  0  0  0  0  0  0  0  0  0  0
  157.7670  212.0290  154.1390 C   0  0  0  0  0  1  0  0  0  0  0  0
  158.7660  211.0240  154.4630 N   0  0  0  0  0  2  0  0  0  0  0  0
  161.7650  211.3930  156.1190 O   0  0  0  0  0  1  0  0  0  0  0  0
  161.8860  210.1280  155.5350 C   0  0  1  0  0  3  0  0  0  0  0  0
  161.5790  209.0130  156.5330 C   0  0  0  0  0  2  0  0  0  0  0  0
  160.1320  208.5540  156.4660 C   0  0  0  0  0  2  0  0  0  0  0  0
  160.0880  207.0440  156.3600 C   0  0  0  0  0  1  0  0  0  0  0  0
  1  2  2  0  0  0  0
  1 10  1  0  0  0  0
  2 33  1  0  0  0  0
  3  9  1  0  0  0  0
  4 12  1  0  0  0  0
  5  3  2  0  0  0  0
  6  4  2  0  0  0  0
  6  5  1  0  0  0  0
  7 15  1  1  0  0  0
  7  6  1  0  0  0  0
  8 13  1  0  0  0  0
  8 10  1  0  0  0  0
 10 11  2  0  0  0  0
 11  4  1  0  0  0  0
 12  9  2  0  0  0  0
 13  7  1  0  0  0  0
 15 14  2  0  0  0  0
 16 17  1  0  0  0  0
 17 15  1  0  0  0  0
 18  1  1  0  0  0  0
 19 18  1  0  0  0  0
 20 22  1  0  0  0  0
 21 19  2  0  0  0  0
 22 21  2  0  0  0  0
 23 22  1  0  0  0  0
 24 23  1  0  0  0  0
 26 24  1  1  0  0  0
 26 25  1  0  0  0  0
 28 31  1  0  0  0  0
 28 29  1  0  0  0  0
 29 30  1  0  0  0  0
 30 25  1  0  0  0  0
 30 27  2  0  0  0  0
 31 26  1  0  0  0  0
 32 30  2  0  0  0  0
 33 34  1  0  0  0  0
 34 35  1  0  0  0  0
 35 36  1  1  0  0  0
 35 37  1  0  0  0  0
 38 37  1  6  0  0  0
 38 41  1  0  0  0  0
 38 42  1  0  0  0  0
 39 41  2  0  0  0  0
 41 40  1  0  0  0  0
 42 44  1  0  0  0  0
 43 50  1  0  0  0  0
 44 43  2  0  0  0  0
 45 43  1  0  0  0  0
 45 48  1  0  0  0  0
 46 45  2  0  0  0  0
 47 48  1  0  0  0  0
 50 49  1  1  0  0  0
 50 51  1  0  0  0  0
 52 51  1  0  0  0  0
 53 52  1  0  0  0  0
M  END
>  <MODEL>
2

>  <REMARK>
 VINA RESULT:      -6.2      3.031      9.300
  Name = 
  20 active torsions:
  status: ('A' for Active; 'I' for Inactive)
    1  A    between atoms: C_4  and  C_10
    2  A    between atoms: C_6  and  O_15
    3  A    between atoms: C_7  and  C_10
    4  A    between atoms: C_7  and  C_42
    5  A    between atoms: C_8  and  C_19
    6  A    between atoms: C_9  and  C_14
    7  A    between atoms: C_9  and  C_21
    8  A    between atoms: C_11  and  C_19
    9  A    between atoms: C_11  and  C_39
   10  A    between atoms: C_14  and  C_33
   11  A    between atoms: C_14  and  C_40
   12  A    between atoms: O_15  and  C_16
   13  A    between atoms: C_16  and  C_30
   14  A    between atoms: C_20  and  C_39
   15  A    between atoms: C_21  and  C_28
   16  A    between atoms: C_22  and  C_28
   17  A    between atoms: C_22  and  C_50
   18  A    between atoms: C_32  and  C_51
   19  A    between atoms: C_35  and  C_51
   20  A    between atoms: C_40  and  N_48
                            x       y       z     vdW  Elec       q    Type
                         _______ _______ _______ _____ _____    ______ ____

>  <TORSDO>
F 20

$$$$
=
 OpenBabel11052410413D

 53 55  0  0  1  0  0  0  0  0999 V2000
  161.6410  209.4680  150.9780 C   0  0  0  0  0  0  0  0  0  0  0  0
  161.5820  208.1360  150.8300 C   0  0  0  0  0  3  0  0  0  0  0  0
  161.3660  211.8370  157.2560 C   0  0  0  0  0  3  0  0  0  0  0  0
  161.5700  210.7300  154.6760 C   0  0  0  0  0  0  0  0  0  0  0  0
  160.3990  212.1240  156.2940 C   0  0  0  0  0  3  0  0  0  0  0  0
  160.4590  211.5630  155.0040 C   0  0  0  0  0  0  0  0  0  0  0  0
  159.4020  211.9610  153.9890 C   0  0  1  0  0  3  0  0  0  0  0  0
  160.0200  211.1360  152.0520 C   0  0  0  0  0  2  0  0  0  0  0  0
  162.4280  210.9940  156.9410 C   0  0  0  0  0  3  0  0  0  0  0  0
  161.1960  210.2230  152.1890 C   0  0  0  0  0  0  0  0  0  0  0  0
  161.8380  210.0950  153.3610 C   0  0  0  0  0  3  0  0  0  0  0  0
  162.5260  210.4520  155.6610 C   0  0  0  0  0  3  0  0  0  0  0  0
  159.1330  210.9180  153.1020 O   0  0  0  0  0  0  0  0  0  0  0  0
  158.0480  213.5700  155.0560 O   0  0  0  0  0  0  0  0  0  0  0  0
  158.1140  212.4390  154.5990 C   0  0  0  0  0  0  0  0  0  0  0  0
  155.7780  212.2810  154.9400 O   0  0  0  0  0  1  0  0  0  0  0  0
  156.9260  211.5330  154.6810 C   0  0  0  0  0  2  0  0  0  0  0  0
  162.1860  210.2340  149.8140 C   0  0  0  0  0  2  0  0  0  0  0  0
  161.1790  211.2240  149.3400 C   0  0  0  0  0  3  0  0  0  0  0  0
  161.3610  214.4530  147.9760 O   0  0  0  0  0  1  0  0  0  0  0  0
  161.5400  212.2040  148.5610 C   0  0  0  0  0  0  0  0  0  0  0  0
  161.8940  213.1850  147.7810 C   0  0  0  0  0  0  0  0  0  0  0  0
  162.8510  212.9410  146.6670 C   0  0  0  0  0  2  0  0  0  0  0  0
  162.7230  213.9540  145.6980 O   0  0  0  0  0  0  0  0  0  0  0  0
  162.4150  213.5850  143.2930 C   0  0  0  0  0  2  0  0  0  0  0  0
  161.8150  213.5280  144.7040 C   0  0  2  0  0  3  0  0  0  0  0  0
  161.6580  213.3140  140.7230 O   0  0  0  0  0  0  0  0  0  0  0  0
  159.3920  213.4580  143.9990 C   0  0  0  0  0  2  0  0  0  0  0  0
  159.6550  213.5880  142.5050 C   0  0  0  0  0  2  0  0  0  0  0  0
  161.2590  212.9160  142.1160 S   0  0  0  0  0  0  0  0  0  0  0  0
  160.4410  214.2090  144.8150 C   0  0  0  0  0  2  0  0  0  0  0  0
  161.2270  211.4180  142.2240 O   0  0  0  0  0  0  0  0  0  0  0  0
  161.0820  207.1650  151.8460 C   0  0  0  0  0  2  0  0  0  0  0  0
  160.5980  205.9060  151.1550 C   0  0  0  0  0  2  0  0  0  0  0  0
  161.6000  204.7840  151.3570 C   0  0  2  0  0  3  0  0  0  0  0  0
  162.8360  205.3150  151.7310 O   0  0  0  0  0  1  0  0  0  0  0  0
  161.7470  204.0030  150.0620 C   0  0  0  0  0  2  0  0  0  0  0  0
  160.6060  203.0110  149.8840 C   0  0  2  0  0  3  0  0  0  0  0  0
  160.8790  202.4050  152.1910 O   0  0  0  0  0  1  0  0  0  0  0  0
  160.0760  200.7570  150.8130 O   0  0  0  0  0  0  0  0  0  0  0  0
  160.5350  202.0490  151.0310 C   0  0  0  0  0  0  0  0  0  0  0  0
  160.7890  202.2620  148.5750 C   0  0  0  0  0  2  0  0  0  0  0  0
  161.2150  202.9400  146.2470 C   0  0  0  0  0  0  0  0  0  0  0  0
  161.2000  203.1870  147.5260 N   0  0  0  0  0  0  0  0  0  0  0  0
  160.7360  201.6510  145.6620 C   0  0  0  0  0  0  0  0  0  0  0  0
  159.7790  201.6580  144.8420 O   0  0  0  0  0  0  0  0  0  0  0  0
  160.8580  199.1340  145.5030 C   0  0  0  0  0  1  0  0  0  0  0  0
  161.3180  200.4010  146.0470 N   0  0  0  0  0  2  0  0  0  0  0  0
  160.7270  204.5390  144.5120 O   0  0  0  0  0  1  0  0  0  0  0  0
  161.7240  204.0410  145.3580 C   0  0  1  0  0  3  0  0  0  0  0  0
  162.4220  205.1600  146.1280 C   0  0  0  0  0  2  0  0  0  0  0  0
  161.4400  206.1370  146.7540 C   0  0  0  0  0  2  0  0  0  0  0  0
  162.1610  206.9910  147.7750 C   0  0  0  0  0  1  0  0  0  0  0  0
  1 10  1  0  0  0  0
  2  1  2  0  0  0  0
  2 33  1  0  0  0  0
  4  6  2  0  0  0  0
  4 12  1  0  0  0  0
  5  3  2  0  0  0  0
  6  5  1  0  0  0  0
  7 15  1  1  0  0  0
  7  6  1  0  0  0  0
  8 10  1  0  0  0  0
  8 13  1  0  0  0  0
  9  3  1  0  0  0  0
 10 11  2  0  0  0  0
 11  4  1  0  0  0  0
 12  9  2  0  0  0  0
 13  7  1  0  0  0  0
 15 17  1  0  0  0  0
 15 14  2  0  0  0  0
 17 16  1  0  0  0  0
 18  1  1  0  0  0  0
 19 18  1  0  0  0  0
 21 19  2  0  0  0  0
 22 20  1  0  0  0  0
 22 21  2  0  0  0  0
 23 22  1  0  0  0  0
 24 23  1  0  0  0  0
 25 26  1  0  0  0  0
 26 31  1  0  0  0  0
 26 24  1  1  0  0  0
 27 30  2  0  0  0  0
 28 31  1  0  0  0  0
 29 28  1  0  0  0  0
 30 32  2  0  0  0  0
 30 29  1  0  0  0  0
 30 25  1  0  0  0  0
 34 35  1  0  0  0  0
 34 33  1  0  0  0  0
 35 36  1  6  0  0  0
 37 35  1  0  0  0  0
 38 42  1  6  0  0  0
 38 37  1  0  0  0  0
 38 41  1  0  0  0  0
 40 41  2  0  0  0  0
 41 39  1  0  0  0  0
 43 44  2  0  0  0  0
 44 42  1  0  0  0  0
 45 48  1  0  0  0  0
 45 43  1  0  0  0  0
 46 45  2  0  0  0  0
 47 48  1  0  0  0  0
 50 49  1  1  0  0  0
 50 51  1  0  0  0  0
 50 43  1  0  0  0  0
 51 52  1  0  0  0  0
 52 53  1  0  0  0  0
M  END
>  <MODEL>
3

>  <REMARK>
 VINA RESULT:      -5.8      1.849      2.602
  Name = 
  20 active torsions:
  status: ('A' for Active; 'I' for Inactive)
    1  A    between atoms: C_4  and  C_10
    2  A    between atoms: C_6  and  O_15
    3  A    between atoms: C_7  and  C_10
    4  A    between atoms: C_7  and  C_42
    5  A    between atoms: C_8  and  C_19
    6  A    between atoms: C_9  and  C_14
    7  A    between atoms: C_9  and  C_21
    8  A    between atoms: C_11  and  C_19
    9  A    between atoms: C_11  and  C_39
   10  A    between atoms: C_14  and  C_33
   11  A    between atoms: C_14  and  C_40
   12  A    between atoms: O_15  and  C_16
   13  A    between atoms: C_16  and  C_30
   14  A    between atoms: C_20  and  C_39
   15  A    between atoms: C_21  and  C_28
   16  A    between atoms: C_22  and  C_28
   17  A    between atoms: C_22  and  C_50
   18  A    between atoms: C_32  and  C_51
   19  A    between atoms: C_35  and  C_51
   20  A    between atoms: C_40  and  N_48
                            x       y       z     vdW  Elec       q    Type
                         _______ _______ _______ _____ _____    ______ ____

>  <TORSDO>
F 20

$$$$
=
 OpenBabel11052410413D

 53 55  0  0  1  0  0  0  0  0999 V2000
  162.1980  208.3140  150.9140 C   0  0  0  0  0  0  0  0  0  0  0  0
  162.1020  208.9620  149.7440 C   0  0  0  0  0  3  0  0  0  0  0  0
  160.0090  208.5450  157.2600 C   0  0  0  0  0  3  0  0  0  0  0  0
  160.8810  208.3020  154.5940 C   0  0  0  0  0  0  0  0  0  0  0  0
  160.1560  209.6820  156.4650 C   0  0  0  0  0  3  0  0  0  0  0  0
  160.5630  209.5890  155.1210 C   0  0  0  0  0  0  0  0  0  0  0  0
  160.7540  210.8710  154.3300 C   0  0  1  0  0  3  0  0  0  0  0  0
  161.6800  210.3220  152.4180 C   0  0  0  0  0  2  0  0  0  0  0  0
  160.2860  207.2890  156.7280 C   0  0  0  0  0  3  0  0  0  0  0  0
  161.7300  208.8390  152.2330 C   0  0  0  0  0  0  0  0  0  0  0  0
  161.3760  208.0060  153.2260 C   0  0  0  0  0  3  0  0  0  0  0  0
  160.7210  207.1740  155.4090 C   0  0  0  0  0  3  0  0  0  0  0  0
  160.4580  210.6820  152.9790 O   0  0  0  0  0  0  0  0  0  0  0  0
  160.4180  212.7110  155.7670 O   0  0  0  0  0  0  0  0  0  0  0  0
  159.9640  212.0380  154.8520 C   0  0  0  0  0  0  0  0  0  0  0  0
  158.1030  213.4970  154.9150 O   0  0  0  0  0  1  0  0  0  0  0  0
  158.6170  212.3630  154.2890 C   0  0  0  0  0  2  0  0  0  0  0  0
  162.8440  206.9650  150.8660 C   0  0  0  0  0  2  0  0  0  0  0  0
  162.1040  206.0150  151.7420 C   0  0  0  0  0  3  0  0  0  0  0  0
  159.4590  203.7620  151.2410 O   0  0  0  0  0  1  0  0  0  0  0  0
  161.4010  205.0520  151.2170 C   0  0  0  0  0  0  0  0  0  0  0  0
  160.6970  204.0870  150.6980 C   0  0  0  0  0  0  0  0  0  0  0  0
  161.2290  203.3170  149.5410 C   0  0  0  0  0  2  0  0  0  0  0  0
  162.1960  204.0820  148.8640 O   0  0  0  0  0  0  0  0  0  0  0  0
  161.2820  205.4270  147.0280 C   0  0  0  0  0  2  0  0  0  0  0  0
  161.8910  204.0960  147.4850 C   0  0  2  0  0  3  0  0  0  0  0  0
  160.1130  206.5200  144.8620 O   0  0  0  0  0  0  0  0  0  0  0  0
  161.1170  202.7180  145.5160 C   0  0  0  0  0  2  0  0  0  0  0  0
  160.3360  203.8350  144.8360 C   0  0  0  0  0  2  0  0  0  0  0  0
  161.0450  205.4120  145.2640 S   0  0  0  0  0  0  0  0  0  0  0  0
  161.0860  202.8660  147.0350 C   0  0  0  0  0  2  0  0  0  0  0  0
  162.3660  205.5860  144.5690 O   0  0  0  0  0  0  0  0  0  0  0  0
  161.4990  210.3120  149.5380 C   0  0  0  0  0  2  0  0  0  0  0  0
  162.2160  211.0260  148.4100 C   0  0  0  0  0  2  0  0  0  0  0  0
  161.5600  212.3680  148.1450 C   0  0  2  0  0  3  0  0  0  0  0  0
  161.3510  213.0400  149.3520 O   0  0  0  0  0  1  0  0  0  0  0  0
  160.2300  212.1470  147.4440 C   0  0  0  0  0  2  0  0  0  0  0  0
  159.6280  213.4650  146.9760 C   0  0  2  0  0  3  0  0  0  0  0  0
  157.2620  213.6360  147.3460 O   0  0  0  0  0  0  0  0  0  0  0  0
  158.5970  214.3970  149.0490 O   0  0  0  0  0  1  0  0  0  0  0  0
  158.4250  213.8360  147.7900 C   0  0  0  0  0  0  0  0  0  0  0  0
  159.2600  213.3560  145.5060 C   0  0  0  0  0  2  0  0  0  0  0  0
  160.5080  213.4850  143.3890 C   0  0  0  0  0  0  0  0  0  0  0  0
  160.4650  213.3900  144.6870 N   0  0  0  0  0  0  0  0  0  0  0  0
  159.2860  213.6410  142.5430 C   0  0  0  0  0  0  0  0  0  0  0  0
  158.3850  214.4490  142.8960 O   0  0  0  0  0  0  0  0  0  0  0  0
  157.9120  212.9830  140.5300 C   0  0  0  0  0  1  0  0  0  0  0  0
  159.1000  212.8590  141.3590 N   0  0  0  0  0  2  0  0  0  0  0  0
  162.8640  213.9310  143.6280 O   0  0  0  0  0  1  0  0  0  0  0  0
  161.8740  213.4570  142.7610 C   0  0  1  0  0  3  0  0  0  0  0  0
  162.2390  212.0930  142.1790 C   0  0  0  0  0  2  0  0  0  0  0  0
  162.3970  212.1280  140.6670 C   0  0  0  0  0  2  0  0  0  0  0  0
  162.8610  210.7720  140.1780 C   0  0  0  0  0  1  0  0  0  0  0  0
  1 10  1  0  0  0  0
  2  1  2  0  0  0  0
  4  6  2  0  0  0  0
  4 12  1  0  0  0  0
  5  3  2  0  0  0  0
  6  5  1  0  0  0  0
  7 15  1  1  0  0  0
  7  6  1  0  0  0  0
  8 13  1  0  0  0  0
  9  3  1  0  0  0  0
 10  8  1  0  0  0  0
 10 11  2  0  0  0  0
 11  4  1  0  0  0  0
 12  9  2  0  0  0  0
 13  7  1  0  0  0  0
 15 14  2  0  0  0  0
 17 15  1  0  0  0  0
 17 16  1  0  0  0  0
 18  1  1  0  0  0  0
 18 19  1  0  0  0  0
 21 19  2  0  0  0  0
 22 21  2  0  0  0  0
 22 20  1  0  0  0  0
 23 22  1  0  0  0  0
 24 23  1  0  0  0  0
 25 26  1  0  0  0  0
 26 24  1  1  0  0  0
 27 30  2  0  0  0  0
 28 31  1  0  0  0  0
 29 30  1  0  0  0  0
 29 28  1  0  0  0  0
 30 25  1  0  0  0  0
 31 26  1  0  0  0  0
 32 30  2  0  0  0  0
 33  2  1  0  0  0  0
 34 33  1  0  0  0  0
 35 34  1  0  0  0  0
 35 36  1  1  0  0  0
 37 35  1  0  0  0  0
 38 42  1  6  0  0  0
 38 37  1  0  0  0  0
 38 41  1  0  0  0  0
 39 41  2  0  0  0  0
 41 40  1  0  0  0  0
 43 44  2  0  0  0  0
 44 42  1  0  0  0  0
 45 46  2  0  0  0  0
 45 43  1  0  0  0  0
 47 48  1  0  0  0  0
 48 45  1  0  0  0  0
 50 43  1  0  0  0  0
 50 49  1  1  0  0  0
 51 50  1  0  0  0  0
 52 51  1  0  0  0  0
 53 52  1  0  0  0  0
M  END
>  <MODEL>
4

>  <REMARK>
 VINA RESULT:      -5.7      3.361      8.730
  Name = 
  20 active torsions:
  status: ('A' for Active; 'I' for Inactive)
    1  A    between atoms: C_4  and  C_10
    2  A    between atoms: C_6  and  O_15
    3  A    between atoms: C_7  and  C_10
    4  A    between atoms: C_7  and  C_42
    5  A    between atoms: C_8  and  C_19
    6  A    between atoms: C_9  and  C_14
    7  A    between atoms: C_9  and  C_21
    8  A    between atoms: C_11  and  C_19
    9  A    between atoms: C_11  and  C_39
   10  A    between atoms: C_14  and  C_33
   11  A    between atoms: C_14  and  C_40
   12  A    between atoms: O_15  and  C_16
   13  A    between atoms: C_16  and  C_30
   14  A    between atoms: C_20  and  C_39
   15  A    between atoms: C_21  and  C_28
   16  A    between atoms: C_22  and  C_28
   17  A    between atoms: C_22  and  C_50
   18  A    between atoms: C_32  and  C_51
   19  A    between atoms: C_35  and  C_51
   20  A    between atoms: C_40  and  N_48
                            x       y       z     vdW  Elec       q    Type
                         _______ _______ _______ _____ _____    ______ ____

>  <TORSDO>
F 20

$$$$
=
 OpenBabel11052410413D

 53 55  0  0  1  0  0  0  0  0999 V2000
  161.1010  207.8620  151.1030 C   0  0  0  0  0  0  0  0  0  0  0  0
  161.2580  206.5370  151.2480 C   0  0  0  0  0  3  0  0  0  0  0  0
  160.6450  210.5130  157.2570 C   0  0  0  0  0  3  0  0  0  0  0  0
  160.8410  209.2630  154.7420 C   0  0  0  0  0  0  0  0  0  0  0  0
  160.2030  211.1730  156.1120 C   0  0  0  0  0  3  0  0  0  0  0  0
  160.2620  210.5630  154.8450 C   0  0  0  0  0  0  0  0  0  0  0  0
  159.8130  211.3600  153.6330 C   0  0  1  0  0  3  0  0  0  0  0  0
  160.3500  210.1930  151.8540 C   0  0  0  0  0  2  0  0  0  0  0  0
  161.1760  209.2300  157.1560 C   0  0  0  0  0  3  0  0  0  0  0  0
  160.8370  208.8260  152.2140 C   0  0  0  0  0  0  0  0  0  0  0  0
  161.0420  208.4820  153.4960 C   0  0  0  0  0  3  0  0  0  0  0  0
  161.2740  208.6170  155.9080 C   0  0  0  0  0  3  0  0  0  0  0  0
  159.2630  210.5290  152.6550 O   0  0  0  0  0  0  0  0  0  0  0  0
  158.1350  212.3770  154.9410 O   0  0  0  0  0  0  0  0  0  0  0  0
  158.8430  212.4640  153.9490 C   0  0  0  0  0  0  0  0  0  0  0  0
  158.7530  213.2330  151.7130 O   0  0  0  0  0  1  0  0  0  0  0  0
  158.7120  213.6470  153.0440 C   0  0  0  0  0  2  0  0  0  0  0  0
  161.1870  208.3840  149.7040 C   0  0  0  0  0  2  0  0  0  0  0  0
  162.4170  209.2070  149.5430 C   0  0  0  0  0  3  0  0  0  0  0  0
  163.2610  212.0120  147.6070 O   0  0  0  0  0  1  0  0  0  0  0  0
  162.3450  210.3970  149.0180 C   0  0  0  0  0  0  0  0  0  0  0  0
  162.2790  211.5890  148.4950 C   0  0  0  0  0  0  0  0  0  0  0  0
  161.1650  212.5030  148.8660 C   0  0  0  0  0  2  0  0  0  0  0  0
  161.2710  213.7040  148.1400 O   0  0  0  0  0  0  0  0  0  0  0  0
  159.0740  212.9770  147.3270 C   0  0  0  0  0  2  0  0  0  0  0  0
  160.4210  213.6390  147.0130 C   0  0  2  0  0  3  0  0  0  0  0  0
  156.8730  212.0850  146.0570 O   0  0  0  0  0  0  0  0  0  0  0  0
  160.3160  213.3630  144.5060 C   0  0  0  0  0  2  0  0  0  0  0  0
  159.0010  212.5950  144.4840 C   0  0  0  0  0  2  0  0  0  0  0  0
  158.0160  213.0480  145.8970 S   0  0  0  0  0  0  0  0  0  0  0  0
  161.1160  213.0580  145.7700 C   0  0  0  0  0  2  0  0  0  0  0  0
  157.4820  214.4420  145.7250 O   0  0  0  0  0  0  0  0  0  0  0  0
  161.2160  205.7870  152.5370 C   0  0  0  0  0  2  0  0  0  0  0  0
  160.4400  204.4980  152.3540 C   0  0  0  0  0  2  0  0  0  0  0  0
  161.1090  203.6350  151.3010 C   0  0  2  0  0  3  0  0  0  0  0  0
  162.4850  203.8780  151.2920 O   0  0  0  0  0  1  0  0  0  0  0  0
  160.5220  203.9610  149.9380 C   0  0  0  0  0  2  0  0  0  0  0  0
  160.4170  202.7140  149.0700 C   0  0  2  0  0  3  0  0  0  0  0  0
  161.1970  200.8540  150.3720 O   0  0  0  0  0  1  0  0  0  0  0  0
  158.9210  201.0450  150.1680 O   0  0  0  0  0  0  0  0  0  0  0  0
  160.2110  201.4850  149.9040 C   0  0  0  0  0  0  0  0  0  0  0  0
  161.6750  202.5790  148.2290 C   0  0  0  0  0  2  0  0  0  0  0  0
  161.1760  203.0670  145.8690 C   0  0  0  0  0  0  0  0  0  0  0  0
  161.5800  203.4330  147.0520 N   0  0  0  0  0  0  0  0  0  0  0  0
  160.6790  201.6910  145.5680 C   0  0  0  0  0  0  0  0  0  0  0  0
  159.5750  201.5430  144.9780 O   0  0  0  0  0  0  0  0  0  0  0  0
  160.9420  199.1840  145.7090 C   0  0  0  0  0  1  0  0  0  0  0  0
  161.4140  200.5320  145.9760 N   0  0  0  0  0  2  0  0  0  0  0  0
  159.9580  204.2920  144.1880 O   0  0  0  0  0  1  0  0  0  0  0  0
  161.2060  204.1200  144.7950 C   0  0  1  0  0  3  0  0  0  0  0  0
  161.7900  205.4480  145.2730 C   0  0  0  0  0  2  0  0  0  0  0  0
  161.2350  205.8760  146.6220 C   0  0  0  0  0  2  0  0  0  0  0  0
  162.3150  206.5890  147.4080 C   0  0  0  0  0  1  0  0  0  0  0  0
  1  2  2  0  0  0  0
  1 10  1  0  0  0  0
  2 33  1  0  0  0  0
  4  6  2  0  0  0  0
  4 12  1  0  0  0  0
  5  3  2  0  0  0  0
  6  5  1  0  0  0  0
  7 15  1  1  0  0  0
  7  6  1  0  0  0  0
  8 10  1  0  0  0  0
  8 13  1  0  0  0  0
  9  3  1  0  0  0  0
 10 11  2  0  0  0  0
 11  4  1  0  0  0  0
 12  9  2  0  0  0  0
 13  7  1  0  0  0  0
 15 14  2  0  0  0  0
 16 17  1  0  0  0  0
 17 15  1  0  0  0  0
 18  1  1  0  0  0  0
 19 18  1  0  0  0  0
 20 22  1  0  0  0  0
 21 19  2  0  0  0  0
 22 23  1  0  0  0  0
 22 21  2  0  0  0  0
 24 23  1  0  0  0  0
 26 25  1  0  0  0  0
 26 24  1  1  0  0  0
 28 31  1  0  0  0  0
 29 28  1  0  0  0  0
 29 30  1  0  0  0  0
 30 27  2  0  0  0  0
 30 25  1  0  0  0  0
 31 26  1  0  0  0  0
 32 30  2  0  0  0  0
 34 33  1  0  0  0  0
 35 36  1  6  0  0  0
 35 34  1  0  0  0  0
 37 35  1  0  0  0  0
 38 42  1  1  0  0  0
 38 41  1  0  0  0  0
 38 37  1  0  0  0  0
 41 40  2  0  0  0  0
 41 39  1  0  0  0  0
 43 44  2  0  0  0  0
 44 42  1  0  0  0  0
 45 43  1  0  0  0  0
 45 48  1  0  0  0  0
 46 45  2  0  0  0  0
 47 48  1  0  0  0  0
 50 49  1  1  0  0  0
 50 51  1  0  0  0  0
 50 43  1  0  0  0  0
 51 52  1  0  0  0  0
 52 53  1  0  0  0  0
M  END
>  <MODEL>
5

>  <REMARK>
 VINA RESULT:      -5.0      2.678      3.850
  Name = 
  20 active torsions:
  status: ('A' for Active; 'I' for Inactive)
    1  A    between atoms: C_4  and  C_10
    2  A    between atoms: C_6  and  O_15
    3  A    between atoms: C_7  and  C_10
    4  A    between atoms: C_7  and  C_42
    5  A    between atoms: C_8  and  C_19
    6  A    between atoms: C_9  and  C_14
    7  A    between atoms: C_9  and  C_21
    8  A    between atoms: C_11  and  C_19
    9  A    between atoms: C_11  and  C_39
   10  A    between atoms: C_14  and  C_33
   11  A    between atoms: C_14  and  C_40
   12  A    between atoms: O_15  and  C_16
   13  A    between atoms: C_16  and  C_30
   14  A    between atoms: C_20  and  C_39
   15  A    between atoms: C_21  and  C_28
   16  A    between atoms: C_22  and  C_28
   17  A    between atoms: C_22  and  C_50
   18  A    between atoms: C_32  and  C_51
   19  A    between atoms: C_35  and  C_51
   20  A    between atoms: C_40  and  N_48
                            x       y       z     vdW  Elec       q    Type
                         _______ _______ _______ _____ _____    ______ ____

>  <TORSDO>
F 20

$$$$
=
 OpenBabel11052410413D

 53 55  0  0  1  0  0  0  0  0999 V2000
  160.3760  212.8680  148.1130 C   0  0  0  0  0  0  0  0  0  0  0  0
  160.9920  211.8490  148.7320 C   0  0  0  0  0  3  0  0  0  0  0  0
  158.7280  214.4530  141.7980 C   0  0  0  0  0  3  0  0  0  0  0  0
  159.2730  213.7450  144.4680 C   0  0  0  0  0  0  0  0  0  0  0  0
  160.0330  214.1560  142.1910 C   0  0  0  0  0  3  0  0  0  0  0  0
  160.3310  213.7720  143.5120 C   0  0  0  0  0  0  0  0  0  0  0  0
  161.7810  213.5160  143.8830 C   0  0  1  0  0  3  0  0  0  0  0  0
  161.8570  213.2590  146.0610 C   0  0  0  0  0  2  0  0  0  0  0  0
  157.6940  214.3890  142.7280 C   0  0  0  0  0  3  0  0  0  0  0  0
  160.4890  213.1900  146.6580 C   0  0  0  0  0  0  0  0  0  0  0  0
  159.3960  213.4210  145.9120 C   0  0  0  0  0  3  0  0  0  0  0  0
  157.9700  214.0420  144.0500 C   0  0  0  0  0  3  0  0  0  0  0  0
  161.8860  212.5360  144.8710 O   0  0  0  0  0  0  0  0  0  0  0  0
  162.6910  211.9810  142.3410 O   0  0  0  0  0  0  0  0  0  0  0  0
  162.6560  213.1420  142.7200 C   0  0  0  0  0  0  0  0  0  0  0  0
  163.7940  213.7670  140.7410 O   0  0  0  0  0  1  0  0  0  0  0  0
  163.5090  214.1700  142.0450 C   0  0  0  0  0  2  0  0  0  0  0  0
  159.5260  213.7440  148.9790 C   0  0  0  0  0  2  0  0  0  0  0  0
  160.1830  213.9430  150.3000 C   0  0  0  0  0  3  0  0  0  0  0  0
  159.2240  213.3880  153.6310 O   0  0  0  0  0  1  0  0  0  0  0  0
  159.7310  213.3290  151.3560 C   0  0  0  0  0  0  0  0  0  0  0  0
  159.2840  212.7170  152.4160 C   0  0  0  0  0  0  0  0  0  0  0  0
  158.8620  211.2920  152.3290 C   0  0  0  0  0  2  0  0  0  0  0  0
  158.1370  210.9380  153.4810 O   0  0  0  0  0  0  0  0  0  0  0  0
  159.6100  209.1860  154.3610 C   0  0  0  0  0  2  0  0  0  0  0  0
  159.0420  210.6030  154.5120 C   0  0  2  0  0  3  0  0  0  0  0  0
  161.1070  207.4130  155.7280 O   0  0  0  0  0  0  0  0  0  0  0  0
  159.6070  210.8960  156.9550 C   0  0  0  0  0  2  0  0  0  0  0  0
  160.1740  209.4970  157.1580 C   0  0  0  0  0  2  0  0  0  0  0  0
  160.8330  208.8860  155.6200 S   0  0  0  0  0  0  0  0  0  0  0  0
  158.4880  210.8960  155.9160 C   0  0  0  0  0  2  0  0  0  0  0  0
  162.1040  209.6140  155.2820 O   0  0  0  0  0  0  0  0  0  0  0  0
  161.8850  210.8440  148.0840 C   0  0  0  0  0  2  0  0  0  0  0  0
  161.1230  209.5530  147.8590 C   0  0  0  0  0  2  0  0  0  0  0  0
  161.6660  208.4640  148.7660 C   0  0  2  0  0  3  0  0  0  0  0  0
  162.2440  209.0370  149.9010 O   0  0  0  0  0  1  0  0  0  0  0  0
  162.7100  207.6580  148.0110 C   0  0  0  0  0  2  0  0  0  0  0  0
  162.3280  206.1860  147.9460 C   0  0  2  0  0  3  0  0  0  0  0  0
  162.5270  205.0220  145.8560 O   0  0  0  0  0  0  0  0  0  0  0  0
  160.6490  206.3150  146.1040 O   0  0  0  0  0  1  0  0  0  0  0  0
  161.8510  205.8050  146.5770 C   0  0  0  0  0  0  0  0  0  0  0  0
  161.2520  205.8990  148.9810 C   0  0  0  0  0  2  0  0  0  0  0  0
  160.9830  203.7220  150.0960 C   0  0  0  0  0  0  0  0  0  0  0  0
  160.9780  204.4690  149.0290 N   0  0  0  0  0  0  0  0  0  0  0  0
  161.2180  204.2650  151.4680 C   0  0  0  0  0  0  0  0  0  0  0  0
  160.7460  203.6570  152.4670 O   0  0  0  0  0  0  0  0  0  0  0  0
  162.1620  206.0430  152.9920 C   0  0  0  0  0  1  0  0  0  0  0  0
  161.9350  205.4870  151.6690 N   0  0  0  0  0  2  0  0  0  0  0  0
  159.3470  201.9880  149.7420 O   0  0  0  0  0  1  0  0  0  0  0  0
  160.7120  202.2570  149.8900 C   0  0  1  0  0  3  0  0  0  0  0  0
  161.5340  201.6480  148.7560 C   0  0  0  0  0  2  0  0  0  0  0  0
  160.6720  201.2110  147.5830 C   0  0  0  0  0  2  0  0  0  0  0  0
  160.7670  202.2420  146.4780 C   0  0  0  0  0  1  0  0  0  0  0  0
  1  2  2  0  0  0  0
  1 18  1  0  0  0  0
  3  5  2  0  0  0  0
  3  9  1  0  0  0  0
  4 11  1  0  0  0  0
  5  6  1  0  0  0  0
  6  7  1  0  0  0  0
  6  4  2  0  0  0  0
  7 15  1  6  0  0  0
  7 13  1  0  0  0  0
  8 10  1  0  0  0  0
  9 12  2  0  0  0  0
 10  1  1  0  0  0  0
 11 10  2  0  0  0  0
 12  4  1  0  0  0  0
 13  8  1  0  0  0  0
 14 15  2  0  0  0  0
 16 17  1  0  0  0  0
 17 15  1  0  0  0  0
 18 19  1  0  0  0  0
 19 21  2  0  0  0  0
 21 22  2  0  0  0  0
 22 20  1  0  0  0  0
 23 22  1  0  0  0  0
 23 24  1  0  0  0  0
 25 26  1  0  0  0  0
 25 30  1  0  0  0  0
 26 24  1  6  0  0  0
 26 31  1  0  0  0  0
 28 29  1  0  0  0  0
 30 27  2  0  0  0  0
 30 29  1  0  0  0  0
 31 28  1  0  0  0  0
 32 30  2  0  0  0  0
 33  2  1  0  0  0  0
 34 33  1  0  0  0  0
 34 35  1  0  0  0  0
 35 36  1  1  0  0  0
 37 35  1  0  0  0  0
 38 37  1  6  0  0  0
 38 42  1  0  0  0  0
 39 41  2  0  0  0  0
 40 41  1  0  0  0  0
 41 38  1  0  0  0  0
 42 44  1  0  0  0  0
 43 45  1  0  0  0  0
 44 43  2  0  0  0  0
 45 48  1  0  0  0  0
 45 46  2  0  0  0  0
 48 47  1  0  0  0  0
 50 49  1  6  0  0  0
 50 43  1  0  0  0  0
 51 50  1  0  0  0  0
 52 51  1  0  0  0  0
 53 52  1  0  0  0  0
M  END
>  <MODEL>
6

>  <REMARK>
 VINA RESULT:      -4.7      3.117      9.568
  Name = 
  20 active torsions:
  status: ('A' for Active; 'I' for Inactive)
    1  A    between atoms: C_4  and  C_10
    2  A    between atoms: C_6  and  O_15
    3  A    between atoms: C_7  and  C_10
    4  A    between atoms: C_7  and  C_42
    5  A    between atoms: C_8  and  C_19
    6  A    between atoms: C_9  and  C_14
    7  A    between atoms: C_9  and  C_21
    8  A    between atoms: C_11  and  C_19
    9  A    between atoms: C_11  and  C_39
   10  A    between atoms: C_14  and  C_33
   11  A    between atoms: C_14  and  C_40
   12  A    between atoms: O_15  and  C_16
   13  A    between atoms: C_16  and  C_30
   14  A    between atoms: C_20  and  C_39
   15  A    between atoms: C_21  and  C_28
   16  A    between atoms: C_22  and  C_28
   17  A    between atoms: C_22  and  C_50
   18  A    between atoms: C_32  and  C_51
   19  A    between atoms: C_35  and  C_51
   20  A    between atoms: C_40  and  N_48
                            x       y       z     vdW  Elec       q    Type
                         _______ _______ _______ _____ _____    ______ ____

>  <TORSDO>
F 20

$$$$
=
 OpenBabel11052410413D

 53 55  0  0  1  0  0  0  0  0999 V2000
  161.9710  209.6620  154.2950 C   0  0  0  0  0  0  0  0  0  0  0  0
  161.2860  208.5570  154.6300 C   0  0  0  0  0  3  0  0  0  0  0  0
  159.2830  214.0480  149.9770 C   0  0  0  0  0  3  0  0  0  0  0  0
  160.2760  212.2090  151.8630 C   0  0  0  0  0  0  0  0  0  0  0  0
  160.3620  213.2260  149.6520 C   0  0  0  0  0  3  0  0  0  0  0  0
  160.8620  212.2780  150.5640 C   0  0  0  0  0  0  0  0  0  0  0  0
  162.0730  211.4540  150.1640 C   0  0  1  0  0  3  0  0  0  0  0  0
  162.7200  210.3460  151.9430 C   0  0  0  0  0  2  0  0  0  0  0  0
  158.6930  213.9510  151.2340 C   0  0  0  0  0  3  0  0  0  0  0  0
  161.7420  210.4800  153.0660 C   0  0  0  0  0  0  0  0  0  0  0  0
  160.6970  211.3200  152.9750 C   0  0  0  0  0  3  0  0  0  0  0  0
  159.1910  213.0410  152.1650 C   0  0  0  0  0  3  0  0  0  0  0  0
  162.0350  210.1840  150.7420 O   0  0  0  0  0  0  0  0  0  0  0  0
  161.5800  210.5110  148.0580 O   0  0  0  0  0  0  0  0  0  0  0  0
  162.2590  211.3170  148.6780 C   0  0  0  0  0  0  0  0  0  0  0  0
  162.7440  212.6520  146.7860 O   0  0  0  0  0  1  0  0  0  0  0  0
  163.2870  212.1310  147.9600 C   0  0  0  0  0  2  0  0  0  0  0  0
  163.0540  210.0740  155.2410 C   0  0  0  0  0  2  0  0  0  0  0  0
  162.7220  211.3910  155.8520 C   0  0  0  0  0  3  0  0  0  0  0  0
  159.7740  213.2630  156.2060 O   0  0  0  0  0  1  0  0  0  0  0  0
  161.4880  211.6840  156.1480 C   0  0  0  0  0  0  0  0  0  0  0  0
  160.2550  211.9820  156.4470 C   0  0  0  0  0  0  0  0  0  0  0  0
  159.3720  210.9570  157.0680 C   0  0  0  0  0  2  0  0  0  0  0  0
  158.5670  210.3610  156.0800 O   0  0  0  0  0  0  0  0  0  0  0  0
  157.4100  212.0640  154.7470 C   0  0  0  0  0  2  0  0  0  0  0  0
  157.3750  211.1060  155.9440 C   0  0  2  0  0  3  0  0  0  0  0  0
  155.9680  214.0670  153.6700 O   0  0  0  0  0  0  0  0  0  0  0  0
  155.4780  212.2300  157.1740 C   0  0  0  0  0  2  0  0  0  0  0  0
  155.3100  213.3820  156.1920 C   0  0  0  0  0  2  0  0  0  0  0  0
  155.8330  212.8700  154.5680 S   0  0  0  0  0  0  0  0  0  0  0  0
  156.9330  211.7770  157.2550 C   0  0  0  0  0  2  0  0  0  0  0  0
  154.8320  211.9110  153.9860 O   0  0  0  0  0  0  0  0  0  0  0  0
  160.1660  207.9540  153.8510 C   0  0  0  0  0  2  0  0  0  0  0  0
  160.2590  206.4420  153.9070 C   0  0  0  0  0  2  0  0  0  0  0  0
  161.2040  205.9400  152.8310 C   0  0  2  0  0  3  0  0  0  0  0  0
  162.5260  206.1910  153.2060 O   0  0  0  0  0  1  0  0  0  0  0  0
  160.8980  206.6500  151.5230 C   0  0  0  0  0  2  0  0  0  0  0  0
  161.7240  206.0770  150.3790 C   0  0  2  0  0  3  0  0  0  0  0  0
  163.0450  207.2600  148.7600 O   0  0  0  0  0  0  0  0  0  0  0  0
  160.8230  207.8210  148.8380 O   0  0  0  0  0  1  0  0  0  0  0  0
  161.9110  207.0840  149.2840 C   0  0  0  0  0  0  0  0  0  0  0  0
  161.0420  204.8300  149.8420 C   0  0  0  0  0  2  0  0  0  0  0  0
  161.4210  203.5150  147.7970 C   0  0  0  0  0  0  0  0  0  0  0  0
  161.3730  204.6500  148.4340 N   0  0  0  0  0  0  0  0  0  0  0  0
  161.0690  202.2090  148.4310 C   0  0  0  0  0  0  0  0  0  0  0  0
  161.6550  201.1570  148.0560 O   0  0  0  0  0  0  0  0  0  0  0  0
  159.6800  200.8610  150.0520 C   0  0  0  0  0  1  0  0  0  0  0  0
  160.0500  202.1220  149.4310 N   0  0  0  0  0  2  0  0  0  0  0  0
  160.8550  203.0420  145.5020 O   0  0  0  0  0  1  0  0  0  0  0  0
  161.8310  203.5770  146.3510 C   0  0  1  0  0  3  0  0  0  0  0  0
  162.2620  204.9730  145.9080 C   0  0  0  0  0  2  0  0  0  0  0  0
  161.4400  205.4930  144.7400 C   0  0  0  0  0  2  0  0  0  0  0  0
  160.2120  206.2060  145.2670 C   0  0  0  0  0  1  0  0  0  0  0  0
  1  2  2  0  0  0  0
  1 18  1  0  0  0  0
  3  9  1  0  0  0  0
  4 12  1  0  0  0  0
  4 11  1  0  0  0  0
  5  3  2  0  0  0  0
  5  6  1  0  0  0  0
  6  4  2  0  0  0  0
  7 15  1  6  0  0  0
  7  6  1  0  0  0  0
  7 13  1  0  0  0  0
  8 10  1  0  0  0  0
  9 12  2  0  0  0  0
 10  1  1  0  0  0  0
 11 10  2  0  0  0  0
 13  8  1  0  0  0  0
 14 15  2  0  0  0  0
 16 17  1  0  0  0  0
 17 15  1  0  0  0  0
 18 19  1  0  0  0  0
 19 21  2  0  0  0  0
 20 22  1  0  0  0  0
 21 22  2  0  0  0  0
 22 23  1  0  0  0  0
 24 23  1  0  0  0  0
 25 26  1  0  0  0  0
 26 24  1  1  0  0  0
 26 31  1  0  0  0  0
 27 30  2  0  0  0  0
 28 31  1  0  0  0  0
 29 28  1  0  0  0  0
 30 25  1  0  0  0  0
 30 29  1  0  0  0  0
 32 30  2  0  0  0  0
 33 34  1  0  0  0  0
 33  2  1  0  0  0  0
 35 36  1  1  0  0  0
 35 34  1  0  0  0  0
 37 35  1  0  0  0  0
 38 42  1  6  0  0  0
 38 37  1  0  0  0  0
 39 41  2  0  0  0  0
 40 41  1  0  0  0  0
 41 38  1  0  0  0  0
 43 45  1  0  0  0  0
 43 44  2  0  0  0  0
 44 42  1  0  0  0  0
 45 48  1  0  0  0  0
 46 45  2  0  0  0  0
 48 47  1  0  0  0  0
 50 49  1  6  0  0  0
 50 43  1  0  0  0  0
 51 50  1  0  0  0  0
 52 53  1  0  0  0  0
 52 51  1  0  0  0  0
M  END
>  <MODEL>
7

>  <REMARK>
 VINA RESULT:      -4.5      3.759      8.003
  Name = 
  20 active torsions:
  status: ('A' for Active; 'I' for Inactive)
    1  A    between atoms: C_4  and  C_10
    2  A    between atoms: C_6  and  O_15
    3  A    between atoms: C_7  and  C_10
    4  A    between atoms: C_7  and  C_42
    5  A    between atoms: C_8  and  C_19
    6  A    between atoms: C_9  and  C_14
    7  A    between atoms: C_9  and  C_21
    8  A    between atoms: C_11  and  C_19
    9  A    between atoms: C_11  and  C_39
   10  A    between atoms: C_14  and  C_33
   11  A    between atoms: C_14  and  C_40
   12  A    between atoms: O_15  and  C_16
   13  A    between atoms: C_16  and  C_30
   14  A    between atoms: C_20  and  C_39
   15  A    between atoms: C_21  and  C_28
   16  A    between atoms: C_22  and  C_28
   17  A    between atoms: C_22  and  C_50
   18  A    between atoms: C_32  and  C_51
   19  A    between atoms: C_35  and  C_51
   20  A    between atoms: C_40  and  N_48
                            x       y       z     vdW  Elec       q    Type
                         _______ _______ _______ _____ _____    ______ ____

>  <TORSDO>
F 20

$$$$
=
 OpenBabel11052410413D

 53 55  0  0  1  0  0  0  0  0999 V2000
  161.8950  211.4820  148.9720 C   0  0  0  0  0  0  0  0  0  0  0  0
  161.5900  211.8960  150.2120 C   0  0  0  0  0  3  0  0  0  0  0  0
  158.0920  213.9870  144.0350 C   0  0  0  0  0  3  0  0  0  0  0  0
  159.5680  212.8480  146.1450 C   0  0  0  0  0  0  0  0  0  0  0  0
  159.4860  214.0070  144.0040 C   0  0  0  0  0  3  0  0  0  0  0  0
  160.2510  213.4210  145.0310 C   0  0  0  0  0  0  0  0  0  0  0  0
  161.7640  213.5260  144.9600 C   0  0  1  0  0  3  0  0  0  0  0  0
  162.5560  212.7830  146.8670 C   0  0  0  0  0  2  0  0  0  0  0  0
  157.4320  213.3940  145.1080 C   0  0  0  0  0  3  0  0  0  0  0  0
  161.4850  212.1660  147.7080 C   0  0  0  0  0  0  0  0  0  0  0  0
  160.1940  212.2350  147.3440 C   0  0  0  0  0  3  0  0  0  0  0  0
  158.1670  212.8350  146.1520 C   0  0  0  0  0  3  0  0  0  0  0  0
  162.3770  212.4130  145.5360 O   0  0  0  0  0  0  0  0  0  0  0  0
  163.4230  214.1870  143.4190 O   0  0  0  0  0  0  0  0  0  0  0  0
  162.3010  213.7250  143.5710 C   0  0  0  0  0  0  0  0  0  0  0  0
  161.7120  212.0870  141.9690 O   0  0  0  0  0  1  0  0  0  0  0  0
  161.4650  213.3970  142.3750 C   0  0  0  0  0  2  0  0  0  0  0  0
  162.6970  210.2230  148.8800 C   0  0  0  0  0  2  0  0  0  0  0  0
  161.9560  209.1000  149.5160 C   0  0  0  0  0  3  0  0  0  0  0  0
  159.8480  206.5580  148.3230 O   0  0  0  0  0  1  0  0  0  0  0  0
  161.5300  208.1030  148.7930 C   0  0  0  0  0  0  0  0  0  0  0  0
  161.1020  207.1030  148.0760 C   0  0  0  0  0  0  0  0  0  0  0  0
  161.9670  206.5300  147.0090 C   0  0  0  0  0  2  0  0  0  0  0  0
  162.6670  205.4170  147.5080 O   0  0  0  0  0  0  0  0  0  0  0  0
  162.1820  203.2070  148.4570 C   0  0  0  0  0  2  0  0  0  0  0  0
  161.8490  204.2710  147.4030 C   0  0  2  0  0  3  0  0  0  0  0  0
  161.5640  200.6610  149.0790 O   0  0  0  0  0  0  0  0  0  0  0  0
  160.6040  202.7470  145.8210 C   0  0  0  0  0  2  0  0  0  0  0  0
  160.8380  201.4680  146.6130 C   0  0  0  0  0  2  0  0  0  0  0  0
  161.0300  201.8560  148.3410 S   0  0  0  0  0  0  0  0  0  0  0  0
  161.7750  203.7150  145.9710 C   0  0  0  0  0  2  0  0  0  0  0  0
  159.7060  202.2610  148.9250 O   0  0  0  0  0  0  0  0  0  0  0  0
  160.8060  213.1170  150.5570 C   0  0  0  0  0  2  0  0  0  0  0  0
  159.7700  212.7790  151.6100 C   0  0  0  0  0  2  0  0  0  0  0  0
  158.4440  213.4290  151.2630 C   0  0  2  0  0  3  0  0  0  0  0  0
  158.5620  214.1360  150.0640 O   0  0  0  0  0  1  0  0  0  0  0  0
  158.0430  214.3790  152.3800 C   0  0  0  0  0  2  0  0  0  0  0  0
  157.0740  213.7140  153.3470 C   0  0  2  0  0  3  0  0  0  0  0  0
  154.7310  214.0530  153.7480 O   0  0  0  0  0  1  0  0  0  0  0  0
  155.3530  213.8840  151.5470 O   0  0  0  0  0  0  0  0  0  0  0  0
  155.6520  213.8910  152.9030 C   0  0  0  0  0  0  0  0  0  0  0  0
  157.2710  214.2950  154.7370 C   0  0  0  0  0  2  0  0  0  0  0  0
  157.9830  212.4280  156.1730 C   0  0  0  0  0  0  0  0  0  0  0  0
  158.2410  213.4980  155.4760 N   0  0  0  0  0  0  0  0  0  0  0  0
  156.6210  211.8200  156.2570 C   0  0  0  0  0  0  0  0  0  0  0  0
  155.8460  212.1580  157.1920 O   0  0  0  0  0  0  0  0  0  0  0  0
  154.8800  210.2110  155.3890 C   0  0  0  0  0  1  0  0  0  0  0  0
  156.1940  210.8280  155.3180 N   0  0  0  0  0  2  0  0  0  0  0  0
  158.9810  210.4190  157.0550 O   0  0  0  0  0  1  0  0  0  0  0  0
  159.1480  211.7980  156.8880 C   0  0  1  0  0  3  0  0  0  0  0  0
  160.4950  212.1320  156.2510 C   0  0  0  0  0  2  0  0  0  0  0  0
  161.2840  210.8890  155.8750 C   0  0  0  0  0  2  0  0  0  0  0  0
  161.4780  210.8510  154.3730 C   0  0  0  0  0  1  0  0  0  0  0  0
  1  2  2  0  0  0  0
  2 33  1  0  0  0  0
  3  9  1  0  0  0  0
  4 12  1  0  0  0  0
  4 11  1  0  0  0  0
  5  3  2  0  0  0  0
  5  6  1  0  0  0  0
  6  4  2  0  0  0  0
  7 15  1  6  0  0  0
  7  6  1  0  0  0  0
  7 13  1  0  0  0  0
  8 10  1  0  0  0  0
  9 12  2  0  0  0  0
 10  1  1  0  0  0  0
 11 10  2  0  0  0  0
 13  8  1  0  0  0  0
 14 15  2  0  0  0  0
 16 17  1  0  0  0  0
 17 15  1  0  0  0  0
 18  1  1  0  0  0  0
 18 19  1  0  0  0  0
 21 19  2  0  0  0  0
 22 20  1  0  0  0  0
 22 21  2  0  0  0  0
 23 24  1  0  0  0  0
 23 22  1  0  0  0  0
 26 24  1  6  0  0  0
 26 25  1  0  0  0  0
 28 31  1  0  0  0  0
 28 29  1  0  0  0  0
 29 30  1  0  0  0  0
 30 25  1  0  0  0  0
 30 32  2  0  0  0  0
 30 27  2  0  0  0  0
 31 26  1  0  0  0  0
 33 34  1  0  0  0  0
 35 36  1  6  0  0  0
 35 34  1  0  0  0  0
 35 37  1  0  0  0  0
 38 37  1  6  0  0  0
 38 42  1  0  0  0  0
 40 41  2  0  0  0  0
 41 38  1  0  0  0  0
 41 39  1  0  0  0  0
 42 44  1  0  0  0  0
 43 45  1  0  0  0  0
 43 50  1  0  0  0  0
 44 43  2  0  0  0  0
 45 46  2  0  0  0  0
 48 47  1  0  0  0  0
 48 45  1  0  0  0  0
 50 49  1  6  0  0  0
 51 50  1  0  0  0  0
 52 51  1  0  0  0  0
 53 52  1  0  0  0  0
M  END
>  <MODEL>
8

>  <REMARK>
 VINA RESULT:      -4.5      4.158     10.968
  Name = 
  20 active torsions:
  status: ('A' for Active; 'I' for Inactive)
    1  A    between atoms: C_4  and  C_10
    2  A    between atoms: C_6  and  O_15
    3  A    between atoms: C_7  and  C_10
    4  A    between atoms: C_7  and  C_42
    5  A    between atoms: C_8  and  C_19
    6  A    between atoms: C_9  and  C_14
    7  A    between atoms: C_9  and  C_21
    8  A    between atoms: C_11  and  C_19
    9  A    between atoms: C_11  and  C_39
   10  A    between atoms: C_14  and  C_33
   11  A    between atoms: C_14  and  C_40
   12  A    between atoms: O_15  and  C_16
   13  A    between atoms: C_16  and  C_30
   14  A    between atoms: C_20  and  C_39
   15  A    between atoms: C_21  and  C_28
   16  A    between atoms: C_22  and  C_28
   17  A    between atoms: C_22  and  C_50
   18  A    between atoms: C_32  and  C_51
   19  A    between atoms: C_35  and  C_51
   20  A    between atoms: C_40  and  N_48
                            x       y       z     vdW  Elec       q    Type
                         _______ _______ _______ _____ _____    ______ ____

>  <TORSDO>
F 20

$$$$
=
 OpenBabel11052410413D

 53 55  0  0  1  0  0  0  0  0999 V2000
  160.9020  206.1900  146.2210 C   0  0  0  0  0  0  0  0  0  0  0  0
  161.0710  206.4570  144.9170 C   0  0  0  0  0  3  0  0  0  0  0  0
  161.0870  201.2230  150.7380 C   0  0  0  0  0  3  0  0  0  0  0  0
  161.0800  203.3960  148.9470 C   0  0  0  0  0  0  0  0  0  0  0  0
  160.9830  200.9980  149.3660 C   0  0  0  0  0  3  0  0  0  0  0  0
  161.0040  202.0620  148.4450 C   0  0  0  0  0  0  0  0  0  0  0  0
  160.8320  201.7490  146.9690 C   0  0  1  0  0  3  0  0  0  0  0  0
  160.6080  203.6630  145.9210 C   0  0  0  0  0  2  0  0  0  0  0  0
  161.1980  202.5250  151.2190 C   0  0  0  0  0  3  0  0  0  0  0  0
  160.8710  204.8240  146.8260 C   0  0  0  0  0  0  0  0  0  0  0  0
  161.0610  204.6440  148.1430 C   0  0  0  0  0  3  0  0  0  0  0  0
  161.1900  203.5970  150.3290 C   0  0  0  0  0  3  0  0  0  0  0  0
  161.5340  202.6540  146.1730 O   0  0  0  0  0  0  0  0  0  0  0  0
  161.9080  199.6860  147.3540 O   0  0  0  0  0  0  0  0  0  0  0  0
  161.2220  200.3480  146.5890 C   0  0  0  0  0  0  0  0  0  0  0  0
  161.0430  198.3960  145.2630 O   0  0  0  0  0  1  0  0  0  0  0  0
  160.8080  199.7700  145.2720 C   0  0  0  0  0  2  0  0  0  0  0  0
  160.7170  207.3760  147.1140 C   0  0  0  0  0  2  0  0  0  0  0  0
  161.9640  207.6310  147.8860 C   0  0  0  0  0  3  0  0  0  0  0  0
  162.7060  209.3280  150.8680 O   0  0  0  0  0  1  0  0  0  0  0  0
  161.9000  207.9930  149.1360 C   0  0  0  0  0  0  0  0  0  0  0  0
  161.8410  208.3530  150.3860 C   0  0  0  0  0  0  0  0  0  0  0  0
  160.8640  207.7040  151.3020 C   0  0  0  0  0  2  0  0  0  0  0  0
  161.5100  207.3130  152.4890 O   0  0  0  0  0  0  0  0  0  0  0  0
  161.3870  209.2930  153.9320 C   0  0  0  0  0  2  0  0  0  0  0  0
  160.8470  207.8990  153.5900 C   0  0  2  0  0  3  0  0  0  0  0  0
  161.1570  211.1780  155.8410 O   0  0  0  0  0  0  0  0  0  0  0  0
  159.7190  207.4610  155.8060 C   0  0  0  0  0  2  0  0  0  0  0  0
  160.1720  208.7510  156.4750 C   0  0  0  0  0  2  0  0  0  0  0  0
  160.4210  210.0130  155.2420 S   0  0  0  0  0  0  0  0  0  0  0  0
  160.7570  206.9600  154.8050 C   0  0  0  0  0  2  0  0  0  0  0  0
  159.0950  210.4740  154.7050 O   0  0  0  0  0  0  0  0  0  0  0  0
  161.2760  205.4460  143.8370 C   0  0  0  0  0  2  0  0  0  0  0  0
  162.3280  205.9420  142.8650 C   0  0  0  0  0  2  0  0  0  0  0  0
  161.6790  206.3260  141.5480 C   0  0  2  0  0  3  0  0  0  0  0  0
  161.5910  205.2060  140.7190 O   0  0  0  0  0  1  0  0  0  0  0  0
  162.5140  207.4010  140.8720 C   0  0  0  0  0  2  0  0  0  0  0  0
  161.6480  208.3110  140.0120 C   0  0  2  0  0  3  0  0  0  0  0  0
  162.3340  206.9370  138.1670 O   0  0  0  0  0  1  0  0  0  0  0  0
  160.4510  208.2010  137.8250 O   0  0  0  0  0  0  0  0  0  0  0  0
  161.5080  207.7750  138.6190 C   0  0  0  0  0  0  0  0  0  0  0  0
  162.2540  209.7040  139.9850 C   0  0  0  0  0  2  0  0  0  0  0  0
  161.3510  211.9120  140.5910 C   0  0  0  0  0  0  0  0  0  0  0  0
  161.4270  210.6220  140.7570 N   0  0  0  0  0  0  0  0  0  0  0  0
  162.0810  212.6370  139.5070 C   0  0  0  0  0  0  0  0  0  0  0  0
  161.4750  212.9340  138.4410 O   0  0  0  0  0  0  0  0  0  0  0  0
  164.2010  213.6560  138.5910 C   0  0  0  0  0  1  0  0  0  0  0  0
  163.4670  212.9660  139.6390 N   0  0  0  0  0  2  0  0  0  0  0  0
  159.1800  212.8680  141.0130 O   0  0  0  0  0  1  0  0  0  0  0  0
  160.4570  212.6580  141.5430 C   0  0  1  0  0  3  0  0  0  0  0  0
  160.3960  212.0250  142.9310 C   0  0  0  0  0  2  0  0  0  0  0  0
  161.1040  212.8610  143.9840 C   0  0  0  0  0  2  0  0  0  0  0  0
  160.7700  214.3230  143.7740 C   0  0  0  0  0  1  0  0  0  0  0  0
  1 10  1  0  0  0  0
  1 18  1  0  0  0  0
  2  1  2  0  0  0  0
  3  9  1  0  0  0  0
  4 12  1  0  0  0  0
  5  3  2  0  0  0  0
  6  4  2  0  0  0  0
  6  5  1  0  0  0  0
  7 15  1  1  0  0  0
  7  6  1  0  0  0  0
  8 13  1  0  0  0  0
  8 10  1  0  0  0  0
 10 11  2  0  0  0  0
 11  4  1  0  0  0  0
 12  9  2  0  0  0  0
 13  7  1  0  0  0  0
 15 14  2  0  0  0  0
 16 17  1  0  0  0  0
 17 15  1  0  0  0  0
 18 19  1  0  0  0  0
 19 21  2  0  0  0  0
 21 22  2  0  0  0  0
 22 20  1  0  0  0  0
 22 23  1  0  0  0  0
 23 24  1  0  0  0  0
 25 30  1  0  0  0  0
 26 24  1  6  0  0  0
 26 25  1  0  0  0  0
 26 31  1  0  0  0  0
 28 29  1  0  0  0  0
 30 27  2  0  0  0  0
 30 29  1  0  0  0  0
 31 28  1  0  0  0  0
 32 30  2  0  0  0  0
 33  2  1  0  0  0  0
 34 33  1  0  0  0  0
 35 36  1  6  0  0  0
 35 34  1  0  0  0  0
 37 35  1  0  0  0  0
 38 42  1  6  0  0  0
 38 37  1  0  0  0  0
 39 41  1  0  0  0  0
 40 41  2  0  0  0  0
 41 38  1  0  0  0  0
 42 44  1  0  0  0  0
 43 44  2  0  0  0  0
 43 50  1  0  0  0  0
 45 48  1  0  0  0  0
 45 43  1  0  0  0  0
 46 45  2  0  0  0  0
 47 48  1  0  0  0  0
 50 49  1  6  0  0  0
 50 51  1  0  0  0  0
 51 52  1  0  0  0  0
 53 52  1  0  0  0  0
M  END
>  <MODEL>
9

>  <REMARK>
 VINA RESULT:      -4.4      3.962     11.560
  Name = 
  20 active torsions:
  status: ('A' for Active; 'I' for Inactive)
    1  A    between atoms: C_4  and  C_10
    2  A    between atoms: C_6  and  O_15
    3  A    between atoms: C_7  and  C_10
    4  A    between atoms: C_7  and  C_42
    5  A    between atoms: C_8  and  C_19
    6  A    between atoms: C_9  and  C_14
    7  A    between atoms: C_9  and  C_21
    8  A    between atoms: C_11  and  C_19
    9  A    between atoms: C_11  and  C_39
   10  A    between atoms: C_14  and  C_33
   11  A    between atoms: C_14  and  C_40
   12  A    between atoms: O_15  and  C_16
   13  A    between atoms: C_16  and  C_30
   14  A    between atoms: C_20  and  C_39
   15  A    between atoms: C_21  and  C_28
   16  A    between atoms: C_22  and  C_28
   17  A    between atoms: C_22  and  C_50
   18  A    between atoms: C_32  and  C_51
   19  A    between atoms: C_35  and  C_51
   20  A    between atoms: C_40  and  N_48
                            x       y       z     vdW  Elec       q    Type
                         _______ _______ _______ _____ _____    ______ ____

>  <TORSDO>
F 20

$$$$
