=
 OpenBabel11042421403D

 45 50  0  0  1  0  0  0  0  0999 V2000
  161.8460  210.0540  150.2010 C   0  0  2  0  0  3  0  0  0  0  0  0
  163.0790  211.7360  148.6810 C   0  0  0  0  0  2  0  0  0  0  0  0
  160.3850  212.9700  149.1530 C   0  0  2  0  0  3  0  0  0  0  0  0
  160.6110  210.9190  150.5930 C   0  0  1  0  0  3  0  0  0  0  0  0
  159.5410  213.9610  149.9680 C   0  0  0  0  0  2  0  0  0  0  0  0
  160.0360  210.5430  151.8390 O   0  0  0  0  0  0  0  0  0  0  0  0
  159.3080  212.9930  152.2440 N   0  0  0  0  0  2  0  0  0  0  0  0
  160.9560  212.4280  150.4470 C   0  0  2  0  0  3  0  0  0  0  0  0
  160.1260  212.4330  153.3280 C   0  0  2  0  0  3  0  0  0  0  0  0
  160.7750  211.1140  152.8940 C   0  0  0  0  0  2  0  0  0  0  0  0
  161.4750  213.6450  148.4320 N   0  0  0  0  0  0  0  0  0  0  0  0
  162.3410  210.4000  148.7780 C   0  0  0  0  0  2  0  0  0  0  0  0
  162.2950  212.6460  147.7300 C   0  0  0  0  0  2  0  0  0  0  0  0
  160.2290  213.5110  151.2420 C   0  0  1  0  0  3  0  0  0  0  0  0
  159.6350  204.0930  151.2380 F   0  0  0  0  0  0  0  0  0  0  0  0
  161.5960  207.9550  151.5940 C   0  0  0  0  0  3  0  0  0  0  0  0
  161.1730  205.7740  150.6150 C   0  0  0  0  0  0  0  0  0  0  0  0
  161.1530  206.3670  149.3320 C   0  0  0  0  0  0  0  0  0  0  0  0
  161.1300  203.4930  149.4860 C   0  0  0  0  0  0  0  0  0  0  0  0
  161.8950  203.7740  151.8610 C   0  0  0  0  0  1  0  0  0  0  0  0
  160.9280  204.2840  150.7900 C   0  0  2  0  0  0  0  0  0  0  0  0
  160.7860  205.5670  148.1180 C   0  0  0  0  0  2  0  0  0  0  0  0
  161.0920  204.1090  148.2920 C   0  0  0  0  0  3  0  0  0  0  0  0
  161.6430  208.5430  150.3140 C   0  0  0  0  0  0  0  0  0  0  0  0
  161.3770  207.7360  149.1940 C   0  0  0  0  0  3  0  0  0  0  0  0
  161.3650  206.5900  151.7440 C   0  0  0  0  0  3  0  0  0  0  0  0
  161.1240  201.2740  148.3220 C   0  0  0  0  0  1  0  0  0  0  0  0
  161.3070  202.0970  149.4740 O   0  0  0  0  0  0  0  0  0  0  0  0
  159.2900  212.2800  154.5970 C   0  0  1  0  0  3  0  0  0  0  0  0
  158.1190  213.0460  154.5020 O   0  0  0  0  0  1  0  0  0  0  0  0
  158.9680  210.8080  154.8500 C   0  0  0  0  0  2  0  0  0  0  0  0
  158.9670  211.4530  157.2080 N   0  0  0  0  0  1  0  0  0  0  0  0
  159.2260  210.3530  156.2900 C   0  0  2  0  0  3  0  0  0  0  0  0
  160.9460  208.4790  156.5230 C   0  0  0  0  0  0  0  0  0  0  0  0
  159.9050  207.4190  156.3910 C   0  0  0  0  0  1  0  0  0  0  0  0
  160.5990  209.8720  156.4420 N   0  0  0  0  0  2  0  0  0  0  0  0
  162.1510  208.1470  156.6960 O   0  0  0  0  0  0  0  0  0  0  0  0
  160.8650  214.4530  147.3800 C   0  0  0  0  0  2  0  0  0  0  0  0
  160.6620  213.6110  146.1650 C   0  0  0  0  0  0  0  0  0  0  0  0
  159.2500  212.2330  144.7810 C   0  0  0  0  0  3  0  0  0  0  0  0
  161.4680  212.8430  144.0620 C   0  0  0  0  0  0  0  0  0  0  0  0
  162.4530  212.8130  143.1300 F   0  0  0  0  0  0  0  0  0  0  0  0
  161.6400  213.5360  145.2260 N   0  0  0  0  0  0  0  0  0  0  0  0
  159.4450  212.9530  145.9640 C   0  0  0  0  0  3  0  0  0  0  0  0
  160.2650  212.1770  143.8210 C   0  0  0  0  0  3  0  0  0  0  0  0
  1 24  1  6  0  0  0
  1  4  1  0  0  0  0
  2 12  1  0  0  0  0
  3  5  1  1  0  0  0
  3  8  1  0  0  0  0
  4  6  1  1  0  0  0
  5 14  1  0  0  0  0
  6 10  1  0  0  0  0
  7  9  1  0  0  0  0
  8  4  1  0  0  0  0
  8 14  1  0  0  0  0
  9 29  1  0  0  0  0
 10  9  1  0  0  0  0
 11  3  1  0  0  0  0
 12  1  1  0  0  0  0
 13 11  1  0  0  0  0
 13  2  1  0  0  0  0
 14  7  1  0  0  0  0
 16 26  1  0  0  0  0
 17 21  1  0  0  0  0
 17 26  2  0  0  0  0
 18 17  1  0  0  0  0
 19 21  1  0  0  0  0
 21 15  1  0  0  0  0
 21 20  1  0  0  0  0
 22 23  1  0  0  0  0
 22 18  1  0  0  0  0
 23 19  2  0  0  0  0
 24 16  2  0  0  0  0
 25 18  2  0  0  0  0
 25 24  1  0  0  0  0
 27 28  1  0  0  0  0
 28 19  1  0  0  0  0
 29 31  1  0  0  0  0
 30 29  1  0  0  0  0
 31 33  1  0  0  0  0
 33 36  1  0  0  0  0
 33 32  1  0  0  0  0
 34 37  2  0  0  0  0
 35 34  1  0  0  0  0
 36 34  1  0  0  0  0
 38 11  1  0  0  0  0
 39 38  1  0  0  0  0
 40 44  2  0  0  0  0
 41 43  1  0  0  0  0
 42 41  1  0  0  0  0
 43 39  2  0  0  0  0
 44 39  1  0  0  0  0
 45 41  2  0  0  0  0
 45 40  1  0  0  0  0
M  END
>  <MODEL>
1

>  <REMARK>
 VINA RESULT:      -7.4      0.000      0.000
  Name = 
  8 active torsions:
  status: ('A' for Active; 'I' for Inactive)
    1  A    between atoms: C_3  and  C_19
    2  A    between atoms: C_4  and  C_36
    3  A    between atoms: C_12  and  C_34
    4  A    between atoms: C_12  and  C_41
    5  A    between atoms: C_18  and  C_34
    6  A    between atoms: C_19  and  N_25
    7  A    between atoms: C_22  and  O_38
    8  A    between atoms: N_32  and  C_41
                            x       y       z     vdW  Elec       q    Type
                         _______ _______ _______ _____ _____    ______ ____

>  <TORSDO>
F 8

$$$$
=
 OpenBabel11042421403D

 45 50  0  0  1  0  0  0  0  0999 V2000
  161.6650  209.6540  150.7210 C   0  0  2  0  0  3  0  0  0  0  0  0
  162.6580  211.5690  149.3040 C   0  0  0  0  0  2  0  0  0  0  0  0
  160.0420  212.6420  150.3060 C   0  0  2  0  0  3  0  0  0  0  0  0
  160.4870  210.4180  151.3950 C   0  0  1  0  0  3  0  0  0  0  0  0
  159.3090  213.4840  151.3610 C   0  0  0  0  0  2  0  0  0  0  0  0
  160.0930  209.8550  152.6420 O   0  0  0  0  0  0  0  0  0  0  0  0
  159.4020  212.2010  153.4860 N   0  0  0  0  0  2  0  0  0  0  0  0
  160.7920  211.9430  151.4210 C   0  0  2  0  0  3  0  0  0  0  0  0
  160.3680  211.5200  154.3580 C   0  0  2  0  0  3  0  0  0  0  0  0
  160.9650  210.2950  153.6570 C   0  0  0  0  0  2  0  0  0  0  0  0
  161.0150  213.4440  149.5480 N   0  0  0  0  0  0  0  0  0  0  0  0
  161.9550  210.2100  149.3080 C   0  0  0  0  0  2  0  0  0  0  0  0
  161.7410  212.5780  148.6060 C   0  0  0  0  0  2  0  0  0  0  0  0
  160.1710  212.8820  152.4530 C   0  0  1  0  0  3  0  0  0  0  0  0
  159.5690  203.5670  150.9560 F   0  0  0  0  0  0  0  0  0  0  0  0
  161.4230  207.3970  151.8410 C   0  0  0  0  0  3  0  0  0  0  0  0
  161.0840  205.3430  150.5920 C   0  0  0  0  0  0  0  0  0  0  0  0
  161.0890  206.0860  149.3910 C   0  0  0  0  0  0  0  0  0  0  0  0
  161.1320  203.2150  149.1950 C   0  0  0  0  0  0  0  0  0  0  0  0
  161.8160  203.2210  151.6110 C   0  0  0  0  0  1  0  0  0  0  0  0
  160.8710  203.8380  150.5770 C   0  0  2  0  0  0  0  0  0  0  0  0
  160.7790  205.4330  148.0770 C   0  0  0  0  0  2  0  0  0  0  0  0
  161.1150  203.9710  148.0840 C   0  0  0  0  0  3  0  0  0  0  0  0
  161.4950  208.1370  150.6440 C   0  0  0  0  0  0  0  0  0  0  0  0
  161.2840  207.4660  149.4260 C   0  0  0  0  0  3  0  0  0  0  0  0
  161.2220  206.0190  151.8170 C   0  0  0  0  0  3  0  0  0  0  0  0
  161.0510  201.1240  147.8180 C   0  0  0  0  0  1  0  0  0  0  0  0
  161.3430  201.8350  149.0210 O   0  0  0  0  0  0  0  0  0  0  0  0
  159.7170  211.1660  155.6940 C   0  0  1  0  0  3  0  0  0  0  0  0
  160.4240  210.1270  156.3170 O   0  0  0  0  0  1  0  0  0  0  0  0
  159.6400  212.3990  156.5940 C   0  0  0  0  0  2  0  0  0  0  0  0
  158.3900  214.3910  157.2600 N   0  0  0  0  0  1  0  0  0  0  0  0
  158.3020  213.1400  156.5200 C   0  0  2  0  0  3  0  0  0  0  0  0
  156.1000  211.8740  156.2560 C   0  0  0  0  0  0  0  0  0  0  0  0
  156.0080  212.2040  154.8050 C   0  0  0  0  0  1  0  0  0  0  0  0
  157.2200  212.3080  157.0460 N   0  0  0  0  0  2  0  0  0  0  0  0
  155.1850  211.1920  156.7960 O   0  0  0  0  0  0  0  0  0  0  0  0
  160.2570  214.3720  148.7150 C   0  0  0  0  0  2  0  0  0  0  0  0
  159.5880  213.6170  147.6150 C   0  0  0  0  0  0  0  0  0  0  0  0
  157.6160  212.6160  146.6570 C   0  0  0  0  0  3  0  0  0  0  0  0
  159.6790  212.7170  145.4150 C   0  0  0  0  0  0  0  0  0  0  0  0
  160.3820  212.4780  144.2800 F   0  0  0  0  0  0  0  0  0  0  0  0
  160.2730  213.3360  146.4770 N   0  0  0  0  0  0  0  0  0  0  0  0
  158.2430  213.2550  147.7320 C   0  0  0  0  0  3  0  0  0  0  0  0
  158.3350  212.3450  145.4890 C   0  0  0  0  0  3  0  0  0  0  0  0
  1 24  1  6  0  0  0
  1  4  1  0  0  0  0
  2 12  1  0  0  0  0
  3  5  1  1  0  0  0
  3  8  1  0  0  0  0
  4  8  1  0  0  0  0
  4  6  1  1  0  0  0
  5 14  1  0  0  0  0
  6 10  1  0  0  0  0
  7  9  1  0  0  0  0
  8 14  1  0  0  0  0
  9 29  1  0  0  0  0
 10  9  1  0  0  0  0
 11  3  1  0  0  0  0
 12  1  1  0  0  0  0
 13  2  1  0  0  0  0
 13 11  1  0  0  0  0
 14  7  1  0  0  0  0
 17 26  2  0  0  0  0
 18 25  2  0  0  0  0
 18 17  1  0  0  0  0
 19 21  1  0  0  0  0
 21 17  1  0  0  0  0
 21 15  1  0  0  0  0
 21 20  1  0  0  0  0
 22 23  1  0  0  0  0
 22 18  1  0  0  0  0
 23 19  2  0  0  0  0
 24 16  2  0  0  0  0
 25 24  1  0  0  0  0
 26 16  1  0  0  0  0
 27 28  1  0  0  0  0
 28 19  1  0  0  0  0
 29 30  1  0  0  0  0
 29 31  1  0  0  0  0
 33 31  1  0  0  0  0
 33 36  1  0  0  0  0
 33 32  1  0  0  0  0
 34 37  2  0  0  0  0
 34 36  1  0  0  0  0
 35 34  1  0  0  0  0
 38 11  1  0  0  0  0
 39 44  1  0  0  0  0
 39 38  1  0  0  0  0
 40 44  2  0  0  0  0
 41 45  2  0  0  0  0
 41 43  1  0  0  0  0
 42 41  1  0  0  0  0
 43 39  2  0  0  0  0
 45 40  1  0  0  0  0
M  END
>  <MODEL>
2

>  <REMARK>
 VINA RESULT:      -7.4      1.594      2.373
  Name = 
  8 active torsions:
  status: ('A' for Active; 'I' for Inactive)
    1  A    between atoms: C_3  and  C_19
    2  A    between atoms: C_4  and  C_36
    3  A    between atoms: C_12  and  C_34
    4  A    between atoms: C_12  and  C_41
    5  A    between atoms: C_18  and  C_34
    6  A    between atoms: C_19  and  N_25
    7  A    between atoms: C_22  and  O_38
    8  A    between atoms: N_32  and  C_41
                            x       y       z     vdW  Elec       q    Type
                         _______ _______ _______ _____ _____    ______ ____

>  <TORSDO>
F 8

$$$$
=
 OpenBabel11042421403D

 45 50  0  0  1  0  0  0  0  0999 V2000
  161.2210  208.7790  152.4740 C   0  0  2  0  0  3  0  0  0  0  0  0
  162.0880  206.3530  152.3130 C   0  0  0  0  0  2  0  0  0  0  0  0
  160.8750  206.9090  149.6260 C   0  0  2  0  0  3  0  0  0  0  0  0
  160.8860  209.0330  150.9750 C   0  0  1  0  0  3  0  0  0  0  0  0
  161.1020  207.3380  148.1680 C   0  0  0  0  0  2  0  0  0  0  0  0
  160.9360  210.4080  150.6130 O   0  0  0  0  0  0  0  0  0  0  0  0
  161.6740  209.7550  148.2210 N   0  0  0  0  0  2  0  0  0  0  0  0
  161.7250  208.0780  150.0780 C   0  0  2  0  0  3  0  0  0  0  0  0
  162.5900  210.6900  148.8870 C   0  0  2  0  0  3  0  0  0  0  0  0
  162.2730  210.7900  150.3840 C   0  0  0  0  0  2  0  0  0  0  0  0
  161.6060  205.6740  149.9500 N   0  0  0  0  0  0  0  0  0  0  0  0
  161.0080  207.2940  152.8510 C   0  0  0  0  0  2  0  0  0  0  0  0
  161.4170  205.3480  151.3720 C   0  0  0  0  0  2  0  0  0  0  0  0
  162.0670  208.4140  148.6270 C   0  0  1  0  0  3  0  0  0  0  0  0
  159.4400  212.7060  157.2600 F   0  0  0  0  0  0  0  0  0  0  0  0
  160.3370  209.2360  154.8020 C   0  0  0  0  0  3  0  0  0  0  0  0
  159.1830  211.2900  155.3860 C   0  0  0  0  0  0  0  0  0  0  0  0
  159.3700  211.7570  154.0660 C   0  0  0  0  0  0  0  0  0  0  0  0
  157.6500  213.2800  155.7990 C   0  0  0  0  0  0  0  0  0  0  0  0
  157.5840  211.2400  157.2610 C   0  0  0  0  0  1  0  0  0  0  0  0
  158.4860  212.1520  156.4270 C   0  0  2  0  0  0  0  0  0  0  0  0
  158.9830  213.1530  153.6780 C   0  0  0  0  0  2  0  0  0  0  0  0
  157.8790  213.6890  154.5400 C   0  0  0  0  0  3  0  0  0  0  0  0
  160.4700  209.6670  153.4670 C   0  0  0  0  0  0  0  0  0  0  0  0
  160.0140  210.9520  153.1270 C   0  0  0  0  0  3  0  0  0  0  0  0
  159.7020  210.0350  155.7490 C   0  0  0  0  0  3  0  0  0  0  0  0
  155.2680  213.9560  156.1840 C   0  0  0  0  0  1  0  0  0  0  0  0
  156.6550  213.9680  156.5200 O   0  0  0  0  0  0  0  0  0  0  0  0
  162.5560  212.0510  148.1940 C   0  0  1  0  0  3  0  0  0  0  0  0
  163.7790  212.2980  147.5530 O   0  0  0  0  0  1  0  0  0  0  0  0
  161.3920  212.1180  147.2060 C   0  0  0  0  0  2  0  0  0  0  0  0
  160.5390  213.6370  148.9220 N   0  0  0  0  0  1  0  0  0  0  0  0
  160.3430  213.1790  147.5540 C   0  0  2  0  0  3  0  0  0  0  0  0
  158.1960  212.8670  146.2050 C   0  0  0  0  0  0  0  0  0  0  0  0
  158.7420  213.6200  145.0390 C   0  0  0  0  0  1  0  0  0  0  0  0
  158.9910  212.6450  147.3820 N   0  0  0  0  0  2  0  0  0  0  0  0
  157.0230  212.4070  146.1500 O   0  0  0  0  0  0  0  0  0  0  0  0
  160.9680  204.5860  149.2150 C   0  0  0  0  0  2  0  0  0  0  0  0
  161.5300  204.5260  147.8340 C   0  0  0  0  0  0  0  0  0  0  0  0
  163.3850  204.7630  146.3130 C   0  0  0  0  0  3  0  0  0  0  0  0
  161.2660  203.9020  145.5530 C   0  0  0  0  0  0  0  0  0  0  0  0
  160.4880  203.3930  144.5650 F   0  0  0  0  0  0  0  0  0  0  0  0
  160.7680  204.0480  146.8160 N   0  0  0  0  0  0  0  0  0  0  0  0
  162.8570  204.9010  147.6010 C   0  0  0  0  0  3  0  0  0  0  0  0
  162.5880  204.2590  145.2810 C   0  0  0  0  0  3  0  0  0  0  0  0
  1 12  1  0  0  0  0
  1 24  1  1  0  0  0
  2 12  1  0  0  0  0
  3  5  1  6  0  0  0
  3 11  1  0  0  0  0
  3  8  1  0  0  0  0
  4  6  1  6  0  0  0
  4  1  1  0  0  0  0
  5 14  1  0  0  0  0
  7 14  1  0  0  0  0
  7  9  1  0  0  0  0
  8  4  1  0  0  0  0
  9 10  1  0  0  0  0
 10  6  1  0  0  0  0
 11 13  1  0  0  0  0
 13  2  1  0  0  0  0
 14  8  1  0  0  0  0
 16 26  1  0  0  0  0
 17 26  2  0  0  0  0
 17 21  1  0  0  0  0
 18 17  1  0  0  0  0
 19 21  1  0  0  0  0
 19 28  1  0  0  0  0
 21 15  1  0  0  0  0
 21 20  1  0  0  0  0
 22 18  1  0  0  0  0
 22 23  1  0  0  0  0
 23 19  2  0  0  0  0
 24 16  2  0  0  0  0
 25 24  1  0  0  0  0
 25 18  2  0  0  0  0
 27 28  1  0  0  0  0
 29  9  1  0  0  0  0
 30 29  1  0  0  0  0
 31 33  1  0  0  0  0
 31 29  1  0  0  0  0
 33 32  1  0  0  0  0
 34 36  1  0  0  0  0
 35 34  1  0  0  0  0
 36 33  1  0  0  0  0
 37 34  2  0  0  0  0
 38 11  1  0  0  0  0
 39 38  1  0  0  0  0
 40 44  2  0  0  0  0
 41 43  1  0  0  0  0
 42 41  1  0  0  0  0
 43 39  2  0  0  0  0
 44 39  1  0  0  0  0
 45 41  2  0  0  0  0
 45 40  1  0  0  0  0
M  END
>  <MODEL>
3

>  <REMARK>
 VINA RESULT:      -6.9      3.420      8.668
  Name = 
  8 active torsions:
  status: ('A' for Active; 'I' for Inactive)
    1  A    between atoms: C_3  and  C_19
    2  A    between atoms: C_4  and  C_36
    3  A    between atoms: C_12  and  C_34
    4  A    between atoms: C_12  and  C_41
    5  A    between atoms: C_18  and  C_34
    6  A    between atoms: C_19  and  N_25
    7  A    between atoms: C_22  and  O_38
    8  A    between atoms: N_32  and  C_41
                            x       y       z     vdW  Elec       q    Type
                         _______ _______ _______ _____ _____    ______ ____

>  <TORSDO>
F 8

$$$$
=
 OpenBabel11042421403D

 45 50  0  0  1  0  0  0  0  0999 V2000
  161.2370  208.7140  152.4850 C   0  0  2  0  0  3  0  0  0  0  0  0
  162.0650  206.2750  152.3160 C   0  0  0  0  0  2  0  0  0  0  0  0
  160.8970  206.8720  149.6170 C   0  0  2  0  0  3  0  0  0  0  0  0
  160.9260  208.9850  150.9830 C   0  0  1  0  0  3  0  0  0  0  0  0
  161.1500  207.3090  148.1670 C   0  0  0  0  0  2  0  0  0  0  0  0
  161.0030  210.3620  150.6330 O   0  0  0  0  0  0  0  0  0  0  0  0
  161.7610  209.7150  148.2460 N   0  0  0  0  0  2  0  0  0  0  0  0
  161.7600  208.0240  150.0900 C   0  0  2  0  0  3  0  0  0  0  0  0
  162.6840  210.6300  148.9320 C   0  0  2  0  0  3  0  0  0  0  0  0
  162.3490  210.7230  150.4240 C   0  0  0  0  0  2  0  0  0  0  0  0
  161.6030  205.6220  149.9410 N   0  0  0  0  0  0  0  0  0  0  0  0
  160.9940  207.2300  152.8470 C   0  0  0  0  0  2  0  0  0  0  0  0
  161.3890  205.2890  151.3580 C   0  0  0  0  0  2  0  0  0  0  0  0
  162.1270  208.3640  148.6470 C   0  0  1  0  0  3  0  0  0  0  0  0
  159.4630  212.6570  157.2610 F   0  0  0  0  0  0  0  0  0  0  0  0
  160.3500  209.1790  154.8110 C   0  0  0  0  0  3  0  0  0  0  0  0
  159.2040  211.2390  155.3890 C   0  0  0  0  0  0  0  0  0  0  0  0
  159.3950  211.7030  154.0680 C   0  0  0  0  0  0  0  0  0  0  0  0
  157.6780  213.2360  155.7960 C   0  0  0  0  0  0  0  0  0  0  0  0
  157.6010  211.1980  157.2610 C   0  0  0  0  0  1  0  0  0  0  0  0
  158.5090  212.1050  156.4270 C   0  0  2  0  0  0  0  0  0  0  0  0
  159.0150  213.1000  153.6780 C   0  0  0  0  0  2  0  0  0  0  0  0
  157.9110  213.6420  154.5360 C   0  0  0  0  0  3  0  0  0  0  0  0
  160.4870  209.6070  153.4750 C   0  0  0  0  0  0  0  0  0  0  0  0
  160.0370  210.8930  153.1320 C   0  0  0  0  0  3  0  0  0  0  0  0
  159.7170  209.9820  155.7550 C   0  0  0  0  0  3  0  0  0  0  0  0
  155.3180  213.5250  156.5860 C   0  0  0  0  0  1  0  0  0  0  0  0
  156.6850  213.9290  156.5130 O   0  0  0  0  0  0  0  0  0  0  0  0
  162.6820  211.9960  148.2480 C   0  0  1  0  0  3  0  0  0  0  0  0
  163.8200  212.1350  147.4400 O   0  0  0  0  0  1  0  0  0  0  0  0
  161.4010  212.1850  147.4370 C   0  0  0  0  0  2  0  0  0  0  0  0
  160.4600  214.3770  146.8990 N   0  0  0  0  0  1  0  0  0  0  0  0
  161.4400  213.3830  146.4840 C   0  0  2  0  0  3  0  0  0  0  0  0
  162.0300  213.3140  143.9990 C   0  0  0  0  0  0  0  0  0  0  0  0
  163.2770  214.1050  144.2060 C   0  0  0  0  0  1  0  0  0  0  0  0
  161.1860  212.9570  145.1070 N   0  0  0  0  0  2  0  0  0  0  0  0
  161.7180  212.9410  142.8350 O   0  0  0  0  0  0  0  0  0  0  0  0
  160.9570  204.5510  149.1900 C   0  0  0  0  0  2  0  0  0  0  0  0
  161.5350  204.4940  147.8150 C   0  0  0  0  0  0  0  0  0  0  0  0
  163.4110  204.7090  146.3190 C   0  0  0  0  0  3  0  0  0  0  0  0
  161.2860  203.8970  145.5250 C   0  0  0  0  0  0  0  0  0  0  0  0
  160.5110  203.4130  144.5230 F   0  0  0  0  0  0  0  0  0  0  0  0
  160.7760  204.0410  146.7830 N   0  0  0  0  0  0  0  0  0  0  0  0
  162.8710  204.8450  147.6020 C   0  0  0  0  0  3  0  0  0  0  0  0
  162.6180  204.2310  145.2720 C   0  0  0  0  0  3  0  0  0  0  0  0
  1 12  1  0  0  0  0
  1 24  1  1  0  0  0
  2 12  1  0  0  0  0
  3  5  1  6  0  0  0
  3 11  1  0  0  0  0
  3  8  1  0  0  0  0
  4  6  1  6  0  0  0
  4  1  1  0  0  0  0
  5 14  1  0  0  0  0
  7 14  1  0  0  0  0
  7  9  1  0  0  0  0
  8  4  1  0  0  0  0
  9 10  1  0  0  0  0
 10  6  1  0  0  0  0
 11 13  1  0  0  0  0
 13  2  1  0  0  0  0
 14  8  1  0  0  0  0
 16 26  1  0  0  0  0
 17 26  2  0  0  0  0
 17 21  1  0  0  0  0
 18 17  1  0  0  0  0
 19 21  1  0  0  0  0
 19 28  1  0  0  0  0
 21 20  1  0  0  0  0
 21 15  1  0  0  0  0
 22 18  1  0  0  0  0
 22 23  1  0  0  0  0
 23 19  2  0  0  0  0
 24 16  2  0  0  0  0
 25 24  1  0  0  0  0
 25 18  2  0  0  0  0
 28 27  1  0  0  0  0
 29  9  1  0  0  0  0
 30 29  1  0  0  0  0
 31 29  1  0  0  0  0
 33 32  1  0  0  0  0
 33 31  1  0  0  0  0
 34 35  1  0  0  0  0
 34 36  1  0  0  0  0
 36 33  1  0  0  0  0
 37 34  2  0  0  0  0
 38 11  1  0  0  0  0
 39 38  1  0  0  0  0
 40 44  2  0  0  0  0
 41 43  1  0  0  0  0
 42 41  1  0  0  0  0
 43 39  2  0  0  0  0
 44 39  1  0  0  0  0
 45 41  2  0  0  0  0
 45 40  1  0  0  0  0
M  END
>  <MODEL>
4

>  <REMARK>
 VINA RESULT:      -6.7      3.550      8.983
  Name = 
  8 active torsions:
  status: ('A' for Active; 'I' for Inactive)
    1  A    between atoms: C_3  and  C_19
    2  A    between atoms: C_4  and  C_36
    3  A    between atoms: C_12  and  C_34
    4  A    between atoms: C_12  and  C_41
    5  A    between atoms: C_18  and  C_34
    6  A    between atoms: C_19  and  N_25
    7  A    between atoms: C_22  and  O_38
    8  A    between atoms: N_32  and  C_41
                            x       y       z     vdW  Elec       q    Type
                         _______ _______ _______ _____ _____    ______ ____

>  <TORSDO>
F 8

$$$$
=
 OpenBabel11042421403D

 45 50  0  0  1  0  0  0  0  0999 V2000
  161.2760  208.3130  152.6750 C   0  0  2  0  0  3  0  0  0  0  0  0
  162.1260  205.8770  152.7340 C   0  0  0  0  0  2  0  0  0  0  0  0
  160.6990  206.1220  150.1060 C   0  0  2  0  0  3  0  0  0  0  0  0
  160.8200  208.3900  151.1880 C   0  0  1  0  0  3  0  0  0  0  0  0
  160.8060  206.3730  148.5950 C   0  0  0  0  0  2  0  0  0  0  0  0
  160.8400  209.7130  150.6620 O   0  0  0  0  0  0  0  0  0  0  0  0
  161.3810  208.7740  148.3130 N   0  0  0  0  0  2  0  0  0  0  0  0
  161.5830  207.3280  150.3460 C   0  0  2  0  0  3  0  0  0  0  0  0
  162.3480  209.7720  148.7870 C   0  0  2  0  0  3  0  0  0  0  0  0
  162.1540  210.0520  150.2820 C   0  0  0  0  0  2  0  0  0  0  0  0
  161.4530  204.9270  150.5150 N   0  0  0  0  0  0  0  0  0  0  0  0
  161.0940  206.8860  153.2410 C   0  0  0  0  0  2  0  0  0  0  0  0
  161.3810  204.7730  151.9760 C   0  0  0  0  0  2  0  0  0  0  0  0
  161.8060  207.4860  148.8430 C   0  0  1  0  0  3  0  0  0  0  0  0
  159.8430  212.6040  157.2610 F   0  0  0  0  0  0  0  0  0  0  0  0
  160.3930  208.9600  154.9580 C   0  0  0  0  0  3  0  0  0  0  0  0
  159.4700  211.1540  155.4330 C   0  0  0  0  0  0  0  0  0  0  0  0
  159.7430  211.5440  154.1030 C   0  0  0  0  0  0  0  0  0  0  0  0
  158.1680  213.3220  155.7280 C   0  0  0  0  0  0  0  0  0  0  0  0
  157.8300  211.3620  157.2600 C   0  0  0  0  0  1  0  0  0  0  0  0
  158.8530  212.1310  156.4210 C   0  0  2  0  0  0  0  0  0  0  0  0
  159.5310  212.9590  153.6540 C   0  0  0  0  0  2  0  0  0  0  0  0
  158.4740  213.6520  154.4620 C   0  0  0  0  0  3  0  0  0  0  0  0
  160.6080  209.3190  153.6120 C   0  0  0  0  0  0  0  0  0  0  0  0
  160.3120  210.6340  153.2130 C   0  0  0  0  0  3  0  0  0  0  0  0
  159.8320  209.8630  155.8560 C   0  0  0  0  0  3  0  0  0  0  0  0
  155.8530  214.2120  156.0760 C   0  0  0  0  0  1  0  0  0  0  0  0
  157.2420  214.1470  156.3940 O   0  0  0  0  0  0  0  0  0  0  0  0
  162.2580  211.0400  147.9410 C   0  0  1  0  0  3  0  0  0  0  0  0
  161.1720  210.9590  147.0580 O   0  0  0  0  0  1  0  0  0  0  0  0
  162.1500  212.2740  148.8380 C   0  0  0  0  0  2  0  0  0  0  0  0
  161.8120  214.4470  147.7700 N   0  0  0  0  0  1  0  0  0  0  0  0
  161.1250  213.3050  148.3560 C   0  0  2  0  0  3  0  0  0  0  0  0
  158.8340  213.8120  149.3650 C   0  0  0  0  0  0  0  0  0  0  0  0
  158.1220  213.3870  148.1260 C   0  0  0  0  0  1  0  0  0  0  0  0
  160.2670  213.7350  149.4600 N   0  0  0  0  0  2  0  0  0  0  0  0
  158.1670  214.2340  150.3500 O   0  0  0  0  0  0  0  0  0  0  0  0
  160.7580  203.7660  149.9690 C   0  0  0  0  0  2  0  0  0  0  0  0
  161.2230  203.5220  148.5720 C   0  0  0  0  0  0  0  0  0  0  0  0
  160.9310  202.4860  146.4160 C   0  0  0  0  0  3  0  0  0  0  0  0
  162.7030  204.0760  146.7930 C   0  0  0  0  0  0  0  0  0  0  0  0
  163.7540  204.7980  146.3310 F   0  0  0  0  0  0  0  0  0  0  0  0
  162.2910  204.2080  148.0880 N   0  0  0  0  0  0  0  0  0  0  0  0
  160.5230  202.6390  147.7450 C   0  0  0  0  0  3  0  0  0  0  0  0
  162.0270  203.2080  145.9330 C   0  0  0  0  0  3  0  0  0  0  0  0
  1 12  1  0  0  0  0
  1 24  1  1  0  0  0
  2 12  1  0  0  0  0
  3  5  1  6  0  0  0
  3  8  1  0  0  0  0
  3 11  1  0  0  0  0
  4  6  1  6  0  0  0
  4  1  1  0  0  0  0
  5 14  1  0  0  0  0
  7  9  1  0  0  0  0
  7 14  1  0  0  0  0
  8  4  1  0  0  0  0
  9 10  1  0  0  0  0
 10  6  1  0  0  0  0
 11 13  1  0  0  0  0
 13  2  1  0  0  0  0
 14  8  1  0  0  0  0
 16 26  1  0  0  0  0
 17 26  2  0  0  0  0
 17 21  1  0  0  0  0
 18 17  1  0  0  0  0
 19 28  1  0  0  0  0
 19 21  1  0  0  0  0
 21 20  1  0  0  0  0
 21 15  1  0  0  0  0
 22 18  1  0  0  0  0
 22 23  1  0  0  0  0
 23 19  2  0  0  0  0
 24 16  2  0  0  0  0
 25 24  1  0  0  0  0
 25 18  2  0  0  0  0
 27 28  1  0  0  0  0
 29  9  1  0  0  0  0
 29 31  1  0  0  0  0
 30 29  1  0  0  0  0
 32 33  1  0  0  0  0
 33 31  1  0  0  0  0
 33 36  1  0  0  0  0
 34 36  1  0  0  0  0
 34 37  2  0  0  0  0
 35 34  1  0  0  0  0
 38 11  1  0  0  0  0
 39 38  1  0  0  0  0
 40 44  1  0  0  0  0
 41 43  2  0  0  0  0
 42 41  1  0  0  0  0
 43 39  1  0  0  0  0
 44 39  2  0  0  0  0
 45 40  2  0  0  0  0
 45 41  1  0  0  0  0
M  END
>  <MODEL>
5

>  <REMARK>
 VINA RESULT:      -6.2      3.274      8.620
  Name = 
  8 active torsions:
  status: ('A' for Active; 'I' for Inactive)
    1  A    between atoms: C_3  and  C_19
    2  A    between atoms: C_4  and  C_36
    3  A    between atoms: C_12  and  C_34
    4  A    between atoms: C_12  and  C_41
    5  A    between atoms: C_18  and  C_34
    6  A    between atoms: C_19  and  N_25
    7  A    between atoms: C_22  and  O_38
    8  A    between atoms: N_32  and  C_41
                            x       y       z     vdW  Elec       q    Type
                         _______ _______ _______ _____ _____    ______ ____

>  <TORSDO>
F 8

$$$$
=
 OpenBabel11042421403D

 45 50  0  0  1  0  0  0  0  0999 V2000
  161.2720  208.9080  152.2960 C   0  0  2  0  0  3  0  0  0  0  0  0
  161.9700  206.4410  151.9980 C   0  0  0  0  0  2  0  0  0  0  0  0
  160.8870  207.2550  149.3210 C   0  0  2  0  0  3  0  0  0  0  0  0
  161.0050  209.2810  150.8070 C   0  0  1  0  0  3  0  0  0  0  0  0
  161.1910  207.7600  147.9020 C   0  0  0  0  0  2  0  0  0  0  0  0
  161.1630  210.6700  150.5400 O   0  0  0  0  0  0  0  0  0  0  0  0
  161.9300  210.1200  148.1310 N   0  0  0  0  0  2  0  0  0  0  0  0
  161.8030  208.3280  149.8730 C   0  0  2  0  0  3  0  0  0  0  0  0
  162.8880  210.9410  148.8830 C   0  0  2  0  0  3  0  0  0  0  0  0
  162.5310  210.9680  150.3730 C   0  0  0  0  0  2  0  0  0  0  0  0
  161.5180  205.9520  149.5820 N   0  0  0  0  0  0  0  0  0  0  0  0
  160.9430  207.4220  152.5670 C   0  0  0  0  0  2  0  0  0  0  0  0
  161.2600  205.5500  150.9740 C   0  0  0  0  0  2  0  0  0  0  0  0
  162.2150  208.7300  148.4580 C   0  0  1  0  0  3  0  0  0  0  0  0
  159.6540  212.8140  157.1560 F   0  0  0  0  0  0  0  0  0  0  0  0
  160.5020  209.3550  154.6660 C   0  0  0  0  0  3  0  0  0  0  0  0
  159.3320  211.3840  155.3030 C   0  0  0  0  0  0  0  0  0  0  0  0
  159.4390  211.8500  153.9740 C   0  0  0  0  0  0  0  0  0  0  0  0
  157.7770  213.3410  155.7900 C   0  0  0  0  0  0  0  0  0  0  0  0
  157.8360  211.3050  157.2600 C   0  0  0  0  0  1  0  0  0  0  0  0
  158.6710  212.2340  156.3770 C   0  0  2  0  0  0  0  0  0  0  0  0
  159.0000  213.2350  153.6030 C   0  0  0  0  0  2  0  0  0  0  0  0
  157.9300  213.7490  154.5200 C   0  0  0  0  0  3  0  0  0  0  0  0
  160.5530  209.7830  153.3240 C   0  0  0  0  0  0  0  0  0  0  0  0
  160.0510  211.0560  153.0050 C   0  0  0  0  0  3  0  0  0  0  0  0
  159.8990  210.1430  155.6420 C   0  0  0  0  0  3  0  0  0  0  0  0
  155.4440  214.1720  156.1670 C   0  0  0  0  0  1  0  0  0  0  0  0
  156.8060  214.0080  156.5600 O   0  0  0  0  0  0  0  0  0  0  0  0
  162.9730  212.3420  148.2800 C   0  0  1  0  0  3  0  0  0  0  0  0
  164.3090  212.6740  148.0110 O   0  0  0  0  0  1  0  0  0  0  0  0
  162.1160  212.4340  147.0180 C   0  0  0  0  0  2  0  0  0  0  0  0
  160.0940  213.6640  147.6300 N   0  0  0  0  0  1  0  0  0  0  0  0
  161.3430  213.7490  146.8850 C   0  0  2  0  0  3  0  0  0  0  0  0
  160.1550  213.3140  144.6670 C   0  0  0  0  0  0  0  0  0  0  0  0
  159.3440  212.2030  145.2440 C   0  0  0  0  0  1  0  0  0  0  0  0
  161.0810  214.0550  145.4790 N   0  0  0  0  0  2  0  0  0  0  0  0
  160.0160  213.6150  143.4490 O   0  0  0  0  0  0  0  0  0  0  0  0
  160.8290  204.9630  148.7600 C   0  0  0  0  0  2  0  0  0  0  0  0
  161.0120  203.6080  149.3580 C   0  0  0  0  0  0  0  0  0  0  0  0
  161.0100  202.1440  151.2730 C   0  0  0  0  0  3  0  0  0  0  0  0
  161.3100  201.2680  149.0480 C   0  0  0  0  0  0  0  0  0  0  0  0
  161.4830  200.2140  148.2110 F   0  0  0  0  0  0  0  0  0  0  0  0
  161.2160  202.5360  148.5500 N   0  0  0  0  0  0  0  0  0  0  0  0
  160.9110  203.4350  150.7420 C   0  0  0  0  0  3  0  0  0  0  0  0
  161.2080  201.0510  150.4240 C   0  0  0  0  0  3  0  0  0  0  0  0
  1 12  1  0  0  0  0
  1 24  1  1  0  0  0
  2 12  1  0  0  0  0
  3  5  1  6  0  0  0
  3 11  1  0  0  0  0
  3  8  1  0  0  0  0
  4  6  1  1  0  0  0
  4  1  1  0  0  0  0
  5 14  1  0  0  0  0
  7 14  1  0  0  0  0
  7  9  1  0  0  0  0
  8  4  1  0  0  0  0
  9 10  1  0  0  0  0
 10  6  1  0  0  0  0
 11 13  1  0  0  0  0
 13  2  1  0  0  0  0
 14  8  1  0  0  0  0
 16 26  1  0  0  0  0
 17 26  2  0  0  0  0
 17 21  1  0  0  0  0
 18 17  1  0  0  0  0
 19 21  1  0  0  0  0
 19 28  1  0  0  0  0
 21 15  1  0  0  0  0
 21 20  1  0  0  0  0
 22 18  1  0  0  0  0
 22 23  1  0  0  0  0
 23 19  2  0  0  0  0
 24 16  2  0  0  0  0
 25 24  1  0  0  0  0
 25 18  2  0  0  0  0
 27 28  1  0  0  0  0
 29  9  1  0  0  0  0
 30 29  1  0  0  0  0
 31 29  1  0  0  0  0
 33 31  1  0  0  0  0
 33 32  1  0  0  0  0
 34 35  1  0  0  0  0
 34 36  1  0  0  0  0
 36 33  1  0  0  0  0
 37 34  2  0  0  0  0
 38 39  1  0  0  0  0
 38 11  1  0  0  0  0
 39 44  1  0  0  0  0
 41 45  2  0  0  0  0
 42 41  1  0  0  0  0
 43 41  1  0  0  0  0
 43 39  2  0  0  0  0
 44 40  2  0  0  0  0
 45 40  1  0  0  0  0
M  END
>  <MODEL>
6

>  <REMARK>
 VINA RESULT:      -5.2      3.633      9.359
  Name = 
  8 active torsions:
  status: ('A' for Active; 'I' for Inactive)
    1  A    between atoms: C_3  and  C_19
    2  A    between atoms: C_4  and  C_36
    3  A    between atoms: C_12  and  C_34
    4  A    between atoms: C_12  and  C_41
    5  A    between atoms: C_18  and  C_34
    6  A    between atoms: C_19  and  N_25
    7  A    between atoms: C_22  and  O_38
    8  A    between atoms: N_32  and  C_41
                            x       y       z     vdW  Elec       q    Type
                         _______ _______ _______ _____ _____    ______ ____

>  <TORSDO>
F 8

$$$$
=
 OpenBabel11042421403D

 45 50  0  0  1  0  0  0  0  0999 V2000
  161.8780  209.5850  149.6380 C   0  0  2  0  0  3  0  0  0  0  0  0
  162.3240  211.9210  148.6360 C   0  0  0  0  0  2  0  0  0  0  0  0
  160.0850  212.3440  150.5880 C   0  0  2  0  0  3  0  0  0  0  0  0
  160.9260  209.9820  150.8040 C   0  0  1  0  0  3  0  0  0  0  0  0
  159.6660  212.7690  152.0030 C   0  0  0  0  0  2  0  0  0  0  0  0
  160.9460  209.0580  151.8860 O   0  0  0  0  0  0  0  0  0  0  0  0
  160.4430  210.9810  153.5420 N   0  0  0  0  0  2  0  0  0  0  0  0
  161.1620  211.4690  151.1950 C   0  0  2  0  0  3  0  0  0  0  0  0
  161.6520  210.2160  153.8740 C   0  0  2  0  0  3  0  0  0  0  0  0
  162.0630  209.3120  152.7060 C   0  0  0  0  0  2  0  0  0  0  0  0
  160.7520  213.4370  149.8650 N   0  0  0  0  0  0  0  0  0  0  0  0
  161.7100  210.5350  148.4300 C   0  0  0  0  0  2  0  0  0  0  0  0
  161.1990  212.9580  148.5480 C   0  0  0  0  0  2  0  0  0  0  0  0
  160.8390  212.0070  152.5880 C   0  0  1  0  0  3  0  0  0  0  0  0
  162.8760  203.5860  147.5140 F   0  0  0  0  0  0  0  0  0  0  0  0
  162.0190  207.8350  147.8130 C   0  0  0  0  0  3  0  0  0  0  0  0
  161.6500  205.4730  148.2310 C   0  0  0  0  0  0  0  0  0  0  0  0
  161.4500  205.7580  149.6000 C   0  0  0  0  0  0  0  0  0  0  0  0
  160.8610  203.0950  148.6820 C   0  0  0  0  0  0  0  0  0  0  0  0
  160.8650  204.0650  146.3660 C   0  0  0  0  0  1  0  0  0  0  0  0
  161.5880  204.0440  147.7140 C   0  0  2  0  0  0  0  0  0  0  0  0
  161.2760  204.6550  150.6010 C   0  0  0  0  0  2  0  0  0  0  0  0
  160.7080  203.4150  149.9780 C   0  0  0  0  0  3  0  0  0  0  0  0
  161.7560  208.1360  149.1650 C   0  0  0  0  0  0  0  0  0  0  0  0
  161.5120  207.0750  150.0540 C   0  0  0  0  0  3  0  0  0  0  0  0
  161.9660  206.5230  147.3510 C   0  0  0  0  0  3  0  0  0  0  0  0
  161.2060  200.7300  147.9290 C   0  0  0  0  0  1  0  0  0  0  0  0
  160.3750  201.8370  148.2760 O   0  0  0  0  0  0  0  0  0  0  0  0
  161.4460  209.4350  155.1700 C   0  0  1  0  0  3  0  0  0  0  0  0
  161.6450  210.2710  156.2780 O   0  0  0  0  0  1  0  0  0  0  0  0
  160.0540  208.8040  155.1980 C   0  0  0  0  0  2  0  0  0  0  0  0
  159.9380  207.0250  156.8710 N   0  0  0  0  0  1  0  0  0  0  0  0
  160.0610  207.2930  155.4450 C   0  0  2  0  0  3  0  0  0  0  0  0
  161.3170  205.8960  153.7140 C   0  0  0  0  0  0  0  0  0  0  0  0
  160.0900  205.6950  152.8900 C   0  0  0  0  0  1  0  0  0  0  0  0
  161.2820  206.6870  154.9130 N   0  0  0  0  0  2  0  0  0  0  0  0
  162.4040  205.3730  153.3440 O   0  0  0  0  0  0  0  0  0  0  0  0
  159.7430  214.4530  149.5850 C   0  0  0  0  0  2  0  0  0  0  0  0
  158.8340  213.9630  148.5070 C   0  0  0  0  0  0  0  0  0  0  0  0
  156.6160  213.5220  147.6750 C   0  0  0  0  0  3  0  0  0  0  0  0
  158.5450  213.2500  146.2560 C   0  0  0  0  0  0  0  0  0  0  0  0
  159.0840  212.9510  145.0480 F   0  0  0  0  0  0  0  0  0  0  0  0
  159.3460  213.6280  147.2950 N   0  0  0  0  0  0  0  0  0  0  0  0
  157.4540  213.9110  148.7250 C   0  0  0  0  0  3  0  0  0  0  0  0
  157.1600  213.1910  146.4310 C   0  0  0  0  0  3  0  0  0  0  0  0
  1 24  1  6  0  0  0
  1  4  1  0  0  0  0
  3  8  1  0  0  0  0
  3  5  1  1  0  0  0
  4  8  1  0  0  0  0
  4  6  1  1  0  0  0
  5 14  1  0  0  0  0
  6 10  1  0  0  0  0
  7  9  1  0  0  0  0
  8 14  1  0  0  0  0
  9 29  1  0  0  0  0
 10  9  1  0  0  0  0
 11  3  1  0  0  0  0
 12  2  1  0  0  0  0
 12  1  1  0  0  0  0
 13  2  1  0  0  0  0
 13 11  1  0  0  0  0
 14  7  1  0  0  0  0
 15 21  1  0  0  0  0
 16 24  1  0  0  0  0
 17 18  2  0  0  0  0
 18 25  1  0  0  0  0
 18 22  1  0  0  0  0
 19 23  2  0  0  0  0
 20 21  1  0  0  0  0
 21 17  1  0  0  0  0
 21 19  1  0  0  0  0
 23 22  1  0  0  0  0
 24 25  2  0  0  0  0
 26 16  2  0  0  0  0
 26 17  1  0  0  0  0
 27 28  1  0  0  0  0
 28 19  1  0  0  0  0
 29 31  1  0  0  0  0
 29 30  1  0  0  0  0
 31 33  1  0  0  0  0
 33 32  1  0  0  0  0
 34 36  1  0  0  0  0
 35 34  1  0  0  0  0
 36 33  1  0  0  0  0
 37 34  2  0  0  0  0
 38 11  1  0  0  0  0
 39 44  1  0  0  0  0
 39 38  1  0  0  0  0
 40 44  2  0  0  0  0
 41 45  2  0  0  0  0
 41 43  1  0  0  0  0
 42 41  1  0  0  0  0
 43 39  2  0  0  0  0
 45 40  1  0  0  0  0
M  END
>  <MODEL>
7

>  <REMARK>
 VINA RESULT:      -4.7      2.098      2.992
  Name = 
  8 active torsions:
  status: ('A' for Active; 'I' for Inactive)
    1  A    between atoms: C_3  and  C_19
    2  A    between atoms: C_4  and  C_36
    3  A    between atoms: C_12  and  C_34
    4  A    between atoms: C_12  and  C_41
    5  A    between atoms: C_18  and  C_34
    6  A    between atoms: C_19  and  N_25
    7  A    between atoms: C_22  and  O_38
    8  A    between atoms: N_32  and  C_41
                            x       y       z     vdW  Elec       q    Type
                         _______ _______ _______ _____ _____    ______ ____

>  <TORSDO>
F 8

$$$$
