=
 OpenBabel11042423143D

 35 38  0  0  1  0  0  0  0  0999 V2000
  162.3080  207.4960  151.1610 N   0  0  0  0  0  0  0  0  0  0  0  0
  161.5350  207.7540  148.8590 C   0  0  0  0  0  3  0  0  0  0  0  0
  161.8500  209.1520  148.7380 N   0  0  0  0  0  0  0  0  0  0  0  0
  161.2830  209.7070  151.0400 C   0  0  1  0  0  3  0  0  0  0  0  0
  162.1900  211.3990  149.3800 N   0  0  0  0  0  2  0  0  0  0  0  0
  161.6840  206.9970  149.9620 C   0  0  0  0  0  0  0  0  0  0  0  0
  161.7990  210.0530  149.6750 C   0  0  0  0  0  0  0  0  0  0  0  0
  162.1740  208.6860  151.6590 C   0  0  0  0  0  3  0  0  0  0  0  0
  161.0910  204.7510  151.0420 C   0  0  0  0  0  0  0  0  0  0  0  0
  160.5860  201.4430  149.5430 N   0  0  0  0  0  1  0  0  0  0  0  0
  161.4220  204.9320  148.6880 N   0  0  0  0  0  0  0  0  0  0  0  0
  161.2180  203.0060  147.1710 C   0  0  0  0  0  1  0  0  0  0  0  0
  161.1670  203.6080  148.5340 C   0  0  0  0  0  0  0  0  0  0  0  0
  160.8370  203.4260  150.8810 N   0  0  0  0  0  0  0  0  0  0  0  0
  161.3860  205.5430  149.9060 C   0  0  0  0  0  0  0  0  0  0  0  0
  160.8600  202.8360  149.6590 C   0  0  0  0  0  0  0  0  0  0  0  0
  161.0960  205.2950  152.3590 N   0  0  0  0  0  1  0  0  0  0  0  0
  161.1630  210.9270  151.9510 C   0  0  0  0  0  2  0  0  0  0  0  0
  160.8870  211.4220  154.3520 C   0  0  0  0  0  3  0  0  0  0  0  0
  161.1460  210.5290  153.3910 C   0  0  0  0  0  3  0  0  0  0  0  0
  159.8890  209.9420  156.0800 C   0  0  0  0  0  2  0  0  0  0  0  0
  162.2220  210.5470  156.2690 C   0  0  0  0  0  2  0  0  0  0  0  0
  160.8680  211.0580  155.8080 C   0  0  1  0  0  3  0  0  0  0  0  0
  160.6870  208.8970  156.8260 C   0  0  2  0  0  3  0  0  0  0  0  0
  162.0970  209.1210  156.5390 N   0  0  0  0  0  2  0  0  0  0  0  0
  159.9530  206.6740  157.2600 O   0  0  0  0  0  1  0  0  0  0  0  0
  160.2620  207.1900  155.0470 O   0  0  0  0  0  0  0  0  0  0  0  0
  160.2850  207.5270  156.3960 C   0  0  0  0  0  0  0  0  0  0  0  0
  162.6710  211.8060  148.0690 C   0  0  0  0  0  2  0  0  0  0  0  0
  160.2270  214.1860  146.0970 C   0  0  0  0  0  3  0  0  0  0  0  0
  161.7660  214.1310  146.7830 S   0  0  0  0  0  0  0  0  0  0  0  0
  161.6060  212.5670  147.3630 C   0  0  0  0  0  0  0  0  0  0  0  0
  159.6480  212.9440  146.3510 C   0  0  0  0  0  0  0  0  0  0  0  0
  158.3350  212.6200  145.9090 N   0  0  0  0  0  1  0  0  0  0  0  0
  160.4050  212.0480  147.0400 N   0  0  0  0  0  0  0  0  0  0  0  0
  1  8  2  0  0  0  0
  2  6  2  0  0  0  0
  3  2  1  0  0  0  0
  3  7  2  0  0  0  0
  4  8  1  0  0  0  0
  4 18  1  1  0  0  0
  5  7  1  0  0  0  0
  6  1  1  0  0  0  0
  7  4  1  0  0  0  0
  9 17  1  0  0  0  0
 10 16  1  0  0  0  0
 11 15  1  0  0  0  0
 12 13  1  0  0  0  0
 13 11  2  0  0  0  0
 13 16  1  0  0  0  0
 14  9  1  0  0  0  0
 15  6  1  0  0  0  0
 15  9  2  0  0  0  0
 16 14  2  0  0  0  0
 18 20  1  0  0  0  0
 20 19  2  0  0  0  0
 21 24  1  0  0  0  0
 22 25  1  0  0  0  0
 23 19  1  6  0  0  0
 23 21  1  0  0  0  0
 23 22  1  0  0  0  0
 24 28  1  6  0  0  0
 25 24  1  0  0  0  0
 27 28  2  0  0  0  0
 28 26  1  0  0  0  0
 29  5  1  0  0  0  0
 30 33  2  0  0  0  0
 30 31  1  0  0  0  0
 31 32  1  0  0  0  0
 32 29  1  0  0  0  0
 33 35  1  0  0  0  0
 34 33  1  0  0  0  0
 35 32  2  0  0  0  0
M  END
>  <MODEL>
1

>  <REMARK>
 VINA RESULT:      -8.1      0.000      0.000
  Name = 
  7 active torsions:
  status: ('A' for Active; 'I' for Inactive)
    1  A    between atoms: C_10  and  CA_25
    2  A    between atoms: C_11  and  C_13
    3  A    between atoms: C_11  and  C_20
    4  A    between atoms: C_15  and  C_19
    5  A    between atoms: C_16  and  C_24
    6  A    between atoms: N_17  and  C_19
    7  A    between atoms: C_22  and  C_31
                            x       y       z     vdW  Elec       q    Type
                         _______ _______ _______ _____ _____    ______ ____

>  <TORSDO>
F 7

$$$$
=
 OpenBabel11042423143D

 35 38  0  0  1  0  0  0  0  0999 V2000
  162.3230  207.6580  151.0190 N   0  0  0  0  0  0  0  0  0  0  0  0
  161.6300  207.9710  148.6990 C   0  0  0  0  0  3  0  0  0  0  0  0
  161.9520  209.3710  148.6210 N   0  0  0  0  0  0  0  0  0  0  0  0
  161.3070  209.8730  150.9150 C   0  0  1  0  0  3  0  0  0  0  0  0
  162.2740  211.6010  149.3260 N   0  0  0  0  0  2  0  0  0  0  0  0
  161.7400  207.1890  149.7890 C   0  0  0  0  0  0  0  0  0  0  0  0
  161.8710  210.2500  149.5760 C   0  0  0  0  0  0  0  0  0  0  0  0
  162.1740  208.8360  151.5400 C   0  0  0  0  0  3  0  0  0  0  0  0
  161.3010  205.0420  148.4620 C   0  0  0  0  0  0  0  0  0  0  0  0
  160.5830  201.6330  149.6090 N   0  0  0  0  0  1  0  0  0  0  0  0
  161.2710  205.0390  150.8460 N   0  0  0  0  0  0  0  0  0  0  0  0
  160.8270  203.0090  152.1620 C   0  0  0  0  0  1  0  0  0  0  0  0
  160.9940  203.7100  150.8570 C   0  0  0  0  0  0  0  0  0  0  0  0
  161.0230  203.7120  148.4810 N   0  0  0  0  0  0  0  0  0  0  0  0
  161.4420  205.7370  149.6880 C   0  0  0  0  0  0  0  0  0  0  0  0
  160.8730  203.0280  149.6430 C   0  0  0  0  0  0  0  0  0  0  0  0
  161.3980  205.7060  147.2060 N   0  0  0  0  0  1  0  0  0  0  0  0
  161.1580  211.0730  151.8480 C   0  0  0  0  0  2  0  0  0  0  0  0
  160.7930  211.4900  154.2520 C   0  0  0  0  0  3  0  0  0  0  0  0
  161.1600  210.6470  153.2810 C   0  0  0  0  0  3  0  0  0  0  0  0
  159.8470  209.9460  155.9540 C   0  0  0  0  0  2  0  0  0  0  0  0
  162.1600  210.6220  156.1500 C   0  0  0  0  0  2  0  0  0  0  0  0
  160.7900  211.0980  155.7020 C   0  0  1  0  0  3  0  0  0  0  0  0
  160.6810  208.9130  156.6790 C   0  0  2  0  0  3  0  0  0  0  0  0
  162.0820  209.1890  156.3940 N   0  0  0  0  0  2  0  0  0  0  0  0
  159.7860  206.7350  157.0300 O   0  0  0  0  0  1  0  0  0  0  0  0
  160.5620  207.1460  154.9120 O   0  0  0  0  0  0  0  0  0  0  0  0
  160.3210  207.5400  156.2240 C   0  0  0  0  0  0  0  0  0  0  0  0
  162.8000  212.0380  148.0420 C   0  0  0  0  0  2  0  0  0  0  0  0
  160.3430  213.9810  145.6540 C   0  0  0  0  0  3  0  0  0  0  0  0
  161.9420  213.4620  145.7820 S   0  0  0  0  0  0  0  0  0  0  0  0
  161.7450  212.7740  147.2970 C   0  0  0  0  0  0  0  0  0  0  0  0
  159.7110  213.5740  146.8270 C   0  0  0  0  0  0  0  0  0  0  0  0
  158.3340  213.8360  147.0720 N   0  0  0  0  0  1  0  0  0  0  0  0
  160.4760  212.9030  147.7300 N   0  0  0  0  0  0  0  0  0  0  0  0
  1  8  2  0  0  0  0
  2  6  2  0  0  0  0
  3  2  1  0  0  0  0
  3  7  2  0  0  0  0
  4  8  1  0  0  0  0
  4 18  1  1  0  0  0
  5  7  1  0  0  0  0
  6  1  1  0  0  0  0
  7  4  1  0  0  0  0
  9 14  2  0  0  0  0
  9 15  1  0  0  0  0
 10 16  1  0  0  0  0
 11 13  1  0  0  0  0
 13 12  1  0  0  0  0
 14 16  1  0  0  0  0
 15  6  1  0  0  0  0
 15 11  2  0  0  0  0
 16 13  2  0  0  0  0
 17  9  1  0  0  0  0
 18 20  1  0  0  0  0
 20 19  2  0  0  0  0
 21 24  1  0  0  0  0
 22 25  1  0  0  0  0
 23 19  1  6  0  0  0
 23 21  1  0  0  0  0
 23 22  1  0  0  0  0
 24 28  1  6  0  0  0
 25 24  1  0  0  0  0
 27 28  2  0  0  0  0
 28 26  1  0  0  0  0
 29  5  1  0  0  0  0
 30 31  1  0  0  0  0
 30 33  2  0  0  0  0
 31 32  1  0  0  0  0
 32 35  2  0  0  0  0
 32 29  1  0  0  0  0
 33 34  1  0  0  0  0
 33 35  1  0  0  0  0
M  END
>  <MODEL>
2

>  <REMARK>
 VINA RESULT:      -7.8      0.811      1.533
  Name = 
  7 active torsions:
  status: ('A' for Active; 'I' for Inactive)
    1  A    between atoms: C_10  and  CA_25
    2  A    between atoms: C_11  and  C_13
    3  A    between atoms: C_11  and  C_20
    4  A    between atoms: C_15  and  C_19
    5  A    between atoms: C_16  and  C_24
    6  A    between atoms: N_17  and  C_19
    7  A    between atoms: C_22  and  C_31
                            x       y       z     vdW  Elec       q    Type
                         _______ _______ _______ _____ _____    ______ ____

>  <TORSDO>
F 7

$$$$
=
 OpenBabel11042423143D

 35 38  0  0  1  0  0  0  0  0999 V2000
  161.0050  207.3000  148.7250 N   0  0  0  0  0  0  0  0  0  0  0  0
  160.9760  206.2610  150.9340 C   0  0  0  0  0  3  0  0  0  0  0  0
  160.8310  207.4790  151.6850 N   0  0  0  0  0  0  0  0  0  0  0  0
  162.2180  208.8200  150.1990 C   0  0  1  0  0  3  0  0  0  0  0  0
  161.0390  209.7650  152.2390 N   0  0  0  0  0  2  0  0  0  0  0  0
  161.1090  206.1600  149.5980 C   0  0  0  0  0  0  0  0  0  0  0  0
  161.3200  208.6470  151.3890 C   0  0  0  0  0  0  0  0  0  0  0  0
  161.4610  208.4920  148.9590 C   0  0  0  0  0  3  0  0  0  0  0  0
  161.5650  204.5990  147.6200 C   0  0  0  0  0  0  0  0  0  0  0  0
  161.2600  200.9550  147.3370 N   0  0  0  0  0  1  0  0  0  0  0  0
  160.7990  203.7420  149.7080 N   0  0  0  0  0  0  0  0  0  0  0  0
  160.4050  201.3440  150.0910 C   0  0  0  0  0  1  0  0  0  0  0  0
  160.8180  202.4770  149.2150 C   0  0  0  0  0  0  0  0  0  0  0  0
  161.5810  203.3300  147.1320 N   0  0  0  0  0  0  0  0  0  0  0  0
  161.1690  204.8190  148.9610 C   0  0  0  0  0  0  0  0  0  0  0  0
  161.2260  202.2660  147.8950 C   0  0  0  0  0  0  0  0  0  0  0  0
  161.9060  205.6740  146.7490 N   0  0  0  0  0  1  0  0  0  0  0  0
  162.8060  210.2260  150.1050 C   0  0  0  0  0  2  0  0  0  0  0  0
  162.4240  212.1130  148.5610 C   0  0  0  0  0  3  0  0  0  0  0  0
  161.9160  211.1340  149.3180 C   0  0  0  0  0  3  0  0  0  0  0  0
  162.3100  213.6130  146.5830 C   0  0  0  0  0  2  0  0  0  0  0  0
  160.3540  212.3260  147.1840 C   0  0  0  0  0  2  0  0  0  0  0  0
  161.5590  213.0450  147.7640 C   0  0  1  0  0  3  0  0  0  0  0  0
  161.4290  213.3300  145.3880 C   0  0  2  0  0  3  0  0  0  0  0  0
  160.5330  212.2380  145.7410 N   0  0  0  0  0  2  0  0  0  0  0  0
  163.4620  213.3150  144.1490 O   0  0  0  0  0  1  0  0  0  0  0  0
  161.7090  212.2050  143.1710 O   0  0  0  0  0  0  0  0  0  0  0  0
  162.2560  212.9570  144.2050 C   0  0  0  0  0  0  0  0  0  0  0  0
  160.2010  209.6580  153.4230 C   0  0  0  0  0  2  0  0  0  0  0  0
  162.3240  209.0020  156.6760 C   0  0  0  0  0  3  0  0  0  0  0  0
  161.1160  208.3230  155.7160 S   0  0  0  0  0  0  0  0  0  0  0  0
  161.0590  209.6040  154.6360 C   0  0  0  0  0  0  0  0  0  0  0  0
  162.6420  210.2250  156.0880 C   0  0  0  0  0  0  0  0  0  0  0  0
  163.6380  211.0840  156.6280 N   0  0  0  0  0  1  0  0  0  0  0  0
  161.9550  210.5560  154.9620 N   0  0  0  0  0  0  0  0  0  0  0  0
  1  8  2  0  0  0  0
  1  6  1  0  0  0  0
  2  3  1  0  0  0  0
  4 18  1  6  0  0  0
  4  7  1  0  0  0  0
  5 29  1  0  0  0  0
  6  2  2  0  0  0  0
  7  3  2  0  0  0  0
  7  5  1  0  0  0  0
  8  4  1  0  0  0  0
  9 15  1  0  0  0  0
 10 16  1  0  0  0  0
 13 11  1  0  0  0  0
 13 12  1  0  0  0  0
 14  9  2  0  0  0  0
 14 16  1  0  0  0  0
 15  6  1  0  0  0  0
 15 11  2  0  0  0  0
 16 13  2  0  0  0  0
 17  9  1  0  0  0  0
 19 20  2  0  0  0  0
 20 18  1  0  0  0  0
 21 23  1  0  0  0  0
 22 23  1  0  0  0  0
 23 19  1  6  0  0  0
 24 28  1  6  0  0  0
 24 25  1  0  0  0  0
 24 21  1  0  0  0  0
 25 22  1  0  0  0  0
 26 28  1  0  0  0  0
 27 28  2  0  0  0  0
 29 32  1  0  0  0  0
 31 30  1  0  0  0  0
 32 35  2  0  0  0  0
 32 31  1  0  0  0  0
 33 34  1  0  0  0  0
 33 30  2  0  0  0  0
 35 33  1  0  0  0  0
M  END
>  <MODEL>
3

>  <REMARK>
 VINA RESULT:      -7.8      4.127      7.580
  Name = 
  7 active torsions:
  status: ('A' for Active; 'I' for Inactive)
    1  A    between atoms: C_10  and  CA_25
    2  A    between atoms: C_11  and  C_13
    3  A    between atoms: C_11  and  C_20
    4  A    between atoms: C_15  and  C_19
    5  A    between atoms: C_16  and  C_24
    6  A    between atoms: N_17  and  C_19
    7  A    between atoms: C_22  and  C_31
                            x       y       z     vdW  Elec       q    Type
                         _______ _______ _______ _____ _____    ______ ____

>  <TORSDO>
F 7

$$$$
=
 OpenBabel11042423143D

 35 38  0  0  1  0  0  0  0  0999 V2000
  160.7750  207.1010  149.0410 N   0  0  0  0  0  0  0  0  0  0  0  0
  161.2900  205.9210  151.1160 C   0  0  0  0  0  3  0  0  0  0  0  0
  161.2150  207.0700  151.9780 N   0  0  0  0  0  0  0  0  0  0  0  0
  162.1530  208.6250  150.3560 C   0  0  1  0  0  3  0  0  0  0  0  0
  161.3620  209.3250  152.6640 N   0  0  0  0  0  2  0  0  0  0  0  0
  161.1460  205.9200  149.7770 C   0  0  0  0  0  0  0  0  0  0  0  0
  161.5410  208.2940  151.6850 C   0  0  0  0  0  0  0  0  0  0  0  0
  161.1790  208.3110  149.2730 C   0  0  0  0  0  3  0  0  0  0  0  0
  161.5580  204.5140  147.6760 C   0  0  0  0  0  0  0  0  0  0  0  0
  161.1630  200.9140  147.0990 N   0  0  0  0  0  1  0  0  0  0  0  0
  160.7760  203.5090  149.6910 N   0  0  0  0  0  0  0  0  0  0  0  0
  160.3250  201.0980  149.8800 C   0  0  0  0  0  1  0  0  0  0  0  0
  160.7630  202.2890  149.0970 C   0  0  0  0  0  0  0  0  0  0  0  0
  161.5420  203.2900  147.0870 N   0  0  0  0  0  0  0  0  0  0  0  0
  161.1710  204.6350  149.0330 C   0  0  0  0  0  0  0  0  0  0  0  0
  161.1620  202.1750  147.7620 C   0  0  0  0  0  0  0  0  0  0  0  0
  161.9230  205.6480  146.8940 N   0  0  0  0  0  1  0  0  0  0  0  0
  162.6000  210.0820  150.2600 C   0  0  0  0  0  2  0  0  0  0  0  0
  162.5520  211.8500  148.5400 C   0  0  0  0  0  3  0  0  0  0  0  0
  161.9940  210.7580  149.0720 C   0  0  0  0  0  3  0  0  0  0  0  0
  160.5510  212.1040  147.0890 C   0  0  0  0  0  2  0  0  0  0  0  0
  161.8890  214.0560  147.5820 C   0  0  0  0  0  2  0  0  0  0  0  0
  161.9660  212.5570  147.3520 C   0  0  1  0  0  3  0  0  0  0  0  0
  159.7400  213.3790  147.0240 C   0  0  2  0  0  3  0  0  0  0  0  0
  160.4850  214.4190  147.7190 N   0  0  0  0  0  2  0  0  0  0  0  0
  158.1770  213.6890  148.7940 O   0  0  0  0  0  1  0  0  0  0  0  0
  157.4150  212.4550  147.0180 O   0  0  0  0  0  0  0  0  0  0  0  0
  158.4080  213.1830  147.6650 C   0  0  0  0  0  0  0  0  0  0  0  0
  160.8030  209.0650  153.9820 C   0  0  0  0  0  2  0  0  0  0  0  0
  160.2330  212.3410  156.0950 C   0  0  0  0  0  3  0  0  0  0  0  0
  160.9480  210.8160  156.1700 S   0  0  0  0  0  0  0  0  0  0  0  0
  160.4550  210.3540  154.6360 C   0  0  0  0  0  0  0  0  0  0  0  0
  159.6360  212.4250  154.8380 C   0  0  0  0  0  0  0  0  0  0  0  0
  158.9350  213.5870  154.4130 N   0  0  0  0  0  1  0  0  0  0  0  0
  159.7620  211.3380  154.0300 N   0  0  0  0  0  0  0  0  0  0  0  0
  1  8  2  0  0  0  0
  1  6  1  0  0  0  0
  2  3  1  0  0  0  0
  4 18  1  1  0  0  0
  4  7  1  0  0  0  0
  5 29  1  0  0  0  0
  6  2  2  0  0  0  0
  7  3  2  0  0  0  0
  7  5  1  0  0  0  0
  8  4  1  0  0  0  0
  9 15  1  0  0  0  0
 10 16  1  0  0  0  0
 13 11  1  0  0  0  0
 13 12  1  0  0  0  0
 14  9  2  0  0  0  0
 14 16  1  0  0  0  0
 15 11  2  0  0  0  0
 15  6  1  0  0  0  0
 16 13  2  0  0  0  0
 17  9  1  0  0  0  0
 19 20  2  0  0  0  0
 20 18  1  0  0  0  0
 21 23  1  0  0  0  0
 22 25  1  0  0  0  0
 23 22  1  0  0  0  0
 23 19  1  1  0  0  0
 24 21  1  0  0  0  0
 24 28  1  1  0  0  0
 24 25  1  0  0  0  0
 27 28  2  0  0  0  0
 28 26  1  0  0  0  0
 29 32  1  0  0  0  0
 30 31  1  0  0  0  0
 32 31  1  0  0  0  0
 33 30  2  0  0  0  0
 34 33  1  0  0  0  0
 35 32  2  0  0  0  0
 35 33  1  0  0  0  0
M  END
>  <MODEL>
4

>  <REMARK>
 VINA RESULT:      -7.8      3.486      6.606
  Name = 
  7 active torsions:
  status: ('A' for Active; 'I' for Inactive)
    1  A    between atoms: C_10  and  CA_25
    2  A    between atoms: C_11  and  C_13
    3  A    between atoms: C_11  and  C_20
    4  A    between atoms: C_15  and  C_19
    5  A    between atoms: C_16  and  C_24
    6  A    between atoms: N_17  and  C_19
    7  A    between atoms: C_22  and  C_31
                            x       y       z     vdW  Elec       q    Type
                         _______ _______ _______ _____ _____    ______ ____

>  <TORSDO>
F 7

$$$$
=
 OpenBabel11042423143D

 35 38  0  0  1  0  0  0  0  0999 V2000
  162.4060  206.8160  151.0460 N   0  0  0  0  0  0  0  0  0  0  0  0
  161.3420  207.3720  148.9200 C   0  0  0  0  0  3  0  0  0  0  0  0
  161.6540  208.7760  148.9440 N   0  0  0  0  0  0  0  0  0  0  0  0
  161.3970  209.0170  151.3540 C   0  0  1  0  0  3  0  0  0  0  0  0
  162.0990  210.9200  149.8280 N   0  0  0  0  0  2  0  0  0  0  0  0
  161.6260  206.4770  149.8850 C   0  0  0  0  0  0  0  0  0  0  0  0
  161.7350  209.5440  149.9900 C   0  0  0  0  0  0  0  0  0  0  0  0
  162.3500  207.9290  151.7110 C   0  0  0  0  0  3  0  0  0  0  0  0
  160.9360  204.1540  150.7150 C   0  0  0  0  0  0  0  0  0  0  0  0
  160.4610  201.0100  148.8870 N   0  0  0  0  0  1  0  0  0  0  0  0
  161.4030  204.5440  148.4100 N   0  0  0  0  0  0  0  0  0  0  0  0
  161.2530  202.7720  146.7110 C   0  0  0  0  0  1  0  0  0  0  0  0
  161.1340  203.2460  148.1190 C   0  0  0  0  0  0  0  0  0  0  0  0
  160.6680  202.8550  150.4170 N   0  0  0  0  0  0  0  0  0  0  0  0
  161.3080  205.0400  149.6760 C   0  0  0  0  0  0  0  0  0  0  0  0
  160.7510  202.3800  149.1480 C   0  0  0  0  0  0  0  0  0  0  0  0
  160.8750  204.5730  152.0760 N   0  0  0  0  0  1  0  0  0  0  0  0
  161.4100  210.1050  152.4250 C   0  0  0  0  0  2  0  0  0  0  0  0
  159.6680  211.8490  152.5240 C   0  0  0  0  0  3  0  0  0  0  0  0
  160.0260  210.5780  152.7340 C   0  0  0  0  0  3  0  0  0  0  0  0
  157.6910  211.6440  154.0150 C   0  0  0  0  0  2  0  0  0  0  0  0
  158.3130  213.8320  153.1970 C   0  0  0  0  0  2  0  0  0  0  0  0
  158.2900  212.3600  152.8280 C   0  0  1  0  0  3  0  0  0  0  0  0
  157.2530  212.7450  154.9530 C   0  0  2  0  0  3  0  0  0  0  0  0
  158.0040  213.9460  154.6160 N   0  0  0  0  0  2  0  0  0  0  0  0
  158.6310  212.5910  156.8890 O   0  0  0  0  0  0  0  0  0  0  0  0
  156.5110  211.7490  157.1250 O   0  0  0  0  0  1  0  0  0  0  0  0
  157.5080  212.3570  156.3700 C   0  0  0  0  0  0  0  0  0  0  0  0
  162.4080  211.5000  148.5300 C   0  0  0  0  0  2  0  0  0  0  0  0
  159.4500  213.9250  147.5880 C   0  0  0  0  0  3  0  0  0  0  0  0
  160.6510  213.6780  148.7440 S   0  0  0  0  0  0  0  0  0  0  0  0
  161.2380  212.2750  148.0400 C   0  0  0  0  0  0  0  0  0  0  0  0
  159.5720  212.8780  146.6750 C   0  0  0  0  0  0  0  0  0  0  0  0
  158.7180  212.7600  145.5440 N   0  0  0  0  0  1  0  0  0  0  0  0
  160.5590  211.9730  146.9160 N   0  0  0  0  0  0  0  0  0  0  0  0
  1  8  2  0  0  0  0
  2  3  1  0  0  0  0
  2  6  2  0  0  0  0
  3  7  2  0  0  0  0
  4  8  1  0  0  0  0
  4 18  1  1  0  0  0
  5  7  1  0  0  0  0
  6  1  1  0  0  0  0
  7  4  1  0  0  0  0
  9 17  1  0  0  0  0
 10 16  1  0  0  0  0
 11 15  1  0  0  0  0
 12 13  1  0  0  0  0
 13 11  2  0  0  0  0
 13 16  1  0  0  0  0
 14  9  1  0  0  0  0
 15  6  1  0  0  0  0
 15  9  2  0  0  0  0
 16 14  2  0  0  0  0
 18 20  1  0  0  0  0
 19 20  2  0  0  0  0
 21 24  1  0  0  0  0
 22 25  1  0  0  0  0
 23 19  1  1  0  0  0
 23 22  1  0  0  0  0
 23 21  1  0  0  0  0
 24 28  1  1  0  0  0
 25 24  1  0  0  0  0
 28 26  2  0  0  0  0
 28 27  1  0  0  0  0
 29  5  1  0  0  0  0
 30 31  1  0  0  0  0
 32 29  1  0  0  0  0
 32 31  1  0  0  0  0
 33 35  1  0  0  0  0
 33 30  2  0  0  0  0
 34 33  1  0  0  0  0
 35 32  2  0  0  0  0
M  END
>  <MODEL>
5

>  <REMARK>
 VINA RESULT:      -7.7      2.454      2.778
  Name = 
  7 active torsions:
  status: ('A' for Active; 'I' for Inactive)
    1  A    between atoms: C_10  and  CA_25
    2  A    between atoms: C_11  and  C_13
    3  A    between atoms: C_11  and  C_20
    4  A    between atoms: C_15  and  C_19
    5  A    between atoms: C_16  and  C_24
    6  A    between atoms: N_17  and  C_19
    7  A    between atoms: C_22  and  C_31
                            x       y       z     vdW  Elec       q    Type
                         _______ _______ _______ _____ _____    ______ ____

>  <TORSDO>
F 7

$$$$
=
 OpenBabel11042423143D

 35 38  0  0  1  0  0  0  0  0999 V2000
  160.4810  206.1770  149.3820 N   0  0  0  0  0  0  0  0  0  0  0  0
  161.2500  204.7930  151.2400 C   0  0  0  0  0  3  0  0  0  0  0  0
  161.1890  205.8200  152.2440 N   0  0  0  0  0  0  0  0  0  0  0  0
  161.8840  207.6210  150.7590 C   0  0  1  0  0  3  0  0  0  0  0  0
  161.2690  207.9800  153.1960 N   0  0  0  0  0  2  0  0  0  0  0  0
  160.9850  204.9450  149.9280 C   0  0  0  0  0  0  0  0  0  0  0  0
  161.4160  207.0910  152.0830 C   0  0  0  0  0  0  0  0  0  0  0  0
  160.8340  207.3750  149.7320 C   0  0  0  0  0  3  0  0  0  0  0  0
  160.9220  202.4240  149.4770 C   0  0  0  0  0  0  0  0  0  0  0  0
  161.1360  200.5580  146.3270 N   0  0  0  0  0  1  0  0  0  0  0  0
  161.1650  203.9850  147.6910 N   0  0  0  0  0  0  0  0  0  0  0  0
  161.3670  203.2870  145.3410 C   0  0  0  0  0  1  0  0  0  0  0  0
  161.2070  202.9710  146.7900 C   0  0  0  0  0  0  0  0  0  0  0  0
  160.9640  201.4140  148.5690 N   0  0  0  0  0  0  0  0  0  0  0  0
  161.0150  203.7640  149.0280 C   0  0  0  0  0  0  0  0  0  0  0  0
  161.0970  201.6520  147.2390 C   0  0  0  0  0  0  0  0  0  0  0  0
  160.8290  202.0990  150.8610 N   0  0  0  0  0  1  0  0  0  0  0  0
  162.2360  209.1060  150.8120 C   0  0  0  0  0  2  0  0  0  0  0  0
  162.3190  211.0510  149.2970 C   0  0  0  0  0  3  0  0  0  0  0  0
  162.1120  209.7410  149.4650 C   0  0  0  0  0  3  0  0  0  0  0  0
  160.7520  211.8450  147.5390 C   0  0  0  0  0  2  0  0  0  0  0  0
  162.7420  213.1380  147.9970 C   0  0  0  0  0  2  0  0  0  0  0  0
  162.1960  211.7220  147.9590 C   0  0  1  0  0  3  0  0  0  0  0  0
  160.5670  213.3080  147.2040 C   0  0  2  0  0  3  0  0  0  0  0  0
  161.6180  214.0570  147.8770 N   0  0  0  0  0  2  0  0  0  0  0  0
  158.3650  214.1180  146.8010 O   0  0  0  0  0  0  0  0  0  0  0  0
  158.9190  213.8420  149.0080 O   0  0  0  0  0  1  0  0  0  0  0  0
  159.2270  213.7820  147.6540 C   0  0  0  0  0  0  0  0  0  0  0  0
  160.8480  207.5250  154.5120 C   0  0  0  0  0  2  0  0  0  0  0  0
  161.1260  210.5090  157.0690 C   0  0  0  0  0  3  0  0  0  0  0  0
  161.9440  209.1370  156.5310 S   0  0  0  0  0  0  0  0  0  0  0  0
  160.7590  208.6870  155.4350 C   0  0  0  0  0  0  0  0  0  0  0  0
  159.9380  210.5590  156.3410 C   0  0  0  0  0  0  0  0  0  0  0  0
  158.9850  211.6000  156.5240 N   0  0  0  0  0  1  0  0  0  0  0  0
  159.7350  209.5640  155.4360 N   0  0  0  0  0  0  0  0  0  0  0  0
  1  8  2  0  0  0  0
  1  6  1  0  0  0  0
  2  3  1  0  0  0  0
  4 18  1  1  0  0  0
  4  7  1  0  0  0  0
  5 29  1  0  0  0  0
  6  2  2  0  0  0  0
  7  3  2  0  0  0  0
  7  5  1  0  0  0  0
  8  4  1  0  0  0  0
  9 17  1  0  0  0  0
 10 16  1  0  0  0  0
 11 15  2  0  0  0  0
 12 13  1  0  0  0  0
 13 16  2  0  0  0  0
 13 11  1  0  0  0  0
 14  9  2  0  0  0  0
 15  9  1  0  0  0  0
 15  6  1  0  0  0  0
 16 14  1  0  0  0  0
 19 20  2  0  0  0  0
 20 18  1  0  0  0  0
 21 23  1  0  0  0  0
 23 22  1  0  0  0  0
 23 19  1  1  0  0  0
 24 21  1  0  0  0  0
 24 28  1  1  0  0  0
 24 25  1  0  0  0  0
 25 22  1  0  0  0  0
 26 28  2  0  0  0  0
 28 27  1  0  0  0  0
 29 32  1  0  0  0  0
 31 30  1  0  0  0  0
 32 35  2  0  0  0  0
 32 31  1  0  0  0  0
 33 34  1  0  0  0  0
 33 30  2  0  0  0  0
 35 33  1  0  0  0  0
M  END
>  <MODEL>
6

>  <REMARK>
 VINA RESULT:      -7.6      3.475      6.985
  Name = 
  7 active torsions:
  status: ('A' for Active; 'I' for Inactive)
    1  A    between atoms: C_10  and  CA_25
    2  A    between atoms: C_11  and  C_13
    3  A    between atoms: C_11  and  C_20
    4  A    between atoms: C_15  and  C_19
    5  A    between atoms: C_16  and  C_24
    6  A    between atoms: N_17  and  C_19
    7  A    between atoms: C_22  and  C_31
                            x       y       z     vdW  Elec       q    Type
                         _______ _______ _______ _____ _____    ______ ____

>  <TORSDO>
F 7

$$$$
=
 OpenBabel11042423143D

 35 38  0  0  1  0  0  0  0  0999 V2000
  162.4240  210.1390  152.6650 N   0  0  0  0  0  0  0  0  0  0  0  0
  160.5110  208.7720  153.3230 C   0  0  0  0  0  3  0  0  0  0  0  0
  160.7730  207.6820  152.4230 N   0  0  0  0  0  0  0  0  0  0  0  0
  161.6170  209.0830  150.6190 C   0  0  1  0  0  3  0  0  0  0  0  0
  161.5240  206.5500  150.4910 N   0  0  0  0  0  2  0  0  0  0  0  0
  161.2140  209.9170  153.4130 C   0  0  0  0  0  0  0  0  0  0  0  0
  161.2990  207.7530  151.2350 C   0  0  0  0  0  0  0  0  0  0  0  0
  162.6500  209.7720  151.4420 C   0  0  0  0  0  3  0  0  0  0  0  0
  161.3880  210.9070  155.7690 C   0  0  0  0  0  0  0  0  0  0  0  0
  159.7430  213.8270  157.2570 N   0  0  0  0  0  1  0  0  0  0  0  0
  159.9680  211.8910  154.1260 N   0  0  0  0  0  0  0  0  0  0  0  0
  158.6040  213.8870  154.5800 C   0  0  0  0  0  1  0  0  0  0  0  0
  159.5840  212.8490  155.0080 C   0  0  0  0  0  0  0  0  0  0  0  0
  160.9990  211.8680  156.6470 N   0  0  0  0  0  0  0  0  0  0  0  0
  160.8640  210.9180  154.4530 C   0  0  0  0  0  0  0  0  0  0  0  0
  160.1190  212.8410  156.3000 C   0  0  0  0  0  0  0  0  0  0  0  0
  162.2790  209.8890  156.2150 N   0  0  0  0  0  1  0  0  0  0  0  0
  162.0860  208.9640  149.1710 C   0  0  0  0  0  2  0  0  0  0  0  0
  162.1690  211.3550  148.5680 C   0  0  0  0  0  3  0  0  0  0  0  0
  161.6480  210.1410  148.3600 C   0  0  0  0  0  3  0  0  0  0  0  0
  160.4670  212.2970  147.0220 C   0  0  0  0  0  2  0  0  0  0  0  0
  161.4640  213.7450  148.6810 C   0  0  0  0  0  2  0  0  0  0  0  0
  161.7480  212.5590  147.7770 C   0  0  1  0  0  3  0  0  0  0  0  0
  159.5480  213.4340  147.4070 C   0  0  2  0  0  3  0  0  0  0  0  0
  160.0280  213.9910  148.6640 N   0  0  0  0  0  2  0  0  0  0  0  0
  157.5370  213.1310  148.6450 O   0  0  0  0  0  1  0  0  0  0  0  0
  157.5090  212.2970  146.5090 O   0  0  0  0  0  0  0  0  0  0  0  0
  158.1480  212.9450  147.5600 C   0  0  0  0  0  0  0  0  0  0  0  0
  161.2090  205.2310  151.0190 C   0  0  0  0  0  2  0  0  0  0  0  0
  160.8830  202.2940  148.4140 C   0  0  0  0  0  3  0  0  0  0  0  0
  160.6970  202.6470  150.0510 S   0  0  0  0  0  0  0  0  0  0  0  0
  161.1830  204.2440  149.9070 C   0  0  0  0  0  0  0  0  0  0  0  0
  161.3170  203.4740  147.8120 C   0  0  0  0  0  0  0  0  0  0  0  0
  161.5760  203.5570  146.4160 N   0  0  0  0  0  1  0  0  0  0  0  0
  161.4770  204.5510  148.6280 N   0  0  0  0  0  0  0  0  0  0  0  0
  1  6  1  0  0  0  0
  2  6  2  0  0  0  0
  3  2  1  0  0  0  0
  4 18  1  6  0  0  0
  4  7  1  0  0  0  0
  4  8  1  0  0  0  0
  5 29  1  0  0  0  0
  5  7  1  0  0  0  0
  6 15  1  0  0  0  0
  7  3  2  0  0  0  0
  8  1  2  0  0  0  0
  9 17  1  0  0  0  0
  9 14  1  0  0  0  0
 11 15  1  0  0  0  0
 11 13  2  0  0  0  0
 12 13  1  0  0  0  0
 13 16  1  0  0  0  0
 15  9  2  0  0  0  0
 16 14  2  0  0  0  0
 16 10  1  0  0  0  0
 20 19  2  0  0  0  0
 20 18  1  0  0  0  0
 21 24  1  0  0  0  0
 21 23  1  0  0  0  0
 23 19  1  1  0  0  0
 23 22  1  0  0  0  0
 24 28  1  1  0  0  0
 24 25  1  0  0  0  0
 25 22  1  0  0  0  0
 27 28  2  0  0  0  0
 28 26  1  0  0  0  0
 30 31  1  0  0  0  0
 32 31  1  0  0  0  0
 32 29  1  0  0  0  0
 33 30  2  0  0  0  0
 33 35  1  0  0  0  0
 34 33  1  0  0  0  0
 35 32  2  0  0  0  0
M  END
>  <MODEL>
7

>  <REMARK>
 VINA RESULT:      -7.6      3.643      8.637
  Name = 
  7 active torsions:
  status: ('A' for Active; 'I' for Inactive)
    1  A    between atoms: C_10  and  CA_25
    2  A    between atoms: C_11  and  C_13
    3  A    between atoms: C_11  and  C_20
    4  A    between atoms: C_15  and  C_19
    5  A    between atoms: C_16  and  C_24
    6  A    between atoms: N_17  and  C_19
    7  A    between atoms: C_22  and  C_31
                            x       y       z     vdW  Elec       q    Type
                         _______ _______ _______ _____ _____    ______ ____

>  <TORSDO>
F 7

$$$$
=
 OpenBabel11042423143D

 35 38  0  0  1  0  0  0  0  0999 V2000
  162.2350  207.9380  151.0540 N   0  0  0  0  0  0  0  0  0  0  0  0
  161.7300  208.1560  148.6750 C   0  0  0  0  0  3  0  0  0  0  0  0
  162.0620  209.5510  148.5650 N   0  0  0  0  0  0  0  0  0  0  0  0
  161.2380  210.1480  150.7780 C   0  0  1  0  0  3  0  0  0  0  0  0
  162.3350  211.8090  149.2020 N   0  0  0  0  0  2  0  0  0  0  0  0
  161.7500  207.4190  149.8010 C   0  0  0  0  0  0  0  0  0  0  0  0
  161.9080  210.4690  149.4740 C   0  0  0  0  0  0  0  0  0  0  0  0
  162.0490  209.1370  151.5120 C   0  0  0  0  0  3  0  0  0  0  0  0
  161.3240  205.2370  148.5290 C   0  0  0  0  0  0  0  0  0  0  0  0
  160.6070  201.8580  149.7610 N   0  0  0  0  0  1  0  0  0  0  0  0
  161.2800  205.2970  150.9120 N   0  0  0  0  0  0  0  0  0  0  0  0
  160.8310  203.3010  152.2780 C   0  0  0  0  0  1  0  0  0  0  0  0
  161.0060  203.9680  150.9560 C   0  0  0  0  0  0  0  0  0  0  0  0
  161.0500  203.9070  148.5810 N   0  0  0  0  0  0  0  0  0  0  0  0
  161.4560  205.9640  149.7370 C   0  0  0  0  0  0  0  0  0  0  0  0
  160.8940  203.2540  149.7600 C   0  0  0  0  0  0  0  0  0  0  0  0
  161.4290  205.8680  147.2560 N   0  0  0  0  0  1  0  0  0  0  0  0
  161.0190  211.3850  151.6460 C   0  0  0  0  0  2  0  0  0  0  0  0
  160.4820  211.5750  154.0470 C   0  0  0  0  0  3  0  0  0  0  0  0
  160.1880  211.0640  152.8460 C   0  0  0  0  0  3  0  0  0  0  0  0
  159.4500  209.7830  155.4260 C   0  0  0  0  0  2  0  0  0  0  0  0
  160.3890  211.7150  156.5360 C   0  0  0  0  0  2  0  0  0  0  0  0
  159.6730  211.2690  155.2740 C   0  0  1  0  0  3  0  0  0  0  0  0
  159.9080  209.4630  156.8310 C   0  0  2  0  0  3  0  0  0  0  0  0
  160.8080  210.5230  157.2610 N   0  0  0  0  0  2  0  0  0  0  0  0
  159.9420  207.0920  157.0410 O   0  0  0  0  0  1  0  0  0  0  0  0
  161.9840  208.0750  156.6920 O   0  0  0  0  0  0  0  0  0  0  0  0
  160.6060  208.1460  156.8650 C   0  0  0  0  0  0  0  0  0  0  0  0
  162.9630  212.1910  147.9470 C   0  0  0  0  0  2  0  0  0  0  0  0
  160.0380  214.0730  146.0970 C   0  0  0  0  0  3  0  0  0  0  0  0
  160.4390  213.3600  147.5700 S   0  0  0  0  0  0  0  0  0  0  0  0
  161.9670  212.8740  147.0800 C   0  0  0  0  0  0  0  0  0  0  0  0
  161.1480  213.9030  145.2710 C   0  0  0  0  0  0  0  0  0  0  0  0
  161.1750  214.3900  143.9350 N   0  0  0  0  0  1  0  0  0  0  0  0
  162.2130  213.2510  145.8100 N   0  0  0  0  0  0  0  0  0  0  0  0
  1  8  2  0  0  0  0
  2  6  2  0  0  0  0
  3  2  1  0  0  0  0
  3  7  2  0  0  0  0
  4  8  1  0  0  0  0
  4 18  1  1  0  0  0
  5  7  1  0  0  0  0
  6  1  1  0  0  0  0
  7  4  1  0  0  0  0
  9 14  2  0  0  0  0
  9 15  1  0  0  0  0
 11 13  1  0  0  0  0
 13 12  1  0  0  0  0
 14 16  1  0  0  0  0
 15  6  1  0  0  0  0
 15 11  2  0  0  0  0
 16 10  1  0  0  0  0
 16 13  2  0  0  0  0
 17  9  1  0  0  0  0
 18 20  1  0  0  0  0
 20 19  2  0  0  0  0
 21 24  1  0  0  0  0
 22 25  1  0  0  0  0
 23 19  1  6  0  0  0
 23 21  1  0  0  0  0
 23 22  1  0  0  0  0
 24 28  1  6  0  0  0
 24 25  1  0  0  0  0
 27 28  2  0  0  0  0
 28 26  1  0  0  0  0
 29  5  1  0  0  0  0
 30 31  1  0  0  0  0
 32 31  1  0  0  0  0
 32 29  1  0  0  0  0
 33 35  1  0  0  0  0
 33 30  2  0  0  0  0
 34 33  1  0  0  0  0
 35 32  2  0  0  0  0
M  END
>  <MODEL>
8

>  <REMARK>
 VINA RESULT:      -7.2      1.347      1.924
  Name = 
  7 active torsions:
  status: ('A' for Active; 'I' for Inactive)
    1  A    between atoms: C_10  and  CA_25
    2  A    between atoms: C_11  and  C_13
    3  A    between atoms: C_11  and  C_20
    4  A    between atoms: C_15  and  C_19
    5  A    between atoms: C_16  and  C_24
    6  A    between atoms: N_17  and  C_19
    7  A    between atoms: C_22  and  C_31
                            x       y       z     vdW  Elec       q    Type
                         _______ _______ _______ _____ _____    ______ ____

>  <TORSDO>
F 7

$$$$
=
 OpenBabel11042423143D

 35 38  0  0  1  0  0  0  0  0999 V2000
  162.3150  210.1750  152.4440 N   0  0  0  0  0  0  0  0  0  0  0  0
  160.4410  208.7280  153.0400 C   0  0  0  0  0  3  0  0  0  0  0  0
  160.7190  207.6960  152.0780 N   0  0  0  0  0  0  0  0  0  0  0  0
  161.5130  209.2160  150.3490 C   0  0  1  0  0  3  0  0  0  0  0  0
  161.4780  206.6920  150.0800 N   0  0  0  0  0  2  0  0  0  0  0  0
  161.1180  209.8820  153.1880 C   0  0  0  0  0  0  0  0  0  0  0  0
  161.2320  207.8450  150.8920 C   0  0  0  0  0  0  0  0  0  0  0  0
  162.5380  209.8820  151.2000 C   0  0  0  0  0  3  0  0  0  0  0  0
  161.1910  210.6680  155.6250 C   0  0  0  0  0  0  0  0  0  0  0  0
  159.6090  213.5500  157.2510 N   0  0  0  0  0  1  0  0  0  0  0  0
  159.9350  211.8620  153.9880 N   0  0  0  0  0  0  0  0  0  0  0  0
  158.6520  213.8910  154.5240 C   0  0  0  0  0  1  0  0  0  0  0  0
  159.5460  212.7660  154.9220 C   0  0  0  0  0  0  0  0  0  0  0  0
  160.7970  211.5770  156.5560 N   0  0  0  0  0  0  0  0  0  0  0  0
  160.7550  210.8150  154.2860 C   0  0  0  0  0  0  0  0  0  0  0  0
  159.9940  212.6240  156.2390 C   0  0  0  0  0  0  0  0  0  0  0  0
  161.9960  209.5680  156.0380 N   0  0  0  0  0  1  0  0  0  0  0  0
  161.9710  209.1880  148.8920 C   0  0  0  0  0  2  0  0  0  0  0  0
  161.5530  211.6200  148.8680 C   0  0  0  0  0  3  0  0  0  0  0  0
  162.2180  210.5690  148.3760 C   0  0  0  0  0  3  0  0  0  0  0  0
  162.7010  213.0350  147.1770 C   0  0  0  0  0  2  0  0  0  0  0  0
  160.4740  213.6470  147.8930 C   0  0  0  0  0  2  0  0  0  0  0  0
  161.7720  213.0180  148.3680 C   0  0  1  0  0  3  0  0  0  0  0  0
  161.9560  213.8090  146.1140 C   0  0  2  0  0  3  0  0  0  0  0  0
  160.5380  213.7730  146.4440 N   0  0  0  0  0  2  0  0  0  0  0  0
  163.3630  212.9570  144.3930 O   0  0  0  0  0  1  0  0  0  0  0  0
  161.1170  212.9090  143.9360 O   0  0  0  0  0  0  0  0  0  0  0  0
  162.1890  213.2070  144.7700 C   0  0  0  0  0  0  0  0  0  0  0  0
  161.1990  205.3380  150.5360 C   0  0  0  0  0  2  0  0  0  0  0  0
  161.4440  203.2840  147.1840 C   0  0  0  0  0  3  0  0  0  0  0  0
  161.5930  204.8440  147.8010 S   0  0  0  0  0  0  0  0  0  0  0  0
  161.2060  204.4110  149.3740 C   0  0  0  0  0  0  0  0  0  0  0  0
  161.0990  202.4730  148.2640 C   0  0  0  0  0  0  0  0  0  0  0  0
  160.8930  201.0730  148.1200 N   0  0  0  0  0  1  0  0  0  0  0  0
  160.9750  203.0870  149.4710 N   0  0  0  0  0  0  0  0  0  0  0  0
  1  6  1  0  0  0  0
  2  6  2  0  0  0  0
  3  2  1  0  0  0  0
  4 18  1  6  0  0  0
  4  7  1  0  0  0  0
  4  8  1  0  0  0  0
  5 29  1  0  0  0  0
  5  7  1  0  0  0  0
  6 15  1  0  0  0  0
  7  3  2  0  0  0  0
  8  1  2  0  0  0  0
  9 17  1  0  0  0  0
  9 14  1  0  0  0  0
 11 15  1  0  0  0  0
 11 13  2  0  0  0  0
 12 13  1  0  0  0  0
 13 16  1  0  0  0  0
 15  9  2  0  0  0  0
 16 14  2  0  0  0  0
 16 10  1  0  0  0  0
 20 19  2  0  0  0  0
 20 18  1  0  0  0  0
 21 23  1  0  0  0  0
 22 23  1  0  0  0  0
 23 19  1  6  0  0  0
 24 28  1  6  0  0  0
 24 25  1  0  0  0  0
 24 21  1  0  0  0  0
 25 22  1  0  0  0  0
 26 28  1  0  0  0  0
 27 28  2  0  0  0  0
 30 31  1  0  0  0  0
 30 33  2  0  0  0  0
 31 32  1  0  0  0  0
 32 35  2  0  0  0  0
 32 29  1  0  0  0  0
 33 35  1  0  0  0  0
 34 33  1  0  0  0  0
M  END
>  <MODEL>
9

>  <REMARK>
 VINA RESULT:      -7.2      3.974      9.036
  Name = 
  7 active torsions:
  status: ('A' for Active; 'I' for Inactive)
    1  A    between atoms: C_10  and  CA_25
    2  A    between atoms: C_11  and  C_13
    3  A    between atoms: C_11  and  C_20
    4  A    between atoms: C_15  and  C_19
    5  A    between atoms: C_16  and  C_24
    6  A    between atoms: N_17  and  C_19
    7  A    between atoms: C_22  and  C_31
                            x       y       z     vdW  Elec       q    Type
                         _______ _______ _______ _____ _____    ______ ____

>  <TORSDO>
F 7

$$$$
