=
 OpenBabel11052409283D

 35 38  0  0  1  0  0  0  0  0999 V2000
  161.1520  208.2100  152.5360 O   0  0  0  0  0  0  0  0  0  0  0  0
  162.5030  206.2470  152.1310 C   0  0  1  0  0  3  0  0  0  0  0  0
  159.9960  205.9670  150.6390 S   0  0  0  0  0  0  0  0  0  0  0  0
  161.6390  203.9930  151.5800 N   0  0  0  0  0  2  0  0  0  0  0  0
  162.3520  207.7540  151.9580 C   0  0  1  0  0  3  0  0  0  0  0  0
  160.2460  204.4870  149.5910 C   0  0  2  0  0  3  0  0  0  0  0  0
  161.2050  202.3160  150.0170 O   0  0  0  0  0  0  0  0  0  0  0  0
  161.4670  205.9070  153.1850 C   0  0  1  0  0  3  0  0  0  0  0  0
  161.0500  203.5090  150.3870 C   0  0  0  0  0  0  0  0  0  0  0  0
  160.7110  207.2050  153.4190 C   0  0  1  0  0  3  0  0  0  0  0  0
  161.3050  205.3820  151.7740 C   0  0  1  0  0  0  0  0  0  0  0  0
  161.5090  206.1240  146.4680 N   0  0  0  0  0  0  0  0  0  0  0  0
  160.9620  204.8790  148.3370 C   0  0  0  0  0  0  0  0  0  0  0  0
  162.2560  205.0150  146.2780 C   0  0  0  0  0  0  0  0  0  0  0  0
  162.0470  203.8950  147.5130 S   0  0  0  0  0  0  0  0  0  0  0  0
  163.1480  204.8210  145.1050 C   0  0  0  0  0  1  0  0  0  0  0  0
  160.7770  206.0550  147.6130 C   0  0  0  0  0  3  0  0  0  0  0  0
  162.0700  210.4200  151.0770 O   0  0  0  0  0  0  0  0  0  0  0  0
  162.4920  208.1800  150.5570 N   0  0  0  0  0  0  0  0  0  0  0  0
  162.1610  209.5370  150.1830 C   0  0  0  0  0  0  0  0  0  0  0  0
  162.9240  207.2130  149.5530 C   0  0  0  0  0  1  0  0  0  0  0  0
  161.9210  209.9490  148.7790 C   0  0  0  0  0  0  0  0  0  0  0  0
  161.4650  209.1060  147.9620 O   0  0  0  0  0  0  0  0  0  0  0  0
  162.2730  211.3150  148.2700 C   0  0  0  0  0  2  0  0  0  0  0  0
  160.9320  213.2220  149.0420 N   0  0  0  0  0  1  0  0  0  0  0  0
  161.0500  212.1970  148.0170 C   0  0  1  0  0  3  0  0  0  0  0  0
  160.1010  212.2620  145.8260 O   0  0  0  0  0  1  0  0  0  0  0  0
  161.0880  212.8270  146.6340 C   0  0  0  0  0  2  0  0  0  0  0  0
  160.8640  207.6530  154.8350 C   0  0  0  0  0  0  0  0  0  0  0  0
  161.4430  208.9320  155.1250 N   0  0  0  0  0  2  0  0  0  0  0  0
  160.4950  206.8900  155.7670 O   0  0  0  0  0  0  0  0  0  0  0  0
  162.4780  210.7170  156.3900 C   0  0  0  0  0  1  0  0  0  0  0  0
  162.2980  208.5190  157.2600 O   0  0  0  0  0  1  0  0  0  0  0  0
  161.6370  209.4600  156.4700 C   0  0  0  0  0  0  0  0  0  0  0  0
  160.2990  209.8040  157.0990 C   0  0  0  0  0  1  0  0  0  0  0  0
  1 10  1  0  0  0  0
  2  8  1  0  0  0  0
  3 11  1  0  0  0  0
  4 11  1  0  0  0  0
  5  2  1  0  0  0  0
  5  1  1  0  0  0  0
  6  9  1  0  0  0  0
  6  3  1  0  0  0  0
  7  9  2  0  0  0  0
  8 10  1  0  0  0  0
  9  4  1  0  0  0  0
 10 29  1  0  0  0  0
 11  2  1  0  0  0  0
 11  8  1  0  0  0  0
 12 17  1  0  0  0  0
 13  6  1  0  0  0  0
 14 12  2  0  0  0  0
 14 15  1  0  0  0  0
 15 13  1  0  0  0  0
 16 14  1  0  0  0  0
 17 13  2  0  0  0  0
 19  5  1  0  0  0  0
 20 19  1  0  0  0  0
 20 18  2  0  0  0  0
 21 19  1  0  0  0  0
 22 20  1  0  0  0  0
 23 22  2  0  0  0  0
 24 22  1  0  0  0  0
 26 24  1  0  0  0  0
 26 25  1  0  0  0  0
 27 28  1  0  0  0  0
 28 26  1  0  0  0  0
 29 30  1  0  0  0  0
 29 31  2  0  0  0  0
 30 34  1  0  0  0  0
 32 34  1  0  0  0  0
 34 35  1  0  0  0  0
 34 33  1  0  0  0  0
M  END
>  <MODEL>
1

>  <REMARK>
 VINA RESULT:      -5.9      0.000      0.000
  Name = 
  8 active torsions:
  status: ('A' for Active; 'I' for Inactive)
    1  A    between atoms: N_4  and  C_11
    2  A    between atoms: C_10  and  CA_30
    3  A    between atoms: C_12  and  C_19
    4  A    between atoms: C_12  and  C_29
    5  A    between atoms: C_14  and  C_15
    6  A    between atoms: C_20  and  C_22
    7  A    between atoms: N_23  and  C_26
    8  A    between atoms: C_29  and  CA_30
                            x       y       z     vdW  Elec       q    Type
                         _______ _______ _______ _____ _____    ______ ____

>  <TORSDO>
F 8

$$$$
=
 OpenBabel11052409283D

 35 38  0  0  1  0  0  0  0  0999 V2000
  160.5130  207.6930  151.2970 O   0  0  0  0  0  0  0  0  0  0  0  0
  162.4860  206.2980  151.2520 C   0  0  1  0  0  3  0  0  0  0  0  0
  160.1330  204.5640  151.4660 S   0  0  0  0  0  0  0  0  0  0  0  0
  162.6920  204.0600  152.2920 N   0  0  0  0  0  2  0  0  0  0  0  0
  161.6000  207.2850  150.5000 C   0  0  1  0  0  3  0  0  0  0  0  0
  160.7880  202.8690  151.2440 C   0  0  2  0  0  3  0  0  0  0  0  0
  162.7360  201.7350  152.1030 O   0  0  0  0  0  0  0  0  0  0  0  0
  162.0350  206.4430  152.6920 C   0  0  1  0  0  3  0  0  0  0  0  0
  162.1290  202.8200  151.9040 C   0  0  0  0  0  0  0  0  0  0  0  0
  160.8370  207.3780  152.6310 C   0  0  1  0  0  3  0  0  0  0  0  0
  161.7980  205.1410  151.9570 C   0  0  1  0  0  0  0  0  0  0  0  0
  161.1680  202.9340  147.5190 N   0  0  0  0  0  0  0  0  0  0  0  0
  160.8960  202.5620  149.7830 C   0  0  0  0  0  0  0  0  0  0  0  0
  160.8170  201.6300  147.5350 C   0  0  0  0  0  0  0  0  0  0  0  0
  160.5370  201.0720  149.0940 S   0  0  0  0  0  0  0  0  0  0  0  0
  160.6900  200.8010  146.3070 C   0  0  0  0  0  1  0  0  0  0  0  0
  161.2090  203.4660  148.7700 C   0  0  0  0  0  3  0  0  0  0  0  0
  163.2620  207.1630  148.2230 O   0  0  0  0  0  0  0  0  0  0  0  0
  161.1690  206.7740  149.1890 N   0  0  0  0  0  0  0  0  0  0  0  0
  162.0400  206.9120  148.0440 C   0  0  0  0  0  0  0  0  0  0  0  0
  159.8470  206.1720  149.0540 C   0  0  0  0  0  1  0  0  0  0  0  0
  161.5630  206.7690  146.6480 C   0  0  0  0  0  0  0  0  0  0  0  0
  160.5540  207.4240  146.2740 O   0  0  0  0  0  0  0  0  0  0  0  0
  162.1890  205.8130  145.6770 C   0  0  0  0  0  2  0  0  0  0  0  0
  161.7410  205.7140  143.2640 N   0  0  0  0  0  1  0  0  0  0  0  0
  161.2290  205.3560  144.5780 C   0  0  1  0  0  3  0  0  0  0  0  0
  159.6450  203.5960  144.2570 O   0  0  0  0  0  1  0  0  0  0  0  0
  160.9560  203.8620  144.6560 C   0  0  0  0  0  2  0  0  0  0  0  0
  161.1040  208.6230  153.4100 C   0  0  0  0  0  0  0  0  0  0  0  0
  161.3190  208.5530  154.8250 N   0  0  0  0  0  2  0  0  0  0  0  0
  161.1220  209.7320  152.8130 O   0  0  0  0  0  0  0  0  0  0  0  0
  160.2740  210.3830  156.0160 C   0  0  0  0  0  1  0  0  0  0  0  0
  162.4030  210.6150  155.0010 O   0  0  0  0  0  1  0  0  0  0  0  0
  161.5850  209.7080  155.6750 C   0  0  0  0  0  0  0  0  0  0  0  0
  162.2610  209.2700  156.9610 C   0  0  0  0  0  1  0  0  0  0  0  0
  1 10  1  0  0  0  0
  2 11  1  0  0  0  0
  2  8  1  0  0  0  0
  3 11  1  0  0  0  0
  5  2  1  0  0  0  0
  5  1  1  0  0  0  0
  6  3  1  0  0  0  0
  6  9  1  0  0  0  0
  9  7  2  0  0  0  0
  9  4  1  0  0  0  0
 10  8  1  0  0  0  0
 10 29  1  0  0  0  0
 11  4  1  0  0  0  0
 11  8  1  0  0  0  0
 12 14  2  0  0  0  0
 12 17  1  0  0  0  0
 13  6  1  0  0  0  0
 14 15  1  0  0  0  0
 15 13  1  0  0  0  0
 16 14  1  0  0  0  0
 17 13  2  0  0  0  0
 19  5  1  0  0  0  0
 20 18  2  0  0  0  0
 20 19  1  0  0  0  0
 21 19  1  0  0  0  0
 22 20  1  0  0  0  0
 23 22  2  0  0  0  0
 24 22  1  0  0  0  0
 25 26  1  0  0  0  0
 26 28  1  0  0  0  0
 26 24  1  0  0  0  0
 27 28  1  0  0  0  0
 29 30  1  0  0  0  0
 30 34  1  0  0  0  0
 31 29  2  0  0  0  0
 33 34  1  0  0  0  0
 34 32  1  0  0  0  0
 34 35  1  0  0  0  0
M  END
>  <MODEL>
2

>  <REMARK>
 VINA RESULT:      -4.4      2.778      4.017
  Name = 
  8 active torsions:
  status: ('A' for Active; 'I' for Inactive)
    1  A    between atoms: N_4  and  C_11
    2  A    between atoms: C_10  and  CA_30
    3  A    between atoms: C_12  and  C_19
    4  A    between atoms: C_12  and  C_29
    5  A    between atoms: C_14  and  C_15
    6  A    between atoms: C_20  and  C_22
    7  A    between atoms: N_23  and  C_26
    8  A    between atoms: C_29  and  CA_30
                            x       y       z     vdW  Elec       q    Type
                         _______ _______ _______ _____ _____    ______ ____

>  <TORSDO>
F 8

$$$$
=
 OpenBabel11052409283D

 35 38  0  0  1  0  0  0  0  0999 V2000
  161.5420  205.8460  152.9940 O   0  0  0  0  0  0  0  0  0  0  0  0
  160.2990  207.2700  151.4880 C   0  0  1  0  0  3  0  0  0  0  0  0
  163.0050  206.9280  150.4150 S   0  0  0  0  0  0  0  0  0  0  0  0
  161.2730  209.0070  150.0160 N   0  0  0  0  0  2  0  0  0  0  0  0
  160.4490  205.8850  152.1070 C   0  0  1  0  0  3  0  0  0  0  0  0
  162.9390  207.6810  148.7480 C   0  0  2  0  0  3  0  0  0  0  0  0
  161.9630  209.7190  147.9040 O   0  0  0  0  0  0  0  0  0  0  0  0
  161.1710  208.1460  152.3650 C   0  0  1  0  0  3  0  0  0  0  0  0
  162.0420  208.8740  148.8340 C   0  0  0  0  0  0  0  0  0  0  0  0
  161.8630  207.1800  153.3140 C   0  0  1  0  0  3  0  0  0  0  0  0
  161.5510  207.9170  150.9170 C   0  0  1  0  0  0  0  0  0  0  0  0
  162.3350  204.7670  146.4740 N   0  0  0  0  0  0  0  0  0  0  0  0
  162.4110  206.6800  147.7680 C   0  0  0  0  0  0  0  0  0  0  0  0
  161.2670  205.4490  146.0060 C   0  0  0  0  0  0  0  0  0  0  0  0
  161.0760  206.9280  146.7790 S   0  0  0  0  0  0  0  0  0  0  0  0
  160.3790  204.9390  144.9280 C   0  0  0  0  0  1  0  0  0  0  0  0
  162.9840  205.4490  147.4550 C   0  0  0  0  0  3  0  0  0  0  0  0
  160.4650  203.1300  152.7160 O   0  0  0  0  0  0  0  0  0  0  0  0
  160.5120  204.8170  151.0980 N   0  0  0  0  0  0  0  0  0  0  0  0
  160.6880  203.4440  151.5160 C   0  0  0  0  0  0  0  0  0  0  0  0
  160.4390  205.1630  149.6830 C   0  0  0  0  0  1  0  0  0  0  0  0
  161.1220  202.3700  150.5920 C   0  0  0  0  0  0  0  0  0  0  0  0
  162.2620  201.8550  150.7420 O   0  0  0  0  0  0  0  0  0  0  0  0
  160.2870  201.9210  149.4310 C   0  0  0  0  0  2  0  0  0  0  0  0
  161.5060  200.2040  148.1670 N   0  0  0  0  0  1  0  0  0  0  0  0
  161.1120  201.6040  148.1830 C   0  0  1  0  0  3  0  0  0  0  0  0
  160.7270  201.0910  145.8810 O   0  0  0  0  0  1  0  0  0  0  0  0
  160.3640  201.9620  146.9080 C   0  0  0  0  0  2  0  0  0  0  0  0
  161.4930  207.4800  154.7290 C   0  0  0  0  0  0  0  0  0  0  0  0
  161.1790  208.8230  155.1200 N   0  0  0  0  0  2  0  0  0  0  0  0
  161.4770  206.5450  155.5730 O   0  0  0  0  0  0  0  0  0  0  0  0
  162.0650  209.5240  157.2610 C   0  0  0  0  0  1  0  0  0  0  0  0
  160.1170  208.1820  157.1010 O   0  0  0  0  0  1  0  0  0  0  0  0
  160.8080  209.2190  156.4730 C   0  0  0  0  0  0  0  0  0  0  0  0
  159.9380  210.4620  156.4380 C   0  0  0  0  0  1  0  0  0  0  0  0
  1 10  1  0  0  0  0
  2  5  1  0  0  0  0
  2  8  1  0  0  0  0
  3 11  1  0  0  0  0
  4 11  1  0  0  0  0
  5  1  1  0  0  0  0
  6  9  1  0  0  0  0
  6  3  1  0  0  0  0
  7  9  2  0  0  0  0
  8 10  1  0  0  0  0
  9  4  1  0  0  0  0
 10 29  1  0  0  0  0
 11  2  1  0  0  0  0
 11  8  1  0  0  0  0
 12 17  1  0  0  0  0
 13  6  1  0  0  0  0
 14 12  2  0  0  0  0
 14 15  1  0  0  0  0
 15 13  1  0  0  0  0
 16 14  1  0  0  0  0
 17 13  2  0  0  0  0
 19 20  1  0  0  0  0
 19  5  1  0  0  0  0
 20 18  2  0  0  0  0
 21 19  1  0  0  0  0
 22 23  2  0  0  0  0
 22 20  1  0  0  0  0
 24 22  1  0  0  0  0
 25 26  1  0  0  0  0
 26 24  1  0  0  0  0
 27 28  1  0  0  0  0
 28 26  1  0  0  0  0
 29 30  1  0  0  0  0
 29 31  2  0  0  0  0
 30 34  1  0  0  0  0
 34 33  1  0  0  0  0
 34 32  1  0  0  0  0
 35 34  1  0  0  0  0
M  END
>  <MODEL>
3

>  <REMARK>
 VINA RESULT:      -3.4      2.118      5.589
  Name = 
  8 active torsions:
  status: ('A' for Active; 'I' for Inactive)
    1  A    between atoms: N_4  and  C_11
    2  A    between atoms: C_10  and  CA_30
    3  A    between atoms: C_12  and  C_19
    4  A    between atoms: C_12  and  C_29
    5  A    between atoms: C_14  and  C_15
    6  A    between atoms: C_20  and  C_22
    7  A    between atoms: N_23  and  C_26
    8  A    between atoms: C_29  and  CA_30
                            x       y       z     vdW  Elec       q    Type
                         _______ _______ _______ _____ _____    ______ ____

>  <TORSDO>
F 8

$$$$
=
 OpenBabel11052409283D

 35 38  0  0  1  0  0  0  0  0999 V2000
  162.0720  208.1780  151.3640 O   0  0  0  0  0  0  0  0  0  0  0  0
  160.0740  207.8860  152.6930 C   0  0  1  0  0  3  0  0  0  0  0  0
  162.3650  208.1160  154.5060 S   0  0  0  0  0  0  0  0  0  0  0  0
  159.9790  206.8520  154.9410 N   0  0  0  0  0  2  0  0  0  0  0  0
  160.8470  208.7730  151.7230 C   0  0  1  0  0  3  0  0  0  0  0  0
  161.6230  208.2360  156.1750 C   0  0  2  0  0  3  0  0  0  0  0  0
  159.8210  207.0560  157.2600 O   0  0  0  0  0  0  0  0  0  0  0  0
  160.7800  206.5480  152.5880 C   0  0  1  0  0  3  0  0  0  0  0  0
  160.4200  207.3480  156.1920 C   0  0  0  0  0  0  0  0  0  0  0  0
  161.9790  206.8110  151.6920 C   0  0  1  0  0  3  0  0  0  0  0  0
  160.8360  207.3290  153.8850 C   0  0  1  0  0  0  0  0  0  0  0  0
  161.4880  211.8630  157.1000 N   0  0  0  0  0  0  0  0  0  0  0  0
  161.2460  209.6580  156.4520 C   0  0  0  0  0  0  0  0  0  0  0  0
  160.1520  211.7820  156.9250 C   0  0  0  0  0  0  0  0  0  0  0  0
  159.6710  210.2440  156.4500 S   0  0  0  0  0  0  0  0  0  0  0  0
  159.2270  212.9260  157.1400 C   0  0  0  0  0  1  0  0  0  0  0  0
  162.1080  210.6800  156.8440 C   0  0  0  0  0  3  0  0  0  0  0  0
  158.7500  210.3590  152.7500 O   0  0  0  0  0  0  0  0  0  0  0  0
  161.0190  210.1450  152.2240 N   0  0  0  0  0  0  0  0  0  0  0  0
  159.8580  210.9340  152.5690 C   0  0  0  0  0  0  0  0  0  0  0  0
  162.3610  210.7080  152.3270 C   0  0  0  0  0  1  0  0  0  0  0  0
  159.9030  212.4070  152.7270 C   0  0  0  0  0  0  0  0  0  0  0  0
  159.8880  212.9000  153.8860 O   0  0  0  0  0  0  0  0  0  0  0  0
  159.8860  213.3430  151.5560 C   0  0  0  0  0  2  0  0  0  0  0  0
  157.4870  213.7690  151.2500 N   0  0  0  0  0  1  0  0  0  0  0  0
  158.6650  213.1590  150.6550 C   0  0  1  0  0  3  0  0  0  0  0  0
  160.2450  214.0870  149.1220 O   0  0  0  0  0  1  0  0  0  0  0  0
  158.9070  213.7150  149.2600 C   0  0  0  0  0  2  0  0  0  0  0  0
  161.8990  205.9830  150.4520 C   0  0  0  0  0  0  0  0  0  0  0  0
  161.6690  206.6100  149.1840 N   0  0  0  0  0  2  0  0  0  0  0  0
  162.0190  204.7320  150.5380 O   0  0  0  0  0  0  0  0  0  0  0  0
  161.2250  204.4450  148.1950 C   0  0  0  0  0  1  0  0  0  0  0  0
  162.7950  205.9460  147.2460 O   0  0  0  0  0  1  0  0  0  0  0  0
  161.5730  205.8920  147.9180 C   0  0  0  0  0  0  0  0  0  0  0  0
  160.4870  206.5000  147.0500 C   0  0  0  0  0  1  0  0  0  0  0  0
  1 10  1  0  0  0  0
  1  5  1  0  0  0  0
  2 11  1  0  0  0  0
  3  6  1  0  0  0  0
  4  9  1  0  0  0  0
  5 19  1  0  0  0  0
  5  2  1  0  0  0  0
  6  9  1  0  0  0  0
  6 13  1  0  0  0  0
  8  2  1  0  0  0  0
  8 11  1  0  0  0  0
  9  7  2  0  0  0  0
 10  8  1  0  0  0  0
 11  3  1  0  0  0  0
 11  4  1  0  0  0  0
 13 17  2  0  0  0  0
 14 12  2  0  0  0  0
 14 16  1  0  0  0  0
 15 13  1  0  0  0  0
 15 14  1  0  0  0  0
 17 12  1  0  0  0  0
 19 21  1  0  0  0  0
 19 20  1  0  0  0  0
 20 22  1  0  0  0  0
 20 18  2  0  0  0  0
 22 23  2  0  0  0  0
 24 22  1  0  0  0  0
 26 25  1  0  0  0  0
 26 24  1  0  0  0  0
 27 28  1  0  0  0  0
 28 26  1  0  0  0  0
 29 31  2  0  0  0  0
 29 10  1  0  0  0  0
 30 29  1  0  0  0  0
 33 34  1  0  0  0  0
 34 32  1  0  0  0  0
 34 30  1  0  0  0  0
 35 34  1  0  0  0  0
M  END
>  <MODEL>
4

>  <REMARK>
 VINA RESULT:      -3.2      2.931      7.255
  Name = 
  8 active torsions:
  status: ('A' for Active; 'I' for Inactive)
    1  A    between atoms: N_4  and  C_11
    2  A    between atoms: C_10  and  CA_30
    3  A    between atoms: C_12  and  C_19
    4  A    between atoms: C_12  and  C_29
    5  A    between atoms: C_14  and  C_15
    6  A    between atoms: C_20  and  C_22
    7  A    between atoms: N_23  and  C_26
    8  A    between atoms: C_29  and  CA_30
                            x       y       z     vdW  Elec       q    Type
                         _______ _______ _______ _____ _____    ______ ____

>  <TORSDO>
F 8

$$$$
=
 OpenBabel11052409283D

 35 38  0  0  1  0  0  0  0  0999 V2000
  161.7810  209.5470  151.2530 O   0  0  0  0  0  0  0  0  0  0  0  0
  160.1310  208.5210  152.6900 C   0  0  1  0  0  3  0  0  0  0  0  0
  162.3830  209.3960  154.3480 S   0  0  0  0  0  0  0  0  0  0  0  0
  160.6000  207.3800  154.8370 N   0  0  0  0  0  2  0  0  0  0  0  0
  160.4700  209.6730  151.7510 C   0  0  1  0  0  3  0  0  0  0  0  0
  161.8080  209.1580  156.0690 C   0  0  2  0  0  3  0  0  0  0  0  0
  160.6100  207.3780  157.1700 O   0  0  0  0  0  0  0  0  0  0  0  0
  161.2240  207.5070  152.4150 C   0  0  1  0  0  3  0  0  0  0  0  0
  160.9730  207.9180  156.0930 C   0  0  0  0  0  0  0  0  0  0  0  0
  162.1770  208.2110  151.4630 C   0  0  1  0  0  3  0  0  0  0  0  0
  161.1460  208.1810  153.7690 C   0  0  1  0  0  0  0  0  0  0  0  0
  159.1720  211.6030  157.1190 N   0  0  0  0  0  0  0  0  0  0  0  0
  161.0130  210.3510  156.5000 C   0  0  0  0  0  0  0  0  0  0  0  0
  160.1200  212.5590  157.0080 C   0  0  0  0  0  0  0  0  0  0  0  0
  161.6050  211.9240  156.5450 S   0  0  0  0  0  0  0  0  0  0  0  0
  159.8610  214.0010  157.2610 C   0  0  0  0  0  1  0  0  0  0  0  0
  159.6600  210.3670  156.8320 C   0  0  0  0  0  3  0  0  0  0  0  0
  158.5390  210.1640  153.7490 O   0  0  0  0  0  0  0  0  0  0  0  0
  160.2290  210.9900  152.3600 N   0  0  0  0  0  0  0  0  0  0  0  0
  159.1040  211.1740  153.2490 C   0  0  0  0  0  0  0  0  0  0  0  0
  161.1050  212.1070  152.0230 C   0  0  0  0  0  1  0  0  0  0  0  0
  158.5740  212.5100  153.6120 C   0  0  0  0  0  0  0  0  0  0  0  0
  159.3720  213.3960  154.0190 O   0  0  0  0  0  0  0  0  0  0  0  0
  157.1100  212.8290  153.5880 C   0  0  0  0  0  2  0  0  0  0  0  0
  155.4500  213.9950  154.9730 N   0  0  0  0  0  1  0  0  0  0  0  0
  156.5070  212.9960  154.9840 C   0  0  1  0  0  3  0  0  0  0  0  0
  155.2060  211.0350  154.5710 O   0  0  0  0  0  1  0  0  0  0  0  0
  155.9880  211.6760  155.5320 C   0  0  0  0  0  2  0  0  0  0  0  0
  162.2530  207.4810  150.1630 C   0  0  0  0  0  0  0  0  0  0  0  0
  161.2850  206.4730  149.8480 N   0  0  0  0  0  2  0  0  0  0  0  0
  163.1850  207.7500  149.3580 O   0  0  0  0  0  0  0  0  0  0  0  0
  161.1160  204.2340  148.9410 C   0  0  0  0  0  1  0  0  0  0  0  0
  162.4730  205.8890  147.9210 O   0  0  0  0  0  1  0  0  0  0  0  0
  161.2730  205.7030  148.6090 C   0  0  0  0  0  0  0  0  0  0  0  0
  160.1120  206.1350  147.7330 C   0  0  0  0  0  1  0  0  0  0  0  0
  1 10  1  0  0  0  0
  1  5  1  0  0  0  0
  2 11  1  0  0  0  0
  3  6  1  0  0  0  0
  4  9  1  0  0  0  0
  5 19  1  0  0  0  0
  5  2  1  0  0  0  0
  6  9  1  0  0  0  0
  6 13  1  0  0  0  0
  8  2  1  0  0  0  0
  8 11  1  0  0  0  0
  9  7  2  0  0  0  0
 10  8  1  0  0  0  0
 11  3  1  0  0  0  0
 11  4  1  0  0  0  0
 13 15  1  0  0  0  0
 13 17  2  0  0  0  0
 14 12  2  0  0  0  0
 14 16  1  0  0  0  0
 15 14  1  0  0  0  0
 17 12  1  0  0  0  0
 19 20  1  0  0  0  0
 20 22  1  0  0  0  0
 20 18  2  0  0  0  0
 21 19  1  0  0  0  0
 22 23  2  0  0  0  0
 24 22  1  0  0  0  0
 24 26  1  0  0  0  0
 25 26  1  0  0  0  0
 26 28  1  0  0  0  0
 27 28  1  0  0  0  0
 29 10  1  0  0  0  0
 30 29  1  0  0  0  0
 31 29  2  0  0  0  0
 33 34  1  0  0  0  0
 34 32  1  0  0  0  0
 34 30  1  0  0  0  0
 35 34  1  0  0  0  0
M  END
>  <MODEL>
5

>  <REMARK>
 VINA RESULT:      -3.1      3.735      8.072
  Name = 
  8 active torsions:
  status: ('A' for Active; 'I' for Inactive)
    1  A    between atoms: N_4  and  C_11
    2  A    between atoms: C_10  and  CA_30
    3  A    between atoms: C_12  and  C_19
    4  A    between atoms: C_12  and  C_29
    5  A    between atoms: C_14  and  C_15
    6  A    between atoms: C_20  and  C_22
    7  A    between atoms: N_23  and  C_26
    8  A    between atoms: C_29  and  CA_30
                            x       y       z     vdW  Elec       q    Type
                         _______ _______ _______ _____ _____    ______ ____

>  <TORSDO>
F 8

$$$$
