=
 OpenBabel11052409453D

 31 36  0  0  1  0  0  0  0  0999 V2000
  160.9750  201.5260  147.3360 C   0  0  0  0  0  3  0  0  0  0  0  0
  161.5040  204.5090  147.8920 C   0  0  0  0  0  0  0  0  0  0  0  0
  161.3460  207.6470  150.6170 C   0  0  0  0  0  0  0  0  0  0  0  0
  160.7320  201.6660  148.6430 C   0  0  0  0  0  3  0  0  0  0  0  0
  160.9720  202.5950  146.2860 C   0  0  0  0  0  3  0  0  0  0  0  0
  161.9210  208.6090  149.8920 C   0  0  0  0  0  2  0  0  0  0  0  0
  160.7990  205.1570  150.1080 C   0  0  0  0  0  3  0  0  0  0  0  0
  161.6220  203.8730  146.6840 C   0  0  0  0  0  0  0  0  0  0  0  0
  162.0140  205.7630  147.6560 C   0  0  0  0  0  0  0  0  0  0  0  0
  162.2080  204.7050  145.8400 O   0  0  0  0  0  0  0  0  0  0  0  0
  161.9300  206.7420  148.6340 C   0  0  0  0  0  0  0  0  0  0  0  0
  161.3370  206.4310  149.8370 C   0  0  0  0  0  0  0  0  0  0  0  0
  160.5330  202.9040  149.4310 C   0  0  0  0  0  3  0  0  0  0  0  0
  162.2960  208.0190  148.5880 C   0  0  0  0  0  3  0  0  0  0  0  0
  162.4650  205.8630  146.3940 N   0  0  0  0  0  0  0  0  0  0  0  0
  160.9040  204.1510  149.1170 C   0  0  0  0  0  0  0  0  0  0  0  0
  161.1620  207.6830  154.3030 C   0  0  0  0  0  2  0  0  0  0  0  0
  160.8990  207.7790  151.9690 N   0  0  0  0  0  0  0  0  0  0  0  0
  161.4390  207.0340  153.0350 C   0  0  0  0  0  0  0  0  0  0  0  0
  160.3310  208.8750  153.8110 C   0  0  2  0  0  3  0  0  0  0  0  0
  162.1010  205.9730  152.8950 O   0  0  0  0  0  0  0  0  0  0  0  0
  160.2400  208.8910  152.3870 O   0  0  0  0  0  0  0  0  0  0  0  0
  160.0600  211.0610  155.0960 N   0  0  0  0  0  0  0  0  0  0  0  0
  162.0940  210.4620  154.1070 O   0  0  0  0  0  0  0  0  0  0  0  0
  157.3920  211.7420  157.2180 O   0  0  0  0  0  0  0  0  0  0  0  0
  157.7870  210.8450  154.4230 N   0  0  0  0  0  1  0  0  0  0  0  0
  158.7180  210.7110  155.5310 C   0  0  2  0  0  3  0  0  0  0  0  0
  159.5210  212.7100  156.7460 C   0  0  0  0  0  3  0  0  0  0  0  0
  160.5970  212.2360  155.7730 C   0  0  0  0  0  3  0  0  0  0  0  0
  158.4200  211.7320  156.5590 C   0  0  0  0  0  0  0  0  0  0  0  0
  160.8860  210.1720  154.3250 C   0  0  0  0  0  0  0  0  0  0  0  0
  1  4  1  0  0  0  0
  2 16  1  0  0  0  0
  3 18  1  0  0  0  0
  4 13  2  0  0  0  0
  5  8  1  0  0  0  0
  5  1  2  0  0  0  0
  6  3  1  0  0  0  0
  8  2  2  0  0  0  0
  9  2  1  0  0  0  0
  9 11  1  0  0  0  0
 10 15  1  0  0  0  0
 10  8  1  0  0  0  0
 11 12  1  0  0  0  0
 12  7  1  0  0  0  0
 12  3  2  0  0  0  0
 14 11  2  0  0  0  0
 14  6  1  0  0  0  0
 15  9  2  0  0  0  0
 16 13  1  0  0  0  0
 16  7  2  0  0  0  0
 18 22  1  0  0  0  0
 18 19  1  0  0  0  0
 19 17  1  0  0  0  0
 20 17  1  0  0  0  0
 20 31  1  6  0  0  0
 21 19  2  0  0  0  0
 22 20  1  0  0  0  0
 23 27  1  0  0  0  0
 23 29  1  0  0  0  0
 24 31  2  0  0  0  0
 27 26  1  6  0  0  0
 27 30  1  0  0  0  0
 29 28  2  0  0  0  0
 30 28  1  0  0  0  0
 30 25  2  0  0  0  0
 31 23  1  0  0  0  0
M  END
>  <MODEL>
1

>  <REMARK>
 VINA RESULT:     -11.0      0.000      0.000
  Name = 
  2 active torsions:
  status: ('A' for Active; 'I' for Inactive)
    1  A    between atoms: C_6  and  N_9
    2  A    between atoms: C_26  and  C_29
                            x       y       z     vdW  Elec       q    Type
                         _______ _______ _______ _____ _____    ______ ____

>  <TORSDO>
F 2

$$$$
=
 OpenBabel11052409453D

 31 36  0  0  1  0  0  0  0  0999 V2000
  161.2010  204.5520  144.9440 C   0  0  0  0  0  3  0  0  0  0  0  0
  161.1130  203.9020  147.9540 C   0  0  0  0  0  0  0  0  0  0  0  0
  161.3220  205.3290  151.8540 C   0  0  0  0  0  0  0  0  0  0  0  0
  161.2230  205.7480  145.5410 C   0  0  0  0  0  3  0  0  0  0  0  0
  161.5830  203.2290  145.5350 C   0  0  0  0  0  3  0  0  0  0  0  0
  161.0670  204.2030  152.5240 C   0  0  0  0  0  2  0  0  0  0  0  0
  161.5060  205.8560  149.3160 C   0  0  0  0  0  3  0  0  0  0  0  0
  161.1060  202.9960  146.9250 C   0  0  0  0  0  0  0  0  0  0  0  0
  160.8830  203.1350  149.0700 C   0  0  0  0  0  0  0  0  0  0  0  0
  160.8400  201.8050  147.4310 O   0  0  0  0  0  0  0  0  0  0  0  0
  160.9590  203.7040  150.3310 C   0  0  0  0  0  0  0  0  0  0  0  0
  161.2590  205.0430  150.4400 C   0  0  0  0  0  0  0  0  0  0  0  0
  161.4890  206.0820  146.9590 C   0  0  0  0  0  3  0  0  0  0  0  0
  160.8380  203.1340  151.5260 C   0  0  0  0  0  3  0  0  0  0  0  0
  160.6940  201.8470  148.7320 N   0  0  0  0  0  0  0  0  0  0  0  0
  161.4070  205.2790  148.0260 C   0  0  0  0  0  0  0  0  0  0  0  0
  160.9700  208.8550  152.8850 C   0  0  0  0  0  2  0  0  0  0  0  0
  161.5320  206.6170  152.4410 N   0  0  0  0  0  0  0  0  0  0  0  0
  161.0310  207.8080  151.8830 C   0  0  0  0  0  0  0  0  0  0  0  0
  161.5690  208.1060  154.0830 C   0  0  2  0  0  3  0  0  0  0  0  0
  160.6550  207.9280  150.6880 O   0  0  0  0  0  0  0  0  0  0  0  0
  161.8540  206.7470  153.7550 O   0  0  0  0  0  0  0  0  0  0  0  0
  160.4920  209.4340  155.9740 N   0  0  0  0  0  0  0  0  0  0  0  0
  160.0320  207.1640  155.6520 O   0  0  0  0  0  0  0  0  0  0  0  0
  160.4780  212.9070  156.1390 O   0  0  0  0  0  0  0  0  0  0  0  0
  162.4730  210.7430  155.8030 N   0  0  0  0  0  1  0  0  0  0  0  0
  161.0520  210.6880  155.4970 C   0  0  2  0  0  3  0  0  0  0  0  0
  159.3710  211.1150  157.2610 C   0  0  0  0  0  3  0  0  0  0  0  0
  159.4900  209.6120  157.0200 C   0  0  0  0  0  3  0  0  0  0  0  0
  160.3310  211.7050  156.2930 C   0  0  0  0  0  0  0  0  0  0  0  0
  160.6660  208.1880  155.2790 C   0  0  0  0  0  0  0  0  0  0  0  0
  1  5  2  0  0  0  0
  1  4  1  0  0  0  0
  2 16  1  0  0  0  0
  2  9  1  0  0  0  0
  3 18  1  0  0  0  0
  3  6  1  0  0  0  0
  4 13  2  0  0  0  0
  5  8  1  0  0  0  0
  7 12  1  0  0  0  0
  8 10  1  0  0  0  0
  8  2  2  0  0  0  0
  9 11  1  0  0  0  0
 10 15  1  0  0  0  0
 11 12  1  0  0  0  0
 11 14  2  0  0  0  0
 12  3  2  0  0  0  0
 13 16  1  0  0  0  0
 14  6  1  0  0  0  0
 15  9  2  0  0  0  0
 16  7  2  0  0  0  0
 17 20  1  0  0  0  0
 18 22  1  0  0  0  0
 19 18  1  0  0  0  0
 19 17  1  0  0  0  0
 20 31  1  1  0  0  0
 21 19  2  0  0  0  0
 22 20  1  0  0  0  0
 23 29  1  0  0  0  0
 25 30  2  0  0  0  0
 27 26  1  1  0  0  0
 27 23  1  0  0  0  0
 27 30  1  0  0  0  0
 29 28  2  0  0  0  0
 30 28  1  0  0  0  0
 31 24  2  0  0  0  0
 31 23  1  0  0  0  0
M  END
>  <MODEL>
2

>  <REMARK>
 VINA RESULT:      -9.8      1.995      3.166
  Name = 
  2 active torsions:
  status: ('A' for Active; 'I' for Inactive)
    1  A    between atoms: C_6  and  N_9
    2  A    between atoms: C_26  and  C_29
                            x       y       z     vdW  Elec       q    Type
                         _______ _______ _______ _____ _____    ______ ____

>  <TORSDO>
F 2

$$$$
=
 OpenBabel11052409453D

 31 36  0  0  1  0  0  0  0  0999 V2000
  160.9390  202.5670  145.5880 C   0  0  0  0  0  3  0  0  0  0  0  0
  160.9390  203.0770  148.6260 C   0  0  0  0  0  0  0  0  0  0  0  0
  161.5000  205.7970  151.7220 C   0  0  0  0  0  0  0  0  0  0  0  0
  161.1170  203.8870  145.7010 C   0  0  0  0  0  3  0  0  0  0  0  0
  161.2100  201.5170  146.6210 C   0  0  0  0  0  2  0  0  0  0  0  0
  161.1630  205.0320  152.7620 C   0  0  0  0  0  3  0  0  0  0  0  0
  161.6060  205.3340  149.1660 C   0  0  0  0  0  3  0  0  0  0  0  0
  160.7840  201.8660  148.0040 C   0  0  0  0  0  0  0  0  0  0  0  0
  160.6880  202.8040  149.9480 C   0  0  0  0  0  0  0  0  0  0  0  0
  160.4210  200.9810  148.9160 O   0  0  0  0  0  0  0  0  0  0  0  0
  160.8890  203.7810  150.9100 C   0  0  0  0  0  0  0  0  0  0  0  0
  161.3330  205.0220  150.5130 C   0  0  0  0  0  0  0  0  0  0  0  0
  161.4910  204.6830  146.8920 C   0  0  0  0  0  3  0  0  0  0  0  0
  160.7710  203.7070  152.2320 C   0  0  0  0  0  3  0  0  0  0  0  0
  160.3480  201.5130  150.1110 N   0  0  0  0  0  0  0  0  0  0  0  0
  161.3800  204.3400  148.1820 C   0  0  0  0  0  0  0  0  0  0  0  0
  161.9120  209.3970  151.0230 C   0  0  0  0  0  2  0  0  0  0  0  0
  161.8740  207.1760  151.7900 N   0  0  0  0  0  0  0  0  0  0  0  0
  161.9980  207.9970  150.6530 C   0  0  0  0  0  0  0  0  0  0  0  0
  161.7840  209.2580  152.5450 C   0  0  2  0  0  3  0  0  0  0  0  0
  162.1280  207.5660  149.4780 O   0  0  0  0  0  0  0  0  0  0  0  0
  161.7320  207.8870  152.9390 O   0  0  0  0  0  0  0  0  0  0  0  0
  160.5780  210.5290  154.3980 N   0  0  0  0  0  0  0  0  0  0  0  0
  159.6030  210.2030  152.2980 O   0  0  0  0  0  0  0  0  0  0  0  0
  162.1460  211.7280  157.2600 O   0  0  0  0  0  0  0  0  0  0  0  0
  161.9060  209.1530  155.8170 N   0  0  0  0  0  1  0  0  0  0  0  0
  161.7430  210.4900  155.2680 C   0  0  2  0  0  3  0  0  0  0  0  0
  160.0350  212.0250  156.1880 C   0  0  0  0  0  3  0  0  0  0  0  0
  159.5270  211.4170  154.8830 C   0  0  0  0  0  3  0  0  0  0  0  0
  161.3870  211.4330  156.3500 C   0  0  0  0  0  0  0  0  0  0  0  0
  160.5880  210.0050  153.0590 C   0  0  0  0  0  0  0  0  0  0  0  0
  1  4  2  0  0  0  0
  1  5  1  0  0  0  0
  2  9  1  0  0  0  0
  3 18  1  0  0  0  0
  3  6  2  0  0  0  0
  4 13  1  0  0  0  0
  5  8  1  0  0  0  0
  7 12  2  0  0  0  0
  8  2  2  0  0  0  0
  8 10  1  0  0  0  0
  9 15  2  0  0  0  0
  9 11  1  0  0  0  0
 10 15  1  0  0  0  0
 11 14  2  0  0  0  0
 12 11  1  0  0  0  0
 12  3  1  0  0  0  0
 13 16  2  0  0  0  0
 14  6  1  0  0  0  0
 16  2  1  0  0  0  0
 16  7  1  0  0  0  0
 17 20  1  0  0  0  0
 18 22  1  0  0  0  0
 19 17  1  0  0  0  0
 19 18  1  0  0  0  0
 20 22  1  0  0  0  0
 20 31  1  6  0  0  0
 21 19  2  0  0  0  0
 23 29  1  0  0  0  0
 23 27  1  0  0  0  0
 24 31  2  0  0  0  0
 27 26  1  1  0  0  0
 27 30  1  0  0  0  0
 28 30  1  0  0  0  0
 29 28  2  0  0  0  0
 30 25  2  0  0  0  0
 31 23  1  0  0  0  0
M  END
>  <MODEL>
3

>  <REMARK>
 VINA RESULT:      -9.7      2.136      3.223
  Name = 
  2 active torsions:
  status: ('A' for Active; 'I' for Inactive)
    1  A    between atoms: C_6  and  N_9
    2  A    between atoms: C_26  and  C_29
                            x       y       z     vdW  Elec       q    Type
                         _______ _______ _______ _____ _____    ______ ____

>  <TORSDO>
F 2

$$$$
=
 OpenBabel11052409453D

 31 36  0  0  1  0  0  0  0  0999 V2000
  160.6770  201.2860  150.2200 C   0  0  0  0  0  3  0  0  0  0  0  0
  161.2650  204.0310  148.9530 C   0  0  0  0  0  0  0  0  0  0  0  0
  162.0760  208.0650  149.5530 C   0  0  0  0  0  0  0  0  0  0  0  0
  160.9670  202.0740  151.2600 C   0  0  0  0  0  3  0  0  0  0  0  0
  160.2150  201.7040  148.8580 C   0  0  0  0  0  3  0  0  0  0  0  0
  162.2770  208.4480  148.2910 C   0  0  0  0  0  3  0  0  0  0  0  0
  161.4710  205.7710  150.6140 C   0  0  0  0  0  3  0  0  0  0  0  0
  160.9190  202.8840  148.2870 C   0  0  0  0  0  0  0  0  0  0  0  0
  161.5890  204.9110  147.9490 C   0  0  0  0  0  0  0  0  0  0  0  0
  161.0880  203.0960  146.9930 O   0  0  0  0  0  0  0  0  0  0  0  0
  161.8610  206.2360  148.2490 C   0  0  0  0  0  0  0  0  0  0  0  0
  161.8070  206.6460  149.5620 C   0  0  1  0  0  3  0  0  0  0  0  0
  161.0490  203.5510  151.3220 C   0  0  0  0  0  3  0  0  0  0  0  0
  162.1270  207.2520  147.4330 C   0  0  0  0  0  3  0  0  0  0  0  0
  161.4980  204.3150  146.7470 N   0  0  0  0  0  0  0  0  0  0  0  0
  161.2140  204.4110  150.3100 C   0  0  0  0  0  0  0  0  0  0  0  0
  161.5760  210.6970  152.0920 C   0  0  0  0  0  2  0  0  0  0  0  0
  162.1970  208.9030  150.7060 N   0  0  0  0  0  0  0  0  0  0  0  0
  161.7810  210.2480  150.7280 C   0  0  0  0  0  0  0  0  0  0  0  0
  161.9960  209.4310  152.8500 C   0  0  2  0  0  3  0  0  0  0  0  0
  161.5810  210.9460  149.7000 O   0  0  0  0  0  0  0  0  0  0  0  0
  162.3270  208.3730  151.9500 O   0  0  0  0  0  0  0  0  0  0  0  0
  160.7120  209.7280  155.0320 N   0  0  0  0  0  0  0  0  0  0  0  0
  160.2020  208.0070  153.5330 O   0  0  0  0  0  0  0  0  0  0  0  0
  160.8310  212.6090  156.9730 O   0  0  0  0  0  0  0  0  0  0  0  0
  162.7530  210.7030  155.7720 N   0  0  0  0  0  1  0  0  0  0  0  0
  161.3930  210.9760  155.3360 C   0  0  2  0  0  3  0  0  0  0  0  0
  159.4890  210.6380  156.8800 C   0  0  0  0  0  3  0  0  0  0  0  0
  159.5750  209.4640  155.9090 C   0  0  0  0  0  3  0  0  0  0  0  0
  160.6080  211.5220  156.4650 C   0  0  0  0  0  0  0  0  0  0  0  0
  160.9310  208.9970  153.8140 C   0  0  0  0  0  0  0  0  0  0  0  0
  1  4  1  0  0  0  0
  2 16  1  0  0  0  0
  3 12  1  0  0  0  0
  3 18  1  0  0  0  0
  4 13  2  0  0  0  0
  5  1  2  0  0  0  0
  6  3  2  0  0  0  0
  8  5  1  0  0  0  0
  8  2  2  0  0  0  0
  9 11  1  0  0  0  0
  9  2  1  0  0  0  0
 10  8  1  0  0  0  0
 11 12  1  0  0  0  0
 12  7  1  6  0  0  0
 14 11  2  0  0  0  0
 14  6  1  0  0  0  0
 15 10  1  0  0  0  0
 15  9  2  0  0  0  0
 16  7  2  0  0  0  0
 16 13  1  0  0  0  0
 17 20  1  0  0  0  0
 18 19  1  0  0  0  0
 18 22  1  0  0  0  0
 19 17  1  0  0  0  0
 20 31  1  1  0  0  0
 21 19  2  0  0  0  0
 22 20  1  0  0  0  0
 23 27  1  0  0  0  0
 23 29  1  0  0  0  0
 24 31  2  0  0  0  0
 27 26  1  1  0  0  0
 27 30  1  0  0  0  0
 29 28  2  0  0  0  0
 30 28  1  0  0  0  0
 30 25  2  0  0  0  0
 31 23  1  0  0  0  0
M  END
>  <MODEL>
4

>  <REMARK>
 VINA RESULT:      -9.7      1.754      2.599
  Name = 
  2 active torsions:
  status: ('A' for Active; 'I' for Inactive)
    1  A    between atoms: C_6  and  N_9
    2  A    between atoms: C_26  and  C_29
                            x       y       z     vdW  Elec       q    Type
                         _______ _______ _______ _____ _____    ______ ____

>  <TORSDO>
F 2

$$$$
=
 OpenBabel11052409453D

 31 36  0  0  1  0  0  0  0  0999 V2000
  161.2040  201.1100  147.7470 C   0  0  0  0  0  3  0  0  0  0  0  0
  161.6180  204.0920  148.4010 C   0  0  0  0  0  0  0  0  0  0  0  0
  161.2670  207.1450  151.2020 C   0  0  0  0  0  0  0  0  0  0  0  0
  160.9130  201.2060  149.0490 C   0  0  0  0  0  3  0  0  0  0  0  0
  161.2020  202.2070  146.7280 C   0  0  0  0  0  3  0  0  0  0  0  0
  161.8340  208.1440  150.5240 C   0  0  0  0  0  2  0  0  0  0  0  0
  160.8180  204.6550  150.6090 C   0  0  0  0  0  3  0  0  0  0  0  0
  161.7970  203.4930  147.1810 C   0  0  0  0  0  0  0  0  0  0  0  0
  162.0940  205.3660  148.2170 C   0  0  0  0  0  0  0  0  0  0  0  0
  162.3830  204.3660  146.3800 O   0  0  0  0  0  0  0  0  0  0  0  0
  161.9460  206.3150  149.2170 C   0  0  0  0  0  0  0  0  0  0  0  0
  161.3240  205.9520  150.3900 C   0  0  0  0  0  0  0  0  0  0  0  0
  160.6480  202.4140  149.8620 C   0  0  0  0  0  3  0  0  0  0  0  0
  162.2720  207.6030  149.2180 C   0  0  0  0  0  3  0  0  0  0  0  0
  162.5840  205.5160  146.9740 N   0  0  0  0  0  0  0  0  0  0  0  0
  160.9890  203.6810  149.5950 C   0  0  0  0  0  0  0  0  0  0  0  0
  160.8730  206.8560  154.8610 C   0  0  0  0  0  2  0  0  0  0  0  0
  160.7710  207.2260  152.5420 N   0  0  0  0  0  0  0  0  0  0  0  0
  161.1030  206.2930  153.5430 C   0  0  0  0  0  0  0  0  0  0  0  0
  160.3010  208.2230  154.4650 C   0  0  2  0  0  3  0  0  0  0  0  0
  161.5700  205.1470  153.3180 O   0  0  0  0  0  0  0  0  0  0  0  0
  160.3000  208.3950  153.0480 O   0  0  0  0  0  0  0  0  0  0  0  0
  160.5100  210.6710  155.1450 N   0  0  0  0  0  0  0  0  0  0  0  0
  162.1360  209.0940  155.7260 O   0  0  0  0  0  0  0  0  0  0  0  0
  157.8840  212.9470  155.0210 O   0  0  0  0  0  0  0  0  0  0  0  0
  159.2050  211.0330  153.1870 N   0  0  0  0  0  1  0  0  0  0  0  0
  159.1840  210.9900  154.6400 C   0  0  2  0  0  3  0  0  0  0  0  0
  160.0750  212.8790  155.9650 C   0  0  0  0  0  3  0  0  0  0  0  0
  161.0980  211.7470  155.9370 C   0  0  0  0  0  3  0  0  0  0  0  0
  158.9360  212.3460  155.1750 C   0  0  0  0  0  0  0  0  0  0  0  0
  161.0480  209.3380  155.1360 C   0  0  0  0  0  0  0  0  0  0  0  0
  1  4  1  0  0  0  0
  2 16  1  0  0  0  0
  3 18  1  0  0  0  0
  4 13  2  0  0  0  0
  5  8  1  0  0  0  0
  5  1  2  0  0  0  0
  6  3  1  0  0  0  0
  8  2  2  0  0  0  0
  9  2  1  0  0  0  0
  9 11  1  0  0  0  0
 10 15  1  0  0  0  0
 10  8  1  0  0  0  0
 11 14  2  0  0  0  0
 11 12  1  0  0  0  0
 12  7  1  0  0  0  0
 12  3  2  0  0  0  0
 14  6  1  0  0  0  0
 15  9  2  0  0  0  0
 16 13  1  0  0  0  0
 16  7  2  0  0  0  0
 18 22  1  0  0  0  0
 18 19  1  0  0  0  0
 19 17  1  0  0  0  0
 20 17  1  0  0  0  0
 20 31  1  1  0  0  0
 21 19  2  0  0  0  0
 22 20  1  0  0  0  0
 23 29  1  0  0  0  0
 25 30  2  0  0  0  0
 27 26  1  6  0  0  0
 27 23  1  0  0  0  0
 27 30  1  0  0  0  0
 29 28  2  0  0  0  0
 30 28  1  0  0  0  0
 31 23  1  0  0  0  0
 31 24  2  0  0  0  0
M  END
>  <MODEL>
5

>  <REMARK>
 VINA RESULT:      -9.6      1.053      1.055
  Name = 
  2 active torsions:
  status: ('A' for Active; 'I' for Inactive)
    1  A    between atoms: C_6  and  N_9
    2  A    between atoms: C_26  and  C_29
                            x       y       z     vdW  Elec       q    Type
                         _______ _______ _______ _____ _____    ______ ____

>  <TORSDO>
F 2

$$$$
=
 OpenBabel11052409453D

 31 36  0  0  1  0  0  0  0  0999 V2000
  160.9900  202.2710  149.7730 C   0  0  0  0  0  3  0  0  0  0  0  0
  161.4120  205.2910  149.3350 C   0  0  0  0  0  0  0  0  0  0  0  0
  161.3000  209.1160  150.9630 C   0  0  0  0  0  0  0  0  0  0  0  0
  160.8370  202.8050  150.9890 C   0  0  0  0  0  3  0  0  0  0  0  0
  160.8580  202.9590  148.4500 C   0  0  0  0  0  3  0  0  0  0  0  0
  161.7730  209.8170  149.9310 C   0  0  0  0  0  3  0  0  0  0  0  0
  160.8400  206.5790  151.2950 C   0  0  0  0  0  3  0  0  0  0  0  0
  161.4720  204.3120  148.3770 C   0  0  0  0  0  0  0  0  0  0  0  0
  161.8410  206.4200  148.6820 C   0  0  0  0  0  0  0  0  0  0  0  0
  161.9530  204.8540  147.2710 O   0  0  0  0  0  0  0  0  0  0  0  0
  161.7810  207.6520  149.3130 C   0  0  0  0  0  0  0  0  0  0  0  0
  161.2940  207.7180  150.5990 C   0  0  1  0  0  3  0  0  0  0  0  0
  160.6360  204.2210  151.3710 C   0  0  0  0  0  3  0  0  0  0  0  0
  162.0800  208.8600  148.8450 C   0  0  0  0  0  3  0  0  0  0  0  0
  162.1930  206.1330  147.4170 N   0  0  0  0  0  0  0  0  0  0  0  0
  160.9210  205.3170  150.6570 C   0  0  0  0  0  0  0  0  0  0  0  0
  161.2290  211.0810  154.0860 C   0  0  0  0  0  2  0  0  0  0  0  0
  160.9480  209.6520  152.2410 N   0  0  0  0  0  0  0  0  0  0  0  0
  161.8870  210.2150  153.1260 C   0  0  0  0  0  0  0  0  0  0  0  0
  159.7690  210.8810  153.6610 C   0  0  2  0  0  3  0  0  0  0  0  0
  163.1290  210.0190  153.0610 O   0  0  0  0  0  0  0  0  0  0  0  0
  159.6730  210.0330  152.5170 O   0  0  0  0  0  0  0  0  0  0  0  0
  158.0170  212.6370  154.2520 N   0  0  0  0  0  0  0  0  0  0  0  0
  159.4990  212.9340  152.4670 O   0  0  0  0  0  0  0  0  0  0  0  0
  156.2770  212.7000  157.2610 O   0  0  0  0  0  0  0  0  0  0  0  0
  156.8270  210.7550  155.0950 N   0  0  0  0  0  1  0  0  0  0  0  0
  157.6160  211.9230  155.4540 C   0  0  2  0  0  3  0  0  0  0  0  0
  156.6060  214.1810  155.4190 C   0  0  0  0  0  3  0  0  0  0  0  0
  157.4540  213.9800  154.1660 C   0  0  0  0  0  3  0  0  0  0  0  0
  156.7640  212.9030  156.1600 C   0  0  0  0  0  0  0  0  0  0  0  0
  159.0930  212.1970  153.4060 C   0  0  0  0  0  0  0  0  0  0  0  0
  1  4  1  0  0  0  0
  2 16  1  0  0  0  0
  3 18  1  0  0  0  0
  4 13  2  0  0  0  0
  5  1  2  0  0  0  0
  6  3  2  0  0  0  0
  8  5  1  0  0  0  0
  8  2  2  0  0  0  0
  9 11  1  0  0  0  0
  9  2  1  0  0  0  0
 10 15  1  0  0  0  0
 10  8  1  0  0  0  0
 11 12  1  0  0  0  0
 12  3  1  0  0  0  0
 12  7  1  6  0  0  0
 14 11  2  0  0  0  0
 14  6  1  0  0  0  0
 15  9  2  0  0  0  0
 16  7  2  0  0  0  0
 16 13  1  0  0  0  0
 18 22  1  0  0  0  0
 18 19  1  0  0  0  0
 19 17  1  0  0  0  0
 20 31  1  6  0  0  0
 20 17  1  0  0  0  0
 21 19  2  0  0  0  0
 22 20  1  0  0  0  0
 23 27  1  0  0  0  0
 24 31  2  0  0  0  0
 27 26  1  6  0  0  0
 27 30  1  0  0  0  0
 28 30  1  0  0  0  0
 29 23  1  0  0  0  0
 29 28  2  0  0  0  0
 30 25  2  0  0  0  0
 31 23  1  0  0  0  0
M  END
>  <MODEL>
6

>  <REMARK>
 VINA RESULT:      -9.1      1.723      2.328
  Name = 
  2 active torsions:
  status: ('A' for Active; 'I' for Inactive)
    1  A    between atoms: C_6  and  N_9
    2  A    between atoms: C_26  and  C_29
                            x       y       z     vdW  Elec       q    Type
                         _______ _______ _______ _____ _____    ______ ____

>  <TORSDO>
F 2

$$$$
=
 OpenBabel11052409453D

 31 36  0  0  1  0  0  0  0  0999 V2000
  159.1390  213.0600  155.8180 C   0  0  0  0  0  3  0  0  0  0  0  0
  160.0260  210.1920  155.1260 C   0  0  0  0  0  0  0  0  0  0  0  0
  160.9320  207.4260  152.1560 C   0  0  0  0  0  0  0  0  0  0  0  0
  159.3180  213.0800  154.4930 C   0  0  0  0  0  3  0  0  0  0  0  0
  158.8930  211.8660  156.6880 C   0  0  0  0  0  2  0  0  0  0  0  0
  161.3260  206.3990  152.9130 C   0  0  0  0  0  3  0  0  0  0  0  0
  160.0790  209.8100  152.7430 C   0  0  0  0  0  3  0  0  0  0  0  0
  159.7230  210.6730  156.3740 C   0  0  0  0  0  0  0  0  0  0  0  0
  160.5280  208.9370  155.3680 C   0  0  0  0  0  0  0  0  0  0  0  0
  160.0810  209.7600  157.2610 O   0  0  0  0  0  0  0  0  0  0  0  0
  160.8170  208.0890  154.3110 C   0  0  0  0  0  0  0  0  0  0  0  0
  160.5990  208.5310  153.0250 C   0  0  0  0  0  0  0  0  0  0  0  0
  159.4590  211.9480  153.5500 C   0  0  0  0  0  3  0  0  0  0  0  0
  161.2410  206.8300  154.3260 C   0  0  0  0  0  3  0  0  0  0  0  0
  160.5780  208.6910  156.6890 N   0  0  0  0  0  0  0  0  0  0  0  0
  159.8040  210.6840  153.8230 C   0  0  0  0  0  0  0  0  0  0  0  0
  161.9490  207.5800  148.6120 C   0  0  0  0  0  2  0  0  0  0  0  0
  160.9310  207.4530  150.7260 N   0  0  0  0  0  0  0  0  0  0  0  0
  161.9260  208.0980  149.9670 C   0  0  0  0  0  0  0  0  0  0  0  0
  160.7810  206.5890  148.6900 C   0  0  2  0  0  3  0  0  0  0  0  0
  162.7070  208.9740  150.4200 O   0  0  0  0  0  0  0  0  0  0  0  0
  160.2320  206.5370  150.0060 O   0  0  0  0  0  0  0  0  0  0  0  0
  161.2530  204.9120  146.8290 N   0  0  0  0  0  0  0  0  0  0  0  0
  161.5320  204.3550  149.0830 O   0  0  0  0  0  0  0  0  0  0  0  0
  161.6070  205.7820  143.4810 O   0  0  0  0  0  0  0  0  0  0  0  0
  159.6310  206.1940  145.6480 N   0  0  0  0  0  1  0  0  0  0  0  0
  161.0500  205.9110  145.7920 C   0  0  2  0  0  3  0  0  0  0  0  0
  162.0240  203.8540  144.8230 C   0  0  0  0  0  3  0  0  0  0  0  0
  161.8260  203.6680  146.3250 C   0  0  0  0  0  3  0  0  0  0  0  0
  161.5490  205.2380  144.5730 C   0  0  0  0  0  0  0  0  0  0  0  0
  161.1960  205.2220  148.2310 C   0  0  0  0  0  0  0  0  0  0  0  0
  1  5  1  0  0  0  0
  2  9  1  0  0  0  0
  2  8  2  0  0  0  0
  3  6  2  0  0  0  0
  3 12  1  0  0  0  0
  4  1  2  0  0  0  0
  6 14  1  0  0  0  0
  7 12  2  0  0  0  0
  7 16  1  0  0  0  0
  8  5  1  0  0  0  0
  8 10  1  0  0  0  0
  9 15  2  0  0  0  0
 11 14  2  0  0  0  0
 11  9  1  0  0  0  0
 12 11  1  0  0  0  0
 13 16  2  0  0  0  0
 13  4  1  0  0  0  0
 15 10  1  0  0  0  0
 16  2  1  0  0  0  0
 17 20  1  0  0  0  0
 17 19  1  0  0  0  0
 18  3  1  0  0  0  0
 19 21  2  0  0  0  0
 19 18  1  0  0  0  0
 20 31  1  1  0  0  0
 20 22  1  0  0  0  0
 22 18  1  0  0  0  0
 23 31  1  0  0  0  0
 25 30  2  0  0  0  0
 27 26  1  6  0  0  0
 27 23  1  0  0  0  0
 28 29  2  0  0  0  0
 29 23  1  0  0  0  0
 30 28  1  0  0  0  0
 30 27  1  0  0  0  0
 31 24  2  0  0  0  0
M  END
>  <MODEL>
7

>  <REMARK>
 VINA RESULT:      -9.1      2.061      9.574
  Name = 
  2 active torsions:
  status: ('A' for Active; 'I' for Inactive)
    1  A    between atoms: C_6  and  N_9
    2  A    between atoms: C_26  and  C_29
                            x       y       z     vdW  Elec       q    Type
                         _______ _______ _______ _____ _____    ______ ____

>  <TORSDO>
F 2

$$$$
=
 OpenBabel11052409453D

 31 36  0  0  1  0  0  0  0  0999 V2000
  161.1950  200.2520  146.5190 C   0  0  0  0  0  3  0  0  0  0  0  0
  161.3180  203.3140  146.8410 C   0  0  0  0  0  0  0  0  0  0  0  0
  161.4020  206.5630  149.4350 C   0  0  0  0  0  0  0  0  0  0  0  0
  161.3230  200.4410  147.8360 C   0  0  0  0  0  3  0  0  0  0  0  0
  160.6930  201.2310  145.5010 C   0  0  0  0  0  3  0  0  0  0  0  0
  161.5570  207.5540  148.5550 C   0  0  0  0  0  3  0  0  0  0  0  0
  161.1870  203.9870  149.1560 C   0  0  0  0  0  3  0  0  0  0  0  0
  161.1910  202.6230  145.6640 C   0  0  0  0  0  0  0  0  0  0  0  0
  161.5030  204.6150  146.4430 C   0  0  0  0  0  0  0  0  0  0  0  0
  161.3450  203.4800  144.6690 O   0  0  0  0  0  0  0  0  0  0  0  0
  161.5340  205.6320  147.3840 C   0  0  0  0  0  0  0  0  0  0  0  0
  161.3840  205.3110  148.7140 C   0  0  1  0  0  3  0  0  0  0  0  0
  161.1440  201.6800  148.6260 C   0  0  0  0  0  3  0  0  0  0  0  0
  161.6350  206.9450  147.2090 C   0  0  0  0  0  3  0  0  0  0  0  0
  161.5400  204.7010  145.1010 N   0  0  0  0  0  0  0  0  0  0  0  0
  161.1770  202.9460  148.1950 C   0  0  0  0  0  0  0  0  0  0  0  0
  162.2410  207.2940  152.9540 C   0  0  0  0  0  2  0  0  0  0  0  0
  161.3530  206.7130  150.8570 N   0  0  0  0  0  0  0  0  0  0  0  0
  162.4960  206.6550  151.6770 C   0  0  0  0  0  0  0  0  0  0  0  0
  160.7650  207.6700  152.7690 C   0  0  2  0  0  3  0  0  0  0  0  0
  163.5950  206.1510  151.3280 O   0  0  0  0  0  0  0  0  0  0  0  0
  160.3010  207.3200  151.4650 O   0  0  0  0  0  0  0  0  0  0  0  0
  160.8970  209.6930  154.3140 N   0  0  0  0  0  0  0  0  0  0  0  0
  160.0630  209.8650  152.1360 O   0  0  0  0  0  0  0  0  0  0  0  0
  162.7630  209.7720  157.2460 O   0  0  0  0  0  0  0  0  0  0  0  0
  160.6900  208.0480  156.0210 N   0  0  0  0  0  1  0  0  0  0  0  0
  161.6080  208.9440  155.3370 C   0  0  2  0  0  3  0  0  0  0  0  0
  161.6340  211.3600  155.8680 C   0  0  0  0  0  3  0  0  0  0  0  0
  160.8720  211.1300  154.5660 C   0  0  0  0  0  3  0  0  0  0  0  0
  162.0650  209.9970  156.2700 C   0  0  0  0  0  0  0  0  0  0  0  0
  160.5380  209.1280  153.0420 C   0  0  0  0  0  0  0  0  0  0  0  0
  1  4  1  0  0  0  0
  2 16  1  0  0  0  0
  3 18  1  0  0  0  0
  4 13  2  0  0  0  0
  5  8  1  0  0  0  0
  5  1  2  0  0  0  0
  6  3  2  0  0  0  0
  8  2  2  0  0  0  0
  9  2  1  0  0  0  0
  9 11  1  0  0  0  0
 10 15  1  0  0  0  0
 10  8  1  0  0  0  0
 11 12  1  0  0  0  0
 12  7  1  6  0  0  0
 12  3  1  0  0  0  0
 14 11  2  0  0  0  0
 14  6  1  0  0  0  0
 15  9  2  0  0  0  0
 16 13  1  0  0  0  0
 16  7  2  0  0  0  0
 18 22  1  0  0  0  0
 18 19  1  0  0  0  0
 19 17  1  0  0  0  0
 20 17  1  0  0  0  0
 20 31  1  6  0  0  0
 21 19  2  0  0  0  0
 22 20  1  0  0  0  0
 23 29  1  0  0  0  0
 23 27  1  0  0  0  0
 24 31  2  0  0  0  0
 27 26  1  1  0  0  0
 27 30  1  0  0  0  0
 28 30  1  0  0  0  0
 29 28  2  0  0  0  0
 30 25  2  0  0  0  0
 31 23  1  0  0  0  0
M  END
>  <MODEL>
8

>  <REMARK>
 VINA RESULT:      -9.0      1.940      2.331
  Name = 
  2 active torsions:
  status: ('A' for Active; 'I' for Inactive)
    1  A    between atoms: C_6  and  N_9
    2  A    between atoms: C_26  and  C_29
                            x       y       z     vdW  Elec       q    Type
                         _______ _______ _______ _____ _____    ______ ____

>  <TORSDO>
F 2

$$$$
=
 OpenBabel11052409453D

 31 36  0  0  1  0  0  0  0  0999 V2000
  161.1230  203.4080  150.5390 C   0  0  0  0  0  3  0  0  0  0  0  0
  161.2560  206.4850  150.6220 C   0  0  0  0  0  0  0  0  0  0  0  0
  161.1250  209.9360  152.9380 C   0  0  0  0  0  0  0  0  0  0  0  0
  161.1220  203.7040  151.8430 C   0  0  0  0  0  3  0  0  0  0  0  0
  160.7390  204.3020  149.3990 C   0  0  0  0  0  3  0  0  0  0  0  0
  161.3810  210.8500  152.0000 C   0  0  0  0  0  3  0  0  0  0  0  0
  160.9030  207.3480  152.8490 C   0  0  0  0  0  3  0  0  0  0  0  0
  161.2370  205.7000  149.4980 C   0  0  0  0  0  0  0  0  0  0  0  0
  161.4970  207.7480  150.1390 C   0  0  0  0  0  0  0  0  0  0  0  0
  161.5010  206.4720  148.4570 O   0  0  0  0  0  0  0  0  0  0  0  0
  161.4480  208.8390  150.9930 C   0  0  0  0  0  0  0  0  0  0  0  0
  161.1620  208.6290  152.3230 C   0  0  1  0  0  3  0  0  0  0  0  0
  160.8820  205.0040  152.5080 C   0  0  0  0  0  3  0  0  0  0  0  0
  161.5840  210.1330  150.7220 C   0  0  0  0  0  3  0  0  0  0  0  0
  161.6690  207.7230  148.8060 N   0  0  0  0  0  0  0  0  0  0  0  0
  160.9750  206.2310  151.9800 C   0  0  0  0  0  0  0  0  0  0  0  0
  161.4840  211.2050  156.3850 C   0  0  0  0  0  2  0  0  0  0  0  0
  160.9370  210.2030  154.3310 N   0  0  0  0  0  0  0  0  0  0  0  0
  161.9920  210.5410  155.1990 C   0  0  0  0  0  0  0  0  0  0  0  0
  159.9790  211.1410  156.0970 C   0  0  2  0  0  3  0  0  0  0  0  0
  163.2080  210.3270  154.9550 O   0  0  0  0  0  0  0  0  0  0  0  0
  159.7190  210.5530  154.8220 O   0  0  0  0  0  0  0  0  0  0  0  0
  157.9230  212.6320  156.3250 N   0  0  0  0  0  0  0  0  0  0  0  0
  160.0800  213.5260  156.2000 O   0  0  0  0  0  0  0  0  0  0  0  0
  154.7820  211.4700  157.2590 O   0  0  0  0  0  0  0  0  0  0  0  0
  156.8370  210.8190  155.2270 N   0  0  0  0  0  1  0  0  0  0  0  0
  157.0380  211.4910  156.5010 C   0  0  2  0  0  3  0  0  0  0  0  0
  155.8420  213.5950  157.0140 C   0  0  0  0  0  3  0  0  0  0  0  0
  157.2790  213.9100  156.6100 C   0  0  0  0  0  3  0  0  0  0  0  0
  155.7710  212.1130  156.9430 C   0  0  0  0  0  0  0  0  0  0  0  0
  159.3490  212.5000  156.1950 C   0  0  0  0  0  0  0  0  0  0  0  0
  1  4  1  0  0  0  0
  2 16  1  0  0  0  0
  3 18  1  0  0  0  0
  4 13  2  0  0  0  0
  5  8  1  0  0  0  0
  5  1  2  0  0  0  0
  6  3  2  0  0  0  0
  8  2  2  0  0  0  0
  9  2  1  0  0  0  0
  9 11  1  0  0  0  0
 10 15  1  0  0  0  0
 10  8  1  0  0  0  0
 11 12  1  0  0  0  0
 12  7  1  6  0  0  0
 12  3  1  0  0  0  0
 14 11  2  0  0  0  0
 14  6  1  0  0  0  0
 15  9  2  0  0  0  0
 16 13  1  0  0  0  0
 16  7  2  0  0  0  0
 18 22  1  0  0  0  0
 18 19  1  0  0  0  0
 19 17  1  0  0  0  0
 20 31  1  6  0  0  0
 20 17  1  0  0  0  0
 21 19  2  0  0  0  0
 22 20  1  0  0  0  0
 23 27  1  0  0  0  0
 23 29  1  0  0  0  0
 27 26  1  6  0  0  0
 27 30  1  0  0  0  0
 29 28  2  0  0  0  0
 30 28  1  0  0  0  0
 30 25  2  0  0  0  0
 31 24  2  0  0  0  0
 31 23  1  0  0  0  0
M  END
>  <MODEL>
9

>  <REMARK>
 VINA RESULT:      -8.6      2.145      3.411
  Name = 
  2 active torsions:
  status: ('A' for Active; 'I' for Inactive)
    1  A    between atoms: C_6  and  N_9
    2  A    between atoms: C_26  and  C_29
                            x       y       z     vdW  Elec       q    Type
                         _______ _______ _______ _____ _____    ______ ____

>  <TORSDO>
F 2

$$$$
