=
 OpenBabel11042420413D

 45 48  0  0  1  0  0  0  0  0999 V2000
  161.6830  208.9870  150.0960 C   0  0  1  0  0  3  0  0  0  0  0  0
  162.6110  207.1880  148.7970 O   0  0  0  0  0  1  0  0  0  0  0  0
  162.2520  207.5570  150.0990 C   0  0  2  0  0  3  0  0  0  0  0  0
  161.8120  205.7410  151.6940 N   0  0  0  0  0  1  0  0  0  0  0  0
  161.2190  206.5610  150.6530 C   0  0  2  0  0  3  0  0  0  0  0  0
  160.6810  205.6540  149.5470 C   0  0  0  0  0  2  0  0  0  0  0  0
  160.7980  204.1940  149.9550 C   0  0  0  0  0  2  0  0  0  0  0  0
  160.6500  201.4180  146.4530 C   0  0  0  0  0  3  0  0  0  0  0  0
  161.2980  201.0910  147.7560 C   0  0  0  0  0  2  0  0  0  0  0  0
  161.7950  204.0250  147.6190 C   0  0  0  0  0  3  0  0  0  0  0  0
  160.8390  202.5720  145.8060 C   0  0  0  0  0  0  0  0  0  0  0  0
  160.2930  202.7110  144.5770 F   0  0  0  0  0  0  0  0  0  0  0  0
  160.9010  202.0510  148.8280 C   0  0  0  0  0  3  0  0  0  0  0  0
  161.1530  203.3610  148.7730 C   0  0  0  0  0  0  0  0  0  0  0  0
  161.6590  203.6820  146.3310 C   0  0  0  0  0  3  0  0  0  0  0  0
  161.7770  209.6380  151.4490 C   0  0  0  0  0  0  0  0  0  0  0  0
  162.8690  209.9990  151.8640 O   0  0  0  0  0  0  0  0  0  0  0  0
  160.8030  209.8370  156.0320 C   0  0  0  0  0  0  0  0  0  0  0  0
  160.0660  213.3120  156.2600 C   0  0  0  0  0  1  0  0  0  0  0  0
  160.5290  211.4620  154.6360 C   0  0  0  0  0  0  0  0  0  0  0  0
  160.7700  210.1550  154.7210 C   0  0  0  0  0  0  0  0  0  0  0  0
  160.9480  207.5340  155.3940 C   0  0  0  0  0  3  0  0  0  0  0  0
  160.8970  208.5080  156.4280 C   0  0  0  0  0  3  0  0  0  0  0  0
  160.5450  209.8430  152.2880 C   0  0  2  0  0  3  0  0  0  0  0  0
  160.5820  210.9530  156.7670 N   0  0  0  0  0  0  0  0  0  0  0  0
  160.4110  211.9480  155.8900 N   0  0  0  0  0  0  0  0  0  0  0  0
  160.1550  211.3400  152.3070 C   0  0  0  0  0  3  0  0  0  0  0  0
  160.1620  212.0710  153.3950 N   0  0  0  0  0  0  0  0  0  0  0  0
  160.7450  209.2690  153.6820 C   0  0  0  0  0  0  0  0  0  0  0  0
  160.8590  207.9090  154.0220 C   0  0  0  0  0  3  0  0  0  0  0  0
  162.3570  209.8700  149.0530 C   0  0  0  0  0  2  0  0  0  0  0  0
  161.6640  211.1910  149.0000 C   0  0  0  0  0  3  0  0  0  0  0  0
  162.3090  212.2610  148.5460 C   0  0  0  0  0  3  0  0  0  0  0  0
  161.6360  213.5960  148.4630 C   0  0  0  0  0  2  0  0  0  0  0  0
  160.9950  213.8070  147.1000 C   0  0  0  0  0  2  0  0  0  0  0  0
  161.9570  213.4030  146.0010 C   0  0  0  0  0  2  0  0  0  0  0  0
  161.2520  212.8240  144.9480 O   0  0  0  0  0  0  0  0  0  0  0  0
  162.0430  213.0500  143.8190 C   0  0  0  0  0  2  0  0  0  0  0  0
  160.2030  212.2460  142.5610 O   0  0  0  0  0  0  0  0  0  0  0  0
  161.8880  211.1550  140.4200 C   0  0  0  0  0  0  0  0  0  0  0  0
  162.7560  210.8080  139.5760 O   0  0  0  0  0  0  0  0  0  0  0  0
  161.4530  212.3830  142.6230 C   0  0  0  0  0  0  0  0  0  0  0  0
  162.3040  211.8630  141.5940 N   0  0  0  0  0  2  0  0  0  0  0  0
  160.4640  210.7800  140.1790 C   0  0  0  0  0  2  0  0  0  0  0  0
  160.3480  209.9930  138.8900 C   0  0  0  0  0  1  0  0  0  0  0  0
  1 31  1  6  0  0  0
  1  3  1  0  0  0  0
  1 16  1  0  0  0  0
  3  2  1  6  0  0  0
  3  5  1  0  0  0  0
  5  4  1  1  0  0  0
  6  7  1  0  0  0  0
  6  5  1  0  0  0  0
  8  9  1  0  0  0  0
  9 13  1  0  0  0  0
 10 14  1  0  0  0  0
 11 15  1  0  0  0  0
 11  8  2  0  0  0  0
 12 11  1  0  0  0  0
 14 13  2  0  0  0  0
 14  7  1  0  0  0  0
 15 10  2  0  0  0  0
 16 17  2  0  0  0  0
 18 23  1  0  0  0  0
 18 25  2  0  0  0  0
 20 21  2  0  0  0  0
 20 26  1  0  0  0  0
 21 18  1  0  0  0  0
 22 23  2  0  0  0  0
 24 16  1  6  0  0  0
 24 27  1  0  0  0  0
 24 29  1  0  0  0  0
 26 19  1  0  0  0  0
 26 25  1  0  0  0  0
 27 28  2  0  0  0  0
 28 20  1  0  0  0  0
 29 30  2  0  0  0  0
 29 21  1  0  0  0  0
 30 22  1  0  0  0  0
 32 31  1  0  0  0  0
 33 32  2  0  0  0  0
 34 33  1  0  0  0  0
 35 34  1  0  0  0  0
 36 35  1  0  0  0  0
 37 36  1  0  0  0  0
 38 37  1  0  0  0  0
 39 42  2  0  0  0  0
 40 43  1  0  0  0  0
 41 40  2  0  0  0  0
 42 38  1  0  0  0  0
 43 42  1  0  0  0  0
 44 40  1  0  0  0  0
 45 44  1  0  0  0  0
M  END
>  <MODEL>
1

>  <REMARK>
 VINA RESULT:      -8.6      0.000      0.000
  Name = 
  16 active torsions:
  status: ('A' for Active; 'I' for Inactive)
    1  A    between atoms: C_1  and  C_22
    2  A    between atoms: C_1  and  C_24
    3  A    between atoms: C_3  and  C_18
    4  A    between atoms: C_3  and  C_40
    5  A    between atoms: C_7  and  C_32
    6  A    between atoms: C_7  and  O_36
    7  A    between atoms: C_11  and  C_31
    8  A    between atoms: C_16  and  C_20
    9  A    between atoms: C_16  and  C_38
   10  A    between atoms: C_19  and  C_40
   11  A    between atoms: C_19  and  C_41
   12  A    between atoms: C_20  and  C_41
   13  A    between atoms: C_21  and  C_22
   14  A    between atoms: C_21  and  O_36
   15  A    between atoms: C_23  and  C_29
   16  A    between atoms: C_29  and  C_40
                            x       y       z     vdW  Elec       q    Type
                         _______ _______ _______ _____ _____    ______ ____

>  <TORSDO>
F 16

$$$$
=
 OpenBabel11042420413D

 45 48  0  0  1  0  0  0  0  0999 V2000
  161.5920  209.2580  149.7410 C   0  0  1  0  0  3  0  0  0  0  0  0
  162.8150  207.3200  150.4720 O   0  0  0  0  0  1  0  0  0  0  0  0
  161.7750  207.7340  149.6310 C   0  0  2  0  0  3  0  0  0  0  0  0
  160.8830  207.3640  147.3730 N   0  0  0  0  0  1  0  0  0  0  0  0
  162.0880  207.3270  148.1810 C   0  0  2  0  0  3  0  0  0  0  0  0
  162.6870  205.9230  148.1220 C   0  0  0  0  0  2  0  0  0  0  0  0
  161.7460  204.9750  147.3970 C   0  0  0  0  0  2  0  0  0  0  0  0
  161.1210  201.5090  150.1510 C   0  0  0  0  0  3  0  0  0  0  0  0
  160.4640  201.6520  148.8210 C   0  0  0  0  0  2  0  0  0  0  0  0
  160.6520  204.5070  149.6470 C   0  0  0  0  0  3  0  0  0  0  0  0
  161.1790  202.4930  151.0530 C   0  0  0  0  0  0  0  0  0  0  0  0
  161.6980  202.2130  152.2710 F   0  0  0  0  0  0  0  0  0  0  0  0
  161.1100  202.7140  147.9950 C   0  0  0  0  0  3  0  0  0  0  0  0
  161.1660  203.9970  148.3580 C   0  0  0  0  0  0  0  0  0  0  0  0
  160.6580  203.8540  150.8170 C   0  0  0  0  0  3  0  0  0  0  0  0
  161.7720  209.7510  151.1510 C   0  0  0  0  0  0  0  0  0  0  0  0
  162.8880  210.0750  151.5330 O   0  0  0  0  0  0  0  0  0  0  0  0
  161.0010  208.9140  155.7000 C   0  0  0  0  0  0  0  0  0  0  0  0
  160.5920  212.2780  156.7900 C   0  0  0  0  0  1  0  0  0  0  0  0
  160.8210  210.8430  154.7490 C   0  0  0  0  0  0  0  0  0  0  0  0
  160.9460  209.5400  154.5070 C   0  0  0  0  0  0  0  0  0  0  0  0
  160.9110  206.8290  154.5270 C   0  0  0  0  0  3  0  0  0  0  0  0
  160.9890  207.5250  155.7630 C   0  0  0  0  0  3  0  0  0  0  0  0
  160.5980  209.8440  152.0870 C   0  0  2  0  0  3  0  0  0  0  0  0
  160.9110  209.8330  156.6910 N   0  0  0  0  0  0  0  0  0  0  0  0
  160.7970  211.0210  156.0870 N   0  0  0  0  0  0  0  0  0  0  0  0
  160.3470  211.3180  152.4830 C   0  0  0  0  0  3  0  0  0  0  0  0
  160.4620  211.7620  153.7120 N   0  0  0  0  0  0  0  0  0  0  0  0
  160.7990  208.9360  153.2900 C   0  0  0  0  0  0  0  0  0  0  0  0
  160.8020  207.5290  153.2910 C   0  0  0  0  0  3  0  0  0  0  0  0
  162.5270  210.0170  148.8080 C   0  0  0  0  0  2  0  0  0  0  0  0
  161.8760  211.2920  148.3840 C   0  0  0  0  0  3  0  0  0  0  0  0
  162.6150  212.3790  148.1840 C   0  0  0  0  0  3  0  0  0  0  0  0
  161.9940  213.6680  147.7400 C   0  0  0  0  0  2  0  0  0  0  0  0
  162.4040  214.0170  146.3180 C   0  0  0  0  0  2  0  0  0  0  0  0
  161.1940  214.0050  145.4070 C   0  0  0  0  0  2  0  0  0  0  0  0
  160.9630  212.7100  144.9470 O   0  0  0  0  0  0  0  0  0  0  0  0
  160.4290  212.8730  143.6660 C   0  0  0  0  0  2  0  0  0  0  0  0
  162.5260  212.3370  142.7040 O   0  0  0  0  0  0  0  0  0  0  0  0
  161.3510  210.7400  140.5400 C   0  0  0  0  0  0  0  0  0  0  0  0
  160.6800  210.0500  139.7290 O   0  0  0  0  0  0  0  0  0  0  0  0
  161.2780  212.1850  142.6520 C   0  0  0  0  0  0  0  0  0  0  0  0
  160.6720  211.4110  141.6090 N   0  0  0  0  0  2  0  0  0  0  0  0
  162.8230  210.8620  140.3330 C   0  0  0  0  0  2  0  0  0  0  0  0
  163.1040  211.7380  139.1280 C   0  0  0  0  0  1  0  0  0  0  0  0
  1 31  1  6  0  0  0
  1 16  1  0  0  0  0
  3  1  1  0  0  0  0
  3  2  1  1  0  0  0
  5  4  1  6  0  0  0
  5  3  1  0  0  0  0
  6  5  1  0  0  0  0
  7  6  1  0  0  0  0
  7 14  1  0  0  0  0
  8 11  2  0  0  0  0
  9  8  1  0  0  0  0
 10 15  2  0  0  0  0
 11 12  1  0  0  0  0
 13 14  2  0  0  0  0
 13  9  1  0  0  0  0
 14 10  1  0  0  0  0
 15 11  1  0  0  0  0
 16 17  2  0  0  0  0
 18 23  1  0  0  0  0
 18 25  2  0  0  0  0
 20 26  1  0  0  0  0
 21 20  2  0  0  0  0
 21 18  1  0  0  0  0
 22 23  2  0  0  0  0
 24 16  1  6  0  0  0
 24 27  1  0  0  0  0
 24 29  1  0  0  0  0
 26 25  1  0  0  0  0
 26 19  1  0  0  0  0
 27 28  2  0  0  0  0
 28 20  1  0  0  0  0
 29 30  2  0  0  0  0
 29 21  1  0  0  0  0
 30 22  1  0  0  0  0
 32 31  1  0  0  0  0
 33 32  2  0  0  0  0
 34 33  1  0  0  0  0
 35 34  1  0  0  0  0
 36 35  1  0  0  0  0
 37 36  1  0  0  0  0
 38 37  1  0  0  0  0
 40 43  1  0  0  0  0
 41 40  2  0  0  0  0
 42 39  2  0  0  0  0
 42 38  1  0  0  0  0
 43 42  1  0  0  0  0
 44 40  1  0  0  0  0
 45 44  1  0  0  0  0
M  END
>  <MODEL>
2

>  <REMARK>
 VINA RESULT:      -8.2      1.765      2.258
  Name = 
  16 active torsions:
  status: ('A' for Active; 'I' for Inactive)
    1  A    between atoms: C_1  and  C_22
    2  A    between atoms: C_1  and  C_24
    3  A    between atoms: C_3  and  C_18
    4  A    between atoms: C_3  and  C_40
    5  A    between atoms: C_7  and  C_32
    6  A    between atoms: C_7  and  O_36
    7  A    between atoms: C_11  and  C_31
    8  A    between atoms: C_16  and  C_20
    9  A    between atoms: C_16  and  C_38
   10  A    between atoms: C_19  and  C_40
   11  A    between atoms: C_19  and  C_41
   12  A    between atoms: C_20  and  C_41
   13  A    between atoms: C_21  and  C_22
   14  A    between atoms: C_21  and  O_36
   15  A    between atoms: C_23  and  C_29
   16  A    between atoms: C_29  and  C_40
                            x       y       z     vdW  Elec       q    Type
                         _______ _______ _______ _____ _____    ______ ____

>  <TORSDO>
F 16

$$$$
=
 OpenBabel11042420413D

 45 48  0  0  1  0  0  0  0  0999 V2000
  161.5210  207.7000  153.0410 C   0  0  1  0  0  3  0  0  0  0  0  0
  159.8870  207.0000  154.6610 O   0  0  0  0  0  1  0  0  0  0  0  0
  161.2350  207.3490  154.5120 C   0  0  2  0  0  3  0  0  0  0  0  0
  162.1190  208.0680  156.6880 N   0  0  0  0  0  1  0  0  0  0  0  0
  161.5660  208.5370  155.4300 C   0  0  2  0  0  3  0  0  0  0  0  0
  160.3220  209.3770  155.7130 C   0  0  0  0  0  2  0  0  0  0  0  0
  160.7110  210.8110  156.0340 C   0  0  0  0  0  2  0  0  0  0  0  0
  157.8530  214.0300  154.8270 C   0  0  0  0  0  3  0  0  0  0  0  0
  158.5720  213.9930  156.1320 C   0  0  0  0  0  2  0  0  0  0  0  0
  158.2140  211.0800  155.6220 C   0  0  0  0  0  3  0  0  0  0  0  0
  157.2230  212.9750  154.3030 C   0  0  0  0  0  0  0  0  0  0  0  0
  156.5070  213.1570  153.1690 F   0  0  0  0  0  0  0  0  0  0  0  0
  159.6940  213.0090  156.1190 C   0  0  0  0  0  3  0  0  0  0  0  0
  159.5220  211.7000  155.9190 C   0  0  0  0  0  0  0  0  0  0  0  0
  157.2150  211.6340  154.9200 C   0  0  0  0  0  3  0  0  0  0  0  0
  161.8160  206.4780  152.2130 C   0  0  0  0  0  0  0  0  0  0  0  0
  162.9640  206.0640  152.1470 O   0  0  0  0  0  0  0  0  0  0  0  0
  161.3370  204.4350  148.0190 C   0  0  0  0  0  0  0  0  0  0  0  0
  161.1300  201.0520  149.1070 C   0  0  0  0  0  1  0  0  0  0  0  0
  161.1610  203.4210  149.9180 C   0  0  0  0  0  0  0  0  0  0  0  0
  161.2210  204.6240  149.3500 C   0  0  2  0  0  3  0  0  0  0  0  0
  161.0880  206.7990  147.7360 C   0  0  0  0  0  3  0  0  0  0  0  0
  161.2790  205.5180  147.1500 C   0  0  0  0  0  3  0  0  0  0  0  0
  160.7150  205.7720  151.4700 C   0  0  0  0  0  0  0  0  0  0  0  0
  161.3500  203.1060  147.7580 N   0  0  0  0  0  0  0  0  0  0  0  0
  161.2380  202.4930  148.9410 N   0  0  0  0  0  0  0  0  0  0  0  0
  160.5460  204.3320  152.0090 C   0  0  0  0  0  3  0  0  0  0  0  0
  160.7640  203.2620  151.2830 N   0  0  0  0  0  0  0  0  0  0  0  0
  160.9670  205.8140  149.9720 C   0  0  0  0  0  0  0  0  0  0  0  0
  160.9190  206.9500  149.1420 C   0  0  0  0  0  3  0  0  0  0  0  0
  160.3820  208.4870  152.4070 C   0  0  0  0  0  2  0  0  0  0  0  0
  160.7960  209.9120  152.2430 C   0  0  0  0  0  3  0  0  0  0  0  0
  159.9010  210.8850  152.3870 C   0  0  0  0  0  3  0  0  0  0  0  0
  160.2900  212.3240  152.2480 C   0  0  0  0  0  2  0  0  0  0  0  0
  159.3410  213.0650  151.3190 C   0  0  0  0  0  2  0  0  0  0  0  0
  160.1250  213.8680  150.3010 C   0  0  0  0  0  2  0  0  0  0  0  0
  160.7230  213.0080  149.3830 O   0  0  0  0  0  0  0  0  0  0  0  0
  161.5750  213.8210  148.6300 C   0  0  0  0  0  2  0  0  0  0  0  0
  160.0200  214.0920  146.8620 O   0  0  0  0  0  0  0  0  0  0  0  0
  161.9130  213.2140  144.7980 C   0  0  0  0  0  0  0  0  0  0  0  0
  162.8680  212.8750  144.0520 O   0  0  0  0  0  0  0  0  0  0  0  0
  161.1970  213.7840  147.1880 C   0  0  0  0  0  0  0  0  0  0  0  0
  162.1450  213.3520  146.2050 N   0  0  0  0  0  2  0  0  0  0  0  0
  160.5660  213.4230  144.1900 C   0  0  0  0  0  2  0  0  0  0  0  0
  159.9670  212.0880  143.7920 C   0  0  0  0  0  1  0  0  0  0  0  0
  1 31  1  6  0  0  0
  1  3  1  0  0  0  0
  3  2  1  6  0  0  0
  3  5  1  0  0  0  0
  5  6  1  0  0  0  0
  5  4  1  1  0  0  0
  6  7  1  0  0  0  0
  8  9  1  0  0  0  0
 10 14  1  0  0  0  0
 11  8  2  0  0  0  0
 11 15  1  0  0  0  0
 12 11  1  0  0  0  0
 13  9  1  0  0  0  0
 14  7  1  0  0  0  0
 14 13  2  0  0  0  0
 15 10  2  0  0  0  0
 16  1  1  0  0  0  0
 17 16  2  0  0  0  0
 20 28  2  0  0  0  0
 21 18  1  6  0  0  0
 21 20  1  0  0  0  0
 21 29  1  0  0  0  0
 22 30  1  0  0  0  0
 23 22  2  0  0  0  0
 23 18  1  0  0  0  0
 24 27  2  0  0  0  0
 24 16  1  0  0  0  0
 25 18  2  0  0  0  0
 25 26  1  0  0  0  0
 26 19  1  0  0  0  0
 26 20  1  0  0  0  0
 28 27  1  0  0  0  0
 29 24  1  0  0  0  0
 30 29  2  0  0  0  0
 32 33  2  0  0  0  0
 32 31  1  0  0  0  0
 34 33  1  0  0  0  0
 35 34  1  0  0  0  0
 36 35  1  0  0  0  0
 37 36  1  0  0  0  0
 38 37  1  0  0  0  0
 39 42  2  0  0  0  0
 40 43  1  0  0  0  0
 41 40  2  0  0  0  0
 42 38  1  0  0  0  0
 43 42  1  0  0  0  0
 44 40  1  0  0  0  0
 45 44  1  0  0  0  0
M  END
>  <MODEL>
3

>  <REMARK>
 VINA RESULT:      -8.2      3.293      8.361
  Name = 
  16 active torsions:
  status: ('A' for Active; 'I' for Inactive)
    1  A    between atoms: C_1  and  C_22
    2  A    between atoms: C_1  and  C_24
    3  A    between atoms: C_3  and  C_18
    4  A    between atoms: C_3  and  C_40
    5  A    between atoms: C_7  and  C_32
    6  A    between atoms: C_7  and  O_36
    7  A    between atoms: C_11  and  C_31
    8  A    between atoms: C_16  and  C_20
    9  A    between atoms: C_16  and  C_38
   10  A    between atoms: C_19  and  C_40
   11  A    between atoms: C_19  and  C_41
   12  A    between atoms: C_20  and  C_41
   13  A    between atoms: C_21  and  C_22
   14  A    between atoms: C_21  and  O_36
   15  A    between atoms: C_23  and  C_29
   16  A    between atoms: C_29  and  C_40
                            x       y       z     vdW  Elec       q    Type
                         _______ _______ _______ _____ _____    ______ ____

>  <TORSDO>
F 16

$$$$
=
 OpenBabel11042420413D

 45 48  0  0  1  0  0  0  0  0999 V2000
  162.2010  208.6210  151.1680 C   0  0  1  0  0  3  0  0  0  0  0  0
  160.4410  208.2010  152.7530 O   0  0  0  0  0  1  0  0  0  0  0  0
  161.6720  208.8490  152.5960 C   0  0  2  0  0  3  0  0  0  0  0  0
  162.0290  210.6780  154.1970 N   0  0  0  0  0  1  0  0  0  0  0  0
  161.5070  210.3510  152.8810 C   0  0  2  0  0  3  0  0  0  0  0  0
  160.0390  210.7670  152.8080 C   0  0  0  0  0  2  0  0  0  0  0  0
  159.8640  212.1900  153.3130 C   0  0  0  0  0  2  0  0  0  0  0  0
  158.1360  213.6790  149.4680 C   0  0  0  0  0  3  0  0  0  0  0  0
  159.4920  214.0370  149.9720 C   0  0  0  0  0  2  0  0  0  0  0  0
  158.0120  213.7550  152.5420 C   0  0  0  0  0  3  0  0  0  0  0  0
  157.0360  213.7140  150.2270 C   0  0  0  0  0  0  0  0  0  0  0  0
  155.8430  213.4810  149.6330 F   0  0  0  0  0  0  0  0  0  0  0  0
  159.9240  213.1400  151.0850 C   0  0  0  0  0  3  0  0  0  0  0  0
  159.2710  213.0410  152.2450 C   0  0  0  0  0  0  0  0  0  0  0  0
  157.0410  214.0480  151.6650 C   0  0  0  0  0  3  0  0  0  0  0  0
  162.2400  207.1620  150.8040 C   0  0  0  0  0  0  0  0  0  0  0  0
  163.2390  206.5070  151.0670 O   0  0  0  0  0  0  0  0  0  0  0  0
  161.6460  203.9880  147.4030 C   0  0  0  0  0  0  0  0  0  0  0  0
  160.4300  201.3040  149.3990 C   0  0  0  0  0  1  0  0  0  0  0  0
  161.0170  203.7380  149.4530 C   0  0  0  0  0  0  0  0  0  0  0  0
  161.4540  204.6350  148.5710 C   0  0  2  0  0  3  0  0  0  0  0  0
  162.0720  206.1120  146.3830 C   0  0  0  0  0  3  0  0  0  0  0  0
  161.9680  204.7000  146.2530 C   0  0  0  0  0  3  0  0  0  0  0  0
  161.0690  206.5100  150.1210 C   0  0  0  0  0  0  0  0  0  0  0  0
  161.3270  202.6810  147.5590 N   0  0  0  0  0  0  0  0  0  0  0  0
  160.9380  202.5430  148.8310 N   0  0  0  0  0  0  0  0  0  0  0  0
  160.4670  205.4110  151.0280 C   0  0  0  0  0  3  0  0  0  0  0  0
  160.4590  204.1390  150.7080 N   0  0  0  0  0  0  0  0  0  0  0  0
  161.4700  205.9890  148.7500 C   0  0  0  0  0  0  0  0  0  0  0  0
  161.8110  206.7600  147.6240 C   0  0  0  0  0  3  0  0  0  0  0  0
  161.3940  209.3890  150.1280 C   0  0  0  0  0  2  0  0  0  0  0  0
  162.3220  210.1740  149.2630 C   0  0  0  0  0  3  0  0  0  0  0  0
  161.9980  211.4090  148.8910 C   0  0  0  0  0  3  0  0  0  0  0  0
  162.9160  212.2290  148.0390 C   0  0  0  0  0  2  0  0  0  0  0  0
  162.4950  213.6900  148.0210 C   0  0  0  0  0  2  0  0  0  0  0  0
  162.1860  214.1280  146.6040 C   0  0  0  0  0  2  0  0  0  0  0  0
  162.3940  213.0660  145.7270 O   0  0  0  0  0  0  0  0  0  0  0  0
  161.2790  213.0710  144.8850 C   0  0  0  0  0  2  0  0  0  0  0  0
  162.8470  212.8020  143.1290 O   0  0  0  0  0  0  0  0  0  0  0  0
  160.8710  211.6890  141.2660 C   0  0  0  0  0  0  0  0  0  0  0  0
  159.9110  211.1780  140.6330 O   0  0  0  0  0  0  0  0  0  0  0  0
  161.6580  212.6380  143.5090 C   0  0  0  0  0  0  0  0  0  0  0  0
  160.6690  212.0970  142.6250 N   0  0  0  0  0  2  0  0  0  0  0  0
  162.1720  211.8840  140.5620 C   0  0  0  0  0  2  0  0  0  0  0  0
  162.7470  210.5410  140.1580 C   0  0  0  0  0  1  0  0  0  0  0  0
  1 31  1  6  0  0  0
  1  3  1  0  0  0  0
  3  2  1  6  0  0  0
  3  5  1  0  0  0  0
  5  4  1  1  0  0  0
  6  5  1  0  0  0  0
  6  7  1  0  0  0  0
  8  9  1  0  0  0  0
  8 11  2  0  0  0  0
  9 13  1  0  0  0  0
 11 15  1  0  0  0  0
 12 11  1  0  0  0  0
 13 14  2  0  0  0  0
 14 10  1  0  0  0  0
 14  7  1  0  0  0  0
 15 10  2  0  0  0  0
 16 17  2  0  0  0  0
 16  1  1  0  0  0  0
 18 25  2  0  0  0  0
 20 28  2  0  0  0  0
 21 18  1  6  0  0  0
 21 29  1  0  0  0  0
 21 20  1  0  0  0  0
 22 30  1  0  0  0  0
 23 22  2  0  0  0  0
 23 18  1  0  0  0  0
 24 16  1  0  0  0  0
 24 27  2  0  0  0  0
 25 26  1  0  0  0  0
 26 19  1  0  0  0  0
 26 20  1  0  0  0  0
 28 27  1  0  0  0  0
 29 24  1  0  0  0  0
 30 29  2  0  0  0  0
 32 31  1  0  0  0  0
 33 32  2  0  0  0  0
 34 33  1  0  0  0  0
 35 34  1  0  0  0  0
 36 35  1  0  0  0  0
 37 36  1  0  0  0  0
 38 37  1  0  0  0  0
 39 42  2  0  0  0  0
 40 43  1  0  0  0  0
 41 40  2  0  0  0  0
 42 38  1  0  0  0  0
 43 42  1  0  0  0  0
 44 40  1  0  0  0  0
 45 44  1  0  0  0  0
M  END
>  <MODEL>
4

>  <REMARK>
 VINA RESULT:      -8.0      2.846      7.616
  Name = 
  16 active torsions:
  status: ('A' for Active; 'I' for Inactive)
    1  A    between atoms: C_1  and  C_22
    2  A    between atoms: C_1  and  C_24
    3  A    between atoms: C_3  and  C_18
    4  A    between atoms: C_3  and  C_40
    5  A    between atoms: C_7  and  C_32
    6  A    between atoms: C_7  and  O_36
    7  A    between atoms: C_11  and  C_31
    8  A    between atoms: C_16  and  C_20
    9  A    between atoms: C_16  and  C_38
   10  A    between atoms: C_19  and  C_40
   11  A    between atoms: C_19  and  C_41
   12  A    between atoms: C_20  and  C_41
   13  A    between atoms: C_21  and  C_22
   14  A    between atoms: C_21  and  O_36
   15  A    between atoms: C_23  and  C_29
   16  A    between atoms: C_29  and  C_40
                            x       y       z     vdW  Elec       q    Type
                         _______ _______ _______ _____ _____    ______ ____

>  <TORSDO>
F 16

$$$$
=
 OpenBabel11042420413D

 45 48  0  0  1  0  0  0  0  0999 V2000
  161.9000  208.7840  150.8460 C   0  0  1  0  0  3  0  0  0  0  0  0
  160.6000  210.5020  151.9150 O   0  0  0  0  0  1  0  0  0  0  0  0
  160.8940  209.1340  151.9580 C   0  0  2  0  0  3  0  0  0  0  0  0
  160.6530  207.7370  153.9640 N   0  0  0  0  0  1  0  0  0  0  0  0
  161.4620  208.7690  153.3400 C   0  0  2  0  0  3  0  0  0  0  0  0
  161.5070  209.9910  154.2550 C   0  0  0  0  0  2  0  0  0  0  0  0
  160.4650  209.8690  155.3540 C   0  0  0  0  0  2  0  0  0  0  0  0
  158.6060  213.8380  154.4650 C   0  0  0  0  0  3  0  0  0  0  0  0
  159.4140  213.5440  155.6830 C   0  0  0  0  0  2  0  0  0  0  0  0
  158.1380  210.8920  155.2220 C   0  0  0  0  0  3  0  0  0  0  0  0
  157.6330  213.0380  154.0170 C   0  0  0  0  0  0  0  0  0  0  0  0
  156.8890  213.4630  152.9700 F   0  0  0  0  0  0  0  0  0  0  0  0
  160.1770  212.2680  155.5470 C   0  0  0  0  0  3  0  0  0  0  0  0
  159.5960  211.0790  155.3700 C   0  0  0  0  0  0  0  0  0  0  0  0
  157.2850  211.7430  154.6350 C   0  0  0  0  0  3  0  0  0  0  0  0
  162.0370  207.2980  150.6520 C   0  0  0  0  0  0  0  0  0  0  0  0
  163.1010  206.7570  150.9150 O   0  0  0  0  0  0  0  0  0  0  0  0
  161.4530  203.8780  147.4960 C   0  0  0  0  0  0  0  0  0  0  0  0
  160.7740  201.2030  149.7440 C   0  0  0  0  0  1  0  0  0  0  0  0
  161.0800  203.6860  149.6140 C   0  0  0  0  0  0  0  0  0  0  0  0
  161.3140  204.5700  148.6470 C   0  0  2  0  0  3  0  0  0  0  0  0
  161.5210  205.9700  146.3330 C   0  0  0  0  0  3  0  0  0  0  0  0
  161.5670  204.5510  146.2850 C   0  0  0  0  0  3  0  0  0  0  0  0
  160.8820  206.4830  150.1370 C   0  0  0  0  0  0  0  0  0  0  0  0
  161.3060  202.5570  147.7500 N   0  0  0  0  0  0  0  0  0  0  0  0
  161.0730  202.4540  149.0630 N   0  0  0  0  0  0  0  0  0  0  0  0
  160.5110  205.3810  151.1580 C   0  0  0  0  0  3  0  0  0  0  0  0
  160.6160  204.0990  150.9030 N   0  0  0  0  0  0  0  0  0  0  0  0
  161.1920  205.9260  148.7570 C   0  0  0  0  0  0  0  0  0  0  0  0
  161.3200  206.6610  147.5640 C   0  0  0  0  0  3  0  0  0  0  0  0
  161.5410  209.4440  149.5200 C   0  0  0  0  0  2  0  0  0  0  0  0
  162.3490  210.6890  149.3530 C   0  0  0  0  0  3  0  0  0  0  0  0
  162.0650  211.5370  148.3700 C   0  0  0  0  0  3  0  0  0  0  0  0
  162.8440  212.8030  148.1880 C   0  0  0  0  0  2  0  0  0  0  0  0
  162.6120  213.4000  146.8090 C   0  0  0  0  0  2  0  0  0  0  0  0
  161.1790  213.8730  146.6770 C   0  0  0  0  0  2  0  0  0  0  0  0
  160.8440  213.9930  145.3300 O   0  0  0  0  0  0  0  0  0  0  0  0
  160.5110  212.6970  144.9260 C   0  0  0  0  0  2  0  0  0  0  0  0
  162.3640  212.6490  143.4500 O   0  0  0  0  0  0  0  0  0  0  0  0
  160.8190  211.5110  141.2290 C   0  0  0  0  0  0  0  0  0  0  0  0
  160.0210  210.9710  140.4190 O   0  0  0  0  0  0  0  0  0  0  0  0
  161.1450  212.3770  143.6150 C   0  0  0  0  0  0  0  0  0  0  0  0
  160.3640  211.8200  142.5520 N   0  0  0  0  0  2  0  0  0  0  0  0
  162.1980  211.8420  140.7650 C   0  0  0  0  0  2  0  0  0  0  0  0
  162.7890  210.6620  140.0190 C   0  0  0  0  0  1  0  0  0  0  0  0
  1 31  1  6  0  0  0
  1  3  1  0  0  0  0
  3  2  1  1  0  0  0
  3  5  1  0  0  0  0
  5  4  1  1  0  0  0
  5  6  1  0  0  0  0
  6  7  1  0  0  0  0
  7 14  1  0  0  0  0
  8  9  1  0  0  0  0
 10 14  1  0  0  0  0
 11  8  2  0  0  0  0
 11 15  1  0  0  0  0
 12 11  1  0  0  0  0
 13  9  1  0  0  0  0
 14 13  2  0  0  0  0
 15 10  2  0  0  0  0
 16  1  1  0  0  0  0
 16 17  2  0  0  0  0
 18 25  2  0  0  0  0
 20 28  2  0  0  0  0
 21 18  1  6  0  0  0
 21 29  1  0  0  0  0
 21 20  1  0  0  0  0
 22 30  1  0  0  0  0
 23 22  2  0  0  0  0
 23 18  1  0  0  0  0
 24 16  1  0  0  0  0
 24 27  2  0  0  0  0
 25 26  1  0  0  0  0
 26 20  1  0  0  0  0
 26 19  1  0  0  0  0
 28 27  1  0  0  0  0
 29 24  1  0  0  0  0
 30 29  2  0  0  0  0
 32 31  1  0  0  0  0
 33 32  2  0  0  0  0
 34 33  1  0  0  0  0
 35 34  1  0  0  0  0
 36 35  1  0  0  0  0
 37 36  1  0  0  0  0
 38 37  1  0  0  0  0
 39 42  2  0  0  0  0
 40 43  1  0  0  0  0
 41 40  2  0  0  0  0
 42 38  1  0  0  0  0
 43 42  1  0  0  0  0
 44 40  1  0  0  0  0
 45 44  1  0  0  0  0
M  END
>  <MODEL>
5

>  <REMARK>
 VINA RESULT:      -7.6      2.813      7.787
  Name = 
  16 active torsions:
  status: ('A' for Active; 'I' for Inactive)
    1  A    between atoms: C_1  and  C_22
    2  A    between atoms: C_1  and  C_24
    3  A    between atoms: C_3  and  C_18
    4  A    between atoms: C_3  and  C_40
    5  A    between atoms: C_7  and  C_32
    6  A    between atoms: C_7  and  O_36
    7  A    between atoms: C_11  and  C_31
    8  A    between atoms: C_16  and  C_20
    9  A    between atoms: C_16  and  C_38
   10  A    between atoms: C_19  and  C_40
   11  A    between atoms: C_19  and  C_41
   12  A    between atoms: C_20  and  C_41
   13  A    between atoms: C_21  and  C_22
   14  A    between atoms: C_21  and  O_36
   15  A    between atoms: C_23  and  C_29
   16  A    between atoms: C_29  and  C_40
                            x       y       z     vdW  Elec       q    Type
                         _______ _______ _______ _____ _____    ______ ____

>  <TORSDO>
F 16

$$$$
=
 OpenBabel11042420413D

 45 48  0  0  1  0  0  0  0  0999 V2000
  161.6130  210.1560  149.7480 C   0  0  1  0  0  3  0  0  0  0  0  0
  161.5890  208.8620  147.7200 O   0  0  0  0  0  1  0  0  0  0  0  0
  162.0990  208.8870  149.0230 C   0  0  2  0  0  3  0  0  0  0  0  0
  162.6960  207.1780  150.6830 N   0  0  0  0  0  1  0  0  0  0  0  0
  161.6520  207.6240  149.7780 C   0  0  2  0  0  3  0  0  0  0  0  0
  161.3150  206.4940  148.8080 C   0  0  0  0  0  2  0  0  0  0  0  0
  160.8720  205.2550  149.5690 C   0  0  0  0  0  2  0  0  0  0  0  0
  160.5950  201.3950  147.3300 C   0  0  0  0  0  3  0  0  0  0  0  0
  161.2320  201.5430  148.6700 C   0  0  0  0  0  2  0  0  0  0  0  0
  161.8540  204.1990  147.4720 C   0  0  0  0  0  3  0  0  0  0  0  0
  160.8320  202.2220  146.3070 C   0  0  0  0  0  0  0  0  0  0  0  0
  160.2890  201.9220  145.1050 F   0  0  0  0  0  0  0  0  0  0  0  0
  160.8790  202.8460  149.3090 C   0  0  0  0  0  3  0  0  0  0  0  0
  161.1870  204.0320  148.7800 C   0  0  0  0  0  0  0  0  0  0  0  0
  161.7000  203.4120  146.3980 C   0  0  0  0  0  3  0  0  0  0  0  0
  161.7560  210.0460  151.2420 C   0  0  0  0  0  0  0  0  0  0  0  0
  162.8740  209.9730  151.7310 O   0  0  0  0  0  0  0  0  0  0  0  0
  160.8250  208.8220  155.6720 C   0  0  0  0  0  0  0  0  0  0  0  0
  160.2430  212.0730  157.0010 C   0  0  0  0  0  1  0  0  0  0  0  0
  160.6120  210.8140  154.8670 C   0  0  0  0  0  0  0  0  0  0  0  0
  160.7970  209.5400  154.5290 C   0  0  0  0  0  0  0  0  0  0  0  0
  160.8650  206.8360  154.3360 C   0  0  0  0  0  3  0  0  0  0  0  0
  160.8640  207.4330  155.6250 C   0  0  0  0  0  3  0  0  0  0  0  0
  160.5410  210.0230  152.1280 C   0  0  2  0  0  3  0  0  0  0  0  0
  160.6580  209.6560  156.7260 N   0  0  0  0  0  0  0  0  0  0  0  0
  160.5250  210.8830  156.2120 N   0  0  0  0  0  0  0  0  0  0  0  0
  160.2170  211.4510  152.6260 C   0  0  0  0  0  3  0  0  0  0  0  0
  160.2630  211.8000  153.8890 N   0  0  0  0  0  0  0  0  0  0  0  0
  160.7250  209.0300  153.2640 C   0  0  0  0  0  0  0  0  0  0  0  0
  160.7820  207.6280  153.1550 C   0  0  0  0  0  3  0  0  0  0  0  0
  162.3290  211.4070  149.2530 C   0  0  0  0  0  2  0  0  0  0  0  0
  161.3270  212.3580  148.6870 C   0  0  0  0  0  3  0  0  0  0  0  0
  160.9050  212.2090  147.4350 C   0  0  0  0  0  3  0  0  0  0  0  0
  159.8870  213.1350  146.8440 C   0  0  0  0  0  2  0  0  0  0  0  0
  158.4750  212.6210  147.0730 C   0  0  0  0  0  2  0  0  0  0  0  0
  157.5820  213.7430  147.5620 C   0  0  0  0  0  2  0  0  0  0  0  0
  157.5440  213.7420  148.9540 O   0  0  0  0  0  0  0  0  0  0  0  0
  156.3330  214.3600  149.2820 C   0  0  0  0  0  2  0  0  0  0  0  0
  154.8900  214.1210  151.1450 O   0  0  0  0  0  0  0  0  0  0  0  0
  157.0570  214.3780  153.1090 C   0  0  0  0  0  0  0  0  0  0  0  0
  158.1100  214.4450  153.7950 O   0  0  0  0  0  0  0  0  0  0  0  0
  156.0760  214.2660  150.7470 C   0  0  0  0  0  0  0  0  0  0  0  0
  157.1560  214.3930  151.6790 N   0  0  0  0  0  2  0  0  0  0  0  0
  155.7430  214.3210  153.8140 C   0  0  0  0  0  2  0  0  0  0  0  0
  155.8400  213.3980  155.0120 C   0  0  0  0  0  1  0  0  0  0  0  0
  1 31  1  6  0  0  0
  1 16  1  0  0  0  0
  3  2  1  6  0  0  0
  3  1  1  0  0  0  0
  3  5  1  0  0  0  0
  5  4  1  1  0  0  0
  6  7  1  0  0  0  0
  6  5  1  0  0  0  0
  8  9  1  0  0  0  0
  9 13  1  0  0  0  0
 10 14  1  0  0  0  0
 11 15  1  0  0  0  0
 11  8  2  0  0  0  0
 12 11  1  0  0  0  0
 14 13  2  0  0  0  0
 14  7  1  0  0  0  0
 15 10  2  0  0  0  0
 16 17  2  0  0  0  0
 18 25  2  0  0  0  0
 20 26  1  0  0  0  0
 21 20  2  0  0  0  0
 21 18  1  0  0  0  0
 22 23  2  0  0  0  0
 23 18  1  0  0  0  0
 24 16  1  1  0  0  0
 24 27  1  0  0  0  0
 24 29  1  0  0  0  0
 26 25  1  0  0  0  0
 26 19  1  0  0  0  0
 27 28  2  0  0  0  0
 28 20  1  0  0  0  0
 29 21  1  0  0  0  0
 30 29  2  0  0  0  0
 30 22  1  0  0  0  0
 32 31  1  0  0  0  0
 33 32  2  0  0  0  0
 34 35  1  0  0  0  0
 34 33  1  0  0  0  0
 35 36  1  0  0  0  0
 36 37  1  0  0  0  0
 37 38  1  0  0  0  0
 38 42  1  0  0  0  0
 40 41  2  0  0  0  0
 40 44  1  0  0  0  0
 42 39  2  0  0  0  0
 42 43  1  0  0  0  0
 43 40  1  0  0  0  0
 44 45  1  0  0  0  0
M  END
>  <MODEL>
6

>  <REMARK>
 VINA RESULT:      -7.6      3.280      5.687
  Name = 
  16 active torsions:
  status: ('A' for Active; 'I' for Inactive)
    1  A    between atoms: C_1  and  C_22
    2  A    between atoms: C_1  and  C_24
    3  A    between atoms: C_3  and  C_18
    4  A    between atoms: C_3  and  C_40
    5  A    between atoms: C_7  and  C_32
    6  A    between atoms: C_7  and  O_36
    7  A    between atoms: C_11  and  C_31
    8  A    between atoms: C_16  and  C_20
    9  A    between atoms: C_16  and  C_38
   10  A    between atoms: C_19  and  C_40
   11  A    between atoms: C_19  and  C_41
   12  A    between atoms: C_20  and  C_41
   13  A    between atoms: C_21  and  C_22
   14  A    between atoms: C_21  and  O_36
   15  A    between atoms: C_23  and  C_29
   16  A    between atoms: C_29  and  C_40
                            x       y       z     vdW  Elec       q    Type
                         _______ _______ _______ _____ _____    ______ ____

>  <TORSDO>
F 16

$$$$
=
 OpenBabel11042420413D

 45 48  0  0  1  0  0  0  0  0999 V2000
  161.6280  207.9490  150.7750 C   0  0  1  0  0  3  0  0  0  0  0  0
  162.4570  209.9560  151.8110 O   0  0  0  0  0  1  0  0  0  0  0  0
  162.3420  209.2980  150.5800 C   0  0  2  0  0  3  0  0  0  0  0  0
  161.7410  209.6980  148.2320 N   0  0  0  0  0  1  0  0  0  0  0  0
  161.5690  210.1850  149.5890 C   0  0  2  0  0  3  0  0  0  0  0  0
  162.0420  211.6350  149.6640 C   0  0  0  0  0  2  0  0  0  0  0  0
  160.9080  212.5830  149.3100 C   0  0  0  0  0  2  0  0  0  0  0  0
  162.3440  213.3200  145.1400 C   0  0  0  0  0  3  0  0  0  0  0  0
  162.6820  214.1830  146.3080 C   0  0  0  0  0  2  0  0  0  0  0  0
  159.9420  213.2870  147.0630 C   0  0  0  0  0  3  0  0  0  0  0  0
  161.1060  212.8970  144.8700 C   0  0  0  0  0  0  0  0  0  0  0  0
  160.9000  212.2160  143.7200 F   0  0  0  0  0  0  0  0  0  0  0  0
  162.3530  213.5160  147.6030 C   0  0  0  0  0  3  0  0  0  0  0  0
  161.1180  213.1430  147.9460 C   0  0  0  0  0  0  0  0  0  0  0  0
  159.9370  213.1810  145.7270 C   0  0  0  0  0  3  0  0  0  0  0  0
  161.8190  207.0300  149.5990 C   0  0  0  0  0  0  0  0  0  0  0  0
  162.8790  207.0500  148.9910 O   0  0  0  0  0  0  0  0  0  0  0  0
  161.2940  203.6980  146.3410 C   0  0  0  0  0  0  0  0  0  0  0  0
  161.2060  200.8670  148.4970 C   0  0  0  0  0  1  0  0  0  0  0  0
  161.1920  203.3720  148.4730 C   0  0  0  0  0  0  0  0  0  0  0  0
  161.2050  204.3180  147.5360 C   0  0  2  0  0  3  0  0  0  0  0  0
  160.9740  205.8280  145.2960 C   0  0  0  0  0  3  0  0  0  0  0  0
  161.1860  204.4290  145.1630 C   0  0  0  0  0  3  0  0  0  0  0  0
  160.7200  206.0970  149.1690 C   0  0  0  0  0  0  0  0  0  0  0  0
  161.3380  202.3590  146.5360 N   0  0  0  0  0  0  0  0  0  0  0  0
  161.2710  202.1730  147.8590 N   0  0  0  0  0  0  0  0  0  0  0  0
  160.6040  204.9160  150.1610 C   0  0  0  0  0  3  0  0  0  0  0  0
  160.8330  203.6700  149.8260 N   0  0  0  0  0  0  0  0  0  0  0  0
  160.9340  205.6420  147.7340 C   0  0  0  0  0  0  0  0  0  0  0  0
  160.8340  206.4360  146.5770 C   0  0  0  0  0  3  0  0  0  0  0  0
  162.0700  207.2460  152.0530 C   0  0  0  0  0  2  0  0  0  0  0  0
  160.9570  207.2810  153.0470 C   0  0  0  0  0  3  0  0  0  0  0  0
  161.1780  206.9080  154.3040 C   0  0  0  0  0  3  0  0  0  0  0  0
  160.0870  206.9500  155.3290 C   0  0  0  0  0  2  0  0  0  0  0  0
  160.0980  208.2640  156.0930 C   0  0  0  0  0  2  0  0  0  0  0  0
  161.5070  208.6000  156.5370 C   0  0  0  0  0  2  0  0  0  0  0  0
  161.9150  209.7930  155.9440 O   0  0  0  0  0  0  0  0  0  0  0  0
  161.2630  210.7960  156.6680 C   0  0  0  0  0  2  0  0  0  0  0  0
  160.1220  212.8200  156.2030 O   0  0  0  0  0  0  0  0  0  0  0  0
  159.5960  212.1140  153.4030 C   0  0  0  0  0  0  0  0  0  0  0  0
  159.5190  211.6730  152.2270 O   0  0  0  0  0  0  0  0  0  0  0  0
  160.5480  211.7260  155.7470 C   0  0  0  0  0  0  0  0  0  0  0  0
  160.3100  211.3520  154.3850 N   0  0  0  0  0  2  0  0  0  0  0  0
  158.9090  213.3960  153.7360 C   0  0  0  0  0  2  0  0  0  0  0  0
  157.4080  213.2270  153.6030 C   0  0  0  0  0  1  0  0  0  0  0  0
  1 31  1  1  0  0  0
  3  1  1  0  0  0  0
  3  2  1  1  0  0  0
  5  4  1  6  0  0  0
  5  6  1  0  0  0  0
  5  3  1  0  0  0  0
  7  6  1  0  0  0  0
  8  9  1  0  0  0  0
  9 13  1  0  0  0  0
 10 14  1  0  0  0  0
 11  8  2  0  0  0  0
 11 15  1  0  0  0  0
 12 11  1  0  0  0  0
 13 14  2  0  0  0  0
 14  7  1  0  0  0  0
 15 10  2  0  0  0  0
 16  1  1  0  0  0  0
 17 16  2  0  0  0  0
 18 25  2  0  0  0  0
 20 28  2  0  0  0  0
 21 18  1  6  0  0  0
 21 29  1  0  0  0  0
 21 20  1  0  0  0  0
 22 30  1  0  0  0  0
 23 22  2  0  0  0  0
 23 18  1  0  0  0  0
 24 16  1  0  0  0  0
 24 27  2  0  0  0  0
 25 26  1  0  0  0  0
 26 20  1  0  0  0  0
 26 19  1  0  0  0  0
 28 27  1  0  0  0  0
 29 24  1  0  0  0  0
 30 29  2  0  0  0  0
 31 32  1  0  0  0  0
 32 33  2  0  0  0  0
 33 34  1  0  0  0  0
 34 35  1  0  0  0  0
 35 36  1  0  0  0  0
 37 36  1  0  0  0  0
 37 38  1  0  0  0  0
 40 44  1  0  0  0  0
 40 43  1  0  0  0  0
 41 40  2  0  0  0  0
 42 39  2  0  0  0  0
 42 38  1  0  0  0  0
 43 42  1  0  0  0  0
 45 44  1  0  0  0  0
M  END
>  <MODEL>
7

>  <REMARK>
 VINA RESULT:      -7.5      3.460     10.084
  Name = 
  16 active torsions:
  status: ('A' for Active; 'I' for Inactive)
    1  A    between atoms: C_1  and  C_22
    2  A    between atoms: C_1  and  C_24
    3  A    between atoms: C_3  and  C_18
    4  A    between atoms: C_3  and  C_40
    5  A    between atoms: C_7  and  C_32
    6  A    between atoms: C_7  and  O_36
    7  A    between atoms: C_11  and  C_31
    8  A    between atoms: C_16  and  C_20
    9  A    between atoms: C_16  and  C_38
   10  A    between atoms: C_19  and  C_40
   11  A    between atoms: C_19  and  C_41
   12  A    between atoms: C_20  and  C_41
   13  A    between atoms: C_21  and  C_22
   14  A    between atoms: C_21  and  O_36
   15  A    between atoms: C_23  and  C_29
   16  A    between atoms: C_29  and  C_40
                            x       y       z     vdW  Elec       q    Type
                         _______ _______ _______ _____ _____    ______ ____

>  <TORSDO>
F 16

$$$$
=
 OpenBabel11042420413D

 45 48  0  0  1  0  0  0  0  0999 V2000
  161.4220  208.4490  151.7380 C   0  0  1  0  0  3  0  0  0  0  0  0
  163.0030  206.7460  151.1170 O   0  0  0  0  0  1  0  0  0  0  0  0
  161.9920  207.0500  152.0360 C   0  0  2  0  0  3  0  0  0  0  0  0
  160.9930  205.0630  153.0770 N   0  0  0  0  0  1  0  0  0  0  0  0
  160.8860  205.9840  151.9600 C   0  0  2  0  0  3  0  0  0  0  0  0
  160.9690  205.1980  150.6530 C   0  0  0  0  0  2  0  0  0  0  0  0
  160.4420  206.0330  149.4970 C   0  0  0  0  0  2  0  0  0  0  0  0
  161.3840  203.6580  145.8280 C   0  0  0  0  0  3  0  0  0  0  0  0
  162.2940  203.7840  147.0020 C   0  0  0  0  0  2  0  0  0  0  0  0
  160.9750  206.4540  147.0440 C   0  0  0  0  0  3  0  0  0  0  0  0
  160.7680  204.6990  145.2590 C   0  0  0  0  0  0  0  0  0  0  0  0
  160.0580  204.4800  144.1280 F   0  0  0  0  0  0  0  0  0  0  0  0
  161.5880  204.3420  148.1930 C   0  0  0  0  0  3  0  0  0  0  0  0
  161.0240  205.5520  148.2140 C   0  0  0  0  0  0  0  0  0  0  0  0
  160.8640  206.0840  145.7610 C   0  0  0  0  0  3  0  0  0  0  0  0
  160.9560  209.1500  152.9860 C   0  0  0  0  0  0  0  0  0  0  0  0
  160.2470  208.5480  153.7800 O   0  0  0  0  0  0  0  0  0  0  0  0
  158.7140  213.1810  153.8290 C   0  0  0  0  0  0  0  0  0  0  0  0
  159.5820  213.5540  157.2610 C   0  0  0  0  0  1  0  0  0  0  0  0
  160.0490  212.1940  155.2100 C   0  0  0  0  0  0  0  0  0  0  0  0
  159.6380  212.2040  153.9430 C   0  0  0  0  0  0  0  0  0  0  0  0
  158.7130  212.8010  151.4650 C   0  0  0  0  0  3  0  0  0  0  0  0
  158.2060  213.5210  152.5800 C   0  0  0  0  0  3  0  0  0  0  0  0
  161.3530  210.5750  153.2580 C   0  0  2  0  0  3  0  0  0  0  0  0
  158.5490  213.7820  155.0310 N   0  0  0  0  0  0  0  0  0  0  0  0
  159.3830  213.1630  155.8740 N   0  0  0  0  0  0  0  0  0  0  0  0
  161.8330  210.7250  154.7210 C   0  0  0  0  0  3  0  0  0  0  0  0
  161.2160  211.4680  155.6070 N   0  0  0  0  0  0  0  0  0  0  0  0
  160.2170  211.5230  152.9110 C   0  0  0  0  0  0  0  0  0  0  0  0
  159.7260  211.8120  151.6240 C   0  0  0  0  0  3  0  0  0  0  0  0
  162.4210  209.3290  150.9970 C   0  0  0  0  0  2  0  0  0  0  0  0
  161.8660  209.6870  149.6580 C   0  0  0  0  0  3  0  0  0  0  0  0
  161.9400  210.9410  149.2220 C   0  0  0  0  0  3  0  0  0  0  0  0
  161.4100  211.3270  147.8760 C   0  0  0  0  0  2  0  0  0  0  0  0
  161.3240  212.8380  147.7300 C   0  0  0  0  0  2  0  0  0  0  0  0
  162.6320  213.3880  147.1980 C   0  0  0  0  0  2  0  0  0  0  0  0
  162.7540  213.0850  145.8440 O   0  0  0  0  0  0  0  0  0  0  0  0
  161.6570  213.7040  145.2370 C   0  0  0  0  0  2  0  0  0  0  0  0
  160.1320  212.5830  143.8120 O   0  0  0  0  0  0  0  0  0  0  0  0
  162.1280  212.1150  141.7120 C   0  0  0  0  0  0  0  0  0  0  0  0
  163.0910  212.0620  140.9030 O   0  0  0  0  0  0  0  0  0  0  0  0
  161.3050  213.0140  143.9620 C   0  0  0  0  0  0  0  0  0  0  0  0
  162.3030  212.8040  142.9560 N   0  0  0  0  0  2  0  0  0  0  0  0
  160.8530  211.4270  141.3560 C   0  0  0  0  0  2  0  0  0  0  0  0
  161.1340  210.2740  140.4130 C   0  0  0  0  0  1  0  0  0  0  0  0
  1 31  1  1  0  0  0
  1  3  1  0  0  0  0
  1 16  1  0  0  0  0
  3  2  1  6  0  0  0
  5  3  1  0  0  0  0
  5  4  1  1  0  0  0
  6  5  1  0  0  0  0
  7  6  1  0  0  0  0
  8  9  1  0  0  0  0
  9 13  1  0  0  0  0
 10 14  1  0  0  0  0
 11 15  1  0  0  0  0
 11  8  2  0  0  0  0
 12 11  1  0  0  0  0
 13 14  2  0  0  0  0
 14  7  1  0  0  0  0
 15 10  2  0  0  0  0
 16 17  2  0  0  0  0
 18 21  1  0  0  0  0
 18 25  2  0  0  0  0
 20 28  1  0  0  0  0
 20 26  1  0  0  0  0
 21 20  2  0  0  0  0
 22 30  1  0  0  0  0
 22 23  2  0  0  0  0
 23 18  1  0  0  0  0
 24 16  1  1  0  0  0
 24 27  1  0  0  0  0
 25 26  1  0  0  0  0
 26 19  1  0  0  0  0
 27 28  2  0  0  0  0
 29 24  1  0  0  0  0
 29 21  1  0  0  0  0
 30 29  2  0  0  0  0
 32 31  1  0  0  0  0
 33 32  2  0  0  0  0
 34 33  1  0  0  0  0
 35 34  1  0  0  0  0
 36 35  1  0  0  0  0
 37 36  1  0  0  0  0
 38 37  1  0  0  0  0
 39 42  2  0  0  0  0
 40 43  1  0  0  0  0
 41 40  2  0  0  0  0
 42 38  1  0  0  0  0
 43 42  1  0  0  0  0
 44 40  1  0  0  0  0
 45 44  1  0  0  0  0
M  END
>  <MODEL>
8

>  <REMARK>
 VINA RESULT:      -7.4      1.628      2.651
  Name = 
  16 active torsions:
  status: ('A' for Active; 'I' for Inactive)
    1  A    between atoms: C_1  and  C_22
    2  A    between atoms: C_1  and  C_24
    3  A    between atoms: C_3  and  C_18
    4  A    between atoms: C_3  and  C_40
    5  A    between atoms: C_7  and  C_32
    6  A    between atoms: C_7  and  O_36
    7  A    between atoms: C_11  and  C_31
    8  A    between atoms: C_16  and  C_20
    9  A    between atoms: C_16  and  C_38
   10  A    between atoms: C_19  and  C_40
   11  A    between atoms: C_19  and  C_41
   12  A    between atoms: C_20  and  C_41
   13  A    between atoms: C_21  and  C_22
   14  A    between atoms: C_21  and  O_36
   15  A    between atoms: C_23  and  C_29
   16  A    between atoms: C_29  and  C_40
                            x       y       z     vdW  Elec       q    Type
                         _______ _______ _______ _____ _____    ______ ____

>  <TORSDO>
F 16

$$$$
=
 OpenBabel11042420413D

 45 48  0  0  1  0  0  0  0  0999 V2000
  160.5420  206.9820  153.9800 C   0  0  1  0  0  3  0  0  0  0  0  0
  159.0930  207.5570  155.8120 O   0  0  0  0  0  1  0  0  0  0  0  0
  160.4350  207.3460  155.4720 C   0  0  2  0  0  3  0  0  0  0  0  0
  162.3320  208.3000  156.7060 N   0  0  0  0  0  1  0  0  0  0  0  0
  161.2540  208.6090  155.7840 C   0  0  2  0  0  3  0  0  0  0  0  0
  160.3730  209.6990  156.3930 C   0  0  0  0  0  2  0  0  0  0  0  0
  160.6360  211.0340  155.7160 C   0  0  0  0  0  2  0  0  0  0  0  0
  156.9200  212.7060  153.8760 C   0  0  0  0  0  3  0  0  0  0  0  0
  158.1160  213.5190  154.2380 C   0  0  0  0  0  2  0  0  0  0  0  0
  158.2080  211.4360  156.3650 C   0  0  0  0  0  3  0  0  0  0  0  0
  156.3690  211.8030  154.6940 C   0  0  0  0  0  0  0  0  0  0  0  0
  155.2180  211.2090  154.3050 F   0  0  0  0  0  0  0  0  0  0  0  0
  159.3070  212.6620  154.5090 C   0  0  0  0  0  3  0  0  0  0  0  0
  159.3520  211.7500  155.4830 C   0  0  0  0  0  0  0  0  0  0  0  0
  156.9130  211.4590  156.0220 C   0  0  0  0  0  3  0  0  0  0  0  0
  160.6690  208.2000  153.1060 C   0  0  0  0  0  0  0  0  0  0  0  0
  159.7600  209.0180  153.0850 O   0  0  0  0  0  0  0  0  0  0  0  0
  161.5830  208.7410  148.5390 C   0  0  0  0  0  0  0  0  0  0  0  0
  162.4920  212.1820  148.5910 C   0  0  0  0  0  1  0  0  0  0  0  0
  161.9600  210.2250  150.0610 C   0  0  0  0  0  0  0  0  0  0  0  0
  161.6510  208.9440  149.8710 C   0  0  2  0  0  3  0  0  0  0  0  0
  161.3300  206.4020  148.9830 C   0  0  0  0  0  3  0  0  0  0  0  0
  161.4140  207.4570  148.0340 C   0  0  0  0  0  3  0  0  0  0  0  0
  161.8970  208.4150  152.2640 C   0  0  0  0  0  0  0  0  0  0  0  0
  161.8490  209.9030  147.8970 N   0  0  0  0  0  0  0  0  0  0  0  0
  162.0840  210.8100  148.8510 N   0  0  0  0  0  0  0  0  0  0  0  0
  162.3620  209.8870  152.3650 C   0  0  0  0  0  3  0  0  0  0  0  0
  162.3760  210.7080  151.3420 N   0  0  0  0  0  0  0  0  0  0  0  0
  161.6470  207.9720  150.8310 C   0  0  0  0  0  0  0  0  0  0  0  0
  161.4590  206.6530  150.3790 C   0  0  0  0  0  3  0  0  0  0  0  0
  161.6980  206.0280  153.7040 C   0  0  0  0  0  2  0  0  0  0  0  0
  161.1570  204.7180  153.2360 C   0  0  0  0  0  3  0  0  0  0  0  0
  161.6100  204.1790  152.1080 C   0  0  0  0  0  3  0  0  0  0  0  0
  161.1020  202.8570  151.6220 C   0  0  0  0  0  2  0  0  0  0  0  0
  160.6320  202.9430  150.1780 C   0  0  0  0  0  2  0  0  0  0  0  0
  160.4940  201.5540  149.5880 C   0  0  0  0  0  2  0  0  0  0  0  0
  161.5030  201.3380  148.6520 O   0  0  0  0  0  0  0  0  0  0  0  0
  160.8330  201.0930  147.4510 C   0  0  0  0  0  2  0  0  0  0  0  0
  160.1330  202.3590  145.5740 O   0  0  0  0  0  0  0  0  0  0  0  0
  162.1850  204.4230  145.9500 C   0  0  0  0  0  0  0  0  0  0  0  0
  163.0810  205.2350  146.3000 O   0  0  0  0  0  0  0  0  0  0  0  0
  160.9270  202.2760  146.5480 C   0  0  0  0  0  0  0  0  0  0  0  0
  161.9390  203.2670  146.7600 N   0  0  0  0  0  2  0  0  0  0  0  0
  161.4400  204.6790  144.6820 C   0  0  0  0  0  2  0  0  0  0  0  0
  160.4570  205.8160  144.8820 C   0  0  0  0  0  1  0  0  0  0  0  0
  1 31  1  1  0  0  0
  1  3  1  0  0  0  0
  3  5  1  0  0  0  0
  3  2  1  6  0  0  0
  5  6  1  0  0  0  0
  5  4  1  1  0  0  0
  7  6  1  0  0  0  0
  8  9  1  0  0  0  0
  8 11  2  0  0  0  0
  9 13  1  0  0  0  0
 11 15  1  0  0  0  0
 12 11  1  0  0  0  0
 13 14  2  0  0  0  0
 14  7  1  0  0  0  0
 14 10  1  0  0  0  0
 15 10  2  0  0  0  0
 16  1  1  0  0  0  0
 17 16  2  0  0  0  0
 19 26  1  0  0  0  0
 20 28  2  0  0  0  0
 21 18  1  6  0  0  0
 21 20  1  0  0  0  0
 21 29  1  0  0  0  0
 22 30  1  0  0  0  0
 23 18  1  0  0  0  0
 23 22  2  0  0  0  0
 24 27  2  0  0  0  0
 24 16  1  0  0  0  0
 25 18  2  0  0  0  0
 25 26  1  0  0  0  0
 26 20  1  0  0  0  0
 28 27  1  0  0  0  0
 29 24  1  0  0  0  0
 30 29  2  0  0  0  0
 32 31  1  0  0  0  0
 33 32  2  0  0  0  0
 34 33  1  0  0  0  0
 35 34  1  0  0  0  0
 36 35  1  0  0  0  0
 37 36  1  0  0  0  0
 38 37  1  0  0  0  0
 39 42  2  0  0  0  0
 40 41  2  0  0  0  0
 40 43  1  0  0  0  0
 42 43  1  0  0  0  0
 42 38  1  0  0  0  0
 44 45  1  0  0  0  0
 44 40  1  0  0  0  0
M  END
>  <MODEL>
9

>  <REMARK>
 VINA RESULT:      -7.3      4.219      9.011
  Name = 
  16 active torsions:
  status: ('A' for Active; 'I' for Inactive)
    1  A    between atoms: C_1  and  C_22
    2  A    between atoms: C_1  and  C_24
    3  A    between atoms: C_3  and  C_18
    4  A    between atoms: C_3  and  C_40
    5  A    between atoms: C_7  and  C_32
    6  A    between atoms: C_7  and  O_36
    7  A    between atoms: C_11  and  C_31
    8  A    between atoms: C_16  and  C_20
    9  A    between atoms: C_16  and  C_38
   10  A    between atoms: C_19  and  C_40
   11  A    between atoms: C_19  and  C_41
   12  A    between atoms: C_20  and  C_41
   13  A    between atoms: C_21  and  C_22
   14  A    between atoms: C_21  and  O_36
   15  A    between atoms: C_23  and  C_29
   16  A    between atoms: C_29  and  C_40
                            x       y       z     vdW  Elec       q    Type
                         _______ _______ _______ _____ _____    ______ ____

>  <TORSDO>
F 16

$$$$
