=
 OpenBabel11052410363D

 40 43  0  0  1  0  0  0  0  0999 V2000
  161.8110  208.5970  148.5160 N   0  0  0  0  0  0  0  0  0  0  0  0
  161.9020  209.3220  149.5950 C   0  0  0  0  0  0  0  0  0  0  0  0
  161.0730  206.6400  147.3730 C   0  0  0  0  0  2  0  0  0  0  0  0
  161.3920  208.8220  150.8910 C   0  0  0  0  0  0  0  0  0  0  0  0
  160.8410  206.6360  149.8210 C   0  0  1  0  0  3  0  0  0  0  0  0
  160.8800  207.5890  150.9890 C   0  0  0  0  0  3  0  0  0  0  0  0
  161.2460  207.2820  148.5200 C   0  0  0  0  0  0  0  0  0  0  0  0
  161.5180  205.4190  150.0840 O   0  0  0  0  0  0  0  0  0  0  0  0
  161.3200  202.3160  151.4530 C   0  0  1  0  0  3  0  0  0  0  0  0
  161.3050  202.2230  149.9460 C   0  0  0  0  0  2  0  0  0  0  0  0
  162.5410  201.8610  151.9450 O   0  0  0  0  0  1  0  0  0  0  0  0
  160.4340  203.3700  149.4900 C   0  0  0  0  0  2  0  0  0  0  0  0
  160.5940  204.4580  150.5370 C   0  0  1  0  0  3  0  0  0  0  0  0
  161.1430  203.7840  151.7840 C   0  0  0  0  0  2  0  0  0  0  0  0
  162.4720  210.5990  149.5420 O   0  0  0  0  0  0  0  0  0  0  0  0
  162.5050  211.3840  148.3540 C   0  0  0  0  0  2  0  0  0  0  0  0
  160.5090  211.7200  147.0700 O   0  0  0  0  0  1  0  0  0  0  0  0
  161.2100  212.1670  148.1940 C   0  0  2  0  0  3  0  0  0  0  0  0
  160.7610  214.2400  146.9880 N   0  0  0  0  0  1  0  0  0  0  0  0
  161.4860  213.6660  148.1080 C   0  0  2  0  0  3  0  0  0  0  0  0
  162.9690  213.9700  147.9660 C   0  0  0  0  0  1  0  0  0  0  0  0
  161.4300  209.6910  152.0290 N   0  0  0  0  0  2  0  0  0  0  0  0
  160.7250  210.7260  154.0930 C   0  0  0  0  0  0  0  0  0  0  0  0
  160.4180  211.9400  153.7330 N   0  0  0  0  0  0  0  0  0  0  0  0
  162.6140  210.8270  155.5700 N   0  0  0  0  0  1  0  0  0  0  0  0
  161.0130  208.6910  155.7770 S   0  0  0  0  0  0  0  0  0  0  0  0
  161.2110  210.4670  155.4690 C   0  0  2  0  0  3  0  0  0  0  0  0
  161.0590  208.3190  153.9970 C   0  0  0  0  0  2  0  0  0  0  0  0
  160.5860  209.5300  153.2080 C   0  0  2  0  0  3  0  0  0  0  0  0
  160.5560  212.5320  151.4600 O   0  0  0  0  0  0  0  0  0  0  0  0
  159.8410  212.3500  152.4830 C   0  0  0  0  0  0  0  0  0  0  0  0
  158.3600  212.5330  152.3720 C   0  0  2  0  0  3  0  0  0  0  0  0
  156.8810  214.1730  151.3420 N   0  0  0  0  0  1  0  0  0  0  0  0
  158.0130  213.2940  151.1030 C   0  0  0  0  0  2  0  0  0  0  0  0
  157.8540  213.2620  153.5280 N   0  0  0  0  0  2  0  0  0  0  0  0
  155.5730  213.6840  154.8730 S   0  0  0  0  0  0  0  0  0  0  0  0
  156.8490  212.7570  154.4180 C   0  0  0  0  0  0  0  0  0  0  0  0
  156.3520  211.4080  156.3010 O   0  0  0  0  0  0  0  0  0  0  0  0
  157.0570  211.4360  155.0820 C   0  0  2  0  0  3  0  0  0  0  0  0
  157.7400  211.6110  156.3840 C   0  0  0  0  0  2  0  0  0  0  0  0
  1  7  1  0  0  0  0
  1  2  2  0  0  0  0
  2  4  1  0  0  0  0
  3  7  2  0  0  0  0
  4  6  2  0  0  0  0
  4 22  1  0  0  0  0
  5  8  1  1  0  0  0
  5  6  1  0  0  0  0
  7  5  1  0  0  0  0
  9 14  1  0  0  0  0
  9 11  1  6  0  0  0
 10  9  1  0  0  0  0
 12 10  1  0  0  0  0
 12 13  1  0  0  0  0
 13  8  1  6  0  0  0
 13 14  1  0  0  0  0
 15  2  1  0  0  0  0
 16 15  1  0  0  0  0
 18 17  1  6  0  0  0
 18 16  1  0  0  0  0
 19 20  1  0  0  0  0
 20 21  1  6  0  0  0
 20 18  1  0  0  0  0
 23 27  1  0  0  0  0
 24 23  2  0  0  0  0
 27 25  1  6  0  0  0
 27 26  1  0  0  0  0
 28 26  1  0  0  0  0
 29 22  1  6  0  0  0
 29 28  1  0  0  0  0
 29 23  1  0  0  0  0
 30 31  2  0  0  0  0
 31 24  1  0  0  0  0
 32 34  1  6  0  0  0
 32 31  1  0  0  0  0
 32 35  1  0  0  0  0
 34 33  1  0  0  0  0
 35 37  1  0  0  0  0
 37 36  2  0  0  0  0
 38 40  1  0  0  0  0
 39 37  1  6  0  0  0
 39 38  1  0  0  0  0
 39 40  1  0  0  0  0
M  END
>  <MODEL>
1

>  <REMARK>
 VINA RESULT:      -6.3      0.000      0.000
  Name = 
  14 active torsions:
  status: ('A' for Active; 'I' for Inactive)
    1  A    between atoms: N_4  and  C_22
    2  A    between atoms: C_6  and  O_31
    3  A    between atoms: C_14  and  C_34
    4  A    between atoms: C_16  and  C_35
    5  A    between atoms: O_17  and  C_32
    6  A    between atoms: O_17  and  C_33
    7  A    between atoms: C_18  and  N_36
    8  A    between atoms: C_22  and  C_27
    9  A    between atoms: C_23  and  C_27
   10  A    between atoms: C_26  and  O_31
   11  A    between atoms: C_26  and  C_35
   12  A    between atoms: C_27  and  N_39
   13  A    between atoms: C_29  and  N_36
   14  A    between atoms: C_34  and  N_39
                            x       y       z     vdW  Elec       q    Type
                         _______ _______ _______ _____ _____    ______ ____

>  <TORSDO>
F 14

$$$$
=
 OpenBabel11052410363D

 40 43  0  0  1  0  0  0  0  0999 V2000
  162.0730  207.2450  150.8200 N   0  0  0  0  0  0  0  0  0  0  0  0
  161.8990  208.3030  150.0790 C   0  0  0  0  0  0  0  0  0  0  0  0
  161.8120  206.0740  152.8800 C   0  0  0  0  0  2  0  0  0  0  0  0
  161.2960  209.5320  150.6400 C   0  0  0  0  0  0  0  0  0  0  0  0
  161.2450  208.4670  152.8960 C   0  0  1  0  0  3  0  0  0  0  0  0
  160.9720  209.5990  151.9370 C   0  0  0  0  0  3  0  0  0  0  0  0
  161.7230  207.2130  152.2070 C   0  0  0  0  0  0  0  0  0  0  0  0
  162.0570  208.8580  153.9890 O   0  0  0  0  0  0  0  0  0  0  0  0
  162.2640  210.6870  156.8440 C   0  0  1  0  0  3  0  0  0  0  0  0
  162.1620  209.2170  157.1730 C   0  0  0  0  0  2  0  0  0  0  0  0
  163.5540  211.1440  157.1040 O   0  0  0  0  0  1  0  0  0  0  0  0
  161.1520  208.6650  156.1950 C   0  0  0  0  0  2  0  0  0  0  0  0
  161.2670  209.5210  154.9470 C   0  0  1  0  0  3  0  0  0  0  0  0
  161.9600  210.8080  155.3640 C   0  0  0  0  0  2  0  0  0  0  0  0
  162.2670  208.2880  148.7290 O   0  0  0  0  0  0  0  0  0  0  0  0
  162.4330  207.0860  147.9840 C   0  0  0  0  0  2  0  0  0  0  0  0
  160.3460  205.9250  148.1890 O   0  0  0  0  0  1  0  0  0  0  0  0
  161.1270  206.6860  147.3140 C   0  0  2  0  0  3  0  0  0  0  0  0
  160.2580  206.0760  145.1170 N   0  0  0  0  0  1  0  0  0  0  0  0
  161.3900  205.9280  146.0150 C   0  0  2  0  0  3  0  0  0  0  0  0
  161.6620  204.4520  146.2550 C   0  0  0  0  0  1  0  0  0  0  0  0
  161.0400  210.6370  149.7650 N   0  0  0  0  0  2  0  0  0  0  0  0
  161.1350  212.9650  149.1310 C   0  0  0  0  0  0  0  0  0  0  0  0
  160.1210  213.4910  149.7600 N   0  0  0  0  0  0  0  0  0  0  0  0
  160.7270  213.1200  146.7710 N   0  0  0  0  0  1  0  0  0  0  0  0
  163.2790  212.9520  147.5630 S   0  0  0  0  0  0  0  0  0  0  0  0
  161.5940  213.5550  147.8520 C   0  0  2  0  0  3  0  0  0  0  0  0
  162.9960  211.4900  148.6080 C   0  0  0  0  0  2  0  0  0  0  0  0
  161.9170  211.7960  149.6350 C   0  0  2  0  0  3  0  0  0  0  0  0
  160.3870  212.7570  151.9790 O   0  0  0  0  0  0  0  0  0  0  0  0
  159.6140  213.1110  151.0490 C   0  0  0  0  0  0  0  0  0  0  0  0
  158.1420  213.1680  151.3150 C   0  0  2  0  0  3  0  0  0  0  0  0
  156.8610  212.9290  149.2560 N   0  0  0  0  0  1  0  0  0  0  0  0
  157.4270  213.8920  150.1850 C   0  0  0  0  0  2  0  0  0  0  0  0
  157.8820  213.8570  152.5730 N   0  0  0  0  0  2  0  0  0  0  0  0
  155.3110  213.8970  153.3330 S   0  0  0  0  0  0  0  0  0  0  0  0
  156.8810  213.4540  153.5170 C   0  0  0  0  0  0  0  0  0  0  0  0
  158.2280  211.7580  154.4770 O   0  0  0  0  0  0  0  0  0  0  0  0
  157.2980  212.7720  154.7780 C   0  0  2  0  0  3  0  0  0  0  0  0
  156.9130  211.3420  154.7470 C   0  0  0  0  0  2  0  0  0  0  0  0
  1  7  1  0  0  0  0
  2  4  1  0  0  0  0
  2  1  2  0  0  0  0
  4  6  2  0  0  0  0
  5  8  1  1  0  0  0
  6  5  1  0  0  0  0
  7  3  2  0  0  0  0
  7  5  1  0  0  0  0
  9 11  1  6  0  0  0
  9 10  1  0  0  0  0
 12 10  1  0  0  0  0
 13  8  1  6  0  0  0
 13 14  1  0  0  0  0
 13 12  1  0  0  0  0
 14  9  1  0  0  0  0
 15  2  1  0  0  0  0
 16 15  1  0  0  0  0
 18 16  1  0  0  0  0
 18 17  1  1  0  0  0
 19 20  1  0  0  0  0
 20 21  1  1  0  0  0
 20 18  1  0  0  0  0
 22  4  1  0  0  0  0
 23 29  1  0  0  0  0
 23 24  2  0  0  0  0
 24 31  1  0  0  0  0
 26 27  1  0  0  0  0
 26 28  1  0  0  0  0
 27 25  1  6  0  0  0
 27 23  1  0  0  0  0
 28 29  1  0  0  0  0
 29 22  1  6  0  0  0
 31 32  1  0  0  0  0
 31 30  2  0  0  0  0
 32 34  1  6  0  0  0
 32 35  1  0  0  0  0
 33 34  1  0  0  0  0
 35 37  1  0  0  0  0
 36 37  2  0  0  0  0
 38 40  1  0  0  0  0
 38 39  1  0  0  0  0
 39 37  1  6  0  0  0
 40 39  1  0  0  0  0
M  END
>  <MODEL>
2

>  <REMARK>
 VINA RESULT:      -5.1      2.727      5.719
  Name = 
  14 active torsions:
  status: ('A' for Active; 'I' for Inactive)
    1  A    between atoms: N_4  and  C_22
    2  A    between atoms: C_6  and  O_31
    3  A    between atoms: C_14  and  C_34
    4  A    between atoms: C_16  and  C_35
    5  A    between atoms: O_17  and  C_32
    6  A    between atoms: O_17  and  C_33
    7  A    between atoms: C_18  and  N_36
    8  A    between atoms: C_22  and  C_27
    9  A    between atoms: C_23  and  C_27
   10  A    between atoms: C_26  and  O_31
   11  A    between atoms: C_26  and  C_35
   12  A    between atoms: C_27  and  N_39
   13  A    between atoms: C_29  and  N_36
   14  A    between atoms: C_34  and  N_39
                            x       y       z     vdW  Elec       q    Type
                         _______ _______ _______ _____ _____    ______ ____

>  <TORSDO>
F 14

$$$$
=
 OpenBabel11052410363D

 40 43  0  0  1  0  0  0  0  0999 V2000
  162.0340  208.3510  151.6700 N   0  0  0  0  0  0  0  0  0  0  0  0
  161.5880  209.4880  151.2140 C   0  0  0  0  0  0  0  0  0  0  0  0
  163.0250  206.2100  151.3290 C   0  0  0  0  0  2  0  0  0  0  0  0
  161.5370  209.7550  149.7600 C   0  0  0  0  0  0  0  0  0  0  0  0
  162.3110  207.4240  149.3130 C   0  0  1  0  0  3  0  0  0  0  0  0
  161.8940  208.8080  148.8820 C   0  0  0  0  0  3  0  0  0  0  0  0
  162.4710  207.2960  150.8080 C   0  0  0  0  0  0  0  0  0  0  0  0
  161.5090  206.4070  148.7400 O   0  0  0  0  0  0  0  0  0  0  0  0
  161.5290  205.0720  145.6160 C   0  0  1  0  0  3  0  0  0  0  0  0
  160.9180  204.0980  146.5950 C   0  0  0  0  0  2  0  0  0  0  0  0
  160.5380  205.6020  144.7930 O   0  0  0  0  0  1  0  0  0  0  0  0
  161.7690  204.2060  147.8380 C   0  0  0  0  0  2  0  0  0  0  0  0
  162.2930  205.6310  147.8650 C   0  0  1  0  0  3  0  0  0  0  0  0
  162.1510  206.1730  146.4510 C   0  0  0  0  0  2  0  0  0  0  0  0
  161.1630  210.4860  152.0980 O   0  0  0  0  0  0  0  0  0  0  0  0
  160.1140  210.2910  153.0400 C   0  0  0  0  0  2  0  0  0  0  0  0
  161.9120  210.5520  154.6040 O   0  0  0  0  0  1  0  0  0  0  0  0
  160.5420  210.7600  154.4240 C   0  0  2  0  0  3  0  0  0  0  0  0
  159.5350  210.9560  156.6370 N   0  0  0  0  0  1  0  0  0  0  0  0
  159.7320  210.0600  155.5120 C   0  0  2  0  0  3  0  0  0  0  0  0
  160.3980  208.7790  155.9890 C   0  0  0  0  0  1  0  0  0  0  0  0
  161.1260  211.0510  149.3090 N   0  0  0  0  0  2  0  0  0  0  0  0
  161.2650  213.3740  148.6660 C   0  0  0  0  0  0  0  0  0  0  0  0
  160.2460  213.9160  149.2720 N   0  0  0  0  0  0  0  0  0  0  0  0
  160.9050  213.5230  146.2980 N   0  0  0  0  0  1  0  0  0  0  0  0
  163.4390  213.3240  147.1400 S   0  0  0  0  0  0  0  0  0  0  0  0
  161.7570  213.9520  147.3930 C   0  0  2  0  0  3  0  0  0  0  0  0
  163.1150  211.8710  148.1870 C   0  0  0  0  0  2  0  0  0  0  0  0
  162.0210  212.1970  149.1900 C   0  0  2  0  0  3  0  0  0  0  0  0
  160.4590  213.3410  151.5430 O   0  0  0  0  0  0  0  0  0  0  0  0
  159.7080  213.5500  150.5530 C   0  0  0  0  0  0  0  0  0  0  0  0
  158.2260  213.4480  150.7350 C   0  0  2  0  0  3  0  0  0  0  0  0
  156.8990  212.8640  148.7770 N   0  0  0  0  0  1  0  0  0  0  0  0
  157.5040  213.9670  149.5030 C   0  0  0  0  0  2  0  0  0  0  0  0
  157.8070  214.2130  151.9020 N   0  0  0  0  0  2  0  0  0  0  0  0
  155.3700  214.0120  153.0010 S   0  0  0  0  0  0  0  0  0  0  0  0
  156.9780  213.6900  152.9500 C   0  0  0  0  0  0  0  0  0  0  0  0
  157.0080  213.4210  155.3030 O   0  0  0  0  0  0  0  0  0  0  0  0
  157.6150  212.9930  154.1060 C   0  0  2  0  0  3  0  0  0  0  0  0
  158.2670  213.9710  155.0070 C   0  0  0  0  0  2  0  0  0  0  0  0
  2  1  2  0  0  0  0
  2 15  1  0  0  0  0
  4  2  1  0  0  0  0
  5  8  1  1  0  0  0
  5  7  1  0  0  0  0
  6  5  1  0  0  0  0
  6  4  2  0  0  0  0
  7  3  2  0  0  0  0
  7  1  1  0  0  0  0
  9 11  1  6  0  0  0
  9 14  1  0  0  0  0
  9 10  1  0  0  0  0
 10 12  1  0  0  0  0
 12 13  1  0  0  0  0
 13  8  1  1  0  0  0
 14 13  1  0  0  0  0
 15 16  1  0  0  0  0
 16 18  1  0  0  0  0
 18 17  1  1  0  0  0
 18 20  1  0  0  0  0
 20 21  1  1  0  0  0
 20 19  1  0  0  0  0
 22  4  1  0  0  0  0
 23 29  1  0  0  0  0
 23 24  2  0  0  0  0
 24 31  1  0  0  0  0
 26 27  1  0  0  0  0
 26 28  1  0  0  0  0
 27 25  1  6  0  0  0
 27 23  1  0  0  0  0
 28 29  1  0  0  0  0
 29 22  1  6  0  0  0
 31 32  1  0  0  0  0
 31 30  2  0  0  0  0
 32 34  1  6  0  0  0
 32 35  1  0  0  0  0
 33 34  1  0  0  0  0
 35 37  1  0  0  0  0
 37 36  2  0  0  0  0
 39 37  1  6  0  0  0
 39 40  1  0  0  0  0
 39 38  1  0  0  0  0
 40 38  1  0  0  0  0
M  END
>  <MODEL>
3

>  <REMARK>
 VINA RESULT:      -4.5      2.601      5.277
  Name = 
  14 active torsions:
  status: ('A' for Active; 'I' for Inactive)
    1  A    between atoms: N_4  and  C_22
    2  A    between atoms: C_6  and  O_31
    3  A    between atoms: C_14  and  C_34
    4  A    between atoms: C_16  and  C_35
    5  A    between atoms: O_17  and  C_32
    6  A    between atoms: O_17  and  C_33
    7  A    between atoms: C_18  and  N_36
    8  A    between atoms: C_22  and  C_27
    9  A    between atoms: C_23  and  C_27
   10  A    between atoms: C_26  and  O_31
   11  A    between atoms: C_26  and  C_35
   12  A    between atoms: C_27  and  N_39
   13  A    between atoms: C_29  and  N_36
   14  A    between atoms: C_34  and  N_39
                            x       y       z     vdW  Elec       q    Type
                         _______ _______ _______ _____ _____    ______ ____

>  <TORSDO>
F 14

$$$$
=
 OpenBabel11052410363D

 40 43  0  0  1  0  0  0  0  0999 V2000
  161.4110  208.1480  153.6840 N   0  0  0  0  0  0  0  0  0  0  0  0
  160.9190  209.3480  153.5510 C   0  0  0  0  0  0  0  0  0  0  0  0
  162.4480  206.2060  152.7730 C   0  0  0  0  0  2  0  0  0  0  0  0
  160.8140  209.9820  152.2190 C   0  0  0  0  0  0  0  0  0  0  0  0
  161.6370  207.8770  151.1620 C   0  0  1  0  0  3  0  0  0  0  0  0
  161.1680  209.3100  151.1170 C   0  0  0  0  0  3  0  0  0  0  0  0
  161.8480  207.3700  152.5670 C   0  0  0  0  0  0  0  0  0  0  0  0
  160.8460  207.0160  150.3620 O   0  0  0  0  0  0  0  0  0  0  0  0
  161.3980  205.8810  147.2070 C   0  0  1  0  0  3  0  0  0  0  0  0
  160.4310  204.9720  147.9270 C   0  0  0  0  0  2  0  0  0  0  0  0
  160.7230  206.6210  146.2380 O   0  0  0  0  0  1  0  0  0  0  0  0
  160.9710  204.8590  149.3330 C   0  0  0  0  0  2  0  0  0  0  0  0
  161.6860  206.1690  149.6130 C   0  0  1  0  0  3  0  0  0  0  0  0
  161.9670  206.8080  148.2630 C   0  0  0  0  0  2  0  0  0  0  0  0
  160.4950  210.0670  154.6750 O   0  0  0  0  0  0  0  0  0  0  0  0
  159.5150  209.5760  155.5850 C   0  0  0  0  0  2  0  0  0  0  0  0
  161.1690  210.3280  157.1490 O   0  0  0  0  0  1  0  0  0  0  0  0
  160.1030  209.4390  156.9830 C   0  0  2  0  0  3  0  0  0  0  0  0
  161.9620  207.8610  157.0020 N   0  0  0  0  0  1  0  0  0  0  0  0
  160.5390  208.0020  157.2530 C   0  0  2  0  0  3  0  0  0  0  0  0
  159.7690  206.9990  156.4080 C   0  0  0  0  0  1  0  0  0  0  0  0
  160.3530  211.3350  152.1320 N   0  0  0  0  0  2  0  0  0  0  0  0
  158.8320  213.2040  151.9730 C   0  0  0  0  0  0  0  0  0  0  0  0
  159.3450  213.9300  151.0190 N   0  0  0  0  0  0  0  0  0  0  0  0
  158.9510  214.4490  154.0210 N   0  0  0  0  0  1  0  0  0  0  0  0
  157.0680  212.5530  153.8490 S   0  0  0  0  0  0  0  0  0  0  0  0
  158.0490  213.8520  153.0510 C   0  0  2  0  0  3  0  0  0  0  0  0
  158.2310  211.2630  153.3070 C   0  0  0  0  0  2  0  0  0  0  0  0
  158.9470  211.7160  152.0460 C   0  0  2  0  0  3  0  0  0  0  0  0
  161.1030  212.7900  149.9490 O   0  0  0  0  0  0  0  0  0  0  0  0
  160.0380  213.4580  149.8520 C   0  0  0  0  0  0  0  0  0  0  0  0
  159.4760  213.7300  148.4930 C   0  0  2  0  0  3  0  0  0  0  0  0
  157.4530  212.5740  147.7790 N   0  0  0  0  0  1  0  0  0  0  0  0
  157.9560  213.7090  148.5340 C   0  0  0  0  0  2  0  0  0  0  0  0
  159.9490  212.7330  147.5420 N   0  0  0  0  0  2  0  0  0  0  0  0
  162.2850  213.3020  146.3570 S   0  0  0  0  0  0  0  0  0  0  0  0
  160.6650  213.0450  146.3390 C   0  0  0  0  0  0  0  0  0  0  0  0
  159.0430  212.2320  144.8160 O   0  0  0  0  0  0  0  0  0  0  0  0
  159.9020  213.3150  145.0840 C   0  0  2  0  0  3  0  0  0  0  0  0
  160.2220  212.3000  144.0540 C   0  0  0  0  0  2  0  0  0  0  0  0
  2  1  2  0  0  0  0
  2 15  1  0  0  0  0
  4  2  1  0  0  0  0
  5  8  1  1  0  0  0
  5  7  1  0  0  0  0
  6  5  1  0  0  0  0
  6  4  2  0  0  0  0
  7  3  2  0  0  0  0
  7  1  1  0  0  0  0
  9 11  1  6  0  0  0
  9 10  1  0  0  0  0
  9 14  1  0  0  0  0
 10 12  1  0  0  0  0
 12 13  1  0  0  0  0
 13  8  1  1  0  0  0
 14 13  1  0  0  0  0
 15 16  1  0  0  0  0
 16 18  1  0  0  0  0
 18 17  1  6  0  0  0
 18 20  1  0  0  0  0
 19 20  1  0  0  0  0
 20 21  1  6  0  0  0
 22  4  1  0  0  0  0
 23 29  1  0  0  0  0
 23 27  1  0  0  0  0
 24 23  2  0  0  0  0
 27 26  1  0  0  0  0
 27 25  1  1  0  0  0
 28 26  1  0  0  0  0
 29 22  1  1  0  0  0
 29 28  1  0  0  0  0
 31 30  2  0  0  0  0
 31 24  1  0  0  0  0
 32 34  1  1  0  0  0
 32 31  1  0  0  0  0
 33 34  1  0  0  0  0
 35 32  1  0  0  0  0
 37 36  2  0  0  0  0
 37 35  1  0  0  0  0
 38 39  1  0  0  0  0
 39 37  1  1  0  0  0
 40 38  1  0  0  0  0
 40 39  1  0  0  0  0
M  END
>  <MODEL>
4

>  <REMARK>
 VINA RESULT:      -4.5      2.912      6.627
  Name = 
  14 active torsions:
  status: ('A' for Active; 'I' for Inactive)
    1  A    between atoms: N_4  and  C_22
    2  A    between atoms: C_6  and  O_31
    3  A    between atoms: C_14  and  C_34
    4  A    between atoms: C_16  and  C_35
    5  A    between atoms: O_17  and  C_32
    6  A    between atoms: O_17  and  C_33
    7  A    between atoms: C_18  and  N_36
    8  A    between atoms: C_22  and  C_27
    9  A    between atoms: C_23  and  C_27
   10  A    between atoms: C_26  and  O_31
   11  A    between atoms: C_26  and  C_35
   12  A    between atoms: C_27  and  N_39
   13  A    between atoms: C_29  and  N_36
   14  A    between atoms: C_34  and  N_39
                            x       y       z     vdW  Elec       q    Type
                         _______ _______ _______ _____ _____    ______ ____

>  <TORSDO>
F 14

$$$$
=
 OpenBabel11052410363D

 40 43  0  0  1  0  0  0  0  0999 V2000
  161.1510  207.6930  153.2500 N   0  0  0  0  0  0  0  0  0  0  0  0
  160.7690  208.9390  153.2660 C   0  0  0  0  0  0  0  0  0  0  0  0
  162.1590  205.8340  152.1520 C   0  0  0  0  0  2  0  0  0  0  0  0
  160.8880  209.7850  152.0580 C   0  0  0  0  0  0  0  0  0  0  0  0
  161.6920  207.8090  150.7630 C   0  0  1  0  0  3  0  0  0  0  0  0
  161.3370  209.2680  150.9080 C   0  0  0  0  0  3  0  0  0  0  0  0
  161.6770  207.0670  152.0760 C   0  0  0  0  0  0  0  0  0  0  0  0
  160.9550  207.1640  149.7400 O   0  0  0  0  0  0  0  0  0  0  0  0
  161.3170  206.0100  146.5650 C   0  0  1  0  0  3  0  0  0  0  0  0
  160.6230  204.9770  147.4200 C   0  0  0  0  0  2  0  0  0  0  0  0
  160.4070  206.5770  145.6740 O   0  0  0  0  0  1  0  0  0  0  0  0
  161.3410  205.0210  148.7490 C   0  0  0  0  0  2  0  0  0  0  0  0
  161.8370  206.4470  148.9080 C   0  0  1  0  0  3  0  0  0  0  0  0
  161.8320  207.0680  147.5200 C   0  0  0  0  0  2  0  0  0  0  0  0
  160.2510  209.5050  154.4370 O   0  0  0  0  0  0  0  0  0  0  0  0
  161.0700  210.1130  155.4310 C   0  0  0  0  0  2  0  0  0  0  0  0
  159.7170  208.7340  156.8500 O   0  0  0  0  0  1  0  0  0  0  0  0
  160.4710  209.9100  156.8160 C   0  0  2  0  0  3  0  0  0  0  0  0
  158.3170  211.0360  156.6110 N   0  0  0  0  0  1  0  0  0  0  0  0
  159.6300  211.1150  157.2280 C   0  0  2  0  0  3  0  0  0  0  0  0
  160.2910  212.4330  156.8550 C   0  0  0  0  0  1  0  0  0  0  0  0
  160.5410  211.1720  152.1490 N   0  0  0  0  0  2  0  0  0  0  0  0
  159.2360  213.1810  151.8500 C   0  0  0  0  0  0  0  0  0  0  0  0
  159.8880  213.8300  150.9270 N   0  0  0  0  0  0  0  0  0  0  0  0
  159.3330  214.4530  153.8830 N   0  0  0  0  0  1  0  0  0  0  0  0
  157.2830  212.7540  153.6000 S   0  0  0  0  0  0  0  0  0  0  0  0
  158.4480  213.9290  152.8580 C   0  0  2  0  0  3  0  0  0  0  0  0
  158.3430  211.3410  153.1640 C   0  0  0  0  0  2  0  0  0  0  0  0
  159.1920  211.6910  151.9530 C   0  0  2  0  0  3  0  0  0  0  0  0
  161.6830  212.6270  149.9990 O   0  0  0  0  0  0  0  0  0  0  0  0
  160.6120  213.2660  149.8220 C   0  0  0  0  0  0  0  0  0  0  0  0
  160.0730  213.4020  148.4330 C   0  0  2  0  0  3  0  0  0  0  0  0
  161.8630  212.5770  147.0000 N   0  0  0  0  0  1  0  0  0  0  0  0
  161.1850  213.7750  147.4660 C   0  0  0  0  0  2  0  0  0  0  0  0
  159.0330  214.4220  148.3920 N   0  0  0  0  0  2  0  0  0  0  0  0
  156.6140  213.4210  148.9670 S   0  0  0  0  0  0  0  0  0  0  0  0
  157.6820  214.1770  147.9780 C   0  0  0  0  0  0  0  0  0  0  0  0
  156.6730  213.3110  146.0170 O   0  0  0  0  0  0  0  0  0  0  0  0
  157.2900  214.4530  146.5630 C   0  0  2  0  0  3  0  0  0  0  0  0
  158.0060  213.5440  145.6400 C   0  0  0  0  0  2  0  0  0  0  0  0
  1  2  2  0  0  0  0
  2 15  1  0  0  0  0
  4 22  1  0  0  0  0
  4  2  1  0  0  0  0
  5  8  1  6  0  0  0
  5  6  1  0  0  0  0
  5  7  1  0  0  0  0
  6  4  2  0  0  0  0
  7  3  2  0  0  0  0
  7  1  1  0  0  0  0
  9 11  1  6  0  0  0
  9 10  1  0  0  0  0
  9 14  1  0  0  0  0
 10 12  1  0  0  0  0
 12 13  1  0  0  0  0
 13  8  1  1  0  0  0
 14 13  1  0  0  0  0
 15 16  1  0  0  0  0
 16 18  1  0  0  0  0
 18 17  1  6  0  0  0
 18 20  1  0  0  0  0
 19 20  1  0  0  0  0
 20 21  1  6  0  0  0
 23 29  1  0  0  0  0
 23 27  1  0  0  0  0
 24 23  2  0  0  0  0
 27 26  1  0  0  0  0
 27 25  1  1  0  0  0
 28 26  1  0  0  0  0
 29 22  1  1  0  0  0
 29 28  1  0  0  0  0
 31 30  2  0  0  0  0
 31 24  1  0  0  0  0
 32 34  1  6  0  0  0
 32 31  1  0  0  0  0
 33 34  1  0  0  0  0
 35 32  1  0  0  0  0
 37 35  1  0  0  0  0
 37 36  2  0  0  0  0
 38 39  1  0  0  0  0
 39 37  1  1  0  0  0
 40 38  1  0  0  0  0
 40 39  1  0  0  0  0
M  END
>  <MODEL>
5

>  <REMARK>
 VINA RESULT:      -4.1      2.583      6.062
  Name = 
  14 active torsions:
  status: ('A' for Active; 'I' for Inactive)
    1  A    between atoms: N_4  and  C_22
    2  A    between atoms: C_6  and  O_31
    3  A    between atoms: C_14  and  C_34
    4  A    between atoms: C_16  and  C_35
    5  A    between atoms: O_17  and  C_32
    6  A    between atoms: O_17  and  C_33
    7  A    between atoms: C_18  and  N_36
    8  A    between atoms: C_22  and  C_27
    9  A    between atoms: C_23  and  C_27
   10  A    between atoms: C_26  and  O_31
   11  A    between atoms: C_26  and  C_35
   12  A    between atoms: C_27  and  N_39
   13  A    between atoms: C_29  and  N_36
   14  A    between atoms: C_34  and  N_39
                            x       y       z     vdW  Elec       q    Type
                         _______ _______ _______ _____ _____    ______ ____

>  <TORSDO>
F 14

$$$$
=
 OpenBabel11052410363D

 40 43  0  0  1  0  0  0  0  0999 V2000
  161.4040  211.6760  150.0480 N   0  0  0  0  0  0  0  0  0  0  0  0
  160.8160  211.3870  151.1740 C   0  0  0  0  0  0  0  0  0  0  0  0
  161.9890  213.2290  148.3370 C   0  0  0  0  0  2  0  0  0  0  0  0
  159.9920  212.3930  151.8800 C   0  0  0  0  0  0  0  0  0  0  0  0
  160.3310  213.9860  149.9890 C   0  0  1  0  0  3  0  0  0  0  0  0
  159.7880  213.6020  151.3430 C   0  0  0  0  0  3  0  0  0  0  0  0
  161.2730  212.9540  149.4180 C   0  0  0  0  0  0  0  0  0  0  0  0
  159.3180  214.3890  149.0850 O   0  0  0  0  0  0  0  0  0  0  0  0
  157.0700  213.1810  146.8430 C   0  0  1  0  0  3  0  0  0  0  0  0
  156.3800  214.0790  147.8410 C   0  0  0  0  0  2  0  0  0  0  0  0
  157.1440  213.8140  145.6050 O   0  0  0  0  0  1  0  0  0  0  0  0
  157.0150  213.7490  149.1710 C   0  0  0  0  0  2  0  0  0  0  0  0
  158.4360  213.3150  148.8610 C   0  0  1  0  0  3  0  0  0  0  0  0
  158.4650  212.9430  147.3870 C   0  0  0  0  0  2  0  0  0  0  0  0
  160.9670  210.1190  151.7460 O   0  0  0  0  0  0  0  0  0  0  0  0
  161.9020  209.1580  151.2640 C   0  0  0  0  0  2  0  0  0  0  0  0
  160.8990  206.9830  151.1620 O   0  0  0  0  0  1  0  0  0  0  0  0
  161.2020  208.1160  150.4020 C   0  0  2  0  0  3  0  0  0  0  0  0
  162.3390  208.9430  148.4090 N   0  0  0  0  0  1  0  0  0  0  0  0
  162.0530  207.7520  149.1880 C   0  0  2  0  0  3  0  0  0  0  0  0
  161.3800  206.7120  148.3060 C   0  0  0  0  0  1  0  0  0  0  0  0
  159.4400  212.0600  153.1590 N   0  0  0  0  0  2  0  0  0  0  0  0
  157.9390  212.1560  155.0470 C   0  0  0  0  0  0  0  0  0  0  0  0
  158.6410  211.6430  156.0180 N   0  0  0  0  0  0  0  0  0  0  0  0
  156.0790  210.7050  154.6060 N   0  0  0  0  0  1  0  0  0  0  0  0
  155.8130  213.2780  153.9170 S   0  0  0  0  0  0  0  0  0  0  0  0
  156.4620  212.0300  155.0610 C   0  0  2  0  0  3  0  0  0  0  0  0
  157.3790  213.3290  152.9930 C   0  0  0  0  0  2  0  0  0  0  0  0
  158.5240  212.9180  153.9030 C   0  0  2  0  0  3  0  0  0  0  0  0
  160.6110  212.8850  156.3500 O   0  0  0  0  0  0  0  0  0  0  0  0
  160.0590  211.7600  156.2140 C   0  0  0  0  0  0  0  0  0  0  0  0
  160.9030  210.5260  156.2950 C   0  0  2  0  0  3  0  0  0  0  0  0
  162.6600  210.3690  154.6160 N   0  0  0  0  0  1  0  0  0  0  0  0
  162.3470  210.8480  155.9510 C   0  0  0  0  0  2  0  0  0  0  0  0
  160.4000  209.5100  155.3800 N   0  0  0  0  0  2  0  0  0  0  0  0
  160.4150  207.6000  157.2610 S   0  0  0  0  0  0  0  0  0  0  0  0
  160.2840  208.1190  155.7100 C   0  0  0  0  0  0  0  0  0  0  0  0
  161.0330  206.0080  154.9380 O   0  0  0  0  0  0  0  0  0  0  0  0
  160.2190  207.1100  154.6100 C   0  0  2  0  0  3  0  0  0  0  0  0
  161.5560  206.9180  154.0040 C   0  0  0  0  0  2  0  0  0  0  0  0
  1  2  2  0  0  0  0
  2 15  1  0  0  0  0
  2  4  1  0  0  0  0
  3  7  2  0  0  0  0
  4 22  1  0  0  0  0
  5  8  1  6  0  0  0
  5  6  1  0  0  0  0
  6  4  2  0  0  0  0
  7  5  1  0  0  0  0
  7  1  1  0  0  0  0
  9 11  1  6  0  0  0
  9 14  1  0  0  0  0
  9 10  1  0  0  0  0
 10 12  1  0  0  0  0
 13  8  1  6  0  0  0
 13 12  1  0  0  0  0
 14 13  1  0  0  0  0
 16 15  1  0  0  0  0
 18 17  1  1  0  0  0
 18 16  1  0  0  0  0
 19 20  1  0  0  0  0
 20 21  1  6  0  0  0
 20 18  1  0  0  0  0
 23 27  1  0  0  0  0
 23 24  2  0  0  0  0
 24 31  1  0  0  0  0
 26 27  1  0  0  0  0
 27 25  1  6  0  0  0
 28 29  1  0  0  0  0
 28 26  1  0  0  0  0
 29 22  1  6  0  0  0
 29 23  1  0  0  0  0
 31 32  1  0  0  0  0
 31 30  2  0  0  0  0
 32 34  1  6  0  0  0
 33 34  1  0  0  0  0
 35 37  1  0  0  0  0
 35 32  1  0  0  0  0
 37 36  2  0  0  0  0
 39 38  1  0  0  0  0
 39 37  1  1  0  0  0
 40 39  1  0  0  0  0
 40 38  1  0  0  0  0
M  END
>  <MODEL>
6

>  <REMARK>
 VINA RESULT:      -4.0      2.536      7.034
  Name = 
  14 active torsions:
  status: ('A' for Active; 'I' for Inactive)
    1  A    between atoms: N_4  and  C_22
    2  A    between atoms: C_6  and  O_31
    3  A    between atoms: C_14  and  C_34
    4  A    between atoms: C_16  and  C_35
    5  A    between atoms: O_17  and  C_32
    6  A    between atoms: O_17  and  C_33
    7  A    between atoms: C_18  and  N_36
    8  A    between atoms: C_22  and  C_27
    9  A    between atoms: C_23  and  C_27
   10  A    between atoms: C_26  and  O_31
   11  A    between atoms: C_26  and  C_35
   12  A    between atoms: C_27  and  N_39
   13  A    between atoms: C_29  and  N_36
   14  A    between atoms: C_34  and  N_39
                            x       y       z     vdW  Elec       q    Type
                         _______ _______ _______ _____ _____    ______ ____

>  <TORSDO>
F 14

$$$$
=
 OpenBabel11052410363D

 40 43  0  0  1  0  0  0  0  0999 V2000
  162.3050  207.1100  146.7500 N   0  0  0  0  0  0  0  0  0  0  0  0
  162.1390  207.6160  147.9390 C   0  0  0  0  0  0  0  0  0  0  0  0
  161.8610  205.4330  145.1150 C   0  0  0  0  0  2  0  0  0  0  0  0
  161.3430  206.9040  148.9630 C   0  0  0  0  0  0  0  0  0  0  0  0
  161.0670  204.9800  147.3980 C   0  0  1  0  0  3  0  0  0  0  0  0
  160.8280  205.6960  148.7040 C   0  0  0  0  0  3  0  0  0  0  0  0
  161.7610  205.8420  146.3720 C   0  0  0  0  0  0  0  0  0  0  0  0
  161.6680  203.7100  147.5710 O   0  0  0  0  0  0  0  0  0  0  0  0
  160.6250  201.0470  149.4050 C   0  0  1  0  0  3  0  0  0  0  0  0
  161.5850  200.5960  148.3310 C   0  0  0  0  0  2  0  0  0  0  0  0
  161.2390  200.9730  150.6530 O   0  0  0  0  0  1  0  0  0  0  0  0
  161.2170  201.4060  147.1100 C   0  0  0  0  0  2  0  0  0  0  0  0
  160.6670  202.7210  147.6310 C   0  0  1  0  0  3  0  0  0  0  0  0
  160.2800  202.4870  149.0820 C   0  0  0  0  0  2  0  0  0  0  0  0
  162.7000  208.8560  148.2640 O   0  0  0  0  0  0  0  0  0  0  0  0
  161.9290  209.9560  148.7370 C   0  0  0  0  0  2  0  0  0  0  0  0
  163.3890  211.7990  148.2690 O   0  0  0  0  0  1  0  0  0  0  0  0
  162.1870  211.1950  147.8900 C   0  0  2  0  0  3  0  0  0  0  0  0
  160.2850  212.2020  146.7410 N   0  0  0  0  0  1  0  0  0  0  0  0
  161.0230  212.1770  147.9920 C   0  0  2  0  0  3  0  0  0  0  0  0
  161.4860  213.5830  148.3400 C   0  0  0  0  0  1  0  0  0  0  0  0
  161.1120  207.5420  150.2250 N   0  0  0  0  0  2  0  0  0  0  0  0
  161.5480  206.9770  152.5310 C   0  0  0  0  0  0  0  0  0  0  0  0
  161.9280  208.1100  153.0520 N   0  0  0  0  0  0  0  0  0  0  0  0
  163.4010  205.4530  152.5960 N   0  0  0  0  0  1  0  0  0  0  0  0
  160.9440  204.3900  152.5180 S   0  0  0  0  0  0  0  0  0  0  0  0
  162.0580  205.7030  153.0890 C   0  0  2  0  0  3  0  0  0  0  0  0
  160.4180  205.3810  151.0860 C   0  0  0  0  0  2  0  0  0  0  0  0
  160.5800  206.8600  151.4000 C   0  0  2  0  0  3  0  0  0  0  0  0
  162.1140  210.1680  151.9300 O   0  0  0  0  0  0  0  0  0  0  0  0
  161.4580  209.4220  152.7040 C   0  0  0  0  0  0  0  0  0  0  0  0
  160.1470  209.9070  153.2380 C   0  0  2  0  0  3  0  0  0  0  0  0
  158.5330  211.6550  152.7140 N   0  0  0  0  0  1  0  0  0  0  0  0
  159.9460  211.3750  152.8980 C   0  0  0  0  0  2  0  0  0  0  0  0
  160.0940  209.7330  154.6840 N   0  0  0  0  0  2  0  0  0  0  0  0
  162.3870  210.7020  155.6780 S   0  0  0  0  0  0  0  0  0  0  0  0
  160.7510  210.5960  155.6220 C   0  0  0  0  0  0  0  0  0  0  0  0
  158.5840  211.2590  156.3130 O   0  0  0  0  0  0  0  0  0  0  0  0
  159.9440  211.2750  156.6800 C   0  0  2  0  0  3  0  0  0  0  0  0
  159.2680  212.4720  156.1280 C   0  0  0  0  0  2  0  0  0  0  0  0
  1  2  2  0  0  0  0
  2 15  1  0  0  0  0
  2  4  1  0  0  0  0
  3  7  2  0  0  0  0
  4 22  1  0  0  0  0
  5  8  1  1  0  0  0
  5  6  1  0  0  0  0
  6  4  2  0  0  0  0
  7  1  1  0  0  0  0
  7  5  1  0  0  0  0
  9 11  1  1  0  0  0
 10  9  1  0  0  0  0
 12 13  1  0  0  0  0
 12 10  1  0  0  0  0
 13  8  1  1  0  0  0
 13 14  1  0  0  0  0
 14  9  1  0  0  0  0
 15 16  1  0  0  0  0
 18 20  1  0  0  0  0
 18 17  1  1  0  0  0
 18 16  1  0  0  0  0
 19 20  1  0  0  0  0
 20 21  1  6  0  0  0
 23 24  2  0  0  0  0
 23 27  1  0  0  0  0
 26 27  1  0  0  0  0
 27 25  1  6  0  0  0
 28 29  1  0  0  0  0
 28 26  1  0  0  0  0
 29 22  1  6  0  0  0
 29 23  1  0  0  0  0
 30 31  2  0  0  0  0
 31 24  1  0  0  0  0
 31 32  1  0  0  0  0
 32 34  1  1  0  0  0
 32 35  1  0  0  0  0
 33 34  1  0  0  0  0
 35 37  1  0  0  0  0
 37 36  2  0  0  0  0
 38 39  1  0  0  0  0
 39 37  1  6  0  0  0
 40 38  1  0  0  0  0
 40 39  1  0  0  0  0
M  END
>  <MODEL>
7

>  <REMARK>
 VINA RESULT:      -4.0      2.285      3.425
  Name = 
  14 active torsions:
  status: ('A' for Active; 'I' for Inactive)
    1  A    between atoms: N_4  and  C_22
    2  A    between atoms: C_6  and  O_31
    3  A    between atoms: C_14  and  C_34
    4  A    between atoms: C_16  and  C_35
    5  A    between atoms: O_17  and  C_32
    6  A    between atoms: O_17  and  C_33
    7  A    between atoms: C_18  and  N_36
    8  A    between atoms: C_22  and  C_27
    9  A    between atoms: C_23  and  C_27
   10  A    between atoms: C_26  and  O_31
   11  A    between atoms: C_26  and  C_35
   12  A    between atoms: C_27  and  N_39
   13  A    between atoms: C_29  and  N_36
   14  A    between atoms: C_34  and  N_39
                            x       y       z     vdW  Elec       q    Type
                         _______ _______ _______ _____ _____    ______ ____

>  <TORSDO>
F 14

$$$$
=
 OpenBabel11052410363D

 40 43  0  0  1  0  0  0  0  0999 V2000
  160.4460  209.2590  154.1130 N   0  0  0  0  0  0  0  0  0  0  0  0
  160.8160  210.0070  153.1120 C   0  0  0  0  0  0  0  0  0  0  0  0
  160.4820  207.1920  155.2990 C   0  0  0  0  0  2  0  0  0  0  0  0
  161.6390  209.4530  152.0140 C   0  0  0  0  0  0  0  0  0  0  0  0
  161.4890  207.1900  153.0550 C   0  0  1  0  0  3  0  0  0  0  0  0
  161.9700  208.1560  152.0010 C   0  0  0  0  0  3  0  0  0  0  0  0
  160.7840  207.8720  154.2010 C   0  0  0  0  0  0  0  0  0  0  0  0
  160.7650  206.1010  152.5120 O   0  0  0  0  0  0  0  0  0  0  0  0
  161.5230  203.1110  151.0880 C   0  0  1  0  0  3  0  0  0  0  0  0
  160.2520  202.9970  151.8960 C   0  0  0  0  0  2  0  0  0  0  0  0
  161.2270  203.0660  149.7280 O   0  0  0  0  0  1  0  0  0  0  0  0
  160.5060  203.8080  153.1440 C   0  0  0  0  0  2  0  0  0  0  0  0
  161.4730  204.9060  152.7400 C   0  0  1  0  0  3  0  0  0  0  0  0
  162.1260  204.4550  151.4430 C   0  0  0  0  0  2  0  0  0  0  0  0
  160.4520  211.3570  153.0660 O   0  0  0  0  0  0  0  0  0  0  0  0
  159.7240  212.0000  154.1080 C   0  0  0  0  0  2  0  0  0  0  0  0
  158.5670  213.8970  153.2070 O   0  0  0  0  0  1  0  0  0  0  0  0
  158.4100  212.5580  153.5780 C   0  0  2  0  0  3  0  0  0  0  0  0
  157.3420  213.4970  155.5590 N   0  0  0  0  0  1  0  0  0  0  0  0
  157.2950  212.4010  154.6090 C   0  0  2  0  0  3  0  0  0  0  0  0
  157.3820  211.0770  155.3510 C   0  0  0  0  0  1  0  0  0  0  0  0
  162.0980  210.3340  150.9830 N   0  0  0  0  0  2  0  0  0  0  0  0
  162.0590  210.7480  148.6040 C   0  0  0  0  0  0  0  0  0  0  0  0
  162.5670  209.6590  148.1000 N   0  0  0  0  0  0  0  0  0  0  0  0
  163.5480  212.5700  148.1320 N   0  0  0  0  0  1  0  0  0  0  0  0
  160.9730  213.1720  148.5540 S   0  0  0  0  0  0  0  0  0  0  0  0
  162.2190  212.0350  147.8880 C   0  0  2  0  0  3  0  0  0  0  0  0
  160.8750  212.2420  150.1140 C   0  0  0  0  0  2  0  0  0  0  0  0
  161.2710  210.7940  149.8730 C   0  0  2  0  0  3  0  0  0  0  0  0
  163.0790  207.9230  149.6020 O   0  0  0  0  0  0  0  0  0  0  0  0
  162.4200  208.3220  148.6050 C   0  0  0  0  0  0  0  0  0  0  0  0
  161.4410  207.3890  147.9640 C   0  0  2  0  0  3  0  0  0  0  0  0
  160.1950  205.4540  148.7640 N   0  0  0  0  0  1  0  0  0  0  0  0
  160.4560  206.8640  148.9950 C   0  0  0  0  0  2  0  0  0  0  0  0
  162.1400  206.2700  147.3470 N   0  0  0  0  0  2  0  0  0  0  0  0
  160.4500  206.2060  145.2680 S   0  0  0  0  0  0  0  0  0  0  0  0
  161.7300  205.6420  146.1250 C   0  0  0  0  0  0  0  0  0  0  0  0
  161.4620  203.6190  144.9220 O   0  0  0  0  0  0  0  0  0  0  0  0
  162.3640  204.3520  145.7170 C   0  0  2  0  0  3  0  0  0  0  0  0
  161.5990  203.2050  146.2580 C   0  0  0  0  0  2  0  0  0  0  0  0
  1  7  1  0  0  0  0
  2  1  2  0  0  0  0
  4  2  1  0  0  0  0
  5  8  1  6  0  0  0
  5  7  1  0  0  0  0
  6  4  2  0  0  0  0
  6  5  1  0  0  0  0
  7  3  2  0  0  0  0
  9 11  1  6  0  0  0
  9 14  1  0  0  0  0
  9 10  1  0  0  0  0
 10 12  1  0  0  0  0
 13  8  1  6  0  0  0
 13 12  1  0  0  0  0
 14 13  1  0  0  0  0
 15  2  1  0  0  0  0
 15 16  1  0  0  0  0
 18 17  1  1  0  0  0
 18 16  1  0  0  0  0
 18 20  1  0  0  0  0
 20 21  1  1  0  0  0
 20 19  1  0  0  0  0
 22  4  1  0  0  0  0
 23 29  1  0  0  0  0
 24 23  2  0  0  0  0
 24 31  1  0  0  0  0
 26 28  1  0  0  0  0
 27 25  1  1  0  0  0
 27 26  1  0  0  0  0
 27 23  1  0  0  0  0
 29 28  1  0  0  0  0
 29 22  1  1  0  0  0
 31 30  2  0  0  0  0
 32 31  1  0  0  0  0
 32 34  1  1  0  0  0
 33 34  1  0  0  0  0
 35 32  1  0  0  0  0
 36 37  2  0  0  0  0
 37 35  1  0  0  0  0
 38 39  1  0  0  0  0
 38 40  1  0  0  0  0
 39 37  1  1  0  0  0
 39 40  1  0  0  0  0
M  END
>  <MODEL>
8

>  <REMARK>
 VINA RESULT:      -3.9      2.971      7.343
  Name = 
  14 active torsions:
  status: ('A' for Active; 'I' for Inactive)
    1  A    between atoms: N_4  and  C_22
    2  A    between atoms: C_6  and  O_31
    3  A    between atoms: C_14  and  C_34
    4  A    between atoms: C_16  and  C_35
    5  A    between atoms: O_17  and  C_32
    6  A    between atoms: O_17  and  C_33
    7  A    between atoms: C_18  and  N_36
    8  A    between atoms: C_22  and  C_27
    9  A    between atoms: C_23  and  C_27
   10  A    between atoms: C_26  and  O_31
   11  A    between atoms: C_26  and  C_35
   12  A    between atoms: C_27  and  N_39
   13  A    between atoms: C_29  and  N_36
   14  A    between atoms: C_34  and  N_39
                            x       y       z     vdW  Elec       q    Type
                         _______ _______ _______ _____ _____    ______ ____

>  <TORSDO>
F 14

$$$$
=
 OpenBabel11052410363D

 40 43  0  0  1  0  0  0  0  0999 V2000
  162.3150  209.8280  148.9050 N   0  0  0  0  0  0  0  0  0  0  0  0
  161.9410  208.9310  149.7730 C   0  0  0  0  0  0  0  0  0  0  0  0
  162.5960  212.0990  148.2410 C   0  0  0  0  0  2  0  0  0  0  0  0
  161.2780  209.3260  151.0350 C   0  0  0  0  0  0  0  0  0  0  0  0
  161.2860  211.7060  150.2840 C   0  0  1  0  0  3  0  0  0  0  0  0
  160.9970  210.6120  151.2810 C   0  0  0  0  0  3  0  0  0  0  0  0
  162.0890  211.2270  149.1000 C   0  0  0  0  0  0  0  0  0  0  0  0
  160.1290  212.4400  149.9250 O   0  0  0  0  0  0  0  0  0  0  0  0
  158.3670  213.7830  152.5000 C   0  0  1  0  0  3  0  0  0  0  0  0
  157.7260  214.1480  151.1830 C   0  0  0  0  0  2  0  0  0  0  0  0
  157.5810  212.8460  153.1670 O   0  0  0  0  0  1  0  0  0  0  0  0
  158.8790  214.4530  150.2560 C   0  0  0  0  0  2  0  0  0  0  0  0
  160.0360  213.5910  150.7300 C   0  0  1  0  0  3  0  0  0  0  0  0
  159.7140  213.1780  152.1580 C   0  0  0  0  0  2  0  0  0  0  0  0
  162.1760  207.5720  149.5320 O   0  0  0  0  0  0  0  0  0  0  0  0
  162.3760  207.0400  148.2260 C   0  0  0  0  0  2  0  0  0  0  0  0
  160.1100  206.3050  148.4970 O   0  0  0  0  0  1  0  0  0  0  0  0
  161.0410  206.7530  147.5540 C   0  0  2  0  0  3  0  0  0  0  0  0
  162.5690  205.7770  145.9220 N   0  0  0  0  0  1  0  0  0  0  0  0
  161.2060  205.7410  146.4230 C   0  0  2  0  0  3  0  0  0  0  0  0
  160.2350  205.9910  145.2810 C   0  0  0  0  0  1  0  0  0  0  0  0
  160.9680  208.3130  151.9990 N   0  0  0  0  0  2  0  0  0  0  0  0
  161.1690  206.9100  153.9540 C   0  0  0  0  0  0  0  0  0  0  0  0
  161.0510  205.7040  153.4730 N   0  0  0  0  0  0  0  0  0  0  0  0
  159.2940  207.3420  155.3880 N   0  0  0  0  0  1  0  0  0  0  0  0
  161.5270  208.7510  155.8360 S   0  0  0  0  0  0  0  0  0  0  0  0
  160.7380  207.1940  155.3430 C   0  0  2  0  0  3  0  0  0  0  0  0
  161.6980  209.2780  154.1030 C   0  0  0  0  0  2  0  0  0  0  0  0
  161.7570  208.0570  153.1990 C   0  0  2  0  0  3  0  0  0  0  0  0
  162.5400  205.7140  151.6530 O   0  0  0  0  0  0  0  0  0  0  0  0
  161.5080  205.2350  152.1950 C   0  0  0  0  0  0  0  0  0  0  0  0
  160.7720  204.1320  151.5010 C   0  0  2  0  0  3  0  0  0  0  0  0
  162.1320  202.1610  151.9490 N   0  0  0  0  0  1  0  0  0  0  0  0
  160.8920  202.8370  152.2880 C   0  0  0  0  0  2  0  0  0  0  0  0
  161.3050  203.9350  150.1590 N   0  0  0  0  0  2  0  0  0  0  0  0
  159.4740  202.0650  149.5790 S   0  0  0  0  0  0  0  0  0  0  0  0
  160.7550  203.0200  149.2030 C   0  0  0  0  0  0  0  0  0  0  0  0
  160.6330  202.0730  147.0340 O   0  0  0  0  0  0  0  0  0  0  0  0
  161.4650  202.8020  147.9070 C   0  0  2  0  0  3  0  0  0  0  0  0
  161.6650  201.3550  147.6620 C   0  0  0  0  0  2  0  0  0  0  0  0
  1  7  1  0  0  0  0
  1  2  2  0  0  0  0
  2  4  1  0  0  0  0
  3  7  2  0  0  0  0
  4  6  2  0  0  0  0
  4 22  1  0  0  0  0
  5  8  1  6  0  0  0
  5  6  1  0  0  0  0
  7  5  1  0  0  0  0
  9 11  1  6  0  0  0
 10  9  1  0  0  0  0
 12 13  1  0  0  0  0
 12 10  1  0  0  0  0
 13  8  1  6  0  0  0
 13 14  1  0  0  0  0
 14  9  1  0  0  0  0
 15  2  1  0  0  0  0
 16 15  1  0  0  0  0
 18 16  1  0  0  0  0
 18 17  1  1  0  0  0
 19 20  1  0  0  0  0
 20 21  1  6  0  0  0
 20 18  1  0  0  0  0
 23 27  1  0  0  0  0
 24 23  2  0  0  0  0
 27 25  1  6  0  0  0
 27 26  1  0  0  0  0
 28 26  1  0  0  0  0
 29 22  1  6  0  0  0
 29 23  1  0  0  0  0
 29 28  1  0  0  0  0
 30 31  2  0  0  0  0
 31 24  1  0  0  0  0
 32 31  1  0  0  0  0
 32 34  1  1  0  0  0
 33 34  1  0  0  0  0
 35 32  1  0  0  0  0
 37 36  2  0  0  0  0
 37 35  1  0  0  0  0
 38 40  1  0  0  0  0
 38 39  1  0  0  0  0
 39 37  1  1  0  0  0
 40 39  1  0  0  0  0
M  END
>  <MODEL>
9

>  <REMARK>
 VINA RESULT:      -3.9      2.948      8.246
  Name = 
  14 active torsions:
  status: ('A' for Active; 'I' for Inactive)
    1  A    between atoms: N_4  and  C_22
    2  A    between atoms: C_6  and  O_31
    3  A    between atoms: C_14  and  C_34
    4  A    between atoms: C_16  and  C_35
    5  A    between atoms: O_17  and  C_32
    6  A    between atoms: O_17  and  C_33
    7  A    between atoms: C_18  and  N_36
    8  A    between atoms: C_22  and  C_27
    9  A    between atoms: C_23  and  C_27
   10  A    between atoms: C_26  and  O_31
   11  A    between atoms: C_26  and  C_35
   12  A    between atoms: C_27  and  N_39
   13  A    between atoms: C_29  and  N_36
   14  A    between atoms: C_34  and  N_39
                            x       y       z     vdW  Elec       q    Type
                         _______ _______ _______ _____ _____    ______ ____

>  <TORSDO>
F 14

$$$$
