=
 OpenBabel11052411363D

 43 47  0  0  1  0  0  0  0  0999 V2000
  158.3250  213.6590  146.5750 C   0  0  0  0  0  0  0  0  0  0  0  0
  159.1140  213.6290  145.3780 N   0  0  0  0  0  0  0  0  0  0  0  0
  158.9260  213.4100  147.8170 C   0  0  0  0  0  0  0  0  0  0  0  0
  155.1130  214.4530  145.0990 O   0  0  0  0  0  0  0  0  0  0  0  0
  161.5610  214.4530  149.2890 O   0  0  0  0  0  1  0  0  0  0  0  0
  160.6430  212.5620  151.5940 N   0  0  0  0  0  2  0  0  0  0  0  0
  160.9840  213.1870  149.1670 C   0  0  1  0  0  3  0  0  0  0  0  0
  156.1880  213.9840  147.6860 C   0  0  0  0  0  3  0  0  0  0  0  0
  160.0680  212.9390  150.3430 C   0  0  0  0  0  0  0  0  0  0  0  0
  157.1650  214.1040  143.9430 C   0  0  0  0  0  2  0  0  0  0  0  0
  160.2890  213.1040  147.9170 O   0  0  0  0  0  0  0  0  0  0  0  0
  158.7800  213.1090  150.2340 N   0  0  0  0  0  0  0  0  0  0  0  0
  158.1590  213.4430  148.9870 C   0  0  0  0  0  0  0  0  0  0  0  0
  156.9520  213.9450  146.5100 C   0  0  0  0  0  0  0  0  0  0  0  0
  156.7910  213.7290  148.9240 C   0  0  0  0  0  3  0  0  0  0  0  0
  156.3400  214.1880  145.1950 C   0  0  0  0  0  0  0  0  0  0  0  0
  158.6280  213.8290  144.1830 C   0  0  0  0  0  0  0  0  0  0  0  0
  159.3210  212.9500  141.9980 C   0  0  0  0  0  3  0  0  0  0  0  0
  159.5110  213.7930  143.0090 C   0  0  0  0  0  3  0  0  0  0  0  0
  160.9080  211.9310  138.9820 C   0  0  0  0  0  2  0  0  0  0  0  0
  161.9280  212.5610  141.3720 S   0  0  0  0  0  0  0  0  0  0  0  0
  162.5440  210.4030  139.9280 N   0  0  0  0  0  1  0  0  0  0  0  0
  159.8410  212.0210  139.8830 O   0  0  0  0  0  0  0  0  0  0  0  0
  160.2480  212.9620  140.8330 C   0  0  1  0  0  3  0  0  0  0  0  0
  162.2020  211.8010  139.7550 C   0  0  1  0  0  0  0  0  0  0  0  0
  163.0870  212.9060  137.2580 O   0  0  0  0  0  0  0  0  0  0  0  0
  163.7970  213.9960  139.5270 O   0  0  0  0  0  1  0  0  0  0  0  0
  163.5390  212.6560  138.8730 P   0  0  0  0  0  0  0  0  0  0  0  0
  164.9490  211.7180  138.9350 O   0  0  0  0  0  1  0  0  0  0  0  0
  159.8600  212.3800  152.8120 C   0  0  0  0  0  2  0  0  0  0  0  0
  160.2400  211.0780  153.5000 C   0  0  2  0  0  3  0  0  0  0  0  0
  160.5990  211.3430  154.8240 O   0  0  0  0  0  1  0  0  0  0  0  0
  161.4120  209.0440  152.5530 C   0  0  0  0  0  0  0  0  0  0  0  0
  160.8400  206.8810  152.4900 C   0  0  0  0  0  2  0  0  0  0  0  0
  160.4870  208.2240  152.9310 N   0  0  0  0  0  0  0  0  0  0  0  0
  162.1980  207.0600  151.7870 C   0  0  2  0  0  3  0  0  0  0  0  0
  162.4500  208.4530  151.8670 O   0  0  0  0  0  0  0  0  0  0  0  0
  161.3600  210.4530  152.8070 N   0  0  0  0  0  2  0  0  0  0  0  0
  162.1600  206.6010  150.3270 C   0  0  0  0  0  2  0  0  0  0  0  0
  160.8980  205.7980  149.9990 C   0  0  0  0  0  2  0  0  0  0  0  0
  160.9230  206.9550  147.8910 O   0  0  0  0  0  1  0  0  0  0  0  0
  161.4730  204.6380  147.8340 C   0  0  0  0  0  1  0  0  0  0  0  0
  160.6450  205.7270  148.4920 C   0  0  1  0  0  3  0  0  0  0  0  0
  1  3  1  0  0  0  0
  2  1  1  0  0  0  0
  3 11  1  0  0  0  0
  3 13  2  0  0  0  0
  4 16  2  0  0  0  0
  6 30  1  0  0  0  0
  7  5  1  1  0  0  0
  7  9  1  0  0  0  0
  8 15  2  0  0  0  0
  9  6  1  0  0  0  0
 10 17  1  0  0  0  0
 10 16  1  0  0  0  0
 11  7  1  0  0  0  0
 12  9  2  0  0  0  0
 13 12  1  0  0  0  0
 14  1  2  0  0  0  0
 14  8  1  0  0  0  0
 15 13  1  0  0  0  0
 16 14  1  0  0  0  0
 17  2  2  0  0  0  0
 18 19  2  0  0  0  0
 19 17  1  0  0  0  0
 20 25  1  0  0  0  0
 20 23  1  0  0  0  0
 23 24  1  0  0  0  0
 24 21  1  0  0  0  0
 24 18  1  1  0  0  0
 25 22  1  1  0  0  0
 25 21  1  0  0  0  0
 26 28  2  0  0  0  0
 28 29  1  0  0  0  0
 28 27  1  0  0  0  0
 28 25  1  0  0  0  0
 30 31  1  0  0  0  0
 31 32  1  1  0  0  0
 33 38  1  0  0  0  0
 33 35  2  0  0  0  0
 34 35  1  0  0  0  0
 36 39  1  6  0  0  0
 36 37  1  0  0  0  0
 36 34  1  0  0  0  0
 37 33  1  0  0  0  0
 38 31  1  0  0  0  0
 40 39  1  0  0  0  0
 41 43  1  0  0  0  0
 43 42  1  6  0  0  0
 43 40  1  0  0  0  0
M  END
>  <MODEL>
1

>  <REMARK>
 VINA RESULT:      -5.9      0.000      0.000
  Name = 
  9 active torsions:
  status: ('A' for Active; 'I' for Inactive)
    1  A    between atoms: C_1  and  C_34
    2  A    between atoms: C_2  and  C_8
    3  A    between atoms: C_2  and  N_36
    4  A    between atoms: C_8  and  N_18
    5  A    between atoms: C_21  and  C_23
    6  A    between atoms: C_23  and  C_24
    7  A    between atoms: C_24  and  C_31
    8  A    between atoms: P_25  and  C_43
    9  A    between atoms: C_41  and  C_42
                            x       y       z     vdW  Elec       q    Type
                         _______ _______ _______ _____ _____    ______ ____

>  <TORSDO>
F 9

$$$$
=
 OpenBabel11052411363D

 43 47  0  0  1  0  0  0  0  0999 V2000
  161.4300  211.1640  148.9160 C   0  0  0  0  0  0  0  0  0  0  0  0
  161.5220  211.5250  147.5320 N   0  0  0  0  0  0  0  0  0  0  0  0
  161.5890  209.8260  149.3030 C   0  0  0  0  0  0  0  0  0  0  0  0
  160.8010  214.4510  150.3050 O   0  0  0  0  0  0  0  0  0  0  0  0
  163.7040  207.5280  148.6370 O   0  0  0  0  0  1  0  0  0  0  0  0
  161.9470  205.7920  150.5420 N   0  0  0  0  0  2  0  0  0  0  0  0
  162.3120  207.5300  148.7410 C   0  0  1  0  0  3  0  0  0  0  0  0
  161.1130  211.7880  151.2440 C   0  0  0  0  0  3  0  0  0  0  0  0
  161.9160  207.1650  150.1530 C   0  0  0  0  0  0  0  0  0  0  0  0
  161.0590  213.9020  148.0030 C   0  0  0  0  0  2  0  0  0  0  0  0
  161.8120  208.8170  148.3570 O   0  0  0  0  0  0  0  0  0  0  0  0
  161.5930  208.0870  151.0160 N   0  0  0  0  0  0  0  0  0  0  0  0
  161.5050  209.4700  150.6540 C   0  0  0  0  0  0  0  0  0  0  0  0
  161.1900  212.1470  149.8900 C   0  0  0  0  0  0  0  0  0  0  0  0
  161.2670  210.4490  151.6260 C   0  0  0  0  0  3  0  0  0  0  0  0
  161.0130  213.5410  149.4590 C   0  0  0  0  0  0  0  0  0  0  0  0
  161.3660  212.7430  147.0880 C   0  0  0  0  0  0  0  0  0  0  0  0
  160.4670  212.9060  144.8090 C   0  0  0  0  0  3  0  0  0  0  0  0
  161.4890  213.0290  145.6520 C   0  0  0  0  0  3  0  0  0  0  0  0
  159.8540  212.9810  141.3060 C   0  0  0  0  0  2  0  0  0  0  0  0
  162.0170  212.2370  142.6910 S   0  0  0  0  0  0  0  0  0  0  0  0
  160.8760  210.8580  140.7110 N   0  0  0  0  0  1  0  0  0  0  0  0
  159.4860  212.9120  142.6540 O   0  0  0  0  0  0  0  0  0  0  0  0
  160.6510  213.2130  143.3640 C   0  0  1  0  0  3  0  0  0  0  0  0
  161.1490  212.2260  141.1050 C   0  0  1  0  0  0  0  0  0  0  0  0
  163.3750  211.9930  139.3080 O   0  0  0  0  0  1  0  0  0  0  0  0
  161.2730  213.4020  138.6520 O   0  0  0  0  0  0  0  0  0  0  0  0
  162.1520  213.0430  139.8310 P   0  0  0  0  0  0  0  0  0  0  0  0
  162.8410  214.4530  140.4700 O   0  0  0  0  0  1  0  0  0  0  0  0
  161.6660  205.3390  151.9000 C   0  0  0  0  0  2  0  0  0  0  0  0
  160.8460  204.0580  151.8750 C   0  0  2  0  0  3  0  0  0  0  0  0
  160.5690  203.6610  153.1860 O   0  0  0  0  0  1  0  0  0  0  0  0
  161.0040  202.2150  150.1470 C   0  0  0  0  0  0  0  0  0  0  0  0
  159.5290  201.4280  148.6590 C   0  0  0  0  0  2  0  0  0  0  0  0
  159.7850  202.3650  149.7450 N   0  0  0  0  0  0  0  0  0  0  0  0
  160.8510  200.6540  148.5090 C   0  0  2  0  0  3  0  0  0  0  0  0
  161.7080  201.2410  149.4740 O   0  0  0  0  0  0  0  0  0  0  0  0
  161.5850  203.0030  151.1920 N   0  0  0  0  0  2  0  0  0  0  0  0
  161.4460  200.7880  147.1040 C   0  0  0  0  0  2  0  0  0  0  0  0
  160.6220  201.7150  146.2070 C   0  0  0  0  0  2  0  0  0  0  0  0
  160.7160  203.6920  144.8420 O   0  0  0  0  0  1  0  0  0  0  0  0
  161.6410  203.8710  147.0290 C   0  0  0  0  0  1  0  0  0  0  0  0
  161.3980  202.9770  145.8260 C   0  0  1  0  0  3  0  0  0  0  0  0
  1  3  2  0  0  0  0
  1 14  1  0  0  0  0
  2  1  1  0  0  0  0
  3 13  1  0  0  0  0
  6 30  1  0  0  0  0
  7  5  1  1  0  0  0
  7  9  1  0  0  0  0
  8 15  1  0  0  0  0
  9  6  1  0  0  0  0
  9 12  2  0  0  0  0
 10 16  1  0  0  0  0
 11  7  1  0  0  0  0
 11  3  1  0  0  0  0
 13 12  1  0  0  0  0
 13 15  2  0  0  0  0
 14  8  2  0  0  0  0
 16 14  1  0  0  0  0
 16  4  2  0  0  0  0
 17  2  2  0  0  0  0
 17 10  1  0  0  0  0
 18 19  2  0  0  0  0
 19 17  1  0  0  0  0
 20 23  1  0  0  0  0
 21 24  1  0  0  0  0
 23 24  1  0  0  0  0
 24 18  1  1  0  0  0
 25 22  1  6  0  0  0
 25 20  1  0  0  0  0
 25 21  1  0  0  0  0
 26 28  1  0  0  0  0
 27 28  2  0  0  0  0
 28 29  1  0  0  0  0
 28 25  1  0  0  0  0
 31 30  1  0  0  0  0
 31 32  1  1  0  0  0
 33 38  1  0  0  0  0
 34 35  1  0  0  0  0
 35 33  2  0  0  0  0
 36 39  1  6  0  0  0
 36 34  1  0  0  0  0
 36 37  1  0  0  0  0
 37 33  1  0  0  0  0
 38 31  1  0  0  0  0
 40 39  1  0  0  0  0
 41 43  1  0  0  0  0
 43 40  1  0  0  0  0
 43 42  1  1  0  0  0
M  END
>  <MODEL>
2

>  <REMARK>
 VINA RESULT:      -5.1      2.976      5.396
  Name = 
  9 active torsions:
  status: ('A' for Active; 'I' for Inactive)
    1  A    between atoms: C_1  and  C_34
    2  A    between atoms: C_2  and  C_8
    3  A    between atoms: C_2  and  N_36
    4  A    between atoms: C_8  and  N_18
    5  A    between atoms: C_21  and  C_23
    6  A    between atoms: C_23  and  C_24
    7  A    between atoms: C_24  and  C_31
    8  A    between atoms: P_25  and  C_43
    9  A    between atoms: C_41  and  C_42
                            x       y       z     vdW  Elec       q    Type
                         _______ _______ _______ _____ _____    ______ ____

>  <TORSDO>
F 9

$$$$
=
 OpenBabel11052411363D

 43 47  0  0  1  0  0  0  0  0999 V2000
  161.1810  203.7450  148.4100 C   0  0  0  0  0  0  0  0  0  0  0  0
  161.3280  204.5180  149.6090 N   0  0  0  0  0  0  0  0  0  0  0  0
  161.3180  204.3620  147.1580 C   0  0  0  0  0  0  0  0  0  0  0  0
  160.5150  200.5160  149.9120 O   0  0  0  0  0  0  0  0  0  0  0  0
  163.4450  206.3530  145.8520 O   0  0  0  0  0  1  0  0  0  0  0  0
  161.6070  206.1690  143.3390 N   0  0  0  0  0  2  0  0  0  0  0  0
  162.0500  206.3100  145.8250 C   0  0  1  0  0  3  0  0  0  0  0  0
  160.7770  201.6180  147.3070 C   0  0  0  0  0  3  0  0  0  0  0  0
  161.5970  205.5280  144.6140 C   0  0  0  0  0  0  0  0  0  0  0  0
  160.8600  202.5750  151.0550 C   0  0  0  0  0  2  0  0  0  0  0  0
  161.5720  205.7350  147.0480 O   0  0  0  0  0  0  0  0  0  0  0  0
  161.2450  204.2770  144.7200 N   0  0  0  0  0  0  0  0  0  0  0  0
  161.1790  203.6100  145.9860 C   0  0  0  0  0  0  0  0  0  0  0  0
  160.9080  202.3700  148.4830 C   0  0  0  0  0  0  0  0  0  0  0  0
  160.9080  202.2390  146.0580 C   0  0  0  0  0  3  0  0  0  0  0  0
  160.7550  201.7480  149.8070 C   0  0  0  0  0  0  0  0  0  0  0  0
  161.1960  204.0240  150.8100 C   0  0  0  0  0  0  0  0  0  0  0  0
  161.2920  206.2110  151.9240 C   0  0  0  0  0  3  0  0  0  0  0  0
  161.3760  204.8850  151.9880 C   0  0  0  0  0  3  0  0  0  0  0  0
  160.5930  207.7360  155.0600 C   0  0  0  0  0  2  0  0  0  0  0  0
  161.4070  208.7910  152.7410 S   0  0  0  0  0  0  0  0  0  0  0  0
  159.4050  209.6970  154.2560 N   0  0  0  0  0  1  0  0  0  0  0  0
  160.4790  206.7410  154.0840 O   0  0  0  0  0  0  0  0  0  0  0  0
  161.4800  207.0310  153.1520 C   0  0  1  0  0  3  0  0  0  0  0  0
  160.7120  209.0840  154.3850 C   0  0  1  0  0  0  0  0  0  0  0  0
  162.3830  209.3290  156.7060 O   0  0  0  0  0  1  0  0  0  0  0  0
  162.9800  210.5870  154.4930 O   0  0  0  0  0  0  0  0  0  0  0  0
  161.8060  210.1660  155.3490 P   0  0  0  0  0  0  0  0  0  0  0  0
  160.9480  211.5410  155.8450 O   0  0  0  0  0  1  0  0  0  0  0  0
  161.2700  205.4830  142.0960 C   0  0  0  0  0  2  0  0  0  0  0  0
  161.7940  206.2630  140.9000 C   0  0  2  0  0  3  0  0  0  0  0  0
  163.1470  205.9670  140.7120 O   0  0  0  0  0  1  0  0  0  0  0  0
  161.6240  208.6410  140.0500 C   0  0  0  0  0  0  0  0  0  0  0  0
  161.6850  209.5000  137.9840 C   0  0  0  0  0  2  0  0  0  0  0  0
  161.7740  208.3040  138.8110 N   0  0  0  0  0  0  0  0  0  0  0  0
  161.4810  210.6430  138.9950 C   0  0  2  0  0  3  0  0  0  0  0  0
  161.4380  209.9900  140.2540 O   0  0  0  0  0  0  0  0  0  0  0  0
  161.6340  207.6940  141.1250 N   0  0  0  0  0  2  0  0  0  0  0  0
  160.1840  211.4170  138.7430 C   0  0  0  0  0  2  0  0  0  0  0  0
  159.4380  210.9160  137.5030 C   0  0  0  0  0  2  0  0  0  0  0  0
  158.1300  209.8440  139.2120 O   0  0  0  0  0  1  0  0  0  0  0  0
  156.9250  211.1190  137.6010 C   0  0  0  0  0  1  0  0  0  0  0  0
  158.1230  210.2260  137.8710 C   0  0  1  0  0  3  0  0  0  0  0  0
  1 14  1  0  0  0  0
  1  2  1  0  0  0  0
  2 17  2  0  0  0  0
  3  1  2  0  0  0  0
  6  9  1  0  0  0  0
  7  5  1  1  0  0  0
  7 11  1  0  0  0  0
  8 14  2  0  0  0  0
  9 12  2  0  0  0  0
  9  7  1  0  0  0  0
 11  3  1  0  0  0  0
 12 13  1  0  0  0  0
 13 15  2  0  0  0  0
 13  3  1  0  0  0  0
 14 16  1  0  0  0  0
 15  8  1  0  0  0  0
 16  4  2  0  0  0  0
 16 10  1  0  0  0  0
 17 10  1  0  0  0  0
 17 19  1  0  0  0  0
 18 19  2  0  0  0  0
 21 24  1  0  0  0  0
 21 25  1  0  0  0  0
 23 20  1  0  0  0  0
 24 18  1  6  0  0  0
 24 23  1  0  0  0  0
 25 22  1  6  0  0  0
 25 20  1  0  0  0  0
 25 28  1  0  0  0  0
 27 28  2  0  0  0  0
 28 29  1  0  0  0  0
 28 26  1  0  0  0  0
 30  6  1  0  0  0  0
 31 32  1  1  0  0  0
 31 38  1  0  0  0  0
 31 30  1  0  0  0  0
 33 37  1  0  0  0  0
 33 38  1  0  0  0  0
 34 35  1  0  0  0  0
 34 36  1  0  0  0  0
 35 33  2  0  0  0  0
 36 39  1  6  0  0  0
 36 37  1  0  0  0  0
 40 43  1  0  0  0  0
 40 39  1  0  0  0  0
 43 42  1  1  0  0  0
 43 41  1  0  0  0  0
M  END
>  <MODEL>
3

>  <REMARK>
 VINA RESULT:      -4.3      5.948     13.085
  Name = 
  9 active torsions:
  status: ('A' for Active; 'I' for Inactive)
    1  A    between atoms: C_1  and  C_34
    2  A    between atoms: C_2  and  C_8
    3  A    between atoms: C_2  and  N_36
    4  A    between atoms: C_8  and  N_18
    5  A    between atoms: C_21  and  C_23
    6  A    between atoms: C_23  and  C_24
    7  A    between atoms: C_24  and  C_31
    8  A    between atoms: P_25  and  C_43
    9  A    between atoms: C_41  and  C_42
                            x       y       z     vdW  Elec       q    Type
                         _______ _______ _______ _____ _____    ______ ____

>  <TORSDO>
F 9

$$$$
=
 OpenBabel11052411363D

 43 47  0  0  1  0  0  0  0  0999 V2000
  161.4460  211.1810  148.7030 C   0  0  0  0  0  0  0  0  0  0  0  0
  161.5600  211.5910  147.3340 N   0  0  0  0  0  0  0  0  0  0  0  0
  161.4720  209.8190  149.0320 C   0  0  0  0  0  0  0  0  0  0  0  0
  161.1680  214.4530  150.2360 O   0  0  0  0  0  0  0  0  0  0  0  0
  163.3350  207.3490  148.2410 O   0  0  0  0  0  1  0  0  0  0  0  0
  161.4290  205.7200  150.0970 N   0  0  0  0  0  2  0  0  0  0  0  0
  161.9510  207.4880  148.3650 C   0  0  1  0  0  3  0  0  0  0  0  0
  161.2170  211.7350  151.0590 C   0  0  0  0  0  3  0  0  0  0  0  0
  161.5340  207.1040  149.7650 C   0  0  0  0  0  0  0  0  0  0  0  0
  161.3470  213.9800  147.9100 C   0  0  0  0  0  2  0  0  0  0  0  0
  161.5820  208.8340  148.0420 O   0  0  0  0  0  0  0  0  0  0  0  0
  161.3150  208.0170  150.6710 N   0  0  0  0  0  0  0  0  0  0  0  0
  161.3650  209.4160  150.3680 C   0  0  0  0  0  0  0  0  0  0  0  0
  161.3160  212.1410  149.7200 C   0  0  0  0  0  0  0  0  0  0  0  0
  161.2370  210.3710  151.3830 C   0  0  0  0  0  3  0  0  0  0  0  0
  161.2780  213.5640  149.3510 C   0  0  0  0  0  0  0  0  0  0  0  0
  161.5250  212.8360  146.9440 C   0  0  0  0  0  0  0  0  0  0  0  0
  160.7100  212.9030  144.6280 C   0  0  0  0  0  3  0  0  0  0  0  0
  161.6620  213.1690  145.5190 C   0  0  0  0  0  3  0  0  0  0  0  0
  160.0830  213.1850  141.1390 C   0  0  0  0  0  2  0  0  0  0  0  0
  162.2030  212.2410  142.4670 S   0  0  0  0  0  0  0  0  0  0  0  0
  160.9650  211.0330  140.4340 N   0  0  0  0  0  1  0  0  0  0  0  0
  159.7190  213.0740  142.4850 O   0  0  0  0  0  0  0  0  0  0  0  0
  160.9050  213.2670  143.1980 C   0  0  1  0  0  3  0  0  0  0  0  0
  161.3260  212.3610  140.8900 C   0  0  1  0  0  0  0  0  0  0  0  0
  161.4000  213.7780  138.3950 O   0  0  0  0  0  0  0  0  0  0  0  0
  163.1160  214.3230  140.2900 O   0  0  0  0  0  1  0  0  0  0  0  0
  162.3710  213.1740  139.6470 P   0  0  0  0  0  0  0  0  0  0  0  0
  163.4830  212.0580  139.0240 O   0  0  0  0  0  1  0  0  0  0  0  0
  161.1170  205.2400  151.4390 C   0  0  0  0  0  2  0  0  0  0  0  0
  161.7660  206.1320  152.4870 C   0  0  2  0  0  3  0  0  0  0  0  0
  162.9380  205.5260  152.9460 O   0  0  0  0  0  1  0  0  0  0  0  0
  160.8680  207.5320  154.3950 C   0  0  0  0  0  0  0  0  0  0  0  0
  161.4200  209.5670  155.1470 C   0  0  0  0  0  2  0  0  0  0  0  0
  161.6960  208.5030  154.1890 N   0  0  0  0  0  0  0  0  0  0  0  0
  160.2630  209.0160  155.9990 C   0  0  2  0  0  3  0  0  0  0  0  0
  159.9850  207.7470  155.4290 O   0  0  0  0  0  0  0  0  0  0  0  0
  160.8530  206.3370  153.6050 N   0  0  0  0  0  2  0  0  0  0  0  0
  159.0250  209.9150  155.9480 C   0  0  0  0  0  2  0  0  0  0  0  0
  159.3360  211.3050  155.3870 C   0  0  0  0  0  2  0  0  0  0  0  0
  157.2830  211.2880  154.1340 O   0  0  0  0  0  1  0  0  0  0  0  0
  158.8750  212.9540  153.5340 C   0  0  0  0  0  1  0  0  0  0  0  0
  158.6520  211.5400  154.0380 C   0  0  1  0  0  3  0  0  0  0  0  0
  1  3  2  0  0  0  0
  1 14  1  0  0  0  0
  2  1  1  0  0  0  0
  3 13  1  0  0  0  0
  6 30  1  0  0  0  0
  7  5  1  1  0  0  0
  7  9  1  0  0  0  0
  8 15  1  0  0  0  0
  9  6  1  0  0  0  0
  9 12  2  0  0  0  0
 10 16  1  0  0  0  0
 11  7  1  0  0  0  0
 11  3  1  0  0  0  0
 13 12  1  0  0  0  0
 13 15  2  0  0  0  0
 14  8  2  0  0  0  0
 16 14  1  0  0  0  0
 16  4  2  0  0  0  0
 17  2  2  0  0  0  0
 17 10  1  0  0  0  0
 18 19  2  0  0  0  0
 19 17  1  0  0  0  0
 20 23  1  0  0  0  0
 21 24  1  0  0  0  0
 23 24  1  0  0  0  0
 24 18  1  1  0  0  0
 25 22  1  6  0  0  0
 25 20  1  0  0  0  0
 25 21  1  0  0  0  0
 26 28  2  0  0  0  0
 28 27  1  0  0  0  0
 28 25  1  0  0  0  0
 29 28  1  0  0  0  0
 30 31  1  0  0  0  0
 31 32  1  1  0  0  0
 31 38  1  0  0  0  0
 33 37  1  0  0  0  0
 34 36  1  0  0  0  0
 35 33  2  0  0  0  0
 35 34  1  0  0  0  0
 36 39  1  6  0  0  0
 37 36  1  0  0  0  0
 38 33  1  0  0  0  0
 40 39  1  0  0  0  0
 43 42  1  1  0  0  0
 43 41  1  0  0  0  0
 43 40  1  0  0  0  0
M  END
>  <MODEL>
4

>  <REMARK>
 VINA RESULT:      -3.8      2.730      5.304
  Name = 
  9 active torsions:
  status: ('A' for Active; 'I' for Inactive)
    1  A    between atoms: C_1  and  C_34
    2  A    between atoms: C_2  and  C_8
    3  A    between atoms: C_2  and  N_36
    4  A    between atoms: C_8  and  N_18
    5  A    between atoms: C_21  and  C_23
    6  A    between atoms: C_23  and  C_24
    7  A    between atoms: C_24  and  C_31
    8  A    between atoms: P_25  and  C_43
    9  A    between atoms: C_41  and  C_42
                            x       y       z     vdW  Elec       q    Type
                         _______ _______ _______ _____ _____    ______ ____

>  <TORSDO>
F 9

$$$$
=
 OpenBabel11052411363D

 43 47  0  0  1  0  0  0  0  0999 V2000
  161.7390  205.8130  147.2250 C   0  0  0  0  0  0  0  0  0  0  0  0
  162.0090  206.0560  145.8380 N   0  0  0  0  0  0  0  0  0  0  0  0
  161.8790  206.8500  148.1580 C   0  0  0  0  0  0  0  0  0  0  0  0
  160.8240  202.3140  147.0060 O   0  0  0  0  0  0  0  0  0  0  0  0
  160.9250  209.8940  148.2990 O   0  0  0  0  0  1  0  0  0  0  0  0
  162.3880  209.8980  151.0540 N   0  0  0  0  0  2  0  0  0  0  0  0
  162.1300  209.2650  148.6190 C   0  0  1  0  0  3  0  0  0  0  0  0
  161.0510  204.3140  149.0100 C   0  0  0  0  0  3  0  0  0  0  0  0
  162.1240  208.8870  150.0810 C   0  0  0  0  0  0  0  0  0  0  0  0
  161.5320  203.7160  145.2170 C   0  0  0  0  0  2  0  0  0  0  0  0
  162.3070  208.1260  147.7690 O   0  0  0  0  0  0  0  0  0  0  0  0
  161.8390  207.6710  150.4560 N   0  0  0  0  0  0  0  0  0  0  0  0
  161.6130  206.6170  149.5120 C   0  0  0  0  0  0  0  0  0  0  0  0
  161.3250  204.5410  147.6530 C   0  0  0  0  0  0  0  0  0  0  0  0
  161.1990  205.3510  149.9400 C   0  0  0  0  0  3  0  0  0  0  0  0
  161.1980  203.4660  146.6590 C   0  0  0  0  0  0  0  0  0  0  0  0
  161.9210  205.1410  144.9110 C   0  0  0  0  0  0  0  0  0  0  0  0
  161.3530  206.1670  142.7530 C   0  0  0  0  0  3  0  0  0  0  0  0
  162.2040  205.4780  143.5090 C   0  0  0  0  0  3  0  0  0  0  0  0
  163.2550  207.1950  139.9290 C   0  0  0  0  0  2  0  0  0  0  0  0
  160.8670  208.0020  140.8210 S   0  0  0  0  0  0  0  0  0  0  0  0
  162.8830  209.5910  140.0910 N   0  0  0  0  0  1  0  0  0  0  0  0
  163.0790  206.6510  141.2060 O   0  0  0  0  0  0  0  0  0  0  0  0
  161.6980  206.4810  141.3400 C   0  0  1  0  0  3  0  0  0  0  0  0
  162.2720  208.3270  139.7310 C   0  0  1  0  0  0  0  0  0  0  0  0
  162.3250  207.0240  137.1730 O   0  0  0  0  0  0  0  0  0  0  0  0
  160.2160  208.3630  137.9450 O   0  0  0  0  0  1  0  0  0  0  0  0
  161.7280  208.3800  137.9990 P   0  0  0  0  0  0  0  0  0  0  0  0
  162.3030  209.7960  137.2670 O   0  0  0  0  0  1  0  0  0  0  0  0
  162.3240  209.6610  152.4920 C   0  0  0  0  0  2  0  0  0  0  0  0
  161.3950  210.6660  153.1570 C   0  0  2  0  0  3  0  0  0  0  0  0
  161.0910  210.2290  154.4490 O   0  0  0  0  0  1  0  0  0  0  0  0
  159.3850  212.0000  152.3920 C   0  0  0  0  0  0  0  0  0  0  0  0
  158.7110  214.0850  152.8470 C   0  0  0  0  0  2  0  0  0  0  0  0
  159.6970  213.0410  153.0920 N   0  0  0  0  0  0  0  0  0  0  0  0
  157.7130  213.4400  151.8690 C   0  0  2  0  0  3  0  0  0  0  0  0
  158.2420  212.1440  151.6380 O   0  0  0  0  0  0  0  0  0  0  0  0
  160.1660  210.7990  152.3850 N   0  0  0  0  0  2  0  0  0  0  0  0
  157.5990  214.2200  150.5560 C   0  0  0  0  0  2  0  0  0  0  0  0
  157.1720  213.3310  149.3850 C   0  0  0  0  0  2  0  0  0  0  0  0
  159.3330  213.2810  148.3310 O   0  0  0  0  0  1  0  0  0  0  0  0
  157.4590  212.8620  146.9230 C   0  0  0  0  0  1  0  0  0  0  0  0
  157.9950  213.6160  148.1260 C   0  0  1  0  0  3  0  0  0  0  0  0
  1 14  2  0  0  0  0
  1  3  1  0  0  0  0
  2  1  1  0  0  0  0
  3 13  2  0  0  0  0
  6 30  1  0  0  0  0
  7  5  1  6  0  0  0
  7  9  1  0  0  0  0
  8 15  2  0  0  0  0
  9 12  2  0  0  0  0
  9  6  1  0  0  0  0
 10 16  1  0  0  0  0
 11  3  1  0  0  0  0
 11  7  1  0  0  0  0
 13 15  1  0  0  0  0
 13 12  1  0  0  0  0
 14  8  1  0  0  0  0
 16  4  2  0  0  0  0
 16 14  1  0  0  0  0
 17 10  1  0  0  0  0
 17  2  2  0  0  0  0
 18 19  2  0  0  0  0
 19 17  1  0  0  0  0
 20 23  1  0  0  0  0
 21 24  1  0  0  0  0
 23 24  1  0  0  0  0
 24 18  1  1  0  0  0
 25 20  1  0  0  0  0
 25 22  1  1  0  0  0
 25 21  1  0  0  0  0
 26 28  2  0  0  0  0
 27 28  1  0  0  0  0
 28 25  1  0  0  0  0
 29 28  1  0  0  0  0
 30 31  1  0  0  0  0
 31 32  1  1  0  0  0
 33 35  2  0  0  0  0
 34 35  1  0  0  0  0
 36 39  1  6  0  0  0
 36 34  1  0  0  0  0
 37 36  1  0  0  0  0
 37 33  1  0  0  0  0
 38 33  1  0  0  0  0
 38 31  1  0  0  0  0
 40 39  1  0  0  0  0
 43 42  1  6  0  0  0
 43 41  1  0  0  0  0
 43 40  1  0  0  0  0
M  END
>  <MODEL>
5

>  <REMARK>
 VINA RESULT:      -3.2      3.203      7.140
  Name = 
  9 active torsions:
  status: ('A' for Active; 'I' for Inactive)
    1  A    between atoms: C_1  and  C_34
    2  A    between atoms: C_2  and  C_8
    3  A    between atoms: C_2  and  N_36
    4  A    between atoms: C_8  and  N_18
    5  A    between atoms: C_21  and  C_23
    6  A    between atoms: C_23  and  C_24
    7  A    between atoms: C_24  and  C_31
    8  A    between atoms: P_25  and  C_43
    9  A    between atoms: C_41  and  C_42
                            x       y       z     vdW  Elec       q    Type
                         _______ _______ _______ _____ _____    ______ ____

>  <TORSDO>
F 9

$$$$
