=
 OpenBabel11052410263D

 36 42  0  0  1  0  0  0  0  0999 V2000
  160.8280  212.6210  150.1690 C   0  0  2  0  0  3  0  0  0  0  0  0
  161.0320  211.2200  149.5220 C   0  0  2  0  0  3  0  0  0  0  0  0
  160.4030  209.6920  153.6190 N   0  0  0  0  0  2  0  0  0  0  0  0
  162.1270  206.4580  150.2440 C   0  0  2  0  0  3  0  0  0  0  0  0
  161.3690  206.7710  153.0100 C   0  0  0  0  0  0  0  0  0  0  0  0
  161.2180  207.0340  155.5370 O   0  0  0  0  0  0  0  0  0  0  0  0
  160.0880  210.9740  153.4490 N   0  0  0  0  0  0  0  0  0  0  0  0
  161.9140  210.3110  150.4080 C   0  0  2  0  0  3  0  0  0  0  0  0
  160.7250  211.4060  152.3430 C   0  0  0  0  0  0  0  0  0  0  0  0
  160.1390  205.3410  151.4100 C   0  0  0  0  0  2  0  0  0  0  0  0
  161.2320  209.3270  152.6150 C   0  0  0  0  0  0  0  0  0  0  0  0
  161.2930  206.9050  154.3080 C   0  0  0  0  0  0  0  0  0  0  0  0
  161.2460  205.3800  152.4550 C   0  0  1  0  0  3  0  0  0  0  0  0
  161.5880  205.2090  150.9730 C   0  0  2  0  0  3  0  0  0  0  0  0
  160.3100  212.5100  151.5390 N   0  0  0  0  0  2  0  0  0  0  0  0
  159.8660  213.4590  149.3470 C   0  0  0  0  0  1  0  0  0  0  0  0
  161.8770  208.9420  149.9670 O   0  0  0  0  0  0  0  0  0  0  0  0
  161.8070  207.8140  150.8260 C   0  0  0  0  0  0  0  0  0  0  0  0
  161.5020  207.9580  152.1350 C   0  0  0  0  0  0  0  0  0  0  0  0
  161.4580  210.3980  151.8160 C   0  0  0  0  0  0  0  0  0  0  0  0
  160.8990  206.7660  146.8910 N   0  0  0  0  0  0  0  0  0  0  0  0
  161.8290  206.4010  148.7790 C   0  0  0  0  0  0  0  0  0  0  0  0
  162.0210  206.0350  146.7440 C   0  0  0  0  0  0  0  0  0  0  0  0
  162.5990  205.8100  147.8970 O   0  0  0  0  0  0  0  0  0  0  0  0
  160.7760  207.0000  148.1880 N   0  0  0  0  0  0  0  0  0  0  0  0
  162.3390  204.1630  145.0920 N   0  0  0  0  0  0  0  0  0  0  0  0
  162.5700  205.5680  145.4220 C   0  0  1  0  0  3  0  0  0  0  0  0
  161.5600  205.1950  144.5900 O   0  0  0  0  0  0  0  0  0  0  0  0
  161.5000  203.4390  146.0460 C   0  0  0  0  0  2  0  0  0  0  0  0
  160.6460  202.4300  145.3070 C   0  0  0  0  0  1  0  0  0  0  0  0
  161.6580  211.3490  148.1380 C   0  0  0  0  0  2  0  0  0  0  0  0
  162.8620  212.2380  148.2030 C   0  0  0  0  0  3  0  0  0  0  0  0
  163.0530  213.2660  147.3700 C   0  0  0  0  0  3  0  0  0  0  0  0
  162.0940  213.6340  146.2760 C   0  0  0  0  0  2  0  0  0  0  0  0
  162.6830  213.3590  144.9300 C   0  0  0  0  0  3  0  0  0  0  0  0
  162.0260  212.7990  144.0660 O   0  0  0  0  0  0  0  0  0  0  0  0
  1 16  1  6  0  0  0
  1 15  1  0  0  0  0
  2 31  1  6  0  0  0
  2  1  1  0  0  0  0
  2  8  1  0  0  0  0
  4 22  1  6  0  0  0
  4 18  1  0  0  0  0
  4 14  1  0  0  0  0
  5 12  2  0  0  0  0
  7  3  1  0  0  0  0
  8 17  1  6  0  0  0
  8 20  1  0  0  0  0
  9  7  2  0  0  0  0
 11  3  1  0  0  0  0
 12  6  2  0  0  0  0
 13 10  1  6  0  0  0
 13  5  1  0  0  0  0
 14 10  1  6  0  0  0
 14 13  1  0  0  0  0
 15  9  1  0  0  0  0
 17 18  1  0  0  0  0
 18 19  2  0  0  0  0
 19 11  1  0  0  0  0
 19  5  1  0  0  0  0
 20  9  1  0  0  0  0
 20 11  2  0  0  0  0
 21 25  1  0  0  0  0
 23 21  2  0  0  0  0
 23 24  1  0  0  0  0
 24 22  1  0  0  0  0
 25 22  2  0  0  0  0
 26 27  1  0  0  0  0
 26 29  1  0  0  0  0
 27 23  1  1  0  0  0
 28 26  1  0  0  0  0
 28 27  1  0  0  0  0
 30 29  1  0  0  0  0
 31 32  1  0  0  0  0
 33 32  2  0  0  0  0
 34 33  1  0  0  0  0
 35 34  1  0  0  0  0
 36 35  2  0  0  0  0
M  END
>  <MODEL>
1

>  <REMARK>
 VINA RESULT:      -6.8      0.000      0.000
  Name = 
  7 active torsions:
  status: ('A' for Active; 'I' for Inactive)
    1  A    between atoms: C_3  and  C_6
    2  A    between atoms: C_4  and  C_29
    3  A    between atoms: C_11  and  C_23
    4  A    between atoms: C_12  and  C_22
    5  A    between atoms: N_16  and  C_28
    6  A    between atoms: C_23  and  C_36
    7  A    between atoms: C_29  and  C_33
                            x       y       z     vdW  Elec       q    Type
                         _______ _______ _______ _____ _____    ______ ____

>  <TORSDO>
F 7

$$$$
=
 OpenBabel11052410263D

 36 42  0  0  1  0  0  0  0  0999 V2000
  160.9970  204.0490  149.1510 C   0  0  2  0  0  3  0  0  0  0  0  0
  161.2220  205.5890  149.1060 C   0  0  2  0  0  3  0  0  0  0  0  0
  161.2230  205.3030  153.5150 N   0  0  0  0  0  2  0  0  0  0  0  0
  160.9590  209.8730  151.5510 C   0  0  2  0  0  3  0  0  0  0  0  0
  161.0120  208.3900  154.0250 C   0  0  0  0  0  0  0  0  0  0  0  0
  160.5490  207.2000  156.2270 O   0  0  0  0  0  0  0  0  0  0  0  0
  161.3080  204.1340  152.8810 N   0  0  0  0  0  0  0  0  0  0  0  0
  160.3640  206.3170  150.1670 C   0  0  2  0  0  3  0  0  0  0  0  0
  160.8580  204.3190  151.6260 C   0  0  0  0  0  0  0  0  0  0  0  0
  162.8220  209.9150  153.3070 C   0  0  0  0  0  2  0  0  0  0  0  0
  160.7240  206.2140  152.6490 C   0  0  0  0  0  0  0  0  0  0  0  0
  160.7720  207.7800  155.1560 C   0  0  0  0  0  0  0  0  0  0  0  0
  161.5270  209.7990  154.0990 C   0  0  1  0  0  3  0  0  0  0  0  0
  161.5610  210.5800  152.7840 C   0  0  2  0  0  3  0  0  0  0  0  0
  161.2120  203.5140  150.5020 N   0  0  0  0  0  2  0  0  0  0  0  0
  161.9320  203.3400  148.1880 C   0  0  0  0  0  1  0  0  0  0  0  0
  160.7680  207.6890  150.3260 O   0  0  0  0  0  0  0  0  0  0  0  0
  160.8680  208.3660  151.5690 C   0  0  0  0  0  0  0  0  0  0  0  0
  160.8440  207.6820  152.7350 C   0  0  0  0  0  0  0  0  0  0  0  0
  160.4730  205.6070  151.4650 C   0  0  0  0  0  0  0  0  0  0  0  0
  162.4370  210.4010  148.3280 N   0  0  0  0  0  0  0  0  0  0  0  0
  161.5770  210.3740  150.2840 C   0  0  0  0  0  0  0  0  0  0  0  0
  162.2280  211.6520  148.7820 C   0  0  0  0  0  0  0  0  0  0  0  0
  161.6980  211.6440  149.9790 O   0  0  0  0  0  0  0  0  0  0  0  0
  162.0220  209.5860  149.2860 N   0  0  0  0  0  0  0  0  0  0  0  0
  161.4510  213.3880  147.1340 N   0  0  0  0  0  0  0  0  0  0  0  0
  162.5240  212.9050  148.0010 C   0  0  1  0  0  3  0  0  0  0  0  0
  161.7020  213.9170  148.3920 O   0  0  0  0  0  0  0  0  0  0  0  0
  160.1950  212.6470  147.2410 C   0  0  0  0  0  2  0  0  0  0  0  0
  159.6850  212.3090  145.8560 C   0  0  0  0  0  1  0  0  0  0  0  0
  160.9030  206.1420  147.7230 C   0  0  0  0  0  2  0  0  0  0  0  0
  162.1680  206.3150  146.9390 C   0  0  0  0  0  3  0  0  0  0  0  0
  162.3000  205.9080  145.6720 C   0  0  0  0  0  3  0  0  0  0  0  0
  161.2060  205.2270  144.9030 C   0  0  0  0  0  2  0  0  0  0  0  0
  161.3730  203.7420  144.9320 C   0  0  0  0  0  3  0  0  0  0  0  0
  160.3990  203.0060  144.9220 O   0  0  0  0  0  0  0  0  0  0  0  0
  1 16  1  6  0  0  0
  1 15  1  0  0  0  0
  2 31  1  6  0  0  0
  2  1  1  0  0  0  0
  2  8  1  0  0  0  0
  4 22  1  6  0  0  0
  4 18  1  0  0  0  0
  4 14  1  0  0  0  0
  5 13  1  0  0  0  0
  5 12  2  0  0  0  0
  7  3  1  0  0  0  0
  8 17  1  1  0  0  0
  8 20  1  0  0  0  0
  9  7  2  0  0  0  0
 11 19  1  0  0  0  0
 11  3  1  0  0  0  0
 12  6  2  0  0  0  0
 13 10  1  6  0  0  0
 14 10  1  6  0  0  0
 14 13  1  0  0  0  0
 15  9  1  0  0  0  0
 17 18  1  0  0  0  0
 18 19  2  0  0  0  0
 19  5  1  0  0  0  0
 20  9  1  0  0  0  0
 20 11  2  0  0  0  0
 21 23  2  0  0  0  0
 21 25  1  0  0  0  0
 23 24  1  0  0  0  0
 24 22  1  0  0  0  0
 25 22  2  0  0  0  0
 26 29  1  0  0  0  0
 26 27  1  0  0  0  0
 26 28  1  0  0  0  0
 27 28  1  0  0  0  0
 27 23  1  1  0  0  0
 30 29  1  0  0  0  0
 32 31  1  0  0  0  0
 33 32  2  0  0  0  0
 34 35  1  0  0  0  0
 34 33  1  0  0  0  0
 36 35  2  0  0  0  0
M  END
>  <MODEL>
2

>  <REMARK>
 VINA RESULT:      -6.8      2.387      6.496
  Name = 
  7 active torsions:
  status: ('A' for Active; 'I' for Inactive)
    1  A    between atoms: C_3  and  C_6
    2  A    between atoms: C_4  and  C_29
    3  A    between atoms: C_11  and  C_23
    4  A    between atoms: C_12  and  C_22
    5  A    between atoms: N_16  and  C_28
    6  A    between atoms: C_23  and  C_36
    7  A    between atoms: C_29  and  C_33
                            x       y       z     vdW  Elec       q    Type
                         _______ _______ _______ _____ _____    ______ ____

>  <TORSDO>
F 7

$$$$
=
 OpenBabel11052410263D

 36 42  0  0  1  0  0  0  0  0999 V2000
  161.9540  206.0570  151.8950 C   0  0  2  0  0  3  0  0  0  0  0  0
  161.2530  207.2270  152.6460 C   0  0  2  0  0  3  0  0  0  0  0  0
  161.7560  209.4230  148.8470 N   0  0  0  0  0  2  0  0  0  0  0  0
  160.3820  212.0850  152.8270 C   0  0  2  0  0  3  0  0  0  0  0  0
  161.0320  212.2400  150.0200 C   0  0  0  0  0  0  0  0  0  0  0  0
  162.0510  212.5920  147.7150 O   0  0  0  0  0  0  0  0  0  0  0  0
  161.9850  208.1140  148.7660 N   0  0  0  0  0  0  0  0  0  0  0  0
  161.9340  208.5820  152.3450 C   0  0  2  0  0  3  0  0  0  0  0  0
  162.2340  207.6680  150.0130 C   0  0  0  0  0  0  0  0  0  0  0  0
  158.7740  212.6880  150.9270 C   0  0  0  0  0  2  0  0  0  0  0  0
  161.8590  209.7880  150.1440 C   0  0  0  0  0  0  0  0  0  0  0  0
  161.5560  212.4220  148.8370 C   0  0  0  0  0  0  0  0  0  0  0  0
  160.1080  213.3080  150.5350 C   0  0  1  0  0  3  0  0  0  0  0  0
  159.7070  213.2060  152.0080 C   0  0  2  0  0  3  0  0  0  0  0  0
  162.0470  206.3240  150.4530 N   0  0  0  0  0  2  0  0  0  0  0  0
  161.2050  204.7550  152.1060 C   0  0  0  0  0  1  0  0  0  0  0  0
  161.1360  209.6890  152.7980 O   0  0  0  0  0  0  0  0  0  0  0  0
  160.9450  210.8990  152.0810 C   0  0  0  0  0  0  0  0  0  0  0  0
  161.2920  210.9940  150.7780 C   0  0  0  0  0  0  0  0  0  0  0  0
  162.1760  208.7000  150.8860 C   0  0  0  0  0  0  0  0  0  0  0  0
  158.8680  211.2510  155.9670 N   0  0  0  0  0  0  0  0  0  0  0  0
  159.5210  211.6590  153.9740 C   0  0  0  0  0  0  0  0  0  0  0  0
  157.8620  211.0870  155.0850 C   0  0  0  0  0  0  0  0  0  0  0  0
  158.2550  211.3400  153.8610 O   0  0  0  0  0  0  0  0  0  0  0  0
  159.9260  211.6160  155.2590 N   0  0  0  0  0  0  0  0  0  0  0  0
  155.6010  211.7910  155.9350 N   0  0  0  0  0  0  0  0  0  0  0  0
  156.4540  210.7050  155.4550 C   0  0  1  0  0  3  0  0  0  0  0  0
  155.5600  211.3180  154.6320 O   0  0  0  0  0  0  0  0  0  0  0  0
  156.2060  213.1200  155.8730 C   0  0  0  0  0  2  0  0  0  0  0  0
  155.1830  214.1640  156.2690 C   0  0  0  0  0  1  0  0  0  0  0  0
  161.2500  206.9790  154.1500 C   0  0  0  0  0  2  0  0  0  0  0  0
  160.0700  207.6560  154.7760 C   0  0  0  0  0  3  0  0  0  0  0  0
  160.0210  207.9830  156.0720 C   0  0  0  0  0  3  0  0  0  0  0  0
  161.1320  207.6980  157.0400 C   0  0  0  0  0  2  0  0  0  0  0  0
  161.9770  208.9110  157.2610 C   0  0  0  0  0  3  0  0  0  0  0  0
  162.3280  209.6050  156.3200 O   0  0  0  0  0  0  0  0  0  0  0  0
  1 16  1  6  0  0  0
  1  2  1  0  0  0  0
  2 31  1  1  0  0  0
  3 11  1  0  0  0  0
  4 22  1  1  0  0  0
  5 13  1  0  0  0  0
  5 19  1  0  0  0  0
  6 12  2  0  0  0  0
  7  3  1  0  0  0  0
  7  9  2  0  0  0  0
  8 20  1  6  0  0  0
  8  2  1  0  0  0  0
  8 17  1  0  0  0  0
  9 15  1  0  0  0  0
  9 20  1  0  0  0  0
 11 19  1  0  0  0  0
 11 20  2  0  0  0  0
 12  5  2  0  0  0  0
 13 10  1  6  0  0  0
 13 14  1  0  0  0  0
 14 10  1  6  0  0  0
 14  4  1  0  0  0  0
 15  1  1  0  0  0  0
 18 17  1  0  0  0  0
 18  4  1  0  0  0  0
 19 18  2  0  0  0  0
 22 25  2  0  0  0  0
 23 21  2  0  0  0  0
 24 22  1  0  0  0  0
 24 23  1  0  0  0  0
 25 21  1  0  0  0  0
 27 23  1  6  0  0  0
 27 26  1  0  0  0  0
 28 27  1  0  0  0  0
 28 26  1  0  0  0  0
 29 26  1  0  0  0  0
 29 30  1  0  0  0  0
 31 32  1  0  0  0  0
 32 33  2  0  0  0  0
 33 34  1  0  0  0  0
 34 35  1  0  0  0  0
 36 35  2  0  0  0  0
M  END
>  <MODEL>
3

>  <REMARK>
 VINA RESULT:      -6.6      3.235      9.104
  Name = 
  7 active torsions:
  status: ('A' for Active; 'I' for Inactive)
    1  A    between atoms: C_3  and  C_6
    2  A    between atoms: C_4  and  C_29
    3  A    between atoms: C_11  and  C_23
    4  A    between atoms: C_12  and  C_22
    5  A    between atoms: N_16  and  C_28
    6  A    between atoms: C_23  and  C_36
    7  A    between atoms: C_29  and  C_33
                            x       y       z     vdW  Elec       q    Type
                         _______ _______ _______ _____ _____    ______ ____

>  <TORSDO>
F 7

$$$$
=
 OpenBabel11052410263D

 36 42  0  0  1  0  0  0  0  0999 V2000
  157.2390  214.1930  150.8560 C   0  0  2  0  0  3  0  0  0  0  0  0
  158.3380  213.1370  150.5380 C   0  0  2  0  0  3  0  0  0  0  0  0
  157.8120  211.9270  154.7550 N   0  0  0  0  0  2  0  0  0  0  0  0
  161.7540  210.0610  152.3480 C   0  0  2  0  0  3  0  0  0  0  0  0
  160.3710  210.1180  154.8780 C   0  0  0  0  0  0  0  0  0  0  0  0
  159.5480  210.4740  157.2610 O   0  0  0  0  0  0  0  0  0  0  0  0
  156.8700  212.7460  154.2890 N   0  0  0  0  0  0  0  0  0  0  0  0
  159.3610  213.0210  151.6920 C   0  0  2  0  0  3  0  0  0  0  0  0
  157.3710  213.3660  153.2040 C   0  0  0  0  0  0  0  0  0  0  0  0
  160.5560  208.0950  153.4680 C   0  0  0  0  0  2  0  0  0  0  0  0
  158.8960  212.0370  153.9540 C   0  0  0  0  0  0  0  0  0  0  0  0
  159.9500  210.3010  156.1020 C   0  0  0  0  0  0  0  0  0  0  0  0
  161.1840  208.8840  154.6080 C   0  0  1  0  0  3  0  0  0  0  0  0
  161.8760  208.8130  153.2460 C   0  0  2  0  0  3  0  0  0  0  0  0
  156.5920  213.9230  152.1470 N   0  0  0  0  0  2  0  0  0  0  0  0
  156.1790  214.2100  149.7690 C   0  0  0  0  0  1  0  0  0  0  0  0
  160.2050  211.8670  151.5390 O   0  0  0  0  0  0  0  0  0  0  0  0
  160.6030  211.0070  152.5960 C   0  0  0  0  0  0  0  0  0  0  0  0
  159.9920  211.0610  153.8010 C   0  0  0  0  0  0  0  0  0  0  0  0
  158.6410  212.9500  152.9870 C   0  0  0  0  0  0  0  0  0  0  0  0
  162.0400  209.8900  148.7780 N   0  0  0  0  0  0  0  0  0  0  0  0
  161.8700  209.7010  150.9000 C   0  0  0  0  0  0  0  0  0  0  0  0
  162.1650  208.6040  149.1610 C   0  0  0  0  0  0  0  0  0  0  0  0
  162.0650  208.4810  150.4620 O   0  0  0  0  0  0  0  0  0  0  0  0
  161.8520  210.5900  149.8860 N   0  0  0  0  0  0  0  0  0  0  0  0
  161.6020  206.2650  148.4230 N   0  0  0  0  0  0  0  0  0  0  0  0
  162.4280  207.4550  148.2250 C   0  0  1  0  0  3  0  0  0  0  0  0
  161.3390  207.2140  147.4460 O   0  0  0  0  0  0  0  0  0  0  0  0
  160.5520  206.4080  149.4300 C   0  0  0  0  0  2  0  0  0  0  0  0
  160.6150  205.2450  150.3990 C   0  0  0  0  0  1  0  0  0  0  0  0
  159.0630  213.4840  149.2440 C   0  0  0  0  0  2  0  0  0  0  0  0
  160.2050  214.4100  149.5310 C   0  0  0  0  0  3  0  0  0  0  0  0
  161.3130  214.4530  148.7840 C   0  0  0  0  0  3  0  0  0  0  0  0
  161.5400  213.5740  147.5890 C   0  0  0  0  0  2  0  0  0  0  0  0
  163.0000  213.4150  147.3080 C   0  0  0  0  0  3  0  0  0  0  0  0
  163.6710  212.6140  147.9390 O   0  0  0  0  0  0  0  0  0  0  0  0
  1 16  1  6  0  0  0
  1 15  1  0  0  0  0
  2 31  1  6  0  0  0
  2  1  1  0  0  0  0
  2  8  1  0  0  0  0
  4 22  1  6  0  0  0
  4 18  1  0  0  0  0
  4 14  1  0  0  0  0
  5 12  2  0  0  0  0
  7  3  1  0  0  0  0
  8 17  1  6  0  0  0
  8 20  1  0  0  0  0
  9  7  2  0  0  0  0
 11  3  1  0  0  0  0
 12  6  2  0  0  0  0
 13 10  1  6  0  0  0
 13  5  1  0  0  0  0
 14 10  1  6  0  0  0
 14 13  1  0  0  0  0
 15  9  1  0  0  0  0
 17 18  1  0  0  0  0
 18 19  2  0  0  0  0
 19 11  1  0  0  0  0
 19  5  1  0  0  0  0
 20  9  1  0  0  0  0
 20 11  2  0  0  0  0
 21 23  2  0  0  0  0
 21 25  1  0  0  0  0
 23 24  1  0  0  0  0
 24 22  1  0  0  0  0
 25 22  2  0  0  0  0
 26 29  1  0  0  0  0
 27 26  1  0  0  0  0
 27 23  1  1  0  0  0
 28 27  1  0  0  0  0
 28 26  1  0  0  0  0
 29 30  1  0  0  0  0
 31 32  1  0  0  0  0
 33 32  2  0  0  0  0
 34 33  1  0  0  0  0
 35 34  1  0  0  0  0
 35 36  2  0  0  0  0
M  END
>  <MODEL>
4

>  <REMARK>
 VINA RESULT:      -6.5      2.487      3.842
  Name = 
  7 active torsions:
  status: ('A' for Active; 'I' for Inactive)
    1  A    between atoms: C_3  and  C_6
    2  A    between atoms: C_4  and  C_29
    3  A    between atoms: C_11  and  C_23
    4  A    between atoms: C_12  and  C_22
    5  A    between atoms: N_16  and  C_28
    6  A    between atoms: C_23  and  C_36
    7  A    between atoms: C_29  and  C_33
                            x       y       z     vdW  Elec       q    Type
                         _______ _______ _______ _____ _____    ______ ____

>  <TORSDO>
F 7

$$$$
=
 OpenBabel11052410263D

 36 42  0  0  1  0  0  0  0  0999 V2000
  158.9400  213.3250  152.8300 C   0  0  2  0  0  3  0  0  0  0  0  0
  159.6470  212.2180  151.9940 C   0  0  2  0  0  3  0  0  0  0  0  0
  159.0830  209.7170  155.5920 N   0  0  0  0  0  2  0  0  0  0  0  0
  162.1040  207.9330  152.0560 C   0  0  2  0  0  3  0  0  0  0  0  0
  160.9850  207.4030  154.6620 C   0  0  0  0  0  0  0  0  0  0  0  0
  160.4790  207.0530  157.1310 O   0  0  0  0  0  0  0  0  0  0  0  0
  158.4000  210.8600  155.5970 N   0  0  0  0  0  0  0  0  0  0  0  0
  160.6680  211.4300  152.8480 C   0  0  2  0  0  3  0  0  0  0  0  0
  158.9850  211.6870  154.7100 C   0  0  0  0  0  0  0  0  0  0  0  0
  160.4550  206.0660  152.6490 C   0  0  0  0  0  2  0  0  0  0  0  0
  160.0910  209.8350  154.6990 C   0  0  0  0  0  0  0  0  0  0  0  0
  160.7270  207.2240  155.9300 C   0  0  0  0  0  0  0  0  0  0  0  0
  161.3700  206.1930  153.8600 C   0  0  1  0  0  3  0  0  0  0  0  0
  161.9100  206.4550  152.4530 C   0  0  2  0  0  3  0  0  0  0  0  0
  158.3350  212.7730  154.0500 N   0  0  0  0  0  2  0  0  0  0  0  0
  157.8590  214.0090  152.0130 C   0  0  0  0  0  1  0  0  0  0  0  0
  161.1140  210.2380  152.1760 O   0  0  0  0  0  0  0  0  0  0  0  0
  161.3100  208.9800  152.8010 C   0  0  0  0  0  0  0  0  0  0  0  0
  160.8310  208.7400  154.0420 C   0  0  0  0  0  0  0  0  0  0  0  0
  160.0530  211.0720  154.1500 C   0  0  0  0  0  0  0  0  0  0  0  0
  161.9490  209.0450  148.6520 N   0  0  0  0  0  0  0  0  0  0  0  0
  162.0040  208.1140  150.5740 C   0  0  0  0  0  0  0  0  0  0  0  0
  161.9510  207.7020  148.5390 C   0  0  0  0  0  0  0  0  0  0  0  0
  161.9880  207.1250  149.7140 O   0  0  0  0  0  0  0  0  0  0  0  0
  161.9830  209.3080  149.9490 N   0  0  0  0  0  0  0  0  0  0  0  0
  161.5810  205.5420  147.3030 N   0  0  0  0  0  0  0  0  0  0  0  0
  161.9530  206.9540  147.2330 C   0  0  1  0  0  3  0  0  0  0  0  0
  160.6960  206.5390  146.9180 O   0  0  0  0  0  0  0  0  0  0  0  0
  161.1420  205.0870  148.6210 C   0  0  0  0  0  2  0  0  0  0  0  0
  161.2050  203.5760  148.6850 C   0  0  0  0  0  1  0  0  0  0  0  0
  160.3490  212.8200  150.7840 C   0  0  0  0  0  2  0  0  0  0  0  0
  159.3750  212.9800  149.6570 C   0  0  0  0  0  3  0  0  0  0  0  0
  159.6840  213.5940  148.5100 C   0  0  0  0  0  3  0  0  0  0  0  0
  161.0290  214.1980  148.2300 C   0  0  0  0  0  2  0  0  0  0  0  0
  161.7790  213.3960  147.2160 C   0  0  0  0  0  3  0  0  0  0  0  0
  162.2510  212.3090  147.5090 O   0  0  0  0  0  0  0  0  0  0  0  0
  1 16  1  6  0  0  0
  1 15  1  0  0  0  0
  2 31  1  6  0  0  0
  2  1  1  0  0  0  0
  2  8  1  0  0  0  0
  3  7  1  0  0  0  0
  4 22  1  6  0  0  0
  4 14  1  0  0  0  0
  4 18  1  0  0  0  0
  5 12  2  0  0  0  0
  8 17  1  6  0  0  0
  8 20  1  0  0  0  0
  9  7  2  0  0  0  0
 11  3  1  0  0  0  0
 12  6  2  0  0  0  0
 13 10  1  6  0  0  0
 13  5  1  0  0  0  0
 14 10  1  6  0  0  0
 14 13  1  0  0  0  0
 15  9  1  0  0  0  0
 17 18  1  0  0  0  0
 18 19  2  0  0  0  0
 19  5  1  0  0  0  0
 19 11  1  0  0  0  0
 20 11  2  0  0  0  0
 20  9  1  0  0  0  0
 21 25  1  0  0  0  0
 23 21  2  0  0  0  0
 23 24  1  0  0  0  0
 24 22  1  0  0  0  0
 25 22  2  0  0  0  0
 26 29  1  0  0  0  0
 27 26  1  0  0  0  0
 27 23  1  1  0  0  0
 28 27  1  0  0  0  0
 28 26  1  0  0  0  0
 29 30  1  0  0  0  0
 32 31  1  0  0  0  0
 33 32  2  0  0  0  0
 34 33  1  0  0  0  0
 35 36  2  0  0  0  0
 35 34  1  0  0  0  0
M  END
>  <MODEL>
5

>  <REMARK>
 VINA RESULT:      -6.3      1.963      2.735
  Name = 
  7 active torsions:
  status: ('A' for Active; 'I' for Inactive)
    1  A    between atoms: C_3  and  C_6
    2  A    between atoms: C_4  and  C_29
    3  A    between atoms: C_11  and  C_23
    4  A    between atoms: C_12  and  C_22
    5  A    between atoms: N_16  and  C_28
    6  A    between atoms: C_23  and  C_36
    7  A    between atoms: C_29  and  C_33
                            x       y       z     vdW  Elec       q    Type
                         _______ _______ _______ _____ _____    ______ ____

>  <TORSDO>
F 7

$$$$
=
 OpenBabel11052410263D

 36 42  0  0  1  0  0  0  0  0999 V2000
  161.1190  207.0940  154.5360 C   0  0  2  0  0  3  0  0  0  0  0  0
  161.2710  207.9400  153.2380 C   0  0  2  0  0  3  0  0  0  0  0  0
  160.7230  204.0860  151.1510 N   0  0  0  0  0  2  0  0  0  0  0  0
  162.2720  207.9400  148.4010 C   0  0  2  0  0  3  0  0  0  0  0  0
  161.6020  205.1350  148.3290 C   0  0  0  0  0  0  0  0  0  0  0  0
  161.5280  202.5930  148.2300 O   0  0  0  0  0  0  0  0  0  0  0  0
  160.4340  204.0600  152.4510 N   0  0  0  0  0  0  0  0  0  0  0  0
  162.1560  207.2210  152.1940 C   0  0  2  0  0  3  0  0  0  0  0  0
  161.0490  205.1130  153.0240 C   0  0  0  0  0  0  0  0  0  0  0  0
  160.2920  206.8830  147.1680 C   0  0  0  0  0  2  0  0  0  0  0  0
  161.5140  205.1570  150.9180 C   0  0  0  0  0  0  0  0  0  0  0  0
  161.5660  203.8290  148.2780 C   0  0  0  0  0  0  0  0  0  0  0  0
  161.4300  205.8790  147.0350 C   0  0  1  0  0  3  0  0  0  0  0  0
  161.7250  207.3800  147.0720 C   0  0  2  0  0  3  0  0  0  0  0  0
  160.6380  205.7380  154.2390 N   0  0  0  0  0  2  0  0  0  0  0  0
  160.1540  207.7560  155.5020 C   0  0  0  0  0  1  0  0  0  0  0  0
  162.0740  207.8520  150.9040 O   0  0  0  0  0  0  0  0  0  0  0  0
  162.0020  207.1610  149.6670 C   0  0  0  0  0  0  0  0  0  0  0  0
  161.7370  205.8360  149.6270 C   0  0  0  0  0  0  0  0  0  0  0  0
  161.7420  205.8010  152.0880 C   0  0  0  0  0  0  0  0  0  0  0  0
  161.9260  211.3930  149.3000 N   0  0  0  0  0  0  0  0  0  0  0  0
  161.9320  209.3880  148.5610 C   0  0  0  0  0  0  0  0  0  0  0  0
  161.1740  211.2850  148.1870 C   0  0  0  0  0  0  0  0  0  0  0  0
  161.1760  210.0590  147.7260 O   0  0  0  0  0  0  0  0  0  0  0  0
  162.4090  210.1830  149.5390 N   0  0  0  0  0  0  0  0  0  0  0  0
  161.2710  213.2890  146.6680 N   0  0  0  0  0  0  0  0  0  0  0  0
  160.4560  212.4320  147.5260 C   0  0  1  0  0  3  0  0  0  0  0  0
  160.4570  212.2810  146.1740 O   0  0  0  0  0  0  0  0  0  0  0  0
  162.6490  212.8370  146.4790 C   0  0  0  0  0  2  0  0  0  0  0  0
  163.1080  213.1780  145.0770 C   0  0  0  0  0  1  0  0  0  0  0  0
  161.8600  209.3100  153.5520 C   0  0  0  0  0  2  0  0  0  0  0  0
  161.0080  210.3830  152.9450 C   0  0  0  0  0  3  0  0  0  0  0  0
  160.4590  211.3690  153.6610 C   0  0  0  0  0  3  0  0  0  0  0  0
  160.6240  211.5040  155.1470 C   0  0  0  0  0  2  0  0  0  0  0  0
  159.3000  211.4720  155.8400 C   0  0  0  0  0  3  0  0  0  0  0  0
  158.3690  210.8320  155.3760 O   0  0  0  0  0  0  0  0  0  0  0  0
  1 16  1  1  0  0  0
  2 31  1  1  0  0  0
  2  1  1  0  0  0  0
  3  7  1  0  0  0  0
  4 22  1  1  0  0  0
  4 18  1  0  0  0  0
  5 19  1  0  0  0  0
  6 12  2  0  0  0  0
  7  9  2  0  0  0  0
  8 17  1  6  0  0  0
  8  2  1  0  0  0  0
  9 15  1  0  0  0  0
 11  3  1  0  0  0  0
 11 20  2  0  0  0  0
 12  5  2  0  0  0  0
 13 14  1  0  0  0  0
 13 10  1  1  0  0  0
 13  5  1  0  0  0  0
 14 10  1  1  0  0  0
 14  4  1  0  0  0  0
 15  1  1  0  0  0  0
 18 17  1  0  0  0  0
 19 18  2  0  0  0  0
 19 11  1  0  0  0  0
 20  8  1  0  0  0  0
 20  9  1  0  0  0  0
 21 25  1  0  0  0  0
 22 25  2  0  0  0  0
 23 21  2  0  0  0  0
 24 23  1  0  0  0  0
 24 22  1  0  0  0  0
 26 27  1  0  0  0  0
 27 23  1  1  0  0  0
 28 26  1  0  0  0  0
 28 27  1  0  0  0  0
 29 26  1  0  0  0  0
 30 29  1  0  0  0  0
 32 31  1  0  0  0  0
 32 33  2  0  0  0  0
 33 34  1  0  0  0  0
 34 35  1  0  0  0  0
 36 35  2  0  0  0  0
M  END
>  <MODEL>
6

>  <REMARK>
 VINA RESULT:      -6.2      2.587      6.670
  Name = 
  7 active torsions:
  status: ('A' for Active; 'I' for Inactive)
    1  A    between atoms: C_3  and  C_6
    2  A    between atoms: C_4  and  C_29
    3  A    between atoms: C_11  and  C_23
    4  A    between atoms: C_12  and  C_22
    5  A    between atoms: N_16  and  C_28
    6  A    between atoms: C_23  and  C_36
    7  A    between atoms: C_29  and  C_33
                            x       y       z     vdW  Elec       q    Type
                         _______ _______ _______ _____ _____    ______ ____

>  <TORSDO>
F 7

$$$$
=
 OpenBabel11052410263D

 36 42  0  0  1  0  0  0  0  0999 V2000
  161.6230  207.8550  152.5670 C   0  0  2  0  0  3  0  0  0  0  0  0
  160.7330  209.1210  152.7370 C   0  0  2  0  0  3  0  0  0  0  0  0
  162.0340  210.0850  148.6270 N   0  0  0  0  0  2  0  0  0  0  0  0
  159.7020  213.6860  151.1580 C   0  0  2  0  0  3  0  0  0  0  0  0
  160.9760  213.0370  148.6530 C   0  0  0  0  0  0  0  0  0  0  0  0
  162.4880  212.7660  146.6230 O   0  0  0  0  0  0  0  0  0  0  0  0
  162.3130  208.8440  149.0220 N   0  0  0  0  0  0  0  0  0  0  0  0
  161.4250  210.3800  152.1650 C   0  0  2  0  0  3  0  0  0  0  0  0
  162.2810  208.8300  150.3680 C   0  0  0  0  0  0  0  0  0  0  0  0
  158.5580  213.5110  148.8740 C   0  0  0  0  0  2  0  0  0  0  0  0
  161.8240  210.8390  149.7290 C   0  0  0  0  0  0  0  0  0  0  0  0
  161.7540  212.9000  147.6110 C   0  0  0  0  0  0  0  0  0  0  0  0
  159.9280  214.1120  148.5910 C   0  0  1  0  0  3  0  0  0  0  0  0
  159.2020  214.4270  149.9000 C   0  0  2  0  0  3  0  0  0  0  0  0
  162.0370  207.6740  151.1680 N   0  0  0  0  0  2  0  0  0  0  0  0
  160.8830  206.6110  153.0240 C   0  0  0  0  0  1  0  0  0  0  0  0
  160.5120  211.4860  152.0600 O   0  0  0  0  0  0  0  0  0  0  0  0
  160.4560  212.3910  150.9690 C   0  0  0  0  0  0  0  0  0  0  0  0
  161.0920  212.1170  149.8080 C   0  0  0  0  0  0  0  0  0  0  0  0
  161.9940  210.0690  150.8310 C   0  0  0  0  0  0  0  0  0  0  0  0
  156.8440  213.9420  153.3070 N   0  0  0  0  0  0  0  0  0  0  0  0
  158.6130  213.5480  152.1750 C   0  0  0  0  0  0  0  0  0  0  0  0
  157.3730  212.7460  153.6350 C   0  0  0  0  0  0  0  0  0  0  0  0
  158.4560  212.4970  152.9420 O   0  0  0  0  0  0  0  0  0  0  0  0
  157.6340  214.4530  152.3760 N   0  0  0  0  0  0  0  0  0  0  0  0
  157.2270  211.9560  156.0200 N   0  0  0  0  0  0  0  0  0  0  0  0
  156.7780  211.7950  154.6380 C   0  0  1  0  0  3  0  0  0  0  0  0
  156.0270  212.4700  155.5510 O   0  0  0  0  0  0  0  0  0  0  0  0
  158.1060  213.1020  156.2490 C   0  0  0  0  0  2  0  0  0  0  0  0
  159.5110  212.6160  156.5390 C   0  0  0  0  0  1  0  0  0  0  0  0
  160.3910  209.3470  154.2040 C   0  0  0  0  0  2  0  0  0  0  0  0
  161.6250  209.7250  154.9650 C   0  0  0  0  0  3  0  0  0  0  0  0
  161.7280  209.6060  156.2930 C   0  0  0  0  0  3  0  0  0  0  0  0
  160.6190  209.0950  157.1660 C   0  0  0  0  0  2  0  0  0  0  0  0
  160.6500  207.6040  157.2580 C   0  0  0  0  0  3  0  0  0  0  0  0
  159.7070  206.9360  156.8650 O   0  0  0  0  0  0  0  0  0  0  0  0
  1  2  1  0  0  0  0
  1 16  1  6  0  0  0
  2 31  1  1  0  0  0
  3  7  1  0  0  0  0
  3 11  1  0  0  0  0
  4 22  1  1  0  0  0
  5 19  1  0  0  0  0
  6 12  2  0  0  0  0
  7  9  2  0  0  0  0
  8 20  1  6  0  0  0
  8  2  1  0  0  0  0
  9 20  1  0  0  0  0
  9 15  1  0  0  0  0
 11 19  1  0  0  0  0
 11 20  2  0  0  0  0
 12  5  2  0  0  0  0
 13  5  1  0  0  0  0
 13 10  1  6  0  0  0
 13 14  1  0  0  0  0
 14 10  1  6  0  0  0
 14  4  1  0  0  0  0
 15  1  1  0  0  0  0
 17  8  1  0  0  0  0
 18  4  1  0  0  0  0
 18 17  1  0  0  0  0
 19 18  2  0  0  0  0
 21 23  2  0  0  0  0
 22 25  2  0  0  0  0
 22 24  1  0  0  0  0
 24 23  1  0  0  0  0
 25 21  1  0  0  0  0
 26 29  1  0  0  0  0
 27 23  1  6  0  0  0
 27 28  1  0  0  0  0
 27 26  1  0  0  0  0
 28 26  1  0  0  0  0
 29 30  1  0  0  0  0
 31 32  1  0  0  0  0
 32 33  2  0  0  0  0
 33 34  1  0  0  0  0
 34 35  1  0  0  0  0
 36 35  2  0  0  0  0
M  END
>  <MODEL>
7

>  <REMARK>
 VINA RESULT:      -6.1      3.566      9.200
  Name = 
  7 active torsions:
  status: ('A' for Active; 'I' for Inactive)
    1  A    between atoms: C_3  and  C_6
    2  A    between atoms: C_4  and  C_29
    3  A    between atoms: C_11  and  C_23
    4  A    between atoms: C_12  and  C_22
    5  A    between atoms: N_16  and  C_28
    6  A    between atoms: C_23  and  C_36
    7  A    between atoms: C_29  and  C_33
                            x       y       z     vdW  Elec       q    Type
                         _______ _______ _______ _____ _____    ______ ____

>  <TORSDO>
F 7

$$$$
=
 OpenBabel11052410263D

 36 42  0  0  1  0  0  0  0  0999 V2000
  158.3220  214.3430  149.0720 C   0  0  2  0  0  3  0  0  0  0  0  0
  159.1730  213.5150  150.0790 C   0  0  2  0  0  3  0  0  0  0  0  0
  155.5970  213.7520  152.6620 N   0  0  0  0  0  2  0  0  0  0  0  0
  159.7960  212.0940  154.7690 C   0  0  2  0  0  3  0  0  0  0  0  0
  157.0210  212.7140  155.2570 C   0  0  0  0  0  0  0  0  0  0  0  0
  154.7660  213.6790  155.9360 O   0  0  0  0  0  0  0  0  0  0  0  0
  155.3970  214.1290  151.4000 N   0  0  0  0  0  0  0  0  0  0  0  0
  159.0030  214.0350  151.5250 C   0  0  2  0  0  3  0  0  0  0  0  0
  156.5990  214.4310  150.8720 C   0  0  0  0  0  0  0  0  0  0  0  0
  157.9480  210.4220  155.3580 C   0  0  0  0  0  2  0  0  0  0  0  0
  156.9240  213.8160  152.9140 C   0  0  0  0  0  0  0  0  0  0  0  0
  155.8630  213.2100  155.6070 C   0  0  0  0  0  0  0  0  0  0  0  0
  157.6250  211.6760  156.1600 C   0  0  1  0  0  3  0  0  0  0  0  0
  159.0790  211.2940  155.8760 C   0  0  2  0  0  3  0  0  0  0  0  0
  156.9120  214.4000  149.4800 N   0  0  0  0  0  2  0  0  0  0  0  0
  158.4060  213.7480  147.6790 C   0  0  0  0  0  1  0  0  0  0  0  0
  159.5510  213.1170  152.4880 O   0  0  0  0  0  0  0  0  0  0  0  0
  158.9480  212.7870  153.7290 C   0  0  0  0  0  0  0  0  0  0  0  0
  157.6620  213.1170  153.9840 C   0  0  0  0  0  0  0  0  0  0  0  0
  157.5640  214.2580  151.8060 C   0  0  0  0  0  0  0  0  0  0  0  0
  162.6690  210.1250  153.9200 N   0  0  0  0  0  0  0  0  0  0  0  0
  160.8920  211.2920  154.1430 C   0  0  0  0  0  0  0  0  0  0  0  0
  161.9790  210.1820  152.7640 C   0  0  0  0  0  0  0  0  0  0  0  0
  160.8870  210.8930  152.8940 O   0  0  0  0  0  0  0  0  0  0  0  0
  161.9760  210.8320  154.8000 N   0  0  0  0  0  0  0  0  0  0  0  0
  162.2680  208.0280  151.4950 N   0  0  0  0  0  0  0  0  0  0  0  0
  162.3840  209.4850  151.4920 C   0  0  1  0  0  3  0  0  0  0  0  0
  161.3150  208.8610  150.9280 O   0  0  0  0  0  0  0  0  0  0  0  0
  161.6590  207.4640  152.6980 C   0  0  0  0  0  2  0  0  0  0  0  0
  160.7650  206.3020  152.3180 C   0  0  0  0  0  1  0  0  0  0  0  0
  160.6470  213.5450  149.6940 C   0  0  0  0  0  2  0  0  0  0  0  0
  161.1000  212.1710  149.3060 C   0  0  0  0  0  3  0  0  0  0  0  0
  161.9350  211.9400  148.2870 C   0  0  0  0  0  3  0  0  0  0  0  0
  162.4980  213.0260  147.4170 C   0  0  0  0  0  2  0  0  0  0  0  0
  161.7350  213.1370  146.1360 C   0  0  0  0  0  3  0  0  0  0  0  0
  162.2920  213.4920  145.1090 O   0  0  0  0  0  0  0  0  0  0  0  0
  1 16  1  6  0  0  0
  1 15  1  0  0  0  0
  1  2  1  0  0  0  0
  2 31  1  6  0  0  0
  2  8  1  0  0  0  0
  3 11  1  0  0  0  0
  4 22  1  6  0  0  0
  4 14  1  0  0  0  0
  5 12  2  0  0  0  0
  5 13  1  0  0  0  0
  7  3  1  0  0  0  0
  8 20  1  1  0  0  0
  8 17  1  0  0  0  0
  9  7  2  0  0  0  0
  9 20  1  0  0  0  0
 11 19  1  0  0  0  0
 12  6  2  0  0  0  0
 13 10  1  6  0  0  0
 14 10  1  6  0  0  0
 14 13  1  0  0  0  0
 15  9  1  0  0  0  0
 17 18  1  0  0  0  0
 18 19  2  0  0  0  0
 18  4  1  0  0  0  0
 19  5  1  0  0  0  0
 20 11  2  0  0  0  0
 21 25  1  0  0  0  0
 22 25  2  0  0  0  0
 23 24  1  0  0  0  0
 23 21  2  0  0  0  0
 24 22  1  0  0  0  0
 26 29  1  0  0  0  0
 27 26  1  0  0  0  0
 27 23  1  1  0  0  0
 28 27  1  0  0  0  0
 28 26  1  0  0  0  0
 30 29  1  0  0  0  0
 32 31  1  0  0  0  0
 33 32  2  0  0  0  0
 34 33  1  0  0  0  0
 35 34  1  0  0  0  0
 36 35  2  0  0  0  0
M  END
>  <MODEL>
8

>  <REMARK>
 VINA RESULT:      -5.2      3.591      6.244
  Name = 
  7 active torsions:
  status: ('A' for Active; 'I' for Inactive)
    1  A    between atoms: C_3  and  C_6
    2  A    between atoms: C_4  and  C_29
    3  A    between atoms: C_11  and  C_23
    4  A    between atoms: C_12  and  C_22
    5  A    between atoms: N_16  and  C_28
    6  A    between atoms: C_23  and  C_36
    7  A    between atoms: C_29  and  C_33
                            x       y       z     vdW  Elec       q    Type
                         _______ _______ _______ _____ _____    ______ ____

>  <TORSDO>
F 7

$$$$
=
 OpenBabel11052410263D

 36 42  0  0  1  0  0  0  0  0999 V2000
  161.5810  211.2740  149.3000 C   0  0  2  0  0  3  0  0  0  0  0  0
  161.6500  209.8690  149.9670 C   0  0  2  0  0  3  0  0  0  0  0  0
  159.7980  211.8790  153.4380 N   0  0  0  0  0  2  0  0  0  0  0  0
  161.5880  207.2900  154.1800 C   0  0  2  0  0  3  0  0  0  0  0  0
  160.2860  209.5270  155.4540 C   0  0  0  0  0  0  0  0  0  0  0  0
  159.6050  211.5790  156.7970 O   0  0  0  0  0  0  0  0  0  0  0  0
  159.7900  212.5920  152.3130 N   0  0  0  0  0  0  0  0  0  0  0  0
  162.1060  209.9640  151.4420 C   0  0  2  0  0  3  0  0  0  0  0  0
  160.7380  212.0830  151.5030 C   0  0  0  0  0  0  0  0  0  0  0  0
  159.2050  207.3280  155.1140 C   0  0  0  0  0  2  0  0  0  0  0  0
  160.7500  210.9260  153.3230 C   0  0  0  0  0  0  0  0  0  0  0  0
  159.9380  210.5810  156.1450 C   0  0  0  0  0  0  0  0  0  0  0  0
  160.0240  208.1820  156.0720 C   0  0  1  0  0  3  0  0  0  0  0  0
  160.6600  206.9800  155.3730 C   0  0  2  0  0  3  0  0  0  0  0  0
  160.7470  212.1980  150.0810 N   0  0  0  0  0  2  0  0  0  0  0  0
  161.0200  211.1750  147.8940 C   0  0  0  0  0  1  0  0  0  0  0  0
  161.9030  208.7240  152.1420 O   0  0  0  0  0  0  0  0  0  0  0  0
  161.4160  208.6120  153.4690 C   0  0  0  0  0  0  0  0  0  0  0  0
  160.8490  209.6690  154.0910 C   0  0  0  0  0  0  0  0  0  0  0  0
  161.3600  211.0520  152.1210 C   0  0  0  0  0  0  0  0  0  0  0  0
  162.2860  204.8530  151.6460 N   0  0  0  0  0  0  0  0  0  0  0  0
  161.6340  206.1470  153.2170 C   0  0  0  0  0  0  0  0  0  0  0  0
  161.2310  204.3270  152.2990 C   0  0  0  0  0  0  0  0  0  0  0  0
  160.8280  205.1140  153.2660 O   0  0  0  0  0  0  0  0  0  0  0  0
  162.5430  206.0130  152.2300 N   0  0  0  0  0  0  0  0  0  0  0  0
  160.3490  202.7160  150.5800 N   0  0  0  0  0  0  0  0  0  0  0  0
  160.6150  202.9890  151.9910 C   0  0  1  0  0  3  0  0  0  0  0  0
  161.4650  202.2320  151.2460 O   0  0  0  0  0  0  0  0  0  0  0  0
  160.8320  203.7400  149.6550 C   0  0  0  0  0  2  0  0  0  0  0  0
  161.2060  203.0970  148.3350 C   0  0  0  0  0  1  0  0  0  0  0  0
  162.5930  208.9510  149.1990 C   0  0  0  0  0  2  0  0  0  0  0  0
  162.2250  207.5200  149.4440 C   0  0  0  0  0  3  0  0  0  0  0  0
  161.6550  206.7450  148.5160 C   0  0  0  0  0  3  0  0  0  0  0  0
  161.3110  207.2240  147.1360 C   0  0  0  0  0  2  0  0  0  0  0  0
  160.8470  206.0940  146.2740 C   0  0  0  0  0  3  0  0  0  0  0  0
  160.1560  206.3050  145.2900 O   0  0  0  0  0  0  0  0  0  0  0  0
  1 16  1  6  0  0  0
  1  2  1  0  0  0  0
  1 15  1  0  0  0  0
  2 31  1  6  0  0  0
  2  8  1  0  0  0  0
  4 22  1  6  0  0  0
  4 14  1  0  0  0  0
  5 13  1  0  0  0  0
  5 12  2  0  0  0  0
  7  3  1  0  0  0  0
  8 20  1  1  0  0  0
  8 17  1  0  0  0  0
  9 20  1  0  0  0  0
  9  7  2  0  0  0  0
 11  3  1  0  0  0  0
 11 19  1  0  0  0  0
 12  6  2  0  0  0  0
 13 10  1  6  0  0  0
 14 10  1  6  0  0  0
 14 13  1  0  0  0  0
 15  9  1  0  0  0  0
 17 18  1  0  0  0  0
 18 19  2  0  0  0  0
 18  4  1  0  0  0  0
 19  5  1  0  0  0  0
 20 11  2  0  0  0  0
 21 25  1  0  0  0  0
 21 23  2  0  0  0  0
 22 24  1  0  0  0  0
 23 24  1  0  0  0  0
 25 22  2  0  0  0  0
 26 28  1  0  0  0  0
 26 27  1  0  0  0  0
 27 23  1  6  0  0  0
 28 27  1  0  0  0  0
 29 26  1  0  0  0  0
 30 29  1  0  0  0  0
 31 32  1  0  0  0  0
 33 32  2  0  0  0  0
 34 33  1  0  0  0  0
 35 34  1  0  0  0  0
 36 35  2  0  0  0  0
M  END
>  <MODEL>
9

>  <REMARK>
 VINA RESULT:      -4.9      2.659      4.465
  Name = 
  7 active torsions:
  status: ('A' for Active; 'I' for Inactive)
    1  A    between atoms: C_3  and  C_6
    2  A    between atoms: C_4  and  C_29
    3  A    between atoms: C_11  and  C_23
    4  A    between atoms: C_12  and  C_22
    5  A    between atoms: N_16  and  C_28
    6  A    between atoms: C_23  and  C_36
    7  A    between atoms: C_29  and  C_33
                            x       y       z     vdW  Elec       q    Type
                         _______ _______ _______ _____ _____    ______ ____

>  <TORSDO>
F 7

$$$$
