=
 OpenBabel11042420583D

 46 50  0  0  1  0  0  0  0  0999 V2000
  163.3720  212.3870  147.7870 C   0  0  0  0  0  1  0  0  0  0  0  0
  161.9720  211.8850  148.0830 C   0  0  1  0  0  3  0  0  0  0  0  0
  162.0060  211.0350  149.2600 N   0  0  0  0  0  2  0  0  0  0  0  0
  162.3780  209.6950  148.8260 C   0  0  0  0  0  2  0  0  0  0  0  0
  162.0660  209.0850  151.2900 C   0  0  0  0  0  2  0  0  0  0  0  0
  161.4940  206.2400  146.1640 C   0  0  2  0  0  3  0  0  0  0  0  0
  161.3950  206.7240  148.4920 N   0  0  0  0  0  0  0  0  0  0  0  0
  161.1110  206.9140  150.8580 N   0  0  0  0  0  0  0  0  0  0  0  0
  161.9900  207.1790  147.2520 C   0  0  0  0  0  2  0  0  0  0  0  0
  161.1630  207.7060  153.0770 O   0  0  0  0  0  0  0  0  0  0  0  0
  160.5750  205.5360  148.3240 C   0  0  1  0  0  3  0  0  0  0  0  0
  160.5410  205.2550  146.8260 C   0  0  0  0  0  2  0  0  0  0  0  0
  162.0980  208.7310  149.8820 N   0  0  0  0  0  0  0  0  0  0  0  0
  161.4170  207.8760  151.8570 C   0  0  0  0  0  0  0  0  0  0  0  0
  161.5130  207.4280  149.7410 C   0  0  0  0  0  0  0  0  0  0  0  0
  160.5310  203.1430  152.7190 C   0  0  0  0  0  1  0  0  0  0  0  0
  161.1580  203.1810  151.3420 C   0  0  1  0  0  3  0  0  0  0  0  0
  160.9240  201.8490  150.6370 C   0  0  0  0  0  2  0  0  0  0  0  0
  161.1380  204.3520  149.1250 C   0  0  1  0  0  3  0  0  0  0  0  0
  160.5450  204.3210  150.5340 C   0  0  0  0  0  2  0  0  0  0  0  0
  160.9330  203.0060  148.4190 C   0  0  0  0  0  2  0  0  0  0  0  0
  161.5430  201.8760  149.2430 C   0  0  0  0  0  2  0  0  0  0  0  0
  162.2390  204.0730  145.1780 C   0  0  0  0  0  1  0  0  0  0  0  0
  162.6590  205.4830  145.5500 C   0  0  0  0  0  2  0  0  0  0  0  0
  161.0350  213.0580  148.3320 C   0  0  0  0  0  2  0  0  0  0  0  0
  160.5460  213.6580  147.0210 C   0  0  0  0  0  2  0  0  0  0  0  0
  159.7520  212.6850  146.2840 N   0  0  0  0  0  0  0  0  0  0  0  0
  157.4060  212.3430  146.5970 N   0  0  0  0  0  1  0  0  0  0  0  0
  159.3070  213.1130  144.0840 C   0  0  0  0  0  0  0  0  0  0  0  0
  158.2190  213.4620  144.6610 N   0  0  0  0  0  0  0  0  0  0  0  0
  160.2730  212.6320  144.9840 N   0  0  0  0  0  2  0  0  0  0  0  0
  158.4100  213.2650  146.0950 C   0  0  2  0  0  3  0  0  0  0  0  0
  159.4850  213.1170  142.6080 C   0  0  0  0  0  2  0  0  0  0  0  0
  159.9930  211.8830  142.1960 O   0  0  0  0  0  0  0  0  0  0  0  0
  162.2630  212.0440  142.1150 O   0  0  0  0  0  1  0  0  0  0  0  0
  161.0840  212.2000  141.3820 C   0  0  1  0  0  3  0  0  0  0  0  0
  160.5800  208.8220  138.9370 O   0  0  0  0  0  0  0  0  0  0  0  0
  162.2240  206.5180  139.5170 C   0  0  0  0  0  1  0  0  0  0  0  0
  159.7880  209.9500  138.5580 C   0  0  2  0  0  3  0  0  0  0  0  0
  159.6860  210.9450  139.7100 C   0  0  0  0  0  2  0  0  0  0  0  0
  161.1060  211.2840  140.1620 C   0  0  2  0  0  3  0  0  0  0  0  0
  162.4420  207.8010  140.1620 N   0  0  0  0  0  2  0  0  0  0  0  0
  161.6360  208.9370  139.8520 C   0  0  0  0  0  0  0  0  0  0  0  0
  161.8630  210.0630  140.4570 N   0  0  0  0  0  0  0  0  0  0  0  0
  158.4130  209.5090  138.0690 C   0  0  0  0  0  2  0  0  0  0  0  0
  157.2950  210.3150  138.7140 C   0  0  0  0  0  1  0  0  0  0  0  0
  2  1  1  1  0  0  0
  2 25  1  0  0  0  0
  2  3  1  0  0  0  0
  4  3  1  0  0  0  0
  4 13  1  0  0  0  0
  5 14  1  0  0  0  0
  6 24  1  1  0  0  0
  6 12  1  0  0  0  0
  6  9  1  0  0  0  0
  7 15  1  0  0  0  0
  8 14  1  0  0  0  0
  9  7  1  0  0  0  0
 11 12  1  6  0  0  0
 11  7  1  0  0  0  0
 11 19  1  0  0  0  0
 13  5  1  0  0  0  0
 14 10  2  0  0  0  0
 15 13  1  0  0  0  0
 15  8  2  0  0  0  0
 17 16  1  1  0  0  0
 18 17  1  0  0  0  0
 19 21  1  6  0  0  0
 19 20  1  0  0  0  0
 20 17  1  0  0  0  0
 21 22  1  0  0  0  0
 22 18  1  0  0  0  0
 23 24  1  0  0  0  0
 26 25  1  0  0  0  0
 27 26  1  0  0  0  0
 29 30  2  0  0  0  0
 29 31  1  0  0  0  0
 30 32  1  0  0  0  0
 31 27  1  0  0  0  0
 32 27  1  0  0  0  0
 32 28  1  6  0  0  0
 33 29  1  0  0  0  0
 34 33  1  0  0  0  0
 36 35  1  1  0  0  0
 36 34  1  0  0  0  0
 37 43  1  0  0  0  0
 38 42  1  0  0  0  0
 39 45  1  1  0  0  0
 39 37  1  0  0  0  0
 39 40  1  0  0  0  0
 40 41  1  0  0  0  0
 41 44  1  0  0  0  0
 41 36  1  1  0  0  0
 43 42  1  0  0  0  0
 43 44  2  0  0  0  0
 45 46  1  0  0  0  0
M  END
>  <MODEL>
1

>  <REMARK>
 VINA RESULT:      -8.6      0.000      0.000
  Name = 
  13 active torsions:
  status: ('A' for Active; 'I' for Inactive)
    1  A    between atoms: N_4  and  C_6
    2  A    between atoms: C_6  and  C_34
    3  A    between atoms: C_7  and  O_28
    4  A    between atoms: C_7  and  C_36
    5  A    between atoms: C_11  and  C_16
    6  A    between atoms: C_13  and  C_18
    7  A    between atoms: C_14  and  C_32
    8  A    between atoms: C_26  and  C_27
    9  A    between atoms: C_26  and  O_28
   10  A    between atoms: N_29  and  C_35
   11  A    between atoms: N_29  and  C_39
   12  A    between atoms: C_34  and  C_35
   13  A    between atoms: N_37  and  C_39
                            x       y       z     vdW  Elec       q    Type
                         _______ _______ _______ _____ _____    ______ ____

>  <TORSDO>
F 13

$$$$
=
 OpenBabel11042420583D

 46 50  0  0  1  0  0  0  0  0999 V2000
  161.0450  213.2970  149.1910 C   0  0  0  0  0  1  0  0  0  0  0  0
  161.8220  212.1960  148.4950 C   0  0  1  0  0  3  0  0  0  0  0  0
  161.2830  210.9070  148.8900 N   0  0  0  0  0  2  0  0  0  0  0  0
  162.3880  209.9590  148.9260 C   0  0  0  0  0  2  0  0  0  0  0  0
  162.2590  209.3070  151.3950 C   0  0  0  0  0  2  0  0  0  0  0  0
  161.2340  206.5720  146.2800 C   0  0  2  0  0  3  0  0  0  0  0  0
  161.3270  207.0120  148.6170 N   0  0  0  0  0  0  0  0  0  0  0  0
  161.2330  207.1610  151.0010 N   0  0  0  0  0  0  0  0  0  0  0  0
  161.8310  207.4800  147.3420 C   0  0  0  0  0  2  0  0  0  0  0  0
  161.4740  207.9100  153.2230 O   0  0  0  0  0  0  0  0  0  0  0  0
  160.4750  205.8410  148.4930 C   0  0  1  0  0  3  0  0  0  0  0  0
  160.3180  205.5900  146.9980 C   0  0  0  0  0  2  0  0  0  0  0  0
  162.1740  208.9790  149.9830 N   0  0  0  0  0  0  0  0  0  0  0  0
  161.6350  208.0990  151.9900 C   0  0  0  0  0  0  0  0  0  0  0  0
  161.5560  207.6900  149.8650 C   0  0  0  0  0  0  0  0  0  0  0  0
  160.5350  203.2200  152.7550 C   0  0  0  0  0  1  0  0  0  0  0  0
  161.1480  203.3480  151.3780 C   0  0  1  0  0  3  0  0  0  0  0  0
  160.9450  202.0480  150.6050 C   0  0  0  0  0  2  0  0  0  0  0  0
  161.0760  204.6330  149.2260 C   0  0  1  0  0  3  0  0  0  0  0  0
  160.4980  204.5120  150.6360 C   0  0  0  0  0  2  0  0  0  0  0  0
  160.9010  203.3210  148.4510 C   0  0  0  0  0  2  0  0  0  0  0  0
  161.5500  202.1670  149.2090 C   0  0  0  0  0  2  0  0  0  0  0  0
  161.7400  204.8880  144.5090 C   0  0  0  0  0  1  0  0  0  0  0  0
  162.3330  205.8060  145.5620 C   0  0  0  0  0  2  0  0  0  0  0  0
  161.7110  212.3500  146.9850 C   0  0  0  0  0  2  0  0  0  0  0  0
  160.7770  213.4950  146.6170 C   0  0  0  0  0  2  0  0  0  0  0  0
  161.1440  214.0520  145.3230 N   0  0  0  0  0  0  0  0  0  0  0  0
  163.1100  213.4470  144.1020 N   0  0  0  0  0  1  0  0  0  0  0  0
  159.9220  213.4180  143.4990 C   0  0  0  0  0  0  0  0  0  0  0  0
  160.9670  212.6840  143.4030 N   0  0  0  0  0  0  0  0  0  0  0  0
  159.9520  214.2670  144.6170 N   0  0  0  0  0  2  0  0  0  0  0  0
  161.8100  212.9820  144.5560 C   0  0  2  0  0  3  0  0  0  0  0  0
  158.8450  213.4400  142.4740 C   0  0  0  0  0  2  0  0  0  0  0  0
  159.4150  213.5090  141.2010 O   0  0  0  0  0  0  0  0  0  0  0  0
  157.6600  212.6780  140.0130 O   0  0  0  0  0  1  0  0  0  0  0  0
  158.9240  212.3870  140.5290 C   0  0  1  0  0  3  0  0  0  0  0  0
  162.2890  210.9270  138.4820 O   0  0  0  0  0  0  0  0  0  0  0  0
  164.7540  212.4060  138.7760 C   0  0  0  0  0  1  0  0  0  0  0  0
  161.0880  210.1910  138.2450 C   0  0  2  0  0  3  0  0  0  0  0  0
  160.0530  210.4890  139.3260 C   0  0  0  0  0  2  0  0  0  0  0  0
  159.8720  212.0040  139.3960 C   0  0  2  0  0  3  0  0  0  0  0  0
  163.4870  212.9150  139.2710 N   0  0  0  0  0  2  0  0  0  0  0  0
  162.2740  212.1850  139.1030 C   0  0  0  0  0  0  0  0  0  0  0  0
  161.1650  212.6750  139.5670 N   0  0  0  0  0  0  0  0  0  0  0  0
  161.3770  208.6990  138.1330 C   0  0  0  0  0  2  0  0  0  0  0  0
  161.4960  208.0400  139.5000 C   0  0  0  0  0  1  0  0  0  0  0  0
  2  3  1  0  0  0  0
  2  1  1  1  0  0  0
  3  4  1  0  0  0  0
  4 13  1  0  0  0  0
  5 14  1  0  0  0  0
  6 24  1  1  0  0  0
  6 12  1  0  0  0  0
  6  9  1  0  0  0  0
  7 15  1  0  0  0  0
  8 14  1  0  0  0  0
  9  7  1  0  0  0  0
 11 12  1  6  0  0  0
 11  7  1  0  0  0  0
 11 19  1  0  0  0  0
 13  5  1  0  0  0  0
 14 10  2  0  0  0  0
 15 13  1  0  0  0  0
 15  8  2  0  0  0  0
 17 16  1  1  0  0  0
 18 17  1  0  0  0  0
 19 21  1  6  0  0  0
 19 20  1  0  0  0  0
 20 17  1  0  0  0  0
 21 22  1  0  0  0  0
 22 18  1  0  0  0  0
 23 24  1  0  0  0  0
 25  2  1  0  0  0  0
 26 25  1  0  0  0  0
 27 26  1  0  0  0  0
 29 31  1  0  0  0  0
 30 29  2  0  0  0  0
 30 32  1  0  0  0  0
 31 27  1  0  0  0  0
 32 28  1  6  0  0  0
 32 27  1  0  0  0  0
 33 29  1  0  0  0  0
 34 33  1  0  0  0  0
 36 35  1  6  0  0  0
 36 34  1  0  0  0  0
 37 43  1  0  0  0  0
 38 42  1  0  0  0  0
 39 45  1  1  0  0  0
 39 37  1  0  0  0  0
 39 40  1  0  0  0  0
 40 41  1  0  0  0  0
 41 44  1  0  0  0  0
 41 36  1  1  0  0  0
 43 42  1  0  0  0  0
 43 44  2  0  0  0  0
 45 46  1  0  0  0  0
M  END
>  <MODEL>
2

>  <REMARK>
 VINA RESULT:      -7.1      1.641      2.370
  Name = 
  13 active torsions:
  status: ('A' for Active; 'I' for Inactive)
    1  A    between atoms: N_4  and  C_6
    2  A    between atoms: C_6  and  C_34
    3  A    between atoms: C_7  and  O_28
    4  A    between atoms: C_7  and  C_36
    5  A    between atoms: C_11  and  C_16
    6  A    between atoms: C_13  and  C_18
    7  A    between atoms: C_14  and  C_32
    8  A    between atoms: C_26  and  C_27
    9  A    between atoms: C_26  and  O_28
   10  A    between atoms: N_29  and  C_35
   11  A    between atoms: N_29  and  C_39
   12  A    between atoms: C_34  and  C_35
   13  A    between atoms: N_37  and  C_39
                            x       y       z     vdW  Elec       q    Type
                         _______ _______ _______ _____ _____    ______ ____

>  <TORSDO>
F 13

$$$$
=
 OpenBabel11042420583D

 46 50  0  0  1  0  0  0  0  0999 V2000
  160.8640  212.6710  149.3700 C   0  0  0  0  0  1  0  0  0  0  0  0
  161.6230  211.9070  148.3020 C   0  0  1  0  0  3  0  0  0  0  0  0
  161.6360  210.4950  148.6420 N   0  0  0  0  0  2  0  0  0  0  0  0
  162.6250  210.3030  149.6940 C   0  0  0  0  0  2  0  0  0  0  0  0
  161.8700  210.0720  152.1270 C   0  0  0  0  0  2  0  0  0  0  0  0
  161.6010  206.6840  147.3150 C   0  0  2  0  0  3  0  0  0  0  0  0
  161.2460  207.4790  149.5310 N   0  0  0  0  0  0  0  0  0  0  0  0
  160.6590  208.0160  151.7840 N   0  0  0  0  0  0  0  0  0  0  0  0
  162.0770  207.6800  148.3610 C   0  0  0  0  0  2  0  0  0  0  0  0
  160.5150  209.0780  153.8840 O   0  0  0  0  0  0  0  0  0  0  0  0
  160.2820  206.4040  149.3630 C   0  0  1  0  0  3  0  0  0  0  0  0
  160.4200  205.9360  147.9180 C   0  0  0  0  0  2  0  0  0  0  0  0
  162.0480  209.5340  150.7900 N   0  0  0  0  0  0  0  0  0  0  0  0
  160.9650  209.0490  152.7090 C   0  0  0  0  0  0  0  0  0  0  0  0
  161.2930  208.3180  150.6990 C   0  0  0  0  0  0  0  0  0  0  0  0
  160.5870  201.4490  149.9900 C   0  0  0  0  0  1  0  0  0  0  0  0
  160.6340  202.7860  150.6970 C   0  0  1  0  0  3  0  0  0  0  0  0
  161.9720  202.9390  151.4130 C   0  0  0  0  0  2  0  0  0  0  0  0
  160.5320  205.2700  150.3680 C   0  0  1  0  0  3  0  0  0  0  0  0
  160.4480  203.9070  149.6790 C   0  0  0  0  0  2  0  0  0  0  0  0
  161.8630  205.4210  151.1150 C   0  0  0  0  0  2  0  0  0  0  0  0
  162.0370  204.2880  152.1230 C   0  0  0  0  0  2  0  0  0  0  0  0
  162.1510  204.2920  146.8690 C   0  0  0  0  0  1  0  0  0  0  0  0
  162.7080  205.6980  146.9830 C   0  0  0  0  0  2  0  0  0  0  0  0
  160.9560  212.0950  146.9480 C   0  0  0  0  0  2  0  0  0  0  0  0
  160.4960  213.5340  146.7580 C   0  0  0  0  0  2  0  0  0  0  0  0
  161.1100  214.1100  145.5700 N   0  0  0  0  0  0  0  0  0  0  0  0
  163.1950  213.3910  144.6460 N   0  0  0  0  0  1  0  0  0  0  0  0
  160.1550  213.6540  143.5440 C   0  0  0  0  0  0  0  0  0  0  0  0
  161.1420  212.8400  143.5760 N   0  0  0  0  0  0  0  0  0  0  0  0
  160.0680  214.4530  144.6970 N   0  0  0  0  0  2  0  0  0  0  0  0
  161.8070  213.0200  144.8630 C   0  0  2  0  0  3  0  0  0  0  0  0
  159.2640  213.8090  142.3640 C   0  0  0  0  0  2  0  0  0  0  0  0
  159.3060  212.6450  141.5930 O   0  0  0  0  0  0  0  0  0  0  0  0
  158.2170  214.1420  140.2680 O   0  0  0  0  0  1  0  0  0  0  0  0
  158.2840  212.8020  140.6540 C   0  0  1  0  0  3  0  0  0  0  0  0
  158.9090  209.4080  138.2590 O   0  0  0  0  0  0  0  0  0  0  0  0
  161.3420  207.9140  138.7020 C   0  0  0  0  0  1  0  0  0  0  0  0
  157.7230  210.1410  137.9470 C   0  0  2  0  0  3  0  0  0  0  0  0
  157.3410  211.0610  139.1040 C   0  0  0  0  0  2  0  0  0  0  0  0
  158.5570  211.9240  139.4370 C   0  0  2  0  0  3  0  0  0  0  0  0
  161.1070  209.2040  139.3270 N   0  0  0  0  0  2  0  0  0  0  0  0
  159.9110  209.9410  139.0840 C   0  0  0  0  0  0  0  0  0  0  0  0
  159.7400  211.0880  139.6680 N   0  0  0  0  0  0  0  0  0  0  0  0
  156.5850  209.1990  137.5730 C   0  0  0  0  0  2  0  0  0  0  0  0
  155.2530  209.6640  138.1450 C   0  0  0  0  0  1  0  0  0  0  0  0
  2  3  1  0  0  0  0
  2  1  1  1  0  0  0
  3  4  1  0  0  0  0
  4 13  1  0  0  0  0
  5 14  1  0  0  0  0
  6 24  1  1  0  0  0
  6 12  1  0  0  0  0
  6  9  1  0  0  0  0
  7 15  1  0  0  0  0
  8 14  1  0  0  0  0
  9  7  1  0  0  0  0
 11 12  1  6  0  0  0
 11  7  1  0  0  0  0
 11 19  1  0  0  0  0
 13  5  1  0  0  0  0
 14 10  2  0  0  0  0
 15 13  1  0  0  0  0
 15  8  2  0  0  0  0
 17 16  1  6  0  0  0
 17 18  1  0  0  0  0
 18 22  1  0  0  0  0
 19 20  1  6  0  0  0
 19 21  1  0  0  0  0
 20 17  1  0  0  0  0
 21 22  1  0  0  0  0
 23 24  1  0  0  0  0
 25  2  1  0  0  0  0
 26 25  1  0  0  0  0
 27 26  1  0  0  0  0
 29 30  2  0  0  0  0
 29 31  1  0  0  0  0
 30 32  1  0  0  0  0
 31 27  1  0  0  0  0
 32 28  1  6  0  0  0
 32 27  1  0  0  0  0
 33 29  1  0  0  0  0
 34 33  1  0  0  0  0
 36 35  1  6  0  0  0
 36 34  1  0  0  0  0
 37 43  1  0  0  0  0
 38 42  1  0  0  0  0
 39 45  1  1  0  0  0
 39 37  1  0  0  0  0
 39 40  1  0  0  0  0
 40 41  1  0  0  0  0
 41 44  1  0  0  0  0
 41 36  1  1  0  0  0
 43 42  1  0  0  0  0
 43 44  2  0  0  0  0
 45 46  1  0  0  0  0
M  END
>  <MODEL>
3

>  <REMARK>
 VINA RESULT:      -7.1      1.587      2.285
  Name = 
  13 active torsions:
  status: ('A' for Active; 'I' for Inactive)
    1  A    between atoms: N_4  and  C_6
    2  A    between atoms: C_6  and  C_34
    3  A    between atoms: C_7  and  O_28
    4  A    between atoms: C_7  and  C_36
    5  A    between atoms: C_11  and  C_16
    6  A    between atoms: C_13  and  C_18
    7  A    between atoms: C_14  and  C_32
    8  A    between atoms: C_26  and  C_27
    9  A    between atoms: C_26  and  O_28
   10  A    between atoms: N_29  and  C_35
   11  A    between atoms: N_29  and  C_39
   12  A    between atoms: C_34  and  C_35
   13  A    between atoms: N_37  and  C_39
                            x       y       z     vdW  Elec       q    Type
                         _______ _______ _______ _____ _____    ______ ____

>  <TORSDO>
F 13

$$$$
=
 OpenBabel11042420583D

 46 50  0  0  1  0  0  0  0  0999 V2000
  161.6620  210.7790  154.3920 C   0  0  0  0  0  1  0  0  0  0  0  0
  160.5430  209.7790  154.1680 C   0  0  1  0  0  3  0  0  0  0  0  0
  159.5710  210.3460  153.2490 N   0  0  0  0  0  2  0  0  0  0  0  0
  160.0090  211.6960  152.9220 C   0  0  0  0  0  2  0  0  0  0  0  0
  157.6890  212.7440  153.1730 C   0  0  0  0  0  2  0  0  0  0  0  0
  161.8990  212.8240  149.0540 C   0  0  2  0  0  3  0  0  0  0  0  0
  159.9020  213.3420  150.2410 N   0  0  0  0  0  0  0  0  0  0  0  0
  157.8580  214.1220  151.2020 N   0  0  0  0  0  0  0  0  0  0  0  0
  160.9710  212.3660  150.1680 C   0  0  0  0  0  2  0  0  0  0  0  0
  155.9890  214.3890  152.6140 O   0  0  0  0  0  0  0  0  0  0  0  0
  160.0230  214.3900  149.2410 C   0  0  1  0  0  3  0  0  0  0  0  0
  161.3450  214.1390  148.5250 C   0  0  0  0  0  2  0  0  0  0  0  0
  158.8900  212.4730  152.4030 N   0  0  0  0  0  0  0  0  0  0  0  0
  157.0760  213.8140  152.3470 C   0  0  0  0  0  0  0  0  0  0  0  0
  158.8860  213.3390  151.2590 C   0  0  0  0  0  0  0  0  0  0  0  0
  158.6000  214.4320  144.4440 C   0  0  0  0  0  1  0  0  0  0  0  0
  158.1100  214.4530  145.8760 C   0  0  1  0  0  3  0  0  0  0  0  0
  157.1880  213.2630  146.1180 C   0  0  0  0  0  2  0  0  0  0  0  0
  158.8280  214.3800  148.2770 C   0  0  1  0  0  3  0  0  0  0  0  0
  159.3040  214.3990  146.8240 C   0  0  0  0  0  2  0  0  0  0  0  0
  157.8760  213.2010  148.5230 C   0  0  0  0  0  2  0  0  0  0  0  0
  156.6930  213.2660  147.5620 C   0  0  0  0  0  2  0  0  0  0  0  0
  161.7040  212.4700  146.5920 C   0  0  0  0  0  1  0  0  0  0  0  0
  161.9240  211.7980  147.9340 C   0  0  0  0  0  2  0  0  0  0  0  0
  161.1010  208.4900  153.5820 C   0  0  0  0  0  2  0  0  0  0  0  0
  160.9530  208.4670  152.0680 C   0  0  0  0  0  2  0  0  0  0  0  0
  162.0260  207.6870  151.4660 N   0  0  0  0  0  0  0  0  0  0  0  0
  162.5400  205.4250  152.0500 N   0  0  0  0  0  1  0  0  0  0  0  0
  161.7560  206.9770  149.3110 C   0  0  0  0  0  0  0  0  0  0  0  0
  161.4660  205.9290  149.9880 N   0  0  0  0  0  0  0  0  0  0  0  0
  162.1060  208.0710  150.1200 N   0  0  0  0  0  2  0  0  0  0  0  0
  161.5680  206.2870  151.4000 C   0  0  2  0  0  3  0  0  0  0  0  0
  161.8170  206.9960  147.8260 C   0  0  0  0  0  2  0  0  0  0  0  0
  160.7740  206.2270  147.3060 O   0  0  0  0  0  0  0  0  0  0  0  0
  162.5230  206.2140  145.8490 O   0  0  0  0  0  1  0  0  0  0  0  0
  161.3220  205.5890  146.1910 C   0  0  1  0  0  3  0  0  0  0  0  0
  160.6970  201.6260  147.4340 O   0  0  0  0  0  0  0  0  0  0  0  0
  160.2820  201.1810  150.2590 C   0  0  0  0  0  1  0  0  0  0  0  0
  160.9620  201.7730  146.0380 C   0  0  2  0  0  3  0  0  0  0  0  0
  160.7380  203.2160  145.5970 C   0  0  0  0  0  2  0  0  0  0  0  0
  161.5730  204.1170  146.5050 C   0  0  2  0  0  3  0  0  0  0  0  0
  160.6990  202.4710  149.7350 N   0  0  0  0  0  2  0  0  0  0  0  0
  160.9200  202.6720  148.3410 C   0  0  0  0  0  0  0  0  0  0  0  0
  161.2860  203.8430  147.9170 N   0  0  0  0  0  0  0  0  0  0  0  0
  160.1250  200.7950  145.2200 C   0  0  0  0  0  2  0  0  0  0  0  0
  160.7000  199.3870  145.2570 C   0  0  0  0  0  1  0  0  0  0  0  0
  2  1  1  6  0  0  0
  3  2  1  0  0  0  0
  4  3  1  0  0  0  0
  6 24  1  6  0  0  0
  6  9  1  0  0  0  0
  7 15  1  0  0  0  0
  8 15  2  0  0  0  0
  8 14  1  0  0  0  0
  9  7  1  0  0  0  0
 11 12  1  6  0  0  0
 11  7  1  0  0  0  0
 12  6  1  0  0  0  0
 13  4  1  0  0  0  0
 13  5  1  0  0  0  0
 14 10  2  0  0  0  0
 14  5  1  0  0  0  0
 15 13  1  0  0  0  0
 17 16  1  6  0  0  0
 17 18  1  0  0  0  0
 17 20  1  0  0  0  0
 18 22  1  0  0  0  0
 19 20  1  6  0  0  0
 19 21  1  0  0  0  0
 19 11  1  0  0  0  0
 22 21  1  0  0  0  0
 23 24  1  0  0  0  0
 25  2  1  0  0  0  0
 26 25  1  0  0  0  0
 27 26  1  0  0  0  0
 29 30  2  0  0  0  0
 29 31  1  0  0  0  0
 30 32  1  0  0  0  0
 31 27  1  0  0  0  0
 32 27  1  0  0  0  0
 32 28  1  1  0  0  0
 33 29  1  0  0  0  0
 34 33  1  0  0  0  0
 36 35  1  1  0  0  0
 36 34  1  0  0  0  0
 37 43  1  0  0  0  0
 39 45  1  6  0  0  0
 39 37  1  0  0  0  0
 40 39  1  0  0  0  0
 40 41  1  0  0  0  0
 41 36  1  6  0  0  0
 41 44  1  0  0  0  0
 42 38  1  0  0  0  0
 43 42  1  0  0  0  0
 44 43  2  0  0  0  0
 45 46  1  0  0  0  0
M  END
>  <MODEL>
4

>  <REMARK>
 VINA RESULT:      -6.4      4.431      9.218
  Name = 
  13 active torsions:
  status: ('A' for Active; 'I' for Inactive)
    1  A    between atoms: N_4  and  C_6
    2  A    between atoms: C_6  and  C_34
    3  A    between atoms: C_7  and  O_28
    4  A    between atoms: C_7  and  C_36
    5  A    between atoms: C_11  and  C_16
    6  A    between atoms: C_13  and  C_18
    7  A    between atoms: C_14  and  C_32
    8  A    between atoms: C_26  and  C_27
    9  A    between atoms: C_26  and  O_28
   10  A    between atoms: N_29  and  C_35
   11  A    between atoms: N_29  and  C_39
   12  A    between atoms: C_34  and  C_35
   13  A    between atoms: N_37  and  C_39
                            x       y       z     vdW  Elec       q    Type
                         _______ _______ _______ _____ _____    ______ ____

>  <TORSDO>
F 13

$$$$
=
 OpenBabel11042420583D

 46 50  0  0  1  0  0  0  0  0999 V2000
  161.1290  211.5020  151.6670 C   0  0  0  0  0  1  0  0  0  0  0  0
  160.9970  209.9940  151.7740 C   0  0  1  0  0  3  0  0  0  0  0  0
  162.3190  209.3940  151.7250 N   0  0  0  0  0  2  0  0  0  0  0  0
  162.3300  208.4420  150.6230 C   0  0  0  0  0  2  0  0  0  0  0  0
  162.0600  206.7650  152.5350 C   0  0  0  0  0  2  0  0  0  0  0  0
  161.4600  206.5750  146.6780 C   0  0  2  0  0  3  0  0  0  0  0  0
  161.3860  205.9360  148.9690 N   0  0  0  0  0  0  0  0  0  0  0  0
  161.1310  205.0160  151.1600 N   0  0  0  0  0  0  0  0  0  0  0  0
  161.9580  206.9200  148.0720 C   0  0  0  0  0  2  0  0  0  0  0  0
  161.2020  204.7030  153.4950 O   0  0  0  0  0  0  0  0  0  0  0  0
  160.5810  204.9410  148.2800 C   0  0  1  0  0  3  0  0  0  0  0  0
  160.5310  205.3780  146.8200 C   0  0  0  0  0  2  0  0  0  0  0  0
  162.0780  207.0960  151.1210 N   0  0  0  0  0  0  0  0  0  0  0  0
  161.4370  205.4190  152.4880 C   0  0  0  0  0  0  0  0  0  0  0  0
  161.5110  205.9920  150.4020 C   0  0  0  0  0  0  0  0  0  0  0  0
  160.3580  200.6590  150.8580 C   0  0  0  0  0  1  0  0  0  0  0  0
  161.0980  201.4050  149.7690 C   0  0  1  0  0  3  0  0  0  0  0  0
  161.0440  200.6040  148.4720 C   0  0  0  0  0  2  0  0  0  0  0  0
  161.1720  203.5340  148.4460 C   0  0  1  0  0  3  0  0  0  0  0  0
  160.4620  202.7770  149.5690 C   0  0  0  0  0  2  0  0  0  0  0  0
  161.1480  202.7220  147.1440 C   0  0  0  0  0  2  0  0  0  0  0  0
  161.7790  201.3500  147.3620 C   0  0  0  0  0  2  0  0  0  0  0  0
  162.1660  205.2970  144.6540 C   0  0  0  0  0  1  0  0  0  0  0  0
  162.6280  206.2060  145.7780 C   0  0  0  0  0  2  0  0  0  0  0  0
  160.3190  209.6190  153.0840 C   0  0  0  0  0  2  0  0  0  0  0  0
  160.9280  210.3770  154.2540 C   0  0  0  0  0  2  0  0  0  0  0  0
  159.8800  210.8990  155.1200 N   0  0  0  0  0  0  0  0  0  0  0  0
  160.2690  211.8920  157.2610 N   0  0  0  0  0  1  0  0  0  0  0  0
  158.8500  212.8430  154.5030 C   0  0  0  0  0  0  0  0  0  0  0  0
  159.6850  213.2400  155.3890 N   0  0  0  0  0  0  0  0  0  0  0  0
  158.9000  211.4560  154.2870 N   0  0  0  0  0  2  0  0  0  0  0  0
  160.4360  212.0670  155.8280 C   0  0  2  0  0  3  0  0  0  0  0  0
  157.8620  213.7440  153.8530 C   0  0  0  0  0  2  0  0  0  0  0  0
  158.3670  214.1850  152.6280 O   0  0  0  0  0  0  0  0  0  0  0  0
  156.1910  214.1370  151.9620 O   0  0  0  0  0  1  0  0  0  0  0  0
  157.4800  213.6810  151.6740 C   0  0  1  0  0  3  0  0  0  0  0  0
  159.2410  213.7320  147.8620 O   0  0  0  0  0  0  0  0  0  0  0  0
  162.1240  213.8940  147.7450 C   0  0  0  0  0  1  0  0  0  0  0  0
  157.8130  213.7190  147.8530 C   0  0  2  0  0  3  0  0  0  0  0  0
  157.2720  213.2610  149.2040 C   0  0  0  0  0  2  0  0  0  0  0  0
  157.8950  214.1450  150.2820 C   0  0  2  0  0  3  0  0  0  0  0  0
  161.3930  214.0640  148.9880 N   0  0  0  0  0  2  0  0  0  0  0  0
  159.9690  214.0020  149.0300 C   0  0  0  0  0  0  0  0  0  0  0  0
  159.3580  214.1540  150.1650 N   0  0  0  0  0  0  0  0  0  0  0  0
  157.2850  212.8580  146.7110 C   0  0  0  0  0  2  0  0  0  0  0  0
  157.2450  213.6220  145.3950 C   0  0  0  0  0  1  0  0  0  0  0  0
  2  1  1  1  0  0  0
  2 25  1  0  0  0  0
  3  2  1  0  0  0  0
  4 13  1  0  0  0  0
  4  3  1  0  0  0  0
  6 24  1  6  0  0  0
  6 12  1  0  0  0  0
  6  9  1  0  0  0  0
  7 15  1  0  0  0  0
  8 14  1  0  0  0  0
  9  7  1  0  0  0  0
 11 12  1  6  0  0  0
 11 19  1  0  0  0  0
 11  7  1  0  0  0  0
 13  5  1  0  0  0  0
 14  5  1  0  0  0  0
 14 10  2  0  0  0  0
 15 13  1  0  0  0  0
 15  8  2  0  0  0  0
 17 16  1  1  0  0  0
 18 17  1  0  0  0  0
 19 21  1  6  0  0  0
 19 20  1  0  0  0  0
 20 17  1  0  0  0  0
 21 22  1  0  0  0  0
 22 18  1  0  0  0  0
 23 24  1  0  0  0  0
 25 26  1  0  0  0  0
 26 27  1  0  0  0  0
 27 32  1  0  0  0  0
 29 30  2  0  0  0  0
 30 32  1  0  0  0  0
 31 29  1  0  0  0  0
 31 27  1  0  0  0  0
 32 28  1  1  0  0  0
 33 29  1  0  0  0  0
 34 33  1  0  0  0  0
 36 35  1  1  0  0  0
 36 34  1  0  0  0  0
 37 43  1  0  0  0  0
 38 42  1  0  0  0  0
 39 45  1  6  0  0  0
 39 37  1  0  0  0  0
 39 40  1  0  0  0  0
 40 41  1  0  0  0  0
 41 36  1  1  0  0  0
 42 43  1  0  0  0  0
 43 44  2  0  0  0  0
 44 41  1  0  0  0  0
 46 45  1  0  0  0  0
M  END
>  <MODEL>
5

>  <REMARK>
 VINA RESULT:      -6.4      4.446      7.209
  Name = 
  13 active torsions:
  status: ('A' for Active; 'I' for Inactive)
    1  A    between atoms: N_4  and  C_6
    2  A    between atoms: C_6  and  C_34
    3  A    between atoms: C_7  and  O_28
    4  A    between atoms: C_7  and  C_36
    5  A    between atoms: C_11  and  C_16
    6  A    between atoms: C_13  and  C_18
    7  A    between atoms: C_14  and  C_32
    8  A    between atoms: C_26  and  C_27
    9  A    between atoms: C_26  and  O_28
   10  A    between atoms: N_29  and  C_35
   11  A    between atoms: N_29  and  C_39
   12  A    between atoms: C_34  and  C_35
   13  A    between atoms: N_37  and  C_39
                            x       y       z     vdW  Elec       q    Type
                         _______ _______ _______ _____ _____    ______ ____

>  <TORSDO>
F 13

$$$$
=
 OpenBabel11042420583D

 46 50  0  0  1  0  0  0  0  0999 V2000
  160.7350  212.5310  149.4550 C   0  0  0  0  0  1  0  0  0  0  0  0
  161.9690  212.4440  148.5780 C   0  0  1  0  0  3  0  0  0  0  0  0
  162.6510  211.1870  148.8330 N   0  0  0  0  0  2  0  0  0  0  0  0
  161.7600  210.3560  149.6310 C   0  0  0  0  0  2  0  0  0  0  0  0
  161.8660  208.7100  147.6770 C   0  0  0  0  0  2  0  0  0  0  0  0
  161.4850  208.2390  153.5360 C   0  0  2  0  0  3  0  0  0  0  0  0
  161.7380  207.6530  151.2430 N   0  0  0  0  0  0  0  0  0  0  0  0
  162.0730  206.7460  149.0580 N   0  0  0  0  0  0  0  0  0  0  0  0
  161.3180  208.7360  152.1090 C   0  0  0  0  0  2  0  0  0  0  0  0
  162.2830  206.5150  146.7210 O   0  0  0  0  0  0  0  0  0  0  0  0
  162.1340  206.4620  151.9770 C   0  0  1  0  0  3  0  0  0  0  0  0
  162.0730  206.8370  153.4530 C   0  0  0  0  0  2  0  0  0  0  0  0
  161.7190  209.0030  149.0910 N   0  0  0  0  0  0  0  0  0  0  0  0
  162.0940  207.2450  147.7280 C   0  0  0  0  0  0  0  0  0  0  0  0
  161.8550  207.7710  149.8140 C   0  0  0  0  0  0  0  0  0  0  0  0
  161.1230  202.8590  148.6560 C   0  0  0  0  0  1  0  0  0  0  0  0
  160.6810  203.4980  149.9540 C   0  0  1  0  0  3  0  0  0  0  0  0
  160.6730  202.4500  151.0630 C   0  0  0  0  0  2  0  0  0  0  0  0
  161.2230  205.2720  151.6410 C   0  0  1  0  0  3  0  0  0  0  0  0
  161.6300  204.6380  150.3100 C   0  0  0  0  0  2  0  0  0  0  0  0
  161.1850  204.2200  152.7560 C   0  0  0  0  0  2  0  0  0  0  0  0
  160.2390  203.0840  152.3820 C   0  0  0  0  0  2  0  0  0  0  0  0
  160.2020  207.2620  155.4400 C   0  0  0  0  0  1  0  0  0  0  0  0
  160.1370  208.1820  154.2350 C   0  0  0  0  0  2  0  0  0  0  0  0
  161.5760  212.5180  147.1100 C   0  0  0  0  0  2  0  0  0  0  0  0
  161.0990  213.9150  146.7390 C   0  0  0  0  0  2  0  0  0  0  0  0
  161.4400  214.2170  145.3560 N   0  0  0  0  0  0  0  0  0  0  0  0
  163.3720  213.3710  144.2290 N   0  0  0  0  0  1  0  0  0  0  0  0
  160.1720  213.2680  143.7090 C   0  0  0  0  0  0  0  0  0  0  0  0
  161.2080  212.5170  143.7300 N   0  0  0  0  0  0  0  0  0  0  0  0
  160.2340  214.3110  144.6480 N   0  0  0  0  0  2  0  0  0  0  0  0
  162.0800  213.0150  144.7890 C   0  0  2  0  0  3  0  0  0  0  0  0
  159.0720  213.1120  142.7210 C   0  0  0  0  0  2  0  0  0  0  0  0
  159.5390  213.4410  141.4470 O   0  0  0  0  0  0  0  0  0  0  0  0
  158.7800  212.7610  139.4110 O   0  0  0  0  0  1  0  0  0  0  0  0
  159.2390  212.3280  140.6570 C   0  0  1  0  0  3  0  0  0  0  0  0
  162.3470  210.1540  138.8530 O   0  0  0  0  0  0  0  0  0  0  0  0
  161.6210  207.7300  137.4580 C   0  0  0  0  0  1  0  0  0  0  0  0
  162.7760  211.3040  139.5830 C   0  0  2  0  0  3  0  0  0  0  0  0
  161.6080  212.2570  139.8190 C   0  0  0  0  0  2  0  0  0  0  0  0
  160.4840  211.4640  140.4810 C   0  0  2  0  0  3  0  0  0  0  0  0
  160.6710  208.4580  138.2800 N   0  0  0  0  0  2  0  0  0  0  0  0
  161.0470  209.6420  138.9800 C   0  0  0  0  0  0  0  0  0  0  0  0
  160.1630  210.2650  139.7000 N   0  0  0  0  0  0  0  0  0  0  0  0
  163.9360  211.9950  138.8750 C   0  0  0  0  0  2  0  0  0  0  0  0
  163.6120  213.4430  138.5350 C   0  0  0  0  0  1  0  0  0  0  0  0
  2  3  1  0  0  0  0
  2  1  1  1  0  0  0
  3  4  1  0  0  0  0
  5 14  1  0  0  0  0
  5 13  1  0  0  0  0
  6 24  1  6  0  0  0
  7 11  1  0  0  0  0
  7  9  1  0  0  0  0
  8 15  2  0  0  0  0
  9  6  1  0  0  0  0
 10 14  2  0  0  0  0
 11 12  1  1  0  0  0
 12  6  1  0  0  0  0
 13  4  1  0  0  0  0
 13 15  1  0  0  0  0
 14  8  1  0  0  0  0
 15  7  1  0  0  0  0
 17 16  1  6  0  0  0
 17 20  1  0  0  0  0
 17 18  1  0  0  0  0
 18 22  1  0  0  0  0
 19 20  1  6  0  0  0
 19 11  1  0  0  0  0
 19 21  1  0  0  0  0
 22 21  1  0  0  0  0
 24 23  1  0  0  0  0
 25  2  1  0  0  0  0
 26 25  1  0  0  0  0
 27 26  1  0  0  0  0
 29 30  2  0  0  0  0
 29 31  1  0  0  0  0
 30 32  1  0  0  0  0
 31 27  1  0  0  0  0
 32 28  1  6  0  0  0
 32 27  1  0  0  0  0
 33 29  1  0  0  0  0
 34 33  1  0  0  0  0
 36 35  1  6  0  0  0
 36 34  1  0  0  0  0
 37 43  1  0  0  0  0
 37 39  1  0  0  0  0
 38 42  1  0  0  0  0
 39 45  1  6  0  0  0
 39 40  1  0  0  0  0
 40 41  1  0  0  0  0
 41 36  1  6  0  0  0
 42 43  1  0  0  0  0
 43 44  2  0  0  0  0
 44 41  1  0  0  0  0
 46 45  1  0  0  0  0
M  END
>  <MODEL>
6

>  <REMARK>
 VINA RESULT:      -6.3      2.084      4.057
  Name = 
  13 active torsions:
  status: ('A' for Active; 'I' for Inactive)
    1  A    between atoms: N_4  and  C_6
    2  A    between atoms: C_6  and  C_34
    3  A    between atoms: C_7  and  O_28
    4  A    between atoms: C_7  and  C_36
    5  A    between atoms: C_11  and  C_16
    6  A    between atoms: C_13  and  C_18
    7  A    between atoms: C_14  and  C_32
    8  A    between atoms: C_26  and  C_27
    9  A    between atoms: C_26  and  O_28
   10  A    between atoms: N_29  and  C_35
   11  A    between atoms: N_29  and  C_39
   12  A    between atoms: C_34  and  C_35
   13  A    between atoms: N_37  and  C_39
                            x       y       z     vdW  Elec       q    Type
                         _______ _______ _______ _____ _____    ______ ____

>  <TORSDO>
F 13

$$$$
=
 OpenBabel11042420583D

 46 50  0  0  1  0  0  0  0  0999 V2000
  162.3310  209.5040  148.6330 C   0  0  0  0  0  1  0  0  0  0  0  0
  162.2240  209.5760  150.1440 C   0  0  1  0  0  3  0  0  0  0  0  0
  161.0280  210.3170  150.5050 N   0  0  0  0  0  2  0  0  0  0  0  0
  161.4420  211.6520  150.9140 C   0  0  0  0  0  2  0  0  0  0  0  0
  159.7430  213.3260  149.9920 C   0  0  0  0  0  2  0  0  0  0  0  0
  160.4430  210.4380  155.0780 C   0  0  2  0  0  3  0  0  0  0  0  0
  159.4800  211.7900  153.3720 N   0  0  0  0  0  0  0  0  0  0  0  0
  158.2250  213.1460  151.8560 N   0  0  0  0  0  0  0  0  0  0  0  0
  160.7300  211.1830  153.7840 C   0  0  0  0  0  2  0  0  0  0  0  0
  157.5710  214.4170  149.9820 O   0  0  0  0  0  0  0  0  0  0  0  0
  158.3960  211.5440  154.3070 C   0  0  1  0  0  3  0  0  0  0  0  0
  158.9570  210.6000  155.3650 C   0  0  0  0  0  2  0  0  0  0  0  0
  160.2760  212.5120  151.0700 N   0  0  0  0  0  0  0  0  0  0  0  0
  158.4240  213.6970  150.5620 C   0  0  0  0  0  0  0  0  0  0  0  0
  159.3000  212.4770  152.1200 C   0  0  0  0  0  0  0  0  0  0  0  0
  154.3850  214.4530  155.0050 C   0  0  0  0  0  1  0  0  0  0  0  0
  155.8790  214.3400  155.2220 C   0  0  1  0  0  3  0  0  0  0  0  0
  156.1890  214.4450  156.7120 C   0  0  0  0  0  2  0  0  0  0  0  0
  157.8750  212.8550  154.9150 C   0  0  1  0  0  3  0  0  0  0  0  0
  156.3740  213.0060  154.6710 C   0  0  0  0  0  2  0  0  0  0  0  0
  158.2000  212.9880  156.4080 C   0  0  0  0  0  2  0  0  0  0  0  0
  157.6920  214.3220  156.9450 C   0  0  0  0  0  2  0  0  0  0  0  0
  162.6630  210.4890  156.2180 C   0  0  0  0  0  1  0  0  0  0  0  0
  161.2480  211.0380  156.2190 C   0  0  0  0  0  2  0  0  0  0  0  0
  162.1500  208.1750  150.7330 C   0  0  0  0  0  2  0  0  0  0  0  0
  161.4000  208.1760  152.0570 C   0  0  0  0  0  2  0  0  0  0  0  0
  161.9320  207.1480  152.9410 N   0  0  0  0  0  0  0  0  0  0  0  0
  161.5180  207.0450  155.2940 N   0  0  0  0  0  1  0  0  0  0  0  0
  161.0550  205.0430  152.7840 C   0  0  0  0  0  0  0  0  0  0  0  0
  160.4550  205.5190  153.8100 N   0  0  0  0  0  0  0  0  0  0  0  0
  161.9580  205.9530  152.2080 N   0  0  0  0  0  2  0  0  0  0  0  0
  160.9170  206.8930  153.9800 C   0  0  2  0  0  3  0  0  0  0  0  0
  160.8880  203.6410  152.3190 C   0  0  0  0  0  2  0  0  0  0  0  0
  160.5390  203.6350  150.9670 O   0  0  0  0  0  0  0  0  0  0  0  0
  160.1150  201.4580  150.4580 O   0  0  0  0  0  1  0  0  0  0  0  0
  161.0910  202.4570  150.4600 C   0  0  1  0  0  3  0  0  0  0  0  0
  161.1430  203.2310  146.3320 O   0  0  0  0  0  0  0  0  0  0  0  0
  160.0570  201.1920  144.5960 C   0  0  0  0  0  1  0  0  0  0  0  0
  161.7530  204.2460  147.1320 C   0  0  2  0  0  3  0  0  0  0  0  0
  161.3120  204.1200  148.5870 C   0  0  0  0  0  2  0  0  0  0  0  0
  161.6000  202.6900  149.0410 C   0  0  2  0  0  3  0  0  0  0  0  0
  160.2720  200.9610  146.0140 N   0  0  0  0  0  2  0  0  0  0  0  0
  160.8270  201.9690  146.8560 C   0  0  0  0  0  0  0  0  0  0  0  0
  160.9960  201.7210  148.1200 N   0  0  0  0  0  0  0  0  0  0  0  0
  161.4580  205.6320  146.5690 C   0  0  0  0  0  2  0  0  0  0  0  0
  160.7490  206.5170  147.5840 C   0  0  0  0  0  1  0  0  0  0  0  0
  2  1  1  6  0  0  0
  2  3  1  0  0  0  0
  2 25  1  0  0  0  0
  3  4  1  0  0  0  0
  4 13  1  0  0  0  0
  5 14  1  0  0  0  0
  5 13  1  0  0  0  0
  6 12  1  0  0  0  0
  6 24  1  1  0  0  0
  7  9  1  0  0  0  0
  7 11  1  0  0  0  0
  8 15  2  0  0  0  0
  9  6  1  0  0  0  0
 10 14  2  0  0  0  0
 11 19  1  0  0  0  0
 11 12  1  1  0  0  0
 13 15  1  0  0  0  0
 14  8  1  0  0  0  0
 15  7  1  0  0  0  0
 17 16  1  1  0  0  0
 17 18  1  0  0  0  0
 18 22  1  0  0  0  0
 19 20  1  1  0  0  0
 19 21  1  0  0  0  0
 20 17  1  0  0  0  0
 21 22  1  0  0  0  0
 23 24  1  0  0  0  0
 25 26  1  0  0  0  0
 26 27  1  0  0  0  0
 27 32  1  0  0  0  0
 29 30  2  0  0  0  0
 30 32  1  0  0  0  0
 31 29  1  0  0  0  0
 31 27  1  0  0  0  0
 32 28  1  1  0  0  0
 33 29  1  0  0  0  0
 34 33  1  0  0  0  0
 36 35  1  6  0  0  0
 36 34  1  0  0  0  0
 37 43  1  0  0  0  0
 37 39  1  0  0  0  0
 38 42  1  0  0  0  0
 39 45  1  6  0  0  0
 39 40  1  0  0  0  0
 40 41  1  0  0  0  0
 41 36  1  1  0  0  0
 42 43  1  0  0  0  0
 43 44  2  0  0  0  0
 44 41  1  0  0  0  0
 45 46  1  0  0  0  0
M  END
>  <MODEL>
7

>  <REMARK>
 VINA RESULT:      -6.2      5.478     10.102
  Name = 
  13 active torsions:
  status: ('A' for Active; 'I' for Inactive)
    1  A    between atoms: N_4  and  C_6
    2  A    between atoms: C_6  and  C_34
    3  A    between atoms: C_7  and  O_28
    4  A    between atoms: C_7  and  C_36
    5  A    between atoms: C_11  and  C_16
    6  A    between atoms: C_13  and  C_18
    7  A    between atoms: C_14  and  C_32
    8  A    between atoms: C_26  and  C_27
    9  A    between atoms: C_26  and  O_28
   10  A    between atoms: N_29  and  C_35
   11  A    between atoms: N_29  and  C_39
   12  A    between atoms: C_34  and  C_35
   13  A    between atoms: N_37  and  C_39
                            x       y       z     vdW  Elec       q    Type
                         _______ _______ _______ _____ _____    ______ ____

>  <TORSDO>
F 13

$$$$
=
 OpenBabel11042420583D

 46 50  0  0  1  0  0  0  0  0999 V2000
  161.0810  210.7810  147.6860 C   0  0  0  0  0  1  0  0  0  0  0  0
  161.1790  211.8570  148.7510 C   0  0  1  0  0  3  0  0  0  0  0  0
  162.3290  211.5910  149.5970 N   0  0  0  0  0  2  0  0  0  0  0  0
  162.6530  210.1770  149.4690 C   0  0  0  0  0  2  0  0  0  0  0  0
  161.8790  209.9810  151.8990 C   0  0  0  0  0  2  0  0  0  0  0  0
  161.6150  206.5380  147.1270 C   0  0  2  0  0  3  0  0  0  0  0  0
  161.2510  207.3620  149.3300 N   0  0  0  0  0  0  0  0  0  0  0  0
  160.6530  207.9310  151.5730 N   0  0  0  0  0  0  0  0  0  0  0  0
  162.0920  207.5420  148.1640 C   0  0  0  0  0  2  0  0  0  0  0  0
  160.5040  209.0200  153.6580 O   0  0  0  0  0  0  0  0  0  0  0  0
  160.2800  206.2930  149.1680 C   0  0  1  0  0  3  0  0  0  0  0  0
  160.4240  205.8070  147.7300 C   0  0  0  0  0  2  0  0  0  0  0  0
  162.0620  209.4260  150.5700 N   0  0  0  0  0  0  0  0  0  0  0  0
  160.9620  208.9740  152.4870 C   0  0  0  0  0  0  0  0  0  0  0  0
  161.2970  208.2150  150.4880 C   0  0  0  0  0  0  0  0  0  0  0  0
  160.6510  201.3480  149.8370 C   0  0  0  0  0  1  0  0  0  0  0  0
  160.6480  202.6900  150.5360 C   0  0  1  0  0  3  0  0  0  0  0  0
  161.9560  202.8710  151.3010 C   0  0  0  0  0  2  0  0  0  0  0  0
  160.5130  205.1690  150.1890 C   0  0  1  0  0  3  0  0  0  0  0  0
  160.4800  203.8020  149.5060 C   0  0  0  0  0  2  0  0  0  0  0  0
  161.8130  205.3490  150.9840 C   0  0  0  0  0  2  0  0  0  0  0  0
  161.9710  204.2250  152.0040 C   0  0  0  0  0  2  0  0  0  0  0  0
  162.2340  204.5130  145.8070 C   0  0  0  0  0  1  0  0  0  0  0  0
  162.7170  205.5390  146.8150 C   0  0  0  0  0  2  0  0  0  0  0  0
  161.3330  213.2250  148.1020 C   0  0  0  0  0  2  0  0  0  0  0  0
  160.3460  213.4040  146.9570 C   0  0  0  0  0  2  0  0  0  0  0  0
  160.9210  214.2500  145.9200 N   0  0  0  0  0  0  0  0  0  0  0  0
  163.2010  214.1480  145.2070 N   0  0  0  0  0  1  0  0  0  0  0  0
  160.3170  213.8470  143.7530 C   0  0  0  0  0  0  0  0  0  0  0  0
  161.4630  213.2820  143.8320 N   0  0  0  0  0  0  0  0  0  0  0  0
  159.9220  214.4530  144.9580 N   0  0  0  0  0  2  0  0  0  0  0  0
  161.9300  213.4450  145.2060 C   0  0  2  0  0  3  0  0  0  0  0  0
  159.5400  213.9410  142.4890 C   0  0  0  0  0  2  0  0  0  0  0  0
  160.3640  213.6150  141.4100 O   0  0  0  0  0  0  0  0  0  0  0  0
  159.0730  211.8350  140.8230 O   0  0  0  0  0  1  0  0  0  0  0  0
  160.3150  212.2220  141.3310 C   0  0  1  0  0  3  0  0  0  0  0  0
  162.3090  210.6350  137.9920 O   0  0  0  0  0  0  0  0  0  0  0  0
  161.8140  207.8590  137.3580 C   0  0  0  0  0  1  0  0  0  0  0  0
  162.6450  211.9910  138.2920 C   0  0  2  0  0  3  0  0  0  0  0  0
  161.5910  212.6170  139.2000 C   0  0  0  0  0  2  0  0  0  0  0  0
  161.4290  211.7130  140.4210 C   0  0  2  0  0  3  0  0  0  0  0  0
  161.3400  208.4640  138.5910 N   0  0  0  0  0  2  0  0  0  0  0  0
  161.6080  209.8300  138.9020 C   0  0  0  0  0  0  0  0  0  0  0  0
  161.1600  210.3300  140.0130 N   0  0  0  0  0  0  0  0  0  0  0  0
  162.8420  212.7980  137.0140 C   0  0  0  0  0  2  0  0  0  0  0  0
  163.9280  213.8530  137.1700 C   0  0  0  0  0  1  0  0  0  0  0  0
  2  1  1  6  0  0  0
  2  3  1  0  0  0  0
  4  3  1  0  0  0  0
  4 13  1  0  0  0  0
  5 14  1  0  0  0  0
  6 24  1  1  0  0  0
  6 12  1  0  0  0  0
  6  9  1  0  0  0  0
  7 15  1  0  0  0  0
  8 14  1  0  0  0  0
  9  7  1  0  0  0  0
 11 12  1  6  0  0  0
 11  7  1  0  0  0  0
 11 19  1  0  0  0  0
 13  5  1  0  0  0  0
 14 10  2  0  0  0  0
 15 13  1  0  0  0  0
 15  8  2  0  0  0  0
 17 16  1  6  0  0  0
 17 18  1  0  0  0  0
 18 22  1  0  0  0  0
 19 20  1  6  0  0  0
 19 21  1  0  0  0  0
 20 17  1  0  0  0  0
 21 22  1  0  0  0  0
 23 24  1  0  0  0  0
 25  2  1  0  0  0  0
 26 25  1  0  0  0  0
 27 26  1  0  0  0  0
 29 30  2  0  0  0  0
 29 31  1  0  0  0  0
 30 32  1  0  0  0  0
 31 27  1  0  0  0  0
 32 28  1  6  0  0  0
 32 27  1  0  0  0  0
 33 29  1  0  0  0  0
 34 33  1  0  0  0  0
 36 35  1  6  0  0  0
 36 34  1  0  0  0  0
 37 39  1  0  0  0  0
 37 43  1  0  0  0  0
 38 42  1  0  0  0  0
 39 45  1  6  0  0  0
 39 40  1  0  0  0  0
 40 41  1  0  0  0  0
 41 36  1  1  0  0  0
 42 43  1  0  0  0  0
 43 44  2  0  0  0  0
 44 41  1  0  0  0  0
 45 46  1  0  0  0  0
M  END
>  <MODEL>
8

>  <REMARK>
 VINA RESULT:      -6.1      1.714      2.520
  Name = 
  13 active torsions:
  status: ('A' for Active; 'I' for Inactive)
    1  A    between atoms: N_4  and  C_6
    2  A    between atoms: C_6  and  C_34
    3  A    between atoms: C_7  and  O_28
    4  A    between atoms: C_7  and  C_36
    5  A    between atoms: C_11  and  C_16
    6  A    between atoms: C_13  and  C_18
    7  A    between atoms: C_14  and  C_32
    8  A    between atoms: C_26  and  C_27
    9  A    between atoms: C_26  and  O_28
   10  A    between atoms: N_29  and  C_35
   11  A    between atoms: N_29  and  C_39
   12  A    between atoms: C_34  and  C_35
   13  A    between atoms: N_37  and  C_39
                            x       y       z     vdW  Elec       q    Type
                         _______ _______ _______ _____ _____    ______ ____

>  <TORSDO>
F 13

$$$$
=
 OpenBabel11042420583D

 46 50  0  0  1  0  0  0  0  0999 V2000
  160.4460  205.6430  154.2930 C   0  0  0  0  0  1  0  0  0  0  0  0
  161.4980  206.6970  154.0050 C   0  0  1  0  0  3  0  0  0  0  0  0
  162.1160  206.4200  152.7200 N   0  0  0  0  0  2  0  0  0  0  0  0
  161.1940  205.5910  151.9560 C   0  0  0  0  0  2  0  0  0  0  0  0
  161.2010  207.4480  150.1970 C   0  0  0  0  0  2  0  0  0  0  0  0
  161.2050  201.5580  150.0750 C   0  0  2  0  0  3  0  0  0  0  0  0
  161.3200  203.8240  149.3550 N   0  0  0  0  0  0  0  0  0  0  0  0
  161.5290  205.9690  148.3220 N   0  0  0  0  0  0  0  0  0  0  0  0
  160.9380  202.9980  150.4830 C   0  0  0  0  0  2  0  0  0  0  0  0
  161.5920  208.2960  147.9530 O   0  0  0  0  0  0  0  0  0  0  0  0
  161.7820  203.0480  148.2160 C   0  0  1  0  0  3  0  0  0  0  0  0
  161.8100  201.5960  148.6790 C   0  0  0  0  0  2  0  0  0  0  0  0
  161.1400  206.0460  150.5730 N   0  0  0  0  0  0  0  0  0  0  0  0
  161.4560  207.3240  148.7400 C   0  0  0  0  0  0  0  0  0  0  0  0
  161.3430  205.2620  149.3890 C   0  0  0  0  0  0  0  0  0  0  0  0
  161.2060  205.4460  143.8630 C   0  0  0  0  0  1  0  0  0  0  0  0
  160.5550  204.4920  144.8400 C   0  0  1  0  0  3  0  0  0  0  0  0
  160.2360  203.1770  144.1350 C   0  0  0  0  0  2  0  0  0  0  0  0
  160.8710  203.2530  146.9970 C   0  0  1  0  0  3  0  0  0  0  0  0
  161.4950  204.2460  146.0160 C   0  0  0  0  0  2  0  0  0  0  0  0
  160.5210  201.9370  146.2890 C   0  0  0  0  0  2  0  0  0  0  0  0
  159.5880  202.2000  145.1120 C   0  0  0  0  0  2  0  0  0  0  0  0
  158.7890  201.6110  149.4500 C   0  0  0  0  0  1  0  0  0  0  0  0
  159.9060  200.7710  150.0430 C   0  0  0  0  0  2  0  0  0  0  0  0
  160.8600  208.0790  153.9720 C   0  0  0  0  0  2  0  0  0  0  0  0
  160.1640  208.3940  155.2890 C   0  0  0  0  0  2  0  0  0  0  0  0
  160.5370  209.7230  155.7530 N   0  0  0  0  0  0  0  0  0  0  0  0
  162.6950  210.7050  155.4420 N   0  0  0  0  0  1  0  0  0  0  0  0
  159.6560  211.5250  154.6570 C   0  0  0  0  0  0  0  0  0  0  0  0
  160.8320  211.4440  154.1590 N   0  0  0  0  0  0  0  0  0  0  0  0
  159.4010  210.5350  155.6210 N   0  0  0  0  0  2  0  0  0  0  0  0
  161.4790  210.2850  154.7670 C   0  0  2  0  0  3  0  0  0  0  0  0
  158.7040  212.6170  154.3250 C   0  0  0  0  0  2  0  0  0  0  0  0
  157.9890  212.2790  153.1740 O   0  0  0  0  0  0  0  0  0  0  0  0
  158.9630  214.3200  152.9170 O   0  0  0  0  0  1  0  0  0  0  0  0
  158.0500  213.4170  152.3670 C   0  0  1  0  0  3  0  0  0  0  0  0
  159.0680  213.7070  148.3030 O   0  0  0  0  0  0  0  0  0  0  0  0
  156.9410  214.3450  146.4540 C   0  0  0  0  0  1  0  0  0  0  0  0
  160.1470  213.3240  149.1570 C   0  0  2  0  0  3  0  0  0  0  0  0
  159.8300  213.6670  150.6090 C   0  0  0  0  0  2  0  0  0  0  0  0
  158.4850  213.0320  150.9570 C   0  0  2  0  0  3  0  0  0  0  0  0
  156.6800  214.0280  147.8480 N   0  0  0  0  0  2  0  0  0  0  0  0
  157.7370  213.6950  148.7450 C   0  0  0  0  0  0  0  0  0  0  0  0
  157.4580  213.4240  149.9850 N   0  0  0  0  0  0  0  0  0  0  0  0
  161.4550  213.9600  148.6980 C   0  0  0  0  0  2  0  0  0  0  0  0
  162.4620  212.9160  148.2380 C   0  0  0  0  0  1  0  0  0  0  0  0
  2  1  1  6  0  0  0
  3  2  1  0  0  0  0
  4  3  1  0  0  0  0
  5 13  1  0  0  0  0
  6 24  1  6  0  0  0
  6  9  1  0  0  0  0
  7 15  1  0  0  0  0
  7  9  1  0  0  0  0
  8 14  1  0  0  0  0
  8 15  2  0  0  0  0
 10 14  2  0  0  0  0
 11 12  1  1  0  0  0
 11  7  1  0  0  0  0
 12  6  1  0  0  0  0
 13  4  1  0  0  0  0
 14  5  1  0  0  0  0
 15 13  1  0  0  0  0
 17 16  1  6  0  0  0
 17 20  1  0  0  0  0
 18 17  1  0  0  0  0
 18 22  1  0  0  0  0
 19 20  1  6  0  0  0
 19 11  1  0  0  0  0
 21 19  1  0  0  0  0
 22 21  1  0  0  0  0
 23 24  1  0  0  0  0
 25  2  1  0  0  0  0
 25 26  1  0  0  0  0
 26 27  1  0  0  0  0
 29 31  1  0  0  0  0
 30 29  2  0  0  0  0
 30 32  1  0  0  0  0
 31 27  1  0  0  0  0
 32 28  1  1  0  0  0
 32 27  1  0  0  0  0
 33 29  1  0  0  0  0
 34 33  1  0  0  0  0
 36 35  1  1  0  0  0
 36 34  1  0  0  0  0
 37 43  1  0  0  0  0
 37 39  1  0  0  0  0
 38 42  1  0  0  0  0
 39 45  1  6  0  0  0
 39 40  1  0  0  0  0
 40 41  1  0  0  0  0
 41 36  1  1  0  0  0
 42 43  1  0  0  0  0
 43 44  2  0  0  0  0
 44 41  1  0  0  0  0
 46 45  1  0  0  0  0
M  END
>  <MODEL>
9

>  <REMARK>
 VINA RESULT:      -6.0      4.409      8.438
  Name = 
  13 active torsions:
  status: ('A' for Active; 'I' for Inactive)
    1  A    between atoms: N_4  and  C_6
    2  A    between atoms: C_6  and  C_34
    3  A    between atoms: C_7  and  O_28
    4  A    between atoms: C_7  and  C_36
    5  A    between atoms: C_11  and  C_16
    6  A    between atoms: C_13  and  C_18
    7  A    between atoms: C_14  and  C_32
    8  A    between atoms: C_26  and  C_27
    9  A    between atoms: C_26  and  O_28
   10  A    between atoms: N_29  and  C_35
   11  A    between atoms: N_29  and  C_39
   12  A    between atoms: C_34  and  C_35
   13  A    between atoms: N_37  and  C_39
                            x       y       z     vdW  Elec       q    Type
                         _______ _______ _______ _____ _____    ______ ____

>  <TORSDO>
F 13

$$$$
