=
 OpenBabel11042421593D

 46 49  0  0  1  0  0  0  0  0999 V2000
  161.6480  208.9150  151.3670 C   0  0  2  0  0  3  0  0  0  0  0  0
  161.9510  207.5190  151.7940 C   0  0  0  0  0  3  0  0  0  0  0  0
  160.9670  206.6770  152.0700 C   0  0  0  0  0  3  0  0  0  0  0  0
  161.2610  205.3470  152.4900 N   0  0  0  0  0  2  0  0  0  0  0  0
  161.0990  204.2110  151.6370 C   0  0  0  0  0  0  0  0  0  0  0  0
  161.3940  202.9350  152.1320 C   0  0  0  0  0  3  0  0  0  0  0  0
  160.8180  201.9550  149.9930 C   0  0  0  0  0  3  0  0  0  0  0  0
  160.5200  203.2270  149.4910 C   0  0  0  0  0  3  0  0  0  0  0  0
  160.6590  204.3510  150.3110 C   0  0  0  0  0  3  0  0  0  0  0  0
  161.2540  201.8100  151.3130 C   0  0  0  0  0  3  0  0  0  0  0  0
  162.3650  209.1890  150.0580 C   0  0  0  0  0  2  0  0  0  0  0  0
  161.5780  208.6050  148.8980 C   0  0  0  0  0  2  0  0  0  0  0  0
  162.2800  207.4540  148.3480 N   0  0  0  0  0  2  0  0  0  0  0  0
  161.6090  206.4050  147.6490 C   0  0  0  0  0  0  0  0  0  0  0  0
  160.3620  206.4440  147.4710 O   0  0  0  0  0  0  0  0  0  0  0  0
  162.3950  205.2770  147.0820 C   0  0  0  0  0  2  0  0  0  0  0  0
  162.8560  205.6190  145.8090 O   0  0  0  0  0  0  0  0  0  0  0  0
  161.1790  205.4250  144.1090 C   0  0  0  0  0  1  0  0  0  0  0  0
  162.2320  204.7150  144.9450 C   0  0  2  0  0  3  0  0  0  0  0  0
  161.6300  203.5420  145.7230 C   0  0  0  0  0  2  0  0  0  0  0  0
  160.3960  202.9440  145.0510 C   0  0  0  0  0  2  0  0  0  0  0  0
  161.1620  201.1490  146.5780 C   0  0  0  0  0  1  0  0  0  0  0  0
  160.0210  200.6400  144.5570 O   0  0  0  0  0  1  0  0  0  0  0  0
  160.0800  201.5630  145.6010 C   0  0  2  0  0  3  0  0  0  0  0  0
  162.1060  209.8350  152.3540 O   0  0  0  0  0  0  0  0  0  0  0  0
  161.6130  209.6690  154.6050 O   0  0  0  0  0  0  0  0  0  0  0  0
  161.3530  210.1790  153.4820 C   0  0  0  0  0  0  0  0  0  0  0  0
  159.3370  213.0800  152.2260 C   0  0  0  0  0  0  0  0  0  0  0  0
  158.2110  213.0770  152.9410 C   0  0  0  0  0  3  0  0  0  0  0  0
  158.0130  212.0770  153.9920 C   0  0  0  0  0  0  0  0  0  0  0  0
  160.2520  211.1390  153.3460 C   0  0  0  0  0  0  0  0  0  0  0  0
  156.9600  212.0960  154.6800 O   0  0  0  0  0  0  0  0  0  0  0  0
  159.0470  211.0220  154.2510 C   0  0  0  0  0  2  0  0  0  0  0  0
  160.3410  212.0780  152.4470 N   0  0  0  0  0  0  0  0  0  0  0  0
  159.9400  213.3960  149.8650 C   0  0  1  0  0  3  0  0  0  0  0  0
  159.5020  214.0580  151.0930 C   0  0  1  0  0  3  0  0  0  0  0  0
  158.5470  213.8480  149.9760 N   0  0  0  0  0  0  0  0  0  0  0  0
  157.8100  212.7250  150.1470 F   0  0  0  0  0  0  0  0  0  0  0  0
  160.6920  214.3400  149.0530 N   0  0  0  0  0  2  0  0  0  0  0  0
  162.2400  212.5220  148.4140 C   0  0  0  0  0  2  0  0  0  0  0  0
  162.8020  213.7990  147.7950 C   0  0  0  0  0  2  0  0  0  0  0  0
  161.3060  213.6150  147.9450 C   0  0  0  0  0  0  0  0  0  0  0  0
  160.0700  211.9550  146.7440 F   0  0  0  0  0  0  0  0  0  0  0  0
  161.2760  213.5150  145.4410 C   0  0  0  0  0  1  0  0  0  0  0  0
  159.3250  214.0760  146.6520 F   0  0  0  0  0  0  0  0  0  0  0  0
  160.4610  213.2830  146.7030 C   0  0  0  0  0  0  0  0  0  0  0  0
  1 11  1  6  0  0  0
  1  2  1  0  0  0  0
  1 25  1  0  0  0  0
  2  3  2  0  0  0  0
  3  4  1  0  0  0  0
  5  6  1  0  0  0  0
  5  4  1  0  0  0  0
  7 10  1  0  0  0  0
  8  7  2  0  0  0  0
  8  9  1  0  0  0  0
  9  5  2  0  0  0  0
 10  6  2  0  0  0  0
 12 11  1  0  0  0  0
 13 12  1  0  0  0  0
 14 13  1  0  0  0  0
 15 14  2  0  0  0  0
 16 14  1  0  0  0  0
 17 16  1  0  0  0  0
 19 18  1  1  0  0  0
 19 20  1  0  0  0  0
 19 17  1  0  0  0  0
 21 24  1  0  0  0  0
 21 20  1  0  0  0  0
 23 24  1  0  0  0  0
 24 22  1  1  0  0  0
 25 27  1  0  0  0  0
 27 26  2  0  0  0  0
 28 34  1  0  0  0  0
 28 29  2  0  0  0  0
 29 30  1  0  0  0  0
 30 33  1  0  0  0  0
 30 32  2  0  0  0  0
 31 27  1  0  0  0  0
 31 33  1  0  0  0  0
 34 31  2  0  0  0  0
 35 39  1  6  0  0  0
 35 37  1  0  0  0  0
 35 36  1  0  0  0  0
 36 28  1  1  0  0  0
 37 38  1  0  0  0  0
 37 36  1  0  0  0  0
 41 42  1  0  0  0  0
 41 40  1  0  0  0  0
 42 40  1  0  0  0  0
 42 39  1  0  0  0  0
 44 46  1  0  0  0  0
 45 46  1  0  0  0  0
 46 43  1  0  0  0  0
 46 42  1  0  0  0  0
M  END
>  <MODEL>
1

>  <REMARK>
 VINA RESULT:      -7.5      0.000      0.000
  Name = 
  19 active torsions:
  status: ('A' for Active; 'I' for Inactive)
    1  A    between atoms: C_2  and  C_22
    2  A    between atoms: C_2  and  O_38
    3  A    between atoms: C_3  and  N_40
    4  A    between atoms: C_7  and  C_21
    5  A    between atoms: C_8  and  C_35
    6  A    between atoms: C_8  and  C_39
    7  A    between atoms: C_12  and  N_17
    8  A    between atoms: C_12  and  C_36
    9  A    between atoms: C_14  and  C_35
   10  A    between atoms: C_14  and  O_38
   11  A    between atoms: C_16  and  N_42
   12  A    between atoms: C_18  and  C_29
   13  A    between atoms: C_18  and  N_42
   14  A    between atoms: O_19  and  C_43
   15  A    between atoms: O_19  and  C_44
   16  A    between atoms: C_24  and  C_44
   17  A    between atoms: C_27  and  C_43
   18  A    between atoms: C_31  and  N_40
   19  A    between atoms: C_36  and  C_44
                            x       y       z     vdW  Elec       q    Type
                         _______ _______ _______ _____ _____    ______ ____

>  <TORSDO>
F 19

$$$$
=
 OpenBabel11042421593D

 46 49  0  0  1  0  0  0  0  0999 V2000
  161.9130  208.0010  149.8560 C   0  0  2  0  0  3  0  0  0  0  0  0
  161.9790  209.4880  149.9370 C   0  0  0  0  0  3  0  0  0  0  0  0
  162.0620  210.2130  148.8320 C   0  0  0  0  0  3  0  0  0  0  0  0
  162.1380  211.6340  148.9140 N   0  0  0  0  0  2  0  0  0  0  0  0
  161.7380  212.4950  147.8440 C   0  0  0  0  0  0  0  0  0  0  0  0
  160.3750  212.7380  147.6350 C   0  0  0  0  0  3  0  0  0  0  0  0
  160.9040  214.1590  145.7450 C   0  0  0  0  0  3  0  0  0  0  0  0
  162.2680  213.9210  145.9490 C   0  0  0  0  0  3  0  0  0  0  0  0
  162.6840  213.0930  146.9960 C   0  0  0  0  0  3  0  0  0  0  0  0
  159.9590  213.5680  146.5880 C   0  0  0  0  0  3  0  0  0  0  0  0
  161.3120  207.6120  148.5190 C   0  0  0  0  0  2  0  0  0  0  0  0
  162.3120  206.8040  147.7110 C   0  0  0  0  0  2  0  0  0  0  0  0
  161.6290  205.7330  146.9980 N   0  0  0  0  0  2  0  0  0  0  0  0
  162.3270  204.7490  146.2340 C   0  0  0  0  0  0  0  0  0  0  0  0
  163.5850  204.7670  146.1560 O   0  0  0  0  0  0  0  0  0  0  0  0
  161.5660  203.6620  145.5620 C   0  0  0  0  0  2  0  0  0  0  0  0
  160.7200  203.0430  146.4830 O   0  0  0  0  0  0  0  0  0  0  0  0
  160.2890  200.9270  145.4460 C   0  0  0  0  0  1  0  0  0  0  0  0
  161.1000  201.6970  146.4740 C   0  0  2  0  0  3  0  0  0  0  0  0
  160.9650  201.0820  147.8690 C   0  0  0  0  0  2  0  0  0  0  0  0
  159.8980  201.7610  148.7250 C   0  0  0  0  0  2  0  0  0  0  0  0
  161.0410  203.5980  149.9320 C   0  0  0  0  0  1  0  0  0  0  0  0
  161.4640  201.3230  150.4720 O   0  0  0  0  0  1  0  0  0  0  0  0
  160.4620  202.2040  150.0640 C   0  0  2  0  0  3  0  0  0  0  0  0
  161.0930  207.4930  150.9050 O   0  0  0  0  0  0  0  0  0  0  0  0
  162.5340  206.2470  152.2110 O   0  0  0  0  0  0  0  0  0  0  0  0
  161.6010  207.0920  152.1450 C   0  0  0  0  0  0  0  0  0  0  0  0
  160.3690  209.6290  154.6150 C   0  0  0  0  0  0  0  0  0  0  0  0
  159.9510  208.9330  155.6730 C   0  0  0  0  0  3  0  0  0  0  0  0
  160.0750  207.4740  155.6860 C   0  0  0  0  0  0  0  0  0  0  0  0
  161.0350  207.6610  153.3730 C   0  0  0  0  0  0  0  0  0  0  0  0
  159.7040  206.8270  156.6990 O   0  0  0  0  0  0  0  0  0  0  0  0
  160.6310  206.7410  154.5020 C   0  0  0  0  0  2  0  0  0  0  0  0
  160.8970  208.9540  153.4640 N   0  0  0  0  0  0  0  0  0  0  0  0
  159.8280  211.6600  155.8870 C   0  0  1  0  0  3  0  0  0  0  0  0
  160.1640  211.1200  154.5710 C   0  0  1  0  0  3  0  0  0  0  0  0
  161.1740  211.8870  155.3430 N   0  0  0  0  0  0  0  0  0  0  0  0
  161.9960  211.0720  156.0470 F   0  0  0  0  0  0  0  0  0  0  0  0
  159.0300  212.8650  155.7230 N   0  0  0  0  0  2  0  0  0  0  0  0
  157.0430  213.2920  157.1300 C   0  0  0  0  0  2  0  0  0  0  0  0
  157.3440  211.8010  157.2570 C   0  0  0  0  0  2  0  0  0  0  0  0
  157.6290  212.5320  155.9610 C   0  0  0  0  0  0  0  0  0  0  0  0
  156.6950  210.9930  154.3850 F   0  0  0  0  0  0  0  0  0  0  0  0
  157.1580  213.1670  153.5830 C   0  0  0  0  0  1  0  0  0  0  0  0
  155.3920  212.6900  155.0800 F   0  0  0  0  0  0  0  0  0  0  0  0
  156.6910  212.3270  154.7600 C   0  0  0  0  0  0  0  0  0  0  0  0
  1 11  1  6  0  0  0
  1  2  1  0  0  0  0
  1 25  1  0  0  0  0
  3  4  1  0  0  0  0
  3  2  2  0  0  0  0
  5  4  1  0  0  0  0
  6  5  1  0  0  0  0
  7  8  2  0  0  0  0
  7 10  1  0  0  0  0
  8  9  1  0  0  0  0
  9  5  2  0  0  0  0
 10  6  2  0  0  0  0
 12 11  1  0  0  0  0
 13 12  1  0  0  0  0
 14 13  1  0  0  0  0
 15 14  2  0  0  0  0
 16 14  1  0  0  0  0
 16 17  1  0  0  0  0
 19 18  1  6  0  0  0
 19 17  1  0  0  0  0
 19 20  1  0  0  0  0
 20 21  1  0  0  0  0
 21 24  1  0  0  0  0
 24 22  1  6  0  0  0
 24 23  1  0  0  0  0
 25 27  1  0  0  0  0
 27 26  2  0  0  0  0
 27 31  1  0  0  0  0
 28 29  2  0  0  0  0
 29 30  1  0  0  0  0
 30 32  2  0  0  0  0
 31 34  2  0  0  0  0
 31 33  1  0  0  0  0
 33 30  1  0  0  0  0
 34 28  1  0  0  0  0
 35 39  1  6  0  0  0
 36 28  1  1  0  0  0
 36 37  1  0  0  0  0
 36 35  1  0  0  0  0
 37 35  1  0  0  0  0
 37 38  1  0  0  0  0
 39 42  1  0  0  0  0
 40 41  1  0  0  0  0
 42 40  1  0  0  0  0
 42 41  1  0  0  0  0
 43 46  1  0  0  0  0
 44 46  1  0  0  0  0
 46 45  1  0  0  0  0
 46 42  1  0  0  0  0
M  END
>  <MODEL>
2

>  <REMARK>
 VINA RESULT:      -7.1      2.879      6.692
  Name = 
  19 active torsions:
  status: ('A' for Active; 'I' for Inactive)
    1  A    between atoms: C_2  and  C_22
    2  A    between atoms: C_2  and  O_38
    3  A    between atoms: C_3  and  N_40
    4  A    between atoms: C_7  and  C_21
    5  A    between atoms: C_8  and  C_35
    6  A    between atoms: C_8  and  C_39
    7  A    between atoms: C_12  and  N_17
    8  A    between atoms: C_12  and  C_36
    9  A    between atoms: C_14  and  C_35
   10  A    between atoms: C_14  and  O_38
   11  A    between atoms: C_16  and  N_42
   12  A    between atoms: C_18  and  C_29
   13  A    between atoms: C_18  and  N_42
   14  A    between atoms: O_19  and  C_43
   15  A    between atoms: O_19  and  C_44
   16  A    between atoms: C_24  and  C_44
   17  A    between atoms: C_27  and  C_43
   18  A    between atoms: C_31  and  N_40
   19  A    between atoms: C_36  and  C_44
                            x       y       z     vdW  Elec       q    Type
                         _______ _______ _______ _____ _____    ______ ____

>  <TORSDO>
F 19

$$$$
=
 OpenBabel11042421593D

 46 49  0  0  1  0  0  0  0  0999 V2000
  161.9490  212.2280  149.0810 C   0  0  2  0  0  3  0  0  0  0  0  0
  161.2210  212.7710  147.8990 C   0  0  0  0  0  3  0  0  0  0  0  0
  161.8490  212.9290  146.7440 C   0  0  0  0  0  3  0  0  0  0  0  0
  161.1530  213.4590  145.6180 N   0  0  0  0  0  2  0  0  0  0  0  0
  161.2470  212.8900  144.3100 C   0  0  0  0  0  0  0  0  0  0  0  0
  160.1460  212.2050  143.7810 C   0  0  0  0  0  3  0  0  0  0  0  0
  161.3910  211.7380  141.7560 C   0  0  0  0  0  3  0  0  0  0  0  0
  162.4950  212.4230  142.2770 C   0  0  0  0  0  3  0  0  0  0  0  0
  162.4220  212.9980  143.5490 C   0  0  0  0  0  3  0  0  0  0  0  0
  160.2180  211.6300  142.5070 C   0  0  0  0  0  3  0  0  0  0  0  0
  162.7030  210.9820  148.6590 C   0  0  0  0  0  2  0  0  0  0  0  0
  161.8560  209.7470  148.9090 C   0  0  0  0  0  2  0  0  0  0  0  0
  162.4160  208.6050  148.2000 N   0  0  0  0  0  2  0  0  0  0  0  0
  161.7160  207.3690  148.0550 C   0  0  0  0  0  0  0  0  0  0  0  0
  160.5610  207.2230  148.5380 O   0  0  0  0  0  0  0  0  0  0  0  0
  162.3350  206.2570  147.2860 C   0  0  0  0  0  2  0  0  0  0  0  0
  161.9300  205.0330  147.8210 O   0  0  0  0  0  0  0  0  0  0  0  0
  161.3640  204.7320  145.5130 C   0  0  0  0  0  1  0  0  0  0  0  0
  162.0020  204.1320  146.7550 C   0  0  2  0  0  3  0  0  0  0  0  0
  161.3560  202.7940  147.1250 C   0  0  0  0  0  2  0  0  0  0  0  0
  160.7140  202.7990  148.5100 C   0  0  0  0  0  2  0  0  0  0  0  0
  161.0830  201.3460  150.4830 C   0  0  0  0  0  1  0  0  0  0  0  0
  161.3020  200.4990  148.2740 O   0  0  0  0  0  1  0  0  0  0  0  0
  160.5690  201.3900  149.0580 C   0  0  2  0  0  3  0  0  0  0  0  0
  161.0210  211.8900  150.1090 O   0  0  0  0  0  0  0  0  0  0  0  0
  159.7930  213.8460  150.0510 O   0  0  0  0  0  0  0  0  0  0  0  0
  160.1530  212.8200  150.6900 C   0  0  0  0  0  0  0  0  0  0  0  0
  159.5240  211.1280  153.9750 C   0  0  0  0  0  0  0  0  0  0  0  0
  158.8130  211.9930  154.7000 C   0  0  0  0  0  3  0  0  0  0  0  0
  158.4220  213.2820  154.1250 C   0  0  0  0  0  0  0  0  0  0  0  0
  159.6670  212.5950  152.0550 C   0  0  0  0  0  0  0  0  0  0  0  0
  157.7280  214.0820  154.8050 O   0  0  0  0  0  0  0  0  0  0  0  0
  158.8460  213.6640  152.7390 C   0  0  0  0  0  2  0  0  0  0  0  0
  159.9510  211.4700  152.6490 N   0  0  0  0  0  0  0  0  0  0  0  0
  161.2090  209.3400  153.9570 C   0  0  1  0  0  3  0  0  0  0  0  0
  159.9940  209.8400  154.5970 C   0  0  1  0  0  3  0  0  0  0  0  0
  161.3020  209.9500  155.2900 N   0  0  0  0  0  0  0  0  0  0  0  0
  161.8730  211.1640  155.0980 F   0  0  0  0  0  0  0  0  0  0  0  0
  161.2580  207.8920  154.0830 N   0  0  0  0  0  2  0  0  0  0  0  0
  162.1590  208.2340  151.8070 C   0  0  0  0  0  2  0  0  0  0  0  0
  160.6580  208.0090  151.6430 C   0  0  0  0  0  2  0  0  0  0  0  0
  161.4200  207.3140  152.7530 C   0  0  0  0  0  0  0  0  0  0  0  0
  163.1140  205.6460  152.4830 F   0  0  0  0  0  0  0  0  0  0  0  0
  161.0580  205.2420  151.3900 C   0  0  0  0  0  1  0  0  0  0  0  0
  161.3230  205.1160  153.7360 F   0  0  0  0  0  0  0  0  0  0  0  0
  161.7460  205.8170  152.6170 C   0  0  0  0  0  0  0  0  0  0  0  0
  1  2  1  6  0  0  0
  1 25  1  0  0  0  0
  3  2  2  0  0  0  0
  4  3  1  0  0  0  0
  5  4  1  0  0  0  0
  6  5  1  0  0  0  0
  7  8  2  0  0  0  0
  7 10  1  0  0  0  0
  8  9  1  0  0  0  0
  9  5  2  0  0  0  0
 10  6  2  0  0  0  0
 11 12  1  0  0  0  0
 11  1  1  0  0  0  0
 13 12  1  0  0  0  0
 14 13  1  0  0  0  0
 14 15  2  0  0  0  0
 16 17  1  0  0  0  0
 16 14  1  0  0  0  0
 19 18  1  6  0  0  0
 19 20  1  0  0  0  0
 19 17  1  0  0  0  0
 20 21  1  0  0  0  0
 21 24  1  0  0  0  0
 23 24  1  0  0  0  0
 24 22  1  1  0  0  0
 25 27  1  0  0  0  0
 26 27  2  0  0  0  0
 27 31  1  0  0  0  0
 28 29  2  0  0  0  0
 30 29  1  0  0  0  0
 30 32  2  0  0  0  0
 31 34  2  0  0  0  0
 31 33  1  0  0  0  0
 33 30  1  0  0  0  0
 34 28  1  0  0  0  0
 35 39  1  1  0  0  0
 35 36  1  0  0  0  0
 35 37  1  0  0  0  0
 36 28  1  6  0  0  0
 36 37  1  0  0  0  0
 38 37  1  0  0  0  0
 40 42  1  0  0  0  0
 41 40  1  0  0  0  0
 41 42  1  0  0  0  0
 42 39  1  0  0  0  0
 43 46  1  0  0  0  0
 44 46  1  0  0  0  0
 46 42  1  0  0  0  0
 46 45  1  0  0  0  0
M  END
>  <MODEL>
3

>  <REMARK>
 VINA RESULT:      -6.6      2.938      6.751
  Name = 
  19 active torsions:
  status: ('A' for Active; 'I' for Inactive)
    1  A    between atoms: C_2  and  C_22
    2  A    between atoms: C_2  and  O_38
    3  A    between atoms: C_3  and  N_40
    4  A    between atoms: C_7  and  C_21
    5  A    between atoms: C_8  and  C_35
    6  A    between atoms: C_8  and  C_39
    7  A    between atoms: C_12  and  N_17
    8  A    between atoms: C_12  and  C_36
    9  A    between atoms: C_14  and  C_35
   10  A    between atoms: C_14  and  O_38
   11  A    between atoms: C_16  and  N_42
   12  A    between atoms: C_18  and  C_29
   13  A    between atoms: C_18  and  N_42
   14  A    between atoms: O_19  and  C_43
   15  A    between atoms: O_19  and  C_44
   16  A    between atoms: C_24  and  C_44
   17  A    between atoms: C_27  and  C_43
   18  A    between atoms: C_31  and  N_40
   19  A    between atoms: C_36  and  C_44
                            x       y       z     vdW  Elec       q    Type
                         _______ _______ _______ _____ _____    ______ ____

>  <TORSDO>
F 19

$$$$
=
 OpenBabel11042421593D

 46 49  0  0  1  0  0  0  0  0999 V2000
  162.0870  211.1600  149.7310 C   0  0  2  0  0  3  0  0  0  0  0  0
  161.5080  212.4240  149.1940 C   0  0  0  0  0  3  0  0  0  0  0  0
  161.8030  212.8260  147.9670 C   0  0  0  0  0  3  0  0  0  0  0  0
  161.2570  214.0410  147.4620 N   0  0  0  0  0  2  0  0  0  0  0  0
  160.2730  214.0770  146.4250 C   0  0  0  0  0  0  0  0  0  0  0  0
  158.9200  213.9390  146.7600 C   0  0  0  0  0  3  0  0  0  0  0  0
  158.3070  214.1190  144.4240 C   0  0  0  0  0  3  0  0  0  0  0  0
  159.6570  214.2590  144.0800 C   0  0  0  0  0  3  0  0  0  0  0  0
  160.6360  214.2400  145.0780 C   0  0  0  0  0  3  0  0  0  0  0  0
  157.9400  213.9600  145.7620 C   0  0  0  0  0  3  0  0  0  0  0  0
  162.0310  210.1000  148.6470 C   0  0  0  0  0  2  0  0  0  0  0  0
  162.0640  208.7140  149.2680 C   0  0  0  0  0  2  0  0  0  0  0  0
  162.5280  207.7400  148.2910 N   0  0  0  0  0  2  0  0  0  0  0  0
  161.6890  206.7050  147.7770 C   0  0  0  0  0  0  0  0  0  0  0  0
  160.4900  206.6020  148.1520 O   0  0  0  0  0  0  0  0  0  0  0  0
  162.2200  205.7670  146.7520 C   0  0  0  0  0  2  0  0  0  0  0  0
  162.1760  204.4620  147.2440 O   0  0  0  0  0  0  0  0  0  0  0  0
  161.4330  204.4910  144.9670 C   0  0  0  0  0  1  0  0  0  0  0  0
  161.9750  203.6590  146.1170 C   0  0  2  0  0  3  0  0  0  0  0  0
  161.0500  202.4830  146.4420 C   0  0  0  0  0  2  0  0  0  0  0  0
  160.6490  202.4220  147.9140 C   0  0  0  0  0  2  0  0  0  0  0  0
  161.1890  201.0280  149.8900 C   0  0  0  0  0  1  0  0  0  0  0  0
  161.6170  200.2520  147.6850 O   0  0  0  0  0  1  0  0  0  0  0  0
  160.7210  201.0020  148.4490 C   0  0  2  0  0  3  0  0  0  0  0  0
  161.3330  210.7210  150.8570 O   0  0  0  0  0  0  0  0  0  0  0  0
  160.1960  212.7030  151.1960 O   0  0  0  0  0  0  0  0  0  0  0  0
  160.5640  211.5850  151.6450 C   0  0  0  0  0  0  0  0  0  0  0  0
  159.9600  209.4040  154.6340 C   0  0  0  0  0  0  0  0  0  0  0  0
  159.5250  210.2180  155.5960 C   0  0  0  0  0  3  0  0  0  0  0  0
  159.3480  211.6460  155.3230 C   0  0  0  0  0  0  0  0  0  0  0  0
  160.1930  211.1790  153.0050 C   0  0  0  0  0  0  0  0  0  0  0  0
  158.9120  212.4030  156.2290 O   0  0  0  0  0  0  0  0  0  0  0  0
  159.6890  212.2180  153.9800 C   0  0  0  0  0  2  0  0  0  0  0  0
  160.3020  209.9240  153.3410 N   0  0  0  0  0  0  0  0  0  0  0  0
  161.3780  207.4420  154.2110 C   0  0  1  0  0  3  0  0  0  0  0  0
  160.2190  207.9530  154.9420 C   0  0  1  0  0  3  0  0  0  0  0  0
  161.5000  207.7090  155.6510 N   0  0  0  0  0  0  0  0  0  0  0  0
  162.2420  208.8370  155.7530 F   0  0  0  0  0  0  0  0  0  0  0  0
  161.2180  206.0120  153.9970 N   0  0  0  0  0  2  0  0  0  0  0  0
  162.5090  206.4900  151.9430 C   0  0  0  0  0  2  0  0  0  0  0  0
  161.0710  206.9070  151.6510 C   0  0  0  0  0  2  0  0  0  0  0  0
  161.3560  205.7380  152.5700 C   0  0  0  0  0  0  0  0  0  0  0  0
  162.3590  203.6880  151.8510 F   0  0  0  0  0  0  0  0  0  0  0  0
  160.3780  204.3360  150.7370 C   0  0  0  0  0  1  0  0  0  0  0  0
  160.4110  203.5570  152.9680 F   0  0  0  0  0  0  0  0  0  0  0  0
  161.1360  204.3050  152.0540 C   0  0  0  0  0  0  0  0  0  0  0  0
  1 11  1  6  0  0  0
  1 25  1  0  0  0  0
  2  1  1  0  0  0  0
  3  2  2  0  0  0  0
  4  3  1  0  0  0  0
  5  6  1  0  0  0  0
  5  4  1  0  0  0  0
  7 10  1  0  0  0  0
  8  7  2  0  0  0  0
  8  9  1  0  0  0  0
  9  5  2  0  0  0  0
 10  6  2  0  0  0  0
 11 12  1  0  0  0  0
 13 12  1  0  0  0  0
 14 15  2  0  0  0  0
 14 13  1  0  0  0  0
 16 17  1  0  0  0  0
 16 14  1  0  0  0  0
 19 18  1  6  0  0  0
 19 20  1  0  0  0  0
 19 17  1  0  0  0  0
 20 21  1  0  0  0  0
 21 24  1  0  0  0  0
 23 24  1  0  0  0  0
 24 22  1  1  0  0  0
 25 27  1  0  0  0  0
 26 27  2  0  0  0  0
 27 31  1  0  0  0  0
 28 29  2  0  0  0  0
 30 29  1  0  0  0  0
 30 32  2  0  0  0  0
 31 34  2  0  0  0  0
 31 33  1  0  0  0  0
 33 30  1  0  0  0  0
 34 28  1  0  0  0  0
 35 39  1  1  0  0  0
 35 36  1  0  0  0  0
 35 37  1  0  0  0  0
 36 28  1  6  0  0  0
 36 37  1  0  0  0  0
 37 38  1  0  0  0  0
 40 42  1  0  0  0  0
 41 40  1  0  0  0  0
 41 42  1  0  0  0  0
 42 39  1  0  0  0  0
 43 46  1  0  0  0  0
 44 46  1  0  0  0  0
 46 42  1  0  0  0  0
 46 45  1  0  0  0  0
M  END
>  <MODEL>
4

>  <REMARK>
 VINA RESULT:      -6.4      2.979      7.055
  Name = 
  19 active torsions:
  status: ('A' for Active; 'I' for Inactive)
    1  A    between atoms: C_2  and  C_22
    2  A    between atoms: C_2  and  O_38
    3  A    between atoms: C_3  and  N_40
    4  A    between atoms: C_7  and  C_21
    5  A    between atoms: C_8  and  C_35
    6  A    between atoms: C_8  and  C_39
    7  A    between atoms: C_12  and  N_17
    8  A    between atoms: C_12  and  C_36
    9  A    between atoms: C_14  and  C_35
   10  A    between atoms: C_14  and  O_38
   11  A    between atoms: C_16  and  N_42
   12  A    between atoms: C_18  and  C_29
   13  A    between atoms: C_18  and  N_42
   14  A    between atoms: O_19  and  C_43
   15  A    between atoms: O_19  and  C_44
   16  A    between atoms: C_24  and  C_44
   17  A    between atoms: C_27  and  C_43
   18  A    between atoms: C_31  and  N_40
   19  A    between atoms: C_36  and  C_44
                            x       y       z     vdW  Elec       q    Type
                         _______ _______ _______ _____ _____    ______ ____

>  <TORSDO>
F 19

$$$$
=
 OpenBabel11042421593D

 46 49  0  0  1  0  0  0  0  0999 V2000
  161.8770  209.9390  153.6140 C   0  0  2  0  0  3  0  0  0  0  0  0
  161.1990  210.7320  154.6780 C   0  0  0  0  0  3  0  0  0  0  0  0
  160.1280  211.4570  154.3910 C   0  0  0  0  0  3  0  0  0  0  0  0
  159.4900  212.2240  155.4090 N   0  0  0  0  0  2  0  0  0  0  0  0
  158.1440  212.6920  155.2980 C   0  0  0  0  0  0  0  0  0  0  0  0
  157.6500  213.0650  154.0410 C   0  0  0  0  0  3  0  0  0  0  0  0
  155.5150  213.6360  155.0320 C   0  0  0  0  0  3  0  0  0  0  0  0
  156.0000  213.2640  156.2910 C   0  0  0  0  0  3  0  0  0  0  0  0
  157.3100  212.7920  156.4230 C   0  0  0  0  0  3  0  0  0  0  0  0
  156.3390  213.5350  153.9090 C   0  0  0  0  0  3  0  0  0  0  0  0
  161.0200  209.9710  152.3630 C   0  0  0  0  0  2  0  0  0  0  0  0
  161.8930  210.1670  151.1360 C   0  0  0  0  0  2  0  0  0  0  0  0
  161.5440  211.4130  150.4690 N   0  0  0  0  0  2  0  0  0  0  0  0
  161.7810  211.6350  149.0780 C   0  0  0  0  0  0  0  0  0  0  0  0
  162.3020  210.7390  148.3620 O   0  0  0  0  0  0  0  0  0  0  0  0
  161.3660  212.9210  148.4570 C   0  0  0  0  0  2  0  0  0  0  0  0
  162.4820  213.5670  147.9240 O   0  0  0  0  0  0  0  0  0  0  0  0
  160.5320  214.1320  146.6520 C   0  0  0  0  0  1  0  0  0  0  0  0
  162.0500  214.0790  146.6960 C   0  0  2  0  0  3  0  0  0  0  0  0
  162.6160  213.2610  145.5330 C   0  0  0  0  0  2  0  0  0  0  0  0
  161.6530  213.1460  144.3530 C   0  0  0  0  0  2  0  0  0  0  0  0
  162.7910  213.8190  142.2580 C   0  0  0  0  0  1  0  0  0  0  0  0
  161.5000  211.8270  142.3700 O   0  0  0  0  0  1  0  0  0  0  0  0
  162.3610  212.6410  143.1080 C   0  0  2  0  0  3  0  0  0  0  0  0
  162.0340  208.5880  154.0410 O   0  0  0  0  0  0  0  0  0  0  0  0
  160.0440  207.5770  154.6350 O   0  0  0  0  0  0  0  0  0  0  0  0
  161.0450  207.6140  153.8700 C   0  0  0  0  0  0  0  0  0  0  0  0
  161.4720  206.1910  150.4280 C   0  0  0  0  0  0  0  0  0  0  0  0
  161.4750  204.8660  150.5800 C   0  0  0  0  0  3  0  0  0  0  0  0
  161.2910  204.2810  151.9100 C   0  0  0  0  0  0  0  0  0  0  0  0
  161.1840  206.6300  152.7910 C   0  0  0  0  0  0  0  0  0  0  0  0
  161.2680  203.0300  152.0420 O   0  0  0  0  0  0  0  0  0  0  0  0
  161.1400  205.1560  153.1190 C   0  0  0  0  0  2  0  0  0  0  0  0
  161.3380  207.0530  151.5680 N   0  0  0  0  0  0  0  0  0  0  0  0
  161.4950  205.8300  147.9970 C   0  0  1  0  0  3  0  0  0  0  0  0
  161.7430  206.7890  149.0730 C   0  0  1  0  0  3  0  0  0  0  0  0
  160.5340  206.9190  148.2220 N   0  0  0  0  0  0  0  0  0  0  0  0
  159.4510  206.3390  148.7920 F   0  0  0  0  0  0  0  0  0  0  0  0
  162.3400  206.1580  146.8580 N   0  0  0  0  0  2  0  0  0  0  0  0
  162.1330  203.7490  146.3440 C   0  0  0  0  0  2  0  0  0  0  0  0
  163.2950  204.2680  145.5010 C   0  0  0  0  0  2  0  0  0  0  0  0
  162.1150  205.1650  145.8130 C   0  0  0  0  0  0  0  0  0  0  0  0
  160.2740  206.5130  145.0940 F   0  0  0  0  0  0  0  0  0  0  0  0
  160.2020  204.2290  144.4910 C   0  0  0  0  0  1  0  0  0  0  0  0
  161.7010  205.7760  143.5190 F   0  0  0  0  0  0  0  0  0  0  0  0
  161.0780  205.4510  144.7130 C   0  0  0  0  0  0  0  0  0  0  0  0
  1 11  1  6  0  0  0
  1 25  1  0  0  0  0
  1  2  1  0  0  0  0
  3  2  2  0  0  0  0
  3  4  1  0  0  0  0
  5  4  1  0  0  0  0
  5  9  1  0  0  0  0
  6  5  2  0  0  0  0
  7  8  1  0  0  0  0
  8  9  2  0  0  0  0
 10  6  1  0  0  0  0
 10  7  2  0  0  0  0
 12 11  1  0  0  0  0
 13 12  1  0  0  0  0
 14 13  1  0  0  0  0
 15 14  2  0  0  0  0
 16 14  1  0  0  0  0
 17 16  1  0  0  0  0
 19 18  1  1  0  0  0
 19 17  1  0  0  0  0
 20 19  1  0  0  0  0
 21 20  1  0  0  0  0
 23 24  1  0  0  0  0
 24 22  1  6  0  0  0
 24 21  1  0  0  0  0
 27 25  1  0  0  0  0
 27 26  2  0  0  0  0
 28 29  2  0  0  0  0
 28 34  1  0  0  0  0
 29 30  1  0  0  0  0
 30 32  2  0  0  0  0
 30 33  1  0  0  0  0
 31 33  1  0  0  0  0
 31 27  1  0  0  0  0
 34 31  2  0  0  0  0
 35 39  1  6  0  0  0
 35 37  1  0  0  0  0
 35 36  1  0  0  0  0
 36 28  1  1  0  0  0
 37 38  1  0  0  0  0
 37 36  1  0  0  0  0
 41 42  1  0  0  0  0
 41 40  1  0  0  0  0
 42 40  1  0  0  0  0
 42 39  1  0  0  0  0
 44 46  1  0  0  0  0
 45 46  1  0  0  0  0
 46 43  1  0  0  0  0
 46 42  1  0  0  0  0
M  END
>  <MODEL>
5

>  <REMARK>
 VINA RESULT:      -6.3      3.030      8.429
  Name = 
  19 active torsions:
  status: ('A' for Active; 'I' for Inactive)
    1  A    between atoms: C_2  and  C_22
    2  A    between atoms: C_2  and  O_38
    3  A    between atoms: C_3  and  N_40
    4  A    between atoms: C_7  and  C_21
    5  A    between atoms: C_8  and  C_35
    6  A    between atoms: C_8  and  C_39
    7  A    between atoms: C_12  and  N_17
    8  A    between atoms: C_12  and  C_36
    9  A    between atoms: C_14  and  C_35
   10  A    between atoms: C_14  and  O_38
   11  A    between atoms: C_16  and  N_42
   12  A    between atoms: C_18  and  C_29
   13  A    between atoms: C_18  and  N_42
   14  A    between atoms: O_19  and  C_43
   15  A    between atoms: O_19  and  C_44
   16  A    between atoms: C_24  and  C_44
   17  A    between atoms: C_27  and  C_43
   18  A    between atoms: C_31  and  N_40
   19  A    between atoms: C_36  and  C_44
                            x       y       z     vdW  Elec       q    Type
                         _______ _______ _______ _____ _____    ______ ____

>  <TORSDO>
F 19

$$$$
=
 OpenBabel11042421593D

 46 49  0  0  1  0  0  0  0  0999 V2000
  162.0080  208.5440  149.1060 C   0  0  2  0  0  3  0  0  0  0  0  0
  161.9690  209.9390  148.5840 C   0  0  0  0  0  3  0  0  0  0  0  0
  162.0250  210.9660  149.4180 C   0  0  0  0  0  3  0  0  0  0  0  0
  161.9750  212.2990  148.9150 N   0  0  0  0  0  2  0  0  0  0  0  0
  161.7060  212.6000  147.5430 C   0  0  0  0  0  0  0  0  0  0  0  0
  162.7550  213.0250  146.7180 C   0  0  0  0  0  3  0  0  0  0  0  0
  161.2240  213.2230  144.8500 C   0  0  0  0  0  3  0  0  0  0  0  0
  160.1710  212.7970  145.6680 C   0  0  0  0  0  3  0  0  0  0  0  0
  160.4120  212.4860  147.0100 C   0  0  0  0  0  3  0  0  0  0  0  0
  162.5140  213.3350  145.3750 C   0  0  0  0  0  3  0  0  0  0  0  0
  161.3050  207.6340  148.1150 C   0  0  0  0  0  2  0  0  0  0  0  0
  162.2710  206.5850  147.5920 C   0  0  0  0  0  2  0  0  0  0  0  0
  162.1310  205.3540  148.3560 N   0  0  0  0  0  2  0  0  0  0  0  0
  160.9460  205.0280  149.0830 C   0  0  0  0  0  0  0  0  0  0  0  0
  159.9550  205.8060  149.0810 O   0  0  0  0  0  0  0  0  0  0  0  0
  160.8610  203.7350  149.8120 C   0  0  0  0  0  2  0  0  0  0  0  0
  161.6070  202.7660  149.1390 O   0  0  0  0  0  0  0  0  0  0  0  0
  159.7700  201.4180  149.8780 C   0  0  0  0  0  1  0  0  0  0  0  0
  160.6710  201.8160  148.7200 C   0  0  2  0  0  3  0  0  0  0  0  0
  161.3650  200.5970  148.1070 C   0  0  0  0  0  2  0  0  0  0  0  0
  161.3510  200.6010  146.5810 C   0  0  0  0  0  2  0  0  0  0  0  0
  159.7240  201.2910  144.8430 C   0  0  0  0  0  1  0  0  0  0  0  0
  161.3780  202.7970  145.6460 O   0  0  0  0  0  1  0  0  0  0  0  0
  160.5310  201.7590  146.0370 C   0  0  2  0  0  3  0  0  0  0  0  0
  161.3390  208.4760  150.3620 O   0  0  0  0  0  0  0  0  0  0  0  0
  162.7820  206.9560  151.3340 O   0  0  0  0  0  0  0  0  0  0  0  0
  161.8720  207.8170  151.4750 C   0  0  0  0  0  0  0  0  0  0  0  0
  160.8380  209.8140  154.4750 C   0  0  0  0  0  0  0  0  0  0  0  0
  160.3860  208.9290  155.3630 C   0  0  0  0  0  3  0  0  0  0  0  0
  160.4130  207.4980  155.0500 C   0  0  0  0  0  0  0  0  0  0  0  0
  161.3580  208.1340  152.8120 C   0  0  0  0  0  0  0  0  0  0  0  0
  160.0100  206.6670  155.9040 O   0  0  0  0  0  0  0  0  0  0  0  0
  160.9060  207.0130  153.7200 C   0  0  0  0  0  2  0  0  0  0  0  0
  161.3080  209.3800  153.1900 N   0  0  0  0  0  0  0  0  0  0  0  0
  159.9810  211.5450  155.9930 C   0  0  1  0  0  3  0  0  0  0  0  0
  160.7330  211.2880  154.7670 C   0  0  1  0  0  3  0  0  0  0  0  0
  161.4410  211.7070  156.0030 N   0  0  0  0  0  0  0  0  0  0  0  0
  161.9220  210.6440  156.6920 F   0  0  0  0  0  0  0  0  0  0  0  0
  159.3500  212.8530  155.9050 N   0  0  0  0  0  2  0  0  0  0  0  0
  157.1220  213.3420  156.8570 C   0  0  0  0  0  2  0  0  0  0  0  0
  157.2490  211.8210  156.8260 C   0  0  0  0  0  2  0  0  0  0  0  0
  157.9100  212.6670  155.7570 C   0  0  0  0  0  0  0  0  0  0  0  0
  157.5990  213.9360  153.7530 F   0  0  0  0  0  0  0  0  0  0  0  0
  155.7720  212.6100  154.4510 C   0  0  0  0  0  1  0  0  0  0  0  0
  157.7610  211.7010  153.5540 F   0  0  0  0  0  0  0  0  0  0  0  0
  157.2840  212.7280  154.3530 C   0  0  0  0  0  0  0  0  0  0  0  0
  1 11  1  6  0  0  0
  1 25  1  0  0  0  0
  2  1  1  0  0  0  0
  2  3  2  0  0  0  0
  4  3  1  0  0  0  0
  5  4  1  0  0  0  0
  6  5  2  0  0  0  0
  7 10  2  0  0  0  0
  7  8  1  0  0  0  0
  8  9  2  0  0  0  0
  9  5  1  0  0  0  0
 10  6  1  0  0  0  0
 12 11  1  0  0  0  0
 12 13  1  0  0  0  0
 13 14  1  0  0  0  0
 14 16  1  0  0  0  0
 15 14  2  0  0  0  0
 17 16  1  0  0  0  0
 19 17  1  0  0  0  0
 19 18  1  1  0  0  0
 20 19  1  0  0  0  0
 21 20  1  0  0  0  0
 23 24  1  0  0  0  0
 24 22  1  6  0  0  0
 24 21  1  0  0  0  0
 25 27  1  0  0  0  0
 26 27  2  0  0  0  0
 27 31  1  0  0  0  0
 28 29  2  0  0  0  0
 30 29  1  0  0  0  0
 30 32  2  0  0  0  0
 31 34  2  0  0  0  0
 31 33  1  0  0  0  0
 33 30  1  0  0  0  0
 34 28  1  0  0  0  0
 35 39  1  6  0  0  0
 35 37  1  0  0  0  0
 36 28  1  1  0  0  0
 36 35  1  0  0  0  0
 36 37  1  0  0  0  0
 37 38  1  0  0  0  0
 41 40  1  0  0  0  0
 42 39  1  0  0  0  0
 42 41  1  0  0  0  0
 42 40  1  0  0  0  0
 43 46  1  0  0  0  0
 45 46  1  0  0  0  0
 46 44  1  0  0  0  0
 46 42  1  0  0  0  0
M  END
>  <MODEL>
6

>  <REMARK>
 VINA RESULT:      -6.0      2.794      6.609
  Name = 
  19 active torsions:
  status: ('A' for Active; 'I' for Inactive)
    1  A    between atoms: C_2  and  C_22
    2  A    between atoms: C_2  and  O_38
    3  A    between atoms: C_3  and  N_40
    4  A    between atoms: C_7  and  C_21
    5  A    between atoms: C_8  and  C_35
    6  A    between atoms: C_8  and  C_39
    7  A    between atoms: C_12  and  N_17
    8  A    between atoms: C_12  and  C_36
    9  A    between atoms: C_14  and  C_35
   10  A    between atoms: C_14  and  O_38
   11  A    between atoms: C_16  and  N_42
   12  A    between atoms: C_18  and  C_29
   13  A    between atoms: C_18  and  N_42
   14  A    between atoms: O_19  and  C_43
   15  A    between atoms: O_19  and  C_44
   16  A    between atoms: C_24  and  C_44
   17  A    between atoms: C_27  and  C_43
   18  A    between atoms: C_31  and  N_40
   19  A    between atoms: C_36  and  C_44
                            x       y       z     vdW  Elec       q    Type
                         _______ _______ _______ _____ _____    ______ ____

>  <TORSDO>
F 19

$$$$
=
 OpenBabel11042421593D

 46 49  0  0  1  0  0  0  0  0999 V2000
  162.3440  208.6260  148.9560 C   0  0  2  0  0  3  0  0  0  0  0  0
  161.7130  209.9070  148.5280 C   0  0  0  0  0  3  0  0  0  0  0  0
  162.3580  211.0530  148.6840 C   0  0  0  0  0  3  0  0  0  0  0  0
  161.7460  212.2770  148.2840 N   0  0  0  0  0  2  0  0  0  0  0  0
  161.4590  212.5900  146.9180 C   0  0  0  0  0  0  0  0  0  0  0  0
  160.1500  212.4380  146.4420 C   0  0  0  0  0  3  0  0  0  0  0  0
  160.8510  213.1710  144.2420 C   0  0  0  0  0  3  0  0  0  0  0  0
  162.1600  213.3270  144.7100 C   0  0  0  0  0  3  0  0  0  0  0  0
  162.4630  213.0380  146.0450 C   0  0  0  0  0  3  0  0  0  0  0  0
  159.8470  212.7280  145.1070 C   0  0  0  0  0  3  0  0  0  0  0  0
  161.3640  207.4940  148.7060 C   0  0  0  0  0  2  0  0  0  0  0  0
  161.1380  207.3180  147.2150 C   0  0  0  0  0  2  0  0  0  0  0  0
  161.6490  206.0250  146.7820 N   0  0  0  0  0  2  0  0  0  0  0  0
  161.1740  205.3630  145.6090 C   0  0  0  0  0  0  0  0  0  0  0  0
  160.2850  205.8900  144.8880 O   0  0  0  0  0  0  0  0  0  0  0  0
  161.7680  204.0600  145.2080 C   0  0  0  0  0  2  0  0  0  0  0  0
  160.7530  203.1760  144.8370 O   0  0  0  0  0  0  0  0  0  0  0  0
  160.0870  200.9000  145.1790 C   0  0  0  0  0  1  0  0  0  0  0  0
  160.9070  202.0750  145.6860 C   0  0  2  0  0  3  0  0  0  0  0  0
  160.5330  202.4390  147.1250 C   0  0  0  0  0  2  0  0  0  0  0  0
  160.8600  201.3360  148.1290 C   0  0  0  0  0  2  0  0  0  0  0  0
  161.2060  200.9720  150.5550 C   0  0  0  0  0  1  0  0  0  0  0  0
  159.0290  201.2940  149.6580 O   0  0  0  0  0  1  0  0  0  0  0  0
  160.3610  201.6870  149.5200 C   0  0  2  0  0  3  0  0  0  0  0  0
  162.6550  208.6780  150.3460 O   0  0  0  0  0  0  0  0  0  0  0  0
  160.9870  209.8920  151.3870 O   0  0  0  0  0  0  0  0  0  0  0  0
  161.6840  208.8420  151.3390 C   0  0  0  0  0  0  0  0  0  0  0  0
  161.2030  207.1580  154.6540 C   0  0  0  0  0  0  0  0  0  0  0  0
  161.0920  205.8560  154.3880 C   0  0  0  0  0  3  0  0  0  0  0  0
  161.2060  205.3780  153.0090 C   0  0  0  0  0  0  0  0  0  0  0  0
  161.4850  207.7810  152.3320 C   0  0  0  0  0  0  0  0  0  0  0  0
  161.1260  204.1460  152.7690 O   0  0  0  0  0  0  0  0  0  0  0  0
  161.4050  206.3420  151.8770 C   0  0  0  0  0  2  0  0  0  0  0  0
  161.3870  208.1040  153.5910 N   0  0  0  0  0  0  0  0  0  0  0  0
  159.9820  208.6970  156.1310 C   0  0  1  0  0  3  0  0  0  0  0  0
  161.0040  207.6540  156.0620 C   0  0  1  0  0  3  0  0  0  0  0  0
  159.6640  207.3490  156.6220 N   0  0  0  0  0  0  0  0  0  0  0  0
  158.8410  206.8050  155.6930 F   0  0  0  0  0  0  0  0  0  0  0  0
  160.2610  209.5700  157.2600 N   0  0  0  0  0  2  0  0  0  0  0  0
  161.6210  211.0780  155.8500 C   0  0  0  0  0  2  0  0  0  0  0  0
  161.6570  211.6620  157.2590 C   0  0  0  0  0  2  0  0  0  0  0  0
  160.4250  210.9330  156.7650 C   0  0  0  0  0  0  0  0  0  0  0  0
  158.8940  211.5380  155.0290 F   0  0  0  0  0  0  0  0  0  0  0  0
  159.4300  213.2270  156.5930 C   0  0  0  0  0  1  0  0  0  0  0  0
  158.0800  211.3600  157.1180 F   0  0  0  0  0  0  0  0  0  0  0  0
  159.1800  211.7450  156.3680 C   0  0  0  0  0  0  0  0  0  0  0  0
  1  2  1  1  0  0  0
  1 25  1  0  0  0  0
  2  3  2  0  0  0  0
  4  3  1  0  0  0  0
  5  4  1  0  0  0  0
  6  5  1  0  0  0  0
  7  8  2  0  0  0  0
  7 10  1  0  0  0  0
  8  9  1  0  0  0  0
  9  5  2  0  0  0  0
 10  6  2  0  0  0  0
 11  1  1  0  0  0  0
 12 11  1  0  0  0  0
 13 12  1  0  0  0  0
 14 13  1  0  0  0  0
 15 14  2  0  0  0  0
 16 14  1  0  0  0  0
 17 16  1  0  0  0  0
 17 19  1  0  0  0  0
 19 18  1  6  0  0  0
 19 20  1  0  0  0  0
 20 21  1  0  0  0  0
 21 24  1  0  0  0  0
 24 23  1  0  0  0  0
 24 22  1  1  0  0  0
 25 27  1  0  0  0  0
 27 26  2  0  0  0  0
 27 31  1  0  0  0  0
 29 28  2  0  0  0  0
 30 29  1  0  0  0  0
 31 34  2  0  0  0  0
 32 30  2  0  0  0  0
 33 31  1  0  0  0  0
 33 30  1  0  0  0  0
 34 28  1  0  0  0  0
 35 37  1  0  0  0  0
 35 39  1  1  0  0  0
 36 28  1  6  0  0  0
 36 35  1  0  0  0  0
 36 37  1  0  0  0  0
 38 37  1  0  0  0  0
 40 42  1  0  0  0  0
 40 41  1  0  0  0  0
 42 41  1  0  0  0  0
 42 39  1  0  0  0  0
 43 46  1  0  0  0  0
 46 44  1  0  0  0  0
 46 42  1  0  0  0  0
 46 45  1  0  0  0  0
M  END
>  <MODEL>
7

>  <REMARK>
 VINA RESULT:      -5.8      3.073      7.216
  Name = 
  19 active torsions:
  status: ('A' for Active; 'I' for Inactive)
    1  A    between atoms: C_2  and  C_22
    2  A    between atoms: C_2  and  O_38
    3  A    between atoms: C_3  and  N_40
    4  A    between atoms: C_7  and  C_21
    5  A    between atoms: C_8  and  C_35
    6  A    between atoms: C_8  and  C_39
    7  A    between atoms: C_12  and  N_17
    8  A    between atoms: C_12  and  C_36
    9  A    between atoms: C_14  and  C_35
   10  A    between atoms: C_14  and  O_38
   11  A    between atoms: C_16  and  N_42
   12  A    between atoms: C_18  and  C_29
   13  A    between atoms: C_18  and  N_42
   14  A    between atoms: O_19  and  C_43
   15  A    between atoms: O_19  and  C_44
   16  A    between atoms: C_24  and  C_44
   17  A    between atoms: C_27  and  C_43
   18  A    between atoms: C_31  and  N_40
   19  A    between atoms: C_36  and  C_44
                            x       y       z     vdW  Elec       q    Type
                         _______ _______ _______ _____ _____    ______ ____

>  <TORSDO>
F 19

$$$$
=
 OpenBabel11042421593D

 46 49  0  0  1  0  0  0  0  0999 V2000
  160.8470  208.9850  151.6710 C   0  0  2  0  0  3  0  0  0  0  0  0
  161.5560  210.1900  151.1550 C   0  0  0  0  0  3  0  0  0  0  0  0
  161.9100  210.2630  149.8810 C   0  0  0  0  0  3  0  0  0  0  0  0
  162.5990  211.4120  149.3950 N   0  0  0  0  0  2  0  0  0  0  0  0
  161.9720  212.4020  148.5750 C   0  0  0  0  0  0  0  0  0  0  0  0
  160.8850  213.1230  149.0840 C   0  0  0  0  0  3  0  0  0  0  0  0
  160.6960  214.3410  146.9980 C   0  0  0  0  0  3  0  0  0  0  0  0
  161.7840  213.6250  146.4830 C   0  0  0  0  0  3  0  0  0  0  0  0
  162.4200  212.6600  147.2700 C   0  0  0  0  0  3  0  0  0  0  0  0
  160.2480  214.0900  148.2980 C   0  0  0  0  0  3  0  0  0  0  0  0
  161.5170  208.5400  152.9570 C   0  0  0  0  0  2  0  0  0  0  0  0
  161.6790  209.7210  153.8980 C   0  0  0  0  0  2  0  0  0  0  0  0
  160.5270  209.8150  154.7840 N   0  0  0  0  0  2  0  0  0  0  0  0
  160.5080  210.6610  155.9350 C   0  0  0  0  0  0  0  0  0  0  0  0
  161.5040  211.3770  156.2250 O   0  0  0  0  0  0  0  0  0  0  0  0
  159.2830  210.7340  156.7740 C   0  0  0  0  0  2  0  0  0  0  0  0
  158.1520  210.7460  155.9550 O   0  0  0  0  0  0  0  0  0  0  0  0
  156.6330  212.3210  156.9300 C   0  0  0  0  0  1  0  0  0  0  0  0
  157.7450  212.0830  155.9220 C   0  0  2  0  0  3  0  0  0  0  0  0
  157.3160  212.4890  154.5100 C   0  0  0  0  0  2  0  0  0  0  0  0
  157.6980  211.4630  153.4470 C   0  0  0  0  0  2  0  0  0  0  0  0
  159.7240  212.8290  153.0320 C   0  0  0  0  0  1  0  0  0  0  0  0
  157.8360  212.9600  151.5940 O   0  0  0  0  0  1  0  0  0  0  0  0
  158.5830  212.0780  152.3750 C   0  0  2  0  0  3  0  0  0  0  0  0
  160.9210  207.9320  150.7140 O   0  0  0  0  0  0  0  0  0  0  0  0
  163.0800  207.1260  150.8740 O   0  0  0  0  0  0  0  0  0  0  0  0
  161.8450  206.8850  150.8020 C   0  0  0  0  0  0  0  0  0  0  0  0
  160.6290  203.5710  149.5390 C   0  0  0  0  0  0  0  0  0  0  0  0
  160.4330  202.8190  150.6220 C   0  0  0  0  0  3  0  0  0  0  0  0
  160.6650  203.3790  151.9550 C   0  0  0  0  0  0  0  0  0  0  0  0
  161.3640  205.4990  150.8050 C   0  0  0  0  0  0  0  0  0  0  0  0
  160.4520  202.6720  152.9730 O   0  0  0  0  0  0  0  0  0  0  0  0
  161.1640  204.7840  152.1210 C   0  0  0  0  0  2  0  0  0  0  0  0
  161.1140  204.9160  149.6660 N   0  0  0  0  0  0  0  0  0  0  0  0
  161.7480  202.8630  147.4690 C   0  0  1  0  0  3  0  0  0  0  0  0
  160.4690  202.9670  148.1690 C   0  0  1  0  0  3  0  0  0  0  0  0
  161.1290  201.6470  148.0140 N   0  0  0  0  0  0  0  0  0  0  0  0
  161.8630  201.3190  149.1040 F   0  0  0  0  0  0  0  0  0  0  0  0
  161.5160  202.9220  146.0340 N   0  0  0  0  0  2  0  0  0  0  0  0
  163.3290  204.4190  145.2720 C   0  0  0  0  0  2  0  0  0  0  0  0
  162.7130  205.0840  146.4990 C   0  0  0  0  0  2  0  0  0  0  0  0
  161.8530  204.2610  145.5630 C   0  0  0  0  0  0  0  0  0  0  0  0
  161.6030  205.4020  143.4740 F   0  0  0  0  0  0  0  0  0  0  0  0
  160.2800  206.1900  145.2670 C   0  0  0  0  0  1  0  0  0  0  0  0
  159.8860  204.1300  144.1770 F   0  0  0  0  0  0  0  0  0  0  0  0
  160.9010  204.9780  144.5910 C   0  0  0  0  0  0  0  0  0  0  0  0
  1  2  1  6  0  0  0
  1 11  1  0  0  0  0
  3  2  2  0  0  0  0
  4  3  1  0  0  0  0
  5  6  1  0  0  0  0
  5  4  1  0  0  0  0
  7 10  1  0  0  0  0
  8  7  2  0  0  0  0
  8  9  1  0  0  0  0
  9  5  2  0  0  0  0
 10  6  2  0  0  0  0
 11 12  1  0  0  0  0
 12 13  1  0  0  0  0
 13 14  1  0  0  0  0
 14 15  2  0  0  0  0
 14 16  1  0  0  0  0
 17 16  1  0  0  0  0
 19 17  1  0  0  0  0
 19 18  1  1  0  0  0
 20 19  1  0  0  0  0
 21 20  1  0  0  0  0
 23 24  1  0  0  0  0
 24 22  1  1  0  0  0
 24 21  1  0  0  0  0
 25 27  1  0  0  0  0
 25  1  1  0  0  0  0
 27 31  1  0  0  0  0
 27 26  2  0  0  0  0
 28 34  1  0  0  0  0
 28 29  2  0  0  0  0
 29 30  1  0  0  0  0
 30 33  1  0  0  0  0
 30 32  2  0  0  0  0
 31 33  1  0  0  0  0
 34 31  2  0  0  0  0
 35 39  1  6  0  0  0
 35 37  1  0  0  0  0
 35 36  1  0  0  0  0
 36 28  1  1  0  0  0
 37 36  1  0  0  0  0
 37 38  1  0  0  0  0
 40 42  1  0  0  0  0
 40 41  1  0  0  0  0
 42 39  1  0  0  0  0
 42 41  1  0  0  0  0
 43 46  1  0  0  0  0
 45 46  1  0  0  0  0
 46 44  1  0  0  0  0
 46 42  1  0  0  0  0
M  END
>  <MODEL>
8

>  <REMARK>
 VINA RESULT:      -5.8      3.355      9.876
  Name = 
  19 active torsions:
  status: ('A' for Active; 'I' for Inactive)
    1  A    between atoms: C_2  and  C_22
    2  A    between atoms: C_2  and  O_38
    3  A    between atoms: C_3  and  N_40
    4  A    between atoms: C_7  and  C_21
    5  A    between atoms: C_8  and  C_35
    6  A    between atoms: C_8  and  C_39
    7  A    between atoms: C_12  and  N_17
    8  A    between atoms: C_12  and  C_36
    9  A    between atoms: C_14  and  C_35
   10  A    between atoms: C_14  and  O_38
   11  A    between atoms: C_16  and  N_42
   12  A    between atoms: C_18  and  C_29
   13  A    between atoms: C_18  and  N_42
   14  A    between atoms: O_19  and  C_43
   15  A    between atoms: O_19  and  C_44
   16  A    between atoms: C_24  and  C_44
   17  A    between atoms: C_27  and  C_43
   18  A    between atoms: C_31  and  N_40
   19  A    between atoms: C_36  and  C_44
                            x       y       z     vdW  Elec       q    Type
                         _______ _______ _______ _____ _____    ______ ____

>  <TORSDO>
F 19

$$$$
=
 OpenBabel11042421593D

 46 49  0  0  1  0  0  0  0  0999 V2000
  160.5900  205.4080  144.5120 C   0  0  2  0  0  3  0  0  0  0  0  0
  161.6590  205.8280  143.5620 C   0  0  0  0  0  3  0  0  0  0  0  0
  161.4030  205.9220  142.2670 C   0  0  0  0  0  3  0  0  0  0  0  0
  162.4320  206.3130  141.3610 N   0  0  0  0  0  2  0  0  0  0  0  0
  162.1660  206.9990  140.1350 C   0  0  0  0  0  0  0  0  0  0  0  0
  162.3380  206.3230  138.9210 C   0  0  0  0  0  3  0  0  0  0  0  0
  161.6760  208.3100  137.7030 C   0  0  0  0  0  3  0  0  0  0  0  0
  161.5010  208.9920  138.9120 C   0  0  0  0  0  3  0  0  0  0  0  0
  161.7440  208.3380  140.1240 C   0  0  0  0  0  3  0  0  0  0  0  0
  162.0940  206.9760  137.7080 C   0  0  0  0  0  3  0  0  0  0  0  0
  160.4110  206.4940  145.5550 C   0  0  0  0  0  2  0  0  0  0  0  0
  161.3260  206.2380  146.7400 C   0  0  0  0  0  2  0  0  0  0  0  0
  161.1360  207.2690  147.7500 N   0  0  0  0  0  2  0  0  0  0  0  0
  162.2230  207.8460  148.4760 C   0  0  0  0  0  0  0  0  0  0  0  0
  163.4090  207.4810  148.2570 O   0  0  0  0  0  0  0  0  0  0  0  0
  161.9580  208.9210  149.4670 C   0  0  0  0  0  2  0  0  0  0  0  0
  161.2020  208.4100  150.5240 O   0  0  0  0  0  0  0  0  0  0  0  0
  162.5520  210.0370  151.6520 C   0  0  0  0  0  1  0  0  0  0  0  0
  161.1670  209.4380  151.4720 C   0  0  2  0  0  3  0  0  0  0  0  0
  160.5970  208.9350  152.8010 C   0  0  0  0  0  2  0  0  0  0  0  0
  161.3040  209.5230  154.0190 C   0  0  0  0  0  2  0  0  0  0  0  0
  160.4460  207.5360  155.2250 C   0  0  0  0  0  1  0  0  0  0  0  0
  159.4620  209.6770  155.5290 O   0  0  0  0  0  1  0  0  0  0  0  0
  160.6800  209.0300  155.3140 C   0  0  2  0  0  3  0  0  0  0  0  0
  160.9630  204.1940  145.1570 O   0  0  0  0  0  0  0  0  0  0  0  0
  159.1680  202.9780  144.3590 O   0  0  0  0  0  0  0  0  0  0  0  0
  160.2000  203.0240  145.0820 C   0  0  0  0  0  0  0  0  0  0  0  0
  161.1910  200.8960  148.0040 C   0  0  0  0  0  0  0  0  0  0  0  0
  161.3930  199.6730  147.5120 C   0  0  0  0  0  3  0  0  0  0  0  0
  161.2440  199.4280  146.0760 C   0  0  0  0  0  0  0  0  0  0  0  0
  160.6090  201.8470  145.8570 C   0  0  0  0  0  0  0  0  0  0  0  0
  161.4610  198.2770  145.6160 O   0  0  0  0  0  0  0  0  0  0  0  0
  160.8250  200.5290  145.1490 C   0  0  0  0  0  2  0  0  0  0  0  0
  160.7820  201.9680  147.1420 N   0  0  0  0  0  0  0  0  0  0  0  0
  160.5860  202.3600  149.8830 C   0  0  1  0  0  3  0  0  0  0  0  0
  161.2660  201.1260  149.4910 C   0  0  1  0  0  3  0  0  0  0  0  0
  159.9480  201.0680  150.1730 N   0  0  0  0  0  0  0  0  0  0  0  0
  158.9270  200.9580  149.2900 F   0  0  0  0  0  0  0  0  0  0  0  0
  161.1980  202.8810  151.0960 N   0  0  0  0  0  2  0  0  0  0  0  0
  160.1420  204.8650  150.0680 C   0  0  0  0  0  2  0  0  0  0  0  0
  161.6280  204.9480  149.7290 C   0  0  0  0  0  2  0  0  0  0  0  0
  161.1750  204.3390  151.0390 C   0  0  0  0  0  0  0  0  0  0  0  0
  160.3730  206.1340  152.4020 F   0  0  0  0  0  0  0  0  0  0  0  0
  162.7120  205.7970  152.3780 C   0  0  0  0  0  1  0  0  0  0  0  0
  161.2040  204.3250  153.4490 F   0  0  0  0  0  0  0  0  0  0  0  0
  161.3400  205.1440  152.3390 C   0  0  0  0  0  0  0  0  0  0  0  0
  1  2  1  6  0  0  0
  1 25  1  0  0  0  0
  1 11  1  0  0  0  0
  3  2  2  0  0  0  0
  4  3  1  0  0  0  0
  5  4  1  0  0  0  0
  6  5  2  0  0  0  0
  7 10  2  0  0  0  0
  7  8  1  0  0  0  0
  8  9  2  0  0  0  0
  9  5  1  0  0  0  0
 10  6  1  0  0  0  0
 11 12  1  0  0  0  0
 12 13  1  0  0  0  0
 13 14  1  0  0  0  0
 14 16  1  0  0  0  0
 15 14  2  0  0  0  0
 16 17  1  0  0  0  0
 17 19  1  0  0  0  0
 19 18  1  1  0  0  0
 19 20  1  0  0  0  0
 20 21  1  0  0  0  0
 21 24  1  0  0  0  0
 24 22  1  6  0  0  0
 24 23  1  0  0  0  0
 26 27  2  0  0  0  0
 27 25  1  0  0  0  0
 27 31  1  0  0  0  0
 29 28  2  0  0  0  0
 30 29  1  0  0  0  0
 31 34  2  0  0  0  0
 32 30  2  0  0  0  0
 33 31  1  0  0  0  0
 33 30  1  0  0  0  0
 34 28  1  0  0  0  0
 35 37  1  0  0  0  0
 35 39  1  1  0  0  0
 36 28  1  6  0  0  0
 36 35  1  0  0  0  0
 36 37  1  0  0  0  0
 38 37  1  0  0  0  0
 40 42  1  0  0  0  0
 41 40  1  0  0  0  0
 41 42  1  0  0  0  0
 42 39  1  0  0  0  0
 42 46  1  0  0  0  0
 46 44  1  0  0  0  0
 46 43  1  0  0  0  0
 46 45  1  0  0  0  0
M  END
>  <MODEL>
9

>  <REMARK>
 VINA RESULT:      -5.8      3.908     10.867
  Name = 
  19 active torsions:
  status: ('A' for Active; 'I' for Inactive)
    1  A    between atoms: C_2  and  C_22
    2  A    between atoms: C_2  and  O_38
    3  A    between atoms: C_3  and  N_40
    4  A    between atoms: C_7  and  C_21
    5  A    between atoms: C_8  and  C_35
    6  A    between atoms: C_8  and  C_39
    7  A    between atoms: C_12  and  N_17
    8  A    between atoms: C_12  and  C_36
    9  A    between atoms: C_14  and  C_35
   10  A    between atoms: C_14  and  O_38
   11  A    between atoms: C_16  and  N_42
   12  A    between atoms: C_18  and  C_29
   13  A    between atoms: C_18  and  N_42
   14  A    between atoms: O_19  and  C_43
   15  A    between atoms: O_19  and  C_44
   16  A    between atoms: C_24  and  C_44
   17  A    between atoms: C_27  and  C_43
   18  A    between atoms: C_31  and  N_40
   19  A    between atoms: C_36  and  C_44
                            x       y       z     vdW  Elec       q    Type
                         _______ _______ _______ _____ _____    ______ ____

>  <TORSDO>
F 19

$$$$
