=
 OpenBabel11042421263D

 33 34  0  0  1  0  0  0  0  0999 V2000
  161.0530  209.6930  152.2740 C   0  0  1  0  0  3  0  0  0  0  0  0
  161.2390  210.6070  153.4520 C   0  0  0  0  0  0  0  0  0  0  0  0
  162.3610  210.6630  154.0270 O   0  0  0  0  0  0  0  0  0  0  0  0
  159.1750  211.9480  153.0250 C   0  0  0  0  0  3  0  0  0  0  0  0
  158.1500  212.7270  153.4670 N   0  0  0  0  0  0  0  0  0  0  0  0
  158.0050  213.0540  154.7800 C   0  0  0  0  0  0  0  0  0  0  0  0
  160.1260  211.4530  153.9270 C   0  0  0  0  0  0  0  0  0  0  0  0
  158.9370  212.5810  155.7120 C   0  0  0  0  0  3  0  0  0  0  0  0
  159.9960  211.7820  155.2820 C   0  0  0  0  0  3  0  0  0  0  0  0
  156.8960  213.8760  155.1720 N   0  0  0  0  0  2  0  0  0  0  0  0
  154.6720  214.4530  156.2020 C   0  0  0  0  0  1  0  0  0  0  0  0
  155.7290  213.4570  155.8890 C   0  0  0  0  0  0  0  0  0  0  0  0
  155.5790  212.2610  156.2570 O   0  0  0  0  0  0  0  0  0  0  0  0
  161.9460  210.0810  151.0940 C   0  0  0  0  0  2  0  0  0  0  0  0
  161.9460  209.0330  149.9910 C   0  0  0  0  0  2  0  0  0  0  0  0
  162.2100  209.7020  148.6570 C   0  0  0  0  0  2  0  0  0  0  0  0
  161.9040  211.1850  148.7460 C   0  0  0  0  0  2  0  0  0  0  0  0
  162.9390  211.9200  148.1640 O   0  0  0  0  0  1  0  0  0  0  0  0
  161.1980  208.2290  152.6710 C   0  0  0  0  0  2  0  0  0  0  0  0
  160.6550  208.0170  154.0020 N   0  0  0  0  0  2  0  0  0  0  0  0
  160.8670  206.6160  154.3200 C   0  0  0  0  0  2  0  0  0  0  0  0
  161.6300  205.9330  153.1950 C   0  0  0  0  0  2  0  0  0  0  0  0
  161.0160  204.5850  152.8480 C   0  0  0  0  0  2  0  0  0  0  0  0
  161.2720  204.2450  151.3930 C   0  0  0  0  0  2  0  0  0  0  0  0
  160.8880  205.4290  150.5240 C   0  0  0  0  0  2  0  0  0  0  0  0
  161.3300  203.4290  147.2690 C   0  0  0  0  0  2  0  0  0  0  0  0
  161.2730  203.8110  148.7250 C   0  0  0  0  0  3  0  0  0  0  0  0
  160.9090  206.1300  148.0540 C   0  0  0  0  0  3  0  0  0  0  0  0
  161.9220  204.5710  146.4310 C   0  0  2  0  0  3  0  0  0  0  0  0
  161.0360  205.0790  149.0850 C   0  0  0  0  0  0  0  0  0  0  0  0
  161.2860  205.8870  146.7940 C   0  0  0  0  0  3  0  0  0  0  0  0
  161.7400  204.3060  144.9740 C   0  0  0  0  0  3  0  0  0  0  0  0
  160.5850  204.4270  144.4300 N   0  0  0  0  0  2  0  0  0  0  0  0
  1 14  1  6  0  0  0
  1 19  1  0  0  0  0
  1  2  1  0  0  0  0
  2  7  1  0  0  0  0
  2  3  2  0  0  0  0
  4  5  1  0  0  0  0
  4  7  2  0  0  0  0
  5  6  2  0  0  0  0
  6 10  1  0  0  0  0
  6  8  1  0  0  0  0
  7  9  1  0  0  0  0
  9  8  2  0  0  0  0
 10 12  1  0  0  0  0
 12 11  1  0  0  0  0
 12 13  2  0  0  0  0
 15 14  1  0  0  0  0
 16 17  1  0  0  0  0
 16 15  1  0  0  0  0
 18 17  1  0  0  0  0
 19 20  1  0  0  0  0
 20 21  1  0  0  0  0
 22 21  1  0  0  0  0
 23 22  1  0  0  0  0
 24 23  1  0  0  0  0
 25 24  1  0  0  0  0
 26 27  1  0  0  0  0
 27 30  2  0  0  0  0
 28 30  1  0  0  0  0
 29 32  1  6  0  0  0
 29 31  1  0  0  0  0
 29 26  1  0  0  0  0
 30 25  1  0  0  0  0
 31 28  2  0  0  0  0
 33 32  2  0  0  0  0
M  END
>  <MODEL>
1

>  <REMARK>
 VINA RESULT:      -6.7      0.000      0.000
  Name = 
  16 active torsions:
  status: ('A' for Active; 'I' for Inactive)
    1  A    between atoms: C_1  and  C_21
    2  A    between atoms: N_3  and  C_13
    3  A    between atoms: C_4  and  C_9
    4  A    between atoms: C_4  and  C_24
    5  A    between atoms: C_6  and  C_26
    6  A    between atoms: C_6  and  C_30
    7  A    between atoms: C_8  and  C_29
    8  A    between atoms: C_8  and  C_30
    9  A    between atoms: C_9  and  C_27
   10  A    between atoms: C_12  and  C_17
   11  A    between atoms: C_12  and  C_27
   12  A    between atoms: C_15  and  N_19
   13  A    between atoms: C_15  and  C_27
   14  A    between atoms: N_19  and  C_26
   15  A    between atoms: C_20  and  C_24
   16  A    between atoms: C_25  and  C_29
                            x       y       z     vdW  Elec       q    Type
                         _______ _______ _______ _____ _____    ______ ____

>  <TORSDO>
F 16

$$$$
=
 OpenBabel11042421263D

 33 34  0  0  1  0  0  0  0  0999 V2000
  161.2590  206.8160  151.4960 C   0  0  1  0  0  3  0  0  0  0  0  0
  161.1010  207.1660  152.9480 C   0  0  0  0  0  0  0  0  0  0  0  0
  161.2990  206.2820  153.8280 O   0  0  0  0  0  0  0  0  0  0  0  0
  160.6320  208.8750  154.7090 C   0  0  0  0  0  3  0  0  0  0  0  0
  160.2980  210.1410  155.0780 N   0  0  0  0  0  0  0  0  0  0  0  0
  160.0560  211.1200  154.1640 C   0  0  0  0  0  0  0  0  0  0  0  0
  160.7380  208.5380  153.3530 C   0  0  0  0  0  0  0  0  0  0  0  0
  160.1480  210.8230  152.7980 C   0  0  0  0  0  3  0  0  0  0  0  0
  160.4890  209.5310  152.3980 C   0  0  0  0  0  3  0  0  0  0  0  0
  159.7140  212.4340  154.6280 N   0  0  0  0  0  2  0  0  0  0  0  0
  158.2450  214.3010  155.4650 C   0  0  0  0  0  1  0  0  0  0  0  0
  158.4140  212.8950  155.0170 C   0  0  0  0  0  0  0  0  0  0  0  0
  157.4110  212.1330  154.9840 O   0  0  0  0  0  0  0  0  0  0  0  0
  162.7050  206.9660  151.0170 C   0  0  0  0  0  2  0  0  0  0  0  0
  162.7970  207.3960  149.5610 C   0  0  0  0  0  2  0  0  0  0  0  0
  161.4690  207.9790  149.1200 C   0  0  0  0  0  2  0  0  0  0  0  0
  161.6650  209.3900  148.5970 C   0  0  0  0  0  2  0  0  0  0  0  0
  162.3370  210.1600  149.5480 O   0  0  0  0  0  1  0  0  0  0  0  0
  160.6700  205.4460  151.1810 C   0  0  0  0  0  2  0  0  0  0  0  0
  161.7250  204.4480  151.1430 N   0  0  0  0  0  2  0  0  0  0  0  0
  161.3050  203.3640  152.0140 C   0  0  0  0  0  2  0  0  0  0  0  0
  161.1970  202.0690  151.2240 C   0  0  0  0  0  2  0  0  0  0  0  0
  159.9660  202.0660  150.3310 C   0  0  0  0  0  2  0  0  0  0  0  0
  160.0810  200.9870  149.2720 C   0  0  0  0  0  2  0  0  0  0  0  0
  161.3880  201.1570  148.5190 C   0  0  0  0  0  2  0  0  0  0  0  0
  160.6080  203.0160  145.2440 C   0  0  0  0  0  2  0  0  0  0  0  0
  160.8380  201.9270  146.2590 C   0  0  0  0  0  3  0  0  0  0  0  0
  161.5670  203.6300  147.8490 C   0  0  0  0  0  3  0  0  0  0  0  0
  161.6090  204.1630  145.4410 C   0  0  2  0  0  3  0  0  0  0  0  0
  161.2530  202.2300  147.4950 C   0  0  0  0  0  0  0  0  0  0  0  0
  161.6970  204.5540  146.8920 C   0  0  0  0  0  3  0  0  0  0  0  0
  161.2230  205.3470  144.6190 C   0  0  0  0  0  3  0  0  0  0  0  0
  160.3810  206.2030  145.0680 N   0  0  0  0  0  2  0  0  0  0  0  0
  1 14  1  1  0  0  0
  1  2  1  0  0  0  0
  2  7  1  0  0  0  0
  2  3  2  0  0  0  0
  4  5  1  0  0  0  0
  6 10  1  0  0  0  0
  6  5  2  0  0  0  0
  7  4  2  0  0  0  0
  8  6  1  0  0  0  0
  9  8  2  0  0  0  0
  9  7  1  0  0  0  0
 10 12  1  0  0  0  0
 12 11  1  0  0  0  0
 13 12  2  0  0  0  0
 15 14  1  0  0  0  0
 16 15  1  0  0  0  0
 17 16  1  0  0  0  0
 17 18  1  0  0  0  0
 19  1  1  0  0  0  0
 20 19  1  0  0  0  0
 20 21  1  0  0  0  0
 22 21  1  0  0  0  0
 23 22  1  0  0  0  0
 24 23  1  0  0  0  0
 25 24  1  0  0  0  0
 26 29  1  0  0  0  0
 26 27  1  0  0  0  0
 27 30  2  0  0  0  0
 29 32  1  6  0  0  0
 29 31  1  0  0  0  0
 30 28  1  0  0  0  0
 30 25  1  0  0  0  0
 31 28  2  0  0  0  0
 32 33  2  0  0  0  0
M  END
>  <MODEL>
2

>  <REMARK>
 VINA RESULT:      -6.7      2.008      3.199
  Name = 
  16 active torsions:
  status: ('A' for Active; 'I' for Inactive)
    1  A    between atoms: C_1  and  C_21
    2  A    between atoms: N_3  and  C_13
    3  A    between atoms: C_4  and  C_9
    4  A    between atoms: C_4  and  C_24
    5  A    between atoms: C_6  and  C_26
    6  A    between atoms: C_6  and  C_30
    7  A    between atoms: C_8  and  C_29
    8  A    between atoms: C_8  and  C_30
    9  A    between atoms: C_9  and  C_27
   10  A    between atoms: C_12  and  C_17
   11  A    between atoms: C_12  and  C_27
   12  A    between atoms: C_15  and  N_19
   13  A    between atoms: C_15  and  C_27
   14  A    between atoms: N_19  and  C_26
   15  A    between atoms: C_20  and  C_24
   16  A    between atoms: C_25  and  C_29
                            x       y       z     vdW  Elec       q    Type
                         _______ _______ _______ _____ _____    ______ ____

>  <TORSDO>
F 16

$$$$
=
 OpenBabel11042421263D

 33 34  0  0  1  0  0  0  0  0999 V2000
  161.5060  208.2210  149.3560 C   0  0  1  0  0  3  0  0  0  0  0  0
  162.1610  207.7900  150.6380 C   0  0  0  0  0  0  0  0  0  0  0  0
  163.0900  206.9370  150.6070 O   0  0  0  0  0  0  0  0  0  0  0  0
  161.9710  209.7270  152.2040 C   0  0  0  0  0  3  0  0  0  0  0  0
  161.5800  210.2610  153.3940 N   0  0  0  0  0  0  0  0  0  0  0  0
  160.9590  209.5180  154.3500 C   0  0  0  0  0  0  0  0  0  0  0  0
  161.7400  208.3730  151.9270 C   0  0  0  0  0  0  0  0  0  0  0  0
  160.7130  208.1600  154.1120 C   0  0  0  0  0  3  0  0  0  0  0  0
  161.1060  207.5920  152.9000 C   0  0  0  0  0  3  0  0  0  0  0  0
  160.5720  210.1510  155.5780 N   0  0  0  0  0  2  0  0  0  0  0  0
  159.0760  211.3450  157.2140 C   0  0  0  0  0  1  0  0  0  0  0  0
  159.2930  210.7200  155.8840 C   0  0  0  0  0  0  0  0  0  0  0  0
  158.3500  210.7020  155.0490 O   0  0  0  0  0  0  0  0  0  0  0  0
  162.3270  209.2750  148.6110 C   0  0  0  0  0  2  0  0  0  0  0  0
  161.6550  210.6400  148.5980 C   0  0  0  0  0  2  0  0  0  0  0  0
  162.7080  211.7220  148.4670 C   0  0  0  0  0  2  0  0  0  0  0  0
  162.0470  213.0770  148.2980 C   0  0  0  0  0  2  0  0  0  0  0  0
  160.7320  213.0260  148.7650 O   0  0  0  0  0  1  0  0  0  0  0  0
  161.1420  207.0270  148.4820 C   0  0  0  0  0  2  0  0  0  0  0  0
  162.0060  206.9830  147.3160 N   0  0  0  0  0  2  0  0  0  0  0  0
  161.3140  206.1910  146.3140 C   0  0  0  0  0  2  0  0  0  0  0  0
  162.3040  205.6680  145.2840 C   0  0  0  0  0  2  0  0  0  0  0  0
  162.3700  204.1480  145.3010 C   0  0  0  0  0  2  0  0  0  0  0  0
  161.0280  203.5630  145.6960 C   0  0  0  0  0  2  0  0  0  0  0  0
  161.2480  202.2580  146.4400 C   0  0  0  0  0  2  0  0  0  0  0  0
  160.8360  203.9190  149.8840 C   0  0  0  0  0  2  0  0  0  0  0  0
  161.1310  203.6900  148.4250 C   0  0  0  0  0  3  0  0  0  0  0  0
  160.7420  201.3040  148.7700 C   0  0  0  0  0  3  0  0  0  0  0  0
  161.2770  202.7120  150.7240 C   0  0  2  0  0  3  0  0  0  0  0  0
  161.0460  202.4600  147.9010 C   0  0  0  0  0  0  0  0  0  0  0  0
  160.8090  201.4250  150.0990 C   0  0  0  0  0  3  0  0  0  0  0  0
  160.7550  202.8190  152.1170 C   0  0  0  0  0  3  0  0  0  0  0  0
  160.7670  203.9440  152.7310 N   0  0  0  0  0  2  0  0  0  0  0  0
  1 19  1  6  0  0  0
  1  2  1  0  0  0  0
  2  7  1  0  0  0  0
  3  2  2  0  0  0  0
  4  5  1  0  0  0  0
  5  6  2  0  0  0  0
  6 10  1  0  0  0  0
  7  4  2  0  0  0  0
  7  9  1  0  0  0  0
  8  6  1  0  0  0  0
  9  8  2  0  0  0  0
 10 12  1  0  0  0  0
 12 11  1  0  0  0  0
 13 12  2  0  0  0  0
 14  1  1  0  0  0  0
 15 14  1  0  0  0  0
 16 15  1  0  0  0  0
 17 16  1  0  0  0  0
 17 18  1  0  0  0  0
 20 19  1  0  0  0  0
 21 20  1  0  0  0  0
 22 23  1  0  0  0  0
 22 21  1  0  0  0  0
 23 24  1  0  0  0  0
 24 25  1  0  0  0  0
 25 30  1  0  0  0  0
 26 29  1  0  0  0  0
 27 26  1  0  0  0  0
 28 31  2  0  0  0  0
 29 32  1  1  0  0  0
 30 27  2  0  0  0  0
 30 28  1  0  0  0  0
 31 29  1  0  0  0  0
 32 33  2  0  0  0  0
M  END
>  <MODEL>
3

>  <REMARK>
 VINA RESULT:      -6.6      2.503      4.976
  Name = 
  16 active torsions:
  status: ('A' for Active; 'I' for Inactive)
    1  A    between atoms: C_1  and  C_21
    2  A    between atoms: N_3  and  C_13
    3  A    between atoms: C_4  and  C_9
    4  A    between atoms: C_4  and  C_24
    5  A    between atoms: C_6  and  C_26
    6  A    between atoms: C_6  and  C_30
    7  A    between atoms: C_8  and  C_29
    8  A    between atoms: C_8  and  C_30
    9  A    between atoms: C_9  and  C_27
   10  A    between atoms: C_12  and  C_17
   11  A    between atoms: C_12  and  C_27
   12  A    between atoms: C_15  and  N_19
   13  A    between atoms: C_15  and  C_27
   14  A    between atoms: N_19  and  C_26
   15  A    between atoms: C_20  and  C_24
   16  A    between atoms: C_25  and  C_29
                            x       y       z     vdW  Elec       q    Type
                         _______ _______ _______ _____ _____    ______ ____

>  <TORSDO>
F 16

$$$$
=
 OpenBabel11042421263D

 33 34  0  0  1  0  0  0  0  0999 V2000
  160.8260  207.1570  152.5330 C   0  0  1  0  0  3  0  0  0  0  0  0
  161.2150  208.0230  151.3690 C   0  0  0  0  0  0  0  0  0  0  0  0
  161.4420  209.2510  151.5530 O   0  0  0  0  0  0  0  0  0  0  0  0
  162.3810  207.8660  149.1650 C   0  0  0  0  0  3  0  0  0  0  0  0
  162.5060  207.3300  147.9210 N   0  0  0  0  0  0  0  0  0  0  0  0
  161.6530  206.3770  147.4570 C   0  0  0  0  0  0  0  0  0  0  0  0
  161.3520  207.4450  150.0180 C   0  0  0  0  0  0  0  0  0  0  0  0
  160.6080  205.9310  148.2770 C   0  0  0  0  0  3  0  0  0  0  0  0
  160.4620  206.4680  149.5560 C   0  0  0  0  0  3  0  0  0  0  0  0
  161.8490  205.8540  146.1350 N   0  0  0  0  0  2  0  0  0  0  0  0
  161.2580  205.1960  143.7770 C   0  0  0  0  0  1  0  0  0  0  0  0
  160.8740  205.7820  145.0870 C   0  0  0  0  0  0  0  0  0  0  0  0
  159.6980  206.2020  145.2550 O   0  0  0  0  0  0  0  0  0  0  0  0
  161.8330  206.0310  152.7790 C   0  0  0  0  0  2  0  0  0  0  0  0
  161.2070  204.6500  152.6610 C   0  0  0  0  0  2  0  0  0  0  0  0
  161.9720  203.8330  151.6380 C   0  0  0  0  0  2  0  0  0  0  0  0
  161.1870  202.5870  151.2710 C   0  0  0  0  0  2  0  0  0  0  0  0
  160.3790  202.8440  150.1620 O   0  0  0  0  0  1  0  0  0  0  0  0
  160.5470  207.9850  153.7810 C   0  0  0  0  0  2  0  0  0  0  0  0
  161.1360  207.3450  154.9450 N   0  0  0  0  0  2  0  0  0  0  0  0
  160.1720  207.4730  156.0240 C   0  0  0  0  0  2  0  0  0  0  0  0
  160.8430  208.0540  157.2590 C   0  0  0  0  0  2  0  0  0  0  0  0
  161.9700  209.0040  156.8830 C   0  0  0  0  0  2  0  0  0  0  0  0
  161.5020  210.4440  156.9700 C   0  0  0  0  0  2  0  0  0  0  0  0
  161.3750  211.0170  155.5710 C   0  0  0  0  0  2  0  0  0  0  0  0
  158.2300  212.4520  153.8860 C   0  0  0  0  0  2  0  0  0  0  0  0
  159.6640  212.1310  154.2160 C   0  0  0  0  0  3  0  0  0  0  0  0
  158.8940  210.9910  156.2330 C   0  0  0  0  0  3  0  0  0  0  0  0
  157.4080  212.6470  155.1670 C   0  0  2  0  0  3  0  0  0  0  0  0
  159.9640  211.4090  155.3030 C   0  0  0  0  0  0  0  0  0  0  0  0
  157.6780  211.5390  156.1500 C   0  0  0  0  0  3  0  0  0  0  0  0
  155.9500  212.7030  154.8550 C   0  0  0  0  0  3  0  0  0  0  0  0
  155.5280  213.3580  153.8370 N   0  0  0  0  0  2  0  0  0  0  0  0
  1 14  1  1  0  0  0
  1 19  1  0  0  0  0
  2  3  2  0  0  0  0
  2  1  1  0  0  0  0
  4  7  2  0  0  0  0
  5  4  1  0  0  0  0
  6  5  2  0  0  0  0
  6  8  1  0  0  0  0
  7  2  1  0  0  0  0
  8  9  2  0  0  0  0
  9  7  1  0  0  0  0
 10  6  1  0  0  0  0
 11 12  1  0  0  0  0
 12 13  2  0  0  0  0
 12 10  1  0  0  0  0
 15 14  1  0  0  0  0
 16 15  1  0  0  0  0
 17 16  1  0  0  0  0
 18 17  1  0  0  0  0
 19 20  1  0  0  0  0
 20 21  1  0  0  0  0
 21 22  1  0  0  0  0
 23 24  1  0  0  0  0
 23 22  1  0  0  0  0
 25 24  1  0  0  0  0
 26 27  1  0  0  0  0
 26 29  1  0  0  0  0
 27 30  2  0  0  0  0
 29 32  1  6  0  0  0
 29 31  1  0  0  0  0
 30 25  1  0  0  0  0
 30 28  1  0  0  0  0
 31 28  2  0  0  0  0
 33 32  2  0  0  0  0
M  END
>  <MODEL>
4

>  <REMARK>
 VINA RESULT:      -6.5      2.736      9.281
  Name = 
  16 active torsions:
  status: ('A' for Active; 'I' for Inactive)
    1  A    between atoms: C_1  and  C_21
    2  A    between atoms: N_3  and  C_13
    3  A    between atoms: C_4  and  C_9
    4  A    between atoms: C_4  and  C_24
    5  A    between atoms: C_6  and  C_26
    6  A    between atoms: C_6  and  C_30
    7  A    between atoms: C_8  and  C_29
    8  A    between atoms: C_8  and  C_30
    9  A    between atoms: C_9  and  C_27
   10  A    between atoms: C_12  and  C_17
   11  A    between atoms: C_12  and  C_27
   12  A    between atoms: C_15  and  N_19
   13  A    between atoms: C_15  and  C_27
   14  A    between atoms: N_19  and  C_26
   15  A    between atoms: C_20  and  C_24
   16  A    between atoms: C_25  and  C_29
                            x       y       z     vdW  Elec       q    Type
                         _______ _______ _______ _____ _____    ______ ____

>  <TORSDO>
F 16

$$$$
=
 OpenBabel11042421263D

 33 34  0  0  1  0  0  0  0  0999 V2000
  161.1950  210.2050  153.7900 C   0  0  1  0  0  3  0  0  0  0  0  0
  160.9450  210.6860  152.3890 C   0  0  0  0  0  0  0  0  0  0  0  0
  160.3720  211.7950  152.2030 O   0  0  0  0  0  0  0  0  0  0  0  0
  161.2690  208.4850  151.2520 C   0  0  0  0  0  3  0  0  0  0  0  0
  161.6730  207.7470  150.1820 N   0  0  0  0  0  0  0  0  0  0  0  0
  162.1950  208.3210  149.0640 C   0  0  0  0  0  0  0  0  0  0  0  0
  161.3830  209.8810  151.2310 C   0  0  0  0  0  0  0  0  0  0  0  0
  162.3290  209.7140  149.0060 C   0  0  0  0  0  3  0  0  0  0  0  0
  161.9220  210.4900  150.0910 C   0  0  0  0  0  3  0  0  0  0  0  0
  162.5950  207.4790  147.9740 N   0  0  0  0  0  2  0  0  0  0  0  0
  162.3400  205.8360  146.0820 C   0  0  0  0  0  1  0  0  0  0  0  0
  161.7440  206.6530  147.1700 C   0  0  0  0  0  0  0  0  0  0  0  0
  160.5010  206.6040  147.3680 O   0  0  0  0  0  0  0  0  0  0  0  0
  161.1910  211.3500  154.8050 C   0  0  0  0  0  2  0  0  0  0  0  0
  159.8460  211.5150  155.4960 C   0  0  0  0  0  2  0  0  0  0  0  0
  159.3650  212.9440  155.3310 C   0  0  0  0  0  2  0  0  0  0  0  0
  157.8880  212.9610  154.9820 C   0  0  0  0  0  2  0  0  0  0  0  0
  157.4080  211.6530  154.8820 O   0  0  0  0  0  1  0  0  0  0  0  0
  160.2500  209.0720  154.1720 C   0  0  0  0  0  2  0  0  0  0  0  0
  160.7400  208.3950  155.3600 N   0  0  0  0  0  2  0  0  0  0  0  0
  161.5620  207.2890  154.9010 C   0  0  0  0  0  2  0  0  0  0  0  0
  160.7380  206.3470  154.0370 C   0  0  0  0  0  2  0  0  0  0  0  0
  161.6240  205.5150  153.1230 C   0  0  0  0  0  2  0  0  0  0  0  0
  160.8190  204.9630  151.9620 C   0  0  0  0  0  2  0  0  0  0  0  0
  160.8720  203.4470  151.9900 C   0  0  0  0  0  2  0  0  0  0  0  0
  161.1860  203.2280  148.1630 C   0  0  0  0  0  2  0  0  0  0  0  0
  160.9910  203.7530  149.5610 C   0  0  0  0  0  3  0  0  0  0  0  0
  161.0570  201.4530  150.3810 C   0  0  0  0  0  3  0  0  0  0  0  0
  160.5300  201.8490  148.0030 C   0  0  2  0  0  3  0  0  0  0  0  0
  160.9700  202.9120  150.6030 C   0  0  0  0  0  0  0  0  0  0  0  0
  160.8900  200.9490  149.1540 C   0  0  0  0  0  3  0  0  0  0  0  0
  160.9400  201.2160  146.7160 C   0  0  0  0  0  3  0  0  0  0  0  0
  160.3870  201.5660  145.6140 N   0  0  0  0  0  2  0  0  0  0  0  0
  1 19  1  1  0  0  0
  1 14  1  0  0  0  0
  2  1  1  0  0  0  0
  3  2  2  0  0  0  0
  5  4  1  0  0  0  0
  6  5  2  0  0  0  0
  7  4  2  0  0  0  0
  7  2  1  0  0  0  0
  8  6  1  0  0  0  0
  8  9  2  0  0  0  0
  9  7  1  0  0  0  0
 10  6  1  0  0  0  0
 11 12  1  0  0  0  0
 12 13  2  0  0  0  0
 12 10  1  0  0  0  0
 14 15  1  0  0  0  0
 16 15  1  0  0  0  0
 17 16  1  0  0  0  0
 18 17  1  0  0  0  0
 19 20  1  0  0  0  0
 21 20  1  0  0  0  0
 22 21  1  0  0  0  0
 23 22  1  0  0  0  0
 24 25  1  0  0  0  0
 24 23  1  0  0  0  0
 26 27  1  0  0  0  0
 27 30  2  0  0  0  0
 28 30  1  0  0  0  0
 29 32  1  6  0  0  0
 29 26  1  0  0  0  0
 29 31  1  0  0  0  0
 30 25  1  0  0  0  0
 31 28  2  0  0  0  0
 33 32  2  0  0  0  0
M  END
>  <MODEL>
5

>  <REMARK>
 VINA RESULT:      -6.4      2.299      6.245
  Name = 
  16 active torsions:
  status: ('A' for Active; 'I' for Inactive)
    1  A    between atoms: C_1  and  C_21
    2  A    between atoms: N_3  and  C_13
    3  A    between atoms: C_4  and  C_9
    4  A    between atoms: C_4  and  C_24
    5  A    between atoms: C_6  and  C_26
    6  A    between atoms: C_6  and  C_30
    7  A    between atoms: C_8  and  C_29
    8  A    between atoms: C_8  and  C_30
    9  A    between atoms: C_9  and  C_27
   10  A    between atoms: C_12  and  C_17
   11  A    between atoms: C_12  and  C_27
   12  A    between atoms: C_15  and  N_19
   13  A    between atoms: C_15  and  C_27
   14  A    between atoms: N_19  and  C_26
   15  A    between atoms: C_20  and  C_24
   16  A    between atoms: C_25  and  C_29
                            x       y       z     vdW  Elec       q    Type
                         _______ _______ _______ _____ _____    ______ ____

>  <TORSDO>
F 16

$$$$
=
 OpenBabel11042421263D

 33 34  0  0  1  0  0  0  0  0999 V2000
  160.8550  207.4430  152.8660 C   0  0  1  0  0  3  0  0  0  0  0  0
  161.7860  206.6230  152.0190 C   0  0  0  0  0  0  0  0  0  0  0  0
  162.7990  206.0860  152.5460 O   0  0  0  0  0  0  0  0  0  0  0  0
  161.6330  207.4920  149.6820 C   0  0  0  0  0  3  0  0  0  0  0  0
  161.3820  207.3060  148.3580 N   0  0  0  0  0  0  0  0  0  0  0  0
  161.0100  206.0970  147.8560 C   0  0  0  0  0  0  0  0  0  0  0  0
  161.5130  206.4250  150.5820 C   0  0  0  0  0  0  0  0  0  0  0  0
  160.8760  205.0050  148.7240 C   0  0  0  0  0  3  0  0  0  0  0  0
  161.1280  205.1740  150.0850 C   0  0  0  0  0  3  0  0  0  0  0  0
  160.7660  205.9740  146.4470 N   0  0  0  0  0  2  0  0  0  0  0  0
  161.2680  205.4840  144.0290 C   0  0  0  0  0  1  0  0  0  0  0  0
  161.6980  205.5390  145.4500 C   0  0  0  0  0  0  0  0  0  0  0  0
  162.8740  205.2050  145.7520 O   0  0  0  0  0  0  0  0  0  0  0  0
  160.6490  206.8360  154.2560 C   0  0  0  0  0  2  0  0  0  0  0  0
  161.1670  207.7340  155.3690 C   0  0  0  0  0  2  0  0  0  0  0  0
  160.0390  208.0470  156.3330 C   0  0  0  0  0  2  0  0  0  0  0  0
  159.8040  209.5440  156.3940 C   0  0  0  0  0  2  0  0  0  0  0  0
  161.0270  210.2190  156.3720 O   0  0  0  0  0  1  0  0  0  0  0  0
  161.2800  208.9050  152.9150 C   0  0  0  0  0  2  0  0  0  0  0  0
  160.3290  209.7250  152.1850 N   0  0  0  0  0  2  0  0  0  0  0  0
  160.1400  210.9380  152.9630 C   0  0  0  0  0  2  0  0  0  0  0  0
  158.8110  211.5850  152.6090 C   0  0  0  0  0  2  0  0  0  0  0  0
  158.9980  213.0280  152.1660 C   0  0  0  0  0  2  0  0  0  0  0  0
  160.0360  213.1150  151.0640 C   0  0  0  0  0  2  0  0  0  0  0  0
  159.3840  213.6430  149.7990 C   0  0  0  0  0  2  0  0  0  0  0  0
  162.5120  213.8720  147.5730 C   0  0  0  0  0  2  0  0  0  0  0  0
  161.5260  214.0810  148.6920 C   0  0  0  0  0  3  0  0  0  0  0  0
  159.9110  212.7280  147.4580 C   0  0  0  0  0  3  0  0  0  0  0  0
  161.7880  213.7510  146.2250 C   0  0  2  0  0  3  0  0  0  0  0  0
  160.3170  213.5070  148.6460 C   0  0  0  0  0  0  0  0  0  0  0  0
  160.6210  212.8060  146.3270 C   0  0  0  0  0  3  0  0  0  0  0  0
  162.7250  213.2860  145.1620 C   0  0  0  0  0  3  0  0  0  0  0  0
  162.2940  213.0290  143.9820 N   0  0  0  0  0  2  0  0  0  0  0  0
  1 19  1  1  0  0  0
  1 14  1  0  0  0  0
  2  3  2  0  0  0  0
  2  1  1  0  0  0  0
  4  7  2  0  0  0  0
  5  4  1  0  0  0  0
  6  5  2  0  0  0  0
  6  8  1  0  0  0  0
  7  2  1  0  0  0  0
  8  9  2  0  0  0  0
  9  7  1  0  0  0  0
 10  6  1  0  0  0  0
 11 12  1  0  0  0  0
 12 13  2  0  0  0  0
 12 10  1  0  0  0  0
 14 15  1  0  0  0  0
 15 16  1  0  0  0  0
 16 17  1  0  0  0  0
 18 17  1  0  0  0  0
 20 19  1  0  0  0  0
 20 21  1  0  0  0  0
 22 21  1  0  0  0  0
 23 22  1  0  0  0  0
 24 23  1  0  0  0  0
 25 24  1  0  0  0  0
 26 27  1  0  0  0  0
 28 30  1  0  0  0  0
 29 32  1  6  0  0  0
 29 31  1  0  0  0  0
 29 26  1  0  0  0  0
 30 27  2  0  0  0  0
 30 25  1  0  0  0  0
 31 28  2  0  0  0  0
 33 32  2  0  0  0  0
M  END
>  <MODEL>
6

>  <REMARK>
 VINA RESULT:      -6.3      3.118      8.704
  Name = 
  16 active torsions:
  status: ('A' for Active; 'I' for Inactive)
    1  A    between atoms: C_1  and  C_21
    2  A    between atoms: N_3  and  C_13
    3  A    between atoms: C_4  and  C_9
    4  A    between atoms: C_4  and  C_24
    5  A    between atoms: C_6  and  C_26
    6  A    between atoms: C_6  and  C_30
    7  A    between atoms: C_8  and  C_29
    8  A    between atoms: C_8  and  C_30
    9  A    between atoms: C_9  and  C_27
   10  A    between atoms: C_12  and  C_17
   11  A    between atoms: C_12  and  C_27
   12  A    between atoms: C_15  and  N_19
   13  A    between atoms: C_15  and  C_27
   14  A    between atoms: N_19  and  C_26
   15  A    between atoms: C_20  and  C_24
   16  A    between atoms: C_25  and  C_29
                            x       y       z     vdW  Elec       q    Type
                         _______ _______ _______ _____ _____    ______ ____

>  <TORSDO>
F 16

$$$$
=
 OpenBabel11042421263D

 33 34  0  0  1  0  0  0  0  0999 V2000
  160.9140  208.7280  151.9140 C   0  0  1  0  0  3  0  0  0  0  0  0
  161.2310  207.3610  152.4490 C   0  0  0  0  0  0  0  0  0  0  0  0
  161.5960  207.2300  153.6500 O   0  0  0  0  0  0  0  0  0  0  0  0
  160.6380  206.2930  150.2700 C   0  0  0  0  0  3  0  0  0  0  0  0
  160.5190  205.1930  149.4780 N   0  0  0  0  0  0  0  0  0  0  0  0
  160.8360  203.9460  149.9210 C   0  0  0  0  0  0  0  0  0  0  0  0
  161.0990  206.1700  151.5870 C   0  0  0  0  0  0  0  0  0  0  0  0
  161.2970  203.7800  151.2340 C   0  0  0  0  0  3  0  0  0  0  0  0
  161.4260  204.8940  152.0630 C   0  0  0  0  0  3  0  0  0  0  0  0
  160.6890  202.8330  149.0280 N   0  0  0  0  0  2  0  0  0  0  0  0
  160.9420  201.4950  146.9090 C   0  0  0  0  0  1  0  0  0  0  0  0
  161.2030  202.7290  147.6950 C   0  0  0  0  0  0  0  0  0  0  0  0
  161.8690  203.6630  147.1740 O   0  0  0  0  0  0  0  0  0  0  0  0
  160.1480  209.5830  152.9260 C   0  0  0  0  0  2  0  0  0  0  0  0
  160.8480  210.8990  153.2290 C   0  0  0  0  0  2  0  0  0  0  0  0
  159.8120  211.9830  153.4530 C   0  0  0  0  0  2  0  0  0  0  0  0
  159.6500  212.8180  152.1970 C   0  0  0  0  0  2  0  0  0  0  0  0
  158.3960  212.5850  151.6300 O   0  0  0  0  0  1  0  0  0  0  0  0
  162.1580  209.4220  151.3730 C   0  0  0  0  0  2  0  0  0  0  0  0
  162.0180  209.6540  149.9460 N   0  0  0  0  0  2  0  0  0  0  0  0
  161.9700  211.0940  149.7610 C   0  0  0  0  0  2  0  0  0  0  0  0
  162.2330  211.4440  148.3040 C   0  0  0  0  0  2  0  0  0  0  0  0
  162.3590  212.9470  148.1090 C   0  0  0  0  0  2  0  0  0  0  0  0
  162.2870  213.2980  146.6350 C   0  0  0  0  0  2  0  0  0  0  0  0
  160.8980  212.9840  146.1100 C   0  0  0  0  0  2  0  0  0  0  0  0
  159.8490  212.2680  142.4800 C   0  0  0  0  0  2  0  0  0  0  0  0
  159.8390  212.3910  143.9810 C   0  0  0  0  0  3  0  0  0  0  0  0
  162.2030  213.0000  143.8980 C   0  0  0  0  0  3  0  0  0  0  0  0
  161.2210  211.7930  141.9820 C   0  0  2  0  0  3  0  0  0  0  0  0
  160.9430  212.7740  144.6360 C   0  0  0  0  0  0  0  0  0  0  0  0
  162.3280  212.5770  142.6360 C   0  0  0  0  0  3  0  0  0  0  0  0
  161.3180  211.9200  140.4990 C   0  0  0  0  0  3  0  0  0  0  0  0
  162.1360  211.1890  139.8360 N   0  0  0  0  0  2  0  0  0  0  0  0
  1 19  1  1  0  0  0
  1  2  1  0  0  0  0
  1 14  1  0  0  0  0
  2  3  2  0  0  0  0
  4  7  2  0  0  0  0
  5  6  2  0  0  0  0
  5  4  1  0  0  0  0
  6  8  1  0  0  0  0
  7  9  1  0  0  0  0
  7  2  1  0  0  0  0
  8  9  2  0  0  0  0
 10  6  1  0  0  0  0
 11 12  1  0  0  0  0
 12 10  1  0  0  0  0
 13 12  2  0  0  0  0
 14 15  1  0  0  0  0
 15 16  1  0  0  0  0
 17 16  1  0  0  0  0
 18 17  1  0  0  0  0
 20 19  1  0  0  0  0
 21 20  1  0  0  0  0
 22 21  1  0  0  0  0
 23 22  1  0  0  0  0
 24 23  1  0  0  0  0
 25 24  1  0  0  0  0
 26 27  1  0  0  0  0
 27 30  2  0  0  0  0
 28 30  1  0  0  0  0
 29 32  1  6  0  0  0
 29 26  1  0  0  0  0
 29 31  1  0  0  0  0
 30 25  1  0  0  0  0
 31 28  2  0  0  0  0
 33 32  2  0  0  0  0
M  END
>  <MODEL>
7

>  <REMARK>
 VINA RESULT:      -6.2      4.137      8.650
  Name = 
  16 active torsions:
  status: ('A' for Active; 'I' for Inactive)
    1  A    between atoms: C_1  and  C_21
    2  A    between atoms: N_3  and  C_13
    3  A    between atoms: C_4  and  C_9
    4  A    between atoms: C_4  and  C_24
    5  A    between atoms: C_6  and  C_26
    6  A    between atoms: C_6  and  C_30
    7  A    between atoms: C_8  and  C_29
    8  A    between atoms: C_8  and  C_30
    9  A    between atoms: C_9  and  C_27
   10  A    between atoms: C_12  and  C_17
   11  A    between atoms: C_12  and  C_27
   12  A    between atoms: C_15  and  N_19
   13  A    between atoms: C_15  and  C_27
   14  A    between atoms: N_19  and  C_26
   15  A    between atoms: C_20  and  C_24
   16  A    between atoms: C_25  and  C_29
                            x       y       z     vdW  Elec       q    Type
                         _______ _______ _______ _____ _____    ______ ____

>  <TORSDO>
F 16

$$$$
=
 OpenBabel11042421263D

 33 34  0  0  1  0  0  0  0  0999 V2000
  160.8390  208.4770  152.3350 C   0  0  1  0  0  3  0  0  0  0  0  0
  161.7590  208.7670  151.1830 C   0  0  0  0  0  0  0  0  0  0  0  0
  162.5570  209.7420  151.2520 O   0  0  0  0  0  0  0  0  0  0  0  0
  162.6870  208.1030  148.9610 C   0  0  0  0  0  3  0  0  0  0  0  0
  162.6750  207.3090  147.8560 N   0  0  0  0  0  0  0  0  0  0  0  0
  161.7670  206.3080  147.6950 C   0  0  0  0  0  0  0  0  0  0  0  0
  161.7480  207.9090  149.9820 C   0  0  0  0  0  0  0  0  0  0  0  0
  160.8090  206.0840  148.6920 C   0  0  0  0  0  3  0  0  0  0  0  0
  160.8030  206.8860  149.8330 C   0  0  0  0  0  3  0  0  0  0  0  0
  161.8180  205.5090  146.5050 N   0  0  0  0  0  2  0  0  0  0  0  0
  161.1760  204.7080  144.2060 C   0  0  0  0  0  1  0  0  0  0  0  0
  160.9840  205.6380  145.3480 C   0  0  0  0  0  0  0  0  0  0  0  0
  160.0890  206.5220  145.2800 O   0  0  0  0  0  0  0  0  0  0  0  0
  161.5640  207.7930  153.4970 C   0  0  0  0  0  2  0  0  0  0  0  0
  161.0750  206.3730  153.7380 C   0  0  0  0  0  2  0  0  0  0  0  0
  161.7890  205.4250  152.7950 C   0  0  0  0  0  2  0  0  0  0  0  0
  160.8280  204.3640  152.2930 C   0  0  0  0  0  2  0  0  0  0  0  0
  161.5280  203.3850  151.5850 O   0  0  0  0  0  1  0  0  0  0  0  0
  160.0700  209.7190  152.7670 C   0  0  0  0  0  2  0  0  0  0  0  0
  160.6980  210.3140  153.9340 N   0  0  0  0  0  2  0  0  0  0  0  0
  160.1620  211.6590  154.0560 C   0  0  0  0  0  2  0  0  0  0  0  0
  159.6560  212.1440  152.7060 C   0  0  0  0  0  2  0  0  0  0  0  0
  158.7160  213.3300  152.8610 C   0  0  0  0  0  2  0  0  0  0  0  0
  158.9850  214.3650  151.7860 C   0  0  0  0  0  2  0  0  0  0  0  0
  157.9320  214.2480  150.7000 C   0  0  0  0  0  2  0  0  0  0  0  0
  160.5210  213.2370  148.0420 C   0  0  0  0  0  2  0  0  0  0  0  0
  159.8780  213.8150  149.2760 C   0  0  0  0  0  3  0  0  0  0  0  0
  157.6960  213.2030  148.3660 C   0  0  0  0  0  3  0  0  0  0  0  0
  159.6090  213.4120  146.8200 C   0  0  2  0  0  3  0  0  0  0  0  0
  158.5500  213.7600  149.4360 C   0  0  0  0  0  0  0  0  0  0  0  0
  158.1970  213.0000  147.1430 C   0  0  0  0  0  3  0  0  0  0  0  0
  160.1170  212.6190  145.6640 C   0  0  0  0  0  3  0  0  0  0  0  0
  159.3130  212.2070  144.7540 N   0  0  0  0  0  2  0  0  0  0  0  0
  1 19  1  1  0  0  0
  1 14  1  0  0  0  0
  2  3  2  0  0  0  0
  2  1  1  0  0  0  0
  4  7  2  0  0  0  0
  5  4  1  0  0  0  0
  6  5  2  0  0  0  0
  6  8  1  0  0  0  0
  7  2  1  0  0  0  0
  8  9  2  0  0  0  0
  9  7  1  0  0  0  0
 10  6  1  0  0  0  0
 11 12  1  0  0  0  0
 12 10  1  0  0  0  0
 13 12  2  0  0  0  0
 14 15  1  0  0  0  0
 16 15  1  0  0  0  0
 17 16  1  0  0  0  0
 18 17  1  0  0  0  0
 19 20  1  0  0  0  0
 20 21  1  0  0  0  0
 22 23  1  0  0  0  0
 22 21  1  0  0  0  0
 24 23  1  0  0  0  0
 25 24  1  0  0  0  0
 26 27  1  0  0  0  0
 27 30  2  0  0  0  0
 28 30  1  0  0  0  0
 29 32  1  6  0  0  0
 29 31  1  0  0  0  0
 29 26  1  0  0  0  0
 30 25  1  0  0  0  0
 31 28  2  0  0  0  0
 33 32  2  0  0  0  0
M  END
>  <MODEL>
8

>  <REMARK>
 VINA RESULT:      -6.1      3.284      8.612
  Name = 
  16 active torsions:
  status: ('A' for Active; 'I' for Inactive)
    1  A    between atoms: C_1  and  C_21
    2  A    between atoms: N_3  and  C_13
    3  A    between atoms: C_4  and  C_9
    4  A    between atoms: C_4  and  C_24
    5  A    between atoms: C_6  and  C_26
    6  A    between atoms: C_6  and  C_30
    7  A    between atoms: C_8  and  C_29
    8  A    between atoms: C_8  and  C_30
    9  A    between atoms: C_9  and  C_27
   10  A    between atoms: C_12  and  C_17
   11  A    between atoms: C_12  and  C_27
   12  A    between atoms: C_15  and  N_19
   13  A    between atoms: C_15  and  C_27
   14  A    between atoms: N_19  and  C_26
   15  A    between atoms: C_20  and  C_24
   16  A    between atoms: C_25  and  C_29
                            x       y       z     vdW  Elec       q    Type
                         _______ _______ _______ _____ _____    ______ ____

>  <TORSDO>
F 16

$$$$
=
 OpenBabel11042421263D

 33 34  0  0  1  0  0  0  0  0999 V2000
  160.9820  202.9660  146.9960 C   0  0  1  0  0  3  0  0  0  0  0  0
  161.4800  204.2630  146.4240 C   0  0  0  0  0  0  0  0  0  0  0  0
  161.8200  204.3200  145.2090 O   0  0  0  0  0  0  0  0  0  0  0  0
  162.6770  206.3100  147.2090 C   0  0  0  0  0  3  0  0  0  0  0  0
  162.7410  207.4260  147.9850 N   0  0  0  0  0  0  0  0  0  0  0  0
  161.7380  207.7730  148.8360 C   0  0  0  0  0  0  0  0  0  0  0  0
  161.5550  205.4740  147.2650 C   0  0  0  0  0  0  0  0  0  0  0  0
  160.6000  206.9610  148.9240 C   0  0  0  0  0  3  0  0  0  0  0  0
  160.5130  205.8120  148.1370 C   0  0  0  0  0  3  0  0  0  0  0  0
  161.8740  208.9670  149.6200 N   0  0  0  0  0  2  0  0  0  0  0  0
  161.9740  211.4350  150.1110 C   0  0  0  0  0  1  0  0  0  0  0  0
  161.7970  210.3180  149.1480 C   0  0  0  0  0  0  0  0  0  0  0  0
  161.5870  210.5770  147.9340 O   0  0  0  0  0  0  0  0  0  0  0  0
  161.2060  201.7890  146.0430 C   0  0  0  0  0  2  0  0  0  0  0  0
  159.9240  201.3380  145.3600 C   0  0  0  0  0  2  0  0  0  0  0  0
  160.0820  199.9070  144.8840 C   0  0  0  0  0  2  0  0  0  0  0  0
  161.1990  199.2210  145.6480 C   0  0  0  0  0  2  0  0  0  0  0  0
  161.2890  197.8830  145.2600 O   0  0  0  0  0  1  0  0  0  0  0  0
  161.5430  202.7150  148.3900 C   0  0  0  0  0  2  0  0  0  0  0  0
  160.4580  202.5730  149.3450 N   0  0  0  0  0  2  0  0  0  0  0  0
  160.9960  201.8500  150.4840 C   0  0  0  0  0  2  0  0  0  0  0  0
  161.3840  202.8230  151.5860 C   0  0  0  0  0  2  0  0  0  0  0  0
  160.5580  204.0980  151.5150 C   0  0  0  0  0  2  0  0  0  0  0  0
  161.3750  205.2860  151.9850 C   0  0  0  0  0  2  0  0  0  0  0  0
  161.2070  205.4520  153.4840 C   0  0  0  0  0  2  0  0  0  0  0  0
  160.4920  208.6920  155.4280 C   0  0  0  0  0  2  0  0  0  0  0  0
  160.5930  207.2400  155.0440 C   0  0  0  0  0  3  0  0  0  0  0  0
  161.3190  207.9290  152.8160 C   0  0  0  0  0  3  0  0  0  0  0  0
  160.0940  209.5490  154.2170 C   0  0  2  0  0  3  0  0  0  0  0  0
  161.0210  206.8900  153.8230 C   0  0  0  0  0  0  0  0  0  0  0  0
  160.9220  209.1900  153.0120 C   0  0  0  0  0  3  0  0  0  0  0  0
  160.2470  211.0010  154.5240 C   0  0  0  0  0  3  0  0  0  0  0  0
  159.2380  211.6960  154.9010 N   0  0  0  0  0  2  0  0  0  0  0  0
  1 14  1  6  0  0  0
  1 19  1  0  0  0  0
  2  1  1  0  0  0  0
  2  7  1  0  0  0  0
  3  2  2  0  0  0  0
  4  7  2  0  0  0  0
  4  5  1  0  0  0  0
  5  6  2  0  0  0  0
  6  8  1  0  0  0  0
  6 10  1  0  0  0  0
  7  9  1  0  0  0  0
  9  8  2  0  0  0  0
 12 10  1  0  0  0  0
 12 11  1  0  0  0  0
 13 12  2  0  0  0  0
 15 14  1  0  0  0  0
 16 15  1  0  0  0  0
 16 17  1  0  0  0  0
 18 17  1  0  0  0  0
 19 20  1  0  0  0  0
 20 21  1  0  0  0  0
 21 22  1  0  0  0  0
 23 22  1  0  0  0  0
 23 24  1  0  0  0  0
 24 25  1  0  0  0  0
 25 30  1  0  0  0  0
 27 26  1  0  0  0  0
 28 31  2  0  0  0  0
 28 30  1  0  0  0  0
 29 32  1  1  0  0  0
 29 26  1  0  0  0  0
 30 27  2  0  0  0  0
 31 29  1  0  0  0  0
 32 33  2  0  0  0  0
M  END
>  <MODEL>
9

>  <REMARK>
 VINA RESULT:      -6.1      3.687      8.881
  Name = 
  16 active torsions:
  status: ('A' for Active; 'I' for Inactive)
    1  A    between atoms: C_1  and  C_21
    2  A    between atoms: N_3  and  C_13
    3  A    between atoms: C_4  and  C_9
    4  A    between atoms: C_4  and  C_24
    5  A    between atoms: C_6  and  C_26
    6  A    between atoms: C_6  and  C_30
    7  A    between atoms: C_8  and  C_29
    8  A    between atoms: C_8  and  C_30
    9  A    between atoms: C_9  and  C_27
   10  A    between atoms: C_12  and  C_17
   11  A    between atoms: C_12  and  C_27
   12  A    between atoms: C_15  and  N_19
   13  A    between atoms: C_15  and  C_27
   14  A    between atoms: N_19  and  C_26
   15  A    between atoms: C_20  and  C_24
   16  A    between atoms: C_25  and  C_29
                            x       y       z     vdW  Elec       q    Type
                         _______ _______ _______ _____ _____    ______ ____

>  <TORSDO>
F 16

$$$$
