=
 OpenBabel11052409313D

 38 44  0  0  1  0  0  0  0  0999 V2000
  161.8270  208.4490  148.6080 S   0  0  0  0  0  0  0  0  0  0  0  0
  160.6190  207.7300  152.2800 C   0  0  2  0  0  3  0  0  0  0  0  0
  161.2460  208.2800  151.0330 C   0  0  0  0  0  0  0  0  0  0  0  0
  160.9110  205.5160  151.2260 N   0  0  0  0  0  0  0  0  0  0  0  0
  161.6400  209.5700  150.8740 N   0  0  0  0  0  0  0  0  0  0  0  0
  161.2820  207.5020  149.8870 C   0  0  0  0  0  0  0  0  0  0  0  0
  161.3300  208.0920  153.4890 N   0  0  0  0  0  0  0  0  0  0  0  0
  162.0150  209.8100  149.5940 C   0  0  0  0  0  0  0  0  0  0  0  0
  161.3470  205.8190  153.5490 N   0  0  0  0  0  0  0  0  0  0  0  0
  160.7500  206.0930  149.8840 C   0  0  1  0  0  3  0  0  0  0  0  0
  160.7930  206.2390  152.3080 C   0  0  0  0  0  0  0  0  0  0  0  0
  161.6450  206.8930  154.2060 C   0  0  0  0  0  3  0  0  0  0  0  0
  161.4890  205.2320  148.8770 C   0  0  0  0  0  1  0  0  0  0  0  0
  159.7500  211.9800  156.4870 C   0  0  0  0  0  2  0  0  0  0  0  0
  158.9610  211.9160  155.2450 N   0  0  0  0  0  0  0  0  0  0  0  0
  161.4490  209.4050  153.9780 N   0  0  2  0  0  0  0  0  0  0  0  0
  161.1120  210.0980  156.3580 C   0  0  2  0  0  3  0  0  0  0  0  0
  160.1780  211.4790  154.5160 C   0  0  1  0  0  3  0  0  0  0  0  0
  161.9730  209.3280  155.3640 C   0  0  2  0  0  3  0  0  0  0  0  0
  160.9980  211.5280  155.7860 C   0  0  1  0  0  0  0  0  0  0  0  0
  160.1330  210.0670  153.8660 C   0  0  0  0  0  2  0  0  0  0  0  0
  162.3170  210.7360  155.8440 C   0  0  1  0  0  3  0  0  0  0  0  0
  157.9740  210.8520  155.4250 C   0  0  0  0  0  2  0  0  0  0  0  0
  156.3120  211.4860  155.0430 S   0  0  0  0  0  0  0  0  0  0  0  0
  156.9460  213.1190  154.5570 C   0  0  0  0  0  2  0  0  0  0  0  0
  156.3980  213.4980  153.2640 N   0  0  0  0  0  2  0  0  0  0  0  0
  159.0160  214.4490  152.8890 O   0  0  0  0  0  1  0  0  0  0  0  0
  158.2100  212.2380  151.7630 O   0  0  0  0  0  0  0  0  0  0  0  0
  157.7400  213.6240  152.1430 P   0  0  1  0  0  0  0  0  0  0  0  0
  156.9430  213.4580  149.8140 C   0  0  0  0  0  1  0  0  0  0  0  0
  157.2600  214.4510  150.7430 O   0  0  0  0  0  0  0  0  0  0  0  0
  161.6930  211.9630  148.5010 C   0  0  0  0  0  3  0  0  0  0  0  0
  162.5000  211.1050  149.1150 C   0  0  0  0  0  3  0  0  0  0  0  0
  162.2020  213.2800  148.0230 C   0  0  1  0  0  3  0  0  0  0  0  0
  162.7390  213.1220  146.6150 C   0  0  0  0  0  1  0  0  0  0  0  0
  161.1660  214.2180  148.0210 O   0  0  0  0  0  0  0  0  0  0  0  0
  159.1210  213.7070  147.1550 O   0  0  0  0  0  1  0  0  0  0  0  0
  160.4570  213.9700  146.8440 C   0  0  0  0  0  2  0  0  0  0  0  0
  1  8  1  0  0  0  0
  1  6  1  0  0  0  0
  2  3  1  6  0  0  0
  2 11  1  0  0  0  0
  2  7  1  0  0  0  0
  4 11  2  0  0  0  0
  5  3  1  0  0  0  0
  6  3  2  0  0  0  0
  7 12  1  0  0  0  0
  8  5  2  0  0  0  0
  9 12  2  0  0  0  0
 10 13  1  6  0  0  0
 10  6  1  0  0  0  0
 10  4  1  0  0  0  0
 11  9  1  0  0  0  0
 15 23  1  0  0  0  0
 15 14  1  0  0  0  0
 16  7  1  1  0  0  0
 16 19  1  0  0  0  0
 18 15  1  0  0  0  0
 18 20  1  0  0  0  0
 19 22  1  0  0  0  0
 19 17  1  0  0  0  0
 20 22  1  0  0  0  0
 20 17  1  0  0  0  0
 20 14  1  0  0  0  0
 21 16  1  0  0  0  0
 21 18  1  0  0  0  0
 22 17  1  0  0  0  0
 24 23  1  0  0  0  0
 25 24  1  0  0  0  0
 26 25  1  0  0  0  0
 28 29  2  0  0  0  0
 29 27  1  0  0  0  0
 29 26  1  0  0  0  0
 30 31  1  0  0  0  0
 31 29  1  0  0  0  0
 32 33  2  0  0  0  0
 33  8  1  0  0  0  0
 34 32  1  0  0  0  0
 35 34  1  0  0  0  0
 36 34  1  0  0  0  0
 38 37  1  0  0  0  0
 38 36  1  0  0  0  0
M  END
>  <MODEL>
1

>  <REMARK>
 VINA RESULT:      -5.6      0.000      0.000
  Name = 
  11 active torsions:
  status: ('A' for Active; 'I' for Inactive)
    1  A    between atoms: N_6  and  C_8
    2  A    between atoms: C_8  and  S_29
    3  A    between atoms: N_11  and  N_18
    4  A    between atoms: C_13  and  N_15
    5  A    between atoms: C_13  and  S_29
    6  A    between atoms: N_15  and  P_20
    7  A    between atoms: P_20  and  O_24
    8  A    between atoms: C_21  and  C_22
    9  A    between atoms: C_22  and  O_26
   10  A    between atoms: C_23  and  C_38
   11  A    between atoms: O_26  and  C_32
                            x       y       z     vdW  Elec       q    Type
                         _______ _______ _______ _____ _____    ______ ____

>  <TORSDO>
F 11

$$$$
=
 OpenBabel11052409313D

 38 44  0  0  1  0  0  0  0  0999 V2000
  161.8510  211.6230  150.2260 S   0  0  0  0  0  0  0  0  0  0  0  0
  162.3470  207.7400  149.8610 C   0  0  2  0  0  3  0  0  0  0  0  0
  162.0380  209.1950  149.6650 C   0  0  0  0  0  0  0  0  0  0  0  0
  161.7140  208.1150  152.2180 N   0  0  0  0  0  0  0  0  0  0  0  0
  161.9700  209.8120  148.4570 N   0  0  0  0  0  0  0  0  0  0  0  0
  161.9870  210.0360  150.7650 C   0  0  0  0  0  0  0  0  0  0  0  0
  161.5750  206.8670  149.0000 N   0  0  0  0  0  0  0  0  0  0  0  0
  161.8390  211.1530  148.6020 C   0  0  0  0  0  0  0  0  0  0  0  0
  161.0400  206.1310  151.0830 N   0  0  0  0  0  0  0  0  0  0  0  0
  162.1840  209.5070  152.1610 C   0  0  1  0  0  3  0  0  0  0  0  0
  161.8400  207.3010  151.2040 C   0  0  0  0  0  0  0  0  0  0  0  0
  160.9030  205.9030  149.8160 C   0  0  0  0  0  3  0  0  0  0  0  0
  161.4170  210.3360  153.1740 C   0  0  0  0  0  1  0  0  0  0  0  0
  161.2410  204.4050  144.4790 C   0  0  0  0  0  2  0  0  0  0  0  0
  162.5170  204.1070  145.1500 N   0  0  0  0  0  0  0  0  0  0  0  0
  161.6880  206.8320  147.5980 N   0  0  2  0  0  0  0  0  0  0  0  0
  160.0940  205.6860  146.0480 C   0  0  2  0  0  3  0  0  0  0  0  0
  162.5430  205.4950  145.6770 C   0  0  1  0  0  3  0  0  0  0  0  0
  160.3170  206.8280  147.0320 C   0  0  2  0  0  3  0  0  0  0  0  0
  161.2260  205.8120  145.0050 C   0  0  1  0  0  0  0  0  0  0  0  0
  162.4990  205.6550  147.2240 C   0  0  0  0  0  2  0  0  0  0  0  0
  160.4030  207.0080  145.5190 C   0  0  1  0  0  3  0  0  0  0  0  0
  162.2350  203.0990  146.1720 C   0  0  0  0  0  2  0  0  0  0  0  0
  160.7930  202.1090  145.6730 S   0  0  0  0  0  0  0  0  0  0  0  0
  160.7980  201.1530  147.2190 C   0  0  0  0  0  2  0  0  0  0  0  0
  161.3180  201.9690  148.3040 N   0  0  0  0  0  2  0  0  0  0  0  0
  158.7950  201.2000  149.2750 O   0  0  0  0  0  0  0  0  0  0  0  0
  160.9880  200.4220  150.4540 O   0  0  0  0  0  1  0  0  0  0  0  0
  160.3730  201.6010  149.7350 P   0  0  1  0  0  0  0  0  0  0  0  0
  161.4050  202.7360  151.6680 C   0  0  0  0  0  1  0  0  0  0  0  0
  160.3460  202.9360  150.7800 O   0  0  0  0  0  0  0  0  0  0  0  0
  160.5820  212.2610  146.8340 C   0  0  0  0  0  3  0  0  0  0  0  0
  161.7290  212.0880  147.4820 C   0  0  0  0  0  3  0  0  0  0  0  0
  160.4860  213.2210  145.6970 C   0  0  1  0  0  3  0  0  0  0  0  0
  161.8730  213.7390  145.3680 C   0  0  0  0  0  1  0  0  0  0  0  0
  159.9540  212.5790  144.5750 O   0  0  0  0  0  0  0  0  0  0  0  0
  160.6390  211.7370  142.5720 O   0  0  0  0  0  1  0  0  0  0  0  0
  160.9930  212.5600  143.6430 C   0  0  0  0  0  2  0  0  0  0  0  0
  1  6  1  0  0  0  0
  2  3  1  6  0  0  0
  2 11  1  0  0  0  0
  3  6  2  0  0  0  0
  5  8  2  0  0  0  0
  5  3  1  0  0  0  0
  6 10  1  0  0  0  0
  7 12  1  0  0  0  0
  7  2  1  0  0  0  0
  8  1  1  0  0  0  0
  9 11  1  0  0  0  0
 10  4  1  0  0  0  0
 10 13  1  1  0  0  0
 11  4  2  0  0  0  0
 12  9  2  0  0  0  0
 14 20  1  0  0  0  0
 14 15  1  0  0  0  0
 15 18  1  0  0  0  0
 15 23  1  0  0  0  0
 16 21  1  1  0  0  0
 16  7  1  0  0  0  0
 17 19  1  0  0  0  0
 18 21  1  0  0  0  0
 19 16  1  0  0  0  0
 20 22  1  0  0  0  0
 20 18  1  0  0  0  0
 20 17  1  0  0  0  0
 22 17  1  0  0  0  0
 22 19  1  0  0  0  0
 24 23  1  0  0  0  0
 24 25  1  0  0  0  0
 25 26  1  0  0  0  0
 26 29  1  0  0  0  0
 27 29  2  0  0  0  0
 29 28  1  0  0  0  0
 29 31  1  0  0  0  0
 31 30  1  0  0  0  0
 32 33  2  0  0  0  0
 33  8  1  0  0  0  0
 34 32  1  0  0  0  0
 35 34  1  0  0  0  0
 36 34  1  0  0  0  0
 37 38  1  0  0  0  0
 38 36  1  0  0  0  0
M  END
>  <MODEL>
2

>  <REMARK>
 VINA RESULT:      -5.0      4.812      8.680
  Name = 
  11 active torsions:
  status: ('A' for Active; 'I' for Inactive)
    1  A    between atoms: N_6  and  C_8
    2  A    between atoms: C_8  and  S_29
    3  A    between atoms: N_11  and  N_18
    4  A    between atoms: C_13  and  N_15
    5  A    between atoms: C_13  and  S_29
    6  A    between atoms: N_15  and  P_20
    7  A    between atoms: P_20  and  O_24
    8  A    between atoms: C_21  and  C_22
    9  A    between atoms: C_22  and  O_26
   10  A    between atoms: C_23  and  C_38
   11  A    between atoms: O_26  and  C_32
                            x       y       z     vdW  Elec       q    Type
                         _______ _______ _______ _____ _____    ______ ____

>  <TORSDO>
F 11

$$$$
=
 OpenBabel11052409313D

 38 44  0  0  1  0  0  0  0  0999 V2000
  161.2170  205.4890  149.3400 S   0  0  0  0  0  0  0  0  0  0  0  0
  161.2040  209.2570  150.4600 C   0  0  2  0  0  3  0  0  0  0  0  0
  161.3560  207.9520  149.7360 C   0  0  0  0  0  0  0  0  0  0  0  0
  161.6080  207.9500  152.5150 N   0  0  0  0  0  0  0  0  0  0  0  0
  161.4440  207.8260  148.3870 N   0  0  0  0  0  0  0  0  0  0  0  0
  161.2240  206.7640  150.4360 C   0  0  0  0  0  0  0  0  0  0  0  0
  162.1350  210.2740  150.0140 N   0  0  0  0  0  0  0  0  0  0  0  0
  161.4070  206.5230  148.0160 C   0  0  0  0  0  0  0  0  0  0  0  0
  162.5920  210.1020  152.2350 N   0  0  0  0  0  0  0  0  0  0  0  0
  160.9850  206.7570  151.9230 C   0  0  1  0  0  3  0  0  0  0  0  0
  161.6540  209.0920  151.8820 C   0  0  0  0  0  0  0  0  0  0  0  0
  162.8510  210.7640  151.1530 C   0  0  0  0  0  3  0  0  0  0  0  0
  161.5710  205.5140  152.5660 C   0  0  0  0  0  1  0  0  0  0  0  0
  161.4010  214.2490  146.8110 C   0  0  0  0  0  2  0  0  0  0  0  0
  160.1260  213.5830  147.1270 N   0  0  0  0  0  0  0  0  0  0  0  0
  162.1340  210.8440  148.7280 N   0  0  2  0  0  0  0  0  0  0  0  0
  162.9370  213.1450  148.1660 C   0  0  2  0  0  3  0  0  0  0  0  0
  160.8360  212.2800  147.1600 C   0  0  1  0  0  3  0  0  0  0  0  0
  163.3100  211.7420  148.6290 C   0  0  2  0  0  3  0  0  0  0  0  0
  162.1550  212.9510  146.8490 C   0  0  1  0  0  0  0  0  0  0  0  0
  160.8380  211.5200  148.5170 C   0  0  0  0  0  2  0  0  0  0  0  0
  163.4600  212.2060  147.1820 C   0  0  1  0  0  3  0  0  0  0  0  0
  159.7160  214.0580  148.4480 C   0  0  0  0  0  2  0  0  0  0  0  0
  157.9190  213.8530  148.6420 S   0  0  0  0  0  0  0  0  0  0  0  0
  157.9700  214.2600  150.4140 C   0  0  0  0  0  2  0  0  0  0  0  0
  157.4910  213.1300  151.1940 N   0  0  0  0  0  2  0  0  0  0  0  0
  158.5880  211.0740  152.7660 O   0  0  0  0  0  1  0  0  0  0  0  0
  160.1080  212.8790  151.6550 O   0  0  0  0  0  0  0  0  0  0  0  0
  158.7640  212.6970  152.3210 P   0  0  1  0  0  0  0  0  0  0  0  0
  158.7970  212.8140  154.7850 C   0  0  0  0  0  1  0  0  0  0  0  0
  158.6880  213.6830  153.6990 O   0  0  0  0  0  0  0  0  0  0  0  0
  160.4190  205.6450  145.9700 C   0  0  0  0  0  3  0  0  0  0  0  0
  161.4930  206.0660  146.6280 C   0  0  0  0  0  3  0  0  0  0  0  0
  160.5240  205.1880  144.5540 C   0  0  1  0  0  3  0  0  0  0  0  0
  161.9330  205.4420  144.0550 C   0  0  0  0  0  1  0  0  0  0  0  0
  160.2440  203.8210  144.4750 O   0  0  0  0  0  0  0  0  0  0  0  0
  160.6920  202.0280  145.8080 O   0  0  0  0  0  1  0  0  0  0  0  0
  161.2130  203.2060  145.2690 C   0  0  0  0  0  2  0  0  0  0  0  0
  1  6  1  0  0  0  0
  2  3  1  6  0  0  0
  2 11  1  0  0  0  0
  3  6  2  0  0  0  0
  5  3  1  0  0  0  0
  6 10  1  0  0  0  0
  7  2  1  0  0  0  0
  7 12  1  0  0  0  0
  8  5  2  0  0  0  0
  8  1  1  0  0  0  0
 10  4  1  0  0  0  0
 10 13  1  1  0  0  0
 11  9  1  0  0  0  0
 11  4  2  0  0  0  0
 12  9  2  0  0  0  0
 14 20  1  0  0  0  0
 14 15  1  0  0  0  0
 15 18  1  0  0  0  0
 15 23  1  0  0  0  0
 16 21  1  1  0  0  0
 16  7  1  0  0  0  0
 17 19  1  0  0  0  0
 18 21  1  0  0  0  0
 19 16  1  0  0  0  0
 20 18  1  0  0  0  0
 20 22  1  0  0  0  0
 20 17  1  0  0  0  0
 22 17  1  0  0  0  0
 22 19  1  0  0  0  0
 23 24  1  0  0  0  0
 24 25  1  0  0  0  0
 25 26  1  0  0  0  0
 26 29  1  0  0  0  0
 28 29  2  0  0  0  0
 29 27  1  0  0  0  0
 29 31  1  0  0  0  0
 31 30  1  0  0  0  0
 32 33  2  0  0  0  0
 33  8  1  0  0  0  0
 34 32  1  0  0  0  0
 35 34  1  0  0  0  0
 36 34  1  0  0  0  0
 36 38  1  0  0  0  0
 38 37  1  0  0  0  0
M  END
>  <MODEL>
3

>  <REMARK>
 VINA RESULT:      -4.7      3.537      6.337
  Name = 
  11 active torsions:
  status: ('A' for Active; 'I' for Inactive)
    1  A    between atoms: N_6  and  C_8
    2  A    between atoms: C_8  and  S_29
    3  A    between atoms: N_11  and  N_18
    4  A    between atoms: C_13  and  N_15
    5  A    between atoms: C_13  and  S_29
    6  A    between atoms: N_15  and  P_20
    7  A    between atoms: P_20  and  O_24
    8  A    between atoms: C_21  and  C_22
    9  A    between atoms: C_22  and  O_26
   10  A    between atoms: C_23  and  C_38
   11  A    between atoms: O_26  and  C_32
                            x       y       z     vdW  Elec       q    Type
                         _______ _______ _______ _____ _____    ______ ____

>  <TORSDO>
F 11

$$$$
=
 OpenBabel11052409313D

 38 44  0  0  1  0  0  0  0  0999 V2000
  158.7610  213.2610  153.8720 S   0  0  0  0  0  0  0  0  0  0  0  0
  160.7460  210.0820  155.0570 C   0  0  2  0  0  3  0  0  0  0  0  0
  160.0710  211.1720  154.2800 C   0  0  0  0  0  0  0  0  0  0  0  0
  158.9390  210.3970  156.7100 N   0  0  0  0  0  0  0  0  0  0  0  0
  160.3940  211.5250  153.0090 N   0  0  0  0  0  0  0  0  0  0  0  0
  159.1780  212.0150  154.9220 C   0  0  0  0  0  0  0  0  0  0  0  0
  160.8840  208.8460  154.3130 N   0  0  0  0  0  0  0  0  0  0  0  0
  159.7300  212.6450  152.6310 C   0  0  0  0  0  0  0  0  0  0  0  0
  159.6950  208.2090  156.1430 N   0  0  0  0  0  0  0  0  0  0  0  0
  158.8310  211.8240  156.3740 C   0  0  1  0  0  3  0  0  0  0  0  0
  159.8390  209.6240  156.1630 C   0  0  0  0  0  0  0  0  0  0  0  0
  160.2990  207.7870  155.0790 C   0  0  0  0  0  3  0  0  0  0  0  0
  157.4210  212.3020  156.6690 C   0  0  0  0  0  1  0  0  0  0  0  0
  161.8380  206.7760  149.6860 C   0  0  0  0  0  2  0  0  0  0  0  0
  162.2350  205.8580  150.7680 N   0  0  0  0  0  0  0  0  0  0  0  0
  161.6830  208.6950  153.1650 N   0  0  2  0  0  0  0  0  0  0  0  0
  160.8290  208.5390  150.8190 C   0  0  2  0  0  3  0  0  0  0  0  0
  162.6460  207.0280  151.5840 C   0  0  1  0  0  3  0  0  0  0  0  0
  161.0190  209.4160  152.0520 C   0  0  2  0  0  3  0  0  0  0  0  0
  162.2300  207.9830  150.4880 C   0  0  1  0  0  0  0  0  0  0  0  0
  161.8800  207.2510  152.9180 C   0  0  0  0  0  2  0  0  0  0  0  0
  161.9620  209.4550  150.8520 C   0  0  1  0  0  3  0  0  0  0  0  0
  161.0140  205.2120  151.2460 C   0  0  0  0  0  2  0  0  0  0  0  0
  160.8720  203.5520  150.5160 S   0  0  0  0  0  0  0  0  0  0  0  0
  160.7480  204.2050  148.8240 C   0  0  0  0  0  2  0  0  0  0  0  0
  161.5700  203.4100  147.9250 N   0  0  0  0  0  2  0  0  0  0  0  0
  163.3840  204.8260  146.3110 O   0  0  0  0  0  1  0  0  0  0  0  0
  161.4230  203.4640  145.2610 O   0  0  0  0  0  0  0  0  0  0  0  0
  161.7710  204.3330  146.4480 P   0  0  1  0  0  0  0  0  0  0  0  0
  160.4750  205.9590  145.1190 C   0  0  0  0  0  1  0  0  0  0  0  0
  160.7530  205.6900  146.4600 O   0  0  0  0  0  0  0  0  0  0  0  0
  160.5870  212.7040  150.3510 C   0  0  0  0  0  3  0  0  0  0  0  0
  159.8600  213.2650  151.3110 C   0  0  0  0  0  3  0  0  0  0  0  0
  160.7050  213.3470  149.0110 C   0  0  1  0  0  3  0  0  0  0  0  0
  161.7720  212.6270  148.2090 C   0  0  0  0  0  1  0  0  0  0  0  0
  159.4840  213.2660  148.3350 O   0  0  0  0  0  0  0  0  0  0  0  0
  158.7170  213.0120  146.2050 O   0  0  0  0  0  1  0  0  0  0  0  0
  159.8100  213.3970  146.9840 C   0  0  0  0  0  2  0  0  0  0  0  0
  1  6  1  0  0  0  0
  2  3  1  6  0  0  0
  2 11  1  0  0  0  0
  3  6  2  0  0  0  0
  5  3  1  0  0  0  0
  6 10  1  0  0  0  0
  7  2  1  0  0  0  0
  7 12  1  0  0  0  0
  8  5  2  0  0  0  0
  8  1  1  0  0  0  0
  9 11  1  0  0  0  0
 10 13  1  6  0  0  0
 10  4  1  0  0  0  0
 11  4  2  0  0  0  0
 12  9  2  0  0  0  0
 14 20  1  0  0  0  0
 14 15  1  0  0  0  0
 15 23  1  0  0  0  0
 15 18  1  0  0  0  0
 16 21  1  6  0  0  0
 16  7  1  0  0  0  0
 17 22  1  0  0  0  0
 17 19  1  0  0  0  0
 18 21  1  0  0  0  0
 19 16  1  0  0  0  0
 20 17  1  0  0  0  0
 20 22  1  0  0  0  0
 20 18  1  0  0  0  0
 22 19  1  0  0  0  0
 24 23  1  0  0  0  0
 25 24  1  0  0  0  0
 26 25  1  0  0  0  0
 27 29  1  0  0  0  0
 28 29  2  0  0  0  0
 29 31  1  0  0  0  0
 29 26  1  0  0  0  0
 30 31  1  0  0  0  0
 32 33  2  0  0  0  0
 33  8  1  0  0  0  0
 34 32  1  0  0  0  0
 35 34  1  0  0  0  0
 36 34  1  0  0  0  0
 37 38  1  0  0  0  0
 38 36  1  0  0  0  0
M  END
>  <MODEL>
4

>  <REMARK>
 VINA RESULT:      -4.7      3.855      7.058
  Name = 
  11 active torsions:
  status: ('A' for Active; 'I' for Inactive)
    1  A    between atoms: N_6  and  C_8
    2  A    between atoms: C_8  and  S_29
    3  A    between atoms: N_11  and  N_18
    4  A    between atoms: C_13  and  N_15
    5  A    between atoms: C_13  and  S_29
    6  A    between atoms: N_15  and  P_20
    7  A    between atoms: P_20  and  O_24
    8  A    between atoms: C_21  and  C_22
    9  A    between atoms: C_22  and  O_26
   10  A    between atoms: C_23  and  C_38
   11  A    between atoms: O_26  and  C_32
                            x       y       z     vdW  Elec       q    Type
                         _______ _______ _______ _____ _____    ______ ____

>  <TORSDO>
F 11

$$$$
=
 OpenBabel11052409313D

 38 44  0  0  1  0  0  0  0  0999 V2000
  160.7820  208.4700  153.9150 S   0  0  0  0  0  0  0  0  0  0  0  0
  162.5220  209.0400  150.4360 C   0  0  2  0  0  3  0  0  0  0  0  0
  161.7250  209.1480  151.7020 C   0  0  0  0  0  0  0  0  0  0  0  0
  162.0110  206.6270  150.5400 N   0  0  0  0  0  0  0  0  0  0  0  0
  161.3460  210.3190  152.2760 N   0  0  0  0  0  0  0  0  0  0  0  0
  161.4920  208.0120  152.4600 C   0  0  0  0  0  0  0  0  0  0  0  0
  162.0150  209.8750  149.3650 N   0  0  0  0  0  0  0  0  0  0  0  0
  160.7840  210.1060  153.4910 C   0  0  0  0  0  0  0  0  0  0  0  0
  161.9470  207.7900  148.4610 N   0  0  0  0  0  0  0  0  0  0  0  0
  161.9780  206.6600  152.0100 C   0  0  1  0  0  3  0  0  0  0  0  0
  162.3140  207.6820  149.8320 C   0  0  0  0  0  0  0  0  0  0  0  0
  161.7820  209.0510  148.2180 C   0  0  0  0  0  3  0  0  0  0  0  0
  161.0700  205.5550  152.5150 C   0  0  0  0  0  1  0  0  0  0  0  0
  161.4110  214.4530  147.0670 C   0  0  0  0  0  2  0  0  0  0  0  0
  162.7540  213.9050  146.8090 N   0  0  0  0  0  0  0  0  0  0  0  0
  162.0090  211.2820  149.3900 N   0  0  2  0  0  0  0  0  0  0  0  0
  160.3440  212.7400  148.2240 C   0  0  2  0  0  3  0  0  0  0  0  0
  162.7580  213.3230  148.1750 C   0  0  1  0  0  3  0  0  0  0  0  0
  160.5960  211.7300  149.3370 C   0  0  2  0  0  3  0  0  0  0  0  0
  161.3740  213.8680  148.4490 C   0  0  1  0  0  0  0  0  0  0  0  0
  162.8400  211.7730  148.2710 C   0  0  0  0  0  2  0  0  0  0  0  0
  160.5430  213.2360  149.5800 C   0  0  1  0  0  3  0  0  0  0  0  0
  162.6090  212.9080  145.7490 C   0  0  0  0  0  2  0  0  0  0  0  0
  161.4330  213.5100  144.4980 S   0  0  0  0  0  0  0  0  0  0  0  0
  162.2470  212.5910  143.1560 C   0  0  0  0  0  2  0  0  0  0  0  0
  161.2720  212.2380  142.1370 N   0  0  0  0  0  2  0  0  0  0  0  0
  162.9700  210.6920  140.5150 O   0  0  0  0  0  1  0  0  0  0  0  0
  161.1260  212.2140  139.4720 O   0  0  0  0  0  0  0  0  0  0  0  0
  162.1230  212.1550  140.6060 P   0  0  1  0  0  0  0  0  0  0  0  0
  163.8900  213.2400  139.2670 C   0  0  0  0  0  1  0  0  0  0  0  0
  163.2040  213.4540  140.4640 O   0  0  0  0  0  0  0  0  0  0  0  0
  159.3350  210.9350  155.2650 C   0  0  0  0  0  3  0  0  0  0  0  0
  160.2670  211.1730  154.3490 C   0  0  0  0  0  3  0  0  0  0  0  0
  158.8220  212.0320  156.1340 C   0  0  1  0  0  3  0  0  0  0  0  0
  159.8390  213.1560  156.1650 C   0  0  0  0  0  1  0  0  0  0  0  0
  157.6130  212.5160  155.6260 O   0  0  0  0  0  0  0  0  0  0  0  0
  155.8700  211.4470  154.6210 O   0  0  0  0  0  1  0  0  0  0  0  0
  156.7250  211.4430  155.7240 C   0  0  0  0  0  2  0  0  0  0  0  0
  2 11  1  6  0  0  0
  2  3  1  0  0  0  0
  3  5  1  0  0  0  0
  3  6  2  0  0  0  0
  4 10  1  0  0  0  0
  5  8  2  0  0  0  0
  6  1  1  0  0  0  0
  7 16  1  0  0  0  0
  7  2  1  0  0  0  0
  8  1  1  0  0  0  0
  8 33  1  0  0  0  0
  9 11  1  0  0  0  0
 10  6  1  0  0  0  0
 10 13  1  6  0  0  0
 11  4  2  0  0  0  0
 12  9  2  0  0  0  0
 12  7  1  0  0  0  0
 14 20  1  0  0  0  0
 15 14  1  0  0  0  0
 15 18  1  0  0  0  0
 16 21  1  6  0  0  0
 17 20  1  0  0  0  0
 17 19  1  0  0  0  0
 17 22  1  0  0  0  0
 18 21  1  0  0  0  0
 18 20  1  0  0  0  0
 19 16  1  0  0  0  0
 19 22  1  0  0  0  0
 20 22  1  0  0  0  0
 23 15  1  0  0  0  0
 24 23  1  0  0  0  0
 25 24  1  0  0  0  0
 26 25  1  0  0  0  0
 27 29  1  0  0  0  0
 28 29  2  0  0  0  0
 29 26  1  0  0  0  0
 30 31  1  0  0  0  0
 31 29  1  0  0  0  0
 32 34  1  0  0  0  0
 33 32  2  0  0  0  0
 34 35  1  0  0  0  0
 36 38  1  0  0  0  0
 36 34  1  0  0  0  0
 37 38  1  0  0  0  0
M  END
>  <MODEL>
5

>  <REMARK>
 VINA RESULT:      -4.7      4.258      8.262
  Name = 
  11 active torsions:
  status: ('A' for Active; 'I' for Inactive)
    1  A    between atoms: N_6  and  C_8
    2  A    between atoms: C_8  and  S_29
    3  A    between atoms: N_11  and  N_18
    4  A    between atoms: C_13  and  N_15
    5  A    between atoms: C_13  and  S_29
    6  A    between atoms: N_15  and  P_20
    7  A    between atoms: P_20  and  O_24
    8  A    between atoms: C_21  and  C_22
    9  A    between atoms: C_22  and  O_26
   10  A    between atoms: C_23  and  C_38
   11  A    between atoms: O_26  and  C_32
                            x       y       z     vdW  Elec       q    Type
                         _______ _______ _______ _____ _____    ______ ____

>  <TORSDO>
F 11

$$$$
=
 OpenBabel11052409313D

 38 44  0  0  1  0  0  0  0  0999 V2000
  161.2360  211.3900  151.9070 S   0  0  0  0  0  0  0  0  0  0  0  0
  161.0410  208.2730  149.5190 C   0  0  2  0  0  3  0  0  0  0  0  0
  161.1240  209.2130  150.6850 C   0  0  0  0  0  0  0  0  0  0  0  0
  162.3480  209.9740  148.2950 N   0  0  0  0  0  0  0  0  0  0  0  0
  160.7440  208.9040  151.9510 N   0  0  0  0  0  0  0  0  0  0  0  0
  161.4370  210.5450  150.4670 C   0  0  0  0  0  0  0  0  0  0  0  0
  161.5830  206.9590  149.7990 N   0  0  0  0  0  0  0  0  0  0  0  0
  160.7800  209.9980  152.7510 C   0  0  0  0  0  0  0  0  0  0  0  0
  162.8220  207.6540  148.0230 N   0  0  0  0  0  0  0  0  0  0  0  0
  161.7470  211.0570  149.0850 C   0  0  1  0  0  3  0  0  0  0  0  0
  161.9880  208.7270  148.4460 C   0  0  0  0  0  0  0  0  0  0  0  0
  162.5730  206.6560  148.8100 C   0  0  0  0  0  3  0  0  0  0  0  0
  162.7090  212.2300  149.1390 C   0  0  0  0  0  1  0  0  0  0  0  0
  161.2620  202.2690  151.9210 C   0  0  0  0  0  2  0  0  0  0  0  0
  160.4710  202.3430  150.6810 N   0  0  0  0  0  0  0  0  0  0  0  0
  161.0360  206.0550  150.7270 N   0  0  2  0  0  0  0  0  0  0  0  0
  162.3270  204.3360  152.0050 C   0  0  2  0  0  3  0  0  0  0  0  0
  160.1290  203.7510  151.0050 C   0  0  1  0  0  3  0  0  0  0  0  0
  162.0510  205.8180  151.7820 C   0  0  2  0  0  3  0  0  0  0  0  0
  160.9490  203.6940  152.2750 C   0  0  1  0  0  0  0  0  0  0  0  0
  160.6200  204.8360  150.0040 C   0  0  0  0  0  2  0  0  0  0  0  0
  161.4130  205.0160  152.9140 C   0  0  1  0  0  3  0  0  0  0  0  0
  161.4110  202.2110  149.5690 C   0  0  0  0  0  2  0  0  0  0  0  0
  160.8280  200.9240  148.4230 S   0  0  0  0  0  0  0  0  0  0  0  0
  160.8740  202.0460  146.9930 C   0  0  0  0  0  2  0  0  0  0  0  0
  161.7130  203.1950  147.2930 N   0  0  0  0  0  2  0  0  0  0  0  0
  163.0780  204.8430  145.4700 O   0  0  0  0  0  1  0  0  0  0  0  0
  160.8620  203.6390  144.8020 O   0  0  0  0  0  0  0  0  0  0  0  0
  161.5440  204.3260  145.9630 P   0  0  1  0  0  0  0  0  0  0  0  0
  160.1040  206.2030  145.2620 C   0  0  0  0  0  1  0  0  0  0  0  0
  160.6140  205.6610  146.4420 O   0  0  0  0  0  0  0  0  0  0  0  0
  161.0660  209.1850  155.0290 C   0  0  0  0  0  3  0  0  0  0  0  0
  160.4350  209.9810  154.1730 C   0  0  0  0  0  3  0  0  0  0  0  0
  160.7050  209.1830  156.4760 C   0  0  1  0  0  3  0  0  0  0  0  0
  160.1130  207.8350  156.8370 C   0  0  0  0  0  1  0  0  0  0  0  0
  161.8450  209.4100  157.2510 O   0  0  0  0  0  0  0  0  0  0  0  0
  163.6480  210.7910  157.0720 O   0  0  0  0  0  1  0  0  0  0  0  0
  162.2660  210.6970  156.9080 C   0  0  0  0  0  2  0  0  0  0  0  0
  1  8  1  0  0  0  0
  2 11  1  6  0  0  0
  2  7  1  0  0  0  0
  2  3  1  0  0  0  0
  3  5  1  0  0  0  0
  4 11  2  0  0  0  0
  4 10  1  0  0  0  0
  5  8  2  0  0  0  0
  6  3  2  0  0  0  0
  6  1  1  0  0  0  0
  8 33  1  0  0  0  0
  9 11  1  0  0  0  0
  9 12  2  0  0  0  0
 10 13  1  1  0  0  0
 10  6  1  0  0  0  0
 12  7  1  0  0  0  0
 14 20  1  0  0  0  0
 15 18  1  0  0  0  0
 15 14  1  0  0  0  0
 16  7  1  6  0  0  0
 16 19  1  0  0  0  0
 17 20  1  0  0  0  0
 17 22  1  0  0  0  0
 18 20  1  0  0  0  0
 19 17  1  0  0  0  0
 19 22  1  0  0  0  0
 20 22  1  0  0  0  0
 21 16  1  0  0  0  0
 21 18  1  0  0  0  0
 23 15  1  0  0  0  0
 24 23  1  0  0  0  0
 25 26  1  0  0  0  0
 25 24  1  0  0  0  0
 27 29  1  0  0  0  0
 28 29  2  0  0  0  0
 29 31  1  0  0  0  0
 29 26  1  0  0  0  0
 30 31  1  0  0  0  0
 32 34  1  0  0  0  0
 33 32  2  0  0  0  0
 34 35  1  0  0  0  0
 34 36  1  0  0  0  0
 38 37  1  0  0  0  0
 38 36  1  0  0  0  0
M  END
>  <MODEL>
6

>  <REMARK>
 VINA RESULT:      -4.6      4.468      8.545
  Name = 
  11 active torsions:
  status: ('A' for Active; 'I' for Inactive)
    1  A    between atoms: N_6  and  C_8
    2  A    between atoms: C_8  and  S_29
    3  A    between atoms: N_11  and  N_18
    4  A    between atoms: C_13  and  N_15
    5  A    between atoms: C_13  and  S_29
    6  A    between atoms: N_15  and  P_20
    7  A    between atoms: P_20  and  O_24
    8  A    between atoms: C_21  and  C_22
    9  A    between atoms: C_22  and  O_26
   10  A    between atoms: C_23  and  C_38
   11  A    between atoms: O_26  and  C_32
                            x       y       z     vdW  Elec       q    Type
                         _______ _______ _______ _____ _____    ______ ____

>  <TORSDO>
F 11

$$$$
=
 OpenBabel11052409313D

 38 44  0  0  1  0  0  0  0  0999 V2000
  160.9480  204.1430  152.3750 S   0  0  0  0  0  0  0  0  0  0  0  0
  162.2270  205.9700  149.1360 C   0  0  2  0  0  3  0  0  0  0  0  0
  161.7090  205.6060  150.4960 C   0  0  0  0  0  0  0  0  0  0  0  0
  160.9990  203.9800  148.3410 N   0  0  0  0  0  0  0  0  0  0  0  0
  161.8130  206.3950  151.5970 N   0  0  0  0  0  0  0  0  0  0  0  0
  161.2460  204.3210  150.7290 C   0  0  0  0  0  0  0  0  0  0  0  0
  161.8550  207.3060  148.7180 N   0  0  0  0  0  0  0  0  0  0  0  0
  161.4050  205.7360  152.7090 C   0  0  0  0  0  0  0  0  0  0  0  0
  160.9910  205.9970  147.0710 N   0  0  0  0  0  0  0  0  0  0  0  0
  161.2030  203.2960  149.6260 C   0  0  1  0  0  3  0  0  0  0  0  0
  161.5100  205.1580  148.0970 C   0  0  0  0  0  0  0  0  0  0  0  0
  161.2000  207.2180  147.4480 C   0  0  0  0  0  3  0  0  0  0  0  0
  160.0800  202.3000  149.8470 C   0  0  0  0  0  1  0  0  0  0  0  0
  161.3400  212.3120  149.8500 C   0  0  0  0  0  2  0  0  0  0  0  0
  161.9310  212.1300  148.5130 N   0  0  0  0  0  0  0  0  0  0  0  0
  162.2990  208.4870  149.3410 N   0  0  2  0  0  0  0  0  0  0  0  0
  160.8340  210.1400  150.5140 C   0  0  2  0  0  3  0  0  0  0  0  0
  162.6490  210.9310  149.0130 C   0  0  1  0  0  3  0  0  0  0  0  0
  161.4260  208.7360  150.5140 C   0  0  2  0  0  3  0  0  0  0  0  0
  162.0390  211.0970  150.3870 C   0  0  1  0  0  0  0  0  0  0  0  0
  162.2920  209.5740  148.3410 C   0  0  0  0  0  2  0  0  0  0  0  0
  162.0110  209.8830  151.3340 C   0  0  1  0  0  3  0  0  0  0  0  0
  160.8300  211.8160  147.6020 C   0  0  0  0  0  2  0  0  0  0  0  0
  159.7590  213.2730  147.4090 S   0  0  0  0  0  0  0  0  0  0  0  0
  158.9880  212.6210  145.8960 C   0  0  0  0  0  2  0  0  0  0  0  0
  159.9620  211.8540  145.1360 N   0  0  0  0  0  2  0  0  0  0  0  0
  160.8050  211.6250  142.4650 O   0  0  0  0  0  0  0  0  0  0  0  0
  158.9560  213.3300  143.1540 O   0  0  0  0  0  1  0  0  0  0  0  0
  160.2490  212.7130  143.6350 P   0  0  1  0  0  0  0  0  0  0  0  0
  162.4680  213.3280  144.5220 C   0  0  0  0  0  1  0  0  0  0  0  0
  161.3950  213.9400  143.8710 O   0  0  0  0  0  0  0  0  0  0  0  0
  160.6400  207.3860  154.3290 C   0  0  0  0  0  3  0  0  0  0  0  0
  161.3900  206.3270  154.0480 C   0  0  0  0  0  3  0  0  0  0  0  0
  160.6330  207.9730  155.7000 C   0  0  1  0  0  3  0  0  0  0  0  0
  160.0710  206.9530  156.6720 C   0  0  0  0  0  1  0  0  0  0  0  0
  161.9360  208.3060  156.0810 O   0  0  0  0  0  0  0  0  0  0  0  0
  163.0810  210.0920  156.9100 O   0  0  0  0  0  1  0  0  0  0  0  0
  161.9210  209.6920  156.2440 C   0  0  0  0  0  2  0  0  0  0  0  0
  1  8  1  0  0  0  0
  2 11  1  6  0  0  0
  2  3  1  0  0  0  0
  3  6  2  0  0  0  0
  3  5  1  0  0  0  0
  4 10  1  0  0  0  0
  5  8  2  0  0  0  0
  6  1  1  0  0  0  0
  7  2  1  0  0  0  0
  7 16  1  0  0  0  0
  8 33  1  0  0  0  0
  9 12  2  0  0  0  0
  9 11  1  0  0  0  0
 10 13  1  1  0  0  0
 10  6  1  0  0  0  0
 11  4  2  0  0  0  0
 12  7  1  0  0  0  0
 14 20  1  0  0  0  0
 15 18  1  0  0  0  0
 15 14  1  0  0  0  0
 16 21  1  6  0  0  0
 16 19  1  0  0  0  0
 17 22  1  0  0  0  0
 18 20  1  0  0  0  0
 19 17  1  0  0  0  0
 19 22  1  0  0  0  0
 20 17  1  0  0  0  0
 20 22  1  0  0  0  0
 21 18  1  0  0  0  0
 23 15  1  0  0  0  0
 24 23  1  0  0  0  0
 25 24  1  0  0  0  0
 26 25  1  0  0  0  0
 27 29  2  0  0  0  0
 28 29  1  0  0  0  0
 29 31  1  0  0  0  0
 29 26  1  0  0  0  0
 31 30  1  0  0  0  0
 32 34  1  0  0  0  0
 33 32  2  0  0  0  0
 34 36  1  0  0  0  0
 34 35  1  0  0  0  0
 36 38  1  0  0  0  0
 38 37  1  0  0  0  0
M  END
>  <MODEL>
7

>  <REMARK>
 VINA RESULT:      -4.3      4.141      7.161
  Name = 
  11 active torsions:
  status: ('A' for Active; 'I' for Inactive)
    1  A    between atoms: N_6  and  C_8
    2  A    between atoms: C_8  and  S_29
    3  A    between atoms: N_11  and  N_18
    4  A    between atoms: C_13  and  N_15
    5  A    between atoms: C_13  and  S_29
    6  A    between atoms: N_15  and  P_20
    7  A    between atoms: P_20  and  O_24
    8  A    between atoms: C_21  and  C_22
    9  A    between atoms: C_22  and  O_26
   10  A    between atoms: C_23  and  C_38
   11  A    between atoms: O_26  and  C_32
                            x       y       z     vdW  Elec       q    Type
                         _______ _______ _______ _____ _____    ______ ____

>  <TORSDO>
F 11

$$$$
=
 OpenBabel11052409313D

 38 44  0  0  1  0  0  0  0  0999 V2000
  160.1020  212.0020  153.4670 S   0  0  0  0  0  0  0  0  0  0  0  0
  161.4100  208.3340  154.0070 C   0  0  2  0  0  3  0  0  0  0  0  0
  160.9160  209.6390  153.4560 C   0  0  0  0  0  0  0  0  0  0  0  0
  159.9780  208.8270  155.9570 N   0  0  0  0  0  0  0  0  0  0  0  0
  161.1340  210.0720  152.1880 N   0  0  0  0  0  0  0  0  0  0  0  0
  160.3490  210.5690  154.3130 C   0  0  0  0  0  0  0  0  0  0  0  0
  161.1430  207.2050  153.1380 N   0  0  0  0  0  0  0  0  0  0  0  0
  160.7130  211.3510  152.0310 C   0  0  0  0  0  0  0  0  0  0  0  0
  160.1010  206.6180  155.0710 N   0  0  0  0  0  0  0  0  0  0  0  0
  160.1710  210.2730  155.7790 C   0  0  1  0  0  3  0  0  0  0  0  0
  160.5820  207.9510  155.1990 C   0  0  0  0  0  0  0  0  0  0  0  0
  160.4330  206.2140  153.8870 C   0  0  0  0  0  3  0  0  0  0  0  0
  158.9720  211.0110  156.3450 C   0  0  0  0  0  1  0  0  0  0  0  0
  161.0960  205.2320  148.3720 C   0  0  0  0  0  2  0  0  0  0  0  0
  161.5910  204.2460  149.3480 N   0  0  0  0  0  0  0  0  0  0  0  0
  161.7150  207.0300  151.8640 N   0  0  2  0  0  0  0  0  0  0  0  0
  160.4580  207.0310  149.7020 C   0  0  2  0  0  3  0  0  0  0  0  0
  162.2390  205.3470  150.1040 C   0  0  1  0  0  3  0  0  0  0  0  0
  160.9340  207.8430  150.9010 C   0  0  2  0  0  3  0  0  0  0  0  0
  161.7260  206.3730  149.1180 C   0  0  1  0  0  0  0  0  0  0  0  0
  161.7370  205.5850  151.5570 C   0  0  0  0  0  2  0  0  0  0  0  0
  161.6560  207.8470  149.5550 C   0  0  1  0  0  3  0  0  0  0  0  0
  160.4180  203.6870  150.0190 C   0  0  0  0  0  2  0  0  0  0  0  0
  160.8410  202.0770  150.7520 S   0  0  0  0  0  0  0  0  0  0  0  0
  160.9230  201.2550  149.1320 C   0  0  0  0  0  2  0  0  0  0  0  0
  160.0150  201.9060  148.2010 N   0  0  0  0  0  2  0  0  0  0  0  0
  161.6220  200.2020  146.6470 O   0  0  0  0  0  1  0  0  0  0  0  0
  159.3750  201.1500  145.7230 O   0  0  0  0  0  0  0  0  0  0  0  0
  160.5630  201.5200  146.5810 P   0  0  1  0  0  0  0  0  0  0  0  0
  160.4860  203.3290  144.9040 C   0  0  0  0  0  1  0  0  0  0  0  0
  161.3500  202.8560  145.8940 O   0  0  0  0  0  0  0  0  0  0  0  0
  161.5950  211.6860  149.7860 C   0  0  0  0  0  3  0  0  0  0  0  0
  160.8040  212.0920  150.7720 C   0  0  0  0  0  3  0  0  0  0  0  0
  161.6720  212.4500  148.5080 C   0  0  1  0  0  3  0  0  0  0  0  0
  163.1290  212.6710  148.1500 C   0  0  0  0  0  1  0  0  0  0  0  0
  161.0490  211.7300  147.4850 O   0  0  0  0  0  0  0  0  0  0  0  0
  160.8470  213.0260  145.6220 O   0  0  0  0  0  1  0  0  0  0  0  0
  160.2430  212.6610  146.8270 C   0  0  0  0  0  2  0  0  0  0  0  0
  1  6  1  0  0  0  0
  2  3  1  6  0  0  0
  2 11  1  0  0  0  0
  3  6  2  0  0  0  0
  5  3  1  0  0  0  0
  6 10  1  0  0  0  0
  7 12  1  0  0  0  0
  7  2  1  0  0  0  0
  8  5  2  0  0  0  0
  8  1  1  0  0  0  0
  9 11  1  0  0  0  0
 10  4  1  0  0  0  0
 10 13  1  6  0  0  0
 11  4  2  0  0  0  0
 12  9  2  0  0  0  0
 14 20  1  0  0  0  0
 14 15  1  0  0  0  0
 15 23  1  0  0  0  0
 15 18  1  0  0  0  0
 16 21  1  6  0  0  0
 16  7  1  0  0  0  0
 17 19  1  0  0  0  0
 18 21  1  0  0  0  0
 19 16  1  0  0  0  0
 20 22  1  0  0  0  0
 20 17  1  0  0  0  0
 20 18  1  0  0  0  0
 22 17  1  0  0  0  0
 22 19  1  0  0  0  0
 23 24  1  0  0  0  0
 25 24  1  0  0  0  0
 26 25  1  0  0  0  0
 28 29  2  0  0  0  0
 29 27  1  0  0  0  0
 29 26  1  0  0  0  0
 30 31  1  0  0  0  0
 31 29  1  0  0  0  0
 32 33  2  0  0  0  0
 33  8  1  0  0  0  0
 34 32  1  0  0  0  0
 35 34  1  0  0  0  0
 36 34  1  0  0  0  0
 37 38  1  0  0  0  0
 38 36  1  0  0  0  0
M  END
>  <MODEL>
8

>  <REMARK>
 VINA RESULT:      -3.8      4.731      7.802
  Name = 
  11 active torsions:
  status: ('A' for Active; 'I' for Inactive)
    1  A    between atoms: N_6  and  C_8
    2  A    between atoms: C_8  and  S_29
    3  A    between atoms: N_11  and  N_18
    4  A    between atoms: C_13  and  N_15
    5  A    between atoms: C_13  and  S_29
    6  A    between atoms: N_15  and  P_20
    7  A    between atoms: P_20  and  O_24
    8  A    between atoms: C_21  and  C_22
    9  A    between atoms: C_22  and  O_26
   10  A    between atoms: C_23  and  C_38
   11  A    between atoms: O_26  and  C_32
                            x       y       z     vdW  Elec       q    Type
                         _______ _______ _______ _____ _____    ______ ____

>  <TORSDO>
F 11

$$$$
=
 OpenBabel11052409313D

 38 44  0  0  1  0  0  0  0  0999 V2000
  160.7910  204.0110  152.3750 S   0  0  0  0  0  0  0  0  0  0  0  0
  162.2310  205.8270  149.1990 C   0  0  2  0  0  3  0  0  0  0  0  0
  161.6520  205.4680  150.5350 C   0  0  0  0  0  0  0  0  0  0  0  0
  161.0040  203.8620  148.3460 N   0  0  0  0  0  0  0  0  0  0  0  0
  161.7240  206.2500  151.6420 N   0  0  0  0  0  0  0  0  0  0  0  0
  161.1590  204.1900  150.7430 C   0  0  0  0  0  0  0  0  0  0  0  0
  161.8980  207.1720  148.7720 N   0  0  0  0  0  0  0  0  0  0  0  0
  161.2610  205.5940  152.7340 C   0  0  0  0  0  0  0  0  0  0  0  0
  161.0800  205.8830  147.0860 N   0  0  0  0  0  0  0  0  0  0  0  0
  161.1440  203.1690  149.6350 C   0  0  1  0  0  3  0  0  0  0  0  0
  161.5430  205.0320  148.1280 C   0  0  0  0  0  0  0  0  0  0  0  0
  161.2940  207.0990  147.4760 C   0  0  0  0  0  3  0  0  0  0  0  0
  159.9960  202.1920  149.8060 C   0  0  0  0  0  1  0  0  0  0  0  0
  161.3650  212.1560  149.9880 C   0  0  0  0  0  2  0  0  0  0  0  0
  161.9620  211.9990  148.6510 N   0  0  0  0  0  0  0  0  0  0  0  0
  162.3360  208.3420  149.4180 N   0  0  2  0  0  0  0  0  0  0  0  0
  160.8610  209.9710  150.6120 C   0  0  2  0  0  3  0  0  0  0  0  0
  162.6810  210.7930  149.1340 C   0  0  1  0  0  3  0  0  0  0  0  0
  161.4560  208.5680  150.5900 C   0  0  2  0  0  3  0  0  0  0  0  0
  162.0640  210.9330  150.5080 C   0  0  1  0  0  0  0  0  0  0  0  0
  162.3310  209.4470  148.4370 C   0  0  0  0  0  2  0  0  0  0  0  0
  162.0350  209.7030  151.4330 C   0  0  1  0  0  3  0  0  0  0  0  0
  160.8670  211.6970  147.7300 C   0  0  0  0  0  2  0  0  0  0  0  0
  160.8850  212.8800  146.3480 S   0  0  0  0  0  0  0  0  0  0  0  0
  159.5890  213.9140  147.0930 C   0  0  0  0  0  2  0  0  0  0  0  0
  158.7250  214.4500  146.0540 N   0  0  0  0  0  2  0  0  0  0  0  0
  156.0650  214.4050  145.1450 O   0  0  0  0  0  0  0  0  0  0  0  0
  157.1040  212.3540  146.3770 O   0  0  0  0  0  1  0  0  0  0  0  0
  157.1020  213.8650  146.3690 P   0  0  1  0  0  0  0  0  0  0  0  0
  156.7220  213.3560  148.7530 C   0  0  0  0  0  1  0  0  0  0  0  0
  156.5580  214.4280  147.8740 O   0  0  0  0  0  0  0  0  0  0  0  0
  160.8640  207.4510  154.2600 C   0  0  0  0  0  3  0  0  0  0  0  0
  161.2010  206.1800  154.0740 C   0  0  0  0  0  3  0  0  0  0  0  0
  160.8040  208.0310  155.6330 C   0  0  1  0  0  3  0  0  0  0  0  0
  160.7940  206.9030  156.6460 C   0  0  0  0  0  1  0  0  0  0  0  0
  161.9190  208.8440  155.8550 O   0  0  0  0  0  0  0  0  0  0  0  0
  160.3290  210.4730  155.7780 O   0  0  0  0  0  1  0  0  0  0  0  0
  161.5810  210.0800  155.3020 C   0  0  0  0  0  2  0  0  0  0  0  0
  1  8  1  0  0  0  0
  2 11  1  6  0  0  0
  2  3  1  0  0  0  0
  3  6  2  0  0  0  0
  3  5  1  0  0  0  0
  4 10  1  0  0  0  0
  5  8  2  0  0  0  0
  6  1  1  0  0  0  0
  7  2  1  0  0  0  0
  7 16  1  0  0  0  0
  8 33  1  0  0  0  0
  9 12  2  0  0  0  0
  9 11  1  0  0  0  0
 10 13  1  1  0  0  0
 10  6  1  0  0  0  0
 11  4  2  0  0  0  0
 12  7  1  0  0  0  0
 14 20  1  0  0  0  0
 15 18  1  0  0  0  0
 15 14  1  0  0  0  0
 16 21  1  6  0  0  0
 16 19  1  0  0  0  0
 17 22  1  0  0  0  0
 18 20  1  0  0  0  0
 19 17  1  0  0  0  0
 19 22  1  0  0  0  0
 20 17  1  0  0  0  0
 20 22  1  0  0  0  0
 21 18  1  0  0  0  0
 23 15  1  0  0  0  0
 24 25  1  0  0  0  0
 24 23  1  0  0  0  0
 26 29  1  0  0  0  0
 26 25  1  0  0  0  0
 27 29  2  0  0  0  0
 29 28  1  0  0  0  0
 29 31  1  0  0  0  0
 31 30  1  0  0  0  0
 32 34  1  0  0  0  0
 33 32  2  0  0  0  0
 34 36  1  0  0  0  0
 34 35  1  0  0  0  0
 38 37  1  0  0  0  0
 38 36  1  0  0  0  0
M  END
>  <MODEL>
9

>  <REMARK>
 VINA RESULT:      -3.7      3.481      6.492
  Name = 
  11 active torsions:
  status: ('A' for Active; 'I' for Inactive)
    1  A    between atoms: N_6  and  C_8
    2  A    between atoms: C_8  and  S_29
    3  A    between atoms: N_11  and  N_18
    4  A    between atoms: C_13  and  N_15
    5  A    between atoms: C_13  and  S_29
    6  A    between atoms: N_15  and  P_20
    7  A    between atoms: P_20  and  O_24
    8  A    between atoms: C_21  and  C_22
    9  A    between atoms: C_22  and  O_26
   10  A    between atoms: C_23  and  C_38
   11  A    between atoms: O_26  and  C_32
                            x       y       z     vdW  Elec       q    Type
                         _______ _______ _______ _____ _____    ______ ____

>  <TORSDO>
F 11

$$$$
