=
 OpenBabel11042421133D

 32 34  0  0  1  0  0  0  0  0999 V2000
  161.1040  203.5850  148.8430 C   0  0  0  0  0  0  0  0  0  0  0  0
  161.1490  205.6110  150.1800 C   0  0  0  0  0  0  0  0  0  0  0  0
  160.9400  204.2320  150.0670 C   0  0  0  0  0  3  0  0  0  0  0  0
  160.8310  202.3710  146.3170 C   0  0  0  0  0  0  0  0  0  0  0  0
  161.4690  204.3170  147.7060 C   0  0  0  0  0  0  0  0  0  0  0  0
  160.5060  201.7120  147.3960 N   0  0  0  0  0  0  0  0  0  0  0  0
  161.6690  205.6950  147.8040 C   0  0  0  0  0  3  0  0  0  0  0  0
  162.5750  207.9660  151.2570 C   0  0  0  0  0  2  0  0  0  0  0  0
  162.0640  208.5480  149.9870 C   0  0  0  0  0  0  0  0  0  0  0  0
  161.4650  207.2930  152.0000 C   0  0  0  0  0  0  0  0  0  0  0  0
  161.5230  206.3570  149.0270 C   0  0  0  0  0  0  0  0  0  0  0  0
  161.6720  203.6180  146.3960 C   0  0  0  0  0  2  0  0  0  0  0  0
  160.8720  206.2090  151.5010 C   0  0  0  0  0  3  0  0  0  0  0  0
  161.6470  207.7900  149.0140 N   0  0  0  0  0  0  0  0  0  0  0  0
  162.1080  209.9660  149.8230 N   0  0  0  0  0  2  0  0  0  0  0  0
  160.9490  202.0990  148.7380 C   0  0  0  0  0  2  0  0  0  0  0  0
  161.0500  207.7640  153.2460 O   0  0  0  0  0  0  0  0  0  0  0  0
  160.7480  206.8940  154.3280 C   0  0  0  0  0  1  0  0  0  0  0  0
  160.0780  200.7210  144.8540 O   0  0  0  0  0  1  0  0  0  0  0  0
  160.3970  201.9120  145.0390 N   0  0  0  0  0  2  0  0  0  0  0  0
  161.6570  210.6260  148.6080 C   0  0  0  0  0  2  0  0  0  0  0  0
  162.4790  211.7980  148.3610 N   0  0  0  0  0  2  0  0  0  0  0  0
  160.5930  213.5520  149.1070 S   0  0  0  0  0  0  0  0  0  0  0  0
  161.9570  213.1290  148.3030 C   0  0  0  0  0  0  0  0  0  0  0  0
  162.6060  214.1200  147.4040 C   0  0  0  0  0  2  0  0  0  0  0  0
  161.6890  214.4310  146.2360 C   0  0  0  0  0  2  0  0  0  0  0  0
  162.0560  213.5900  145.0240 C   0  0  0  0  0  2  0  0  0  0  0  0
  159.6110  212.4060  145.3230 S   0  0  0  0  0  1  0  0  0  0  0  0
  160.8180  213.2050  144.2270 C   0  0  2  0  0  3  0  0  0  0  0  0
  161.1660  212.2870  143.1040 C   0  0  0  0  0  0  0  0  0  0  0  0
  160.3240  211.4460  142.7010 O   0  0  0  0  0  1  0  0  0  0  0  0
  162.4140  212.3620  142.4950 O   0  0  0  0  0  0  0  0  0  0  0  0
  1  3  1  0  0  0  0
  2 13  1  0  0  0  0
  3  2  2  0  0  0  0
  4 12  1  0  0  0  0
  4  6  2  0  0  0  0
  5  7  1  0  0  0  0
  5  1  2  0  0  0  0
  6 16  1  0  0  0  0
  7 11  2  0  0  0  0
  8 10  1  0  0  0  0
  9  8  1  0  0  0  0
 10 17  1  0  0  0  0
 11  2  1  0  0  0  0
 12  5  1  0  0  0  0
 13 10  2  0  0  0  0
 14 11  1  0  0  0  0
 14  9  2  0  0  0  0
 15  9  1  0  0  0  0
 16  1  1  0  0  0  0
 17 18  1  0  0  0  0
 19 20  1  0  0  0  0
 20  4  1  0  0  0  0
 21 15  1  0  0  0  0
 22 21  1  0  0  0  0
 24 22  1  0  0  0  0
 24 23  2  0  0  0  0
 25 24  1  0  0  0  0
 26 25  1  0  0  0  0
 27 26  1  0  0  0  0
 29 27  1  0  0  0  0
 29 28  1  1  0  0  0
 30 29  1  0  0  0  0
 31 30  1  0  0  0  0
 32 30  2  0  0  0  0
M  END
>  <MODEL>
1

>  <REMARK>
 VINA RESULT:      -8.3      0.000      0.000
  Name = 
  10 active torsions:
  status: ('A' for Active; 'I' for Inactive)
    1  A    between atoms: C_2  and  C_24
    2  A    between atoms: C_2  and  C_30
    3  A    between atoms: C_5  and  N_23
    4  A    between atoms: O_8  and  C_16
    5  A    between atoms: C_15  and  C_27
    6  A    between atoms: C_22  and  C_24
    7  A    between atoms: C_22  and  C_27
    8  A    between atoms: N_26  and  C_30
    9  A    between atoms: N_26  and  C_31
   10  A    between atoms: N_29  and  C_31
                            x       y       z     vdW  Elec       q    Type
                         _______ _______ _______ _____ _____    ______ ____

>  <TORSDO>
F 10

$$$$
=
 OpenBabel11042421133D

 32 34  0  0  1  0  0  0  0  0999 V2000
  161.1430  204.4310  148.9470 C   0  0  0  0  0  0  0  0  0  0  0  0
  161.0710  206.5780  150.0770 C   0  0  0  0  0  0  0  0  0  0  0  0
  160.8580  205.1950  150.0780 C   0  0  0  0  0  3  0  0  0  0  0  0
  161.1240  202.9750  146.5370 C   0  0  0  0  0  0  0  0  0  0  0  0
  161.6350  205.0470  147.7890 C   0  0  0  0  0  0  0  0  0  0  0  0
  160.6800  202.4250  147.6340 N   0  0  0  0  0  0  0  0  0  0  0  0
  161.8390  206.4270  147.7730 C   0  0  0  0  0  3  0  0  0  0  0  0
  162.4030  209.0250  151.0650 C   0  0  0  0  0  2  0  0  0  0  0  0
  162.0350  209.4810  149.6970 C   0  0  0  0  0  0  0  0  0  0  0  0
  161.2120  208.4300  151.7480 C   0  0  0  0  0  0  0  0  0  0  0  0
  161.5730  207.2070  148.9040 C   0  0  0  0  0  0  0  0  0  0  0  0
  161.9670  204.2220  146.5830 C   0  0  0  0  0  2  0  0  0  0  0  0
  160.6630  207.3030  151.2970 C   0  0  0  0  0  3  0  0  0  0  0  0
  161.7150  208.6310  148.7640 N   0  0  0  0  0  0  0  0  0  0  0  0
  162.1130  210.8760  149.4010 N   0  0  0  0  0  2  0  0  0  0  0  0
  160.9820  202.9410  148.9710 C   0  0  0  0  0  2  0  0  0  0  0  0
  160.6740  209.0210  152.8910 O   0  0  0  0  0  0  0  0  0  0  0  0
  160.0820  210.3130  152.8740 C   0  0  0  0  0  1  0  0  0  0  0  0
  160.0310  201.4340  145.1720 O   0  0  0  0  0  1  0  0  0  0  0  0
  160.8230  202.3930  145.2710 N   0  0  0  0  0  2  0  0  0  0  0  0
  161.8010  211.4130  148.0870 C   0  0  0  0  0  2  0  0  0  0  0  0
  161.1340  212.6960  148.2360 N   0  0  0  0  0  2  0  0  0  0  0  0
  158.7650  213.9540  148.2180 S   0  0  0  0  0  0  0  0  0  0  0  0
  159.9460  213.0540  147.5230 C   0  0  0  0  0  0  0  0  0  0  0  0
  159.7300  212.5040  146.1580 C   0  0  0  0  0  2  0  0  0  0  0  0
  159.3710  213.6270  145.2030 C   0  0  0  0  0  2  0  0  0  0  0  0
  160.5900  214.0700  144.4100 C   0  0  0  0  0  2  0  0  0  0  0  0
  163.2380  213.4110  144.2490 S   0  0  0  0  0  1  0  0  0  0  0  0
  161.5040  212.8910  144.1060 C   0  0  2  0  0  3  0  0  0  0  0  0
  161.2500  212.3550  142.7370 C   0  0  0  0  0  0  0  0  0  0  0  0
  161.8840  212.8180  141.7570 O   0  0  0  0  0  0  0  0  0  0  0  0
  160.3210  211.3380  142.5410 O   0  0  0  0  0  1  0  0  0  0  0  0
  1 16  1  0  0  0  0
  1  3  1  0  0  0  0
  2  3  2  0  0  0  0
  2 13  1  0  0  0  0
  4 12  1  0  0  0  0
  4  6  2  0  0  0  0
  5  1  2  0  0  0  0
  6 16  1  0  0  0  0
  7  5  1  0  0  0  0
  7 11  2  0  0  0  0
  8 10  1  0  0  0  0
  9  8  1  0  0  0  0
 10 17  1  0  0  0  0
 11  2  1  0  0  0  0
 12  5  1  0  0  0  0
 13 10  2  0  0  0  0
 14 11  1  0  0  0  0
 14  9  2  0  0  0  0
 15  9  1  0  0  0  0
 18 17  1  0  0  0  0
 19 20  1  0  0  0  0
 20  4  1  0  0  0  0
 21 22  1  0  0  0  0
 21 15  1  0  0  0  0
 24 23  2  0  0  0  0
 24 22  1  0  0  0  0
 25 24  1  0  0  0  0
 26 25  1  0  0  0  0
 27 26  1  0  0  0  0
 29 28  1  6  0  0  0
 29 27  1  0  0  0  0
 30 29  1  0  0  0  0
 31 30  2  0  0  0  0
 32 30  1  0  0  0  0
M  END
>  <MODEL>
2

>  <REMARK>
 VINA RESULT:      -7.9      1.436      1.696
  Name = 
  10 active torsions:
  status: ('A' for Active; 'I' for Inactive)
    1  A    between atoms: C_2  and  C_24
    2  A    between atoms: C_2  and  C_30
    3  A    between atoms: C_5  and  N_23
    4  A    between atoms: O_8  and  C_16
    5  A    between atoms: C_15  and  C_27
    6  A    between atoms: C_22  and  C_24
    7  A    between atoms: C_22  and  C_27
    8  A    between atoms: N_26  and  C_30
    9  A    between atoms: N_26  and  C_31
   10  A    between atoms: N_29  and  C_31
                            x       y       z     vdW  Elec       q    Type
                         _______ _______ _______ _____ _____    ______ ____

>  <TORSDO>
F 10

$$$$
=
 OpenBabel11042421133D

 32 34  0  0  1  0  0  0  0  0999 V2000
  161.0310  203.4800  149.0020 C   0  0  0  0  0  0  0  0  0  0  0  0
  161.0710  205.5660  150.2410 C   0  0  0  0  0  0  0  0  0  0  0  0
  160.8410  204.1870  150.1870 C   0  0  0  0  0  3  0  0  0  0  0  0
  160.8160  202.1500  146.5290 C   0  0  0  0  0  0  0  0  0  0  0  0
  161.4460  204.1500  147.8440 C   0  0  0  0  0  0  0  0  0  0  0  0
  160.4460  201.5490  147.6260 N   0  0  0  0  0  0  0  0  0  0  0  0
  161.6670  205.5270  147.8820 C   0  0  0  0  0  3  0  0  0  0  0  0
  162.5050  207.9460  151.2520 C   0  0  0  0  0  2  0  0  0  0  0  0
  162.0440  208.4750  149.9390 C   0  0  0  0  0  0  0  0  0  0  0  0
  161.3600  207.3280  151.9890 C   0  0  0  0  0  0  0  0  0  0  0  0
  161.4950  206.2500  149.0680 C   0  0  0  0  0  0  0  0  0  0  0  0
  161.6760  203.3850  146.5760 C   0  0  0  0  0  2  0  0  0  0  0  0
  160.7640  206.2310  151.5240 C   0  0  0  0  0  3  0  0  0  0  0  0
  161.6450  207.6780  148.9910 N   0  0  0  0  0  0  0  0  0  0  0  0
  162.1190  209.8820  149.7100 N   0  0  0  0  0  2  0  0  0  0  0  0
  160.8530  201.9930  148.9620 C   0  0  0  0  0  2  0  0  0  0  0  0
  160.9150  207.8650  153.1970 O   0  0  0  0  0  0  0  0  0  0  0  0
  161.0030  209.2510  153.4930 C   0  0  0  0  0  1  0  0  0  0  0  0
  159.6250  202.2690  144.5290 O   0  0  0  0  0  1  0  0  0  0  0  0
  160.4150  201.6380  145.2600 N   0  0  0  0  0  2  0  0  0  0  0  0
  161.7180  210.4900  148.4510 C   0  0  0  0  0  2  0  0  0  0  0  0
  162.3820  211.7750  148.3020 N   0  0  0  0  0  2  0  0  0  0  0  0
  161.5270  213.4220  146.3660 S   0  0  0  0  0  0  0  0  0  0  0  0
  161.6980  212.9770  147.9340 C   0  0  0  0  0  0  0  0  0  0  0  0
  161.2290  213.8970  149.0040 C   0  0  0  0  0  2  0  0  0  0  0  0
  159.8480  213.4790  149.4730 C   0  0  0  0  0  2  0  0  0  0  0  0
  159.5840  213.9800  150.8830 C   0  0  0  0  0  2  0  0  0  0  0  0
  157.0820  214.4530  151.8760 S   0  0  0  0  0  1  0  0  0  0  0  0
  158.3980  213.2580  151.5090 C   0  0  2  0  0  3  0  0  0  0  0  0
  158.7990  212.5500  152.7590 C   0  0  0  0  0  0  0  0  0  0  0  0
  157.9300  211.9660  153.4520 O   0  0  0  0  0  1  0  0  0  0  0  0
  160.1320  212.5250  153.1570 O   0  0  0  0  0  0  0  0  0  0  0  0
  1  3  1  0  0  0  0
  2 13  1  0  0  0  0
  3  2  2  0  0  0  0
  4 12  1  0  0  0  0
  4  6  2  0  0  0  0
  5  7  1  0  0  0  0
  5  1  2  0  0  0  0
  6 16  1  0  0  0  0
  7 11  2  0  0  0  0
  8 10  1  0  0  0  0
  9  8  1  0  0  0  0
 10 17  1  0  0  0  0
 11  2  1  0  0  0  0
 12  5  1  0  0  0  0
 13 10  2  0  0  0  0
 14 11  1  0  0  0  0
 14  9  2  0  0  0  0
 15  9  1  0  0  0  0
 16  1  1  0  0  0  0
 17 18  1  0  0  0  0
 19 20  1  0  0  0  0
 20  4  1  0  0  0  0
 21 15  1  0  0  0  0
 22 21  1  0  0  0  0
 23 24  2  0  0  0  0
 24 22  1  0  0  0  0
 24 25  1  0  0  0  0
 25 26  1  0  0  0  0
 26 27  1  0  0  0  0
 27 29  1  0  0  0  0
 29 28  1  1  0  0  0
 29 30  1  0  0  0  0
 30 32  2  0  0  0  0
 30 31  1  0  0  0  0
M  END
>  <MODEL>
3

>  <REMARK>
 VINA RESULT:      -7.8      2.962      4.070
  Name = 
  10 active torsions:
  status: ('A' for Active; 'I' for Inactive)
    1  A    between atoms: C_2  and  C_24
    2  A    between atoms: C_2  and  C_30
    3  A    between atoms: C_5  and  N_23
    4  A    between atoms: O_8  and  C_16
    5  A    between atoms: C_15  and  C_27
    6  A    between atoms: C_22  and  C_24
    7  A    between atoms: C_22  and  C_27
    8  A    between atoms: N_26  and  C_30
    9  A    between atoms: N_26  and  C_31
   10  A    between atoms: N_29  and  C_31
                            x       y       z     vdW  Elec       q    Type
                         _______ _______ _______ _____ _____    ______ ____

>  <TORSDO>
F 10

$$$$
=
 OpenBabel11042421133D

 32 34  0  0  1  0  0  0  0  0999 V2000
  160.5620  208.2000  154.9890 C   0  0  0  0  0  0  0  0  0  0  0  0
  161.0610  206.5290  153.3010 C   0  0  0  0  0  0  0  0  0  0  0  0
  160.8670  206.8850  154.6400 C   0  0  0  0  0  3  0  0  0  0  0  0
  160.5510  210.9040  155.7730 C   0  0  0  0  0  0  0  0  0  0  0  0
  160.4580  209.1830  153.9970 C   0  0  0  0  0  0  0  0  0  0  0  0
  160.6380  209.9640  156.6740 N   0  0  0  0  0  0  0  0  0  0  0  0
  160.6610  208.8420  152.6590 C   0  0  0  0  0  3  0  0  0  0  0  0
  160.3420  205.0270  150.8580 C   0  0  0  0  0  2  0  0  0  0  0  0
  161.0380  206.1860  150.2380 C   0  0  0  0  0  0  0  0  0  0  0  0
  161.1880  204.4370  151.9420 C   0  0  0  0  0  0  0  0  0  0  0  0
  160.9540  207.5250  152.2900 C   0  0  0  0  0  0  0  0  0  0  0  0
  160.1030  210.5910  154.3700 C   0  0  0  0  0  2  0  0  0  0  0  0
  161.4570  205.1290  153.0470 C   0  0  0  0  0  3  0  0  0  0  0  0
  161.2490  207.2850  150.9030 N   0  0  0  0  0  0  0  0  0  0  0  0
  161.4100  206.0990  148.8610 N   0  0  0  0  0  2  0  0  0  0  0  0
  160.2850  208.5670  156.4150 C   0  0  0  0  0  2  0  0  0  0  0  0
  161.6810  203.1360  151.8340 O   0  0  0  0  0  0  0  0  0  0  0  0
  161.1110  202.1750  150.9570 C   0  0  0  0  0  1  0  0  0  0  0  0
  159.9800  213.0850  156.3640 O   0  0  0  0  0  1  0  0  0  0  0  0
  160.8730  212.2520  156.1090 N   0  0  0  0  0  2  0  0  0  0  0  0
  162.0700  207.1880  148.1600 C   0  0  0  0  0  2  0  0  0  0  0  0
  162.4680  206.7400  146.8360 N   0  0  0  0  0  2  0  0  0  0  0  0
  160.3220  206.0770  145.3710 S   0  0  0  0  0  0  0  0  0  0  0  0
  161.7550  205.7460  146.0940 C   0  0  0  0  0  0  0  0  0  0  0  0
  162.2750  204.3530  146.0700 C   0  0  0  0  0  2  0  0  0  0  0  0
  161.9590  203.6650  147.3850 C   0  0  0  0  0  2  0  0  0  0  0  0
  160.8130  202.6800  147.2150 C   0  0  0  0  0  2  0  0  0  0  0  0
  159.8180  201.4950  144.9620 S   0  0  0  0  0  1  0  0  0  0  0  0
  161.1550  201.6130  146.1850 C   0  0  2  0  0  3  0  0  0  0  0  0
  161.3630  200.2860  146.8340 C   0  0  0  0  0  0  0  0  0  0  0  0
  161.4050  199.2460  146.1310 O   0  0  0  0  0  0  0  0  0  0  0  0
  161.5210  200.1950  148.2130 O   0  0  0  0  0  1  0  0  0  0  0  0
  1 16  1  0  0  0  0
  2  3  2  0  0  0  0
  3  1  1  0  0  0  0
  4 20  1  0  0  0  0
  4  6  2  0  0  0  0
  5 12  1  0  0  0  0
  5  1  2  0  0  0  0
  7  5  1  0  0  0  0
  8 10  1  0  0  0  0
  9  8  1  0  0  0  0
  9 14  2  0  0  0  0
 10 13  2  0  0  0  0
 11  7  2  0  0  0  0
 11  2  1  0  0  0  0
 12  4  1  0  0  0  0
 13  2  1  0  0  0  0
 14 11  1  0  0  0  0
 15  9  1  0  0  0  0
 16  6  1  0  0  0  0
 17 10  1  0  0  0  0
 18 17  1  0  0  0  0
 20 19  1  0  0  0  0
 21 15  1  0  0  0  0
 22 21  1  0  0  0  0
 23 24  2  0  0  0  0
 24 22  1  0  0  0  0
 25 24  1  0  0  0  0
 25 26  1  0  0  0  0
 27 26  1  0  0  0  0
 29 28  1  6  0  0  0
 29 30  1  0  0  0  0
 29 27  1  0  0  0  0
 30 32  1  0  0  0  0
 31 30  2  0  0  0  0
M  END
>  <MODEL>
4

>  <REMARK>
 VINA RESULT:      -7.5      5.286      9.075
  Name = 
  10 active torsions:
  status: ('A' for Active; 'I' for Inactive)
    1  A    between atoms: C_2  and  C_24
    2  A    between atoms: C_2  and  C_30
    3  A    between atoms: C_5  and  N_23
    4  A    between atoms: O_8  and  C_16
    5  A    between atoms: C_15  and  C_27
    6  A    between atoms: C_22  and  C_24
    7  A    between atoms: C_22  and  C_27
    8  A    between atoms: N_26  and  C_30
    9  A    between atoms: N_26  and  C_31
   10  A    between atoms: N_29  and  C_31
                            x       y       z     vdW  Elec       q    Type
                         _______ _______ _______ _____ _____    ______ ____

>  <TORSDO>
F 10

$$$$
=
 OpenBabel11042421133D

 32 34  0  0  1  0  0  0  0  0999 V2000
  161.2810  204.8270  148.6830 C   0  0  0  0  0  0  0  0  0  0  0  0
  161.6090  206.8160  150.0360 C   0  0  0  0  0  0  0  0  0  0  0  0
  161.6590  206.1640  148.7990 C   0  0  0  0  0  3  0  0  0  0  0  0
  161.1180  202.0200  148.5260 C   0  0  0  0  0  0  0  0  0  0  0  0
  160.8590  204.1170  149.8150 C   0  0  0  0  0  0  0  0  0  0  0  0
  161.5010  202.7100  147.4870 N   0  0  0  0  0  0  0  0  0  0  0  0
  160.8170  204.7530  151.0550 C   0  0  0  0  0  3  0  0  0  0  0  0
  160.5770  208.9000  151.8600 C   0  0  0  0  0  2  0  0  0  0  0  0
  160.9880  207.8800  152.8610 C   0  0  0  0  0  0  0  0  0  0  0  0
  161.6940  209.1590  150.8980 C   0  0  0  0  0  0  0  0  0  0  0  0
  161.1780  206.0980  151.1860 C   0  0  0  0  0  0  0  0  0  0  0  0
  160.4270  202.6880  149.6860 C   0  0  0  0  0  2  0  0  0  0  0  0
  162.1050  208.2060  150.0630 C   0  0  0  0  0  3  0  0  0  0  0  0
  161.2030  206.6420  152.5170 N   0  0  0  0  0  0  0  0  0  0  0  0
  161.0720  208.2680  154.2330 N   0  0  0  0  0  2  0  0  0  0  0  0
  161.2670  204.1500  147.3470 C   0  0  0  0  0  2  0  0  0  0  0  0
  162.3030  210.4120  150.8310 O   0  0  0  0  0  0  0  0  0  0  0  0
  162.0660  211.3180  149.7630 C   0  0  0  0  0  1  0  0  0  0  0  0
  161.5320  199.9520  147.5340 O   0  0  0  0  0  1  0  0  0  0  0  0
  161.3430  200.6130  148.5750 N   0  0  0  0  0  2  0  0  0  0  0  0
  161.4390  207.3360  155.2870 C   0  0  0  0  0  2  0  0  0  0  0  0
  161.0330  207.8770  156.5730 N   0  0  0  0  0  2  0  0  0  0  0  0
  162.7200  209.8680  157.1940 S   0  0  0  0  0  0  0  0  0  0  0  0
  161.2230  209.2450  156.9480 C   0  0  0  0  0  0  0  0  0  0  0  0
  160.0320  210.0890  157.2270 C   0  0  0  0  0  2  0  0  0  0  0  0
  159.7240  210.9580  156.0210 C   0  0  0  0  0  2  0  0  0  0  0  0
  158.3480  210.6350  155.4620 C   0  0  0  0  0  2  0  0  0  0  0  0
  159.4680  212.4210  153.7230 S   0  0  0  0  0  1  0  0  0  0  0  0
  157.9760  211.5880  154.3350 C   0  0  2  0  0  3  0  0  0  0  0  0
  156.9850  212.6030  154.7960 C   0  0  0  0  0  0  0  0  0  0  0  0
  157.1720  213.2110  155.8800 O   0  0  0  0  0  1  0  0  0  0  0  0
  155.8590  212.8870  154.0290 O   0  0  0  0  0  0  0  0  0  0  0  0
  1  3  2  0  0  0  0
  1  5  1  0  0  0  0
  2 13  1  0  0  0  0
  2 11  2  0  0  0  0
  3  2  1  0  0  0  0
  4 20  1  0  0  0  0
  4 12  1  0  0  0  0
  5  7  2  0  0  0  0
  6  4  2  0  0  0  0
  7 11  1  0  0  0  0
  8  9  1  0  0  0  0
  9 15  1  0  0  0  0
 10  8  1  0  0  0  0
 11 14  1  0  0  0  0
 12  5  1  0  0  0  0
 13 10  2  0  0  0  0
 14  9  2  0  0  0  0
 15 21  1  0  0  0  0
 16  6  1  0  0  0  0
 16  1  1  0  0  0  0
 17 10  1  0  0  0  0
 18 17  1  0  0  0  0
 19 20  1  0  0  0  0
 21 22  1  0  0  0  0
 22 24  1  0  0  0  0
 24 23  2  0  0  0  0
 24 25  1  0  0  0  0
 26 25  1  0  0  0  0
 27 26  1  0  0  0  0
 29 28  1  1  0  0  0
 29 30  1  0  0  0  0
 29 27  1  0  0  0  0
 30 31  1  0  0  0  0
 32 30  2  0  0  0  0
M  END
>  <MODEL>
5

>  <REMARK>
 VINA RESULT:      -7.5      4.028      7.029
  Name = 
  10 active torsions:
  status: ('A' for Active; 'I' for Inactive)
    1  A    between atoms: C_2  and  C_24
    2  A    between atoms: C_2  and  C_30
    3  A    between atoms: C_5  and  N_23
    4  A    between atoms: O_8  and  C_16
    5  A    between atoms: C_15  and  C_27
    6  A    between atoms: C_22  and  C_24
    7  A    between atoms: C_22  and  C_27
    8  A    between atoms: N_26  and  C_30
    9  A    between atoms: N_26  and  C_31
   10  A    between atoms: N_29  and  C_31
                            x       y       z     vdW  Elec       q    Type
                         _______ _______ _______ _____ _____    ______ ____

>  <TORSDO>
F 10

$$$$
=
 OpenBabel11042421133D

 32 34  0  0  1  0  0  0  0  0999 V2000
  161.4280  204.4600  148.3460 C   0  0  0  0  0  0  0  0  0  0  0  0
  161.2000  205.5570  150.4990 C   0  0  0  0  0  0  0  0  0  0  0  0
  161.1990  204.3960  149.7200 C   0  0  0  0  0  3  0  0  0  0  0  0
  161.2790  204.6090  145.5390 C   0  0  0  0  0  0  0  0  0  0  0  0
  161.6500  205.6980  147.7290 C   0  0  0  0  0  0  0  0  0  0  0  0
  161.0850  203.4680  146.1420 N   0  0  0  0  0  0  0  0  0  0  0  0
  161.6410  206.8650  148.4940 C   0  0  0  0  0  3  0  0  0  0  0  0
  162.2790  207.2640  152.6580 C   0  0  0  0  0  2  0  0  0  0  0  0
  161.6530  208.3120  151.8070 C   0  0  0  0  0  0  0  0  0  0  0  0
  161.3020  206.1620  152.9210 C   0  0  0  0  0  0  0  0  0  0  0  0
  161.4270  206.8170  149.8760 C   0  0  0  0  0  0  0  0  0  0  0  0
  161.9230  205.7650  146.2580 C   0  0  0  0  0  2  0  0  0  0  0  0
  160.8690  205.3870  151.9280 C   0  0  0  0  0  3  0  0  0  0  0  0
  161.3320  208.0740  150.5680 N   0  0  0  0  0  0  0  0  0  0  0  0
  161.4780  209.6190  152.3550 N   0  0  0  0  0  2  0  0  0  0  0  0
  161.4970  203.2100  147.5240 C   0  0  0  0  0  2  0  0  0  0  0  0
  160.8530  205.8990  154.2150 O   0  0  0  0  0  0  0  0  0  0  0  0
  160.4540  206.9300  155.1080 C   0  0  0  0  0  1  0  0  0  0  0  0
  161.1920  205.8040  143.5390 O   0  0  0  0  0  1  0  0  0  0  0  0
  160.8880  204.7750  144.1770 N   0  0  0  0  0  2  0  0  0  0  0  0
  160.9020  210.7140  151.5920 C   0  0  0  0  0  2  0  0  0  0  0  0
  160.3910  211.7230  152.5060 N   0  0  0  0  0  2  0  0  0  0  0  0
  158.1720  213.0440  153.2280 S   0  0  0  0  0  0  0  0  0  0  0  0
  159.3510  212.6430  152.1620 C   0  0  0  0  0  0  0  0  0  0  0  0
  159.2770  213.1620  150.7710 C   0  0  0  0  0  2  0  0  0  0  0  0
  160.4330  214.1100  150.5140 C   0  0  0  0  0  2  0  0  0  0  0  0
  160.5340  214.4470  149.0350 C   0  0  0  0  0  2  0  0  0  0  0  0
  162.5350  213.2990  147.5680 S   0  0  0  0  0  1  0  0  0  0  0  0
  160.8380  213.2050  148.2080 C   0  0  2  0  0  3  0  0  0  0  0  0
  159.8780  213.0660  147.0750 C   0  0  0  0  0  0  0  0  0  0  0  0
  158.8710  213.8140  147.0150 O   0  0  0  0  0  1  0  0  0  0  0  0
  160.0960  212.1180  146.0810 O   0  0  0  0  0  0  0  0  0  0  0  0
  1  3  1  0  0  0  0
  2 13  1  0  0  0  0
  3  2  2  0  0  0  0
  4  6  2  0  0  0  0
  4 12  1  0  0  0  0
  5  1  2  0  0  0  0
  5  7  1  0  0  0  0
  6 16  1  0  0  0  0
  7 11  2  0  0  0  0
  8 10  1  0  0  0  0
  9 15  1  0  0  0  0
  9  8  1  0  0  0  0
 10 17  1  0  0  0  0
 11  2  1  0  0  0  0
 11 14  1  0  0  0  0
 12  5  1  0  0  0  0
 13 10  2  0  0  0  0
 14  9  2  0  0  0  0
 16  1  1  0  0  0  0
 17 18  1  0  0  0  0
 19 20  1  0  0  0  0
 20  4  1  0  0  0  0
 21 15  1  0  0  0  0
 21 22  1  0  0  0  0
 24 22  1  0  0  0  0
 24 23  2  0  0  0  0
 25 24  1  0  0  0  0
 26 25  1  0  0  0  0
 27 26  1  0  0  0  0
 29 28  1  6  0  0  0
 29 27  1  0  0  0  0
 30 29  1  0  0  0  0
 31 30  1  0  0  0  0
 32 30  2  0  0  0  0
M  END
>  <MODEL>
6

>  <REMARK>
 VINA RESULT:      -6.9      2.586      3.151
  Name = 
  10 active torsions:
  status: ('A' for Active; 'I' for Inactive)
    1  A    between atoms: C_2  and  C_24
    2  A    between atoms: C_2  and  C_30
    3  A    between atoms: C_5  and  N_23
    4  A    between atoms: O_8  and  C_16
    5  A    between atoms: C_15  and  C_27
    6  A    between atoms: C_22  and  C_24
    7  A    between atoms: C_22  and  C_27
    8  A    between atoms: N_26  and  C_30
    9  A    between atoms: N_26  and  C_31
   10  A    between atoms: N_29  and  C_31
                            x       y       z     vdW  Elec       q    Type
                         _______ _______ _______ _____ _____    ______ ____

>  <TORSDO>
F 10

$$$$
=
 OpenBabel11042421133D

 32 34  0  0  1  0  0  0  0  0999 V2000
  160.2850  210.7430  153.6610 C   0  0  0  0  0  0  0  0  0  0  0  0
  161.0870  209.1310  152.0330 C   0  0  0  0  0  0  0  0  0  0  0  0
  160.7570  210.4440  152.3830 C   0  0  0  0  0  3  0  0  0  0  0  0
  158.7820  211.2820  155.9800 C   0  0  0  0  0  0  0  0  0  0  0  0
  160.1250  209.7220  154.6060 C   0  0  0  0  0  0  0  0  0  0  0  0
  158.9560  212.2150  155.0840 N   0  0  0  0  0  0  0  0  0  0  0  0
  160.4400  208.4070  154.2650 C   0  0  0  0  0  3  0  0  0  0  0  0
  163.0070  207.0480  151.1870 C   0  0  0  0  0  2  0  0  0  0  0  0
  162.0010  206.1920  151.8730 C   0  0  0  0  0  0  0  0  0  0  0  0
  162.3290  207.9570  150.2110 C   0  0  0  0  0  0  0  0  0  0  0  0
  160.9280  208.0910  152.9920 C   0  0  0  0  0  0  0  0  0  0  0  0
  159.6450  210.0470  155.9870 C   0  0  0  0  0  2  0  0  0  0  0  0
  161.5010  208.9110  150.6330 C   0  0  0  0  0  3  0  0  0  0  0  0
  161.1280  206.6990  152.6950 N   0  0  0  0  0  0  0  0  0  0  0  0
  162.0590  204.7790  151.6700 N   0  0  0  0  0  2  0  0  0  0  0  0
  159.9990  212.1590  154.0570 C   0  0  0  0  0  2  0  0  0  0  0  0
  162.5780  207.8490  148.8430 O   0  0  0  0  0  0  0  0  0  0  0  0
  161.5910  207.4070  147.9210 C   0  0  0  0  0  1  0  0  0  0  0  0
  156.8120  212.2030  156.8160 O   0  0  0  0  0  1  0  0  0  0  0  0
  157.7720  211.4230  156.9760 N   0  0  0  0  0  2  0  0  0  0  0  0
  161.1380  203.8590  152.3170 C   0  0  0  0  0  2  0  0  0  0  0  0
  160.2550  203.2780  151.3200 N   0  0  0  0  0  2  0  0  0  0  0  0
  160.8190  201.2630  149.6420 S   0  0  0  0  0  0  0  0  0  0  0  0
  160.6980  202.8510  150.0280 C   0  0  0  0  0  0  0  0  0  0  0  0
  161.1630  203.8720  149.0510 C   0  0  0  0  0  2  0  0  0  0  0  0
  161.3620  203.2280  147.6920 C   0  0  0  0  0  2  0  0  0  0  0  0
  160.6410  204.0180  146.6110 C   0  0  0  0  0  2  0  0  0  0  0  0
  163.2200  204.7100  146.0310 S   0  0  0  0  0  1  0  0  0  0  0  0
  161.5590  204.2960  145.4290 C   0  0  2  0  0  3  0  0  0  0  0  0
  161.0320  205.4130  144.5920 C   0  0  0  0  0  0  0  0  0  0  0  0
  160.0890  206.1230  145.0210 O   0  0  0  0  0  1  0  0  0  0  0  0
  161.5850  205.6780  143.3440 O   0  0  0  0  0  0  0  0  0  0  0  0
  1 16  1  0  0  0  0
  1  5  1  0  0  0  0
  2  3  1  0  0  0  0
  2 11  2  0  0  0  0
  3  1  2  0  0  0  0
  4 12  1  0  0  0  0
  4 20  1  0  0  0  0
  5 12  1  0  0  0  0
  6  4  2  0  0  0  0
  7  5  2  0  0  0  0
  8  9  1  0  0  0  0
  9 14  2  0  0  0  0
 10 13  2  0  0  0  0
 10  8  1  0  0  0  0
 11  7  1  0  0  0  0
 13  2  1  0  0  0  0
 14 11  1  0  0  0  0
 15  9  1  0  0  0  0
 15 21  1  0  0  0  0
 16  6  1  0  0  0  0
 17 10  1  0  0  0  0
 18 17  1  0  0  0  0
 19 20  1  0  0  0  0
 22 21  1  0  0  0  0
 23 24  2  0  0  0  0
 24 22  1  0  0  0  0
 25 24  1  0  0  0  0
 26 25  1  0  0  0  0
 27 26  1  0  0  0  0
 29 28  1  1  0  0  0
 29 27  1  0  0  0  0
 30 31  1  0  0  0  0
 30 29  1  0  0  0  0
 32 30  2  0  0  0  0
M  END
>  <MODEL>
7

>  <REMARK>
 VINA RESULT:      -6.8      4.759      8.983
  Name = 
  10 active torsions:
  status: ('A' for Active; 'I' for Inactive)
    1  A    between atoms: C_2  and  C_24
    2  A    between atoms: C_2  and  C_30
    3  A    between atoms: C_5  and  N_23
    4  A    between atoms: O_8  and  C_16
    5  A    between atoms: C_15  and  C_27
    6  A    between atoms: C_22  and  C_24
    7  A    between atoms: C_22  and  C_27
    8  A    between atoms: N_26  and  C_30
    9  A    between atoms: N_26  and  C_31
   10  A    between atoms: N_29  and  C_31
                            x       y       z     vdW  Elec       q    Type
                         _______ _______ _______ _____ _____    ______ ____

>  <TORSDO>
F 10

$$$$
=
 OpenBabel11042421133D

 32 34  0  0  1  0  0  0  0  0999 V2000
  161.4410  204.3990  148.2700 C   0  0  0  0  0  0  0  0  0  0  0  0
  161.2020  205.4160  150.4610 C   0  0  0  0  0  0  0  0  0  0  0  0
  161.2160  204.2830  149.6410 C   0  0  0  0  0  3  0  0  0  0  0  0
  161.2830  204.6440  145.4700 C   0  0  0  0  0  0  0  0  0  0  0  0
  161.6430  205.6610  147.6970 C   0  0  0  0  0  0  0  0  0  0  0  0
  161.1070  203.4810  146.0330 N   0  0  0  0  0  0  0  0  0  0  0  0
  161.6190  206.8000  148.5030 C   0  0  0  0  0  3  0  0  0  0  0  0
  162.2620  207.0610  152.6770 C   0  0  0  0  0  2  0  0  0  0  0  0
  161.6190  208.1290  151.8640 C   0  0  0  0  0  0  0  0  0  0  0  0
  161.3020  205.9360  152.9030 C   0  0  0  0  0  0  0  0  0  0  0  0
  161.4100  206.7000  149.8830 C   0  0  0  0  0  0  0  0  0  0  0  0
  161.9120  205.7830  146.2280 C   0  0  0  0  0  2  0  0  0  0  0  0
  160.8770  205.1900  151.8840 C   0  0  0  0  0  3  0  0  0  0  0  0
  161.2980  207.9300  150.6180 N   0  0  0  0  0  0  0  0  0  0  0  0
  161.4260  209.4130  152.4590 N   0  0  0  0  0  2  0  0  0  0  0  0
  161.5260  203.1800  147.4040 C   0  0  0  0  0  2  0  0  0  0  0  0
  160.8590  205.6220  154.1880 O   0  0  0  0  0  0  0  0  0  0  0  0
  160.3130  206.5960  155.0660 C   0  0  0  0  0  1  0  0  0  0  0  0
  161.4550  205.7010  143.4000 O   0  0  0  0  0  1  0  0  0  0  0  0
  160.8860  204.8530  144.1160 N   0  0  0  0  0  2  0  0  0  0  0  0
  160.8320  210.5260  151.7360 C   0  0  0  0  0  2  0  0  0  0  0  0
  160.7110  211.6690  152.6260 N   0  0  0  0  0  2  0  0  0  0  0  0
  158.4940  212.6980  151.5210 S   0  0  0  0  0  0  0  0  0  0  0  0
  159.5040  212.4210  152.7820 C   0  0  0  0  0  0  0  0  0  0  0  0
  159.2150  213.0580  154.0950 C   0  0  0  0  0  2  0  0  0  0  0  0
  157.8740  213.7650  154.0380 C   0  0  0  0  0  2  0  0  0  0  0  0
  157.2780  213.9010  155.4300 C   0  0  0  0  0  2  0  0  0  0  0  0
  154.7290  214.4530  156.2470 S   0  0  0  0  0  1  0  0  0  0  0  0
  155.8910  213.2770  155.4970 C   0  0  2  0  0  3  0  0  0  0  0  0
  155.9090  212.0120  156.2860 C   0  0  0  0  0  0  0  0  0  0  0  0
  156.8040  211.1570  156.0750 O   0  0  0  0  0  0  0  0  0  0  0  0
  154.9450  211.7770  157.2610 O   0  0  0  0  0  1  0  0  0  0  0  0
  1  3  1  0  0  0  0
  2 13  1  0  0  0  0
  3  2  2  0  0  0  0
  4  6  2  0  0  0  0
  4 12  1  0  0  0  0
  5  1  2  0  0  0  0
  5  7  1  0  0  0  0
  6 16  1  0  0  0  0
  7 11  2  0  0  0  0
  8 10  1  0  0  0  0
  9 15  1  0  0  0  0
  9  8  1  0  0  0  0
 10 17  1  0  0  0  0
 11  2  1  0  0  0  0
 11 14  1  0  0  0  0
 12  5  1  0  0  0  0
 13 10  2  0  0  0  0
 14  9  2  0  0  0  0
 16  1  1  0  0  0  0
 17 18  1  0  0  0  0
 19 20  1  0  0  0  0
 20  4  1  0  0  0  0
 21 15  1  0  0  0  0
 21 22  1  0  0  0  0
 22 24  1  0  0  0  0
 23 24  2  0  0  0  0
 24 25  1  0  0  0  0
 26 25  1  0  0  0  0
 26 27  1  0  0  0  0
 27 29  1  0  0  0  0
 29 28  1  1  0  0  0
 29 30  1  0  0  0  0
 30 32  1  0  0  0  0
 31 30  2  0  0  0  0
M  END
>  <MODEL>
8

>  <REMARK>
 VINA RESULT:      -6.3      4.312      6.593
  Name = 
  10 active torsions:
  status: ('A' for Active; 'I' for Inactive)
    1  A    between atoms: C_2  and  C_24
    2  A    between atoms: C_2  and  C_30
    3  A    between atoms: C_5  and  N_23
    4  A    between atoms: O_8  and  C_16
    5  A    between atoms: C_15  and  C_27
    6  A    between atoms: C_22  and  C_24
    7  A    between atoms: C_22  and  C_27
    8  A    between atoms: N_26  and  C_30
    9  A    between atoms: N_26  and  C_31
   10  A    between atoms: N_29  and  C_31
                            x       y       z     vdW  Elec       q    Type
                         _______ _______ _______ _____ _____    ______ ____

>  <TORSDO>
F 10

$$$$
=
 OpenBabel11042421133D

 32 34  0  0  1  0  0  0  0  0999 V2000
  161.2070  203.4790  149.0230 C   0  0  0  0  0  0  0  0  0  0  0  0
  161.1150  205.0160  150.8990 C   0  0  0  0  0  0  0  0  0  0  0  0
  160.9900  203.7240  150.3780 C   0  0  0  0  0  3  0  0  0  0  0  0
  161.0400  203.0550  146.2450 C   0  0  0  0  0  0  0  0  0  0  0  0
  161.5430  204.5330  148.1650 C   0  0  0  0  0  0  0  0  0  0  0  0
  160.7420  202.0890  147.0710 N   0  0  0  0  0  0  0  0  0  0  0  0
  161.6580  205.8280  148.6700 C   0  0  0  0  0  3  0  0  0  0  0  0
  162.3830  207.0190  152.6660 C   0  0  0  0  0  2  0  0  0  0  0  0
  161.8540  207.9230  151.6100 C   0  0  0  0  0  0  0  0  0  0  0  0
  161.3050  206.0970  153.1430 C   0  0  0  0  0  0  0  0  0  0  0  0
  161.4580  206.0900  150.0300 C   0  0  0  0  0  0  0  0  0  0  0  0
  161.8040  204.2650  146.7140 C   0  0  0  0  0  2  0  0  0  0  0  0
  160.7850  205.1800  152.3290 C   0  0  0  0  0  3  0  0  0  0  0  0
  161.4960  207.4660  150.4440 N   0  0  0  0  0  0  0  0  0  0  0  0
  161.8150  209.3260  151.8730 N   0  0  0  0  0  2  0  0  0  0  0  0
  161.1430  202.0840  148.4790 C   0  0  0  0  0  2  0  0  0  0  0  0
  160.8470  206.1550  154.4600 O   0  0  0  0  0  0  0  0  0  0  0  0
  160.3500  207.3520  155.0420 C   0  0  0  0  0  1  0  0  0  0  0  0
  159.7200  202.2270  144.5120 O   0  0  0  0  0  1  0  0  0  0  0  0
  160.6510  202.9730  144.8750 N   0  0  0  0  0  2  0  0  0  0  0  0
  161.3410  210.2910  150.8940 C   0  0  0  0  0  2  0  0  0  0  0  0
  160.5810  211.3300  151.5690 N   0  0  0  0  0  2  0  0  0  0  0  0
  161.0760  211.0390  154.1880 S   0  0  0  0  0  0  0  0  0  0  0  0
  160.0750  211.1970  152.9000 C   0  0  0  0  0  0  0  0  0  0  0  0
  158.6060  211.0900  153.1060 C   0  0  0  0  0  2  0  0  0  0  0  0
  158.0790  212.3720  153.7220 C   0  0  0  0  0  2  0  0  0  0  0  0
  158.2290  213.5350  152.7550 C   0  0  0  0  0  2  0  0  0  0  0  0
  155.7290  213.7120  153.8440 S   0  0  0  0  0  1  0  0  0  0  0  0
  156.9200  214.2980  152.6050 C   0  0  2  0  0  3  0  0  0  0  0  0
  156.3510  214.1260  151.2370 C   0  0  0  0  0  0  0  0  0  0  0  0
  155.1060  214.1390  151.0720 O   0  0  0  0  0  1  0  0  0  0  0  0
  157.1920  213.9590  150.1420 O   0  0  0  0  0  0  0  0  0  0  0  0
  1  3  1  0  0  0  0
  2 13  1  0  0  0  0
  3  2  2  0  0  0  0
  4 12  1  0  0  0  0
  4  6  2  0  0  0  0
  5  7  1  0  0  0  0
  5  1  2  0  0  0  0
  6 16  1  0  0  0  0
  7 11  2  0  0  0  0
  8 10  1  0  0  0  0
  9 15  1  0  0  0  0
  9  8  1  0  0  0  0
 10 17  1  0  0  0  0
 11 14  1  0  0  0  0
 11  2  1  0  0  0  0
 12  5  1  0  0  0  0
 13 10  2  0  0  0  0
 14  9  2  0  0  0  0
 16  1  1  0  0  0  0
 17 18  1  0  0  0  0
 19 20  1  0  0  0  0
 20  4  1  0  0  0  0
 21 22  1  0  0  0  0
 21 15  1  0  0  0  0
 22 24  1  0  0  0  0
 24 25  1  0  0  0  0
 24 23  2  0  0  0  0
 25 26  1  0  0  0  0
 27 26  1  0  0  0  0
 29 27  1  0  0  0  0
 29 28  1  1  0  0  0
 30 29  1  0  0  0  0
 31 30  1  0  0  0  0
 32 30  2  0  0  0  0
M  END
>  <MODEL>
9

>  <REMARK>
 VINA RESULT:      -6.3      4.206      4.931
  Name = 
  10 active torsions:
  status: ('A' for Active; 'I' for Inactive)
    1  A    between atoms: C_2  and  C_24
    2  A    between atoms: C_2  and  C_30
    3  A    between atoms: C_5  and  N_23
    4  A    between atoms: O_8  and  C_16
    5  A    between atoms: C_15  and  C_27
    6  A    between atoms: C_22  and  C_24
    7  A    between atoms: C_22  and  C_27
    8  A    between atoms: N_26  and  C_30
    9  A    between atoms: N_26  and  C_31
   10  A    between atoms: N_29  and  C_31
                            x       y       z     vdW  Elec       q    Type
                         _______ _______ _______ _____ _____    ______ ____

>  <TORSDO>
F 10

$$$$
