=
 OpenBabel11052412123D

 41 42  0  0  1  0  0  0  0  0999 V2000
  161.0860  208.5290  152.2120 C   0  0  2  0  0  3  0  0  0  0  0  0
  161.1550  207.1400  152.7920 C   0  0  0  0  0  0  0  0  0  0  0  0
  160.5170  206.7240  155.2240 O   0  0  0  0  0  0  0  0  0  0  0  0
  160.8260  206.9260  154.0430 C   0  0  0  0  0  0  0  0  0  0  0  0
  161.5590  206.0150  151.9270 C   0  0  0  0  0  0  0  0  0  0  0  0
  160.5780  205.3130  151.1520 N   0  0  0  0  0  2  0  0  0  0  0  0
  162.7790  205.7130  151.8300 O   0  0  0  0  0  0  0  0  0  0  0  0
  160.8790  204.0540  149.0880 C   0  0  0  0  0  3  0  0  0  0  0  0
  160.8720  202.8430  151.1720 C   0  0  0  0  0  0  0  0  0  0  0  0
  161.0700  201.6580  150.4620 C   0  0  0  0  0  3  0  0  0  0  0  0
  161.0740  202.8870  148.4170 N   0  0  0  0  0  0  0  0  0  0  0  0
  160.6980  202.7830  152.5150 F   0  0  0  0  0  0  0  0  0  0  0  0
  161.1810  201.6980  149.0650 C   0  0  0  0  0  0  0  0  0  0  0  0
  160.7940  204.0650  150.4810 C   0  0  0  0  0  0  0  0  0  0  0  0
  161.1300  200.4190  146.8770 C   0  0  0  0  0  1  0  0  0  0  0  0
  161.3870  200.5030  148.3060 N   0  0  0  0  0  2  0  0  0  0  0  0
  162.2090  208.8210  151.2210 C   0  0  0  0  0  2  0  0  0  0  0  0
  161.7340  209.7250  150.0900 C   0  0  0  0  0  2  0  0  0  0  0  0
  162.0200  209.1130  148.7180 C   0  0  0  0  0  2  0  0  0  0  0  0
  161.1620  206.5470  146.6720 C   0  0  0  0  0  0  0  0  0  0  0  0
  162.3730  206.1720  146.8900 N   0  0  0  0  0  0  0  0  0  0  0  0
  161.6590  207.6280  148.6120 C   0  0  2  0  0  3  0  0  0  0  0  0
  162.8440  206.7850  148.1270 C   0  0  0  0  0  2  0  0  0  0  0  0
  160.6610  207.4060  147.6290 O   0  0  0  0  0  0  0  0  0  0  0  0
  161.2920  205.3510  144.5290 C   0  0  0  0  0  1  0  0  0  0  0  0
  160.3860  206.1200  145.4730 C   0  0  0  0  0  2  0  0  0  0  0  0
  160.9830  209.6070  153.2880 C   0  0  0  0  0  2  0  0  0  0  0  0
  161.3180  210.8650  152.7750 O   0  0  0  0  0  0  0  0  0  0  0  0
  159.9250  211.8160  152.9610 P   0  0  1  0  0  0  0  0  0  0  0  0
  159.9860  213.1500  151.9180 O   0  0  0  0  0  0  0  0  0  0  0  0
  158.7040  210.9800  152.6390 O   0  0  0  0  0  1  0  0  0  0  0  0
  159.8490  212.3490  154.5740 O   0  0  0  0  0  0  0  0  0  0  0  0
  158.6830  211.7860  155.1130 C   0  0  1  0  0  3  0  0  0  0  0  0
  159.0450  210.6800  156.0590 C   0  0  0  0  0  3  0  0  0  0  0  0
  160.1600  210.7430  156.7850 C   0  0  0  0  0  2  0  0  0  0  0  0
  157.8230  212.8570  155.8010 C   0  0  1  0  0  3  0  0  0  0  0  0
  157.2070  213.9630  153.7620 O   0  0  0  0  0  1  0  0  0  0  0  0
  157.7840  214.1680  155.0180 C   0  0  0  0  0  2  0  0  0  0  0  0
  156.4120  212.3300  156.0030 C   0  0  0  0  0  2  0  0  0  0  0  0
  155.9660  211.5200  154.8010 C   0  0  0  0  0  2  0  0  0  0  0  0
  155.3920  210.2630  155.2530 N   0  0  0  0  0  1  0  0  0  0  0  0
  1 17  1  1  0  0  0
  1  2  1  0  0  0  0
  1 27  1  0  0  0  0
  2  4  2  0  0  0  0
  4  3  2  0  0  0  0
  5  2  1  0  0  0  0
  6  5  1  0  0  0  0
  7  5  2  0  0  0  0
  8 14  2  0  0  0  0
  9 12  1  0  0  0  0
 10  9  2  0  0  0  0
 11 13  2  0  0  0  0
 11  8  1  0  0  0  0
 13 10  1  0  0  0  0
 14  6  1  0  0  0  0
 14  9  1  0  0  0  0
 15 16  1  0  0  0  0
 16 13  1  0  0  0  0
 18 17  1  0  0  0  0
 19 18  1  0  0  0  0
 20 21  2  0  0  0  0
 20 24  1  0  0  0  0
 21 23  1  0  0  0  0
 22 19  1  6  0  0  0
 23 22  1  0  0  0  0
 24 22  1  0  0  0  0
 25 26  1  0  0  0  0
 26 20  1  0  0  0  0
 28 29  1  0  0  0  0
 28 27  1  0  0  0  0
 29 30  2  6  0  0  0
 29 32  1  0  0  0  0
 31 29  1  0  0  0  0
 32 33  1  0  0  0  0
 33 36  1  0  0  0  0
 33 34  1  1  0  0  0
 34 35  2  0  0  0  0
 36 38  1  6  0  0  0
 36 39  1  0  0  0  0
 37 38  1  0  0  0  0
 40 41  1  0  0  0  0
 40 39  1  0  0  0  0
M  END
>  <MODEL>
1

>  <REMARK>
 VINA RESULT:      -6.7      0.000      0.000
  Name = 
  19 active torsions:
  status: ('A' for Active; 'I' for Inactive)
    1  A    between atoms: C_1  and  C_16
    2  A    between atoms: C_1  and  C_20
    3  A    between atoms: O_2  and  C_8
    4  A    between atoms: O_2  and  P_10
    5  A    between atoms: C_5  and  C_29
    6  A    between atoms: C_7  and  C_23
    7  A    between atoms: C_7  and  C_26
    8  A    between atoms: C_8  and  C_20
    9  A    between atoms: C_9  and  C_21
   10  A    between atoms: C_9  and  C_36
   11  A    between atoms: C_9  and  C_37
   12  A    between atoms: P_10  and  O_31
   13  A    between atoms: C_12  and  C_20
   14  A    between atoms: C_12  and  C_26
   15  A    between atoms: C_13  and  C_21
   16  A    between atoms: O_31  and  C_36
   17  A    between atoms: C_32  and  C_36
   18  A    between atoms: N_34  and  C_40
   19  A    between atoms: C_35  and  N_41
                            x       y       z     vdW  Elec       q    Type
                         _______ _______ _______ _____ _____    ______ ____

>  <TORSDO>
F 19

$$$$
=
 OpenBabel11052412123D

 41 42  0  0  1  0  0  0  0  0999 V2000
  162.3040  209.1900  150.0760 C   0  0  2  0  0  3  0  0  0  0  0  0
  161.9810  208.7440  151.4780 C   0  0  0  0  0  0  0  0  0  0  0  0
  162.4540  206.3500  152.2120 O   0  0  0  0  0  0  0  0  0  0  0  0
  162.2250  207.5130  151.8560 C   0  0  0  0  0  0  0  0  0  0  0  0
  161.4240  209.7180  152.4360 C   0  0  0  0  0  0  0  0  0  0  0  0
  160.0100  209.9480  152.4920 N   0  0  0  0  0  2  0  0  0  0  0  0
  162.1940  210.3050  153.2450 O   0  0  0  0  0  0  0  0  0  0  0  0
  159.0740  212.1980  152.4800 C   0  0  0  0  0  3  0  0  0  0  0  0
  159.0910  210.9800  154.5600 C   0  0  0  0  0  0  0  0  0  0  0  0
  158.4840  212.0710  155.1820 C   0  0  0  0  0  3  0  0  0  0  0  0
  158.4810  213.2490  153.1080 N   0  0  0  0  0  0  0  0  0  0  0  0
  159.4500  209.9110  155.3130 F   0  0  0  0  0  0  0  0  0  0  0  0
  158.1710  213.2120  154.4300 C   0  0  0  0  0  0  0  0  0  0  0  0
  159.3750  211.0310  153.1850 C   0  0  0  0  0  0  0  0  0  0  0  0
  156.2750  214.2710  155.7360 C   0  0  0  0  0  1  0  0  0  0  0  0
  157.5460  214.3480  155.0350 N   0  0  0  0  0  2  0  0  0  0  0  0
  162.0410  210.6760  149.8440 C   0  0  0  0  0  2  0  0  0  0  0  0
  162.0970  211.0280  148.3620 C   0  0  0  0  0  2  0  0  0  0  0  0
  162.8320  212.3470  148.1210 C   0  0  0  0  0  2  0  0  0  0  0  0
  161.7310  212.9460  144.9690 C   0  0  0  0  0  0  0  0  0  0  0  0
  160.5850  212.6640  145.4820 N   0  0  0  0  0  0  0  0  0  0  0  0
  162.0920  213.3100  147.1870 C   0  0  2  0  0  3  0  0  0  0  0  0
  160.6510  212.8580  146.9260 C   0  0  0  0  0  2  0  0  0  0  0  0
  162.6790  213.3310  145.8950 O   0  0  0  0  0  0  0  0  0  0  0  0
  160.8840  212.0800  142.8310 C   0  0  0  0  0  1  0  0  0  0  0  0
  162.0140  212.8290  143.5110 C   0  0  0  0  0  2  0  0  0  0  0  0
  161.6300  208.3220  149.0170 C   0  0  0  0  0  2  0  0  0  0  0  0
  162.4960  207.3250  148.5550 O   0  0  0  0  0  0  0  0  0  0  0  0
  161.5170  206.2350  147.7000 P   0  0  1  0  0  0  0  0  0  0  0  0
  159.9290  206.2900  148.2900 O   0  0  0  0  0  1  0  0  0  0  0  0
  161.5220  206.6040  146.2320 O   0  0  0  0  0  0  0  0  0  0  0  0
  162.1510  204.6690  147.9020 O   0  0  0  0  0  0  0  0  0  0  0  0
  161.0840  203.7880  147.6840 C   0  0  1  0  0  3  0  0  0  0  0  0
  161.3700  202.9320  146.4850 C   0  0  0  0  0  3  0  0  0  0  0  0
  161.2670  203.4290  145.2550 C   0  0  0  0  0  2  0  0  0  0  0  0
  160.8100  202.9360  148.9330 C   0  0  1  0  0  3  0  0  0  0  0  0
  161.0620  200.7790  149.9530 O   0  0  0  0  0  1  0  0  0  0  0  0
  161.2990  201.4970  148.7790 C   0  0  0  0  0  2  0  0  0  0  0  0
  161.4610  203.5800  150.1460 C   0  0  0  0  0  2  0  0  0  0  0  0
  160.4120  203.9790  151.1660 C   0  0  0  0  0  2  0  0  0  0  0  0
  160.7440  203.3900  152.4530 N   0  0  0  0  0  1  0  0  0  0  0  0
  1 27  1  6  0  0  0
  1  2  1  0  0  0  0
  2  4  2  0  0  0  0
  2  5  1  0  0  0  0
  4  3  2  0  0  0  0
  5  6  1  0  0  0  0
  5  7  2  0  0  0  0
  6 14  1  0  0  0  0
  8 11  1  0  0  0  0
  8 14  2  0  0  0  0
  9 10  2  0  0  0  0
  9 12  1  0  0  0  0
 11 13  2  0  0  0  0
 13 16  1  0  0  0  0
 13 10  1  0  0  0  0
 14  9  1  0  0  0  0
 16 15  1  0  0  0  0
 17  1  1  0  0  0  0
 18 17  1  0  0  0  0
 19 18  1  0  0  0  0
 20 21  2  0  0  0  0
 20 24  1  0  0  0  0
 21 23  1  0  0  0  0
 22 19  1  1  0  0  0
 23 22  1  0  0  0  0
 24 22  1  0  0  0  0
 25 26  1  0  0  0  0
 26 20  1  0  0  0  0
 28 27  1  0  0  0  0
 29 31  2  6  0  0  0
 29 32  1  0  0  0  0
 29 30  1  0  0  0  0
 29 28  1  0  0  0  0
 33 34  1  6  0  0  0
 33 32  1  0  0  0  0
 33 36  1  0  0  0  0
 35 34  2  0  0  0  0
 36 38  1  6  0  0  0
 36 39  1  0  0  0  0
 38 37  1  0  0  0  0
 39 40  1  0  0  0  0
 40 41  1  0  0  0  0
M  END
>  <MODEL>
2

>  <REMARK>
 VINA RESULT:      -6.5      3.636      9.099
  Name = 
  19 active torsions:
  status: ('A' for Active; 'I' for Inactive)
    1  A    between atoms: C_1  and  C_16
    2  A    between atoms: C_1  and  C_20
    3  A    between atoms: O_2  and  C_8
    4  A    between atoms: O_2  and  P_10
    5  A    between atoms: C_5  and  C_29
    6  A    between atoms: C_7  and  C_23
    7  A    between atoms: C_7  and  C_26
    8  A    between atoms: C_8  and  C_20
    9  A    between atoms: C_9  and  C_21
   10  A    between atoms: C_9  and  C_36
   11  A    between atoms: C_9  and  C_37
   12  A    between atoms: P_10  and  O_31
   13  A    between atoms: C_12  and  C_20
   14  A    between atoms: C_12  and  C_26
   15  A    between atoms: C_13  and  C_21
   16  A    between atoms: O_31  and  C_36
   17  A    between atoms: C_32  and  C_36
   18  A    between atoms: N_34  and  C_40
   19  A    between atoms: C_35  and  N_41
                            x       y       z     vdW  Elec       q    Type
                         _______ _______ _______ _____ _____    ______ ____

>  <TORSDO>
F 19

$$$$
=
 OpenBabel11052412123D

 41 42  0  0  1  0  0  0  0  0999 V2000
  162.3080  208.9120  150.7740 C   0  0  2  0  0  3  0  0  0  0  0  0
  162.1380  209.1600  149.2980 C   0  0  0  0  0  0  0  0  0  0  0  0
  161.7000  211.5140  148.4260 O   0  0  0  0  0  0  0  0  0  0  0  0
  161.9140  210.3720  148.8490 C   0  0  0  0  0  0  0  0  0  0  0  0
  162.2670  208.0320  148.3560 C   0  0  0  0  0  0  0  0  0  0  0  0
  161.0960  207.4230  147.7950 N   0  0  0  0  0  2  0  0  0  0  0  0
  163.4140  207.6440  148.0040 O   0  0  0  0  0  0  0  0  0  0  0  0
  160.4730  206.1370  145.8210 C   0  0  0  0  0  2  0  0  0  0  0  0
  161.5880  204.9910  147.6240 C   0  0  0  0  0  0  0  0  0  0  0  0
  161.5250  203.8080  146.8860 C   0  0  0  0  0  2  0  0  0  0  0  0
  160.4240  204.9730  145.1190 N   0  0  0  0  0  0  0  0  0  0  0  0
  162.0930  204.9540  148.8820 F   0  0  0  0  0  0  0  0  0  0  0  0
  160.9400  203.8170  145.6120 C   0  0  0  0  0  0  0  0  0  0  0  0
  161.0730  206.1800  147.0810 C   0  0  0  0  0  0  0  0  0  0  0  0
  159.9280  201.5470  145.1170 C   0  0  0  0  0  1  0  0  0  0  0  0
  160.8610  202.6240  144.8270 N   0  0  0  0  0  2  0  0  0  0  0  0
  162.4820  207.4350  151.1180 C   0  0  0  0  0  2  0  0  0  0  0  0
  161.2390  206.8690  151.7940 C   0  0  0  0  0  2  0  0  0  0  0  0
  160.4900  205.8980  150.8810 C   0  0  0  0  0  2  0  0  0  0  0  0
  160.9350  202.5370  150.7970 C   0  0  0  0  0  0  0  0  0  0  0  0
  161.7050  202.7690  151.8000 N   0  0  0  0  0  0  0  0  0  0  0  0
  160.1710  204.5500  151.5340 C   0  0  2  0  0  3  0  0  0  0  0  0
  161.3320  204.0450  152.3990 C   0  0  0  0  0  2  0  0  0  0  0  0
  160.0050  203.5300  150.5630 O   0  0  0  0  0  0  0  0  0  0  0  0
  159.9790  201.3300  148.8810 C   0  0  0  0  0  1  0  0  0  0  0  0
  161.0620  201.3220  149.9430 C   0  0  0  0  0  2  0  0  0  0  0  0
  161.2060  209.5630  151.6060 C   0  0  0  0  0  2  0  0  0  0  0  0
  161.7070  210.6270  152.3650 O   0  0  0  0  0  0  0  0  0  0  0  0
  160.3450  211.3960  153.0220 P   0  0  1  0  0  0  0  0  0  0  0  0
  160.0090  212.8190  152.1650 O   0  0  0  0  0  0  0  0  0  0  0  0
  159.1550  210.4640  152.9360 O   0  0  0  0  0  1  0  0  0  0  0  0
  160.6690  211.7670  154.6490 O   0  0  0  0  0  0  0  0  0  0  0  0
  161.0980  210.5720  155.2410 C   0  0  1  0  0  3  0  0  0  0  0  0
  162.5280  210.7050  155.6750 C   0  0  0  0  0  3  0  0  0  0  0  0
  162.8670  210.5590  156.9540 C   0  0  0  0  0  2  0  0  0  0  0  0
  160.1870  210.1810  156.4150 C   0  0  1  0  0  3  0  0  0  0  0  0
  157.9480  211.0130  156.1940 O   0  0  0  0  0  1  0  0  0  0  0  0
  159.1900  211.2820  156.7730 C   0  0  0  0  0  2  0  0  0  0  0  0
  159.4470  208.8960  156.0850 C   0  0  0  0  0  2  0  0  0  0  0  0
  160.2910  207.6870  156.4390 C   0  0  0  0  0  2  0  0  0  0  0  0
  160.5900  206.9370  155.2290 N   0  0  0  0  0  1  0  0  0  0  0  0
  1 17  1  6  0  0  0
  1 27  1  0  0  0  0
  2  1  1  0  0  0  0
  3  4  2  0  0  0  0
  4  2  2  0  0  0  0
  5  2  1  0  0  0  0
  6  5  1  0  0  0  0
  7  5  2  0  0  0  0
  8 14  1  0  0  0  0
  9 12  1  0  0  0  0
 10  9  1  0  0  0  0
 11 13  2  0  0  0  0
 11  8  1  0  0  0  0
 13 10  1  0  0  0  0
 14  9  2  0  0  0  0
 14  6  1  0  0  0  0
 16 15  1  0  0  0  0
 16 13  1  0  0  0  0
 17 18  1  0  0  0  0
 19 18  1  0  0  0  0
 20 21  2  0  0  0  0
 21 23  1  0  0  0  0
 22 19  1  6  0  0  0
 22 23  1  0  0  0  0
 24 20  1  0  0  0  0
 24 22  1  0  0  0  0
 25 26  1  0  0  0  0
 26 20  1  0  0  0  0
 27 28  1  0  0  0  0
 28 29  1  0  0  0  0
 29 30  2  6  0  0  0
 29 32  1  0  0  0  0
 31 29  1  0  0  0  0
 32 33  1  0  0  0  0
 33 34  1  1  0  0  0
 33 36  1  0  0  0  0
 34 35  2  0  0  0  0
 36 39  1  6  0  0  0
 36 38  1  0  0  0  0
 37 38  1  0  0  0  0
 39 40  1  0  0  0  0
 41 40  1  0  0  0  0
M  END
>  <MODEL>
3

>  <REMARK>
 VINA RESULT:      -6.4      2.393      4.268
  Name = 
  19 active torsions:
  status: ('A' for Active; 'I' for Inactive)
    1  A    between atoms: C_1  and  C_16
    2  A    between atoms: C_1  and  C_20
    3  A    between atoms: O_2  and  C_8
    4  A    between atoms: O_2  and  P_10
    5  A    between atoms: C_5  and  C_29
    6  A    between atoms: C_7  and  C_23
    7  A    between atoms: C_7  and  C_26
    8  A    between atoms: C_8  and  C_20
    9  A    between atoms: C_9  and  C_21
   10  A    between atoms: C_9  and  C_36
   11  A    between atoms: C_9  and  C_37
   12  A    between atoms: P_10  and  O_31
   13  A    between atoms: C_12  and  C_20
   14  A    between atoms: C_12  and  C_26
   15  A    between atoms: C_13  and  C_21
   16  A    between atoms: O_31  and  C_36
   17  A    between atoms: C_32  and  C_36
   18  A    between atoms: N_34  and  C_40
   19  A    between atoms: C_35  and  N_41
                            x       y       z     vdW  Elec       q    Type
                         _______ _______ _______ _____ _____    ______ ____

>  <TORSDO>
F 19

$$$$
=
 OpenBabel11052412123D

 41 42  0  0  1  0  0  0  0  0999 V2000
  161.1360  208.6450  151.5590 C   0  0  2  0  0  3  0  0  0  0  0  0
  161.1830  207.2640  152.1580 C   0  0  0  0  0  0  0  0  0  0  0  0
  160.6360  206.9060  154.6210 O   0  0  0  0  0  0  0  0  0  0  0  0
  160.9010  207.0790  153.4250 C   0  0  0  0  0  0  0  0  0  0  0  0
  161.5110  206.1130  151.2950 C   0  0  0  0  0  0  0  0  0  0  0  0
  160.9920  206.0410  149.9600 N   0  0  0  0  0  2  0  0  0  0  0  0
  162.2970  205.2220  151.7190 O   0  0  0  0  0  0  0  0  0  0  0  0
  160.6430  203.6480  149.6620 C   0  0  0  0  0  2  0  0  0  0  0  0
  161.4760  204.9210  147.7930 C   0  0  0  0  0  0  0  0  0  0  0  0
  161.4980  203.7520  147.0310 C   0  0  0  0  0  2  0  0  0  0  0  0
  160.6710  202.5220  148.9000 N   0  0  0  0  0  0  0  0  0  0  0  0
  161.9520  206.0680  147.2480 F   0  0  0  0  0  0  0  0  0  0  0  0
  161.0770  202.5440  147.6030 C   0  0  0  0  0  0  0  0  0  0  0  0
  161.0250  204.8780  149.1230 C   0  0  0  0  0  0  0  0  0  0  0  0
  160.4080  201.1860  145.5700 C   0  0  0  0  0  1  0  0  0  0  0  0
  161.0830  201.3270  146.8510 N   0  0  0  0  0  2  0  0  0  0  0  0
  162.3460  208.9600  150.6820 C   0  0  0  0  0  2  0  0  0  0  0  0
  161.9280  209.5960  149.3610 C   0  0  0  0  0  2  0  0  0  0  0  0
  161.9990  211.1220  149.4200 C   0  0  0  0  0  2  0  0  0  0  0  0
  160.5060  213.1260  147.1270 C   0  0  0  0  0  0  0  0  0  0  0  0
  161.3710  213.9840  147.5420 N   0  0  0  0  0  0  0  0  0  0  0  0
  162.1050  211.7930  148.0470 C   0  0  2  0  0  3  0  0  0  0  0  0
  162.4840  213.2740  148.1620 C   0  0  0  0  0  2  0  0  0  0  0  0
  160.8510  211.8150  147.3840 O   0  0  0  0  0  0  0  0  0  0  0  0
  158.8850  212.5100  145.3860 C   0  0  0  0  0  1  0  0  0  0  0  0
  159.2310  213.5200  146.4640 C   0  0  0  0  0  2  0  0  0  0  0  0
  160.8970  209.7290  152.6070 C   0  0  0  0  0  2  0  0  0  0  0  0
  159.5780  210.1940  152.5610 O   0  0  0  0  0  0  0  0  0  0  0  0
  159.6150  211.7340  153.2700 P   0  0  1  0  0  0  0  0  0  0  0  0
  160.5740  211.7100  154.6670 O   0  0  0  0  0  1  0  0  0  0  0  0
  160.1910  212.7250  152.2810 O   0  0  0  0  0  0  0  0  0  0  0  0
  158.0240  212.1800  153.6720 O   0  0  0  0  0  0  0  0  0  0  0  0
  158.1170  213.4370  154.2850 C   0  0  1  0  0  3  0  0  0  0  0  0
  157.3010  214.4360  153.5200 C   0  0  0  0  0  3  0  0  0  0  0  0
  157.0770  214.2770  152.2170 C   0  0  0  0  0  2  0  0  0  0  0  0
  157.6850  213.3640  155.7580 C   0  0  1  0  0  3  0  0  0  0  0  0
  159.7910  214.4400  156.1590 O   0  0  0  0  0  1  0  0  0  0  0  0
  158.4910  214.3030  156.6520 C   0  0  0  0  0  2  0  0  0  0  0  0
  156.2030  213.6800  155.8730 C   0  0  0  0  0  2  0  0  0  0  0  0
  155.4800  212.5830  156.6320 C   0  0  0  0  0  2  0  0  0  0  0  0
  155.7460  211.3030  155.9950 N   0  0  0  0  0  1  0  0  0  0  0  0
  1 17  1  1  0  0  0
  1  2  1  0  0  0  0
  1 27  1  0  0  0  0
  2  4  2  0  0  0  0
  4  3  2  0  0  0  0
  5  7  2  0  0  0  0
  5  2  1  0  0  0  0
  6  5  1  0  0  0  0
  9 14  2  0  0  0  0
 10 13  1  0  0  0  0
 10  9  1  0  0  0  0
 11  8  1  0  0  0  0
 12  9  1  0  0  0  0
 13 11  2  0  0  0  0
 14  8  1  0  0  0  0
 14  6  1  0  0  0  0
 15 16  1  0  0  0  0
 16 13  1  0  0  0  0
 18 19  1  0  0  0  0
 18 17  1  0  0  0  0
 20 24  1  0  0  0  0
 20 21  2  0  0  0  0
 21 23  1  0  0  0  0
 22 23  1  0  0  0  0
 22 19  1  1  0  0  0
 24 22  1  0  0  0  0
 25 26  1  0  0  0  0
 26 20  1  0  0  0  0
 28 27  1  0  0  0  0
 28 29  1  0  0  0  0
 29 31  2  6  0  0  0
 29 32  1  0  0  0  0
 29 30  1  0  0  0  0
 32 33  1  0  0  0  0
 33 34  1  6  0  0  0
 33 36  1  0  0  0  0
 35 34  2  0  0  0  0
 36 39  1  6  0  0  0
 36 38  1  0  0  0  0
 37 38  1  0  0  0  0
 39 40  1  0  0  0  0
 41 40  1  0  0  0  0
M  END
>  <MODEL>
4

>  <REMARK>
 VINA RESULT:      -6.2      2.668      3.541
  Name = 
  19 active torsions:
  status: ('A' for Active; 'I' for Inactive)
    1  A    between atoms: C_1  and  C_16
    2  A    between atoms: C_1  and  C_20
    3  A    between atoms: O_2  and  C_8
    4  A    between atoms: O_2  and  P_10
    5  A    between atoms: C_5  and  C_29
    6  A    between atoms: C_7  and  C_23
    7  A    between atoms: C_7  and  C_26
    8  A    between atoms: C_8  and  C_20
    9  A    between atoms: C_9  and  C_21
   10  A    between atoms: C_9  and  C_36
   11  A    between atoms: C_9  and  C_37
   12  A    between atoms: P_10  and  O_31
   13  A    between atoms: C_12  and  C_20
   14  A    between atoms: C_12  and  C_26
   15  A    between atoms: C_13  and  C_21
   16  A    between atoms: O_31  and  C_36
   17  A    between atoms: C_32  and  C_36
   18  A    between atoms: N_34  and  C_40
   19  A    between atoms: C_35  and  N_41
                            x       y       z     vdW  Elec       q    Type
                         _______ _______ _______ _____ _____    ______ ____

>  <TORSDO>
F 19

$$$$
=
 OpenBabel11052412123D

 41 42  0  0  1  0  0  0  0  0999 V2000
  160.9970  208.9570  152.0600 C   0  0  2  0  0  3  0  0  0  0  0  0
  161.1690  207.5510  152.5720 C   0  0  0  0  0  0  0  0  0  0  0  0
  160.6870  206.9990  155.0130 O   0  0  0  0  0  0  0  0  0  0  0  0
  160.9200  207.2660  153.8280 C   0  0  0  0  0  0  0  0  0  0  0  0
  161.5810  206.4860  151.6380 C   0  0  0  0  0  0  0  0  0  0  0  0
  160.7270  206.1120  150.5480 N   0  0  0  0  0  2  0  0  0  0  0  0
  162.7140  205.9480  151.7690 O   0  0  0  0  0  0  0  0  0  0  0  0
  161.1820  205.1000  148.3790 C   0  0  0  0  0  2  0  0  0  0  0  0
  160.7160  203.6440  150.2410 C   0  0  0  0  0  0  0  0  0  0  0  0
  160.8740  202.5440  149.3970 C   0  0  0  0  0  2  0  0  0  0  0  0
  161.3340  204.0130  147.5750 N   0  0  0  0  0  0  0  0  0  0  0  0
  160.3350  203.4360  151.5260 F   0  0  0  0  0  0  0  0  0  0  0  0
  161.1980  202.7470  148.0490 C   0  0  0  0  0  0  0  0  0  0  0  0
  160.8900  204.9430  149.7350 C   0  0  0  0  0  0  0  0  0  0  0  0
  161.3260  200.2570  147.5930 C   0  0  0  0  0  1  0  0  0  0  0  0
  161.3710  201.6430  147.1550 N   0  0  0  0  0  2  0  0  0  0  0  0
  161.9190  209.2840  150.8880 C   0  0  0  0  0  2  0  0  0  0  0  0
  162.3030  210.7590  150.8750 C   0  0  0  0  0  2  0  0  0  0  0  0
  161.5060  211.5430  149.8320 C   0  0  0  0  0  2  0  0  0  0  0  0
  161.3560  212.6560  146.6310 C   0  0  0  0  0  0  0  0  0  0  0  0
  162.4760  213.2110  146.9350 N   0  0  0  0  0  0  0  0  0  0  0  0
  162.0460  211.4080  148.4050 C   0  0  2  0  0  3  0  0  0  0  0  0
  163.0610  212.5090  148.0720 C   0  0  0  0  0  2  0  0  0  0  0  0
  161.0200  211.5920  147.4430 O   0  0  0  0  0  0  0  0  0  0  0  0
  159.0370  212.8140  145.8340 C   0  0  0  0  0  1  0  0  0  0  0  0
  160.4850  213.1460  145.5260 C   0  0  0  0  0  2  0  0  0  0  0  0
  161.0980  209.9990  153.1700 C   0  0  0  0  0  2  0  0  0  0  0  0
  159.8390  210.5190  153.4900 O   0  0  0  0  0  0  0  0  0  0  0  0
  159.9370  210.9710  155.1220 P   0  0  1  0  0  0  0  0  0  0  0  0
  159.5770  209.6470  156.1170 O   0  0  0  0  0  1  0  0  0  0  0  0
  161.3380  211.4600  155.4220 O   0  0  0  0  0  0  0  0  0  0  0  0
  158.8190  212.2220  155.4030 O   0  0  0  0  0  0  0  0  0  0  0  0
  157.7550  211.9950  154.5190 C   0  0  1  0  0  3  0  0  0  0  0  0
  156.8720  210.9080  155.0570 C   0  0  0  0  0  3  0  0  0  0  0  0
  155.5500  211.0570  155.0840 C   0  0  0  0  0  2  0  0  0  0  0  0
  156.9660  213.2890  154.2660 C   0  0  1  0  0  3  0  0  0  0  0  0
  156.5690  214.4520  156.3270 O   0  0  0  0  0  1  0  0  0  0  0  0
  157.3890  214.4240  155.1960 C   0  0  0  0  0  2  0  0  0  0  0  0
  157.1300  213.7150  152.8160 C   0  0  0  0  0  2  0  0  0  0  0  0
  158.5980  213.7820  152.4420 C   0  0  0  0  0  2  0  0  0  0  0  0
  158.7530  213.4330  151.0390 N   0  0  0  0  0  1  0  0  0  0  0  0
  1 17  1  6  0  0  0
  1  2  1  0  0  0  0
  1 27  1  0  0  0  0
  2  4  2  0  0  0  0
  4  3  2  0  0  0  0
  5  7  2  0  0  0  0
  5  2  1  0  0  0  0
  6  5  1  0  0  0  0
  8 14  1  0  0  0  0
  9 12  1  0  0  0  0
 10  9  1  0  0  0  0
 11 13  2  0  0  0  0
 11  8  1  0  0  0  0
 13 10  1  0  0  0  0
 14  9  2  0  0  0  0
 14  6  1  0  0  0  0
 16 15  1  0  0  0  0
 16 13  1  0  0  0  0
 18 17  1  0  0  0  0
 19 18  1  0  0  0  0
 20 21  2  0  0  0  0
 20 24  1  0  0  0  0
 21 23  1  0  0  0  0
 22 19  1  1  0  0  0
 23 22  1  0  0  0  0
 24 22  1  0  0  0  0
 26 25  1  0  0  0  0
 26 20  1  0  0  0  0
 27 28  1  0  0  0  0
 28 29  1  0  0  0  0
 29 32  1  0  0  0  0
 29 31  2  1  0  0  0
 29 30  1  0  0  0  0
 33 34  1  1  0  0  0
 33 32  1  0  0  0  0
 34 35  2  0  0  0  0
 36 39  1  6  0  0  0
 36 33  1  0  0  0  0
 36 38  1  0  0  0  0
 38 37  1  0  0  0  0
 40 39  1  0  0  0  0
 41 40  1  0  0  0  0
M  END
>  <MODEL>
5

>  <REMARK>
 VINA RESULT:      -6.1      2.572      3.341
  Name = 
  19 active torsions:
  status: ('A' for Active; 'I' for Inactive)
    1  A    between atoms: C_1  and  C_16
    2  A    between atoms: C_1  and  C_20
    3  A    between atoms: O_2  and  C_8
    4  A    between atoms: O_2  and  P_10
    5  A    between atoms: C_5  and  C_29
    6  A    between atoms: C_7  and  C_23
    7  A    between atoms: C_7  and  C_26
    8  A    between atoms: C_8  and  C_20
    9  A    between atoms: C_9  and  C_21
   10  A    between atoms: C_9  and  C_36
   11  A    between atoms: C_9  and  C_37
   12  A    between atoms: P_10  and  O_31
   13  A    between atoms: C_12  and  C_20
   14  A    between atoms: C_12  and  C_26
   15  A    between atoms: C_13  and  C_21
   16  A    between atoms: O_31  and  C_36
   17  A    between atoms: C_32  and  C_36
   18  A    between atoms: N_34  and  C_40
   19  A    between atoms: C_35  and  N_41
                            x       y       z     vdW  Elec       q    Type
                         _______ _______ _______ _____ _____    ______ ____

>  <TORSDO>
F 19

$$$$
=
 OpenBabel11052412123D

 41 42  0  0  1  0  0  0  0  0999 V2000
  161.8600  209.7130  151.7870 C   0  0  2  0  0  3  0  0  0  0  0  0
  161.6030  208.2290  151.7800 C   0  0  0  0  0  0  0  0  0  0  0  0
  160.6320  207.0770  153.8340 O   0  0  0  0  0  0  0  0  0  0  0  0
  161.1030  207.6360  152.8370 C   0  0  0  0  0  0  0  0  0  0  0  0
  161.8830  207.4530  150.5560 C   0  0  0  0  0  0  0  0  0  0  0  0
  160.8210  206.7690  149.8770 N   0  0  0  0  0  2  0  0  0  0  0  0
  163.0500  207.4440  150.0790 O   0  0  0  0  0  0  0  0  0  0  0  0
  160.9510  206.2030  147.5110 C   0  0  0  0  0  3  0  0  0  0  0  0
  161.1640  204.4230  149.1220 C   0  0  0  0  0  0  0  0  0  0  0  0
  161.3160  203.5160  148.0730 C   0  0  0  0  0  3  0  0  0  0  0  0
  161.1040  205.3010  146.5040 N   0  0  0  0  0  0  0  0  0  0  0  0
  161.1180  203.9540  150.3940 F   0  0  0  0  0  0  0  0  0  0  0  0
  161.2940  203.9780  146.7500 C   0  0  0  0  0  0  0  0  0  0  0  0
  160.9970  205.7910  148.8440 C   0  0  0  0  0  0  0  0  0  0  0  0
  160.4210  202.1310  145.2490 C   0  0  0  0  0  1  0  0  0  0  0  0
  161.4510  203.0770  145.6500 N   0  0  0  0  0  2  0  0  0  0  0  0
  161.1550  210.4380  152.9310 C   0  0  0  0  0  2  0  0  0  0  0  0
  159.9300  211.2000  152.4390 C   0  0  0  0  0  2  0  0  0  0  0  0
  159.7030  212.4840  153.2380 C   0  0  0  0  0  2  0  0  0  0  0  0
  156.8060  212.0750  154.9540 C   0  0  0  0  0  0  0  0  0  0  0  0
  157.0960  213.2400  155.4160 N   0  0  0  0  0  0  0  0  0  0  0  0
  158.2300  212.8810  153.3720 C   0  0  2  0  0  3  0  0  0  0  0  0
  158.0130  213.9020  154.4950 C   0  0  0  0  0  2  0  0  0  0  0  0
  157.4290  211.7760  153.7590 O   0  0  0  0  0  0  0  0  0  0  0  0
  155.4690  211.7280  156.9860 C   0  0  0  0  0  1  0  0  0  0  0  0
  155.9070  211.1230  155.6660 C   0  0  0  0  0  2  0  0  0  0  0  0
  161.5660  210.3630  150.4370 C   0  0  0  0  0  2  0  0  0  0  0  0
  162.3260  211.5260  150.2610 O   0  0  0  0  0  0  0  0  0  0  0  0
  162.1290  211.9530  148.6310 P   0  0  1  0  0  0  0  0  0  0  0  0
  163.6260  211.9240  147.8360 O   0  0  0  0  0  0  0  0  0  0  0  0
  161.1870  210.9710  147.9680 O   0  0  0  0  0  1  0  0  0  0  0  0
  161.4710  213.5190  148.5610 O   0  0  0  0  0  0  0  0  0  0  0  0
  160.1790  213.3730  148.0370 C   0  0  1  0  0  3  0  0  0  0  0  0
  159.1900  214.0660  148.9270 C   0  0  0  0  0  3  0  0  0  0  0  0
  158.3860  213.3650  149.7240 C   0  0  0  0  0  2  0  0  0  0  0  0
  160.1080  213.9020  146.5960 C   0  0  1  0  0  3  0  0  0  0  0  0
  161.9140  213.2900  145.1400 O   0  0  0  0  0  1  0  0  0  0  0  0
  161.4810  214.2690  146.0380 C   0  0  0  0  0  2  0  0  0  0  0  0
  159.4420  212.8680  145.7030 C   0  0  0  0  0  2  0  0  0  0  0  0
  157.9910  213.2320  145.4530 C   0  0  0  0  0  2  0  0  0  0  0  0
  157.1320  212.3110  146.1800 N   0  0  0  0  0  1  0  0  0  0  0  0
  1 27  1  6  0  0  0
  1 17  1  0  0  0  0
  2  1  1  0  0  0  0
  2  4  2  0  0  0  0
  4  3  2  0  0  0  0
  5  2  1  0  0  0  0
  6  5  1  0  0  0  0
  7  5  2  0  0  0  0
  8 14  2  0  0  0  0
  9 12  1  0  0  0  0
 10  9  2  0  0  0  0
 11 13  2  0  0  0  0
 11  8  1  0  0  0  0
 13 10  1  0  0  0  0
 14  9  1  0  0  0  0
 14  6  1  0  0  0  0
 15 16  1  0  0  0  0
 16 13  1  0  0  0  0
 18 17  1  0  0  0  0
 18 19  1  0  0  0  0
 20 21  2  0  0  0  0
 20 26  1  0  0  0  0
 22 19  1  1  0  0  0
 22 24  1  0  0  0  0
 22 23  1  0  0  0  0
 23 21  1  0  0  0  0
 24 20  1  0  0  0  0
 26 25  1  0  0  0  0
 28 27  1  0  0  0  0
 29 30  2  6  0  0  0
 29 28  1  0  0  0  0
 31 29  1  0  0  0  0
 32 29  1  0  0  0  0
 33 32  1  0  0  0  0
 33 34  1  1  0  0  0
 34 35  2  0  0  0  0
 36 39  1  6  0  0  0
 36 33  1  0  0  0  0
 37 38  1  0  0  0  0
 38 36  1  0  0  0  0
 40 39  1  0  0  0  0
 40 41  1  0  0  0  0
M  END
>  <MODEL>
6

>  <REMARK>
 VINA RESULT:      -5.9      3.460      6.882
  Name = 
  19 active torsions:
  status: ('A' for Active; 'I' for Inactive)
    1  A    between atoms: C_1  and  C_16
    2  A    between atoms: C_1  and  C_20
    3  A    between atoms: O_2  and  C_8
    4  A    between atoms: O_2  and  P_10
    5  A    between atoms: C_5  and  C_29
    6  A    between atoms: C_7  and  C_23
    7  A    between atoms: C_7  and  C_26
    8  A    between atoms: C_8  and  C_20
    9  A    between atoms: C_9  and  C_21
   10  A    between atoms: C_9  and  C_36
   11  A    between atoms: C_9  and  C_37
   12  A    between atoms: P_10  and  O_31
   13  A    between atoms: C_12  and  C_20
   14  A    between atoms: C_12  and  C_26
   15  A    between atoms: C_13  and  C_21
   16  A    between atoms: O_31  and  C_36
   17  A    between atoms: C_32  and  C_36
   18  A    between atoms: N_34  and  C_40
   19  A    between atoms: C_35  and  N_41
                            x       y       z     vdW  Elec       q    Type
                         _______ _______ _______ _____ _____    ______ ____

>  <TORSDO>
F 19

$$$$
=
 OpenBabel11052412123D

 41 42  0  0  1  0  0  0  0  0999 V2000
  161.6990  209.0390  152.2700 C   0  0  2  0  0  3  0  0  0  0  0  0
  161.9550  209.1550  150.7900 C   0  0  0  0  0  0  0  0  0  0  0  0
  161.9820  211.4370  149.6590 O   0  0  0  0  0  0  0  0  0  0  0  0
  161.9700  210.3290  150.2080 C   0  0  0  0  0  0  0  0  0  0  0  0
  162.2310  207.9350  150.0080 C   0  0  0  0  0  0  0  0  0  0  0  0
  161.5840  207.7260  148.7450 N   0  0  0  0  0  2  0  0  0  0  0  0
  163.0820  207.1040  150.4290 O   0  0  0  0  0  0  0  0  0  0  0  0
  162.0820  206.4640  146.7210 C   0  0  0  0  0  3  0  0  0  0  0  0
  161.0080  205.3140  148.5470 C   0  0  0  0  0  0  0  0  0  0  0  0
  161.0100  204.1440  147.7870 C   0  0  0  0  0  3  0  0  0  0  0  0
  162.0750  205.3110  145.9990 N   0  0  0  0  0  0  0  0  0  0  0  0
  160.4070  205.3060  149.7630 F   0  0  0  0  0  0  0  0  0  0  0  0
  161.5640  204.1550  146.4990 C   0  0  0  0  0  0  0  0  0  0  0  0
  161.5680  206.4900  148.0190 C   0  0  0  0  0  0  0  0  0  0  0  0
  160.4070  202.1550  145.4580 C   0  0  0  0  0  1  0  0  0  0  0  0
  161.5860  202.9740  145.6930 N   0  0  0  0  0  2  0  0  0  0  0  0
  160.8290  207.8390  152.6360 C   0  0  0  0  0  2  0  0  0  0  0  0
  161.3190  207.1620  153.9100 C   0  0  0  0  0  2  0  0  0  0  0  0
  160.1960  206.9990  154.9340 C   0  0  0  0  0  2  0  0  0  0  0  0
  161.8130  209.4380  156.6490 C   0  0  0  0  0  0  0  0  0  0  0  0
  160.6260  209.9160  156.7830 N   0  0  0  0  0  0  0  0  0  0  0  0
  160.5120  207.6020  156.3060 C   0  0  2  0  0  3  0  0  0  0  0  0
  159.6580  208.8420  156.5960 C   0  0  0  0  0  2  0  0  0  0  0  0
  161.8430  208.0880  156.3640 O   0  0  0  0  0  0  0  0  0  0  0  0
  162.6690  211.6580  157.2610 C   0  0  0  0  0  1  0  0  0  0  0  0
  163.0400  210.2770  156.7560 C   0  0  0  0  0  2  0  0  0  0  0  0
  161.1610  210.3350  152.8720 C   0  0  0  0  0  2  0  0  0  0  0  0
  159.8150  210.5260  152.5390 O   0  0  0  0  0  0  0  0  0  0  0  0
  159.4940  212.1590  152.8690 P   0  0  1  0  0  0  0  0  0  0  0  0
  159.9890  212.5440  154.4440 O   0  0  0  0  0  1  0  0  0  0  0  0
  160.2440  213.0250  151.8800 O   0  0  0  0  0  0  0  0  0  0  0  0
  157.8210  212.4210  152.7110 O   0  0  0  0  0  0  0  0  0  0  0  0
  157.6450  213.8110  152.7160 C   0  0  1  0  0  3  0  0  0  0  0  0
  157.1780  214.2670  151.3650 C   0  0  0  0  0  3  0  0  0  0  0  0
  157.2470  213.4550  150.3120 C   0  0  0  0  0  2  0  0  0  0  0  0
  156.6700  214.2380  153.8230 C   0  0  1  0  0  3  0  0  0  0  0  0
  154.4330  213.8410  153.0520 O   0  0  0  0  0  1  0  0  0  0  0  0
  155.4330  213.3450  153.8910 C   0  0  0  0  0  2  0  0  0  0  0  0
  157.3850  214.2400  155.1640 C   0  0  0  0  0  2  0  0  0  0  0  0
  156.3950  214.0530  156.2980 C   0  0  0  0  0  2  0  0  0  0  0  0
  156.8050  212.9190  157.1120 N   0  0  0  0  0  1  0  0  0  0  0  0
  1 17  1  6  0  0  0
  1 27  1  0  0  0  0
  2  1  1  0  0  0  0
  3  4  2  0  0  0  0
  4  2  2  0  0  0  0
  5  7  2  0  0  0  0
  5  2  1  0  0  0  0
  6  5  1  0  0  0  0
  8 14  2  0  0  0  0
  9 12  1  0  0  0  0
 10  9  2  0  0  0  0
 11 13  2  0  0  0  0
 11  8  1  0  0  0  0
 13 10  1  0  0  0  0
 14  9  1  0  0  0  0
 14  6  1  0  0  0  0
 15 16  1  0  0  0  0
 16 13  1  0  0  0  0
 17 18  1  0  0  0  0
 18 19  1  0  0  0  0
 20 26  1  0  0  0  0
 20 21  2  0  0  0  0
 22 19  1  6  0  0  0
 22 24  1  0  0  0  0
 22 23  1  0  0  0  0
 23 21  1  0  0  0  0
 24 20  1  0  0  0  0
 26 25  1  0  0  0  0
 28 29  1  0  0  0  0
 28 27  1  0  0  0  0
 29 31  2  6  0  0  0
 29 30  1  0  0  0  0
 32 33  1  0  0  0  0
 32 29  1  0  0  0  0
 33 34  1  6  0  0  0
 33 36  1  0  0  0  0
 35 34  2  0  0  0  0
 36 38  1  1  0  0  0
 36 39  1  0  0  0  0
 37 38  1  0  0  0  0
 39 40  1  0  0  0  0
 40 41  1  0  0  0  0
M  END
>  <MODEL>
7

>  <REMARK>
 VINA RESULT:      -5.8      2.266      5.596
  Name = 
  19 active torsions:
  status: ('A' for Active; 'I' for Inactive)
    1  A    between atoms: C_1  and  C_16
    2  A    between atoms: C_1  and  C_20
    3  A    between atoms: O_2  and  C_8
    4  A    between atoms: O_2  and  P_10
    5  A    between atoms: C_5  and  C_29
    6  A    between atoms: C_7  and  C_23
    7  A    between atoms: C_7  and  C_26
    8  A    between atoms: C_8  and  C_20
    9  A    between atoms: C_9  and  C_21
   10  A    between atoms: C_9  and  C_36
   11  A    between atoms: C_9  and  C_37
   12  A    between atoms: P_10  and  O_31
   13  A    between atoms: C_12  and  C_20
   14  A    between atoms: C_12  and  C_26
   15  A    between atoms: C_13  and  C_21
   16  A    between atoms: O_31  and  C_36
   17  A    between atoms: C_32  and  C_36
   18  A    between atoms: N_34  and  C_40
   19  A    between atoms: C_35  and  N_41
                            x       y       z     vdW  Elec       q    Type
                         _______ _______ _______ _____ _____    ______ ____

>  <TORSDO>
F 19

$$$$
=
 OpenBabel11052412123D

 41 42  0  0  1  0  0  0  0  0999 V2000
  162.2030  208.7040  150.9080 C   0  0  2  0  0  3  0  0  0  0  0  0
  162.1360  208.9540  149.4240 C   0  0  0  0  0  0  0  0  0  0  0  0
  161.8450  211.3210  148.5260 O   0  0  0  0  0  0  0  0  0  0  0  0
  161.9870  210.1720  148.9620 C   0  0  0  0  0  0  0  0  0  0  0  0
  162.2820  207.8190  148.4930 C   0  0  0  0  0  0  0  0  0  0  0  0
  161.1240  207.2420  147.8730 N   0  0  0  0  0  2  0  0  0  0  0  0
  163.4340  207.3970  148.2020 O   0  0  0  0  0  0  0  0  0  0  0  0
  161.6810  204.8720  147.7530 C   0  0  0  0  0  3  0  0  0  0  0  0
  160.5650  205.8790  145.8690 C   0  0  0  0  0  0  0  0  0  0  0  0
  160.5850  204.6440  145.2210 C   0  0  0  0  0  3  0  0  0  0  0  0
  161.6870  203.6780  147.1020 N   0  0  0  0  0  0  0  0  0  0  0  0
  160.0790  206.9590  145.2080 F   0  0  0  0  0  0  0  0  0  0  0  0
  161.1480  203.5330  145.8640 C   0  0  0  0  0  0  0  0  0  0  0  0
  161.1030  205.9970  147.1620 C   0  0  0  0  0  0  0  0  0  0  0  0
  160.0330  201.3620  145.1820 C   0  0  0  0  0  1  0  0  0  0  0  0
  161.1830  202.2510  145.2310 N   0  0  0  0  0  2  0  0  0  0  0  0
  162.6690  207.2930  151.2590 C   0  0  0  0  0  2  0  0  0  0  0  0
  162.0690  206.8180  152.5770 C   0  0  0  0  0  2  0  0  0  0  0  0
  161.6060  205.3630  152.4960 C   0  0  0  0  0  2  0  0  0  0  0  0
  160.8390  202.7150  150.5200 C   0  0  0  0  0  0  0  0  0  0  0  0
  159.8130  203.4310  150.2220 N   0  0  0  0  0  0  0  0  0  0  0  0
  161.5390  204.8100  151.0690 C   0  0  2  0  0  3  0  0  0  0  0  0
  160.1100  204.8290  150.5150 C   0  0  0  0  0  2  0  0  0  0  0  0
  161.8990  203.4380  151.0290 O   0  0  0  0  0  0  0  0  0  0  0  0
  161.0830  200.8780  148.9060 C   0  0  0  0  0  1  0  0  0  0  0  0
  160.8630  201.2330  150.3650 C   0  0  0  0  0  2  0  0  0  0  0  0
  160.9020  209.0650  151.6200 C   0  0  0  0  0  2  0  0  0  0  0  0
  160.8920  210.4110  152.0020 O   0  0  0  0  0  0  0  0  0  0  0  0
  160.9120  210.4020  153.6980 P   0  0  1  0  0  0  0  0  0  0  0  0
  160.1010  209.0340  154.2830 O   0  0  0  0  0  1  0  0  0  0  0  0
  162.3470  210.3810  154.1800 O   0  0  0  0  0  0  0  0  0  0  0  0
  160.1390  211.8110  154.2540 O   0  0  0  0  0  0  0  0  0  0  0  0
  158.9140  211.3940  154.7910 C   0  0  1  0  0  3  0  0  0  0  0  0
  158.8830  211.6760  156.2640 C   0  0  0  0  0  3  0  0  0  0  0  0
  159.7190  211.0540  157.0930 C   0  0  0  0  0  2  0  0  0  0  0  0
  157.7380  212.0650  154.0630 C   0  0  1  0  0  3  0  0  0  0  0  0
  155.6860  210.9540  154.6240 O   0  0  0  0  0  1  0  0  0  0  0  0
  156.4630  212.0820  154.9030 C   0  0  0  0  0  2  0  0  0  0  0  0
  158.1200  213.4820  153.6690 C   0  0  0  0  0  2  0  0  0  0  0  0
  157.9550  213.6840  152.1740 C   0  0  0  0  0  2  0  0  0  0  0  0
  158.5210  212.5440  151.4700 N   0  0  0  0  0  1  0  0  0  0  0  0
  1 17  1  6  0  0  0
  1 27  1  0  0  0  0
  2  1  1  0  0  0  0
  3  4  2  0  0  0  0
  4  2  2  0  0  0  0
  5  2  1  0  0  0  0
  6  5  1  0  0  0  0
  7  5  2  0  0  0  0
  9 14  1  0  0  0  0
 10 13  1  0  0  0  0
 10  9  2  0  0  0  0
 11  8  1  0  0  0  0
 12  9  1  0  0  0  0
 13 11  2  0  0  0  0
 14  8  2  0  0  0  0
 14  6  1  0  0  0  0
 15 16  1  0  0  0  0
 16 13  1  0  0  0  0
 17 18  1  0  0  0  0
 19 18  1  0  0  0  0
 20 24  1  0  0  0  0
 21 23  1  0  0  0  0
 21 20  2  0  0  0  0
 22 19  1  1  0  0  0
 23 22  1  0  0  0  0
 24 22  1  0  0  0  0
 25 26  1  0  0  0  0
 26 20  1  0  0  0  0
 27 28  1  0  0  0  0
 28 29  1  0  0  0  0
 29 31  2  1  0  0  0
 29 32  1  0  0  0  0
 29 30  1  0  0  0  0
 32 33  1  0  0  0  0
 33 34  1  1  0  0  0
 34 35  2  0  0  0  0
 36 39  1  1  0  0  0
 36 33  1  0  0  0  0
 36 38  1  0  0  0  0
 37 38  1  0  0  0  0
 40 39  1  0  0  0  0
 41 40  1  0  0  0  0
M  END
>  <MODEL>
8

>  <REMARK>
 VINA RESULT:      -5.7      2.333      4.249
  Name = 
  19 active torsions:
  status: ('A' for Active; 'I' for Inactive)
    1  A    between atoms: C_1  and  C_16
    2  A    between atoms: C_1  and  C_20
    3  A    between atoms: O_2  and  C_8
    4  A    between atoms: O_2  and  P_10
    5  A    between atoms: C_5  and  C_29
    6  A    between atoms: C_7  and  C_23
    7  A    between atoms: C_7  and  C_26
    8  A    between atoms: C_8  and  C_20
    9  A    between atoms: C_9  and  C_21
   10  A    between atoms: C_9  and  C_36
   11  A    between atoms: C_9  and  C_37
   12  A    between atoms: P_10  and  O_31
   13  A    between atoms: C_12  and  C_20
   14  A    between atoms: C_12  and  C_26
   15  A    between atoms: C_13  and  C_21
   16  A    between atoms: O_31  and  C_36
   17  A    between atoms: C_32  and  C_36
   18  A    between atoms: N_34  and  C_40
   19  A    between atoms: C_35  and  N_41
                            x       y       z     vdW  Elec       q    Type
                         _______ _______ _______ _____ _____    ______ ____

>  <TORSDO>
F 19

$$$$
=
 OpenBabel11052412123D

 41 42  0  0  1  0  0  0  0  0999 V2000
  161.1400  211.5550  151.1440 C   0  0  2  0  0  3  0  0  0  0  0  0
  160.6420  212.4820  150.0660 C   0  0  0  0  0  0  0  0  0  0  0  0
  158.8170  214.1860  150.5710 O   0  0  0  0  0  0  0  0  0  0  0  0
  159.7030  213.3600  150.3260 C   0  0  0  0  0  0  0  0  0  0  0  0
  161.2490  212.4200  148.7220 C   0  0  0  0  0  0  0  0  0  0  0  0
  160.6670  213.1490  147.6330 N   0  0  0  0  0  2  0  0  0  0  0  0
  162.3150  211.7690  148.5510 O   0  0  0  0  0  0  0  0  0  0  0  0
  162.2600  213.3830  145.8050 C   0  0  0  0  0  3  0  0  0  0  0  0
  160.0900  212.4550  145.3150 C   0  0  0  0  0  0  0  0  0  0  0  0
  160.4700  212.3230  143.9790 C   0  0  0  0  0  3  0  0  0  0  0  0
  162.6080  213.2420  144.4980 N   0  0  0  0  0  0  0  0  0  0  0  0
  158.8220  212.1350  145.6720 F   0  0  0  0  0  0  0  0  0  0  0  0
  161.7550  212.7170  143.5810 C   0  0  0  0  0  0  0  0  0  0  0  0
  161.0020  212.9750  146.2500 C   0  0  0  0  0  0  0  0  0  0  0  0
  161.7910  211.4770  141.3700 C   0  0  0  0  0  1  0  0  0  0  0  0
  162.1780  212.5920  142.2200 N   0  0  0  0  0  2  0  0  0  0  0  0
  161.0760  210.0830  150.7460 C   0  0  0  0  0  2  0  0  0  0  0  0
  162.3210  209.3280  151.1960 C   0  0  0  0  0  2  0  0  0  0  0  0
  162.6450  208.1620  150.2620 C   0  0  0  0  0  2  0  0  0  0  0  0
  161.8440  206.4540  147.4420 C   0  0  0  0  0  0  0  0  0  0  0  0
  160.9310  205.9480  148.1940 N   0  0  0  0  0  0  0  0  0  0  0  0
  161.6640  208.0080  149.0950 C   0  0  2  0  0  3  0  0  0  0  0  0
  160.6890  206.8460  149.3170 C   0  0  0  0  0  2  0  0  0  0  0  0
  162.3360  207.6620  147.8950 O   0  0  0  0  0  0  0  0  0  0  0  0
  161.2610  204.8890  145.6400 C   0  0  0  0  0  1  0  0  0  0  0  0
  162.3490  205.7770  146.2150 C   0  0  0  0  0  2  0  0  0  0  0  0
  160.4670  211.8100  152.4900 C   0  0  0  0  0  2  0  0  0  0  0  0
  159.5840  210.7740  152.8170 O   0  0  0  0  0  0  0  0  0  0  0  0
  159.0430  211.1180  154.3870 P   0  0  1  0  0  0  0  0  0  0  0  0
  159.6030  212.6410  154.8760 O   0  0  0  0  0  1  0  0  0  0  0  0
  157.5290  211.1080  154.4060 O   0  0  0  0  0  0  0  0  0  0  0  0
  159.6400  209.9210  155.4370 O   0  0  0  0  0  0  0  0  0  0  0  0
  160.7220  209.3270  154.7720 C   0  0  1  0  0  3  0  0  0  0  0  0
  161.9970  210.0140  155.1640 C   0  0  0  0  0  3  0  0  0  0  0  0
  162.3810  210.0600  156.4380 C   0  0  0  0  0  2  0  0  0  0  0  0
  160.7830  207.8190  155.0580 C   0  0  1  0  0  3  0  0  0  0  0  0
  160.2140  206.9910  157.2370 O   0  0  0  0  0  1  0  0  0  0  0  0
  159.6740  207.3570  156.0020 C   0  0  0  0  0  2  0  0  0  0  0  0
  160.7100  207.0450  153.7520 C   0  0  0  0  0  2  0  0  0  0  0  0
  161.7960  205.9880  153.6950 C   0  0  0  0  0  2  0  0  0  0  0  0
  161.9400  205.5190  152.3260 N   0  0  0  0  0  1  0  0  0  0  0  0
  1 17  1  6  0  0  0
  1 27  1  0  0  0  0
  2  4  2  0  0  0  0
  2  1  1  0  0  0  0
  4  3  2  0  0  0  0
  5  2  1  0  0  0  0
  6  5  1  0  0  0  0
  7  5  2  0  0  0  0
  8 14  2  0  0  0  0
  9 12  1  0  0  0  0
  9 14  1  0  0  0  0
 10  9  2  0  0  0  0
 11  8  1  0  0  0  0
 13 10  1  0  0  0  0
 13 11  2  0  0  0  0
 14  6  1  0  0  0  0
 15 16  1  0  0  0  0
 16 13  1  0  0  0  0
 17 18  1  0  0  0  0
 19 18  1  0  0  0  0
 20 24  1  0  0  0  0
 20 21  2  0  0  0  0
 21 23  1  0  0  0  0
 22 23  1  0  0  0  0
 22 19  1  1  0  0  0
 24 22  1  0  0  0  0
 25 26  1  0  0  0  0
 26 20  1  0  0  0  0
 27 28  1  0  0  0  0
 28 29  1  0  0  0  0
 29 31  2  1  0  0  0
 29 30  1  0  0  0  0
 29 32  1  0  0  0  0
 33 36  1  0  0  0  0
 33 34  1  1  0  0  0
 33 32  1  0  0  0  0
 34 35  2  0  0  0  0
 36 39  1  6  0  0  0
 36 38  1  0  0  0  0
 38 37  1  0  0  0  0
 40 39  1  0  0  0  0
 41 40  1  0  0  0  0
M  END
>  <MODEL>
9

>  <REMARK>
 VINA RESULT:      -5.6      3.941      7.022
  Name = 
  19 active torsions:
  status: ('A' for Active; 'I' for Inactive)
    1  A    between atoms: C_1  and  C_16
    2  A    between atoms: C_1  and  C_20
    3  A    between atoms: O_2  and  C_8
    4  A    between atoms: O_2  and  P_10
    5  A    between atoms: C_5  and  C_29
    6  A    between atoms: C_7  and  C_23
    7  A    between atoms: C_7  and  C_26
    8  A    between atoms: C_8  and  C_20
    9  A    between atoms: C_9  and  C_21
   10  A    between atoms: C_9  and  C_36
   11  A    between atoms: C_9  and  C_37
   12  A    between atoms: P_10  and  O_31
   13  A    between atoms: C_12  and  C_20
   14  A    between atoms: C_12  and  C_26
   15  A    between atoms: C_13  and  C_21
   16  A    between atoms: O_31  and  C_36
   17  A    between atoms: C_32  and  C_36
   18  A    between atoms: N_34  and  C_40
   19  A    between atoms: C_35  and  N_41
                            x       y       z     vdW  Elec       q    Type
                         _______ _______ _______ _____ _____    ______ ____

>  <TORSDO>
F 19

$$$$
