=
 OpenBabel11042420473D

 27 30  0  0  1  0  0  0  0  0999 V2000
  161.6410  208.4860  152.6020 C   0  0  0  0  0  3  0  0  0  0  0  0
  161.3920  207.5620  150.5260 C   0  0  0  0  0  0  0  0  0  0  0  0
  161.0610  206.5820  151.4280 C   0  0  0  0  0  0  0  0  0  0  0  0
  161.2090  207.1570  152.6960 C   0  0  2  0  0  3  0  0  0  0  0  0
  161.7600  208.7330  151.2520 C   0  0  0  0  0  0  0  0  0  0  0  0
  162.1190  209.8710  150.5520 C   0  0  0  0  0  3  0  0  0  0  0  0
  162.1020  209.8090  149.1870 N   0  0  0  0  0  0  0  0  0  0  0  0
  161.7380  208.6740  148.5060 C   0  0  0  0  0  3  0  0  0  0  0  0
  161.3740  207.5380  149.1740 N   0  0  0  0  0  0  0  0  0  0  0  0
  160.5220  205.2210  151.1080 C   0  0  1  0  0  3  0  0  0  0  0  0
  161.4920  204.4840  150.2000 C   0  0  1  0  0  3  0  0  0  0  0  0
  161.4280  204.1410  151.6700 C   0  0  0  0  0  2  0  0  0  0  0  0
  160.7230  203.4510  149.4050 C   0  0  0  0  0  2  0  0  0  0  0  0
  161.6270  202.8590  148.3400 C   0  0  0  0  0  2  0  0  0  0  0  0
  161.0440  203.9850  144.7490 C   0  0  0  0  0  3  0  0  0  0  0  0
  162.0510  205.7970  145.9960 C   0  0  0  0  0  3  0  0  0  0  0  0
  162.0700  204.9990  147.1410 C   0  0  0  0  0  3  0  0  0  0  0  0
  161.0590  203.1790  145.8920 C   0  0  0  0  0  0  0  0  0  0  0  0
  161.5730  203.6910  147.1010 C   0  0  0  0  0  0  0  0  0  0  0  0
  160.5240  201.7900  145.7990 C   0  0  0  0  0  1  0  0  0  0  0  0
  161.5380  205.2900  144.8000 C   0  0  0  0  0  3  0  0  0  0  0  0
  160.8820  206.4850  153.9900 C   0  0  0  0  0  2  0  0  0  0  0  0
  160.4930  207.5040  155.0470 C   0  0  0  0  0  2  0  0  0  0  0  0
  161.5740  207.6670  156.0050 N   0  0  0  0  0  2  0  0  0  0  0  0
  161.3730  208.9020  156.6310 N   0  0  0  0  0  2  0  0  0  0  0  0
  161.4870  210.0860  155.8950 C   0  0  0  0  0  0  0  0  0  0  0  0
  161.5810  211.0660  155.2860 N   0  0  0  0  0  0  0  0  0  0  0  0
  1  4  1  0  0  0  0
  2  5  1  0  0  0  0
  2  3  2  0  0  0  0
  3  4  1  0  0  0  0
  4 22  1  6  0  0  0
  5  1  2  0  0  0  0
  6  5  1  0  0  0  0
  7  6  2  0  0  0  0
  8  9  2  0  0  0  0
  8  7  1  0  0  0  0
  9  2  1  0  0  0  0
 10  3  1  1  0  0  0
 10 12  1  0  0  0  0
 11 13  1  6  0  0  0
 11 10  1  0  0  0  0
 11 12  1  0  0  0  0
 14 13  1  0  0  0  0
 15 21  2  0  0  0  0
 15 18  1  0  0  0  0
 16 17  2  0  0  0  0
 18 19  2  0  0  0  0
 19 17  1  0  0  0  0
 19 14  1  0  0  0  0
 20 18  1  0  0  0  0
 21 16  1  0  0  0  0
 22 23  1  0  0  0  0
 23 24  1  0  0  0  0
 24 25  1  0  0  0  0
 26 25  1  0  0  0  0
 27 26  3  0  0  0  0
M  END
>  <MODEL>
1

>  <REMARK>
 VINA RESULT:      -8.4      0.000      0.000
  Name = 
  9 active torsions:
  status: ('A' for Active; 'I' for Inactive)
    1  A    between atoms: C_1  and  N_10
    2  A    between atoms: C_5  and  C_12
    3  A    between atoms: C_5  and  C_19
    4  A    between atoms: C_6  and  N_14
    5  A    between atoms: C_6  and  C_26
    6  A    between atoms: C_8  and  C_15
    7  A    between atoms: N_10  and  N_14
    8  A    between atoms: C_11  and  C_26
    9  A    between atoms: C_12  and  C_20
                            x       y       z     vdW  Elec       q    Type
                         _______ _______ _______ _____ _____    ______ ____

>  <TORSDO>
F 9

$$$$
=
 OpenBabel11042420473D

 27 30  0  0  1  0  0  0  0  0999 V2000
  161.2520  203.7990  148.2570 C   0  0  0  0  0  3  0  0  0  0  0  0
  161.0980  204.8340  150.2890 C   0  0  0  0  0  0  0  0  0  0  0  0
  161.1880  205.8330  149.3520 C   0  0  0  0  0  0  0  0  0  0  0  0
  161.2740  205.1920  148.1110 C   0  0  0  0  0  0  0  0  0  0  0  0
  161.1500  203.5800  149.6130 C   0  0  1  0  0  3  0  0  0  0  0  0
  161.0580  202.4150  150.3530 C   0  0  0  0  0  3  0  0  0  0  0  0
  160.9220  202.5320  151.7090 N   0  0  0  0  0  0  0  0  0  0  0  0
  160.8680  203.7500  152.3400 C   0  0  0  0  0  3  0  0  0  0  0  0
  160.9520  204.9160  151.6310 N   0  0  0  0  0  0  0  0  0  0  0  0
  161.0770  207.3060  149.6060 C   0  0  1  0  0  3  0  0  0  0  0  0
  162.1980  207.7550  150.5280 C   0  0  1  0  0  3  0  0  0  0  0  0
  162.2840  208.0370  149.0460 C   0  0  0  0  0  2  0  0  0  0  0  0
  161.7540  209.0050  151.2570 C   0  0  0  0  0  2  0  0  0  0  0  0
  160.7130  208.6390  152.2980 C   0  0  0  0  0  2  0  0  0  0  0  0
  161.5430  208.5670  156.0130 C   0  0  0  0  0  3  0  0  0  0  0  0
  162.1220  210.7370  155.1120 C   0  0  0  0  0  3  0  0  0  0  0  0
  161.6890  210.3280  153.8490 C   0  0  0  0  0  3  0  0  0  0  0  0
  161.1080  208.1500  154.7510 C   0  0  0  0  0  0  0  0  0  0  0  0
  161.1850  209.0360  153.6580 C   0  0  0  0  0  0  0  0  0  0  0  0
  160.5730  206.7660  154.5970 C   0  0  0  0  0  1  0  0  0  0  0  0
  162.0500  209.8560  156.1940 C   0  0  0  0  0  3  0  0  0  0  0  0
  161.3110  205.8820  146.7860 C   0  0  0  0  0  2  0  0  0  0  0  0
  162.1760  205.1160  145.7990 C   0  0  0  0  0  2  0  0  0  0  0  0
  161.5730  205.1460  144.4780 N   0  0  0  0  0  2  0  0  0  0  0  0
  160.4000  204.3880  144.5530 N   0  0  0  0  0  2  0  0  0  0  0  0
  160.4590  203.0450  144.9430 C   0  0  0  0  0  0  0  0  0  0  0  0
  160.5070  201.9350  145.2660 N   0  0  0  0  0  0  0  0  0  0  0  0
  2  9  1  0  0  0  0
  3  2  2  0  0  0  0
  4  1  2  0  0  0  0
  4  3  1  0  0  0  0
  5  1  1  6  0  0  0
  5  2  1  0  0  0  0
  5  6  1  0  0  0  0
  6  7  2  0  0  0  0
  7  8  1  0  0  0  0
  9  8  2  0  0  0  0
 10  3  1  6  0  0  0
 10 11  1  0  0  0  0
 11 13  1  1  0  0  0
 12 10  1  0  0  0  0
 12 11  1  0  0  0  0
 13 14  1  0  0  0  0
 14 19  1  0  0  0  0
 15 21  1  0  0  0  0
 16 21  2  0  0  0  0
 17 16  1  0  0  0  0
 18 15  2  0  0  0  0
 19 17  2  0  0  0  0
 19 18  1  0  0  0  0
 20 18  1  0  0  0  0
 22  4  1  0  0  0  0
 23 22  1  0  0  0  0
 24 25  1  0  0  0  0
 24 23  1  0  0  0  0
 25 26  1  0  0  0  0
 26 27  3  0  0  0  0
M  END
>  <MODEL>
2

>  <REMARK>
 VINA RESULT:      -8.2      2.648      8.542
  Name = 
  9 active torsions:
  status: ('A' for Active; 'I' for Inactive)
    1  A    between atoms: C_1  and  N_10
    2  A    between atoms: C_5  and  C_12
    3  A    between atoms: C_5  and  C_19
    4  A    between atoms: C_6  and  N_14
    5  A    between atoms: C_6  and  C_26
    6  A    between atoms: C_8  and  C_15
    7  A    between atoms: N_10  and  N_14
    8  A    between atoms: C_11  and  C_26
    9  A    between atoms: C_12  and  C_20
                            x       y       z     vdW  Elec       q    Type
                         _______ _______ _______ _____ _____    ______ ____

>  <TORSDO>
F 9

$$$$
=
 OpenBabel11042420473D

 27 30  0  0  1  0  0  0  0  0999 V2000
  161.6410  203.6530  147.8550 C   0  0  0  0  0  3  0  0  0  0  0  0
  160.9630  205.6110  146.8900 C   0  0  0  0  0  0  0  0  0  0  0  0
  160.9010  205.8070  148.2470 C   0  0  0  0  0  0  0  0  0  0  0  0
  161.3240  204.6070  148.8300 C   0  0  2  0  0  3  0  0  0  0  0  0
  161.4090  204.2780  146.6490 C   0  0  0  0  0  0  0  0  0  0  0  0
  161.5700  203.8490  145.3440 C   0  0  0  0  0  3  0  0  0  0  0  0
  161.2870  204.7370  144.3440 N   0  0  0  0  0  0  0  0  0  0  0  0
  160.8650  206.0190  144.5960 C   0  0  0  0  0  3  0  0  0  0  0  0
  160.7030  206.4690  145.8770 N   0  0  0  0  0  0  0  0  0  0  0  0
  160.5750  207.0900  148.9470 C   0  0  1  0  0  3  0  0  0  0  0  0
  161.6120  207.3670  150.0240 C   0  0  1  0  0  3  0  0  0  0  0  0
  161.6670  208.1190  148.7140 C   0  0  0  0  0  2  0  0  0  0  0  0
  160.9860  208.2450  151.0860 C   0  0  0  0  0  2  0  0  0  0  0  0
  161.9550  208.4070  152.2410 C   0  0  0  0  0  2  0  0  0  0  0  0
  160.2410  207.1040  155.3830 C   0  0  0  0  0  3  0  0  0  0  0  0
  160.0650  209.5160  155.3240 C   0  0  0  0  0  3  0  0  0  0  0  0
  160.7700  209.5390  154.1190 C   0  0  0  0  0  3  0  0  0  0  0  0
  160.9490  207.1180  154.1760 C   0  0  0  0  0  0  0  0  0  0  0  0
  161.2200  208.3470  153.5400 C   0  0  0  0  0  0  0  0  0  0  0  0
  161.4030  205.8220  153.5940 C   0  0  0  0  0  1  0  0  0  0  0  0
  159.8010  208.2990  155.9560 C   0  0  0  0  0  3  0  0  0  0  0  0
  161.4940  204.3760  150.2970 C   0  0  0  0  0  2  0  0  0  0  0  0
  160.5180  203.3250  150.7970 C   0  0  0  0  0  2  0  0  0  0  0  0
  161.2030  202.0580  150.9880 N   0  0  0  0  0  2  0  0  0  0  0  0
  160.5260  201.1130  150.2100 N   0  0  0  0  0  2  0  0  0  0  0  0
  161.0690  200.6930  148.9900 C   0  0  0  0  0  0  0  0  0  0  0  0
  161.5180  200.3450  147.9820 N   0  0  0  0  0  0  0  0  0  0  0  0
  1  4  1  0  0  0  0
  2  3  2  0  0  0  0
  3  4  1  0  0  0  0
  4 22  1  6  0  0  0
  5  2  1  0  0  0  0
  5  1  2  0  0  0  0
  6  5  1  0  0  0  0
  7  8  1  0  0  0  0
  7  6  2  0  0  0  0
  8  9  2  0  0  0  0
  9  2  1  0  0  0  0
 10  3  1  6  0  0  0
 10 11  1  0  0  0  0
 11 13  1  1  0  0  0
 12 10  1  0  0  0  0
 12 11  1  0  0  0  0
 13 14  1  0  0  0  0
 14 19  1  0  0  0  0
 15 21  1  0  0  0  0
 16 21  2  0  0  0  0
 17 16  1  0  0  0  0
 18 15  2  0  0  0  0
 19 17  2  0  0  0  0
 19 18  1  0  0  0  0
 20 18  1  0  0  0  0
 22 23  1  0  0  0  0
 23 24  1  0  0  0  0
 25 24  1  0  0  0  0
 26 25  1  0  0  0  0
 27 26  3  0  0  0  0
M  END
>  <MODEL>
3

>  <REMARK>
 VINA RESULT:      -8.2      3.363      7.644
  Name = 
  9 active torsions:
  status: ('A' for Active; 'I' for Inactive)
    1  A    between atoms: C_1  and  N_10
    2  A    between atoms: C_5  and  C_12
    3  A    between atoms: C_5  and  C_19
    4  A    between atoms: C_6  and  N_14
    5  A    between atoms: C_6  and  C_26
    6  A    between atoms: C_8  and  C_15
    7  A    between atoms: N_10  and  N_14
    8  A    between atoms: C_11  and  C_26
    9  A    between atoms: C_12  and  C_20
                            x       y       z     vdW  Elec       q    Type
                         _______ _______ _______ _____ _____    ______ ____

>  <TORSDO>
F 9

$$$$
=
 OpenBabel11042420473D

 27 30  0  0  1  0  0  0  0  0999 V2000
  161.2190  203.6390  148.3530 C   0  0  0  0  0  3  0  0  0  0  0  0
  161.0430  204.7580  150.3380 C   0  0  0  0  0  0  0  0  0  0  0  0
  161.0630  205.7160  149.3560 C   0  0  0  0  0  0  0  0  0  0  0  0
  161.1630  205.0230  148.1430 C   0  0  0  0  0  0  0  0  0  0  0  0
  161.1510  203.4780  149.7190 C   0  0  1  0  0  3  0  0  0  0  0  0
  161.1340  202.3450  150.5130 C   0  0  0  0  0  3  0  0  0  0  0  0
  161.0140  202.5170  151.8640 N   0  0  0  0  0  0  0  0  0  0  0  0
  160.9050  203.7580  152.4400 C   0  0  0  0  0  3  0  0  0  0  0  0
  160.9140  204.8930  151.6780 N   0  0  0  0  0  0  0  0  0  0  0  0
  160.8770  207.1900  149.5440 C   0  0  1  0  0  3  0  0  0  0  0  0
  161.7570  207.6790  150.6820 C   0  0  1  0  0  3  0  0  0  0  0  0
  162.1670  207.9340  149.2500 C   0  0  0  0  0  2  0  0  0  0  0  0
  161.1450  208.9340  151.2650 C   0  0  0  0  0  2  0  0  0  0  0  0
  161.9040  209.3310  152.5170 C   0  0  0  0  0  2  0  0  0  0  0  0
  159.9410  209.3170  155.7800 C   0  0  0  0  0  3  0  0  0  0  0  0
  160.3940  207.0350  155.1150 C   0  0  0  0  0  3  0  0  0  0  0  0
  161.0600  207.4980  153.9780 C   0  0  0  0  0  3  0  0  0  0  0  0
  160.6070  209.7880  154.6440 C   0  0  0  0  0  0  0  0  0  0  0  0
  161.1680  208.8710  153.7320 C   0  0  0  0  0  0  0  0  0  0  0  0
  160.7020  211.2610  154.4260 C   0  0  0  0  0  1  0  0  0  0  0  0
  159.8340  207.9440  156.0150 C   0  0  0  0  0  3  0  0  0  0  0  0
  161.1410  205.6520  146.7880 C   0  0  0  0  0  2  0  0  0  0  0  0
  162.4600  205.4340  146.0670 C   0  0  0  0  0  2  0  0  0  0  0  0
  162.4180  204.1910  145.3150 N   0  0  0  0  0  2  0  0  0  0  0  0
  161.0790  203.9710  144.9750 N   0  0  0  0  0  2  0  0  0  0  0  0
  160.5470  202.6780  145.0320 C   0  0  0  0  0  0  0  0  0  0  0  0
  160.1070  201.6080  145.0780 N   0  0  0  0  0  0  0  0  0  0  0  0
  2  9  1  0  0  0  0
  3  2  2  0  0  0  0
  4  1  2  0  0  0  0
  4  3  1  0  0  0  0
  5  1  1  6  0  0  0
  5  2  1  0  0  0  0
  5  6  1  0  0  0  0
  6  7  2  0  0  0  0
  7  8  1  0  0  0  0
  9  8  2  0  0  0  0
 10  3  1  6  0  0  0
 10 11  1  0  0  0  0
 11 13  1  1  0  0  0
 12 10  1  0  0  0  0
 12 11  1  0  0  0  0
 13 14  1  0  0  0  0
 14 19  1  0  0  0  0
 15 21  1  0  0  0  0
 16 21  2  0  0  0  0
 17 16  1  0  0  0  0
 18 15  2  0  0  0  0
 19 17  2  0  0  0  0
 19 18  1  0  0  0  0
 20 18  1  0  0  0  0
 22  4  1  0  0  0  0
 23 22  1  0  0  0  0
 24 23  1  0  0  0  0
 25 26  1  0  0  0  0
 25 24  1  0  0  0  0
 26 27  3  0  0  0  0
M  END
>  <MODEL>
4

>  <REMARK>
 VINA RESULT:      -8.1      2.661      8.600
  Name = 
  9 active torsions:
  status: ('A' for Active; 'I' for Inactive)
    1  A    between atoms: C_1  and  N_10
    2  A    between atoms: C_5  and  C_12
    3  A    between atoms: C_5  and  C_19
    4  A    between atoms: C_6  and  N_14
    5  A    between atoms: C_6  and  C_26
    6  A    between atoms: C_8  and  C_15
    7  A    between atoms: N_10  and  N_14
    8  A    between atoms: C_11  and  C_26
    9  A    between atoms: C_12  and  C_20
                            x       y       z     vdW  Elec       q    Type
                         _______ _______ _______ _____ _____    ______ ____

>  <TORSDO>
F 9

$$$$
=
 OpenBabel11042420473D

 27 30  0  0  1  0  0  0  0  0999 V2000
  161.5460  210.3290  153.2620 C   0  0  0  0  0  3  0  0  0  0  0  0
  161.2230  208.7530  154.8850 C   0  0  0  0  0  0  0  0  0  0  0  0
  160.9450  208.1390  153.6900 C   0  0  0  0  0  0  0  0  0  0  0  0
  161.1520  209.1080  152.7010 C   0  0  0  0  0  0  0  0  0  0  0  0
  161.5820  210.1070  154.6210 C   0  0  1  0  0  3  0  0  0  0  0  0
  161.9270  210.9290  155.6790 C   0  0  0  0  0  3  0  0  0  0  0  0
  161.9020  210.3920  156.9360 N   0  0  0  0  0  0  0  0  0  0  0  0
  161.5580  209.0830  157.1690 C   0  0  0  0  0  3  0  0  0  0  0  0
  161.2190  208.2480  156.1410 N   0  0  0  0  0  0  0  0  0  0  0  0
  160.6190  206.6910  153.4860 C   0  0  1  0  0  3  0  0  0  0  0  0
  161.6600  206.0510  152.5840 C   0  0  1  0  0  3  0  0  0  0  0  0
  161.7070  205.8100  154.0750 C   0  0  0  0  0  2  0  0  0  0  0  0
  161.0370  204.8550  151.8970 C   0  0  0  0  0  2  0  0  0  0  0  0
  160.9900  205.1010  150.4010 C   0  0  0  0  0  2  0  0  0  0  0  0
  161.2750  202.5100  147.6240 C   0  0  0  0  0  3  0  0  0  0  0  0
  160.7690  201.3890  149.7080 C   0  0  0  0  0  3  0  0  0  0  0  0
  160.7660  202.6190  150.3690 C   0  0  0  0  0  3  0  0  0  0  0  0
  161.2730  203.7460  148.2800 C   0  0  0  0  0  0  0  0  0  0  0  0
  161.0210  203.8010  149.6650 C   0  0  0  0  0  0  0  0  0  0  0  0
  161.5450  204.9800  147.4870 C   0  0  0  0  0  1  0  0  0  0  0  0
  161.0250  201.3340  148.3360 C   0  0  0  0  0  3  0  0  0  0  0  0
  161.0450  208.8720  151.2290 C   0  0  0  0  0  2  0  0  0  0  0  0
  162.3210  209.2930  150.5190 C   0  0  0  0  0  2  0  0  0  0  0  0
  162.0110  209.7940  149.1910 N   0  0  0  0  0  2  0  0  0  0  0  0
  161.9420  211.1870  149.2920 N   0  0  0  0  0  2  0  0  0  0  0  0
  162.5340  211.9910  148.3110 C   0  0  0  0  0  0  0  0  0  0  0  0
  163.0220  212.6550  147.4990 N   0  0  0  0  0  0  0  0  0  0  0  0
  2  9  1  0  0  0  0
  3  2  2  0  0  0  0
  4  1  2  0  0  0  0
  4  3  1  0  0  0  0
  5  1  1  6  0  0  0
  5  2  1  0  0  0  0
  5  6  1  0  0  0  0
  6  7  2  0  0  0  0
  7  8  1  0  0  0  0
  9  8  2  0  0  0  0
 10  3  1  1  0  0  0
 10 12  1  0  0  0  0
 11 13  1  6  0  0  0
 11 10  1  0  0  0  0
 11 12  1  0  0  0  0
 14 13  1  0  0  0  0
 15 18  2  0  0  0  0
 15 21  1  0  0  0  0
 16 17  1  0  0  0  0
 18 19  1  0  0  0  0
 19 17  2  0  0  0  0
 19 14  1  0  0  0  0
 20 18  1  0  0  0  0
 21 16  2  0  0  0  0
 22  4  1  0  0  0  0
 23 22  1  0  0  0  0
 24 25  1  0  0  0  0
 24 23  1  0  0  0  0
 26 25  1  0  0  0  0
 27 26  3  0  0  0  0
M  END
>  <MODEL>
5

>  <REMARK>
 VINA RESULT:      -8.0      1.457      5.094
  Name = 
  9 active torsions:
  status: ('A' for Active; 'I' for Inactive)
    1  A    between atoms: C_1  and  N_10
    2  A    between atoms: C_5  and  C_12
    3  A    between atoms: C_5  and  C_19
    4  A    between atoms: C_6  and  N_14
    5  A    between atoms: C_6  and  C_26
    6  A    between atoms: C_8  and  C_15
    7  A    between atoms: N_10  and  N_14
    8  A    between atoms: C_11  and  C_26
    9  A    between atoms: C_12  and  C_20
                            x       y       z     vdW  Elec       q    Type
                         _______ _______ _______ _____ _____    ______ ____

>  <TORSDO>
F 9

$$$$
=
 OpenBabel11042420473D

 27 30  0  0  1  0  0  0  0  0999 V2000
  161.3110  204.2590  147.4200 C   0  0  0  0  0  3  0  0  0  0  0  0
  161.0170  203.5330  149.5680 C   0  0  0  0  0  0  0  0  0  0  0  0
  161.0320  204.9050  149.6220 C   0  0  0  0  0  0  0  0  0  0  0  0
  161.2050  205.3410  148.3030 C   0  0  2  0  0  3  0  0  0  0  0  0
  161.2000  203.1360  148.2110 C   0  0  0  0  0  0  0  0  0  0  0  0
  161.2020  201.7870  147.9010 C   0  0  0  0  0  3  0  0  0  0  0  0
  161.0280  200.8990  148.9260 N   0  0  0  0  0  0  0  0  0  0  0  0
  160.8460  201.3030  150.2250 C   0  0  0  0  0  3  0  0  0  0  0  0
  160.8350  202.6290  150.5580 N   0  0  0  0  0  0  0  0  0  0  0  0
  160.7780  205.7520  150.8310 C   0  0  1  0  0  3  0  0  0  0  0  0
  161.4100  205.1070  152.0540 C   0  0  1  0  0  3  0  0  0  0  0  0
  162.0830  206.2880  151.3920 C   0  0  0  0  0  2  0  0  0  0  0  0
  160.6660  205.5730  153.2860 C   0  0  0  0  0  2  0  0  0  0  0  0
  161.5850  206.4320  154.1350 C   0  0  0  0  0  2  0  0  0  0  0  0
  159.6270  209.2480  155.7910 C   0  0  0  0  0  3  0  0  0  0  0  0
  160.4540  210.0090  153.6490 C   0  0  0  0  0  3  0  0  0  0  0  0
  161.0530  208.7650  153.4370 C   0  0  0  0  0  3  0  0  0  0  0  0
  160.2240  207.9990  155.5870 C   0  0  0  0  0  0  0  0  0  0  0  0
  160.9480  207.7560  154.4020 C   0  0  0  0  0  0  0  0  0  0  0  0
  160.0810  206.9530  156.6410 C   0  0  0  0  0  1  0  0  0  0  0  0
  159.7410  210.2500  154.8260 C   0  0  0  0  0  3  0  0  0  0  0  0
  161.2040  206.7690  147.8620 C   0  0  0  0  0  2  0  0  0  0  0  0
  162.6090  207.3460  147.8920 C   0  0  0  0  0  2  0  0  0  0  0  0
  162.7060  208.3720  148.9160 N   0  0  0  0  0  2  0  0  0  0  0  0
  161.7170  209.3190  148.6320 N   0  0  0  0  0  2  0  0  0  0  0  0
  162.0320  210.6830  148.6360 C   0  0  0  0  0  0  0  0  0  0  0  0
  162.2930  211.8100  148.6400 N   0  0  0  0  0  0  0  0  0  0  0  0
  1  5  2  0  0  0  0
  1  4  1  0  0  0  0
  2  3  2  0  0  0  0
  2  9  1  0  0  0  0
  4 22  1  6  0  0  0
  4  3  1  0  0  0  0
  5  2  1  0  0  0  0
  6  5  1  0  0  0  0
  6  7  2  0  0  0  0
  7  8  1  0  0  0  0
  8  9  2  0  0  0  0
 10  3  1  6  0  0  0
 10 12  1  0  0  0  0
 10 11  1  0  0  0  0
 11 13  1  1  0  0  0
 12 11  1  0  0  0  0
 13 14  1  0  0  0  0
 14 19  1  0  0  0  0
 16 21  1  0  0  0  0
 17 16  2  0  0  0  0
 17 19  1  0  0  0  0
 18 15  1  0  0  0  0
 18 20  1  0  0  0  0
 19 18  2  0  0  0  0
 21 15  2  0  0  0  0
 22 23  1  0  0  0  0
 23 24  1  0  0  0  0
 25 26  1  0  0  0  0
 25 24  1  0  0  0  0
 26 27  3  0  0  0  0
M  END
>  <MODEL>
6

>  <REMARK>
 VINA RESULT:      -7.9      2.859      7.453
  Name = 
  9 active torsions:
  status: ('A' for Active; 'I' for Inactive)
    1  A    between atoms: C_1  and  N_10
    2  A    between atoms: C_5  and  C_12
    3  A    between atoms: C_5  and  C_19
    4  A    between atoms: C_6  and  N_14
    5  A    between atoms: C_6  and  C_26
    6  A    between atoms: C_8  and  C_15
    7  A    between atoms: N_10  and  N_14
    8  A    between atoms: C_11  and  C_26
    9  A    between atoms: C_12  and  C_20
                            x       y       z     vdW  Elec       q    Type
                         _______ _______ _______ _____ _____    ______ ____

>  <TORSDO>
F 9

$$$$
=
 OpenBabel11042420473D

 27 30  0  0  1  0  0  0  0  0999 V2000
  161.5030  210.1710  152.4980 C   0  0  0  0  0  3  0  0  0  0  0  0
  161.5670  208.4840  150.9570 C   0  0  0  0  0  0  0  0  0  0  0  0
  161.2400  207.9010  152.1550 C   0  0  0  0  0  0  0  0  0  0  0  0
  161.1950  208.9400  153.0920 C   0  0  2  0  0  3  0  0  0  0  0  0
  161.7410  209.8830  151.1720 C   0  0  0  0  0  0  0  0  0  0  0  0
  162.0590  210.6930  150.0960 C   0  0  0  0  0  3  0  0  0  0  0  0
  162.1930  210.1000  148.8720 N   0  0  0  0  0  0  0  0  0  0  0  0
  162.0160  208.7520  148.6850 C   0  0  0  0  0  3  0  0  0  0  0  0
  161.6960  207.9300  149.7290 N   0  0  0  0  0  0  0  0  0  0  0  0
  160.8740  206.4650  152.3770 C   0  0  1  0  0  3  0  0  0  0  0  0
  162.0940  205.5840  152.1680 C   0  0  1  0  0  3  0  0  0  0  0  0
  161.6240  205.8990  153.5690 C   0  0  0  0  0  2  0  0  0  0  0  0
  161.6300  204.1970  151.7780 C   0  0  0  0  0  2  0  0  0  0  0  0
  160.6090  204.3030  150.6610 C   0  0  0  0  0  2  0  0  0  0  0  0
  161.3330  202.4680  147.4030 C   0  0  0  0  0  3  0  0  0  0  0  0
  160.8750  200.8490  149.1420 C   0  0  0  0  0  3  0  0  0  0  0  0
  160.6910  201.8860  150.0590 C   0  0  0  0  0  3  0  0  0  0  0  0
  161.1510  203.5120  148.3160 C   0  0  0  0  0  0  0  0  0  0  0  0
  160.8310  203.2190  149.6580 C   0  0  0  0  0  0  0  0  0  0  0  0
  161.3050  204.9180  147.8410 C   0  0  0  0  0  1  0  0  0  0  0  0
  161.1970  201.1400  147.8140 C   0  0  0  0  0  3  0  0  0  0  0  0
  160.8010  208.7910  154.5250 C   0  0  0  0  0  2  0  0  0  0  0  0
  161.4680  209.8520  155.3840 C   0  0  0  0  0  2  0  0  0  0  0  0
  160.5890  210.2370  156.4760 N   0  0  0  0  0  2  0  0  0  0  0  0
  159.2880  210.2390  155.9630 N   0  0  0  0  0  2  0  0  0  0  0  0
  158.6380  211.4520  155.7090 C   0  0  0  0  0  0  0  0  0  0  0  0
  158.1000  212.4550  155.4990 N   0  0  0  0  0  0  0  0  0  0  0  0
  1  4  1  0  0  0  0
  2  5  1  0  0  0  0
  2  3  2  0  0  0  0
  3  4  1  0  0  0  0
  4 22  1  6  0  0  0
  5  1  2  0  0  0  0
  6  5  1  0  0  0  0
  7  6  2  0  0  0  0
  8  7  1  0  0  0  0
  8  9  2  0  0  0  0
  9  2  1  0  0  0  0
 10  3  1  1  0  0  0
 10 12  1  0  0  0  0
 11 13  1  6  0  0  0
 11 10  1  0  0  0  0
 11 12  1  0  0  0  0
 14 13  1  0  0  0  0
 15 21  2  0  0  0  0
 15 18  1  0  0  0  0
 16 17  2  0  0  0  0
 18 19  2  0  0  0  0
 19 17  1  0  0  0  0
 19 14  1  0  0  0  0
 20 18  1  0  0  0  0
 21 16  1  0  0  0  0
 22 23  1  0  0  0  0
 23 24  1  0  0  0  0
 25 24  1  0  0  0  0
 26 25  1  0  0  0  0
 27 26  3  0  0  0  0
M  END
>  <MODEL>
7

>  <REMARK>
 VINA RESULT:      -7.9      1.515      2.815
  Name = 
  9 active torsions:
  status: ('A' for Active; 'I' for Inactive)
    1  A    between atoms: C_1  and  N_10
    2  A    between atoms: C_5  and  C_12
    3  A    between atoms: C_5  and  C_19
    4  A    between atoms: C_6  and  N_14
    5  A    between atoms: C_6  and  C_26
    6  A    between atoms: C_8  and  C_15
    7  A    between atoms: N_10  and  N_14
    8  A    between atoms: C_11  and  C_26
    9  A    between atoms: C_12  and  C_20
                            x       y       z     vdW  Elec       q    Type
                         _______ _______ _______ _____ _____    ______ ____

>  <TORSDO>
F 9

$$$$
=
 OpenBabel11042420473D

 27 30  0  0  1  0  0  0  0  0999 V2000
  161.5340  205.7240  146.8560 C   0  0  0  0  0  3  0  0  0  0  0  0
  161.3220  203.6070  147.6930 C   0  0  0  0  0  0  0  0  0  0  0  0
  161.5760  204.4240  148.7670 C   0  0  0  0  0  0  0  0  0  0  0  0
  161.6960  205.7180  148.2470 C   0  0  2  0  0  3  0  0  0  0  0  0
  161.3080  204.4080  146.5140 C   0  0  0  0  0  0  0  0  0  0  0  0
  161.0520  203.8050  145.2950 C   0  0  0  0  0  3  0  0  0  0  0  0
  160.8250  202.4570  145.2890 N   0  0  0  0  0  0  0  0  0  0  0  0
  160.8370  201.7040  146.4370 C   0  0  0  0  0  3  0  0  0  0  0  0
  161.0820  202.2760  147.6540 N   0  0  0  0  0  0  0  0  0  0  0  0
  161.5830  204.0220  150.2100 C   0  0  1  0  0  3  0  0  0  0  0  0
  160.6260  204.9020  150.9950 C   0  0  1  0  0  3  0  0  0  0  0  0
  160.2210  203.4940  150.6250 C   0  0  0  0  0  2  0  0  0  0  0  0
  161.0740  204.9380  152.4400 C   0  0  0  0  0  2  0  0  0  0  0  0
  161.9260  206.1710  152.6730 C   0  0  0  0  0  2  0  0  0  0  0  0
  160.4570  209.2930  154.2850 C   0  0  0  0  0  3  0  0  0  0  0  0
  160.1660  207.4150  155.7820 C   0  0  0  0  0  3  0  0  0  0  0  0
  160.7890  206.5780  154.8540 C   0  0  0  0  0  3  0  0  0  0  0  0
  161.0830  208.4620  153.3500 C   0  0  0  0  0  0  0  0  0  0  0  0
  161.2470  207.0910  153.6340 C   0  0  0  0  0  0  0  0  0  0  0  0
  161.5590  209.0540  152.0670 C   0  0  0  0  0  1  0  0  0  0  0  0
  159.9990  208.7720  155.4970 C   0  0  0  0  0  3  0  0  0  0  0  0
  161.8980  206.9560  149.0600 C   0  0  0  0  0  2  0  0  0  0  0  0
  161.5810  208.1970  148.2430 C   0  0  0  0  0  2  0  0  0  0  0  0
  162.4050  209.3100  148.6840 N   0  0  0  0  0  2  0  0  0  0  0  0
  161.6370  210.4680  148.5260 N   0  0  0  0  0  2  0  0  0  0  0  0
  162.2630  211.6920  148.2620 C   0  0  0  0  0  0  0  0  0  0  0  0
  162.7810  212.7030  148.0430 N   0  0  0  0  0  0  0  0  0  0  0  0
  1  4  1  0  0  0  0
  2  3  2  0  0  0  0
  4  3  1  0  0  0  0
  4 22  1  1  0  0  0
  5  1  2  0  0  0  0
  5  2  1  0  0  0  0
  6  5  1  0  0  0  0
  7  6  2  0  0  0  0
  7  8  1  0  0  0  0
  8  9  2  0  0  0  0
  9  2  1  0  0  0  0
 10  3  1  6  0  0  0
 10 12  1  0  0  0  0
 10 11  1  0  0  0  0
 11 13  1  1  0  0  0
 12 11  1  0  0  0  0
 13 14  1  0  0  0  0
 14 19  1  0  0  0  0
 15 21  1  0  0  0  0
 17 16  1  0  0  0  0
 18 19  1  0  0  0  0
 18 15  2  0  0  0  0
 19 17  2  0  0  0  0
 20 18  1  0  0  0  0
 21 16  2  0  0  0  0
 23 24  1  0  0  0  0
 23 22  1  0  0  0  0
 25 24  1  0  0  0  0
 26 25  1  0  0  0  0
 27 26  3  0  0  0  0
M  END
>  <MODEL>
8

>  <REMARK>
 VINA RESULT:      -7.9      2.722      7.126
  Name = 
  9 active torsions:
  status: ('A' for Active; 'I' for Inactive)
    1  A    between atoms: C_1  and  N_10
    2  A    between atoms: C_5  and  C_12
    3  A    between atoms: C_5  and  C_19
    4  A    between atoms: C_6  and  N_14
    5  A    between atoms: C_6  and  C_26
    6  A    between atoms: C_8  and  C_15
    7  A    between atoms: N_10  and  N_14
    8  A    between atoms: C_11  and  C_26
    9  A    between atoms: C_12  and  C_20
                            x       y       z     vdW  Elec       q    Type
                         _______ _______ _______ _____ _____    ______ ____

>  <TORSDO>
F 9

$$$$
=
 OpenBabel11042420473D

 27 30  0  0  1  0  0  0  0  0999 V2000
  160.8240  205.6620  153.7090 C   0  0  0  0  0  3  0  0  0  0  0  0
  161.3130  207.8600  153.3130 C   0  0  0  0  0  0  0  0  0  0  0  0
  161.7700  207.1590  152.2240 C   0  0  0  0  0  0  0  0  0  0  0  0
  161.4600  205.8170  152.4710 C   0  0  0  0  0  0  0  0  0  0  0  0
  160.7400  206.9340  154.2330 C   0  0  0  0  0  0  0  0  0  0  0  0
  160.1900  207.4110  155.4100 C   0  0  0  0  0  3  0  0  0  0  0  0
  160.2290  208.7590  155.6290 N   0  0  0  0  0  0  0  0  0  0  0  0
  160.7800  209.6350  154.7270 C   0  0  0  0  0  3  0  0  0  0  0  0
  161.3250  209.1910  153.5540 N   0  0  0  0  0  2  0  0  0  0  0  0
  162.3560  207.7390  150.9730 C   0  0  1  0  0  3  0  0  0  0  0  0
  161.3250  207.7070  149.8580 C   0  0  1  0  0  3  0  0  0  0  0  0
  161.6180  209.0050  150.5740 C   0  0  0  0  0  2  0  0  0  0  0  0
  162.0490  207.6860  148.5290 C   0  0  0  0  0  2  0  0  0  0  0  0
  162.4540  206.2620  148.1980 C   0  0  0  0  0  2  0  0  0  0  0  0
  161.9550  204.6000  144.8080 C   0  0  0  0  0  3  0  0  0  0  0  0
  160.0780  206.0580  145.2620 C   0  0  0  0  0  3  0  0  0  0  0  0
  160.6450  206.4070  146.4890 C   0  0  0  0  0  3  0  0  0  0  0  0
  162.5300  204.9450  146.0360 C   0  0  0  0  0  0  0  0  0  0  0  0
  161.8670  205.8520  146.8870 C   0  0  0  0  0  0  0  0  0  0  0  0
  163.8360  204.3330  146.4140 C   0  0  0  0  0  1  0  0  0  0  0  0
  160.7330  205.1550  144.4210 C   0  0  0  0  0  3  0  0  0  0  0  0
  161.7010  204.6890  151.5200 C   0  0  0  0  0  2  0  0  0  0  0  0
  161.0090  203.4230  151.9950 C   0  0  0  0  0  2  0  0  0  0  0  0
  160.8260  202.5060  150.8830 N   0  0  0  0  0  2  0  0  0  0  0  0
  160.8270  203.2800  149.7180 N   0  0  0  0  0  2  0  0  0  0  0  0
  160.8290  202.6570  148.4650 C   0  0  0  0  0  0  0  0  0  0  0  0
  160.8310  202.1430  147.4280 N   0  0  0  0  0  0  0  0  0  0  0  0
  1  5  1  0  0  0  0
  2  9  1  0  0  0  0
  2  5  1  0  0  0  0
  3  4  1  0  0  0  0
  3  2  2  0  0  0  0
  4  1  2  0  0  0  0
  5  6  2  0  0  0  0
  6  7  1  0  0  0  0
  8  7  2  0  0  0  0
  9  8  1  0  0  0  0
 10  3  1  1  0  0  0
 11 13  1  6  0  0  0
 11 12  1  0  0  0  0
 11 10  1  0  0  0  0
 12 10  1  0  0  0  0
 14 13  1  0  0  0  0
 15 18  1  0  0  0  0
 16 17  2  0  0  0  0
 17 19  1  0  0  0  0
 18 20  1  0  0  0  0
 18 19  2  0  0  0  0
 19 14  1  0  0  0  0
 21 15  2  0  0  0  0
 21 16  1  0  0  0  0
 22 23  1  0  0  0  0
 22  4  1  0  0  0  0
 24 23  1  0  0  0  0
 25 24  1  0  0  0  0
 26 25  1  0  0  0  0
 27 26  3  0  0  0  0
M  END
>  <MODEL>
9

>  <REMARK>
 VINA RESULT:      -7.9      2.074      5.146
  Name = 
  9 active torsions:
  status: ('A' for Active; 'I' for Inactive)
    1  A    between atoms: C_1  and  N_10
    2  A    between atoms: C_5  and  C_12
    3  A    between atoms: C_5  and  C_19
    4  A    between atoms: C_6  and  N_14
    5  A    between atoms: C_6  and  C_26
    6  A    between atoms: C_8  and  C_15
    7  A    between atoms: N_10  and  N_14
    8  A    between atoms: C_11  and  C_26
    9  A    between atoms: C_12  and  C_20
                            x       y       z     vdW  Elec       q    Type
                         _______ _______ _______ _____ _____    ______ ____

>  <TORSDO>
F 9

$$$$
