=
 OpenBabel11042422593D

 32 37  0  0  1  0  0  0  0  0999 V2000
  161.2780  204.6200  150.5690 C   0  0  0  0  0  0  0  0  0  0  0  0
  161.4030  206.9100  151.3500 C   0  0  0  0  0  0  0  0  0  0  0  0
  161.1310  203.2650  150.8910 C   0  0  0  0  0  3  0  0  0  0  0  0
  161.2540  205.5870  151.6130 C   0  0  0  0  0  0  0  0  0  0  0  0
  161.3860  207.8890  152.3770 C   0  0  0  0  0  0  0  0  0  0  0  0
  162.6640  210.4000  148.2350 N   0  0  0  0  0  2  0  0  0  0  0  0
  161.5860  207.3280  150.0180 C   0  0  2  0  0  3  0  0  0  0  0  0
  162.0130  211.0730  150.4990 C   0  0  0  0  0  2  0  0  0  0  0  0
  161.7480  209.6180  150.7650 C   0  0  0  0  0  0  0  0  0  0  0  0
  161.0790  205.1410  152.9380 C   0  0  0  0  0  0  0  0  0  0  0  0
  161.5580  209.2000  152.0440 N   0  0  0  0  0  0  0  0  0  0  0  0
  161.0320  206.1060  154.0840 C   0  0  0  0  0  3  0  0  0  0  0  0
  160.9480  203.8140  153.2020 N   0  0  0  0  0  0  0  0  0  0  0  0
  161.5820  206.3710  148.9970 O   0  0  0  0  0  0  0  0  0  0  0  0
  161.4360  205.0110  149.2880 C   0  0  0  0  0  0  0  0  0  0  0  0
  161.7760  208.6800  149.7220 C   0  0  0  0  0  0  0  0  0  0  0  0
  161.2170  207.5450  153.6720 C   0  0  0  0  0  0  0  0  0  0  0  0
  160.9690  202.8800  152.2190 C   0  0  0  0  0  3  0  0  0  0  0  0
  161.9310  211.3990  149.0070 C   0  0  0  0  0  2  0  0  0  0  0  0
  161.9240  209.1410  148.2960 C   0  0  0  0  0  2  0  0  0  0  0  0
  160.9660  204.0080  145.6280 C   0  0  0  0  0  0  0  0  0  0  0  0
  161.1430  200.3190  146.1250 O   0  0  0  0  0  1  0  0  0  0  0  0
  160.2210  204.6070  144.8700 O   0  0  0  0  0  0  0  0  0  0  0  0
  160.2010  201.9760  147.5310 C   0  0  0  0  0  3  0  0  0  0  0  0
  161.4460  204.0270  148.1550 C   0  0  1  0  0  3  0  0  0  0  0  0
  161.2890  202.5650  145.3260 C   0  0  0  0  0  2  0  0  0  0  0  0
  160.2720  203.0890  148.2700 C   0  0  0  0  0  3  0  0  0  0  0  0
  161.5530  204.7520  146.8010 C   0  0  1  0  0  3  0  0  0  0  0  0
  163.2540  205.1600  146.4690 Cl  0  0  0  0  0  0  0  0  0  0  0  0
  161.2850  201.6390  146.5460 C   0  0  2  0  0  3  0  0  0  0  0  0
  161.2390  208.6110  154.7360 C   0  0  0  0  0  2  0  0  0  0  0  0
  161.6370  208.0950  155.9700 O   0  0  0  0  0  1  0  0  0  0  0  0
  1  3  1  0  0  0  0
  1  4  1  0  0  0  0
  2  4  2  0  0  0  0
  2  5  1  0  0  0  0
  3 18  2  0  0  0  0
  4 10  1  0  0  0  0
  5 17  1  0  0  0  0
  6 20  1  0  0  0  0
  6 19  1  0  0  0  0
  7 14  1  1  0  0  0
  7  2  1  0  0  0  0
  8  9  1  0  0  0  0
  9 11  1  0  0  0  0
 10 13  2  0  0  0  0
 10 12  1  0  0  0  0
 11  5  2  0  0  0  0
 14 15  1  0  0  0  0
 15  1  2  0  0  0  0
 16  7  1  0  0  0  0
 16  9  2  0  0  0  0
 17 12  2  0  0  0  0
 17 31  1  0  0  0  0
 18 13  1  0  0  0  0
 19  8  1  0  0  0  0
 20 16  1  0  0  0  0
 21 28  1  0  0  0  0
 23 21  2  0  0  0  0
 24 27  2  0  0  0  0
 25 27  1  0  0  0  0
 25 15  1  1  0  0  0
 26 21  1  0  0  0  0
 26 30  1  0  0  0  0
 28 29  1  6  0  0  0
 28 25  1  0  0  0  0
 30 22  1  6  0  0  0
 30 24  1  0  0  0  0
 31 32  1  0  0  0  0
M  END
>  <MODEL>
1

>  <REMARK>
 VINA RESULT:      -8.4      0.000      0.000
  Name = 
  2 active torsions:
  status: ('A' for Active; 'I' for Inactive)
    1  A    between atoms: C_13  and  C_29
    2  A    between atoms: C_16  and  C_27
                            x       y       z     vdW  Elec       q    Type
                         _______ _______ _______ _____ _____    ______ ____

>  <TORSDO>
F 2

$$$$
=
 OpenBabel11042422593D

 32 37  0  0  1  0  0  0  0  0999 V2000
  161.4800  208.3760  150.9860 C   0  0  0  0  0  0  0  0  0  0  0  0
  161.3920  206.4130  149.5670 C   0  0  0  0  0  0  0  0  0  0  0  0
  161.6850  209.7580  151.0850 C   0  0  0  0  0  3  0  0  0  0  0  0
  161.5740  207.7510  149.7110 C   0  0  0  0  0  0  0  0  0  0  0  0
  161.4850  205.7710  148.3060 C   0  0  0  0  0  0  0  0  0  0  0  0
  161.0410  202.0360  151.6140 N   0  0  0  0  0  2  0  0  0  0  0  0
  161.1070  205.6350  150.7050 C   0  0  0  0  0  0  0  0  0  0  0  0
  160.9480  202.1620  149.1700 C   0  0  0  0  0  2  0  0  0  0  0  0
  161.0450  203.6540  149.3270 C   0  0  0  0  0  0  0  0  0  0  0  0
  161.8690  208.5530  148.5900 C   0  0  0  0  0  0  0  0  0  0  0  0
  161.3080  204.4210  148.2360 N   0  0  0  0  0  0  0  0  0  0  0  0
  161.9710  207.9610  147.2170 C   0  0  0  0  0  2  0  0  0  0  0  0
  162.0690  209.8890  148.7380 N   0  0  0  0  0  0  0  0  0  0  0  0
  160.9920  206.2630  151.9510 O   0  0  0  0  0  0  0  0  0  0  0  0
  161.1910  207.6410  152.0800 C   0  0  0  0  0  0  0  0  0  0  0  0
  160.9500  204.2510  150.5930 C   0  0  0  0  0  0  0  0  0  0  0  0
  161.7600  206.4680  147.1820 C   0  0  0  0  0  0  0  0  0  0  0  0
  161.9820  210.4990  149.9460 C   0  0  0  0  0  3  0  0  0  0  0  0
  160.3850  201.4970  150.4270 C   0  0  0  0  0  2  0  0  0  0  0  0
  160.5970  203.4170  151.7950 C   0  0  0  0  0  2  0  0  0  0  0  0
  159.9220  207.7400  155.6860 C   0  0  0  0  0  0  0  0  0  0  0  0
  160.8610  211.2710  156.4180 O   0  0  0  0  0  1  0  0  0  0  0  0
  158.9080  207.1660  156.0440 O   0  0  0  0  0  0  0  0  0  0  0  0
  160.0660  210.3200  154.4000 C   0  0  0  0  0  3  0  0  0  0  0  0
  161.0610  208.2630  153.4400 C   0  0  1  0  0  3  0  0  0  0  0  0
  160.3940  208.9300  156.4850 C   0  0  0  0  0  2  0  0  0  0  0  0
  160.1420  209.4560  153.3810 C   0  0  0  0  0  3  0  0  0  0  0  0
  160.6700  207.2070  154.4890 C   0  0  1  0  0  3  0  0  0  0  0  0
  162.1180  206.3230  155.0250 Cl  0  0  0  0  0  0  0  0  0  0  0  0
  160.8820  210.1140  155.6440 C   0  0  2  0  0  3  0  0  0  0  0  0
  161.8840  205.7450  145.8670 C   0  0  0  0  0  2  0  0  0  0  0  0
  160.7610  205.9460  145.0630 O   0  0  0  0  0  1  0  0  0  0  0  0
  1  3  1  0  0  0  0
  1 15  2  0  0  0  0
  2  4  2  0  0  0  0
  2  7  1  0  0  0  0
  4  1  1  0  0  0  0
  5  2  1  0  0  0  0
  6 20  1  0  0  0  0
  7 14  1  0  0  0  0
  8  9  1  0  0  0  0
  8 19  1  0  0  0  0
  9 16  1  0  0  0  0
 10 13  2  0  0  0  0
 10  4  1  0  0  0  0
 11  5  1  0  0  0  0
 11  9  2  0  0  0  0
 12 10  1  0  0  0  0
 13 18  1  0  0  0  0
 14 15  1  0  0  0  0
 16  7  2  0  0  0  0
 16 20  1  0  0  0  0
 17 12  1  0  0  0  0
 17  5  2  0  0  0  0
 18  3  2  0  0  0  0
 19  6  1  0  0  0  0
 21 23  2  0  0  0  0
 21 26  1  0  0  0  0
 24 30  1  0  0  0  0
 25 15  1  6  0  0  0
 25 28  1  0  0  0  0
 27 25  1  0  0  0  0
 27 24  2  0  0  0  0
 28 29  1  1  0  0  0
 28 21  1  0  0  0  0
 30 22  1  1  0  0  0
 30 26  1  0  0  0  0
 31 17  1  0  0  0  0
 32 31  1  0  0  0  0
M  END
>  <MODEL>
2

>  <REMARK>
 VINA RESULT:      -8.3      2.472      8.209
  Name = 
  2 active torsions:
  status: ('A' for Active; 'I' for Inactive)
    1  A    between atoms: C_13  and  C_29
    2  A    between atoms: C_16  and  C_27
                            x       y       z     vdW  Elec       q    Type
                         _______ _______ _______ _____ _____    ______ ____

>  <TORSDO>
F 2

$$$$
=
 OpenBabel11042422593D

 32 37  0  0  1  0  0  0  0  0999 V2000
  161.4010  207.8060  150.6780 C   0  0  0  0  0  0  0  0  0  0  0  0
  161.4060  205.9050  149.1750 C   0  0  0  0  0  0  0  0  0  0  0  0
  161.6000  209.1820  150.8480 C   0  0  0  0  0  3  0  0  0  0  0  0
  161.5780  207.2360  149.3870 C   0  0  0  0  0  0  0  0  0  0  0  0
  161.5810  205.3170  147.8970 C   0  0  0  0  0  0  0  0  0  0  0  0
  160.9210  201.4470  151.0090 N   0  0  0  0  0  2  0  0  0  0  0  0
  161.0470  205.0810  150.2580 C   0  0  0  0  0  0  0  0  0  0  0  0
  160.9870  201.6760  148.5710 C   0  0  0  0  0  2  0  0  0  0  0  0
  161.0750  203.1590  148.7960 C   0  0  0  0  0  0  0  0  0  0  0  0
  161.9460  208.0820  148.3220 C   0  0  0  0  0  0  0  0  0  0  0  0
  161.4080  203.9710  147.7590 N   0  0  0  0  0  0  0  0  0  0  0  0
  162.1380  207.5490  146.9350 C   0  0  0  0  0  2  0  0  0  0  0  0
  162.1360  209.4110  148.5380 N   0  0  0  0  0  0  0  0  0  0  0  0
  160.8510  205.6560  151.5190 O   0  0  0  0  0  0  0  0  0  0  0  0
  161.0420  207.0270  151.7190 C   0  0  0  0  0  0  0  0  0  0  0  0
  160.8970  203.7030  150.0780 C   0  0  0  0  0  0  0  0  0  0  0  0
  161.9290  206.0590  146.8230 C   0  0  0  0  0  0  0  0  0  0  0  0
  161.9720  209.9700  149.7630 C   0  0  0  0  0  3  0  0  0  0  0  0
  160.3440  200.9610  149.7590 C   0  0  0  0  0  2  0  0  0  0  0  0
  160.4660  202.8200  151.2190 C   0  0  0  0  0  2  0  0  0  0  0  0
  161.5460  209.6470  154.4580 C   0  0  0  0  0  0  0  0  0  0  0  0
  160.0630  207.6900  157.2610 O   0  0  0  0  0  1  0  0  0  0  0  0
  162.5310  210.3650  154.5110 O   0  0  0  0  0  0  0  0  0  0  0  0
  161.3520  206.9340  155.4230 C   0  0  0  0  0  3  0  0  0  0  0  0
  160.8230  207.5910  153.0920 C   0  0  1  0  0  3  0  0  0  0  0  0
  160.7850  209.3770  155.7320 C   0  0  0  0  0  2  0  0  0  0  0  0
  161.5840  206.7860  154.1130 C   0  0  0  0  0  3  0  0  0  0  0  0
  161.1210  209.1010  153.1180 C   0  0  1  0  0  3  0  0  0  0  0  0
  159.7120  210.0050  152.5140 Cl  0  0  0  0  0  0  0  0  0  0  0  0
  160.3350  207.9250  155.9150 C   0  0  2  0  0  3  0  0  0  0  0  0
  162.1380  205.3910  145.4900 C   0  0  0  0  0  2  0  0  0  0  0  0
  161.0590  205.6090  144.6320 O   0  0  0  0  0  1  0  0  0  0  0  0
  1  3  1  0  0  0  0
  1 15  2  0  0  0  0
  2  4  2  0  0  0  0
  2  7  1  0  0  0  0
  4  1  1  0  0  0  0
  5  2  1  0  0  0  0
  6 20  1  0  0  0  0
  7 14  1  0  0  0  0
  8  9  1  0  0  0  0
  8 19  1  0  0  0  0
  9 16  1  0  0  0  0
 10 13  2  0  0  0  0
 10  4  1  0  0  0  0
 11  5  1  0  0  0  0
 11  9  2  0  0  0  0
 12 10  1  0  0  0  0
 13 18  1  0  0  0  0
 14 15  1  0  0  0  0
 16  7  2  0  0  0  0
 16 20  1  0  0  0  0
 17 12  1  0  0  0  0
 17  5  2  0  0  0  0
 18  3  2  0  0  0  0
 19  6  1  0  0  0  0
 21 23  2  0  0  0  0
 21 26  1  0  0  0  0
 24 30  1  0  0  0  0
 25 15  1  6  0  0  0
 25 28  1  0  0  0  0
 25 27  1  0  0  0  0
 26 30  1  0  0  0  0
 27 24  2  0  0  0  0
 28 29  1  1  0  0  0
 28 21  1  0  0  0  0
 30 22  1  1  0  0  0
 31 17  1  0  0  0  0
 32 31  1  0  0  0  0
M  END
>  <MODEL>
3

>  <REMARK>
 VINA RESULT:      -7.6      2.395      8.027
  Name = 
  2 active torsions:
  status: ('A' for Active; 'I' for Inactive)
    1  A    between atoms: C_13  and  C_29
    2  A    between atoms: C_16  and  C_27
                            x       y       z     vdW  Elec       q    Type
                         _______ _______ _______ _____ _____    ______ ____

>  <TORSDO>
F 2

$$$$
=
 OpenBabel11042422593D

 32 37  0  0  1  0  0  0  0  0999 V2000
  160.9960  205.5820  151.1070 C   0  0  0  0  0  0  0  0  0  0  0  0
  161.1630  204.2310  149.1020 C   0  0  0  0  0  0  0  0  0  0  0  0
  160.9370  205.6230  152.5060 C   0  0  0  0  0  3  0  0  0  0  0  0
  161.1140  204.3220  150.4560 C   0  0  0  0  0  0  0  0  0  0  0  0
  161.2770  202.9850  148.4340 C   0  0  0  0  0  0  0  0  0  0  0  0
  160.5340  206.3330  144.7820 N   0  0  0  0  0  2  0  0  0  0  0  0
  161.0950  205.4090  148.3340 C   0  0  2  0  0  3  0  0  0  0  0  0
  161.1810  203.9710  144.8180 C   0  0  0  0  0  2  0  0  0  0  0  0
  161.2280  204.0920  146.3150 C   0  0  0  0  0  0  0  0  0  0  0  0
  161.1710  203.1580  151.2490 C   0  0  0  0  0  0  0  0  0  0  0  0
  161.3050  202.9660  147.0710 N   0  0  0  0  0  0  0  0  0  0  0  0
  161.3060  201.8010  150.6280 C   0  0  0  0  0  3  0  0  0  0  0  0
  161.1020  203.2490  152.6040 N   0  0  0  0  0  0  0  0  0  0  0  0
  161.0050  206.6440  148.9850 O   0  0  0  0  0  0  0  0  0  0  0  0
  160.9460  206.7170  150.3800 C   0  0  0  0  0  0  0  0  0  0  0  0
  161.1090  205.3440  146.9380 C   0  0  0  0  0  0  0  0  0  0  0  0
  161.3430  201.8240  149.1210 C   0  0  0  0  0  0  0  0  0  0  0  0
  160.9900  204.4420  153.2390 C   0  0  0  0  0  3  0  0  0  0  0  0
  161.3690  205.3260  144.1340 C   0  0  0  0  0  2  0  0  0  0  0  0
  161.0860  206.6000  146.1090 C   0  0  0  0  0  2  0  0  0  0  0  0
  162.3890  210.0450  151.5910 C   0  0  0  0  0  0  0  0  0  0  0  0
  159.4390  211.1380  153.5890 O   0  0  0  0  0  1  0  0  0  0  0  0
  163.5630  210.1860  151.8880 O   0  0  0  0  0  0  0  0  0  0  0  0
  160.3140  208.9590  153.2790 C   0  0  0  0  0  3  0  0  0  0  0  0
  160.8440  208.0680  151.0270 C   0  0  1  0  0  3  0  0  0  0  0  0
  161.3760  210.9830  152.2010 C   0  0  0  0  0  2  0  0  0  0  0  0
  160.6770  207.9190  152.5180 C   0  0  0  0  0  3  0  0  0  0  0  0
  162.0170  208.9680  150.6020 C   0  0  1  0  0  3  0  0  0  0  0  0
  161.6750  209.6960  149.0140 Cl  0  0  0  0  0  0  0  0  0  0  0  0
  160.0820  210.3120  152.6700 C   0  0  2  0  0  3  0  0  0  0  0  0
  161.4290  200.5190  148.3740 C   0  0  0  0  0  2  0  0  0  0  0  0
  160.8010  200.5980  147.1300 O   0  0  0  0  0  1  0  0  0  0  0  0
  1  3  1  0  0  0  0
  2  4  2  0  0  0  0
  3 18  2  0  0  0  0
  4  1  1  0  0  0  0
  4 10  1  0  0  0  0
  5  2  1  0  0  0  0
  5 17  1  0  0  0  0
  6 20  1  0  0  0  0
  7 16  1  6  0  0  0
  7 14  1  0  0  0  0
  7  2  1  0  0  0  0
  8  9  1  0  0  0  0
  9 16  2  0  0  0  0
  9 11  1  0  0  0  0
 10 13  2  0  0  0  0
 11  5  2  0  0  0  0
 12 10  1  0  0  0  0
 13 18  1  0  0  0  0
 14 15  1  0  0  0  0
 15  1  2  0  0  0  0
 17 12  2  0  0  0  0
 19  6  1  0  0  0  0
 19  8  1  0  0  0  0
 20 16  1  0  0  0  0
 21 23  2  0  0  0  0
 21 26  1  0  0  0  0
 25 15  1  6  0  0  0
 25 27  1  0  0  0  0
 26 30  1  0  0  0  0
 27 24  2  0  0  0  0
 28 29  1  6  0  0  0
 28 25  1  0  0  0  0
 28 21  1  0  0  0  0
 30 24  1  0  0  0  0
 30 22  1  1  0  0  0
 31 17  1  0  0  0  0
 32 31  1  0  0  0  0
M  END
>  <MODEL>
4

>  <REMARK>
 VINA RESULT:      -7.5      2.441      6.889
  Name = 
  2 active torsions:
  status: ('A' for Active; 'I' for Inactive)
    1  A    between atoms: C_13  and  C_29
    2  A    between atoms: C_16  and  C_27
                            x       y       z     vdW  Elec       q    Type
                         _______ _______ _______ _____ _____    ______ ____

>  <TORSDO>
F 2

$$$$
=
 OpenBabel11042422593D

 32 37  0  0  1  0  0  0  0  0999 V2000
  161.5870  209.2240  151.0170 C   0  0  0  0  0  0  0  0  0  0  0  0
  161.3720  206.8850  150.4210 C   0  0  0  0  0  0  0  0  0  0  0  0
  161.5980  210.1930  152.0290 C   0  0  0  0  0  3  0  0  0  0  0  0
  161.4000  207.8580  151.3680 C   0  0  0  0  0  0  0  0  0  0  0  0
  161.1840  205.5190  150.7500 C   0  0  0  0  0  0  0  0  0  0  0  0
  161.0330  205.6630  145.7450 N   0  0  0  0  0  2  0  0  0  0  0  0
  161.5290  207.2420  149.0690 C   0  0  2  0  0  3  0  0  0  0  0  0
  161.1520  203.8530  147.3910 C   0  0  0  0  0  2  0  0  0  0  0  0
  161.2870  204.9250  148.4360 C   0  0  0  0  0  0  0  0  0  0  0  0
  161.2360  207.5300  152.7290 C   0  0  0  0  0  0  0  0  0  0  0  0
  161.1490  204.5950  149.7470 N   0  0  0  0  0  0  0  0  0  0  0  0
  161.0470  206.1100  153.1690 C   0  0  0  0  0  3  0  0  0  0  0  0
  161.2460  208.5060  153.6750 N   0  0  0  0  0  0  0  0  0  0  0  0
  161.7370  208.5850  148.7360 O   0  0  0  0  0  0  0  0  0  0  0  0
  161.7540  209.5740  149.7250 C   0  0  0  0  0  0  0  0  0  0  0  0
  161.4700  206.2670  148.0690 C   0  0  0  0  0  0  0  0  0  0  0  0
  161.0240  205.1200  152.0310 C   0  0  0  0  0  0  0  0  0  0  0  0
  161.4230  209.8130  153.3560 C   0  0  0  0  0  3  0  0  0  0  0  0
  161.6010  204.3460  146.0150 C   0  0  0  0  0  2  0  0  0  0  0  0
  161.6850  206.6310  146.6250 C   0  0  0  0  0  2  0  0  0  0  0  0
  160.6170  212.9390  148.3080 C   0  0  0  0  0  0  0  0  0  0  0  0
  164.0000  214.4530  147.9180 O   0  0  0  0  0  1  0  0  0  0  0  0
  159.6770  213.0470  147.5390 O   0  0  0  0  0  0  0  0  0  0  0  0
  163.3210  212.2040  147.6150 C   0  0  0  0  0  3  0  0  0  0  0  0
  161.9760  211.0010  149.3130 C   0  0  1  0  0  3  0  0  0  0  0  0
  161.6840  214.0060  148.2930 C   0  0  0  0  0  2  0  0  0  0  0  0
  162.7830  211.0560  148.0420 C   0  0  0  0  0  3  0  0  0  0  0  0
  160.6430  211.7680  149.2580 C   0  0  1  0  0  3  0  0  0  0  0  0
  160.1860  212.3030  150.8930 Cl  0  0  0  0  0  0  0  0  0  0  0  0
  163.1190  213.4790  148.3830 C   0  0  2  0  0  3  0  0  0  0  0  0
  160.7930  203.6640  152.3360 C   0  0  0  0  0  2  0  0  0  0  0  0
  161.8840  202.8810  151.9550 O   0  0  0  0  0  1  0  0  0  0  0  0
  1  4  1  0  0  0  0
  1  3  1  0  0  0  0
  2  5  1  0  0  0  0
  2  4  2  0  0  0  0
  3 18  2  0  0  0  0
  4 10  1  0  0  0  0
  5 17  1  0  0  0  0
  6 19  1  0  0  0  0
  6 20  1  0  0  0  0
  7 16  1  6  0  0  0
  7  2  1  0  0  0  0
  8  9  1  0  0  0  0
  9 11  1  0  0  0  0
 10 12  1  0  0  0  0
 10 13  2  0  0  0  0
 11  5  2  0  0  0  0
 14  7  1  0  0  0  0
 14 15  1  0  0  0  0
 15  1  2  0  0  0  0
 16  9  2  0  0  0  0
 17 31  1  0  0  0  0
 17 12  2  0  0  0  0
 18 13  1  0  0  0  0
 19  8  1  0  0  0  0
 20 16  1  0  0  0  0
 21 28  1  0  0  0  0
 23 21  2  0  0  0  0
 24 27  2  0  0  0  0
 24 30  1  0  0  0  0
 25 15  1  6  0  0  0
 26 21  1  0  0  0  0
 26 30  1  0  0  0  0
 27 25  1  0  0  0  0
 28 25  1  0  0  0  0
 28 29  1  1  0  0  0
 30 22  1  6  0  0  0
 32 31  1  0  0  0  0
M  END
>  <MODEL>
5

>  <REMARK>
 VINA RESULT:      -7.3      3.175      6.920
  Name = 
  2 active torsions:
  status: ('A' for Active; 'I' for Inactive)
    1  A    between atoms: C_13  and  C_29
    2  A    between atoms: C_16  and  C_27
                            x       y       z     vdW  Elec       q    Type
                         _______ _______ _______ _____ _____    ______ ____

>  <TORSDO>
F 2

$$$$
=
 OpenBabel11042422593D

 32 37  0  0  1  0  0  0  0  0999 V2000
  161.7050  208.8540  149.7950 C   0  0  0  0  0  0  0  0  0  0  0  0
  161.3340  207.5920  151.8300 C   0  0  0  0  0  0  0  0  0  0  0  0
  161.8940  208.8350  148.4070 C   0  0  0  0  0  3  0  0  0  0  0  0
  161.5120  207.6250  150.4840 C   0  0  0  0  0  0  0  0  0  0  0  0
  161.1440  206.3770  152.5360 C   0  0  0  0  0  0  0  0  0  0  0  0
  161.5820  209.8720  156.0980 N   0  0  0  0  0  2  0  0  0  0  0  0
  161.3440  208.8010  152.5510 C   0  0  0  0  0  0  0  0  0  0  0  0
  160.9130  207.5160  156.1010 C   0  0  0  0  0  2  0  0  0  0  0  0
  161.0080  207.5740  154.6020 C   0  0  0  0  0  0  0  0  0  0  0  0
  161.5150  206.4280  149.7390 C   0  0  0  0  0  0  0  0  0  0  0  0
  160.9880  206.4160  153.8900 N   0  0  0  0  0  0  0  0  0  0  0  0
  161.3060  205.1000  150.4010 C   0  0  0  0  0  2  0  0  0  0  0  0
  161.7110  206.4600  148.3940 N   0  0  0  0  0  0  0  0  0  0  0  0
  161.5090  210.0070  151.8600 O   0  0  0  0  0  0  0  0  0  0  0  0
  161.7000  210.0190  150.4750 C   0  0  0  0  0  0  0  0  0  0  0  0
  161.1990  208.7960  153.9410 C   0  0  0  0  0  0  0  0  0  0  0  0
  161.1290  205.1880  151.8960 C   0  0  0  0  0  0  0  0  0  0  0  0
  161.8970  207.6240  147.7230 C   0  0  0  0  0  3  0  0  0  0  0  0
  160.6780  208.9010  156.7060 C   0  0  0  0  0  2  0  0  0  0  0  0
  161.1590  210.0870  154.7150 C   0  0  0  0  0  2  0  0  0  0  0  0
  160.4290  213.0650  148.5430 C   0  0  0  0  0  0  0  0  0  0  0  0
  163.7590  214.4480  147.6020 O   0  0  0  0  0  1  0  0  0  0  0  0
  159.4290  213.0350  147.8460 O   0  0  0  0  0  0  0  0  0  0  0  0
  163.0730  212.1890  147.7860 C   0  0  0  0  0  3  0  0  0  0  0  0
  161.8780  211.3400  149.7840 C   0  0  1  0  0  3  0  0  0  0  0  0
  161.4840  214.1010  148.2410 C   0  0  0  0  0  2  0  0  0  0  0  0
  162.5790  211.1470  148.4640 C   0  0  0  0  0  3  0  0  0  0  0  0
  160.5400  212.0950  149.6920 C   0  0  1  0  0  3  0  0  0  0  0  0
  160.2130  212.9340  151.2280 Cl  0  0  0  0  0  0  0  0  0  0  0  0
  162.9260  213.5880  148.3120 C   0  0  2  0  0  3  0  0  0  0  0  0
  160.9580  203.9170  152.6860 C   0  0  0  0  0  2  0  0  0  0  0  0
  161.1980  202.7890  151.9000 O   0  0  0  0  0  1  0  0  0  0  0  0
  1 15  2  0  0  0  0
  1  4  1  0  0  0  0
  2  5  1  0  0  0  0
  2  7  1  0  0  0  0
  3  1  1  0  0  0  0
  4  2  2  0  0  0  0
  5 11  1  0  0  0  0
  6 19  1  0  0  0  0
  7 16  2  0  0  0  0
  8 19  1  0  0  0  0
  9  8  1  0  0  0  0
 10 12  1  0  0  0  0
 10  4  1  0  0  0  0
 11  9  2  0  0  0  0
 12 17  1  0  0  0  0
 13 10  2  0  0  0  0
 14  7  1  0  0  0  0
 15 14  1  0  0  0  0
 16  9  1  0  0  0  0
 16 20  1  0  0  0  0
 17  5  2  0  0  0  0
 17 31  1  0  0  0  0
 18 13  1  0  0  0  0
 18  3  2  0  0  0  0
 20  6  1  0  0  0  0
 21 28  1  0  0  0  0
 23 21  2  0  0  0  0
 24 30  1  0  0  0  0
 24 27  2  0  0  0  0
 25 15  1  6  0  0  0
 26 30  1  0  0  0  0
 26 21  1  0  0  0  0
 27 25  1  0  0  0  0
 28 25  1  0  0  0  0
 28 29  1  1  0  0  0
 30 22  1  6  0  0  0
 32 31  1  0  0  0  0
M  END
>  <MODEL>
6

>  <REMARK>
 VINA RESULT:      -7.0      3.529      7.148
  Name = 
  2 active torsions:
  status: ('A' for Active; 'I' for Inactive)
    1  A    between atoms: C_13  and  C_29
    2  A    between atoms: C_16  and  C_27
                            x       y       z     vdW  Elec       q    Type
                         _______ _______ _______ _____ _____    ______ ____

>  <TORSDO>
F 2

$$$$
=
 OpenBabel11042422593D

 32 37  0  0  1  0  0  0  0  0999 V2000
  161.3390  209.2580  151.6470 C   0  0  0  0  0  0  0  0  0  0  0  0
  161.3970  207.2200  150.3380 C   0  0  0  0  0  0  0  0  0  0  0  0
  161.4830  210.6510  151.6780 C   0  0  0  0  0  3  0  0  0  0  0  0
  161.5170  208.5700  150.4150 C   0  0  0  0  0  0  0  0  0  0  0  0
  161.5740  206.5150  149.1210 C   0  0  0  0  0  0  0  0  0  0  0  0
  161.1300  202.9490  152.6100 N   0  0  0  0  0  2  0  0  0  0  0  0
  161.0920  206.4930  151.5050 C   0  0  0  0  0  0  0  0  0  0  0  0
  161.1440  202.9380  150.1610 C   0  0  0  0  0  2  0  0  0  0  0  0
  161.1730  204.4390  150.2380 C   0  0  0  0  0  0  0  0  0  0  0  0
  161.8310  209.3220  149.2650 C   0  0  0  0  0  0  0  0  0  0  0  0
  161.4550  205.1570  149.1190 N   0  0  0  0  0  0  0  0  0  0  0  0
  162.0200  208.6620  147.9330 C   0  0  0  0  0  2  0  0  0  0  0  0
  161.9690  210.6720  149.3460 N   0  0  0  0  0  0  0  0  0  0  0  0
  160.8930  207.1820  152.7070 O   0  0  0  0  0  0  0  0  0  0  0  0
  161.0300  208.5720  152.7670 C   0  0  0  0  0  0  0  0  0  0  0  0
  160.9960  205.0990  151.4630 C   0  0  0  0  0  0  0  0  0  0  0  0
  161.8720  207.1610  147.9720 C   0  0  0  0  0  0  0  0  0  0  0  0
  161.8030  211.3420  150.5130 C   0  0  0  0  0  3  0  0  0  0  0  0
  160.5520  202.3190  151.4270 C   0  0  0  0  0  2  0  0  0  0  0  0
  160.6220  204.3170  152.6940 C   0  0  0  0  0  2  0  0  0  0  0  0
  161.8710  209.2960  156.4270 C   0  0  0  0  0  0  0  0  0  0  0  0
  158.7650  211.1800  157.2590 O   0  0  0  0  0  1  0  0  0  0  0  0
  162.4520  208.4970  157.1410 O   0  0  0  0  0  0  0  0  0  0  0  0
  159.0480  209.3170  155.8230 C   0  0  0  0  0  3  0  0  0  0  0  0
  160.8120  209.2600  154.0830 C   0  0  1  0  0  3  0  0  0  0  0  0
  160.9920  210.3350  157.0790 C   0  0  0  0  0  2  0  0  0  0  0  0
  159.5910  208.7010  154.7670 C   0  0  0  0  0  3  0  0  0  0  0  0
  162.0920  209.2290  154.9360 C   0  0  1  0  0  3  0  0  0  0  0  0
  163.1890  210.5350  154.4270 Cl  0  0  0  0  0  0  0  0  0  0  0  0
  159.6540  210.5780  156.3730 C   0  0  2  0  0  3  0  0  0  0  0  0
  162.0850  206.3740  146.7070 C   0  0  0  0  0  2  0  0  0  0  0  0
  160.9160  206.2920  145.9500 O   0  0  0  0  0  1  0  0  0  0  0  0
  1  3  1  0  0  0  0
  1 15  2  0  0  0  0
  2  4  2  0  0  0  0
  2  7  1  0  0  0  0
  4  1  1  0  0  0  0
  5  2  1  0  0  0  0
  6 20  1  0  0  0  0
  7 14  1  0  0  0  0
  8  9  1  0  0  0  0
  8 19  1  0  0  0  0
  9 16  1  0  0  0  0
 10 13  2  0  0  0  0
 10  4  1  0  0  0  0
 11  5  1  0  0  0  0
 11  9  2  0  0  0  0
 12 17  1  0  0  0  0
 12 10  1  0  0  0  0
 13 18  1  0  0  0  0
 14 15  1  0  0  0  0
 16  7  2  0  0  0  0
 16 20  1  0  0  0  0
 17  5  2  0  0  0  0
 18  3  2  0  0  0  0
 19  6  1  0  0  0  0
 21 26  1  0  0  0  0
 21 23  2  0  0  0  0
 24 30  1  0  0  0  0
 25 15  1  6  0  0  0
 25 27  1  0  0  0  0
 25 28  1  0  0  0  0
 27 24  2  0  0  0  0
 28 29  1  6  0  0  0
 28 21  1  0  0  0  0
 30 26  1  0  0  0  0
 30 22  1  1  0  0  0
 31 17  1  0  0  0  0
 32 31  1  0  0  0  0
M  END
>  <MODEL>
7

>  <REMARK>
 VINA RESULT:      -6.4      2.714      8.471
  Name = 
  2 active torsions:
  status: ('A' for Active; 'I' for Inactive)
    1  A    between atoms: C_13  and  C_29
    2  A    between atoms: C_16  and  C_27
                            x       y       z     vdW  Elec       q    Type
                         _______ _______ _______ _____ _____    ______ ____

>  <TORSDO>
F 2

$$$$
=
 OpenBabel11042422593D

 32 37  0  0  1  0  0  0  0  0999 V2000
  160.9920  205.2000  150.0250 C   0  0  0  0  0  0  0  0  0  0  0  0
  161.2280  207.2820  151.2410 C   0  0  0  0  0  0  0  0  0  0  0  0
  160.8350  203.8090  150.0760 C   0  0  0  0  0  3  0  0  0  0  0  0
  161.0660  205.9340  151.2410 C   0  0  0  0  0  0  0  0  0  0  0  0
  161.3090  208.0310  152.4430 C   0  0  0  0  0  0  0  0  0  0  0  0
  162.3470  211.3210  148.8110 N   0  0  0  0  0  2  0  0  0  0  0  0
  161.3250  207.9600  150.0110 C   0  0  2  0  0  3  0  0  0  0  0  0
  161.8770  211.5250  151.2060 C   0  0  0  0  0  2  0  0  0  0  0  0
  161.5960  210.0490  151.1910 C   0  0  0  0  0  0  0  0  0  0  0  0
  160.9760  205.2290  152.4580 C   0  0  0  0  0  0  0  0  0  0  0  0
  161.4880  209.3810  152.3700 N   0  0  0  0  0  0  0  0  0  0  0  0
  161.0360  205.9410  153.7750 C   0  0  0  0  0  3  0  0  0  0  0  0
  160.8320  203.8770  152.4570 N   0  0  0  0  0  0  0  0  0  0  0  0
  161.2250  207.2320  148.8200 O   0  0  0  0  0  0  0  0  0  0  0  0
  161.0670  205.8420  148.8400 C   0  0  0  0  0  0  0  0  0  0  0  0
  161.5270  209.3430  149.9810 C   0  0  0  0  0  0  0  0  0  0  0  0
  161.2260  207.4320  153.6510 C   0  0  0  0  0  0  0  0  0  0  0  0
  160.7600  203.1630  151.3060 C   0  0  0  0  0  3  0  0  0  0  0  0
  161.6960  212.1490  149.8220 C   0  0  0  0  0  2  0  0  0  0  0  0
  161.5830  210.0830  148.6710 C   0  0  0  0  0  2  0  0  0  0  0  0
  162.5560  204.0510  145.8080 C   0  0  0  0  0  0  0  0  0  0  0  0
  159.4410  203.9080  143.7690 O   0  0  0  0  0  1  0  0  0  0  0  0
  163.6850  204.2700  145.4010 O   0  0  0  0  0  0  0  0  0  0  0  0
  160.1960  205.6100  145.2340 C   0  0  0  0  0  3  0  0  0  0  0  0
  160.9710  205.1100  147.5340 C   0  0  1  0  0  3  0  0  0  0  0  0
  161.5370  203.5040  144.8400 C   0  0  0  0  0  2  0  0  0  0  0  0
  160.5870  206.0620  146.4310 C   0  0  0  0  0  3  0  0  0  0  0  0
  162.2520  204.3010  147.2640 C   0  0  1  0  0  3  0  0  0  0  0  0
  162.1870  202.7550  148.1440 Cl  0  0  0  0  0  0  0  0  0  0  0  0
  160.1460  204.1350  144.9480 C   0  0  2  0  0  3  0  0  0  0  0  0
  161.3500  208.2590  154.9030 C   0  0  0  0  0  2  0  0  0  0  0  0
  160.1040  208.4960  155.4860 O   0  0  0  0  0  1  0  0  0  0  0  0
  1  3  1  0  0  0  0
  1  4  1  0  0  0  0
  2  5  1  0  0  0  0
  3 18  2  0  0  0  0
  4  2  2  0  0  0  0
  4 10  1  0  0  0  0
  5 17  1  0  0  0  0
  6 19  1  0  0  0  0
  7 14  1  6  0  0  0
  7  2  1  0  0  0  0
  9  8  1  0  0  0  0
  9 11  1  0  0  0  0
 10 12  1  0  0  0  0
 11  5  2  0  0  0  0
 13 10  2  0  0  0  0
 14 15  1  0  0  0  0
 15  1  2  0  0  0  0
 16  7  1  0  0  0  0
 16  9  2  0  0  0  0
 17 12  2  0  0  0  0
 17 31  1  0  0  0  0
 18 13  1  0  0  0  0
 19  8  1  0  0  0  0
 20  6  1  0  0  0  0
 20 16  1  0  0  0  0
 21 28  1  0  0  0  0
 23 21  2  0  0  0  0
 24 27  2  0  0  0  0
 25 15  1  1  0  0  0
 26 30  1  0  0  0  0
 26 21  1  0  0  0  0
 27 25  1  0  0  0  0
 28 25  1  0  0  0  0
 28 29  1  1  0  0  0
 30 22  1  6  0  0  0
 30 24  1  0  0  0  0
 31 32  1  0  0  0  0
M  END
>  <MODEL>
8

>  <REMARK>
 VINA RESULT:      -6.2      1.504      1.818
  Name = 
  2 active torsions:
  status: ('A' for Active; 'I' for Inactive)
    1  A    between atoms: C_13  and  C_29
    2  A    between atoms: C_16  and  C_27
                            x       y       z     vdW  Elec       q    Type
                         _______ _______ _______ _____ _____    ______ ____

>  <TORSDO>
F 2

$$$$
=
 OpenBabel11042422593D

 32 37  0  0  1  0  0  0  0  0999 V2000
  161.7020  208.7390  148.7990 C   0  0  0  0  0  0  0  0  0  0  0  0
  161.3370  208.0710  151.1000 C   0  0  0  0  0  0  0  0  0  0  0  0
  161.9560  208.3490  147.4780 C   0  0  0  0  0  3  0  0  0  0  0  0
  161.5730  207.7400  149.8040 C   0  0  0  0  0  0  0  0  0  0  0  0
  161.2080  207.0900  152.1170 C   0  0  0  0  0  0  0  0  0  0  0  0
  161.2100  211.4680  154.5520 N   0  0  0  0  0  2  0  0  0  0  0  0
  161.2200  209.4290  151.4490 C   0  0  2  0  0  3  0  0  0  0  0  0
  160.7260  209.1580  155.2070 C   0  0  0  0  0  2  0  0  0  0  0  0
  160.8850  208.8010  153.7560 C   0  0  0  0  0  0  0  0  0  0  0  0
  161.7030  206.3880  149.4290 C   0  0  0  0  0  0  0  0  0  0  0  0
  160.9880  207.4940  153.4010 N   0  0  0  0  0  0  0  0  0  0  0  0
  161.5670  205.2850  150.4340 C   0  0  0  0  0  3  0  0  0  0  0  0
  161.9580  206.0580  148.1350 N   0  0  0  0  0  0  0  0  0  0  0  0
  161.3230  210.4030  150.4490 O   0  0  0  0  0  0  0  0  0  0  0  0
  161.5760  210.0430  149.1210 C   0  0  0  0  0  0  0  0  0  0  0  0
  161.0120  209.8010  152.7800 C   0  0  0  0  0  0  0  0  0  0  0  0
  161.3150  205.7730  151.8390 C   0  0  0  0  0  0  0  0  0  0  0  0
  162.0840  206.9990  147.1650 C   0  0  0  0  0  3  0  0  0  0  0  0
  160.3570  210.6310  155.3900 C   0  0  0  0  0  2  0  0  0  0  0  0
  160.8370  211.2490  153.1560 C   0  0  0  0  0  2  0  0  0  0  0  0
  162.6620  213.4980  147.8940 C   0  0  0  0  0  0  0  0  0  0  0  0
  160.6840  213.5180  144.7350 O   0  0  0  0  0  1  0  0  0  0  0  0
  162.8410  214.4400  148.6470 O   0  0  0  0  0  0  0  0  0  0  0  0
  160.1250  212.6010  146.8470 C   0  0  0  0  0  3  0  0  0  0  0  0
  161.6830  211.1280  148.0890 C   0  0  1  0  0  3  0  0  0  0  0  0
  162.3230  213.7860  146.4510 C   0  0  0  0  0  2  0  0  0  0  0  0
  160.3430  211.7860  147.8850 C   0  0  0  0  0  3  0  0  0  0  0  0
  162.8260  212.0990  148.4320 C   0  0  1  0  0  3  0  0  0  0  0  0
  164.3790  211.4200  147.8900 Cl  0  0  0  0  0  0  0  0  0  0  0  0
  161.2210  212.9010  145.8630 C   0  0  2  0  0  3  0  0  0  0  0  0
  161.2060  204.7640  152.9520 C   0  0  0  0  0  2  0  0  0  0  0  0
  160.7680  203.5260  152.4810 O   0  0  0  0  0  1  0  0  0  0  0  0
  1 15  2  0  0  0  0
  1  4  1  0  0  0  0
  2  7  1  0  0  0  0
  2  5  1  0  0  0  0
  3  1  1  0  0  0  0
  4  2  2  0  0  0  0
  5 11  2  0  0  0  0
  6 19  1  0  0  0  0
  7 14  1  1  0  0  0
  7 16  1  0  0  0  0
  8 19  1  0  0  0  0
  9  8  1  0  0  0  0
 10  4  1  0  0  0  0
 10 12  1  0  0  0  0
 11  9  1  0  0  0  0
 12 17  2  0  0  0  0
 13 10  2  0  0  0  0
 15 14  1  0  0  0  0
 16 20  1  0  0  0  0
 16  9  2  0  0  0  0
 17  5  1  0  0  0  0
 17 31  1  0  0  0  0
 18  3  2  0  0  0  0
 18 13  1  0  0  0  0
 20  6  1  0  0  0  0
 21 28  1  0  0  0  0
 21 23  2  0  0  0  0
 24 27  2  0  0  0  0
 25 28  1  0  0  0  0
 25 15  1  1  0  0  0
 26 21  1  0  0  0  0
 27 25  1  0  0  0  0
 28 29  1  6  0  0  0
 30 22  1  6  0  0  0
 30 26  1  0  0  0  0
 30 24  1  0  0  0  0
 32 31  1  0  0  0  0
M  END
>  <MODEL>
9

>  <REMARK>
 VINA RESULT:      -6.0      3.431      6.708
  Name = 
  2 active torsions:
  status: ('A' for Active; 'I' for Inactive)
    1  A    between atoms: C_13  and  C_29
    2  A    between atoms: C_16  and  C_27
                            x       y       z     vdW  Elec       q    Type
                         _______ _______ _______ _____ _____    ______ ____

>  <TORSDO>
F 2

$$$$
