=
 OpenBabel11052410563D

 30 32  0  0  0  0  0  0  0  0999 V2000
  161.0260  213.1550  148.8440 C   0  0  0  0  0  3  0  0  0  0  0  0
  157.2670  211.9030  154.2720 C   0  0  0  0  0  3  0  0  0  0  0  0
  161.7620  205.8130  150.9620 N   0  0  0  0  0  2  0  0  0  0  0  0
  159.3730  213.9270  152.1190 C   0  0  0  0  0  2  0  0  0  0  0  0
  158.2710  212.8760  152.2000 C   0  0  0  0  0  2  0  0  0  0  0  0
  161.6240  208.2660  150.5060 C   0  0  0  0  0  0  0  0  0  0  0  0
  160.5980  213.0120  150.1660 C   0  0  0  0  0  0  0  0  0  0  0  0
  160.9060  211.8300  150.8420 C   0  0  0  0  0  3  0  0  0  0  0  0
  161.5940  210.8030  150.2080 C   0  0  0  0  0  0  0  0  0  0  0  0
  157.3650  211.1270  155.3840 N   0  0  0  0  0  0  0  0  0  0  0  0
  161.4720  207.3200  152.7560 N   0  0  0  0  0  0  0  0  0  0  0  0
  159.8600  214.0310  150.7810 O   0  0  0  0  0  0  0  0  0  0  0  0
  161.6290  207.1440  151.4730 C   0  0  0  0  0  0  0  0  0  0  0  0
  162.0200  210.9910  148.8830 C   0  0  0  0  0  0  0  0  0  0  0  0
  158.5300  210.5110  155.7130 C   0  0  0  0  0  3  0  0  0  0  0  0
  161.8410  209.6080  150.9530 N   0  0  0  0  0  2  0  0  0  0  0  0
  161.7270  212.1560  148.2400 N   0  0  0  0  0  0  0  0  0  0  0  0
  161.2960  208.5780  153.3480 N   0  0  0  0  0  0  0  0  0  0  0  0
  162.7670  210.0540  148.2500 F   0  0  0  0  0  0  0  0  0  0  0  0
  159.6490  210.6730  154.8920 C   0  0  0  0  0  0  0  0  0  0  0  0
  161.0970  208.6840  154.6200 C   0  0  0  0  0  3  0  0  0  0  0  0
  159.5480  211.4440  153.7750 N   0  0  0  0  0  0  0  0  0  0  0  0
  161.3840  208.0300  149.2920 O   0  0  0  0  0  0  0  0  0  0  0  0
  158.3850  212.0740  153.4540 C   0  0  0  0  0  0  0  0  0  0  0  0
  160.9460  210.0280  155.2530 C   0  0  0  0  0  2  0  0  0  0  0  0
  161.7200  204.6870  151.7990 N   0  0  0  0  0  2  0  0  0  0  0  0
  160.5140  203.9460  151.4680 C   0  0  0  0  0  2  0  0  0  0  0  0
  161.1260  201.8050  150.6270 O   0  0  0  0  0  1  0  0  0  0  0  0
  160.7500  203.4210  149.0450 O   0  0  0  0  0  0  0  0  0  0  0  0
  160.8020  202.9930  150.3640 C   0  0  0  0  0  0  0  0  0  0  0  0
  1  7  1  0  0  0  0
  2 10  1  0  0  0  0
  3 13  1  0  0  0  0
  3 26  1  0  0  0  0
  4  5  1  0  0  0  0
  5 24  1  0  0  0  0
  6 16  1  0  0  0  0
  6 13  1  0  0  0  0
  7 12  1  0  0  0  0
  7  8  2  0  0  0  0
  9  8  1  0  0  0  0
  9 16  1  0  0  0  0
 10 15  2  0  0  0  0
 11 18  1  0  0  0  0
 12  4  1  0  0  0  0
 13 11  2  0  0  0  0
 14  9  2  0  0  0  0
 17  1  2  0  0  0  0
 17 14  1  0  0  0  0
 18 21  2  0  0  0  0
 19 14  1  0  0  0  0
 20 25  1  0  0  0  0
 20 15  1  0  0  0  0
 21 25  1  0  0  0  0
 22 20  2  0  0  0  0
 23  6  2  0  0  0  0
 24 22  1  0  0  0  0
 24  2  2  0  0  0  0
 27 26  1  0  0  0  0
 29 30  2  0  0  0  0
 30 28  1  0  0  0  0
 30 27  1  0  0  0  0
M  END
>  <MODEL>
1

>  <REMARK>
 VINA RESULT:      -6.7      0.000      0.000
  Name = 
  3 active torsions:
  status: ('A' for Active; 'I' for Inactive)
    1  A    between atoms: N_3  and  N_27
    2  A    between atoms: C_26  and  N_27
    3  A    between atoms: C_26  and  C_30
                            x       y       z     vdW  Elec       q    Type
                         _______ _______ _______ _____ _____    ______ ____

>  <TORSDO>
F 3

$$$$
=
 OpenBabel11052410563D

 30 32  0  0  0  0  0  0  0  0999 V2000
  160.5100  206.9640  155.7700 C   0  0  0  0  0  3  0  0  0  0  0  0
  161.1250  206.7300  149.0820 C   0  0  0  0  0  3  0  0  0  0  0  0
  157.8320  213.4310  152.6170 N   0  0  0  0  0  2  0  0  0  0  0  0
  162.1090  206.0440  152.5070 C   0  0  0  0  0  2  0  0  0  0  0  0
  160.9590  206.1770  151.5150 C   0  0  0  0  0  2  0  0  0  0  0  0
  158.9360  211.3890  153.5420 C   0  0  0  0  0  0  0  0  0  0  0  0
  161.0100  207.0850  154.4720 C   0  0  0  0  0  0  0  0  0  0  0  0
  160.8840  208.3130  153.8200 C   0  0  0  0  0  3  0  0  0  0  0  0
  160.2450  209.3840  154.4320 C   0  0  0  0  0  0  0  0  0  0  0  0
  161.3960  207.6110  148.0830 N   0  0  0  0  0  0  0  0  0  0  0  0
  159.6730  212.4840  151.4830 N   0  0  0  0  0  0  0  0  0  0  0  0
  161.6060  205.9860  153.8420 O   0  0  0  0  0  0  0  0  0  0  0  0
  158.8660  212.4460  152.5070 C   0  0  0  0  0  0  0  0  0  0  0  0
  159.7680  209.2270  155.7440 C   0  0  0  0  0  0  0  0  0  0  0  0
  161.8400  208.8670  148.3530 C   0  0  0  0  0  3  0  0  0  0  0  0
  160.1210  210.5990  153.6890 N   0  0  0  0  0  2  0  0  0  0  0  0
  159.9130  208.0290  156.3760 N   0  0  0  0  0  0  0  0  0  0  0  0
  160.6900  211.5440  151.2650 N   0  0  0  0  0  0  0  0  0  0  0  0
  159.2140  210.2660  156.4160 F   0  0  0  0  0  0  0  0  0  0  0  0
  162.0180  209.2620  149.6810 C   0  0  0  0  0  0  0  0  0  0  0  0
  161.4270  211.6080  150.2060 C   0  0  0  0  0  3  0  0  0  0  0  0
  161.7400  208.3810  150.6810 N   0  0  0  0  0  0  0  0  0  0  0  0
  157.9280  211.1660  154.2630 O   0  0  0  0  0  0  0  0  0  0  0  0
  161.3090  207.1190  150.4100 C   0  0  0  0  0  0  0  0  0  0  0  0
  162.5340  210.6280  149.9960 C   0  0  0  0  0  2  0  0  0  0  0  0
  157.6540  214.4340  151.6520 N   0  0  0  0  0  2  0  0  0  0  0  0
  156.2510  214.4230  151.2690 C   0  0  0  0  0  2  0  0  0  0  0  0
  155.2060  214.4490  149.1310 O   0  0  0  0  0  0  0  0  0  0  0  0
  156.9900  213.0250  149.3450 O   0  0  0  0  0  1  0  0  0  0  0  0
  156.1230  213.9810  149.8560 C   0  0  0  0  0  0  0  0  0  0  0  0
  1 17  1  0  0  0  0
  2 24  1  0  0  0  0
  4 12  1  0  0  0  0
  5  4  1  0  0  0  0
  6 16  1  0  0  0  0
  6 23  2  0  0  0  0
  7  1  2  0  0  0  0
  8  9  2  0  0  0  0
  8  7  1  0  0  0  0
  9 14  1  0  0  0  0
 10 15  1  0  0  0  0
 10  2  2  0  0  0  0
 11 13  2  0  0  0  0
 12  7  1  0  0  0  0
 13  3  1  0  0  0  0
 13  6  1  0  0  0  0
 14 17  2  0  0  0  0
 14 19  1  0  0  0  0
 15 20  2  0  0  0  0
 16  9  1  0  0  0  0
 18 11  1  0  0  0  0
 20 25  1  0  0  0  0
 20 22  1  0  0  0  0
 21 18  2  0  0  0  0
 24 22  2  0  0  0  0
 24  5  1  0  0  0  0
 25 21  1  0  0  0  0
 26  3  1  0  0  0  0
 27 26  1  0  0  0  0
 28 30  2  0  0  0  0
 29 30  1  0  0  0  0
 30 27  1  0  0  0  0
M  END
>  <MODEL>
2

>  <REMARK>
 VINA RESULT:      -6.4      3.035      7.979
  Name = 
  3 active torsions:
  status: ('A' for Active; 'I' for Inactive)
    1  A    between atoms: N_3  and  N_27
    2  A    between atoms: C_26  and  N_27
    3  A    between atoms: C_26  and  C_30
                            x       y       z     vdW  Elec       q    Type
                         _______ _______ _______ _____ _____    ______ ____

>  <TORSDO>
F 3

$$$$
=
 OpenBabel11052410563D

 30 32  0  0  0  0  0  0  0  0999 V2000
  161.2470  205.4530  153.6080 C   0  0  0  0  0  3  0  0  0  0  0  0
  161.3530  211.1640  157.1490 C   0  0  0  0  0  3  0  0  0  0  0  0
  162.3050  211.4610  148.9480 N   0  0  0  0  0  2  0  0  0  0  0  0
  160.2810  207.7830  156.3800 C   0  0  0  0  0  2  0  0  0  0  0  0
  161.4360  208.7770  156.4080 C   0  0  0  0  0  2  0  0  0  0  0  0
  161.7300  209.6120  150.5270 C   0  0  0  0  0  0  0  0  0  0  0  0
  160.8570  206.6210  154.2660 C   0  0  0  0  0  0  0  0  0  0  0  0
  160.6980  207.7890  153.5170 C   0  0  0  0  0  3  0  0  0  0  0  0
  160.9530  207.8000  152.1510 C   0  0  0  0  0  0  0  0  0  0  0  0
  160.9430  212.4470  156.9670 N   0  0  0  0  0  0  0  0  0  0  0  0
  160.9150  211.9020  150.8050 N   0  0  0  0  0  0  0  0  0  0  0  0
  160.6520  206.6130  155.6520 O   0  0  0  0  0  0  0  0  0  0  0  0
  161.6010  211.0300  150.1180 C   0  0  0  0  0  0  0  0  0  0  0  0
  161.3290  206.6020  151.5230 C   0  0  0  0  0  0  0  0  0  0  0  0
  160.1440  212.7900  155.9220 C   0  0  0  0  0  3  0  0  0  0  0  0
  160.8040  209.0410  151.4570 N   0  0  0  0  0  2  0  0  0  0  0  0
  161.4640  205.4660  152.2630 N   0  0  0  0  0  0  0  0  0  0  0  0
  160.2250  211.5870  151.9830 N   0  0  0  0  0  0  0  0  0  0  0  0
  161.5060  206.5430  150.1800 F   0  0  0  0  0  0  0  0  0  0  0  0
  159.7390  211.8070  155.0160 C   0  0  0  0  0  0  0  0  0  0  0  0
  159.6020  212.5050  152.6450 C   0  0  0  0  0  3  0  0  0  0  0  0
  160.1560  210.5240  155.1940 N   0  0  0  0  0  0  0  0  0  0  0  0
  162.6880  208.9280  150.0800 O   0  0  0  0  0  0  0  0  0  0  0  0
  160.9440  210.1780  156.2490 C   0  0  0  0  0  0  0  0  0  0  0  0
  158.8360  212.1600  153.8790 C   0  0  0  0  0  2  0  0  0  0  0  0
  162.2870  212.7980  148.5190 N   0  0  0  0  0  2  0  0  0  0  0  0
  161.9450  212.7950  147.1060 C   0  0  0  0  0  2  0  0  0  0  0  0
  159.9700  212.1500  145.9440 O   0  0  0  0  0  0  0  0  0  0  0  0
  159.6380  213.3040  147.8960 O   0  0  0  0  0  1  0  0  0  0  0  0
  160.4680  212.7170  146.9510 C   0  0  0  0  0  0  0  0  0  0  0  0
  1  7  1  0  0  0  0
  3 13  1  0  0  0  0
  4  5  1  0  0  0  0
  6 16  1  0  0  0  0
  7 12  1  0  0  0  0
  8  7  2  0  0  0  0
  9  8  1  0  0  0  0
 10  2  1  0  0  0  0
 11 18  1  0  0  0  0
 12  4  1  0  0  0  0
 13  6  1  0  0  0  0
 13 11  2  0  0  0  0
 14  9  2  0  0  0  0
 14 17  1  0  0  0  0
 15 10  2  0  0  0  0
 16  9  1  0  0  0  0
 17  1  2  0  0  0  0
 18 21  2  0  0  0  0
 19 14  1  0  0  0  0
 20 22  2  0  0  0  0
 20 15  1  0  0  0  0
 21 25  1  0  0  0  0
 22 24  1  0  0  0  0
 23  6  2  0  0  0  0
 24  5  1  0  0  0  0
 24  2  2  0  0  0  0
 25 20  1  0  0  0  0
 26  3  1  0  0  0  0
 27 26  1  0  0  0  0
 28 30  2  0  0  0  0
 30 27  1  0  0  0  0
 30 29  1  0  0  0  0
M  END
>  <MODEL>
3

>  <REMARK>
 VINA RESULT:      -6.2      2.517      6.264
  Name = 
  3 active torsions:
  status: ('A' for Active; 'I' for Inactive)
    1  A    between atoms: N_3  and  N_27
    2  A    between atoms: C_26  and  N_27
    3  A    between atoms: C_26  and  C_30
                            x       y       z     vdW  Elec       q    Type
                         _______ _______ _______ _____ _____    ______ ____

>  <TORSDO>
F 3

$$$$
=
 OpenBabel11052410563D

 30 32  0  0  0  0  0  0  0  0999 V2000
  160.8310  203.0890  152.7610 C   0  0  0  0  0  3  0  0  0  0  0  0
  159.9420  202.2560  146.1520 C   0  0  0  0  0  3  0  0  0  0  0  0
  161.5810  209.7960  149.1020 N   0  0  0  0  0  2  0  0  0  0  0  0
  161.0180  201.2870  149.4800 C   0  0  0  0  0  2  0  0  0  0  0  0
  159.9650  202.0000  148.6390 C   0  0  0  0  0  2  0  0  0  0  0  0
  161.5420  207.5300  150.1540 C   0  0  0  0  0  0  0  0  0  0  0  0
  161.0600  202.8510  151.4040 C   0  0  0  0  0  0  0  0  0  0  0  0
  161.5050  203.9070  150.6070 C   0  0  0  0  0  3  0  0  0  0  0  0
  161.6840  205.1770  151.1400 C   0  0  0  0  0  0  0  0  0  0  0  0
  160.4560  202.7870  145.0110 N   0  0  0  0  0  0  0  0  0  0  0  0
  162.3520  207.9290  147.8810 N   0  0  0  0  0  0  0  0  0  0  0  0
  160.8280  201.5800  150.8630 O   0  0  0  0  0  0  0  0  0  0  0  0
  161.8660  208.3970  148.9970 C   0  0  0  0  0  0  0  0  0  0  0  0
  161.4560  205.3740  152.5120 C   0  0  0  0  0  0  0  0  0  0  0  0
  161.5550  203.5860  145.0390 C   0  0  0  0  0  3  0  0  0  0  0  0
  162.1050  206.2170  150.2540 N   0  0  0  0  0  2  0  0  0  0  0  0
  161.0400  204.3300  153.2820 N   0  0  0  0  0  0  0  0  0  0  0  0
  162.6280  206.5720  147.6670 N   0  0  0  0  0  0  0  0  0  0  0  0
  161.6990  206.5730  153.0960 F   0  0  0  0  0  0  0  0  0  0  0  0
  162.1670  203.8710  146.2620 C   0  0  0  0  0  0  0  0  0  0  0  0
  163.0650  206.1630  146.5220 C   0  0  0  0  0  3  0  0  0  0  0  0
  161.6480  203.3440  147.4050 N   0  0  0  0  0  0  0  0  0  0  0  0
  160.7340  207.9450  151.0260 O   0  0  0  0  0  0  0  0  0  0  0  0
  160.5560  202.5320  147.3750 C   0  0  0  0  0  0  0  0  0  0  0  0
  163.3930  204.7220  146.3090 C   0  0  0  0  0  2  0  0  0  0  0  0
  161.8010  210.6830  148.0360 N   0  0  0  0  0  2  0  0  0  0  0  0
  162.3310  211.9140  148.5990 C   0  0  0  0  0  2  0  0  0  0  0  0
  161.6240  212.8020  146.5070 O   0  0  0  0  0  0  0  0  0  0  0  0
  162.7210  214.2680  147.8860 O   0  0  0  0  0  1  0  0  0  0  0  0
  162.1910  213.0150  147.6100 C   0  0  0  0  0  0  0  0  0  0  0  0
  1 17  1  0  0  0  0
  2 24  1  0  0  0  0
  4 12  1  0  0  0  0
  5  4  1  0  0  0  0
  6 16  1  0  0  0  0
  6 23  2  0  0  0  0
  7  1  2  0  0  0  0
  8  9  2  0  0  0  0
  8  7  1  0  0  0  0
  9 14  1  0  0  0  0
 10 15  1  0  0  0  0
 10  2  2  0  0  0  0
 11 13  2  0  0  0  0
 12  7  1  0  0  0  0
 13  3  1  0  0  0  0
 13  6  1  0  0  0  0
 14 19  1  0  0  0  0
 14 17  2  0  0  0  0
 15 20  2  0  0  0  0
 16  9  1  0  0  0  0
 18 11  1  0  0  0  0
 20 25  1  0  0  0  0
 20 22  1  0  0  0  0
 21 18  2  0  0  0  0
 24 22  2  0  0  0  0
 24  5  1  0  0  0  0
 25 21  1  0  0  0  0
 26 27  1  0  0  0  0
 26  3  1  0  0  0  0
 28 30  2  0  0  0  0
 30 29  1  0  0  0  0
 30 27  1  0  0  0  0
M  END
>  <MODEL>
4

>  <REMARK>
 VINA RESULT:      -5.8      4.028      9.367
  Name = 
  3 active torsions:
  status: ('A' for Active; 'I' for Inactive)
    1  A    between atoms: N_3  and  N_27
    2  A    between atoms: C_26  and  N_27
    3  A    between atoms: C_26  and  C_30
                            x       y       z     vdW  Elec       q    Type
                         _______ _______ _______ _____ _____    ______ ____

>  <TORSDO>
F 3

$$$$
=
 OpenBabel11052410563D

 30 32  0  0  0  0  0  0  0  0999 V2000
  161.3130  204.3870  150.4770 C   0  0  0  0  0  3  0  0  0  0  0  0
  161.9560  208.5540  155.7100 C   0  0  0  0  0  3  0  0  0  0  0  0
  162.9230  211.4890  148.0480 N   0  0  0  0  0  2  0  0  0  0  0  0
  160.5720  205.7320  153.8970 C   0  0  0  0  0  2  0  0  0  0  0  0
  161.8150  206.5550  154.2150 C   0  0  0  0  0  2  0  0  0  0  0  0
  162.1800  209.2770  148.9410 C   0  0  0  0  0  0  0  0  0  0  0  0
  161.0350  205.2970  151.4990 C   0  0  0  0  0  0  0  0  0  0  0  0
  160.9840  206.6570  151.1860 C   0  0  0  0  0  3  0  0  0  0  0  0
  161.2380  207.1020  149.8940 C   0  0  0  0  0  0  0  0  0  0  0  0
  161.6680  209.8550  155.9780 N   0  0  0  0  0  0  0  0  0  0  0  0
  161.5830  211.4040  149.9900 N   0  0  0  0  0  0  0  0  0  0  0  0
  160.8310  204.8450  152.8090 O   0  0  0  0  0  0  0  0  0  0  0  0
  162.1840  210.7550  149.0300 C   0  0  0  0  0  0  0  0  0  0  0  0
  161.5000  206.1540  148.8910 C   0  0  0  0  0  0  0  0  0  0  0  0
  160.9030  210.5960  155.1330 C   0  0  0  0  0  3  0  0  0  0  0  0
  161.2050  208.5110  149.6570 N   0  0  0  0  0  2  0  0  0  0  0  0
  161.5290  204.8290  149.2070 N   0  0  0  0  0  0  0  0  0  0  0  0
  160.8670  210.7760  151.0180 N   0  0  0  0  0  0  0  0  0  0  0  0
  161.6700  206.5310  147.6000 F   0  0  0  0  0  0  0  0  0  0  0  0
  160.4070  210.0120  153.9650 C   0  0  0  0  0  0  0  0  0  0  0  0
  160.3340  211.4710  151.9670 C   0  0  0  0  0  3  0  0  0  0  0  0
  160.7020  208.7110  153.6940 N   0  0  0  0  0  0  0  0  0  0  0  0
  163.0690  208.6990  148.2610 O   0  0  0  0  0  0  0  0  0  0  0  0
  161.4550  207.9650  154.5470 C   0  0  0  0  0  0  0  0  0  0  0  0
  159.5400  210.8020  153.0400 C   0  0  0  0  0  2  0  0  0  0  0  0
  163.0300  212.8880  148.0890 N   0  0  0  0  0  2  0  0  0  0  0  0
  162.5350  213.3970  146.8210 C   0  0  0  0  0  2  0  0  0  0  0  0
  160.3940  213.8630  147.7490 O   0  0  0  0  0  1  0  0  0  0  0  0
  160.3860  212.6900  145.7790 O   0  0  0  0  0  0  0  0  0  0  0  0
  161.0490  213.3450  146.8080 C   0  0  0  0  0  0  0  0  0  0  0  0
  1  7  1  0  0  0  0
  2 10  1  0  0  0  0
  3 26  1  0  0  0  0
  3 13  1  0  0  0  0
  4  5  1  0  0  0  0
  5 24  1  0  0  0  0
  6 13  1  0  0  0  0
  6 16  1  0  0  0  0
  7 12  1  0  0  0  0
  8  7  2  0  0  0  0
  9  8  1  0  0  0  0
 11 18  1  0  0  0  0
 12  4  1  0  0  0  0
 13 11  2  0  0  0  0
 14 17  1  0  0  0  0
 14  9  2  0  0  0  0
 15 10  2  0  0  0  0
 16  9  1  0  0  0  0
 17  1  2  0  0  0  0
 18 21  2  0  0  0  0
 19 14  1  0  0  0  0
 20 15  1  0  0  0  0
 21 25  1  0  0  0  0
 22 20  2  0  0  0  0
 22 24  1  0  0  0  0
 23  6  2  0  0  0  0
 24  2  2  0  0  0  0
 25 20  1  0  0  0  0
 27 26  1  0  0  0  0
 29 30  2  0  0  0  0
 30 27  1  0  0  0  0
 30 28  1  0  0  0  0
M  END
>  <MODEL>
5

>  <REMARK>
 VINA RESULT:      -5.2      2.301      6.560
  Name = 
  3 active torsions:
  status: ('A' for Active; 'I' for Inactive)
    1  A    between atoms: N_3  and  N_27
    2  A    between atoms: C_26  and  N_27
    3  A    between atoms: C_26  and  C_30
                            x       y       z     vdW  Elec       q    Type
                         _______ _______ _______ _____ _____    ______ ____

>  <TORSDO>
F 3

$$$$
=
 OpenBabel11052410563D

 30 32  0  0  0  0  0  0  0  0999 V2000
  156.1110  214.4530  149.6640 C   0  0  0  0  0  3  0  0  0  0  0  0
  162.4080  213.7920  147.4130 C   0  0  0  0  0  3  0  0  0  0  0  0
  160.6620  211.7580  155.2280 N   0  0  0  0  0  2  0  0  0  0  0  0
  158.7900  213.7460  147.1400 C   0  0  0  0  0  2  0  0  0  0  0  0
  160.0130  214.4290  147.7410 C   0  0  0  0  0  2  0  0  0  0  0  0
  159.2380  212.4180  153.2830 C   0  0  0  0  0  0  0  0  0  0  0  0
  157.2760  213.9350  149.0950 C   0  0  0  0  0  0  0  0  0  0  0  0
  158.1100  213.1440  149.8870 C   0  0  0  0  0  3  0  0  0  0  0  0
  157.8090  212.9030  151.2220 C   0  0  0  0  0  0  0  0  0  0  0  0
  163.4430  212.9330  147.6100 N   0  0  0  0  0  0  0  0  0  0  0  0
  161.2290  211.0150  153.0590 N   0  0  0  0  0  0  0  0  0  0  0  0
  157.5990  214.2250  147.7640 O   0  0  0  0  0  0  0  0  0  0  0  0
  160.4060  211.6830  153.8200 C   0  0  0  0  0  0  0  0  0  0  0  0
  156.6200  213.4300  151.7540 C   0  0  0  0  0  0  0  0  0  0  0  0
  163.2690  211.7620  148.2790 C   0  0  0  0  0  3  0  0  0  0  0  0
  158.7290  212.1140  151.9800 N   0  0  0  0  0  2  0  0  0  0  0  0
  155.8060  214.1860  150.9650 N   0  0  0  0  0  0  0  0  0  0  0  0
  161.0870  210.9150  151.6690 N   0  0  0  0  0  0  0  0  0  0  0  0
  156.2400  213.1530  153.0250 F   0  0  0  0  0  0  0  0  0  0  0  0
  162.0050  211.4360  148.7760 C   0  0  0  0  0  0  0  0  0  0  0  0
  161.9620  210.2780  150.9630 C   0  0  0  0  0  3  0  0  0  0  0  0
  160.9710  212.3010  148.5840 N   0  0  0  0  0  0  0  0  0  0  0  0
  158.7240  213.3410  153.9680 O   0  0  0  0  0  0  0  0  0  0  0  0
  161.1410  213.4660  147.9020 C   0  0  0  0  0  0  0  0  0  0  0  0
  161.7880  210.1410  149.4870 C   0  0  0  0  0  2  0  0  0  0  0  0
  161.7780  211.1420  155.8150 N   0  0  0  0  0  2  0  0  0  0  0  0
  161.3140  210.4540  157.0090 C   0  0  0  0  0  2  0  0  0  0  0  0
  161.8620  208.1420  156.8660 O   0  0  0  0  0  1  0  0  0  0  0  0
  159.7680  208.7120  156.1270 O   0  0  0  0  0  0  0  0  0  0  0  0
  160.9990  209.0390  156.6790 C   0  0  0  0  0  0  0  0  0  0  0  0
  1 17  1  0  0  0  0
  2 10  2  0  0  0  0
  2 24  1  0  0  0  0
  3 26  1  0  0  0  0
  4  5  1  0  0  0  0
  4 12  1  0  0  0  0
  5 24  1  0  0  0  0
  6 13  1  0  0  0  0
  6 23  2  0  0  0  0
  7  1  2  0  0  0  0
  7  8  1  0  0  0  0
  8  9  2  0  0  0  0
  9 14  1  0  0  0  0
  9 16  1  0  0  0  0
 10 15  1  0  0  0  0
 11 13  2  0  0  0  0
 12  7  1  0  0  0  0
 13  3  1  0  0  0  0
 14 19  1  0  0  0  0
 15 20  2  0  0  0  0
 16  6  1  0  0  0  0
 17 14  2  0  0  0  0
 18 11  1  0  0  0  0
 20 25  1  0  0  0  0
 21 18  2  0  0  0  0
 22 20  1  0  0  0  0
 24 22  2  0  0  0  0
 25 21  1  0  0  0  0
 26 27  1  0  0  0  0
 29 30  2  0  0  0  0
 30 28  1  0  0  0  0
 30 27  1  0  0  0  0
M  END
>  <MODEL>
6

>  <REMARK>
 VINA RESULT:      -4.3      4.283      6.574
  Name = 
  3 active torsions:
  status: ('A' for Active; 'I' for Inactive)
    1  A    between atoms: N_3  and  N_27
    2  A    between atoms: C_26  and  N_27
    3  A    between atoms: C_26  and  C_30
                            x       y       z     vdW  Elec       q    Type
                         _______ _______ _______ _____ _____    ______ ____

>  <TORSDO>
F 3

$$$$
