=
 OpenBabel11042421483D

 44 47  0  0  1  0  0  0  0  0999 V2000
  161.3540  207.0290  149.5910 C   0  0  0  0  0  3  0  0  0  0  0  0
  161.5240  207.4490  153.7560 N   0  0  0  0  0  0  0  0  0  0  0  0
  161.7050  208.1000  148.7660 C   0  0  0  0  0  3  0  0  0  0  0  0
  161.8810  209.5420  150.7040 C   0  0  0  0  0  3  0  0  0  0  0  0
  161.3820  208.7010  153.0130 C   0  0  0  0  0  2  0  0  0  0  0  0
  161.5460  208.4710  151.5370 C   0  0  0  0  0  0  0  0  0  0  0  0
  160.5220  206.5110  153.2570 C   0  0  0  0  0  2  0  0  0  0  0  0
  161.2640  207.2060  150.9760 C   0  0  0  0  0  0  0  0  0  0  0  0
  161.9690  209.3590  149.3150 C   0  0  0  0  0  0  0  0  0  0  0  0
  160.9180  206.0320  151.8560 C   0  0  1  0  0  3  0  0  0  0  0  0
  162.1050  205.0820  151.9480 C   0  0  0  0  0  2  0  0  0  0  0  0
  161.6830  203.6750  151.5770 C   0  0  0  0  0  2  0  0  0  0  0  0
  160.4570  203.7280  150.7890 N   0  0  0  0  0  2  0  0  0  0  0  0
  160.5980  202.9140  149.5790 C   0  0  2  0  0  3  0  0  0  0  0  0
  161.0910  201.6460  149.8960 O   0  0  0  0  0  1  0  0  0  0  0  0
  161.4920  203.5830  148.5280 C   0  0  0  0  0  2  0  0  0  0  0  0
  161.1360  202.3770  146.4640 O   0  0  0  0  0  1  0  0  0  0  0  0
  160.8980  203.5870  147.1180 C   0  0  2  0  0  3  0  0  0  0  0  0
  161.7040  204.4770  144.5130 O   0  0  0  0  0  0  0  0  0  0  0  0
  162.8430  205.4360  146.6620 O   0  0  0  0  0  1  0  0  0  0  0  0
  161.5110  204.9780  146.1160 P   0  0  0  0  0  0  0  0  0  0  0  0
  160.4080  206.2610  146.1770 O   0  0  0  0  0  1  0  0  0  0  0  0
  161.2000  207.7180  155.1440 C   0  0  0  0  0  2  0  0  0  0  0  0
  161.6930  209.1040  155.5170 C   0  0  0  0  0  2  0  0  0  0  0  0
  160.0070  210.1620  157.0350 C   0  0  0  0  0  3  0  0  0  0  0  0
  157.2050  213.0240  153.9760 N   0  0  0  0  0  0  0  0  0  0  0  0
  160.0100  210.7520  154.6860 C   0  0  0  0  0  3  0  0  0  0  0  0
  158.3860  211.7490  156.1890 C   0  0  0  0  0  0  0  0  0  0  0  0
  157.2790  212.7310  156.4340 C   0  0  0  0  0  2  0  0  0  0  0  0
  158.9300  211.6190  154.8980 C   0  0  0  0  0  0  0  0  0  0  0  0
  158.9340  211.0310  157.2550 C   0  0  0  0  0  3  0  0  0  0  0  0
  158.3390  212.4090  153.7980 C   0  0  0  0  0  0  0  0  0  0  0  0
  156.3960  212.8780  155.1890 C   0  0  2  0  0  3  0  0  0  0  0  0
  160.5420  210.0180  155.7500 C   0  0  0  0  0  0  0  0  0  0  0  0
  155.5700  211.7600  155.0690 O   0  0  0  0  0  1  0  0  0  0  0  0
  159.0580  212.5800  152.5050 C   0  0  0  0  0  1  0  0  0  0  0  0
  162.3180  210.4370  148.4450 N   0  0  0  0  0  2  0  0  0  0  0  0
  162.0950  211.8340  148.7850 C   0  0  0  0  0  2  0  0  0  0  0  0
  162.8900  212.7130  147.8420 C   0  0  0  0  0  2  0  0  0  0  0  0
  162.0440  213.0550  146.6340 C   0  0  0  0  0  2  0  0  0  0  0  0
  158.1940  212.7310  146.8020 C   0  0  0  0  0  1  0  0  0  0  0  0
  159.8150  211.9610  145.2450 O   0  0  0  0  0  0  0  0  0  0  0  0
  159.5880  212.5960  146.3090 C   0  0  0  0  0  0  0  0  0  0  0  0
  160.6570  213.1980  147.0410 N   0  0  0  0  0  2  0  0  0  0  0  0
  1  8  1  0  0  0  0
  2 23  1  0  0  0  0
  3  9  1  0  0  0  0
  3  1  2  0  0  0  0
  4  6  1  0  0  0  0
  5  2  1  0  0  0  0
  6  5  1  0  0  0  0
  7  2  1  0  0  0  0
  8  6  2  0  0  0  0
  8 10  1  0  0  0  0
  9  4  2  0  0  0  0
 10 11  1  1  0  0  0
 10  7  1  0  0  0  0
 12 11  1  0  0  0  0
 13 12  1  0  0  0  0
 14 15  1  1  0  0  0
 14 13  1  0  0  0  0
 16 14  1  0  0  0  0
 18 17  1  6  0  0  0
 18 16  1  0  0  0  0
 19 21  2  0  0  0  0
 21 22  1  0  0  0  0
 21 20  1  0  0  0  0
 21 18  1  0  0  0  0
 23 24  1  0  0  0  0
 24 34  1  0  0  0  0
 25 31  1  0  0  0  0
 26 33  1  0  0  0  0
 27 30  2  0  0  0  0
 27 34  1  0  0  0  0
 28 29  1  0  0  0  0
 28 31  2  0  0  0  0
 30 28  1  0  0  0  0
 32 26  2  0  0  0  0
 32 30  1  0  0  0  0
 33 35  1  6  0  0  0
 33 29  1  0  0  0  0
 34 25  2  0  0  0  0
 36 32  1  0  0  0  0
 37 38  1  0  0  0  0
 37  9  1  0  0  0  0
 39 38  1  0  0  0  0
 40 44  1  0  0  0  0
 40 39  1  0  0  0  0
 42 43  2  0  0  0  0
 43 41  1  0  0  0  0
 43 44  1  0  0  0  0
M  END
>  <MODEL>
1

>  <REMARK>
 VINA RESULT:      -7.6      0.000      0.000
  Name = 
  15 active torsions:
  status: ('A' for Active; 'I' for Inactive)
    1  A    between atoms: C_5  and  C_29
    2  A    between atoms: C_5  and  C_36
    3  A    between atoms: C_6  and  C_24
    4  A    between atoms: C_6  and  C_37
    5  A    between atoms: N_7  and  C_36
    6  A    between atoms: N_19  and  C_23
    7  A    between atoms: N_19  and  C_24
    8  A    between atoms: C_21  and  C_28
    9  A    between atoms: C_21  and  N_41
   10  A    between atoms: C_23  and  C_43
   11  A    between atoms: C_28  and  C_33
   12  A    between atoms: C_32  and  N_41
   13  A    between atoms: C_33  and  N_42
   14  A    between atoms: P_35  and  C_44
   15  A    between atoms: C_43  and  C_44
                            x       y       z     vdW  Elec       q    Type
                         _______ _______ _______ _____ _____    ______ ____

>  <TORSDO>
F 15

$$$$
=
 OpenBabel11042421483D

 44 47  0  0  1  0  0  0  0  0999 V2000
  162.5200  207.2600  147.8880 C   0  0  0  0  0  3  0  0  0  0  0  0
  160.9780  206.7140  151.7450 N   0  0  0  0  0  0  0  0  0  0  0  0
  162.1140  206.4190  146.8480 C   0  0  0  0  0  3  0  0  0  0  0  0
  160.9170  205.0300  148.4300 C   0  0  0  0  0  3  0  0  0  0  0  0
  160.9340  205.5300  150.8880 C   0  0  0  0  0  2  0  0  0  0  0  0
  161.3050  205.8770  149.4730 C   0  0  0  0  0  0  0  0  0  0  0  0
  162.3260  207.2720  151.6780 C   0  0  0  0  0  2  0  0  0  0  0  0
  162.1270  206.9930  149.2030 C   0  0  0  0  0  0  0  0  0  0  0  0
  161.3140  205.3030  147.1120 C   0  0  0  0  0  0  0  0  0  0  0  0
  162.5440  207.9280  150.3100 C   0  0  1  0  0  3  0  0  0  0  0  0
  161.7480  209.2240  150.2230 C   0  0  0  0  0  2  0  0  0  0  0  0
  162.3330  210.1290  149.1580 C   0  0  0  0  0  2  0  0  0  0  0  0
  161.8840  211.4980  149.3840 N   0  0  0  0  0  2  0  0  0  0  0  0
  162.1160  212.3100  148.1870 C   0  0  2  0  0  3  0  0  0  0  0  0
  163.4720  212.3100  147.8500 O   0  0  0  0  0  1  0  0  0  0  0  0
  161.6090  213.7480  148.3520 C   0  0  0  0  0  2  0  0  0  0  0  0
  159.2300  213.3240  148.3190 O   0  0  0  0  0  1  0  0  0  0  0  0
  160.2620  214.0140  147.6790 C   0  0  2  0  0  3  0  0  0  0  0  0
  161.8150  213.9540  145.2680 O   0  0  0  0  0  1  0  0  0  0  0  0
  159.2480  214.4420  145.1890 O   0  0  0  0  0  0  0  0  0  0  0  0
  160.2860  213.6100  145.9050 P   0  0  0  0  0  0  0  0  0  0  0  0
  159.9400  211.9680  145.6830 O   0  0  0  0  0  1  0  0  0  0  0  0
  160.7660  206.2790  153.1120 C   0  0  0  0  0  2  0  0  0  0  0  0
  161.6370  207.1000  154.0440 C   0  0  0  0  0  2  0  0  0  0  0  0
  160.4420  208.0870  156.0100 C   0  0  0  0  0  3  0  0  0  0  0  0
  158.5190  212.4030  154.2560 N   0  0  0  0  0  0  0  0  0  0  0  0
  160.5100  209.3260  153.9300 C   0  0  0  0  0  3  0  0  0  0  0  0
  159.3540  210.2440  155.8560 C   0  0  0  0  0  0  0  0  0  0  0  0
  158.6210  211.3790  156.5090 C   0  0  0  0  0  2  0  0  0  0  0  0
  159.7650  210.3580  154.5160 C   0  0  0  0  0  0  0  0  0  0  0  0
  159.7040  209.1160  156.6020 C   0  0  0  0  0  3  0  0  0  0  0  0
  159.3950  211.5750  153.7630 C   0  0  0  0  0  0  0  0  0  0  0  0
  157.7660  212.1340  155.4850 C   0  0  2  0  0  3  0  0  0  0  0  0
  160.8410  208.1880  154.6720 C   0  0  0  0  0  0  0  0  0  0  0  0
  156.6280  211.3850  155.1830 O   0  0  0  0  0  1  0  0  0  0  0  0
  160.0660  211.9140  152.4770 C   0  0  0  0  0  1  0  0  0  0  0  0
  160.9220  204.4580  146.0290 N   0  0  0  0  0  2  0  0  0  0  0  0
  161.5370  203.1650  145.7700 C   0  0  0  0  0  2  0  0  0  0  0  0
  160.4590  202.1060  145.6760 C   0  0  0  0  0  2  0  0  0  0  0  0
  160.7900  200.9620  146.6110 C   0  0  0  0  0  2  0  0  0  0  0  0
  161.0270  202.0220  150.3230 C   0  0  0  0  0  1  0  0  0  0  0  0
  159.2670  201.1150  149.0090 O   0  0  0  0  0  0  0  0  0  0  0  0
  160.4610  201.5140  149.0470 C   0  0  0  0  0  0  0  0  0  0  0  0
  161.2740  201.4950  147.8730 N   0  0  0  0  0  2  0  0  0  0  0  0
  1  8  1  0  0  0  0
  2 23  1  0  0  0  0
  3  9  1  0  0  0  0
  3  1  2  0  0  0  0
  4  6  1  0  0  0  0
  5  2  1  0  0  0  0
  6  5  1  0  0  0  0
  7  2  1  0  0  0  0
  8  6  2  0  0  0  0
  8 10  1  0  0  0  0
  9  4  2  0  0  0  0
 10 11  1  1  0  0  0
 10  7  1  0  0  0  0
 12 13  1  0  0  0  0
 12 11  1  0  0  0  0
 14 15  1  1  0  0  0
 14 16  1  0  0  0  0
 14 13  1  0  0  0  0
 18 17  1  1  0  0  0
 18 16  1  0  0  0  0
 19 21  1  0  0  0  0
 20 21  2  0  0  0  0
 21 18  1  0  0  0  0
 22 21  1  0  0  0  0
 23 24  1  0  0  0  0
 24 34  1  0  0  0  0
 25 31  1  0  0  0  0
 26 33  1  0  0  0  0
 27 30  2  0  0  0  0
 27 34  1  0  0  0  0
 28 29  1  0  0  0  0
 28 31  2  0  0  0  0
 30 28  1  0  0  0  0
 32 26  2  0  0  0  0
 32 30  1  0  0  0  0
 33 35  1  6  0  0  0
 33 29  1  0  0  0  0
 34 25  2  0  0  0  0
 36 32  1  0  0  0  0
 37  9  1  0  0  0  0
 38 37  1  0  0  0  0
 39 38  1  0  0  0  0
 39 40  1  0  0  0  0
 40 44  1  0  0  0  0
 42 43  2  0  0  0  0
 43 41  1  0  0  0  0
 44 43  1  0  0  0  0
M  END
>  <MODEL>
2

>  <REMARK>
 VINA RESULT:      -7.6      2.547      6.871
  Name = 
  15 active torsions:
  status: ('A' for Active; 'I' for Inactive)
    1  A    between atoms: C_5  and  C_29
    2  A    between atoms: C_5  and  C_36
    3  A    between atoms: C_6  and  C_24
    4  A    between atoms: C_6  and  C_37
    5  A    between atoms: N_7  and  C_36
    6  A    between atoms: N_19  and  C_23
    7  A    between atoms: N_19  and  C_24
    8  A    between atoms: C_21  and  C_28
    9  A    between atoms: C_21  and  N_41
   10  A    between atoms: C_23  and  C_43
   11  A    between atoms: C_28  and  C_33
   12  A    between atoms: C_32  and  N_41
   13  A    between atoms: C_33  and  N_42
   14  A    between atoms: P_35  and  C_44
   15  A    between atoms: C_43  and  C_44
                            x       y       z     vdW  Elec       q    Type
                         _______ _______ _______ _____ _____    ______ ____

>  <TORSDO>
F 15

$$$$
=
 OpenBabel11042421483D

 44 47  0  0  1  0  0  0  0  0999 V2000
  160.4650  212.6960  150.5100 C   0  0  0  0  0  3  0  0  0  0  0  0
  162.4020  208.9820  150.4570 N   0  0  0  0  0  0  0  0  0  0  0  0
  159.8990  213.1720  151.6950 C   0  0  0  0  0  3  0  0  0  0  0  0
  160.3570  211.0520  152.7720 C   0  0  0  0  0  3  0  0  0  0  0  0
  161.4180  209.1510  151.5260 C   0  0  0  0  0  2  0  0  0  0  0  0
  160.9390  210.5750  151.5940 C   0  0  0  0  0  0  0  0  0  0  0  0
  161.7780  209.3850  149.2000 C   0  0  0  0  0  2  0  0  0  0  0  0
  160.9800  211.3970  150.4470 C   0  0  0  0  0  0  0  0  0  0  0  0
  159.8410  212.3560  152.8290 C   0  0  0  0  0  0  0  0  0  0  0  0
  161.6170  210.9090  149.1710 C   0  0  1  0  0  3  0  0  0  0  0  0
  162.9770  211.5700  148.9830 C   0  0  0  0  0  2  0  0  0  0  0  0
  162.8850  212.6760  147.9510 C   0  0  0  0  0  2  0  0  0  0  0  0
  161.7790  212.4010  147.0410 N   0  0  0  0  0  2  0  0  0  0  0  0
  161.1110  213.6490  146.6640 C   0  0  2  0  0  3  0  0  0  0  0  0
  159.7250  213.4760  146.6440 O   0  0  0  0  0  1  0  0  0  0  0  0
  161.5990  214.1860  145.3130 C   0  0  0  0  0  2  0  0  0  0  0  0
  163.5680  213.5630  144.0590 O   0  0  0  0  0  1  0  0  0  0  0  0
  162.2940  213.1390  144.4420 C   0  0  2  0  0  3  0  0  0  0  0  0
  162.2860  211.8870  141.8610 O   0  0  0  0  0  0  0  0  0  0  0  0
  160.7640  213.9570  142.3440 O   0  0  0  0  0  1  0  0  0  0  0  0
  161.3080  212.6980  142.9770 P   0  0  0  0  0  0  0  0  0  0  0  0
  160.0210  211.6970  143.4310 O   0  0  0  0  0  1  0  0  0  0  0  0
  162.6980  207.5660  150.3490 C   0  0  0  0  0  2  0  0  0  0  0  0
  161.9840  206.8150  151.4570 C   0  0  0  0  0  2  0  0  0  0  0  0
  160.9500  204.5710  151.8560 C   0  0  0  0  0  3  0  0  0  0  0  0
  161.0300  202.3460  147.3340 N   0  0  0  0  0  0  0  0  0  0  0  0
  161.6040  205.1830  149.6060 C   0  0  0  0  0  3  0  0  0  0  0  0
  160.6070  203.0120  150.0350 C   0  0  0  0  0  0  0  0  0  0  0  0
  160.0570  201.7140  149.5230 C   0  0  0  0  0  2  0  0  0  0  0  0
  161.1560  203.9420  149.1340 C   0  0  0  0  0  0  0  0  0  0  0  0
  160.4940  203.3340  151.3900 C   0  0  0  0  0  3  0  0  0  0  0  0
  161.2400  203.5760  147.7050 C   0  0  0  0  0  0  0  0  0  0  0  0
  160.8310  201.2470  148.2840 C   0  0  2  0  0  3  0  0  0  0  0  0
  161.5110  205.4930  150.9660 C   0  0  0  0  0  0  0  0  0  0  0  0
  162.0680  200.7340  148.6720 O   0  0  0  0  0  1  0  0  0  0  0  0
  161.4880  204.6110  146.6620 C   0  0  0  0  0  1  0  0  0  0  0  0
  159.2500  212.8680  154.0240 N   0  0  0  0  0  2  0  0  0  0  0  0
  158.7290  212.0140  155.0800 C   0  0  0  0  0  2  0  0  0  0  0  0
  159.5410  212.2230  156.3420 C   0  0  0  0  0  2  0  0  0  0  0  0
  160.5720  211.1210  156.4680 C   0  0  0  0  0  2  0  0  0  0  0  0
  159.7260  207.3780  155.9940 C   0  0  0  0  0  1  0  0  0  0  0  0
  161.4780  208.7570  155.1730 O   0  0  0  0  0  0  0  0  0  0  0  0
  160.4280  208.6800  155.8650 C   0  0  0  0  0  0  0  0  0  0  0  0
  159.9000  209.8350  156.5170 N   0  0  0  0  0  2  0  0  0  0  0  0
  1  3  1  0  0  0  0
  2  5  1  0  0  0  0
  3  9  2  0  0  0  0
  4  9  1  0  0  0  0
  5  6  1  0  0  0  0
  6  4  2  0  0  0  0
  7  2  1  0  0  0  0
  8  1  2  0  0  0  0
  8  6  1  0  0  0  0
  9 37  1  0  0  0  0
 10 11  1  1  0  0  0
 10  7  1  0  0  0  0
 10  8  1  0  0  0  0
 12 11  1  0  0  0  0
 13 12  1  0  0  0  0
 14 15  1  6  0  0  0
 14 13  1  0  0  0  0
 16 14  1  0  0  0  0
 18 17  1  6  0  0  0
 18 16  1  0  0  0  0
 19 21  2  0  0  0  0
 20 21  1  0  0  0  0
 21 22  1  0  0  0  0
 21 18  1  0  0  0  0
 23  2  1  0  0  0  0
 23 24  1  0  0  0  0
 26 32  2  0  0  0  0
 26 33  1  0  0  0  0
 27 34  1  0  0  0  0
 28 31  2  0  0  0  0
 29 28  1  0  0  0  0
 30 27  2  0  0  0  0
 30 28  1  0  0  0  0
 31 25  1  0  0  0  0
 32 30  1  0  0  0  0
 33 35  1  1  0  0  0
 33 29  1  0  0  0  0
 34 24  1  0  0  0  0
 34 25  2  0  0  0  0
 36 32  1  0  0  0  0
 37 38  1  0  0  0  0
 38 39  1  0  0  0  0
 39 40  1  0  0  0  0
 40 44  1  0  0  0  0
 42 43  2  0  0  0  0
 43 41  1  0  0  0  0
 43 44  1  0  0  0  0
M  END
>  <MODEL>
3

>  <REMARK>
 VINA RESULT:      -7.2      2.731      9.005
  Name = 
  15 active torsions:
  status: ('A' for Active; 'I' for Inactive)
    1  A    between atoms: C_5  and  C_29
    2  A    between atoms: C_5  and  C_36
    3  A    between atoms: C_6  and  C_24
    4  A    between atoms: C_6  and  C_37
    5  A    between atoms: N_7  and  C_36
    6  A    between atoms: N_19  and  C_23
    7  A    between atoms: N_19  and  C_24
    8  A    between atoms: C_21  and  C_28
    9  A    between atoms: C_21  and  N_41
   10  A    between atoms: C_23  and  C_43
   11  A    between atoms: C_28  and  C_33
   12  A    between atoms: C_32  and  N_41
   13  A    between atoms: C_33  and  N_42
   14  A    between atoms: P_35  and  C_44
   15  A    between atoms: C_43  and  C_44
                            x       y       z     vdW  Elec       q    Type
                         _______ _______ _______ _____ _____    ______ ____

>  <TORSDO>
F 15

$$$$
=
 OpenBabel11042421483D

 44 47  0  0  1  0  0  0  0  0999 V2000
  162.1750  207.0520  148.5870 C   0  0  0  0  0  3  0  0  0  0  0  0
  160.9750  208.8590  152.1710 N   0  0  0  0  0  0  0  0  0  0  0  0
  161.7260  205.7680  148.2680 C   0  0  0  0  0  3  0  0  0  0  0  0
  160.7250  205.5660  150.4640 C   0  0  0  0  0  3  0  0  0  0  0  0
  160.9170  207.3980  152.1650 C   0  0  0  0  0  2  0  0  0  0  0  0
  161.1560  206.8560  150.7830 C   0  0  0  0  0  0  0  0  0  0  0  0
  162.2860  209.2620  151.6700 C   0  0  0  0  0  2  0  0  0  0  0  0
  161.9020  207.6010  149.8440 C   0  0  0  0  0  0  0  0  0  0  0  0
  161.0020  205.0190  149.2000 C   0  0  0  0  0  0  0  0  0  0  0  0
  162.3630  209.0010  150.1610 C   0  0  1  0  0  3  0  0  0  0  0  0
  161.5030  210.0140  149.4150 C   0  0  0  0  0  2  0  0  0  0  0  0
  162.3490  211.1850  148.9590 C   0  0  0  0  0  2  0  0  0  0  0  0
  161.4960  212.3500  148.7550 N   0  0  0  0  0  2  0  0  0  0  0  0
  161.4720  212.7180  147.3370 C   0  0  2  0  0  3  0  0  0  0  0  0
  162.7720  212.8690  146.8480 O   0  0  0  0  0  1  0  0  0  0  0  0
  160.6560  213.9910  147.0790 C   0  0  0  0  0  2  0  0  0  0  0  0
  158.6720  212.6400  146.8040 O   0  0  0  0  0  1  0  0  0  0  0  0
  159.3570  213.7510  146.3090 C   0  0  2  0  0  3  0  0  0  0  0  0
  161.0840  214.3460  144.0970 O   0  0  0  0  0  1  0  0  0  0  0  0
  158.4940  214.2110  143.7690 O   0  0  0  0  0  0  0  0  0  0  0  0
  159.6400  213.5740  144.5200 P   0  0  0  0  0  0  0  0  0  0  0  0
  159.7370  211.9350  144.1120 O   0  0  0  0  0  1  0  0  0  0  0  0
  160.8930  209.3000  153.5500 C   0  0  0  0  0  2  0  0  0  0  0  0
  161.4030  210.7250  153.6560 C   0  0  0  0  0  2  0  0  0  0  0  0
  159.9040  212.0260  155.1800 C   0  0  0  0  0  3  0  0  0  0  0  0
  156.6650  214.3210  152.0740 N   0  0  0  0  0  0  0  0  0  0  0  0
  159.5900  212.2050  152.7850 C   0  0  0  0  0  3  0  0  0  0  0  0
  158.1510  213.4440  154.2970 C   0  0  0  0  0  0  0  0  0  0  0  0
  157.0630  214.4530  154.5160 C   0  0  0  0  0  2  0  0  0  0  0  0
  158.5270  213.0950  152.9870 C   0  0  0  0  0  0  0  0  0  0  0  0
  158.8480  212.9190  155.3880 C   0  0  0  0  0  3  0  0  0  0  0  0
  157.7810  213.6850  151.8560 C   0  0  0  0  0  0  0  0  0  0  0  0
  156.0230  214.3840  153.3900 C   0  0  2  0  0  3  0  0  0  0  0  0
  160.2720  211.6640  153.8790 C   0  0  0  0  0  0  0  0  0  0  0  0
  155.2140  213.2620  153.5710 O   0  0  0  0  0  1  0  0  0  0  0  0
  158.3230  213.6330  150.4700 C   0  0  0  0  0  1  0  0  0  0  0  0
  160.5640  203.7060  148.8480 N   0  0  0  0  0  2  0  0  0  0  0  0
  161.4550  202.6920  148.3050 C   0  0  0  0  0  2  0  0  0  0  0  0
  160.6770  201.7900  147.3700 C   0  0  0  0  0  2  0  0  0  0  0  0
  161.1040  202.0520  145.9410 C   0  0  0  0  0  2  0  0  0  0  0  0
  160.9490  205.6890  144.6360 C   0  0  0  0  0  1  0  0  0  0  0  0
  162.7530  204.2250  145.1350 O   0  0  0  0  0  0  0  0  0  0  0  0
  161.5050  204.3930  145.1040 C   0  0  0  0  0  0  0  0  0  0  0  0
  160.6190  203.3550  145.5230 N   0  0  0  0  0  2  0  0  0  0  0  0
  1  8  1  0  0  0  0
  2 23  1  0  0  0  0
  3  1  2  0  0  0  0
  3  9  1  0  0  0  0
  4  6  1  0  0  0  0
  5  2  1  0  0  0  0
  6  5  1  0  0  0  0
  7  2  1  0  0  0  0
  8 10  1  0  0  0  0
  8  6  2  0  0  0  0
  9  4  2  0  0  0  0
 10 11  1  6  0  0  0
 10  7  1  0  0  0  0
 12 11  1  0  0  0  0
 13 12  1  0  0  0  0
 14 15  1  1  0  0  0
 14 13  1  0  0  0  0
 16 14  1  0  0  0  0
 18 17  1  1  0  0  0
 18 16  1  0  0  0  0
 19 21  1  0  0  0  0
 20 21  2  0  0  0  0
 21 18  1  0  0  0  0
 22 21  1  0  0  0  0
 23 24  1  0  0  0  0
 24 34  1  0  0  0  0
 25 31  1  0  0  0  0
 26 33  1  0  0  0  0
 27 30  2  0  0  0  0
 27 34  1  0  0  0  0
 28 29  1  0  0  0  0
 28 31  2  0  0  0  0
 30 28  1  0  0  0  0
 32 26  2  0  0  0  0
 32 30  1  0  0  0  0
 33 35  1  1  0  0  0
 33 29  1  0  0  0  0
 34 25  2  0  0  0  0
 36 32  1  0  0  0  0
 37  9  1  0  0  0  0
 38 37  1  0  0  0  0
 39 38  1  0  0  0  0
 40 39  1  0  0  0  0
 41 43  1  0  0  0  0
 43 42  2  0  0  0  0
 43 44  1  0  0  0  0
 44 40  1  0  0  0  0
M  END
>  <MODEL>
4

>  <REMARK>
 VINA RESULT:      -7.1      2.342      6.592
  Name = 
  15 active torsions:
  status: ('A' for Active; 'I' for Inactive)
    1  A    between atoms: C_5  and  C_29
    2  A    between atoms: C_5  and  C_36
    3  A    between atoms: C_6  and  C_24
    4  A    between atoms: C_6  and  C_37
    5  A    between atoms: N_7  and  C_36
    6  A    between atoms: N_19  and  C_23
    7  A    between atoms: N_19  and  C_24
    8  A    between atoms: C_21  and  C_28
    9  A    between atoms: C_21  and  N_41
   10  A    between atoms: C_23  and  C_43
   11  A    between atoms: C_28  and  C_33
   12  A    between atoms: C_32  and  N_41
   13  A    between atoms: C_33  and  N_42
   14  A    between atoms: P_35  and  C_44
   15  A    between atoms: C_43  and  C_44
                            x       y       z     vdW  Elec       q    Type
                         _______ _______ _______ _____ _____    ______ ____

>  <TORSDO>
F 15

$$$$
=
 OpenBabel11042421483D

 44 47  0  0  1  0  0  0  0  0999 V2000
  161.9950  205.6930  149.2490 C   0  0  0  0  0  3  0  0  0  0  0  0
  160.9140  207.1460  153.0260 N   0  0  0  0  0  0  0  0  0  0  0  0
  161.5170  204.4540  148.8140 C   0  0  0  0  0  3  0  0  0  0  0  0
  160.5670  204.0450  151.0040 C   0  0  0  0  0  3  0  0  0  0  0  0
  160.8310  205.6940  152.8750 C   0  0  0  0  0  2  0  0  0  0  0  0
  161.0270  205.2910  151.4400 C   0  0  0  0  0  0  0  0  0  0  0  0
  162.2190  207.5790  152.5350 C   0  0  0  0  0  2  0  0  0  0  0  0
  161.7620  206.1160  150.5620 C   0  0  0  0  0  0  0  0  0  0  0  0
  160.8030  203.6250  149.6850 C   0  0  0  0  0  0  0  0  0  0  0  0
  162.2540  207.4700  151.0060 C   0  0  1  0  0  3  0  0  0  0  0  0
  161.3940  208.5650  150.3880 C   0  0  0  0  0  2  0  0  0  0  0  0
  162.2680  209.5930  149.6990 C   0  0  0  0  0  2  0  0  0  0  0  0
  161.6130  210.8950  149.7410 N   0  0  0  0  0  2  0  0  0  0  0  0
  161.7460  211.5710  148.4480 C   0  0  2  0  0  3  0  0  0  0  0  0
  163.0680  211.9700  148.2370 O   0  0  0  0  0  1  0  0  0  0  0  0
  160.8020  212.7720  148.3190 C   0  0  0  0  0  2  0  0  0  0  0  0
  160.9080  213.7210  146.0990 O   0  0  0  0  0  1  0  0  0  0  0  0
  160.1500  212.9060  146.9420 C   0  0  2  0  0  3  0  0  0  0  0  0
  158.0910  214.4520  145.6780 O   0  0  0  0  0  0  0  0  0  0  0  0
  158.2910  214.3730  148.2830 O   0  0  0  0  0  1  0  0  0  0  0  0
  158.4400  213.5200  147.0450 P   0  0  0  0  0  0  0  0  0  0  0  0
  157.3640  212.2160  147.1290 O   0  0  0  0  0  1  0  0  0  0  0  0
  160.8740  207.4460  154.4450 C   0  0  0  0  0  2  0  0  0  0  0  0
  161.4690  208.8210  154.6870 C   0  0  0  0  0  2  0  0  0  0  0  0
  159.8890  209.9400  156.2730 C   0  0  0  0  0  3  0  0  0  0  0  0
  157.2680  213.1220  153.3730 N   0  0  0  0  0  0  0  0  0  0  0  0
  159.9040  210.6210  153.9480 C   0  0  0  0  0  3  0  0  0  0  0  0
  158.3800  211.6760  155.5150 C   0  0  0  0  0  0  0  0  0  0  0  0
  157.3530  212.7270  155.8170 C   0  0  0  0  0  2  0  0  0  0  0  0
  158.8950  211.5560  154.2120 C   0  0  0  0  0  0  0  0  0  0  0  0
  158.8870  210.8770  156.5430 C   0  0  0  0  0  3  0  0  0  0  0  0
  158.3500  212.4320  153.1530 C   0  0  0  0  0  0  0  0  0  0  0  0
  156.4670  212.9880  154.5930 C   0  0  2  0  0  3  0  0  0  0  0  0
  160.3940  209.8070  154.9740 C   0  0  0  0  0  0  0  0  0  0  0  0
  155.5570  211.9410  154.4430 O   0  0  0  0  0  1  0  0  0  0  0  0
  159.0620  212.6000  151.8550 C   0  0  0  0  0  1  0  0  0  0  0  0
  160.3350  202.3610  149.2140 N   0  0  0  0  0  2  0  0  0  0  0  0
  160.9620  201.6420  148.1160 C   0  0  0  0  0  2  0  0  0  0  0  0
  160.0410  201.6600  146.9130 C   0  0  0  0  0  2  0  0  0  0  0  0
  160.8610  201.8130  145.6500 C   0  0  0  0  0  2  0  0  0  0  0  0
  161.6100  205.5480  144.9830 C   0  0  0  0  0  1  0  0  0  0  0  0
  159.9200  204.0730  144.2010 O   0  0  0  0  0  0  0  0  0  0  0  0
  160.9490  204.2200  144.9120 C   0  0  0  0  0  0  0  0  0  0  0  0
  161.4950  203.1200  145.6410 N   0  0  0  0  0  2  0  0  0  0  0  0
  1  8  1  0  0  0  0
  2 23  1  0  0  0  0
  3  1  2  0  0  0  0
  3  9  1  0  0  0  0
  4  6  1  0  0  0  0
  5  2  1  0  0  0  0
  6  5  1  0  0  0  0
  7  2  1  0  0  0  0
  8 10  1  0  0  0  0
  8  6  2  0  0  0  0
  9  4  2  0  0  0  0
 10 11  1  6  0  0  0
 10  7  1  0  0  0  0
 12 13  1  0  0  0  0
 12 11  1  0  0  0  0
 14 15  1  1  0  0  0
 14 13  1  0  0  0  0
 16 14  1  0  0  0  0
 18 17  1  6  0  0  0
 18 21  1  0  0  0  0
 18 16  1  0  0  0  0
 19 21  2  0  0  0  0
 21 22  1  0  0  0  0
 21 20  1  0  0  0  0
 23 24  1  0  0  0  0
 24 34  1  0  0  0  0
 25 31  1  0  0  0  0
 26 33  1  0  0  0  0
 27 30  2  0  0  0  0
 27 34  1  0  0  0  0
 28 29  1  0  0  0  0
 28 31  2  0  0  0  0
 30 28  1  0  0  0  0
 32 26  2  0  0  0  0
 32 30  1  0  0  0  0
 33 35  1  6  0  0  0
 33 29  1  0  0  0  0
 34 25  2  0  0  0  0
 36 32  1  0  0  0  0
 37  9  1  0  0  0  0
 38 37  1  0  0  0  0
 39 38  1  0  0  0  0
 40 39  1  0  0  0  0
 42 43  2  0  0  0  0
 43 41  1  0  0  0  0
 43 44  1  0  0  0  0
 44 40  1  0  0  0  0
M  END
>  <MODEL>
5

>  <REMARK>
 VINA RESULT:      -7.0      2.315      6.414
  Name = 
  15 active torsions:
  status: ('A' for Active; 'I' for Inactive)
    1  A    between atoms: C_5  and  C_29
    2  A    between atoms: C_5  and  C_36
    3  A    between atoms: C_6  and  C_24
    4  A    between atoms: C_6  and  C_37
    5  A    between atoms: N_7  and  C_36
    6  A    between atoms: N_19  and  C_23
    7  A    between atoms: N_19  and  C_24
    8  A    between atoms: C_21  and  C_28
    9  A    between atoms: C_21  and  N_41
   10  A    between atoms: C_23  and  C_43
   11  A    between atoms: C_28  and  C_33
   12  A    between atoms: C_32  and  N_41
   13  A    between atoms: C_33  and  N_42
   14  A    between atoms: P_35  and  C_44
   15  A    between atoms: C_43  and  C_44
                            x       y       z     vdW  Elec       q    Type
                         _______ _______ _______ _____ _____    ______ ____

>  <TORSDO>
F 15

$$$$
=
 OpenBabel11042421483D

 44 47  0  0  1  0  0  0  0  0999 V2000
  160.8180  212.8740  150.4070 C   0  0  0  0  0  3  0  0  0  0  0  0
  161.8350  208.8160  150.6180 N   0  0  0  0  0  0  0  0  0  0  0  0
  160.7690  213.5180  149.1680 C   0  0  0  0  0  3  0  0  0  0  0  0
  161.6840  211.5470  148.1000 C   0  0  0  0  0  3  0  0  0  0  0  0
  162.3120  209.5110  149.4230 C   0  0  0  0  0  2  0  0  0  0  0  0
  161.7210  210.8910  149.3340 C   0  0  0  0  0  0  0  0  0  0  0  0
  162.1970  209.6170  151.7840 C   0  0  0  0  0  2  0  0  0  0  0  0
  161.3000  211.5640  150.5010 C   0  0  0  0  0  0  0  0  0  0  0  0
  161.2000  212.8620  148.0120 C   0  0  0  0  0  0  0  0  0  0  0  0
  161.3160  210.8710  151.8400 C   0  0  1  0  0  3  0  0  0  0  0  0
  159.8980  210.4900  152.2450 C   0  0  0  0  0  2  0  0  0  0  0  0
  159.1770  211.6920  152.8230 C   0  0  0  0  0  2  0  0  0  0  0  0
  159.5320  211.8420  154.2290 N   0  0  0  0  0  2  0  0  0  0  0  0
  158.4960  211.2510  155.0790 C   0  0  2  0  0  3  0  0  0  0  0  0
  157.7180  212.2500  155.6700 O   0  0  0  0  0  1  0  0  0  0  0  0
  159.0810  210.3280  156.1550 C   0  0  0  0  0  2  0  0  0  0  0  0
  160.2900  208.2360  156.1180 O   0  0  0  0  0  1  0  0  0  0  0  0
  160.3330  209.5700  155.7100 C   0  0  2  0  0  3  0  0  0  0  0  0
  161.4750  211.7350  157.2070 O   0  0  0  0  0  1  0  0  0  0  0  0
  162.7020  210.7700  155.1110 O   0  0  0  0  0  0  0  0  0  0  0  0
  161.8620  210.3620  156.2990 P   0  0  0  0  0  0  0  0  0  0  0  0
  162.7380  209.2790  157.2600 O   0  0  0  0  0  1  0  0  0  0  0  0
  162.5620  207.5650  150.7210 C   0  0  0  0  0  2  0  0  0  0  0  0
  161.9610  206.7210  151.8300 C   0  0  0  0  0  2  0  0  0  0  0  0
  160.9930  204.4360  152.1600 C   0  0  0  0  0  3  0  0  0  0  0  0
  161.0000  202.4080  147.5460 N   0  0  0  0  0  0  0  0  0  0  0  0
  161.5680  205.1600  149.9210 C   0  0  0  0  0  3  0  0  0  0  0  0
  160.6370  202.9480  150.2840 C   0  0  0  0  0  0  0  0  0  0  0  0
  160.1050  201.6590  149.7310 C   0  0  0  0  0  2  0  0  0  0  0  0
  161.1370  203.9290  149.4090 C   0  0  0  0  0  0  0  0  0  0  0  0
  160.5550  203.2090  151.6540 C   0  0  0  0  0  3  0  0  0  0  0  0
  161.1900  203.6270  147.9630 C   0  0  0  0  0  0  0  0  0  0  0  0
  160.8540  201.2650  148.4530 C   0  0  2  0  0  3  0  0  0  0  0  0
  161.5060  205.4100  151.2950 C   0  0  0  0  0  0  0  0  0  0  0  0
  162.1150  200.7680  148.7850 O   0  0  0  0  0  1  0  0  0  0  0  0
  161.3830  204.7110  146.9600 C   0  0  0  0  0  1  0  0  0  0  0  0
  161.1440  213.5490  146.7610 N   0  0  0  0  0  2  0  0  0  0  0  0
  161.7900  213.0550  145.5550 C   0  0  0  0  0  2  0  0  0  0  0  0
  160.7320  212.6350  144.5550 C   0  0  0  0  0  2  0  0  0  0  0  0
  161.3560  212.5040  143.1820 C   0  0  0  0  0  2  0  0  0  0  0  0
  159.5720  211.2760  139.9790 C   0  0  0  0  0  1  0  0  0  0  0  0
  161.4890  212.6320  140.3430 O   0  0  0  0  0  0  0  0  0  0  0  0
  160.5480  211.9700  140.8570 C   0  0  0  0  0  0  0  0  0  0  0  0
  160.4030  211.8890  142.2750 N   0  0  0  0  0  2  0  0  0  0  0  0
  1  8  1  0  0  0  0
  2 23  1  0  0  0  0
  2  7  1  0  0  0  0
  3  1  2  0  0  0  0
  4  6  1  0  0  0  0
  5  2  1  0  0  0  0
  6  5  1  0  0  0  0
  6  8  2  0  0  0  0
  7 10  1  0  0  0  0
  8 10  1  0  0  0  0
  9  4  2  0  0  0  0
  9  3  1  0  0  0  0
 10 11  1  6  0  0  0
 11 12  1  0  0  0  0
 12 13  1  0  0  0  0
 13 14  1  0  0  0  0
 14 15  1  1  0  0  0
 14 16  1  0  0  0  0
 18 17  1  1  0  0  0
 18 16  1  0  0  0  0
 18 21  1  0  0  0  0
 20 21  2  0  0  0  0
 21 19  1  0  0  0  0
 21 22  1  0  0  0  0
 23 24  1  0  0  0  0
 26 32  2  0  0  0  0
 26 33  1  0  0  0  0
 27 34  1  0  0  0  0
 28 31  2  0  0  0  0
 29 28  1  0  0  0  0
 30 27  2  0  0  0  0
 30 28  1  0  0  0  0
 31 25  1  0  0  0  0
 32 30  1  0  0  0  0
 33 35  1  1  0  0  0
 33 29  1  0  0  0  0
 34 24  1  0  0  0  0
 34 25  2  0  0  0  0
 36 32  1  0  0  0  0
 37  9  1  0  0  0  0
 38 37  1  0  0  0  0
 39 38  1  0  0  0  0
 40 39  1  0  0  0  0
 41 43  1  0  0  0  0
 42 43  2  0  0  0  0
 43 44  1  0  0  0  0
 44 40  1  0  0  0  0
M  END
>  <MODEL>
6

>  <REMARK>
 VINA RESULT:      -7.0      3.543      8.553
  Name = 
  15 active torsions:
  status: ('A' for Active; 'I' for Inactive)
    1  A    between atoms: C_5  and  C_29
    2  A    between atoms: C_5  and  C_36
    3  A    between atoms: C_6  and  C_24
    4  A    between atoms: C_6  and  C_37
    5  A    between atoms: N_7  and  C_36
    6  A    between atoms: N_19  and  C_23
    7  A    between atoms: N_19  and  C_24
    8  A    between atoms: C_21  and  C_28
    9  A    between atoms: C_21  and  N_41
   10  A    between atoms: C_23  and  C_43
   11  A    between atoms: C_28  and  C_33
   12  A    between atoms: C_32  and  N_41
   13  A    between atoms: C_33  and  N_42
   14  A    between atoms: P_35  and  C_44
   15  A    between atoms: C_43  and  C_44
                            x       y       z     vdW  Elec       q    Type
                         _______ _______ _______ _____ _____    ______ ____

>  <TORSDO>
F 15

$$$$
=
 OpenBabel11042421483D

 44 47  0  0  1  0  0  0  0  0999 V2000
  161.9650  209.7810  152.3150 C   0  0  0  0  0  3  0  0  0  0  0  0
  160.8290  205.7510  152.4460 N   0  0  0  0  0  0  0  0  0  0  0  0
  162.0750  210.4360  151.0850 C   0  0  0  0  0  3  0  0  0  0  0  0
  161.7230  208.3380  149.9290 C   0  0  0  0  0  3  0  0  0  0  0  0
  161.4210  206.1860  151.1810 C   0  0  0  0  0  2  0  0  0  0  0  0
  161.5950  207.6790  151.1550 C   0  0  0  0  0  0  0  0  0  0  0  0
  161.7010  206.1960  153.5300 C   0  0  0  0  0  2  0  0  0  0  0  0
  161.7340  208.4020  152.3600 C   0  0  0  0  0  0  0  0  0  0  0  0
  161.9560  209.7210  149.8890 C   0  0  0  0  0  0  0  0  0  0  0  0
  161.5840  207.7160  153.6930 C   0  0  1  0  0  3  0  0  0  0  0  0
  160.2380  208.0690  154.3120 C   0  0  0  0  0  2  0  0  0  0  0  0
  160.4250  208.5530  155.7360 C   0  0  0  0  0  2  0  0  0  0  0  0
  159.5410  209.6860  155.9840 N   0  0  0  0  0  2  0  0  0  0  0  0
  160.2960  210.9400  155.9210 C   0  0  2  0  0  3  0  0  0  0  0  0
  160.0500  211.7170  157.0560 O   0  0  0  0  0  1  0  0  0  0  0  0
  159.9880  211.7420  154.6510 C   0  0  0  0  0  2  0  0  0  0  0  0
  158.6470  211.0630  152.7590 O   0  0  0  0  0  1  0  0  0  0  0  0
  158.5890  211.4970  154.0850 C   0  0  2  0  0  3  0  0  0  0  0  0
  157.7310  213.9450  152.8600 O   0  0  0  0  0  0  0  0  0  0  0  0
  157.9040  213.7450  155.4600 O   0  0  0  0  0  1  0  0  0  0  0  0
  157.5230  212.9660  154.2220 P   0  0  0  0  0  0  0  0  0  0  0  0
  155.9020  212.4930  154.3340 O   0  0  0  0  0  1  0  0  0  0  0  0
  160.8370  204.3010  152.4630 C   0  0  0  0  0  2  0  0  0  0  0  0
  161.9240  203.7910  151.5340 C   0  0  0  0  0  2  0  0  0  0  0  0
  160.3710  202.1220  150.5010 C   0  0  0  0  0  3  0  0  0  0  0  0
  161.1170  202.6360  145.5430 N   0  0  0  0  0  0  0  0  0  0  0  0
  161.6870  203.5560  149.0590 C   0  0  0  0  0  3  0  0  0  0  0  0
  160.1770  201.9180  148.0960 C   0  0  0  0  0  0  0  0  0  0  0  0
  159.5120  201.3180  146.8930 C   0  0  0  0  0  2  0  0  0  0  0  0
  161.1190  202.9490  147.9320 C   0  0  0  0  0  0  0  0  0  0  0  0
  159.7960  201.5170  149.3800 C   0  0  0  0  0  3  0  0  0  0  0  0
  161.4830  203.3620  146.5600 C   0  0  0  0  0  0  0  0  0  0  0  0
  160.4560  201.3350  145.6850 C   0  0  2  0  0  3  0  0  0  0  0  0
  161.3210  203.1370  150.3420 C   0  0  0  0  0  0  0  0  0  0  0  0
  161.4180  200.3350  145.8300 O   0  0  0  0  0  1  0  0  0  0  0  0
  162.1990  204.6440  146.3100 C   0  0  0  0  0  1  0  0  0  0  0  0
  162.0810  210.4170  148.6480 N   0  0  0  0  0  2  0  0  0  0  0  0
  161.8050  211.8380  148.5050 C   0  0  0  0  0  2  0  0  0  0  0  0
  163.0010  212.5210  147.8730 C   0  0  0  0  0  2  0  0  0  0  0  0
  162.5250  213.5480  146.8680 C   0  0  0  0  0  2  0  0  0  0  0  0
  159.6100  212.4560  144.5730 C   0  0  0  0  0  1  0  0  0  0  0  0
  161.8830  213.0050  144.1500 O   0  0  0  0  0  0  0  0  0  0  0  0
  160.9640  212.8870  145.0040 C   0  0  0  0  0  0  0  0  0  0  0  0
  161.2080  213.1730  146.3820 N   0  0  0  0  0  2  0  0  0  0  0  0
  1  8  1  0  0  0  0
  2 23  1  0  0  0  0
  2  7  1  0  0  0  0
  3  1  2  0  0  0  0
  4  6  1  0  0  0  0
  5  2  1  0  0  0  0
  6  5  1  0  0  0  0
  6  8  2  0  0  0  0
  7 10  1  0  0  0  0
  8 10  1  0  0  0  0
  9  4  2  0  0  0  0
  9  3  1  0  0  0  0
 10 11  1  6  0  0  0
 11 12  1  0  0  0  0
 12 13  1  0  0  0  0
 14 13  1  0  0  0  0
 14 15  1  1  0  0  0
 16 14  1  0  0  0  0
 18 17  1  6  0  0  0
 18 21  1  0  0  0  0
 18 16  1  0  0  0  0
 19 21  2  0  0  0  0
 21 22  1  0  0  0  0
 21 20  1  0  0  0  0
 24 23  1  0  0  0  0
 26 33  1  0  0  0  0
 26 32  2  0  0  0  0
 27 34  2  0  0  0  0
 28 31  1  0  0  0  0
 29 28  1  0  0  0  0
 30 28  2  0  0  0  0
 30 27  1  0  0  0  0
 31 25  2  0  0  0  0
 32 30  1  0  0  0  0
 33 35  1  1  0  0  0
 33 29  1  0  0  0  0
 34 25  1  0  0  0  0
 34 24  1  0  0  0  0
 36 32  1  0  0  0  0
 37  9  1  0  0  0  0
 38 37  1  0  0  0  0
 39 38  1  0  0  0  0
 40 39  1  0  0  0  0
 41 43  1  0  0  0  0
 42 43  2  0  0  0  0
 43 44  1  0  0  0  0
 44 40  1  0  0  0  0
M  END
>  <MODEL>
7

>  <REMARK>
 VINA RESULT:      -7.0      2.841      8.746
  Name = 
  15 active torsions:
  status: ('A' for Active; 'I' for Inactive)
    1  A    between atoms: C_5  and  C_29
    2  A    between atoms: C_5  and  C_36
    3  A    between atoms: C_6  and  C_24
    4  A    between atoms: C_6  and  C_37
    5  A    between atoms: N_7  and  C_36
    6  A    between atoms: N_19  and  C_23
    7  A    between atoms: N_19  and  C_24
    8  A    between atoms: C_21  and  C_28
    9  A    between atoms: C_21  and  N_41
   10  A    between atoms: C_23  and  C_43
   11  A    between atoms: C_28  and  C_33
   12  A    between atoms: C_32  and  N_41
   13  A    between atoms: C_33  and  N_42
   14  A    between atoms: P_35  and  C_44
   15  A    between atoms: C_43  and  C_44
                            x       y       z     vdW  Elec       q    Type
                         _______ _______ _______ _____ _____    ______ ____

>  <TORSDO>
F 15

$$$$
=
 OpenBabel11042421483D

 44 47  0  0  1  0  0  0  0  0999 V2000
  162.2200  209.5620  152.4940 C   0  0  0  0  0  3  0  0  0  0  0  0
  160.5210  205.7430  152.2020 N   0  0  0  0  0  0  0  0  0  0  0  0
  162.3370  210.3630  151.3560 C   0  0  0  0  0  3  0  0  0  0  0  0
  161.6010  208.5170  149.9720 C   0  0  0  0  0  3  0  0  0  0  0  0
  161.0780  206.2690  150.9560 C   0  0  0  0  0  2  0  0  0  0  0  0
  161.4660  207.7140  151.1090 C   0  0  0  0  0  0  0  0  0  0  0  0
  161.5220  205.9090  153.2510 C   0  0  0  0  0  2  0  0  0  0  0  0
  161.7940  208.2340  152.3800 C   0  0  0  0  0  0  0  0  0  0  0  0
  162.0300  209.8480  150.0930 C   0  0  0  0  0  0  0  0  0  0  0  0
  161.6400  207.3920  153.6210 C   0  0  1  0  0  3  0  0  0  0  0  0
  160.4070  207.8320  154.3990 C   0  0  0  0  0  2  0  0  0  0  0  0
  160.7890  208.2200  155.8130 C   0  0  0  0  0  2  0  0  0  0  0  0
  161.5020  209.4920  155.7930 N   0  0  0  0  0  2  0  0  0  0  0  0
  160.5760  210.5950  156.0600 C   0  0  2  0  0  3  0  0  0  0  0  0
  159.3560  210.1070  156.5350 O   0  0  0  0  0  1  0  0  0  0  0  0
  160.3510  211.4780  154.8270 C   0  0  0  0  0  2  0  0  0  0  0  0
  159.0720  210.9600  152.8430 O   0  0  0  0  0  1  0  0  0  0  0  0
  158.9710  211.3160  154.1890 C   0  0  2  0  0  3  0  0  0  0  0  0
  158.8430  214.0170  155.1490 O   0  0  0  0  0  1  0  0  0  0  0  0
  156.7280  212.4810  155.2000 O   0  0  0  0  0  1  0  0  0  0  0  0
  157.9480  212.8110  154.3720 P   0  0  0  0  0  0  0  0  0  0  0  0
  157.4590  213.3630  152.8480 O   0  0  0  0  0  0  0  0  0  0  0  0
  160.3190  204.3180  152.0280 C   0  0  0  0  0  2  0  0  0  0  0  0
  161.5780  203.6950  151.4560 C   0  0  0  0  0  2  0  0  0  0  0  0
  161.2970  202.1170  149.5340 C   0  0  0  0  0  3  0  0  0  0  0  0
  161.1830  205.1080  145.4790 N   0  0  0  0  0  0  0  0  0  0  0  0
  161.3430  204.5000  149.1040 C   0  0  0  0  0  3  0  0  0  0  0  0
  161.0810  202.9370  147.2660 C   0  0  0  0  0  0  0  0  0  0  0  0
  160.8310  202.6790  145.8090 C   0  0  0  0  0  2  0  0  0  0  0  0
  161.1800  204.2600  147.7330 C   0  0  0  0  0  0  0  0  0  0  0  0
  161.1270  201.8710  148.1680 C   0  0  0  0  0  3  0  0  0  0  0  0
  161.1060  205.3640  146.7530 C   0  0  0  0  0  0  0  0  0  0  0  0
  161.4700  203.7730  144.9460 C   0  0  2  0  0  3  0  0  0  0  0  0
  161.4110  203.4310  150.0020 C   0  0  0  0  0  0  0  0  0  0  0  0
  162.8500  203.5780  144.8900 O   0  0  0  0  0  1  0  0  0  0  0  0
  160.8670  206.7660  147.1950 C   0  0  0  0  0  1  0  0  0  0  0  0
  162.1660  210.6900  148.9470 N   0  0  0  0  0  2  0  0  0  0  0  0
  161.4690  211.9590  148.8070 C   0  0  0  0  0  2  0  0  0  0  0  0
  161.5220  212.4040  147.3610 C   0  0  0  0  0  2  0  0  0  0  0  0
  160.1150  212.6040  146.8400 C   0  0  0  0  0  2  0  0  0  0  0  0
  157.0030  213.3540  149.0110 C   0  0  0  0  0  1  0  0  0  0  0  0
  157.2710  212.5500  146.7910 O   0  0  0  0  0  0  0  0  0  0  0  0
  157.8310  212.9510  147.8450 C   0  0  0  0  0  0  0  0  0  0  0  0
  159.2540  213.0330  147.9290 N   0  0  0  0  0  2  0  0  0  0  0  0
  2  7  1  0  0  0  0
  3  1  2  0  0  0  0
  4  9  2  0  0  0  0
  4  6  1  0  0  0  0
  5  6  1  0  0  0  0
  5  2  1  0  0  0  0
  6  8  2  0  0  0  0
  7 10  1  0  0  0  0
  8  1  1  0  0  0  0
  8 10  1  0  0  0  0
  9  3  1  0  0  0  0
 10 11  1  6  0  0  0
 11 12  1  0  0  0  0
 13 12  1  0  0  0  0
 13 14  1  0  0  0  0
 14 15  1  6  0  0  0
 16 14  1  0  0  0  0
 18 17  1  6  0  0  0
 18 21  1  0  0  0  0
 18 16  1  0  0  0  0
 21 19  1  0  0  0  0
 21 20  1  0  0  0  0
 22 21  2  0  0  0  0
 23  2  1  0  0  0  0
 24 23  1  0  0  0  0
 25 34  1  0  0  0  0
 26 32  2  0  0  0  0
 27 34  2  0  0  0  0
 28 30  2  0  0  0  0
 28 31  1  0  0  0  0
 29 28  1  0  0  0  0
 30 27  1  0  0  0  0
 31 25  2  0  0  0  0
 32 36  1  0  0  0  0
 32 30  1  0  0  0  0
 33 35  1  1  0  0  0
 33 26  1  0  0  0  0
 33 29  1  0  0  0  0
 34 24  1  0  0  0  0
 37  9  1  0  0  0  0
 38 37  1  0  0  0  0
 39 38  1  0  0  0  0
 40 39  1  0  0  0  0
 40 44  1  0  0  0  0
 42 43  2  0  0  0  0
 43 44  1  0  0  0  0
 43 41  1  0  0  0  0
M  END
>  <MODEL>
8

>  <REMARK>
 VINA RESULT:      -6.6      2.724      8.461
  Name = 
  15 active torsions:
  status: ('A' for Active; 'I' for Inactive)
    1  A    between atoms: C_5  and  C_29
    2  A    between atoms: C_5  and  C_36
    3  A    between atoms: C_6  and  C_24
    4  A    between atoms: C_6  and  C_37
    5  A    between atoms: N_7  and  C_36
    6  A    between atoms: N_19  and  C_23
    7  A    between atoms: N_19  and  C_24
    8  A    between atoms: C_21  and  C_28
    9  A    between atoms: C_21  and  N_41
   10  A    between atoms: C_23  and  C_43
   11  A    between atoms: C_28  and  C_33
   12  A    between atoms: C_32  and  N_41
   13  A    between atoms: C_33  and  N_42
   14  A    between atoms: P_35  and  C_44
   15  A    between atoms: C_43  and  C_44
                            x       y       z     vdW  Elec       q    Type
                         _______ _______ _______ _____ _____    ______ ____

>  <TORSDO>
F 15

$$$$
=
 OpenBabel11042421483D

 44 47  0  0  1  0  0  0  0  0999 V2000
  161.8930  206.3320  151.0810 C   0  0  0  0  0  3  0  0  0  0  0  0
  161.4610  210.2850  149.7610 N   0  0  0  0  0  0  0  0  0  0  0  0
  161.5020  205.9820  152.3750 C   0  0  0  0  0  3  0  0  0  0  0  0
  161.1050  208.3140  152.8930 C   0  0  0  0  0  3  0  0  0  0  0  0
  161.5420  210.1230  151.2120 C   0  0  0  0  0  2  0  0  0  0  0  0
  161.4780  208.6700  151.5940 C   0  0  0  0  0  0  0  0  0  0  0  0
  162.5610  209.5360  149.1600 C   0  0  0  0  0  2  0  0  0  0  0  0
  161.8920  207.6740  150.6830 C   0  0  0  0  0  0  0  0  0  0  0  0
  161.1080  206.9660  153.2870 C   0  0  0  0  0  0  0  0  0  0  0  0
  162.2830  208.0330  149.2730 C   0  0  1  0  0  3  0  0  0  0  0  0
  161.1730  207.6370  148.3080 C   0  0  0  0  0  2  0  0  0  0  0  0
  161.7450  206.8570  147.1410 C   0  0  0  0  0  2  0  0  0  0  0  0
  162.8710  206.0530  147.5990 N   0  0  0  0  0  2  0  0  0  0  0  0
  162.7040  204.6600  147.1770 C   0  0  2  0  0  3  0  0  0  0  0  0
  162.9850  204.5240  145.8150 O   0  0  0  0  0  1  0  0  0  0  0  0
  161.3020  204.1220  147.4870 C   0  0  0  0  0  2  0  0  0  0  0  0
  160.4580  202.0650  146.5400 O   0  0  0  0  0  1  0  0  0  0  0  0
  161.2270  202.5970  147.5770 C   0  0  2  0  0  3  0  0  0  0  0  0
  160.5130  203.3420  150.2540 O   0  0  0  0  0  1  0  0  0  0  0  0
  161.5270  200.9850  149.7500 O   0  0  0  0  0  1  0  0  0  0  0  0
  160.5940  202.0320  149.1870 P   0  0  0  0  0  0  0  0  0  0  0  0
  159.0500  201.3650  148.9970 O   0  0  0  0  0  0  0  0  0  0  0  0
  161.6860  211.6860  149.4590 C   0  0  0  0  0  2  0  0  0  0  0  0
  162.4940  211.8030  148.1810 C   0  0  0  0  0  2  0  0  0  0  0  0
  160.2960  212.5640  147.2580 C   0  0  0  0  0  3  0  0  0  0  0  0
  161.4370  214.4530  142.7270 N   0  0  0  0  0  0  0  0  0  0  0  0
  162.3100  212.9490  145.9690 C   0  0  0  0  0  3  0  0  0  0  0  0
  160.1570  213.6640  145.1050 C   0  0  0  0  0  0  0  0  0  0  0  0
  159.3520  214.3820  144.0630 C   0  0  0  0  0  2  0  0  0  0  0  0
  161.5520  213.5590  144.9610 C   0  0  0  0  0  0  0  0  0  0  0  0
  159.5350  213.1780  146.2580 C   0  0  0  0  0  3  0  0  0  0  0  0
  162.1790  214.1020  143.7380 C   0  0  0  0  0  0  0  0  0  0  0  0
  159.9900  214.2220  142.6780 C   0  0  2  0  0  3  0  0  0  0  0  0
  161.6820  212.4440  147.1120 C   0  0  0  0  0  0  0  0  0  0  0  0
  159.7370  212.9390  142.1930 O   0  0  0  0  0  1  0  0  0  0  0  0
  163.6500  214.3290  143.6660 C   0  0  0  0  0  1  0  0  0  0  0  0
  160.7220  206.5770  154.6060 N   0  0  0  0  0  2  0  0  0  0  0  0
  160.1570  207.5060  155.5730 C   0  0  0  0  0  2  0  0  0  0  0  0
  161.2770  208.1670  156.3480 C   0  0  0  0  0  2  0  0  0  0  0  0
  160.7040  209.2350  157.2550 C   0  0  0  0  0  2  0  0  0  0  0  0
  159.9350  211.9750  154.6360 C   0  0  0  0  0  1  0  0  0  0  0  0
  161.9410  210.8870  155.2970 O   0  0  0  0  0  0  0  0  0  0  0  0
  160.6980  211.0080  155.4650 C   0  0  0  0  0  0  0  0  0  0  0  0
  160.0170  210.2330  156.4520 N   0  0  0  0  0  2  0  0  0  0  0  0
  1  3  1  0  0  0  0
  2  5  1  0  0  0  0
  3  9  2  0  0  0  0
  4  9  1  0  0  0  0
  5  6  1  0  0  0  0
  6  4  2  0  0  0  0
  7 10  1  0  0  0  0
  7  2  1  0  0  0  0
  8  1  2  0  0  0  0
  8  6  1  0  0  0  0
  9 37  1  0  0  0  0
 10 11  1  6  0  0  0
 10  8  1  0  0  0  0
 12 13  1  0  0  0  0
 12 11  1  0  0  0  0
 14 15  1  6  0  0  0
 14 16  1  0  0  0  0
 14 13  1  0  0  0  0
 16 18  1  0  0  0  0
 18 17  1  6  0  0  0
 18 21  1  0  0  0  0
 21 20  1  0  0  0  0
 21 19  1  0  0  0  0
 22 21  2  0  0  0  0
 23  2  1  0  0  0  0
 24 23  1  0  0  0  0
 26 32  2  0  0  0  0
 27 34  2  0  0  0  0
 28 31  1  0  0  0  0
 29 28  1  0  0  0  0
 30 28  2  0  0  0  0
 30 27  1  0  0  0  0
 31 25  2  0  0  0  0
 32 30  1  0  0  0  0
 33 35  1  1  0  0  0
 33 26  1  0  0  0  0
 33 29  1  0  0  0  0
 34 25  1  0  0  0  0
 34 24  1  0  0  0  0
 36 32  1  0  0  0  0
 37 38  1  0  0  0  0
 38 39  1  0  0  0  0
 39 40  1  0  0  0  0
 41 43  1  0  0  0  0
 42 43  2  0  0  0  0
 43 44  1  0  0  0  0
 44 40  1  0  0  0  0
M  END
>  <MODEL>
9

>  <REMARK>
 VINA RESULT:      -6.6      2.276      7.822
  Name = 
  15 active torsions:
  status: ('A' for Active; 'I' for Inactive)
    1  A    between atoms: C_5  and  C_29
    2  A    between atoms: C_5  and  C_36
    3  A    between atoms: C_6  and  C_24
    4  A    between atoms: C_6  and  C_37
    5  A    between atoms: N_7  and  C_36
    6  A    between atoms: N_19  and  C_23
    7  A    between atoms: N_19  and  C_24
    8  A    between atoms: C_21  and  C_28
    9  A    between atoms: C_21  and  N_41
   10  A    between atoms: C_23  and  C_43
   11  A    between atoms: C_28  and  C_33
   12  A    between atoms: C_32  and  N_41
   13  A    between atoms: C_33  and  N_42
   14  A    between atoms: P_35  and  C_44
   15  A    between atoms: C_43  and  C_44
                            x       y       z     vdW  Elec       q    Type
                         _______ _______ _______ _____ _____    ______ ____

>  <TORSDO>
F 15

$$$$
