=
 OpenBabel11042422553D

 62 66  0  0  1  0  0  0  0  0999 V2000
  161.9430  206.1570  147.7560 C   0  0  0  0  0  0  0  0  0  0  0  0
  161.7560  204.0460  149.2850 C   0  0  0  0  0  3  0  0  0  0  0  0
  161.8370  205.0940  148.5060 C   0  0  0  0  0  0  0  0  0  0  0  0
  160.7350  207.6040  146.1240 C   0  0  0  0  0  1  0  0  0  0  0  0
  161.2340  206.2000  146.4350 C   0  0  1  0  0  3  0  0  0  0  0  0
  162.0890  205.6730  145.3180 C   0  0  0  0  0  0  0  0  0  0  0  0
  163.2930  205.5230  145.4760 O   0  0  0  0  0  0  0  0  0  0  0  0
  161.4960  205.4020  143.9720 C   0  0  1  0  0  3  0  0  0  0  0  0
  160.1160  205.2280  144.0710 O   0  0  0  0  0  1  0  0  0  0  0  0
  161.8150  206.5530  143.0310 C   0  0  0  0  0  2  0  0  0  0  0  0
  161.6780  206.1430  141.5680 C   0  0  0  0  0  2  0  0  0  0  0  0
  161.1320  212.1900  139.9630 C   0  0  1  0  0  3  0  0  0  0  0  0
  162.1220  208.3170  138.4550 C   0  0  0  0  0  0  0  0  0  0  0  0
  161.8010  210.8590  138.1620 C   0  0  2  0  0  3  0  0  0  0  0  0
  161.2390  209.7080  140.2840 C   0  0  1  0  0  3  0  0  0  0  0  0
  161.9970  207.1460  139.3360 C   0  0  0  0  0  3  0  0  0  0  0  0
  162.2600  208.1510  137.2150 O   0  0  0  0  0  0  0  0  0  0  0  0
  161.2850  211.0540  141.0060 C   0  0  0  0  0  0  0  0  0  0  0  0
  161.9740  212.1030  138.8240 O   0  0  0  0  0  0  0  0  0  0  0  0
  160.1810  211.1220  142.0490 C   0  0  0  0  0  1  0  0  0  0  0  0
  162.6180  211.2300  141.7190 C   0  0  0  0  0  1  0  0  0  0  0  0
  161.7180  207.3150  140.6360 C   0  0  0  0  0  0  0  0  0  0  0  0
  162.1850  209.6910  139.0830 C   0  0  1  0  0  3  0  0  0  0  0  0
  162.5990  210.8500  137.0140 O   0  0  0  0  0  1  0  0  0  0  0  0
  161.4990  208.6020  141.1510 O   0  0  0  0  0  0  0  0  0  0  0  0
  159.7280  214.0050  140.0990 C   0  0  0  0  0  1  0  0  0  0  0  0
  159.8300  212.6680  139.6860 O   0  0  0  0  0  0  0  0  0  0  0  0
  162.6650  207.3590  148.2820 C   0  0  0  0  0  2  0  0  0  0  0  0
  161.6830  208.3850  148.8360 C   0  0  0  0  0  2  0  0  0  0  0  0
  162.1220  208.8370  150.2170 C   0  0  0  0  0  2  0  0  0  0  0  0
  161.8760  210.3270  150.3900 C   0  0  0  0  0  2  0  0  0  0  0  0
  160.8310  212.8650  149.5960 O   0  0  0  0  0  0  0  0  0  0  0  0
  162.2300  211.0420  149.1710 N   0  0  0  0  0  2  0  0  0  0  0  0
  161.6770  212.3200  148.8380 C   0  0  0  0  0  0  0  0  0  0  0  0
  162.8720  213.9850  147.6630 O   0  0  0  0  0  1  0  0  0  0  0  0
  161.6580  212.5410  146.3710 O   0  0  0  0  0  0  0  0  0  0  0  0
  162.0980  212.9970  147.6070 C   0  0  0  0  0  0  0  0  0  0  0  0
  161.6180  204.1350  150.7830 C   0  0  2  0  0  3  0  0  0  0  0  0
  160.6080  203.0150  152.6570 O   0  0  0  0  0  1  0  0  0  0  0  0
  161.0140  202.8390  151.3300 C   0  0  1  0  0  3  0  0  0  0  0  0
  159.8650  202.3390  150.4920 C   0  0  0  0  0  3  0  0  0  0  0  0
  159.9850  201.3400  149.6080 C   0  0  0  0  0  3  0  0  0  0  0  0
  161.2740  200.6140  149.3670 C   0  0  0  0  0  2  0  0  0  0  0  0
  161.5920  200.6070  147.8830 C   0  0  0  0  0  2  0  0  0  0  0  0
  160.8320  201.3170  145.6310 C   0  0  0  0  0  0  0  0  0  0  0  0
  160.8270  202.5140  146.5970 C   0  0  0  0  0  2  0  0  0  0  0  0
  159.6680  200.7370  145.1210 O   0  0  0  0  0  0  0  0  0  0  0  0
  160.4340  201.2090  147.1160 C   0  0  2  0  0  3  0  0  0  0  0  0
  160.0350  201.9070  144.6500 O   0  0  0  0  0  0  0  0  0  0  0  0
  160.8660  205.3870  151.2530 C   0  0  0  0  0  2  0  0  0  0  0  0
  161.2010  205.7230  152.6930 C   0  0  0  0  0  2  0  0  0  0  0  0
  161.2030  207.2320  152.8770 C   0  0  0  0  0  2  0  0  0  0  0  0
  161.4140  207.6220  154.3360 C   0  0  0  0  0  2  0  0  0  0  0  0
  160.1420  207.4450  155.1480 C   0  0  0  0  0  2  0  0  0  0  0  0
  159.9890  208.5920  156.1320 C   0  0  0  0  0  2  0  0  0  0  0  0
  160.4790  209.7990  155.5560 O   0  0  0  0  0  0  0  0  0  0  0  0
  158.0270  212.6020  153.6110 C   0  0  0  0  0  3  0  0  0  0  0  0
  157.5160  211.8680  154.6860 C   0  0  0  0  0  3  0  0  0  0  0  0
  159.3480  212.4080  153.1970 C   0  0  0  0  0  3  0  0  0  0  0  0
  159.6500  210.7320  154.9240 C   0  0  0  0  0  0  0  0  0  0  0  0
  158.3240  210.9370  155.3420 C   0  0  0  0  0  3  0  0  0  0  0  0
  160.1570  211.4770  153.8540 C   0  0  0  0  0  3  0  0  0  0  0  0
  1 28  1  0  0  0  0
  1  3  2  0  0  0  0
  3  2  2  0  0  0  0
  5  4  1  6  0  0  0
  5  1  1  0  0  0  0
  6  7  2  0  0  0  0
  6  5  1  0  0  0  0
  8  9  1  1  0  0  0
  8  6  1  0  0  0  0
 10  8  1  0  0  0  0
 11 10  1  0  0  0  0
 12 27  1  6  0  0  0
 12 18  1  0  0  0  0
 13 16  1  0  0  0  0
 14 24  1  6  0  0  0
 14 19  1  0  0  0  0
 14 23  1  0  0  0  0
 15 18  1  0  0  0  0
 15 25  1  1  0  0  0
 16 22  2  0  0  0  0
 17 13  2  0  0  0  0
 18 21  1  0  0  0  0
 18 20  1  0  0  0  0
 19 12  1  0  0  0  0
 22 25  1  0  0  0  0
 22 11  1  0  0  0  0
 23 13  1  6  0  0  0
 23 15  1  0  0  0  0
 27 26  1  0  0  0  0
 28 29  1  0  0  0  0
 29 30  1  0  0  0  0
 30 31  1  0  0  0  0
 33 31  1  0  0  0  0
 34 33  1  0  0  0  0
 34 32  2  0  0  0  0
 36 37  2  0  0  0  0
 37 35  1  0  0  0  0
 37 34  1  0  0  0  0
 38  2  1  6  0  0  0
 38 50  1  0  0  0  0
 38 40  1  0  0  0  0
 40 39  1  1  0  0  0
 41 40  1  0  0  0  0
 42 41  2  0  0  0  0
 43 42  1  0  0  0  0
 44 43  1  0  0  0  0
 45 46  1  0  0  0  0
 45 48  1  0  0  0  0
 46 48  1  0  0  0  0
 47 45  1  0  0  0  0
 48 44  1  1  0  0  0
 49 47  1  0  0  0  0
 49 45  1  0  0  0  0
 50 51  1  0  0  0  0
 51 52  1  0  0  0  0
 52 53  1  0  0  0  0
 53 54  1  0  0  0  0
 54 55  1  0  0  0  0
 56 55  1  0  0  0  0
 57 58  1  0  0  0  0
 58 61  2  0  0  0  0
 59 57  2  0  0  0  0
 59 62  1  0  0  0  0
 60 61  1  0  0  0  0
 60 56  1  0  0  0  0
 62 60  2  0  0  0  0
M  END
>  <MODEL>
1

>  <REMARK>
 VINA RESULT:      -4.0      0.000      0.000
  Name = 
  27 active torsions:
  status: ('A' for Active; 'I' for Inactive)
    1  A    between atoms: C_2  and  O_51
    2  A    between atoms: C_3  and  C_13
    3  A    between atoms: C_3  and  C_16
    4  A    between atoms: C_5  and  C_62
    5  A    between atoms: C_6  and  C_21
    6  A    between atoms: C_6  and  C_53
    7  A    between atoms: O_7  and  C_27
    8  A    between atoms: O_7  and  C_35
    9  A    between atoms: C_9  and  C_12
   10  A    between atoms: C_9  and  C_36
   11  A    between atoms: C_12  and  C_45
   12  A    between atoms: C_12  and  C_62
   13  A    between atoms: C_13  and  C_40
   14  A    between atoms: C_15  and  C_21
   15  A    between atoms: C_15  and  C_30
   16  A    between atoms: C_16  and  C_28
   17  A    between atoms: C_24  and  C_50
   18  A    between atoms: C_24  and  C_54
   19  A    between atoms: C_27  and  C_50
   20  A    between atoms: C_28  and  C_53
   21  A    between atoms: C_30  and  C_47
   22  A    between atoms: N_31  and  C_40
   23  A    between atoms: C_34  and  C_57
   24  A    between atoms: C_36  and  C_54
   25  A    between atoms: C_41  and  C_44
   26  A    between atoms: C_49  and  C_55
   27  A    between atoms: C_49  and  C_57
                            x       y       z     vdW  Elec       q    Type
                         _______ _______ _______ _____ _____    ______ ____

>  <TORSDO>
F 27

$$$$
=
 OpenBabel11042422553D

 62 66  0  0  1  0  0  0  0  0999 V2000
  161.9230  206.9130  147.8450 C   0  0  0  0  0  0  0  0  0  0  0  0
  161.9310  205.5890  150.0980 C   0  0  0  0  0  3  0  0  0  0  0  0
  161.9330  206.2350  148.9610 C   0  0  0  0  0  0  0  0  0  0  0  0
  163.1030  204.9580  146.8450 C   0  0  0  0  0  1  0  0  0  0  0  0
  162.3310  206.2390  146.5700 C   0  0  1  0  0  3  0  0  0  0  0  0
  161.1560  205.9770  145.6690 C   0  0  0  0  0  0  0  0  0  0  0  0
  160.0160  206.1770  146.0630 O   0  0  0  0  0  0  0  0  0  0  0  0
  161.3600  205.3900  144.3090 C   0  0  1  0  0  3  0  0  0  0  0  0
  160.4970  204.3140  144.1050 O   0  0  0  0  0  1  0  0  0  0  0  0
  161.1300  206.4570  143.2510 C   0  0  0  0  0  2  0  0  0  0  0  0
  161.9970  206.2290  142.0180 C   0  0  0  0  0  2  0  0  0  0  0  0
  160.8570  212.0710  140.0140 C   0  0  1  0  0  3  0  0  0  0  0  0
  161.9000  208.1390  138.7080 C   0  0  0  0  0  0  0  0  0  0  0  0
  161.3790  210.6240  138.2540 C   0  0  2  0  0  3  0  0  0  0  0  0
  161.1670  209.6370  140.5180 C   0  0  1  0  0  3  0  0  0  0  0  0
  161.9650  207.0460  139.6890 C   0  0  0  0  0  3  0  0  0  0  0  0
  161.8900  207.8720  137.4770 O   0  0  0  0  0  0  0  0  0  0  0  0
  161.2150  211.0420  141.1160 C   0  0  0  0  0  0  0  0  0  0  0  0
  161.5530  211.9290  138.7850 O   0  0  0  0  0  0  0  0  0  0  0  0
  160.2510  211.1420  142.2870 C   0  0  0  0  0  1  0  0  0  0  0  0
  162.6140  211.3530  141.6300 C   0  0  0  0  0  1  0  0  0  0  0  0
  161.8420  207.3140  140.9970 C   0  0  0  0  0  0  0  0  0  0  0  0
  161.9520  209.5650  139.2080 C   0  0  1  0  0  3  0  0  0  0  0  0
  162.0240  210.5570  137.0160 O   0  0  0  0  0  1  0  0  0  0  0  0
  161.6060  208.6270  141.4290 O   0  0  0  0  0  0  0  0  0  0  0  0
  159.3710  213.8170  140.1630 C   0  0  0  0  0  1  0  0  0  0  0  0
  159.5020  212.4510  139.8730 O   0  0  0  0  0  0  0  0  0  0  0  0
  161.3850  208.3110  147.8390 C   0  0  0  0  0  2  0  0  0  0  0  0
  162.4090  209.2910  148.3990 C   0  0  0  0  0  2  0  0  0  0  0  0
  162.0100  209.7240  149.7990 C   0  0  0  0  0  2  0  0  0  0  0  0
  161.6680  211.2040  149.8180 C   0  0  0  0  0  2  0  0  0  0  0  0
  160.2140  212.0900  147.5240 O   0  0  0  0  0  0  0  0  0  0  0  0
  162.2450  211.8710  148.6590 N   0  0  0  0  0  2  0  0  0  0  0  0
  161.4560  212.3010  147.5440 C   0  0  0  0  0  0  0  0  0  0  0  0
  163.1760  213.6120  146.5940 O   0  0  0  0  0  1  0  0  0  0  0  0
  161.5270  212.9490  145.1540 O   0  0  0  0  0  0  0  0  0  0  0  0
  162.0980  212.9910  146.4200 C   0  0  0  0  0  0  0  0  0  0  0  0
  160.8560  205.7490  151.1410 C   0  0  2  0  0  3  0  0  0  0  0  0
  162.6320  207.0920  152.0500 O   0  0  0  0  0  1  0  0  0  0  0  0
  161.4200  206.4720  152.3670 C   0  0  1  0  0  3  0  0  0  0  0  0
  160.4520  207.4730  152.9440 C   0  0  0  0  0  3  0  0  0  0  0  0
  160.5870  208.0000  154.1680 C   0  0  0  0  0  3  0  0  0  0  0  0
  161.7190  207.6520  155.0850 C   0  0  0  0  0  2  0  0  0  0  0  0
  161.7860  208.6530  156.2250 C   0  0  0  0  0  2  0  0  0  0  0  0
  161.2190  211.0510  155.9400 C   0  0  0  0  0  0  0  0  0  0  0  0
  160.6360  210.5190  157.2600 C   0  0  0  0  0  2  0  0  0  0  0  0
  160.4320  211.4110  154.8430 O   0  0  0  0  0  0  0  0  0  0  0  0
  160.6380  209.6320  156.1020 C   0  0  2  0  0  3  0  0  0  0  0  0
  160.4460  212.2100  155.8850 O   0  0  0  0  0  0  0  0  0  0  0  0
  160.1510  204.4340  151.4980 C   0  0  0  0  0  2  0  0  0  0  0  0
  160.9260  203.6590  152.5460 C   0  0  0  0  0  2  0  0  0  0  0  0
  161.6430  202.4900  151.8890 C   0  0  0  0  0  2  0  0  0  0  0  0
  160.7000  201.6720  151.0130 C   0  0  0  0  0  2  0  0  0  0  0  0
  161.2780  201.4600  149.6230 C   0  0  0  0  0  2  0  0  0  0  0  0
  160.6490  202.4360  148.6450 C   0  0  0  0  0  2  0  0  0  0  0  0
  161.2580  202.3080  147.3640 O   0  0  0  0  0  0  0  0  0  0  0  0
  160.4920  199.1050  144.7540 C   0  0  0  0  0  3  0  0  0  0  0  0
  161.3850  198.9310  145.8160 C   0  0  0  0  0  3  0  0  0  0  0  0
  159.8530  200.3350  144.5730 C   0  0  0  0  0  3  0  0  0  0  0  0
  161.0110  201.2290  146.5080 C   0  0  0  0  0  0  0  0  0  0  0  0
  161.6450  199.9880  146.6910 C   0  0  0  0  0  3  0  0  0  0  0  0
  160.1120  201.3930  145.4500 C   0  0  0  0  0  3  0  0  0  0  0  0
  1  3  2  0  0  0  0
  3  2  2  0  0  0  0
  5  4  1  1  0  0  0
  5  1  1  0  0  0  0
  6  7  2  0  0  0  0
  6  5  1  0  0  0  0
  8  9  1  6  0  0  0
  8  6  1  0  0  0  0
 10  8  1  0  0  0  0
 11 10  1  0  0  0  0
 12 27  1  6  0  0  0
 12 18  1  0  0  0  0
 13 16  1  0  0  0  0
 14 24  1  6  0  0  0
 14 19  1  0  0  0  0
 14 23  1  0  0  0  0
 15 18  1  0  0  0  0
 15 25  1  1  0  0  0
 16 22  2  0  0  0  0
 17 13  2  0  0  0  0
 18 21  1  0  0  0  0
 18 20  1  0  0  0  0
 19 12  1  0  0  0  0
 22 25  1  0  0  0  0
 22 11  1  0  0  0  0
 23 13  1  6  0  0  0
 23 15  1  0  0  0  0
 27 26  1  0  0  0  0
 28  1  1  0  0  0  0
 28 29  1  0  0  0  0
 29 30  1  0  0  0  0
 30 31  1  0  0  0  0
 32 34  2  0  0  0  0
 33 31  1  0  0  0  0
 34 33  1  0  0  0  0
 36 37  2  0  0  0  0
 37 35  1  0  0  0  0
 37 34  1  0  0  0  0
 38  2  1  6  0  0  0
 38 50  1  0  0  0  0
 38 40  1  0  0  0  0
 40 39  1  6  0  0  0
 40 41  1  0  0  0  0
 41 42  2  0  0  0  0
 42 43  1  0  0  0  0
 43 44  1  0  0  0  0
 45 48  1  0  0  0  0
 45 46  1  0  0  0  0
 47 49  1  0  0  0  0
 47 45  1  0  0  0  0
 48 44  1  1  0  0  0
 48 46  1  0  0  0  0
 49 45  1  0  0  0  0
 50 51  1  0  0  0  0
 52 51  1  0  0  0  0
 53 52  1  0  0  0  0
 54 53  1  0  0  0  0
 55 54  1  0  0  0  0
 56 55  1  0  0  0  0
 57 58  1  0  0  0  0
 58 61  2  0  0  0  0
 59 57  2  0  0  0  0
 59 62  1  0  0  0  0
 60 61  1  0  0  0  0
 60 56  1  0  0  0  0
 62 60  2  0  0  0  0
M  END
>  <MODEL>
2

>  <REMARK>
 VINA RESULT:      -3.6      1.619      6.994
  Name = 
  27 active torsions:
  status: ('A' for Active; 'I' for Inactive)
    1  A    between atoms: C_2  and  O_51
    2  A    between atoms: C_3  and  C_13
    3  A    between atoms: C_3  and  C_16
    4  A    between atoms: C_5  and  C_62
    5  A    between atoms: C_6  and  C_21
    6  A    between atoms: C_6  and  C_53
    7  A    between atoms: O_7  and  C_27
    8  A    between atoms: O_7  and  C_35
    9  A    between atoms: C_9  and  C_12
   10  A    between atoms: C_9  and  C_36
   11  A    between atoms: C_12  and  C_45
   12  A    between atoms: C_12  and  C_62
   13  A    between atoms: C_13  and  C_40
   14  A    between atoms: C_15  and  C_21
   15  A    between atoms: C_15  and  C_30
   16  A    between atoms: C_16  and  C_28
   17  A    between atoms: C_24  and  C_50
   18  A    between atoms: C_24  and  C_54
   19  A    between atoms: C_27  and  C_50
   20  A    between atoms: C_28  and  C_53
   21  A    between atoms: C_30  and  C_47
   22  A    between atoms: N_31  and  C_40
   23  A    between atoms: C_34  and  C_57
   24  A    between atoms: C_36  and  C_54
   25  A    between atoms: C_41  and  C_44
   26  A    between atoms: C_49  and  C_55
   27  A    between atoms: C_49  and  C_57
                            x       y       z     vdW  Elec       q    Type
                         _______ _______ _______ _____ _____    ______ ____

>  <TORSDO>
F 27

$$$$
=
 OpenBabel11042422553D

 62 66  0  0  1  0  0  0  0  0999 V2000
  161.1230  211.8210  150.2200 C   0  0  0  0  0  0  0  0  0  0  0  0
  161.8060  210.5440  152.3960 C   0  0  0  0  0  3  0  0  0  0  0  0
  161.4680  211.1670  151.2960 C   0  0  0  0  0  0  0  0  0  0  0  0
  161.0970  212.1520  147.7490 C   0  0  0  0  0  1  0  0  0  0  0  0
  161.2210  211.1470  148.8840 C   0  0  1  0  0  3  0  0  0  0  0  0
  162.4810  210.3380  148.7510 C   0  0  0  0  0  0  0  0  0  0  0  0
  163.4720  210.8180  148.2180 O   0  0  0  0  0  0  0  0  0  0  0  0
  162.5160  208.9110  149.1940 C   0  0  1  0  0  3  0  0  0  0  0  0
  163.0930  208.8040  150.4590 O   0  0  0  0  0  1  0  0  0  0  0  0
  161.1050  208.3440  149.2090 C   0  0  0  0  0  2  0  0  0  0  0  0
  160.7310  207.7190  147.8700 C   0  0  0  0  0  2  0  0  0  0  0  0
  160.9870  201.9510  145.3990 C   0  0  1  0  0  3  0  0  0  0  0  0
  160.8080  204.0970  149.0890 C   0  0  0  0  0  0  0  0  0  0  0  0
  160.9230  201.9050  147.7350 C   0  0  2  0  0  3  0  0  0  0  0  0
  160.6880  204.1120  146.6310 C   0  0  1  0  0  3  0  0  0  0  0  0
  160.6790  205.5620  149.0670 C   0  0  0  0  0  3  0  0  0  0  0  0
  160.6020  203.4700  150.1620 O   0  0  0  0  0  0  0  0  0  0  0  0
  161.1690  203.4880  145.3220 C   0  0  0  0  0  0  0  0  0  0  0  0
  161.4900  201.3260  146.5700 O   0  0  0  0  0  0  0  0  0  0  0  0
  160.3910  204.0690  144.1530 C   0  0  0  0  0  1  0  0  0  0  0  0
  162.6450  203.7880  145.1010 C   0  0  0  0  0  1  0  0  0  0  0  0
  160.7660  206.2220  147.9040 C   0  0  0  0  0  0  0  0  0  0  0  0
  161.2880  203.3940  147.8400 C   0  0  1  0  0  3  0  0  0  0  0  0
  161.3970  201.2130  148.8540 O   0  0  0  0  0  1  0  0  0  0  0  0
  160.9340  205.5180  146.7020 O   0  0  0  0  0  0  0  0  0  0  0  0
  159.9090  200.0070  144.8160 C   0  0  0  0  0  1  0  0  0  0  0  0
  159.7750  201.4000  144.9230 O   0  0  0  0  0  0  0  0  0  0  0  0
  160.5190  213.1850  150.3510 C   0  0  0  0  0  2  0  0  0  0  0  0
  159.8080  213.5910  149.0650 C   0  0  0  0  0  2  0  0  0  0  0  0
  158.3240  213.7880  149.3270 C   0  0  0  0  0  2  0  0  0  0  0  0
  157.6540  214.4260  148.1220 C   0  0  0  0  0  2  0  0  0  0  0  0
  156.7640  212.9610  145.8360 O   0  0  0  0  0  0  0  0  0  0  0  0
  158.4380  214.1800  146.9190 N   0  0  0  0  0  2  0  0  0  0  0  0
  157.9260  213.4460  145.8010 C   0  0  0  0  0  0  0  0  0  0  0  0
  158.8060  214.1480  143.7240 O   0  0  0  0  0  0  0  0  0  0  0  0
  159.5180  212.1020  144.4600 O   0  0  0  0  0  1  0  0  0  0  0  0
  158.7600  213.2580  144.6090 C   0  0  0  0  0  0  0  0  0  0  0  0
  161.0340  210.6620  153.6840 C   0  0  2  0  0  3  0  0  0  0  0  0
  158.6300  210.7370  153.6720 O   0  0  0  0  0  1  0  0  0  0  0  0
  159.7770  211.5090  153.4650 C   0  0  1  0  0  3  0  0  0  0  0  0
  159.7480  212.7370  154.3380 C   0  0  0  0  0  3  0  0  0  0  0  0
  158.7950  213.6750  154.2510 C   0  0  0  0  0  3  0  0  0  0  0  0
  157.6570  213.5920  153.2800 C   0  0  0  0  0  2  0  0  0  0  0  0
  156.3710  214.0350  153.9550 C   0  0  0  0  0  2  0  0  0  0  0  0
  155.5030  212.5320  155.7280 C   0  0  0  0  0  0  0  0  0  0  0  0
  155.1510  213.9940  156.0490 C   0  0  0  0  0  2  0  0  0  0  0  0
  156.4260  211.7850  156.4620 O   0  0  0  0  0  0  0  0  0  0  0  0
  156.4430  213.7170  155.4340 C   0  0  2  0  0  3  0  0  0  0  0  0
  155.2550  212.0280  157.0040 O   0  0  0  0  0  0  0  0  0  0  0  0
  161.8850  211.1560  154.8620 C   0  0  0  0  0  2  0  0  0  0  0  0
  162.4170  209.9970  155.6820 C   0  0  0  0  0  2  0  0  0  0  0  0
  161.7410  209.9830  157.0440 C   0  0  0  0  0  2  0  0  0  0  0  0
  160.3220  209.4300  156.9630 C   0  0  0  0  0  2  0  0  0  0  0  0
  160.2890  207.9380  157.2520 C   0  0  0  0  0  2  0  0  0  0  0  0
  159.5440  207.2110  156.1460 C   0  0  0  0  0  2  0  0  0  0  0  0
  160.0100  207.6470  154.8720 O   0  0  0  0  0  0  0  0  0  0  0  0
  162.0160  205.0790  152.2200 C   0  0  0  0  0  3  0  0  0  0  0  0
  162.1130  206.4630  152.0460 C   0  0  0  0  0  3  0  0  0  0  0  0
  161.2650  204.5590  153.2780 C   0  0  0  0  0  3  0  0  0  0  0  0
  160.6890  206.8070  153.9830 C   0  0  0  0  0  0  0  0  0  0  0  0
  161.4530  207.3250  152.9230 C   0  0  0  0  0  3  0  0  0  0  0  0
  160.6050  205.4220  154.1580 C   0  0  0  0  0  3  0  0  0  0  0  0
  1 28  1  0  0  0  0
  1  3  2  0  0  0  0
  3  2  2  0  0  0  0
  5  4  1  6  0  0  0
  5  1  1  0  0  0  0
  6  5  1  0  0  0  0
  6  8  1  0  0  0  0
  7  6  2  0  0  0  0
  8 10  1  0  0  0  0
  8  9  1  1  0  0  0
 11 22  1  0  0  0  0
 11 10  1  0  0  0  0
 12 27  1  1  0  0  0
 12 19  1  0  0  0  0
 13 17  2  0  0  0  0
 14 23  1  0  0  0  0
 14 24  1  1  0  0  0
 15 25  1  6  0  0  0
 15 23  1  0  0  0  0
 16 13  1  0  0  0  0
 18 12  1  0  0  0  0
 18 15  1  0  0  0  0
 19 14  1  0  0  0  0
 20 18  1  0  0  0  0
 21 18  1  0  0  0  0
 22 16  2  0  0  0  0
 23 13  1  1  0  0  0
 25 22  1  0  0  0  0
 26 27  1  0  0  0  0
 29 30  1  0  0  0  0
 29 28  1  0  0  0  0
 31 30  1  0  0  0  0
 33 31  1  0  0  0  0
 34 32  2  0  0  0  0
 34 33  1  0  0  0  0
 35 37  2  0  0  0  0
 36 37  1  0  0  0  0
 37 34  1  0  0  0  0
 38  2  1  6  0  0  0
 38 50  1  0  0  0  0
 40 39  1  1  0  0  0
 40 38  1  0  0  0  0
 40 41  1  0  0  0  0
 42 41  2  0  0  0  0
 43 44  1  0  0  0  0
 43 42  1  0  0  0  0
 45 46  1  0  0  0  0
 45 47  1  0  0  0  0
 45 49  1  0  0  0  0
 47 49  1  0  0  0  0
 48 44  1  6  0  0  0
 48 45  1  0  0  0  0
 48 46  1  0  0  0  0
 50 51  1  0  0  0  0
 51 52  1  0  0  0  0
 53 52  1  0  0  0  0
 53 54  1  0  0  0  0
 55 54  1  0  0  0  0
 56 55  1  0  0  0  0
 57 59  1  0  0  0  0
 58 57  2  0  0  0  0
 58 61  1  0  0  0  0
 59 62  2  0  0  0  0
 60 62  1  0  0  0  0
 60 56  1  0  0  0  0
 61 60  2  0  0  0  0
M  END
>  <MODEL>
3

>  <REMARK>
 VINA RESULT:      -2.4      3.583      9.309
  Name = 
  27 active torsions:
  status: ('A' for Active; 'I' for Inactive)
    1  A    between atoms: C_2  and  O_51
    2  A    between atoms: C_3  and  C_13
    3  A    between atoms: C_3  and  C_16
    4  A    between atoms: C_5  and  C_62
    5  A    between atoms: C_6  and  C_21
    6  A    between atoms: C_6  and  C_53
    7  A    between atoms: O_7  and  C_27
    8  A    between atoms: O_7  and  C_35
    9  A    between atoms: C_9  and  C_12
   10  A    between atoms: C_9  and  C_36
   11  A    between atoms: C_12  and  C_45
   12  A    between atoms: C_12  and  C_62
   13  A    between atoms: C_13  and  C_40
   14  A    between atoms: C_15  and  C_21
   15  A    between atoms: C_15  and  C_30
   16  A    between atoms: C_16  and  C_28
   17  A    between atoms: C_24  and  C_50
   18  A    between atoms: C_24  and  C_54
   19  A    between atoms: C_27  and  C_50
   20  A    between atoms: C_28  and  C_53
   21  A    between atoms: C_30  and  C_47
   22  A    between atoms: N_31  and  C_40
   23  A    between atoms: C_34  and  C_57
   24  A    between atoms: C_36  and  C_54
   25  A    between atoms: C_41  and  C_44
   26  A    between atoms: C_49  and  C_55
   27  A    between atoms: C_49  and  C_57
                            x       y       z     vdW  Elec       q    Type
                         _______ _______ _______ _____ _____    ______ ____

>  <TORSDO>
F 27

$$$$
=
 OpenBabel11042422553D

 62 66  0  0  1  0  0  0  0  0999 V2000
  161.2010  204.7530  150.4810 C   0  0  0  0  0  0  0  0  0  0  0  0
  162.4950  206.6700  149.2650 C   0  0  0  0  0  3  0  0  0  0  0  0
  161.8530  205.7180  149.8910 C   0  0  0  0  0  0  0  0  0  0  0  0
  162.0650  203.4690  152.4360 C   0  0  0  0  0  1  0  0  0  0  0  0
  161.2250  204.6520  151.9760 C   0  0  1  0  0  3  0  0  0  0  0  0
  161.6930  205.9270  152.6200 C   0  0  0  0  0  0  0  0  0  0  0  0
  162.7810  206.4040  152.3320 O   0  0  0  0  0  0  0  0  0  0  0  0
  160.8720  206.5850  153.6820 C   0  0  1  0  0  3  0  0  0  0  0  0
  161.0150  205.9170  154.8980 O   0  0  0  0  0  1  0  0  0  0  0  0
  161.2930  208.0390  153.8280 C   0  0  0  0  0  2  0  0  0  0  0  0
  160.5800  208.7220  154.9900 C   0  0  0  0  0  2  0  0  0  0  0  0
  156.8100  213.6840  155.7720 C   0  0  1  0  0  3  0  0  0  0  0  0
  159.3370  211.7070  152.9500 C   0  0  0  0  0  0  0  0  0  0  0  0
  157.7400  213.6150  153.6280 C   0  0  2  0  0  3  0  0  0  0  0  0
  158.2010  211.7000  155.1340 C   0  0  1  0  0  3  0  0  0  0  0  0
  159.9680  210.4300  153.3170 C   0  0  0  0  0  3  0  0  0  0  0  0
  159.3260  212.0730  151.7450 O   0  0  0  0  0  0  0  0  0  0  0  0
  157.6870  212.5270  156.3120 C   0  0  0  0  0  0  0  0  0  0  0  0
  157.3750  214.4490  154.7170 O   0  0  0  0  0  0  0  0  0  0  0  0
  156.8950  211.6410  157.2600 C   0  0  0  0  0  1  0  0  0  0  0  0
  158.8510  213.1250  157.0890 C   0  0  0  0  0  1  0  0  0  0  0  0
  159.8670  209.9720  154.5730 C   0  0  0  0  0  0  0  0  0  0  0  0
  158.8080  212.5960  154.0530 C   0  0  1  0  0  3  0  0  0  0  0  0
  158.2260  214.4190  152.5940 O   0  0  0  0  0  1  0  0  0  0  0  0
  159.1240  210.6820  155.5260 O   0  0  0  0  0  0  0  0  0  0  0  0
  155.0420  213.6320  154.3060 C   0  0  0  0  0  1  0  0  0  0  0  0
  155.4190  213.4630  155.6460 O   0  0  0  0  0  0  0  0  0  0  0  0
  160.3400  203.8400  149.6620 C   0  0  0  0  0  2  0  0  0  0  0  0
  159.9130  202.6230  150.4720 C   0  0  0  0  0  2  0  0  0  0  0  0
  159.8910  201.3870  149.5890 C   0  0  0  0  0  2  0  0  0  0  0  0
  160.9300  201.5050  148.4870 C   0  0  0  0  0  2  0  0  0  0  0  0
  161.6490  202.9350  146.1190 O   0  0  0  0  0  0  0  0  0  0  0  0
  160.3030  201.3470  147.1820 N   0  0  0  0  0  2  0  0  0  0  0  0
  160.7200  202.0890  146.0290 C   0  0  0  0  0  0  0  0  0  0  0  0
  159.5270  202.8170  144.1260 O   0  0  0  0  0  0  0  0  0  0  0  0
  160.0400  200.5890  144.1790 O   0  0  0  0  0  1  0  0  0  0  0  0
  160.0620  201.8600  144.7390 C   0  0  0  0  0  0  0  0  0  0  0  0
  161.9390  207.3960  148.0690 C   0  0  2  0  0  3  0  0  0  0  0  0
  161.4010  208.9140  149.8560 O   0  0  0  0  0  1  0  0  0  0  0  0
  161.5210  208.8150  148.4670 C   0  0  1  0  0  3  0  0  0  0  0  0
  162.4700  209.8650  147.9450 C   0  0  0  0  0  3  0  0  0  0  0  0
  162.4400  211.1420  148.3460 C   0  0  0  0  0  3  0  0  0  0  0  0
  161.4630  211.6560  149.3600 C   0  0  0  0  0  2  0  0  0  0  0  0
  161.0780  213.0860  149.0270 C   0  0  0  0  0  2  0  0  0  0  0  0
  160.2840  213.5830  146.7290 C   0  0  0  0  0  0  0  0  0  0  0  0
  159.5350  214.4530  147.7530 C   0  0  0  0  0  2  0  0  0  0  0  0
  159.6790  212.5500  146.0090 O   0  0  0  0  0  0  0  0  0  0  0  0
  159.8620  213.0820  148.1250 C   0  0  2  0  0  3  0  0  0  0  0  0
  159.3990  213.7880  145.6720 O   0  0  0  0  0  0  0  0  0  0  0  0
  160.8220  206.6270  147.3520 C   0  0  0  0  0  2  0  0  0  0  0  0
  161.3830  205.7000  146.2920 C   0  0  0  0  0  2  0  0  0  0  0  0
  161.1730  206.3120  144.9160 C   0  0  0  0  0  2  0  0  0  0  0  0
  161.9530  205.5640  143.8410 C   0  0  0  0  0  2  0  0  0  0  0  0
  161.3560  205.7910  142.4620 C   0  0  0  0  0  2  0  0  0  0  0  0
  162.2960  206.6370  141.6210 C   0  0  0  0  0  2  0  0  0  0  0  0
  161.5880  207.2220  140.5330 O   0  0  0  0  0  0  0  0  0  0  0  0
  161.9550  211.2830  139.5150 C   0  0  0  0  0  3  0  0  0  0  0  0
  160.6830  210.7160  139.6440 C   0  0  0  0  0  3  0  0  0  0  0  0
  163.0930  210.5020  139.7350 C   0  0  0  0  0  3  0  0  0  0  0  0
  161.6910  208.5770  140.1990 C   0  0  0  0  0  0  0  0  0  0  0  0
  160.5500  209.3680  139.9850 C   0  0  0  0  0  3  0  0  0  0  0  0
  162.9600  209.1520  140.0780 C   0  0  0  0  0  3  0  0  0  0  0  0
  1  5  1  0  0  0  0
  2  3  2  0  0  0  0
  3  1  2  0  0  0  0
  5  4  1  6  0  0  0
  5  6  1  0  0  0  0
  6  8  1  0  0  0  0
  7  6  2  0  0  0  0
  8 10  1  0  0  0  0
  8  9  1  1  0  0  0
 10 11  1  0  0  0  0
 12 27  1  6  0  0  0
 12 18  1  0  0  0  0
 13 16  1  0  0  0  0
 14 24  1  6  0  0  0
 14 23  1  0  0  0  0
 14 19  1  0  0  0  0
 15 25  1  1  0  0  0
 15 18  1  0  0  0  0
 16 22  2  0  0  0  0
 17 13  2  0  0  0  0
 18 21  1  0  0  0  0
 18 20  1  0  0  0  0
 19 12  1  0  0  0  0
 22 11  1  0  0  0  0
 22 25  1  0  0  0  0
 23 13  1  6  0  0  0
 23 15  1  0  0  0  0
 26 27  1  0  0  0  0
 28 29  1  0  0  0  0
 28  1  1  0  0  0  0
 30 29  1  0  0  0  0
 31 30  1  0  0  0  0
 33 31  1  0  0  0  0
 34 32  2  0  0  0  0
 34 33  1  0  0  0  0
 35 37  2  0  0  0  0
 36 37  1  0  0  0  0
 37 34  1  0  0  0  0
 38 50  1  1  0  0  0
 38 40  1  0  0  0  0
 38  2  1  0  0  0  0
 40 39  1  1  0  0  0
 41 42  2  0  0  0  0
 41 40  1  0  0  0  0
 42 43  1  0  0  0  0
 44 43  1  0  0  0  0
 45 46  1  0  0  0  0
 45 48  1  0  0  0  0
 46 48  1  0  0  0  0
 47 45  1  0  0  0  0
 48 44  1  1  0  0  0
 49 47  1  0  0  0  0
 49 45  1  0  0  0  0
 51 50  1  0  0  0  0
 52 51  1  0  0  0  0
 53 52  1  0  0  0  0
 54 53  1  0  0  0  0
 55 54  1  0  0  0  0
 56 55  1  0  0  0  0
 57 58  2  0  0  0  0
 57 59  1  0  0  0  0
 58 61  1  0  0  0  0
 59 62  2  0  0  0  0
 60 56  1  0  0  0  0
 61 60  2  0  0  0  0
 62 60  1  0  0  0  0
M  END
>  <MODEL>
4

>  <REMARK>
 VINA RESULT:      -2.4      2.423     12.092
  Name = 
  27 active torsions:
  status: ('A' for Active; 'I' for Inactive)
    1  A    between atoms: C_2  and  O_51
    2  A    between atoms: C_3  and  C_13
    3  A    between atoms: C_3  and  C_16
    4  A    between atoms: C_5  and  C_62
    5  A    between atoms: C_6  and  C_21
    6  A    between atoms: C_6  and  C_53
    7  A    between atoms: O_7  and  C_27
    8  A    between atoms: O_7  and  C_35
    9  A    between atoms: C_9  and  C_12
   10  A    between atoms: C_9  and  C_36
   11  A    between atoms: C_12  and  C_45
   12  A    between atoms: C_12  and  C_62
   13  A    between atoms: C_13  and  C_40
   14  A    between atoms: C_15  and  C_21
   15  A    between atoms: C_15  and  C_30
   16  A    between atoms: C_16  and  C_28
   17  A    between atoms: C_24  and  C_50
   18  A    between atoms: C_24  and  C_54
   19  A    between atoms: C_27  and  C_50
   20  A    between atoms: C_28  and  C_53
   21  A    between atoms: C_30  and  C_47
   22  A    between atoms: N_31  and  C_40
   23  A    between atoms: C_34  and  C_57
   24  A    between atoms: C_36  and  C_54
   25  A    between atoms: C_41  and  C_44
   26  A    between atoms: C_49  and  C_55
   27  A    between atoms: C_49  and  C_57
                            x       y       z     vdW  Elec       q    Type
                         _______ _______ _______ _____ _____    ______ ____

>  <TORSDO>
F 27

$$$$
=
 OpenBabel11042422553D

 62 66  0  0  1  0  0  0  0  0999 V2000
  162.0940  207.0700  147.8080 C   0  0  0  0  0  0  0  0  0  0  0  0
  162.5300  205.9640  150.1350 C   0  0  0  0  0  3  0  0  0  0  0  0
  162.3170  206.5000  148.9610 C   0  0  0  0  0  0  0  0  0  0  0  0
  163.1180  205.0240  146.8160 C   0  0  0  0  0  1  0  0  0  0  0  0
  162.3260  206.2950  146.5460 C   0  0  1  0  0  3  0  0  0  0  0  0
  161.0420  205.9870  145.8280 C   0  0  0  0  0  0  0  0  0  0  0  0
  160.0250  206.6180  146.0790 O   0  0  0  0  0  0  0  0  0  0  0  0
  160.9690  204.8510  144.8590 C   0  0  1  0  0  3  0  0  0  0  0  0
  159.8470  204.0620  145.1120 O   0  0  0  0  0  1  0  0  0  0  0  0
  160.9230  205.3910  143.4380 C   0  0  0  0  0  2  0  0  0  0  0  0
  162.1020  206.3120  143.1430 C   0  0  0  0  0  2  0  0  0  0  0  0
  160.9410  211.1440  139.3030 C   0  0  1  0  0  3  0  0  0  0  0  0
  162.1340  207.0420  139.3910 C   0  0  0  0  0  0  0  0  0  0  0  0
  161.5830  209.2250  138.1330 C   0  0  2  0  0  3  0  0  0  0  0  0
  161.2770  209.0170  140.5840 C   0  0  1  0  0  3  0  0  0  0  0  0
  162.1710  206.3290  140.6760 C   0  0  0  0  0  3  0  0  0  0  0  0
  162.1920  206.3900  138.3150 O   0  0  0  0  0  0  0  0  0  0  0  0
  161.2640  210.5410  140.6940 C   0  0  0  0  0  0  0  0  0  0  0  0
  161.7010  210.6370  138.2170 O   0  0  0  0  0  0  0  0  0  0  0  0
  160.2390  210.9790  141.7270 C   0  0  0  0  0  1  0  0  0  0  0  0
  162.6280  211.0530  141.1360 C   0  0  0  0  0  1  0  0  0  0  0  0
  161.9760  207.0010  141.8190 C   0  0  0  0  0  0  0  0  0  0  0  0
  162.1290  208.5540  139.4020 C   0  0  1  0  0  3  0  0  0  0  0  0
  162.2920  208.7840  137.0120 O   0  0  0  0  0  1  0  0  0  0  0  0
  161.6900  208.3740  141.7910 O   0  0  0  0  0  0  0  0  0  0  0  0
  159.5260  212.2950  137.9060 C   0  0  0  0  0  1  0  0  0  0  0  0
  159.5870  211.4070  138.9900 O   0  0  0  0  0  0  0  0  0  0  0  0
  161.4920  208.4410  147.7700 C   0  0  0  0  0  2  0  0  0  0  0  0
  162.1340  209.3470  148.8140 C   0  0  0  0  0  2  0  0  0  0  0  0
  162.4350  210.7090  148.2130 C   0  0  0  0  0  2  0  0  0  0  0  0
  161.2590  211.6500  148.4160 C   0  0  0  0  0  2  0  0  0  0  0  0
  159.3160  213.6840  147.9140 O   0  0  0  0  0  0  0  0  0  0  0  0
  160.5430  211.8420  147.1630 N   0  0  0  0  0  2  0  0  0  0  0  0
  159.5880  212.8920  146.9720 C   0  0  0  0  0  0  0  0  0  0  0  0
  157.7050  212.7640  145.5520 O   0  0  0  0  0  1  0  0  0  0  0  0
  159.6310  213.5170  144.5760 O   0  0  0  0  0  0  0  0  0  0  0  0
  158.9230  213.0450  145.6740 C   0  0  0  0  0  0  0  0  0  0  0  0
  161.6290  206.1810  151.3220 C   0  0  2  0  0  3  0  0  0  0  0  0
  160.3180  204.5080  150.1940 O   0  0  0  0  0  1  0  0  0  0  0  0
  160.6500  205.0110  151.4560 C   0  0  1  0  0  3  0  0  0  0  0  0
  161.1840  203.9100  152.3360 C   0  0  0  0  0  3  0  0  0  0  0  0
  161.1280  202.6140  152.0020 C   0  0  0  0  0  3  0  0  0  0  0  0
  160.5360  202.1290  150.7140 C   0  0  0  0  0  2  0  0  0  0  0  0
  161.5050  201.1870  150.0230 C   0  0  0  0  0  2  0  0  0  0  0  0
  161.0920  201.5930  147.6100 C   0  0  0  0  0  0  0  0  0  0  0  0
  159.7580  201.4870  148.3690 C   0  0  0  0  0  2  0  0  0  0  0  0
  161.5360  200.6310  146.7000 O   0  0  0  0  0  0  0  0  0  0  0  0
  160.8540  200.6170  148.7800 C   0  0  2  0  0  3  0  0  0  0  0  0
  160.5580  201.4270  146.3330 O   0  0  0  0  0  0  0  0  0  0  0  0
  160.9260  207.5450  151.3120 C   0  0  0  0  0  2  0  0  0  0  0  0
  161.7130  208.5770  152.0970 C   0  0  0  0  0  2  0  0  0  0  0  0
  160.8680  209.0940  153.2500 C   0  0  0  0  0  2  0  0  0  0  0  0
  161.1160  210.5760  153.5100 C   0  0  0  0  0  2  0  0  0  0  0  0
  161.7540  210.8020  154.8720 C   0  0  0  0  0  2  0  0  0  0  0  0
  160.8050  211.5780  155.7670 C   0  0  0  0  0  2  0  0  0  0  0  0
  159.5200  210.9630  155.7700 O   0  0  0  0  0  0  0  0  0  0  0  0
  155.9440  213.0280  156.5480 C   0  0  0  0  0  3  0  0  0  0  0  0
  157.1560  213.5510  157.0080 C   0  0  0  0  0  3  0  0  0  0  0  0
  155.9280  211.8310  155.8250 C   0  0  0  0  0  3  0  0  0  0  0  0
  158.3400  211.6670  156.0330 C   0  0  0  0  0  0  0  0  0  0  0  0
  158.3510  212.8750  156.7520 C   0  0  0  0  0  3  0  0  0  0  0  0
  157.1240  211.1540  155.5680 C   0  0  0  0  0  3  0  0  0  0  0  0
  1  3  2  0  0  0  0
  3  2  2  0  0  0  0
  5  4  1  1  0  0  0
  5  1  1  0  0  0  0
  6  7  2  0  0  0  0
  6  5  1  0  0  0  0
  8  9  1  1  0  0  0
  8  6  1  0  0  0  0
 10  8  1  0  0  0  0
 11 10  1  0  0  0  0
 12 27  1  6  0  0  0
 12 18  1  0  0  0  0
 13 16  1  0  0  0  0
 14 24  1  6  0  0  0
 14 19  1  0  0  0  0
 14 23  1  0  0  0  0
 15 18  1  0  0  0  0
 15 25  1  1  0  0  0
 16 22  2  0  0  0  0
 17 13  2  0  0  0  0
 18 21  1  0  0  0  0
 18 20  1  0  0  0  0
 19 12  1  0  0  0  0
 22 11  1  0  0  0  0
 23 13  1  6  0  0  0
 23 15  1  0  0  0  0
 25 22  1  0  0  0  0
 26 27  1  0  0  0  0
 28  1  1  0  0  0  0
 28 29  1  0  0  0  0
 30 31  1  0  0  0  0
 30 29  1  0  0  0  0
 33 31  1  0  0  0  0
 34 33  1  0  0  0  0
 34 32  2  0  0  0  0
 35 37  1  0  0  0  0
 36 37  2  0  0  0  0
 37 34  1  0  0  0  0
 38  2  1  6  0  0  0
 38 40  1  0  0  0  0
 40 39  1  6  0  0  0
 40 41  1  0  0  0  0
 42 41  2  0  0  0  0
 43 42  1  0  0  0  0
 44 43  1  0  0  0  0
 45 46  1  0  0  0  0
 45 48  1  0  0  0  0
 46 48  1  0  0  0  0
 47 45  1  0  0  0  0
 48 44  1  1  0  0  0
 49 47  1  0  0  0  0
 49 45  1  0  0  0  0
 50 38  1  0  0  0  0
 50 51  1  0  0  0  0
 51 52  1  0  0  0  0
 52 53  1  0  0  0  0
 53 54  1  0  0  0  0
 54 55  1  0  0  0  0
 55 56  1  0  0  0  0
 56 60  1  0  0  0  0
 57 58  1  0  0  0  0
 59 57  2  0  0  0  0
 60 61  1  0  0  0  0
 61 58  2  0  0  0  0
 62 59  1  0  0  0  0
 62 60  2  0  0  0  0
M  END
>  <MODEL>
5

>  <REMARK>
 VINA RESULT:      -2.2      1.721      2.391
  Name = 
  27 active torsions:
  status: ('A' for Active; 'I' for Inactive)
    1  A    between atoms: C_2  and  O_51
    2  A    between atoms: C_3  and  C_13
    3  A    between atoms: C_3  and  C_16
    4  A    between atoms: C_5  and  C_62
    5  A    between atoms: C_6  and  C_21
    6  A    between atoms: C_6  and  C_53
    7  A    between atoms: O_7  and  C_27
    8  A    between atoms: O_7  and  C_35
    9  A    between atoms: C_9  and  C_12
   10  A    between atoms: C_9  and  C_36
   11  A    between atoms: C_12  and  C_45
   12  A    between atoms: C_12  and  C_62
   13  A    between atoms: C_13  and  C_40
   14  A    between atoms: C_15  and  C_21
   15  A    between atoms: C_15  and  C_30
   16  A    between atoms: C_16  and  C_28
   17  A    between atoms: C_24  and  C_50
   18  A    between atoms: C_24  and  C_54
   19  A    between atoms: C_27  and  C_50
   20  A    between atoms: C_28  and  C_53
   21  A    between atoms: C_30  and  C_47
   22  A    between atoms: N_31  and  C_40
   23  A    between atoms: C_34  and  C_57
   24  A    between atoms: C_36  and  C_54
   25  A    between atoms: C_41  and  C_44
   26  A    between atoms: C_49  and  C_55
   27  A    between atoms: C_49  and  C_57
                            x       y       z     vdW  Elec       q    Type
                         _______ _______ _______ _____ _____    ______ ____

>  <TORSDO>
F 27

$$$$
=
 OpenBabel11042422553D

 62 66  0  0  1  0  0  0  0  0999 V2000
  160.8690  209.6020  151.9140 C   0  0  0  0  0  0  0  0  0  0  0  0
  161.4520  210.6350  149.5850 C   0  0  0  0  0  3  0  0  0  0  0  0
  161.1700  210.1010  150.7450 C   0  0  0  0  0  0  0  0  0  0  0  0
  162.5430  207.8040  151.4870 C   0  0  0  0  0  1  0  0  0  0  0  0
  161.2850  208.2010  152.2460 C   0  0  1  0  0  3  0  0  0  0  0  0
  161.4630  208.0000  153.7250 C   0  0  0  0  0  0  0  0  0  0  0  0
  162.2810  208.6630  154.3460 O   0  0  0  0  0  0  0  0  0  0  0  0
  160.7010  206.9320  154.4420 C   0  0  1  0  0  3  0  0  0  0  0  0
  159.3770  207.3230  154.6420 O   0  0  0  0  0  1  0  0  0  0  0  0
  160.7520  205.6400  153.6410 C   0  0  0  0  0  2  0  0  0  0  0  0
  161.7820  205.7100  152.5190 C   0  0  0  0  0  2  0  0  0  0  0  0
  161.1580  204.4440  146.3990 C   0  0  1  0  0  3  0  0  0  0  0  0
  160.4990  202.8630  150.3130 C   0  0  0  0  0  0  0  0  0  0  0  0
  160.3990  202.6880  147.7420 C   0  0  2  0  0  3  0  0  0  0  0  0
  161.1150  204.7690  148.8830 C   0  0  1  0  0  3  0  0  0  0  0  0
  160.7900  203.6990  151.4880 C   0  0  0  0  0  3  0  0  0  0  0  0
  159.8220  201.8100  150.4510 O   0  0  0  0  0  0  0  0  0  0  0  0
  161.7690  205.2350  147.5830 C   0  0  0  0  0  0  0  0  0  0  0  0
  161.1020  203.0350  146.5590 O   0  0  0  0  0  0  0  0  0  0  0  0
  161.5600  206.7300  147.4030 C   0  0  0  0  0  1  0  0  0  0  0  0
  163.2680  204.9700  147.6170 C   0  0  0  0  0  1  0  0  0  0  0  0
  161.3930  204.8860  151.3300 C   0  0  0  0  0  0  0  0  0  0  0  0
  161.1120  203.2430  148.9840 C   0  0  1  0  0  3  0  0  0  0  0  0
  160.3150  201.2950  147.8180 O   0  0  0  0  0  1  0  0  0  0  0  0
  161.7060  205.3540  150.0450 O   0  0  0  0  0  0  0  0  0  0  0  0
  160.4660  205.7000  144.6030 C   0  0  0  0  0  1  0  0  0  0  0  0
  160.0360  204.9970  145.7380 O   0  0  0  0  0  0  0  0  0  0  0  0
  160.2260  210.4790  152.9440 C   0  0  0  0  0  2  0  0  0  0  0  0
  161.2750  211.2660  153.7190 C   0  0  0  0  0  2  0  0  0  0  0  0
  160.8050  211.5050  155.1440 C   0  0  0  0  0  2  0  0  0  0  0  0
  159.6660  210.5600  155.4910 C   0  0  0  0  0  2  0  0  0  0  0  0
  156.9250  210.8540  154.7390 O   0  0  0  0  0  0  0  0  0  0  0  0
  158.6490  211.2590  156.2650 N   0  0  0  0  0  2  0  0  0  0  0  0
  157.2860  211.3600  155.8360 C   0  0  0  0  0  0  0  0  0  0  0  0
  156.4890  213.2560  156.9960 O   0  0  0  0  0  0  0  0  0  0  0  0
  155.1650  211.3950  157.1150 O   0  0  0  0  0  1  0  0  0  0  0  0
  156.3070  212.0550  156.6780 C   0  0  0  0  0  0  0  0  0  0  0  0
  161.8940  212.0640  149.4160 C   0  0  2  0  0  3  0  0  0  0  0  0
  159.5520  212.3240  148.9300 O   0  0  0  0  0  1  0  0  0  0  0  0
  160.6760  212.9930  149.4260 C   0  0  1  0  0  3  0  0  0  0  0  0
  160.3910  213.5580  150.7940 C   0  0  0  0  0  3  0  0  0  0  0  0
  159.1510  213.7420  151.2650 C   0  0  0  0  0  3  0  0  0  0  0  0
  157.9210  213.3980  150.4820 C   0  0  0  0  0  2  0  0  0  0  0  0
  156.7290  214.1600  151.0320 C   0  0  0  0  0  2  0  0  0  0  0  0
  155.3090  214.4000  153.0520 C   0  0  0  0  0  0  0  0  0  0  0  0
  156.7340  213.9790  153.4490 C   0  0  0  0  0  2  0  0  0  0  0  0
  154.1980  213.5630  153.1740 O   0  0  0  0  0  0  0  0  0  0  0  0
  156.1670  213.4200  152.2280 C   0  0  2  0  0  3  0  0  0  0  0  0
  154.7080  214.0800  154.2690 O   0  0  0  0  0  0  0  0  0  0  0  0
  162.7990  212.2840  148.1960 C   0  0  0  0  0  2  0  0  0  0  0  0
  162.2890  213.4180  147.3290 C   0  0  0  0  0  2  0  0  0  0  0  0
  160.9720  213.0150  146.6860 C   0  0  0  0  0  2  0  0  0  0  0  0
  160.3760  214.1520  145.8610 C   0  0  0  0  0  2  0  0  0  0  0  0
  159.4330  213.6270  144.7910 C   0  0  0  0  0  2  0  0  0  0  0  0
  160.1100  212.5240  143.9970 C   0  0  0  0  0  2  0  0  0  0  0  0
  161.1050  213.0760  143.1400 O   0  0  0  0  0  0  0  0  0  0  0  0
  161.3600  212.0690  139.0690 C   0  0  0  0  0  3  0  0  0  0  0  0
  162.3640  212.8500  139.6500 C   0  0  0  0  0  3  0  0  0  0  0  0
  160.2870  211.6190  139.8440 C   0  0  0  0  0  3  0  0  0  0  0  0
  161.2090  212.7460  141.7850 C   0  0  0  0  0  0  0  0  0  0  0  0
  162.2900  213.1880  141.0030 C   0  0  0  0  0  3  0  0  0  0  0  0
  160.2140  211.9560  141.1990 C   0  0  0  0  0  3  0  0  0  0  0  0
  1  5  1  0  0  0  0
  1 28  1  0  0  0  0
  2  3  2  0  0  0  0
  3  1  2  0  0  0  0
  5  4  1  6  0  0  0
  5  6  1  0  0  0  0
  6  7  2  0  0  0  0
  6  8  1  0  0  0  0
  8  9  1  6  0  0  0
 10  8  1  0  0  0  0
 11 10  1  0  0  0  0
 12 27  1  1  0  0  0
 12 19  1  0  0  0  0
 12 18  1  0  0  0  0
 13 17  2  0  0  0  0
 13 16  1  0  0  0  0
 14 24  1  1  0  0  0
 14 23  1  0  0  0  0
 15 23  1  0  0  0  0
 15 25  1  1  0  0  0
 18 21  1  0  0  0  0
 18 15  1  0  0  0  0
 19 14  1  0  0  0  0
 20 18  1  0  0  0  0
 22 16  2  0  0  0  0
 22 11  1  0  0  0  0
 23 13  1  1  0  0  0
 25 22  1  0  0  0  0
 26 27  1  0  0  0  0
 28 29  1  0  0  0  0
 29 30  1  0  0  0  0
 30 31  1  0  0  0  0
 31 33  1  0  0  0  0
 32 34  2  0  0  0  0
 34 33  1  0  0  0  0
 34 37  1  0  0  0  0
 37 35  2  0  0  0  0
 37 36  1  0  0  0  0
 38 50  1  6  0  0  0
 38 40  1  0  0  0  0
 38  2  1  0  0  0  0
 40 39  1  1  0  0  0
 40 41  1  0  0  0  0
 41 42  2  0  0  0  0
 43 44  1  0  0  0  0
 43 42  1  0  0  0  0
 45 47  1  0  0  0  0
 45 46  1  0  0  0  0
 45 49  1  0  0  0  0
 47 49  1  0  0  0  0
 48 44  1  6  0  0  0
 48 45  1  0  0  0  0
 48 46  1  0  0  0  0
 51 50  1  0  0  0  0
 52 51  1  0  0  0  0
 53 52  1  0  0  0  0
 54 53  1  0  0  0  0
 55 54  1  0  0  0  0
 56 55  1  0  0  0  0
 57 58  2  0  0  0  0
 57 59  1  0  0  0  0
 58 61  1  0  0  0  0
 59 62  2  0  0  0  0
 60 56  1  0  0  0  0
 61 60  2  0  0  0  0
 62 60  1  0  0  0  0
M  END
>  <MODEL>
6

>  <REMARK>
 VINA RESULT:      -1.5      2.756     11.132
  Name = 
  27 active torsions:
  status: ('A' for Active; 'I' for Inactive)
    1  A    between atoms: C_2  and  O_51
    2  A    between atoms: C_3  and  C_13
    3  A    between atoms: C_3  and  C_16
    4  A    between atoms: C_5  and  C_62
    5  A    between atoms: C_6  and  C_21
    6  A    between atoms: C_6  and  C_53
    7  A    between atoms: O_7  and  C_27
    8  A    between atoms: O_7  and  C_35
    9  A    between atoms: C_9  and  C_12
   10  A    between atoms: C_9  and  C_36
   11  A    between atoms: C_12  and  C_45
   12  A    between atoms: C_12  and  C_62
   13  A    between atoms: C_13  and  C_40
   14  A    between atoms: C_15  and  C_21
   15  A    between atoms: C_15  and  C_30
   16  A    between atoms: C_16  and  C_28
   17  A    between atoms: C_24  and  C_50
   18  A    between atoms: C_24  and  C_54
   19  A    between atoms: C_27  and  C_50
   20  A    between atoms: C_28  and  C_53
   21  A    between atoms: C_30  and  C_47
   22  A    between atoms: N_31  and  C_40
   23  A    between atoms: C_34  and  C_57
   24  A    between atoms: C_36  and  C_54
   25  A    between atoms: C_41  and  C_44
   26  A    between atoms: C_49  and  C_55
   27  A    between atoms: C_49  and  C_57
                            x       y       z     vdW  Elec       q    Type
                         _______ _______ _______ _____ _____    ______ ____

>  <TORSDO>
F 27

$$$$
=
 OpenBabel11042422553D

 62 66  0  0  1  0  0  0  0  0999 V2000
  162.1580  209.3490  150.3230 C   0  0  0  0  0  0  0  0  0  0  0  0
  161.9140  211.9180  149.9160 C   0  0  0  0  0  3  0  0  0  0  0  0
  162.0310  210.6350  150.1380 C   0  0  0  0  0  0  0  0  0  0  0  0
  160.4560  208.9770  152.1050 C   0  0  0  0  0  1  0  0  0  0  0  0
  161.9020  208.7690  151.6810 C   0  0  1  0  0  3  0  0  0  0  0  0
  162.2820  207.3170  151.7560 C   0  0  0  0  0  0  0  0  0  0  0  0
  162.9130  206.7930  150.8500 O   0  0  0  0  0  0  0  0  0  0  0  0
  161.8220  206.4720  152.9010 C   0  0  1  0  0  3  0  0  0  0  0  0
  160.7900  207.1040  153.5940 O   0  0  0  0  0  1  0  0  0  0  0  0
  161.3580  205.1190  152.3850 C   0  0  0  0  0  2  0  0  0  0  0  0
  160.8350  205.2060  150.9560 C   0  0  0  0  0  2  0  0  0  0  0  0
  160.8180  201.3930  145.9660 C   0  0  1  0  0  3  0  0  0  0  0  0
  161.0280  201.4570  150.2330 C   0  0  0  0  0  0  0  0  0  0  0  0
  160.9960  200.2120  147.9750 C   0  0  2  0  0  3  0  0  0  0  0  0
  160.6540  202.6620  148.1200 C   0  0  1  0  0  3  0  0  0  0  0  0
  160.9020  202.7390  150.9420 C   0  0  0  0  0  3  0  0  0  0  0  0
  160.9320  200.3780  150.8750 O   0  0  0  0  0  0  0  0  0  0  0  0
  160.9950  202.7800  146.6340 C   0  0  0  0  0  0  0  0  0  0  0  0
  161.4380  200.3020  146.6290 O   0  0  0  0  0  0  0  0  0  0  0  0
  160.1020  203.8180  145.9770 C   0  0  0  0  0  1  0  0  0  0  0  0
  162.4410  203.2200  146.4550 C   0  0  0  0  0  1  0  0  0  0  0  0
  160.8700  203.8860  150.2490 C   0  0  0  0  0  0  0  0  0  0  0  0
  161.3740  201.4760  148.7610 C   0  0  1  0  0  3  0  0  0  0  0  0
  161.5810  199.0860  148.5620 O   0  0  0  0  0  1  0  0  0  0  0  0
  160.9100  203.8650  148.8470 O   0  0  0  0  0  0  0  0  0  0  0  0
  159.7390  200.1650  144.3510 C   0  0  0  0  0  1  0  0  0  0  0  0
  159.5610  201.0850  145.3950 O   0  0  0  0  0  0  0  0  0  0  0  0
  162.4350  208.4620  149.1480 C   0  0  0  0  0  2  0  0  0  0  0  0
  161.3010  208.5340  148.1320 C   0  0  0  0  0  2  0  0  0  0  0  0
  161.0350  207.1590  147.5440 C   0  0  0  0  0  2  0  0  0  0  0  0
  162.3440  206.4410  147.2620 C   0  0  0  0  0  2  0  0  0  0  0  0
  160.1910  206.5750  145.3880 O   0  0  0  0  0  0  0  0  0  0  0  0
  162.4260  206.0760  145.8540 N   0  0  0  0  0  2  0  0  0  0  0  0
  161.3090  206.1790  144.9630 C   0  0  0  0  0  0  0  0  0  0  0  0
  161.4940  204.6120  143.2050 O   0  0  0  0  0  1  0  0  0  0  0  0
  161.5780  206.8120  142.5840 O   0  0  0  0  0  0  0  0  0  0  0  0
  161.4690  205.8200  143.5500 C   0  0  0  0  0  0  0  0  0  0  0  0
  161.3030  212.4900  148.6630 C   0  0  2  0  0  3  0  0  0  0  0  0
  163.2410  212.5440  147.2380 O   0  0  0  0  0  1  0  0  0  0  0  0
  162.3310  213.3530  147.9270 C   0  0  1  0  0  3  0  0  0  0  0  0
  161.6890  214.3400  146.9850 C   0  0  0  0  0  3  0  0  0  0  0  0
  161.6210  214.1500  145.6610 C   0  0  0  0  0  3  0  0  0  0  0  0
  162.1710  212.9320  144.9820 C   0  0  0  0  0  2  0  0  0  0  0  0
  162.7300  213.3080  143.6220 C   0  0  0  0  0  2  0  0  0  0  0  0
  162.0810  211.8590  141.7160 C   0  0  0  0  0  0  0  0  0  0  0  0
  162.2530  213.3140  141.2460 C   0  0  0  0  0  2  0  0  0  0  0  0
  160.8450  211.2130  141.7770 O   0  0  0  0  0  0  0  0  0  0  0  0
  161.6730  213.0810  142.5630 C   0  0  2  0  0  3  0  0  0  0  0  0
  161.3800  211.4160  140.5950 O   0  0  0  0  0  0  0  0  0  0  0  0
  159.9790  213.2240  148.9110 C   0  0  0  0  0  2  0  0  0  0  0  0
  160.0620  214.1160  150.1340 C   0  0  0  0  0  2  0  0  0  0  0  0
  159.0170  213.6860  151.1500 C   0  0  0  0  0  2  0  0  0  0  0  0
  159.6210  212.8140  152.2460 C   0  0  0  0  0  2  0  0  0  0  0  0
  158.5690  211.9280  152.8940 C   0  0  0  0  0  2  0  0  0  0  0  0
  157.7850  212.7210  153.9240 C   0  0  0  0  0  2  0  0  0  0  0  0
  158.3680  212.5610  155.2140 O   0  0  0  0  0  0  0  0  0  0  0  0
  161.0690  209.4690  156.1060 C   0  0  0  0  0  3  0  0  0  0  0  0
  161.5520  210.7620  155.8770 C   0  0  0  0  0  3  0  0  0  0  0  0
  159.6960  209.2160  156.0480 C   0  0  0  0  0  3  0  0  0  0  0  0
  159.2820  211.5460  155.5150 C   0  0  0  0  0  0  0  0  0  0  0  0
  160.6620  211.7970  155.5830 C   0  0  0  0  0  3  0  0  0  0  0  0
  158.8050  210.2530  155.7550 C   0  0  0  0  0  3  0  0  0  0  0  0
  1  5  1  0  0  0  0
  2  3  2  0  0  0  0
  3  1  2  0  0  0  0
  5  6  1  0  0  0  0
  5  4  1  6  0  0  0
  6  8  1  0  0  0  0
  7  6  2  0  0  0  0
  8  9  1  6  0  0  0
 10  8  1  0  0  0  0
 11 10  1  0  0  0  0
 12 27  1  1  0  0  0
 12 19  1  0  0  0  0
 12 18  1  0  0  0  0
 13 17  2  0  0  0  0
 13 16  1  0  0  0  0
 14 24  1  1  0  0  0
 14 23  1  0  0  0  0
 15 23  1  0  0  0  0
 15 25  1  1  0  0  0
 18 15  1  0  0  0  0
 19 14  1  0  0  0  0
 20 18  1  0  0  0  0
 21 18  1  0  0  0  0
 22 16  2  0  0  0  0
 22 11  1  0  0  0  0
 23 13  1  1  0  0  0
 25 22  1  0  0  0  0
 26 27  1  0  0  0  0
 28  1  1  0  0  0  0
 29 28  1  0  0  0  0
 30 29  1  0  0  0  0
 31 30  1  0  0  0  0
 33 31  1  0  0  0  0
 34 32  2  0  0  0  0
 34 33  1  0  0  0  0
 35 37  1  0  0  0  0
 36 37  2  0  0  0  0
 37 34  1  0  0  0  0
 38 50  1  1  0  0  0
 38  2  1  0  0  0  0
 40 39  1  6  0  0  0
 40 38  1  0  0  0  0
 41 40  1  0  0  0  0
 42 41  2  0  0  0  0
 43 42  1  0  0  0  0
 44 43  1  0  0  0  0
 45 47  1  0  0  0  0
 45 48  1  0  0  0  0
 46 45  1  0  0  0  0
 46 48  1  0  0  0  0
 48 44  1  1  0  0  0
 49 45  1  0  0  0  0
 49 47  1  0  0  0  0
 50 51  1  0  0  0  0
 51 52  1  0  0  0  0
 52 53  1  0  0  0  0
 53 54  1  0  0  0  0
 54 55  1  0  0  0  0
 55 56  1  0  0  0  0
 56 60  1  0  0  0  0
 58 57  2  0  0  0  0
 59 57  1  0  0  0  0
 60 61  2  0  0  0  0
 60 62  1  0  0  0  0
 61 58  1  0  0  0  0
 62 59  2  0  0  0  0
M  END
>  <MODEL>
7

>  <REMARK>
 VINA RESULT:      -1.1      2.163      9.510
  Name = 
  27 active torsions:
  status: ('A' for Active; 'I' for Inactive)
    1  A    between atoms: C_2  and  O_51
    2  A    between atoms: C_3  and  C_13
    3  A    between atoms: C_3  and  C_16
    4  A    between atoms: C_5  and  C_62
    5  A    between atoms: C_6  and  C_21
    6  A    between atoms: C_6  and  C_53
    7  A    between atoms: O_7  and  C_27
    8  A    between atoms: O_7  and  C_35
    9  A    between atoms: C_9  and  C_12
   10  A    between atoms: C_9  and  C_36
   11  A    between atoms: C_12  and  C_45
   12  A    between atoms: C_12  and  C_62
   13  A    between atoms: C_13  and  C_40
   14  A    between atoms: C_15  and  C_21
   15  A    between atoms: C_15  and  C_30
   16  A    between atoms: C_16  and  C_28
   17  A    between atoms: C_24  and  C_50
   18  A    between atoms: C_24  and  C_54
   19  A    between atoms: C_27  and  C_50
   20  A    between atoms: C_28  and  C_53
   21  A    between atoms: C_30  and  C_47
   22  A    between atoms: N_31  and  C_40
   23  A    between atoms: C_34  and  C_57
   24  A    between atoms: C_36  and  C_54
   25  A    between atoms: C_41  and  C_44
   26  A    between atoms: C_49  and  C_55
   27  A    between atoms: C_49  and  C_57
                            x       y       z     vdW  Elec       q    Type
                         _______ _______ _______ _____ _____    ______ ____

>  <TORSDO>
F 27

$$$$
