=
 OpenBabel11052410593D

 37 40  0  0  1  0  0  0  0  0999 V2000
  161.9930  209.9570  152.1760 C   0  0  1  0  0  3  0  0  0  0  0  0
  160.6110  211.7350  151.1350 C   0  0  0  0  0  0  0  0  0  0  0  0
  158.9290  210.8420  155.4800 O   0  0  0  0  0  0  0  0  0  0  0  0
  159.0290  211.2970  154.3110 C   0  0  0  0  0  0  0  0  0  0  0  0
  158.1600  212.1750  153.7640 N   0  0  0  0  0  2  0  0  0  0  0  0
  157.9280  213.3460  151.6240 C   0  0  0  0  0  1  0  0  0  0  0  0
  158.5920  212.4270  152.5340 N   0  0  0  0  0  0  0  0  0  0  0  0
  161.6650  210.9570  151.1340 N   0  0  0  0  0  0  0  0  0  0  0  0
  160.0210  210.9920  153.4060 C   0  0  0  0  0  0  0  0  0  0  0  0
  159.7160  211.7190  152.2990 C   0  0  0  0  0  0  0  0  0  0  0  0
  161.2200  210.1610  153.4640 C   0  0  0  0  0  0  0  0  0  0  0  0
  160.3750  212.6270  150.0460 N   0  0  0  0  0  2  0  0  0  0  0  0
  161.5700  209.5590  154.5520 N   0  0  0  0  0  2  0  0  0  0  0  0
  161.7370  208.5860  151.6420 C   0  0  0  0  0  0  0  0  0  0  0  0
  161.0190  204.2990  150.8120 C   0  0  0  0  0  3  0  0  0  0  0  0
  161.5900  207.5200  152.4130 O   0  0  0  0  0  0  0  0  0  0  0  0
  161.4010  206.5200  151.5980 C   0  0  0  0  0  0  0  0  0  0  0  0
  161.6510  208.3140  150.3140 N   0  0  0  0  0  0  0  0  0  0  0  0
  161.0550  204.7760  149.4740 C   0  0  0  0  0  0  0  0  0  0  0  0
  161.1940  205.1770  151.8970 C   0  0  0  0  0  3  0  0  0  0  0  0
  161.2660  206.1460  149.2230 C   0  0  0  0  0  3  0  0  0  0  0  0
  161.4360  206.9870  150.3180 C   0  0  0  0  0  0  0  0  0  0  0  0
  161.6860  203.9920  147.2140 C   0  0  0  0  0  1  0  0  0  0  0  0
  160.8870  203.9130  148.3880 O   0  0  0  0  0  0  0  0  0  0  0  0
  161.2890  212.7390  148.9910 N   0  0  0  0  0  2  0  0  0  0  0  0
  160.5940  213.4140  147.9000 C   0  0  1  0  0  3  0  0  0  0  0  0
  161.5360  214.0790  147.0110 N   0  0  0  0  0  2  0  0  0  0  0  0
  162.3570  213.0420  146.4080 C   0  0  0  0  0  2  0  0  0  0  0  0
  162.4830  213.2800  144.9390 C   0  0  0  0  0  0  0  0  0  0  0  0
  163.5800  213.2460  144.4040 O   0  0  0  0  0  0  0  0  0  0  0  0
  160.5370  212.3300  143.8810 N   0  0  0  0  0  1  0  0  0  0  0  0
  161.2630  213.5640  144.1290 C   0  0  0  0  0  2  0  0  0  0  0  0
  159.7140  212.5590  147.1930 O   0  0  0  0  0  0  0  0  0  0  0  0
  158.2500  214.2850  145.5710 O   0  0  0  0  0  0  0  0  0  0  0  0
  157.7320  214.2400  148.2820 O   0  0  0  0  0  1  0  0  0  0  0  0
  158.1900  213.3040  146.9480 P   0  0  0  0  0  0  0  0  0  0  0  0
  157.1510  212.2280  146.7300 O   0  0  0  0  0  1  0  0  0  0  0  0
  1 14  1  6  0  0  0
  1 11  1  0  0  0  0
  2 10  1  0  0  0  0
  4  3  2  0  0  0  0
  5  4  1  0  0  0  0
  6  7  1  0  0  0  0
  7  5  1  0  0  0  0
  8  2  2  0  0  0  0
  8  1  1  0  0  0  0
  9 11  1  0  0  0  0
  9  4  1  0  0  0  0
 10  7  1  0  0  0  0
 10  9  2  0  0  0  0
 11 13  2  0  0  0  0
 12  2  1  0  0  0  0
 14 16  1  0  0  0  0
 15 20  1  0  0  0  0
 17 20  2  0  0  0  0
 17 16  1  0  0  0  0
 18 22  1  0  0  0  0
 18 14  2  0  0  0  0
 19 15  2  0  0  0  0
 21 19  1  0  0  0  0
 21 22  2  0  0  0  0
 22 17  1  0  0  0  0
 23 24  1  0  0  0  0
 24 19  1  0  0  0  0
 25 12  1  0  0  0  0
 26 27  1  6  0  0  0
 26 25  1  0  0  0  0
 28 27  1  0  0  0  0
 29 28  1  0  0  0  0
 30 29  2  0  0  0  0
 31 32  1  0  0  0  0
 32 29  1  0  0  0  0
 33 26  1  0  0  0  0
 34 36  2  0  0  0  0
 36 33  1  0  0  0  0
 36 35  1  0  0  0  0
 37 36  1  0  0  0  0
M  END
>  <MODEL>
1

>  <REMARK>
 VINA RESULT:      -6.7      0.000      0.000
  Name = 
  10 active torsions:
  status: ('A' for Active; 'I' for Inactive)
    1  A    between atoms: C_1  and  C_3
    2  A    between atoms: C_7  and  C_29
    3  A    between atoms: C_7  and  C_33
    4  A    between atoms: C_16  and  N_19
    5  A    between atoms: C_16  and  N_30
    6  A    between atoms: C_16  and  O_36
    7  A    between atoms: N_19  and  C_29
    8  A    between atoms: C_24  and  O_34
    9  A    between atoms: P_26  and  O_36
   10  A    between atoms: N_30  and  N_31
                            x       y       z     vdW  Elec       q    Type
                         _______ _______ _______ _____ _____    ______ ____

>  <TORSDO>
F 10

$$$$
=
 OpenBabel11052410593D

 37 40  0  0  1  0  0  0  0  0999 V2000
  161.8930  209.7400  152.7740 C   0  0  1  0  0  3  0  0  0  0  0  0
  160.4380  211.5870  151.9820 C   0  0  0  0  0  0  0  0  0  0  0  0
  158.9340  210.1870  156.2580 O   0  0  0  0  0  0  0  0  0  0  0  0
  158.9820  210.7690  155.1420 C   0  0  0  0  0  0  0  0  0  0  0  0
  158.0760  211.6790  154.7260 N   0  0  0  0  0  2  0  0  0  0  0  0
  157.7430  213.0700  152.7360 C   0  0  0  0  0  1  0  0  0  0  0  0
  158.4570  212.0740  153.5160 N   0  0  0  0  0  0  0  0  0  0  0  0
  161.5070  210.8400  151.8590 N   0  0  0  0  0  0  0  0  0  0  0  0
  159.9470  210.5880  154.1770 C   0  0  0  0  0  0  0  0  0  0  0  0
  159.5860  211.4230  153.1670 C   0  0  0  0  0  0  0  0  0  0  0  0
  161.1640  209.7850  154.1020 C   0  0  0  0  0  0  0  0  0  0  0  0
  160.1440  212.5870  151.0060 N   0  0  0  0  0  2  0  0  0  0  0  0
  161.5660  209.0760  155.1050 N   0  0  0  0  0  2  0  0  0  0  0  0
  161.6460  208.4300  152.1020 C   0  0  0  0  0  0  0  0  0  0  0  0
  160.9570  204.2470  150.8360 C   0  0  0  0  0  3  0  0  0  0  0  0
  161.5080  207.2890  152.7590 O   0  0  0  0  0  0  0  0  0  0  0  0
  161.3240  206.3770  151.8460 C   0  0  0  0  0  0  0  0  0  0  0  0
  161.5590  208.2960  150.7530 N   0  0  0  0  0  0  0  0  0  0  0  0
  160.9860  204.8590  149.5540 C   0  0  0  0  0  0  0  0  0  0  0  0
  161.1280  205.0090  152.0060 C   0  0  0  0  0  3  0  0  0  0  0  0
  161.1870  206.2480  149.4450 C   0  0  0  0  0  3  0  0  0  0  0  0
  161.3530  206.9740  150.6210 C   0  0  0  0  0  0  0  0  0  0  0  0
  161.2300  202.7520  148.2800 C   0  0  0  0  0  1  0  0  0  0  0  0
  160.8220  204.1110  148.3850 O   0  0  0  0  0  0  0  0  0  0  0  0
  161.0170  212.8350  149.9390 N   0  0  0  0  0  2  0  0  0  0  0  0
  160.2240  213.4480  148.8790 C   0  0  1  0  0  3  0  0  0  0  0  0
  159.0810  214.1650  149.4280 N   0  0  0  0  0  2  0  0  0  0  0  0
  158.1800  214.4400  148.3220 C   0  0  0  0  0  2  0  0  0  0  0  0
  157.2880  213.2660  148.0840 C   0  0  0  0  0  0  0  0  0  0  0  0
  156.7030  212.7400  149.0180 O   0  0  0  0  0  0  0  0  0  0  0  0
  157.8750  213.5490  145.7630 N   0  0  0  0  0  1  0  0  0  0  0  0
  157.1190  212.7340  146.7000 C   0  0  0  0  0  2  0  0  0  0  0  0
  160.9940  214.2650  148.0150 O   0  0  0  0  0  0  0  0  0  0  0  0
  163.1710  212.6160  147.4730 O   0  0  0  0  0  1  0  0  0  0  0  0
  162.2140  214.2640  145.4750 O   0  0  0  0  0  0  0  0  0  0  0  0
  161.7830  213.3270  146.8170 P   0  0  0  0  0  0  0  0  0  0  0  0
  160.8470  212.2300  146.3630 O   0  0  0  0  0  1  0  0  0  0  0  0
  1 14  1  6  0  0  0
  1 11  1  0  0  0  0
  2 10  1  0  0  0  0
  4  3  2  0  0  0  0
  5  4  1  0  0  0  0
  6  7  1  0  0  0  0
  7  5  1  0  0  0  0
  8  2  2  0  0  0  0
  8  1  1  0  0  0  0
  9  4  1  0  0  0  0
 10  7  1  0  0  0  0
 10  9  2  0  0  0  0
 11  9  1  0  0  0  0
 11 13  2  0  0  0  0
 12  2  1  0  0  0  0
 14 16  1  0  0  0  0
 15 20  1  0  0  0  0
 17 20  2  0  0  0  0
 17 16  1  0  0  0  0
 18 14  2  0  0  0  0
 19 15  2  0  0  0  0
 21 19  1  0  0  0  0
 21 22  2  0  0  0  0
 22 18  1  0  0  0  0
 22 17  1  0  0  0  0
 23 24  1  0  0  0  0
 24 19  1  0  0  0  0
 25 12  1  0  0  0  0
 26 33  1  1  0  0  0
 26 27  1  0  0  0  0
 26 25  1  0  0  0  0
 28 27  1  0  0  0  0
 29 28  1  0  0  0  0
 29 30  2  0  0  0  0
 31 32  1  0  0  0  0
 32 29  1  0  0  0  0
 35 36  2  0  0  0  0
 36 34  1  0  0  0  0
 36 33  1  0  0  0  0
 37 36  1  0  0  0  0
M  END
>  <MODEL>
2

>  <REMARK>
 VINA RESULT:      -6.6      1.894      2.774
  Name = 
  10 active torsions:
  status: ('A' for Active; 'I' for Inactive)
    1  A    between atoms: C_1  and  C_3
    2  A    between atoms: C_7  and  C_29
    3  A    between atoms: C_7  and  C_33
    4  A    between atoms: C_16  and  N_19
    5  A    between atoms: C_16  and  N_30
    6  A    between atoms: C_16  and  O_36
    7  A    between atoms: N_19  and  C_29
    8  A    between atoms: C_24  and  O_34
    9  A    between atoms: P_26  and  O_36
   10  A    between atoms: N_30  and  N_31
                            x       y       z     vdW  Elec       q    Type
                         _______ _______ _______ _____ _____    ______ ____

>  <TORSDO>
F 10

$$$$
=
 OpenBabel11052410593D

 37 40  0  0  1  0  0  0  0  0999 V2000
  160.7200  210.8000  154.0640 C   0  0  1  0  0  3  0  0  0  0  0  0
  159.4400  212.4990  152.7880 C   0  0  0  0  0  0  0  0  0  0  0  0
  156.7380  210.9110  156.3500 O   0  0  0  0  0  0  0  0  0  0  0  0
  157.0990  211.5060  155.3010 C   0  0  0  0  0  0  0  0  0  0  0  0
  156.3000  212.3250  154.5840 N   0  0  0  0  0  2  0  0  0  0  0  0
  156.5160  213.6950  152.5640 C   0  0  0  0  0  1  0  0  0  0  0  0
  157.0220  212.7680  153.5620 N   0  0  0  0  0  0  0  0  0  0  0  0
  160.5560  211.8650  153.0470 N   0  0  0  0  0  0  0  0  0  0  0  0
  158.3430  211.4330  154.7170 C   0  0  0  0  0  0  0  0  0  0  0  0
  158.2610  212.2380  153.6250 C   0  0  0  0  0  0  0  0  0  0  0  0
  159.5880  210.7570  155.0720 C   0  0  0  0  0  0  0  0  0  0  0  0
  159.3930  213.4740  151.7460 N   0  0  0  0  0  2  0  0  0  0  0  0
  159.6990  210.0820  156.1690 N   0  0  0  0  0  2  0  0  0  0  0  0
  160.8410  209.4780  153.3810 C   0  0  0  0  0  0  0  0  0  0  0  0
  161.1120  205.9730  150.6940 C   0  0  0  0  0  3  0  0  0  0  0  0
  160.8480  209.3360  152.0650 O   0  0  0  0  0  0  0  0  0  0  0  0
  160.9510  208.0540  151.8500 C   0  0  0  0  0  0  0  0  0  0  0  0
  160.9380  208.3030  154.0560 N   0  0  0  0  0  0  0  0  0  0  0  0
  161.1700  205.2950  151.9410 C   0  0  0  0  0  0  0  0  0  0  0  0
  161.0010  207.3750  150.6370 C   0  0  0  0  0  3  0  0  0  0  0  0
  161.1170  206.0290  153.1420 C   0  0  0  0  0  3  0  0  0  0  0  0
  161.0070  207.4130  153.0510 C   0  0  0  0  0  0  0  0  0  0  0  0
  160.8370  203.0480  150.9610 C   0  0  0  0  0  1  0  0  0  0  0  0
  161.2760  203.9030  152.0090 O   0  0  0  0  0  0  0  0  0  0  0  0
  160.5430  213.8200  151.0260 N   0  0  0  0  0  2  0  0  0  0  0  0
  160.2350  213.6100  149.6150 C   0  0  1  0  0  3  0  0  0  0  0  0
  159.1260  214.4520  149.1910 N   0  0  0  0  0  2  0  0  0  0  0  0
  158.8340  214.1070  147.8100 C   0  0  0  0  0  2  0  0  0  0  0  0
  157.7010  213.1350  147.7540 C   0  0  0  0  0  0  0  0  0  0  0  0
  157.5580  212.4140  146.7790 O   0  0  0  0  0  0  0  0  0  0  0  0
  155.9770  214.2860  148.9840 N   0  0  0  0  0  1  0  0  0  0  0  0
  156.7410  213.0530  148.8930 C   0  0  0  0  0  2  0  0  0  0  0  0
  161.3660  213.7630  148.7750 O   0  0  0  0  0  0  0  0  0  0  0  0
  162.0030  211.1760  149.5830 O   0  0  0  0  0  1  0  0  0  0  0  0
  163.5290  212.3760  147.6190 O   0  0  0  0  0  1  0  0  0  0  0  0
  161.9710  212.2420  148.2690 P   0  0  0  0  0  0  0  0  0  0  0  0
  161.0500  211.6790  147.2110 O   0  0  0  0  0  0  0  0  0  0  0  0
  1 14  1  6  0  0  0
  1 11  1  0  0  0  0
  2  8  2  0  0  0  0
  2 10  1  0  0  0  0
  4  3  2  0  0  0  0
  5  4  1  0  0  0  0
  6  7  1  0  0  0  0
  7 10  1  0  0  0  0
  7  5  1  0  0  0  0
  8  1  1  0  0  0  0
  9 11  1  0  0  0  0
  9  4  1  0  0  0  0
 10  9  2  0  0  0  0
 11 13  2  0  0  0  0
 12  2  1  0  0  0  0
 14 18  2  0  0  0  0
 15 19  1  0  0  0  0
 16 14  1  0  0  0  0
 17 16  1  0  0  0  0
 17 22  2  0  0  0  0
 19 24  1  0  0  0  0
 19 21  2  0  0  0  0
 20 15  2  0  0  0  0
 20 17  1  0  0  0  0
 22 21  1  0  0  0  0
 22 18  1  0  0  0  0
 23 24  1  0  0  0  0
 25 12  1  0  0  0  0
 26 33  1  6  0  0  0
 26 25  1  0  0  0  0
 27 26  1  0  0  0  0
 28 27  1  0  0  0  0
 29 28  1  0  0  0  0
 29 32  1  0  0  0  0
 30 29  2  0  0  0  0
 32 31  1  0  0  0  0
 35 36  1  0  0  0  0
 36 33  1  0  0  0  0
 36 34  1  0  0  0  0
 37 36  2  0  0  0  0
M  END
>  <MODEL>
3

>  <REMARK>
 VINA RESULT:      -6.5      2.569      3.587
  Name = 
  10 active torsions:
  status: ('A' for Active; 'I' for Inactive)
    1  A    between atoms: C_1  and  C_3
    2  A    between atoms: C_7  and  C_29
    3  A    between atoms: C_7  and  C_33
    4  A    between atoms: C_16  and  N_19
    5  A    between atoms: C_16  and  N_30
    6  A    between atoms: C_16  and  O_36
    7  A    between atoms: N_19  and  C_29
    8  A    between atoms: C_24  and  O_34
    9  A    between atoms: P_26  and  O_36
   10  A    between atoms: N_30  and  N_31
                            x       y       z     vdW  Elec       q    Type
                         _______ _______ _______ _____ _____    ______ ____

>  <TORSDO>
F 10

$$$$
=
 OpenBabel11052410593D

 37 40  0  0  1  0  0  0  0  0999 V2000
  161.9330  208.7710  153.2300 C   0  0  1  0  0  3  0  0  0  0  0  0
  161.1190  210.5960  151.7600 C   0  0  0  0  0  0  0  0  0  0  0  0
  158.3350  210.3720  155.5940 O   0  0  0  0  0  0  0  0  0  0  0  0
  158.7780  210.6890  154.4590 C   0  0  0  0  0  0  0  0  0  0  0  0
  158.2050  211.6100  153.6560 N   0  0  0  0  0  2  0  0  0  0  0  0
  158.6670  212.5780  151.4520 C   0  0  0  0  0  1  0  0  0  0  0  0
  158.9500  211.6790  152.5580 N   0  0  0  0  0  0  0  0  0  0  0  0
  162.0150  209.6950  152.0740 N   0  0  0  0  0  0  0  0  0  0  0  0
  159.9000  210.1700  153.8550 C   0  0  0  0  0  0  0  0  0  0  0  0
  159.9800  210.8130  152.6610 C   0  0  0  0  0  0  0  0  0  0  0  0
  160.9140  209.2020  154.2670 C   0  0  0  0  0  0  0  0  0  0  0  0
  161.2850  211.3970  150.5890 N   0  0  0  0  0  2  0  0  0  0  0  0
  160.9000  208.6740  155.4460 N   0  0  0  0  0  2  0  0  0  0  0  0
  161.6100  207.3980  152.7420 C   0  0  0  0  0  0  0  0  0  0  0  0
  160.7500  203.1130  152.0460 C   0  0  0  0  0  3  0  0  0  0  0  0
  161.5030  206.3470  153.5410 O   0  0  0  0  0  0  0  0  0  0  0  0
  161.2330  205.3380  152.7610 C   0  0  0  0  0  0  0  0  0  0  0  0
  161.4170  207.1060  151.4300 N   0  0  0  0  0  0  0  0  0  0  0  0
  160.6900  203.5670  150.7010 C   0  0  0  0  0  0  0  0  0  0  0  0
  161.0250  204.0050  153.0990 C   0  0  0  0  0  3  0  0  0  0  0  0
  160.9070  204.9280  150.4100 C   0  0  0  0  0  3  0  0  0  0  0  0
  161.1770  205.7830  151.4740 C   0  0  0  0  0  0  0  0  0  0  0  0
  160.6670  201.2920  149.7320 C   0  0  0  0  0  1  0  0  0  0  0  0
  160.4230  202.6900  149.6470 O   0  0  0  0  0  0  0  0  0  0  0  0
  162.4310  211.2830  149.7910 N   0  0  0  0  0  2  0  0  0  0  0  0
  162.0250  210.6070  148.5640 C   0  0  1  0  0  3  0  0  0  0  0  0
  161.5810  209.2480  148.8370 N   0  0  0  0  0  2  0  0  0  0  0  0
  162.4620  208.3560  148.1030 C   0  0  0  0  0  2  0  0  0  0  0  0
  161.7340  207.1060  147.7350 C   0  0  0  0  0  0  0  0  0  0  0  0
  160.5260  207.0280  147.8940 O   0  0  0  0  0  0  0  0  0  0  0  0
  162.2920  205.8760  145.7380 N   0  0  0  0  0  1  0  0  0  0  0  0
  162.4910  205.9470  147.1760 C   0  0  0  0  0  2  0  0  0  0  0  0
  161.0650  211.3380  147.8220 O   0  0  0  0  0  0  0  0  0  0  0  0
  161.2220  212.9900  145.5860 O   0  0  0  0  0  0  0  0  0  0  0  0
  163.4330  212.7430  147.2220 O   0  0  0  0  0  1  0  0  0  0  0  0
  161.7410  212.7770  147.1830 P   0  0  0  0  0  0  0  0  0  0  0  0
  161.2600  213.9490  148.0080 O   0  0  0  0  0  1  0  0  0  0  0  0
  1 14  1  6  0  0  0
  1 11  1  0  0  0  0
  2  8  2  0  0  0  0
  2 10  1  0  0  0  0
  4  3  2  0  0  0  0
  5  4  1  0  0  0  0
  6  7  1  0  0  0  0
  7 10  1  0  0  0  0
  7  5  1  0  0  0  0
  8  1  1  0  0  0  0
  9 11  1  0  0  0  0
  9  4  1  0  0  0  0
 10  9  2  0  0  0  0
 11 13  2  0  0  0  0
 12  2  1  0  0  0  0
 14 16  1  0  0  0  0
 15 20  1  0  0  0  0
 17 20  2  0  0  0  0
 17 16  1  0  0  0  0
 18 22  1  0  0  0  0
 18 14  2  0  0  0  0
 19 15  2  0  0  0  0
 21 19  1  0  0  0  0
 21 22  2  0  0  0  0
 22 17  1  0  0  0  0
 24 23  1  0  0  0  0
 24 19  1  0  0  0  0
 25 12  1  0  0  0  0
 26 33  1  1  0  0  0
 26 27  1  0  0  0  0
 26 25  1  0  0  0  0
 28 27  1  0  0  0  0
 29 30  2  0  0  0  0
 29 28  1  0  0  0  0
 31 32  1  0  0  0  0
 32 29  1  0  0  0  0
 34 36  2  0  0  0  0
 36 35  1  0  0  0  0
 36 33  1  0  0  0  0
 36 37  1  0  0  0  0
M  END
>  <MODEL>
4

>  <REMARK>
 VINA RESULT:      -6.1      2.491      3.434
  Name = 
  10 active torsions:
  status: ('A' for Active; 'I' for Inactive)
    1  A    between atoms: C_1  and  C_3
    2  A    between atoms: C_7  and  C_29
    3  A    between atoms: C_7  and  C_33
    4  A    between atoms: C_16  and  N_19
    5  A    between atoms: C_16  and  N_30
    6  A    between atoms: C_16  and  O_36
    7  A    between atoms: N_19  and  C_29
    8  A    between atoms: C_24  and  O_34
    9  A    between atoms: P_26  and  O_36
   10  A    between atoms: N_30  and  N_31
                            x       y       z     vdW  Elec       q    Type
                         _______ _______ _______ _____ _____    ______ ____

>  <TORSDO>
F 10

$$$$
=
 OpenBabel11052410593D

 37 40  0  0  1  0  0  0  0  0999 V2000
  158.4460  211.6360  153.9100 C   0  0  1  0  0  3  0  0  0  0  0  0
  160.2160  210.1030  154.7300 C   0  0  0  0  0  0  0  0  0  0  0  0
  160.3790  214.1140  157.2610 O   0  0  0  0  0  0  0  0  0  0  0  0
  160.6850  212.9850  156.7930 C   0  0  0  0  0  0  0  0  0  0  0  0
  161.7450  212.2590  157.2060 N   0  0  0  0  0  2  0  0  0  0  0  0
  162.7250  210.0790  156.6640 C   0  0  0  0  0  1  0  0  0  0  0  0
  161.7420  211.1360  156.4970 N   0  0  0  0  0  0  0  0  0  0  0  0
  159.1600  210.3400  153.9940 N   0  0  0  0  0  0  0  0  0  0  0  0
  160.0060  212.3080  155.8050 C   0  0  0  0  0  0  0  0  0  0  0  0
  160.6970  211.1490  155.6430 C   0  0  0  0  0  0  0  0  0  0  0  0
  158.7890  212.5810  155.0450 C   0  0  0  0  0  0  0  0  0  0  0  0
  160.8490  208.8240  154.6890 N   0  0  0  0  0  2  0  0  0  0  0  0
  158.0710  213.6290  155.2790 N   0  0  0  0  0  2  0  0  0  0  0  0
  158.7510  212.2850  152.6010 C   0  0  0  0  0  0  0  0  0  0  0  0
  158.8830  214.3400  148.6850 C   0  0  0  0  0  3  0  0  0  0  0  0
  157.8380  212.8890  151.8570 O   0  0  0  0  0  0  0  0  0  0  0  0
  158.4710  213.3110  150.7980 C   0  0  0  0  0  0  0  0  0  0  0  0
  159.9940  212.2930  152.0520 N   0  0  0  0  0  0  0  0  0  0  0  0
  160.2530  213.9740  148.7830 C   0  0  0  0  0  0  0  0  0  0  0  0
  157.9710  214.0080  149.7030 C   0  0  0  0  0  3  0  0  0  0  0  0
  160.7110  213.2690  149.9130 C   0  0  0  0  0  3  0  0  0  0  0  0
  159.7820  212.9560  150.9020 C   0  0  0  0  0  0  0  0  0  0  0  0
  162.5740  214.2710  147.9820 C   0  0  0  0  0  1  0  0  0  0  0  0
  161.1670  214.2950  147.7760 O   0  0  0  0  0  0  0  0  0  0  0  0
  160.3230  207.7810  153.9160 N   0  0  0  0  0  2  0  0  0  0  0  0
  161.2680  207.5420  152.8320 C   0  0  1  0  0  3  0  0  0  0  0  0
  161.9310  206.2550  152.9900 N   0  0  0  0  0  2  0  0  0  0  0  0
  160.9110  205.2300  152.8430 C   0  0  0  0  0  2  0  0  0  0  0  0
  161.2060  204.3830  151.6490 C   0  0  0  0  0  0  0  0  0  0  0  0
  161.8740  203.3680  151.7650 O   0  0  0  0  0  0  0  0  0  0  0  0
  161.2140  203.9000  149.2870 N   0  0  0  0  0  1  0  0  0  0  0  0
  160.6830  204.7850  150.3100 C   0  0  0  0  0  2  0  0  0  0  0  0
  160.6840  207.6810  151.5490 O   0  0  0  0  0  0  0  0  0  0  0  0
  162.2610  209.8290  150.7400 O   0  0  0  0  0  1  0  0  0  0  0  0
  161.2300  208.1310  148.8220 O   0  0  0  0  0  0  0  0  0  0  0  0
  161.8330  208.2270  150.4010 P   0  0  0  0  0  0  0  0  0  0  0  0
  163.0700  207.3640  150.5020 O   0  0  0  0  0  1  0  0  0  0  0  0
  1 14  1  6  0  0  0
  1  8  1  0  0  0  0
  1 11  1  0  0  0  0
  2 10  1  0  0  0  0
  4  5  1  0  0  0  0
  4  3  2  0  0  0  0
  7  6  1  0  0  0  0
  7  5  1  0  0  0  0
  8  2  2  0  0  0  0
  9  4  1  0  0  0  0
 10  9  2  0  0  0  0
 10  7  1  0  0  0  0
 11 13  2  0  0  0  0
 11  9  1  0  0  0  0
 12  2  1  0  0  0  0
 15 19  2  0  0  0  0
 15 20  1  0  0  0  0
 16 14  1  0  0  0  0
 17 22  1  0  0  0  0
 17 16  1  0  0  0  0
 18 14  2  0  0  0  0
 19 21  1  0  0  0  0
 20 17  2  0  0  0  0
 21 22  2  0  0  0  0
 22 18  1  0  0  0  0
 24 23  1  0  0  0  0
 24 19  1  0  0  0  0
 25 12  1  0  0  0  0
 26 33  1  6  0  0  0
 26 27  1  0  0  0  0
 26 25  1  0  0  0  0
 28 27  1  0  0  0  0
 29 30  2  0  0  0  0
 29 28  1  0  0  0  0
 31 32  1  0  0  0  0
 32 29  1  0  0  0  0
 35 36  2  0  0  0  0
 36 37  1  0  0  0  0
 36 34  1  0  0  0  0
 36 33  1  0  0  0  0
M  END
>  <MODEL>
5

>  <REMARK>
 VINA RESULT:      -5.5      3.150      7.557
  Name = 
  10 active torsions:
  status: ('A' for Active; 'I' for Inactive)
    1  A    between atoms: C_1  and  C_3
    2  A    between atoms: C_7  and  C_29
    3  A    between atoms: C_7  and  C_33
    4  A    between atoms: C_16  and  N_19
    5  A    between atoms: C_16  and  N_30
    6  A    between atoms: C_16  and  O_36
    7  A    between atoms: N_19  and  C_29
    8  A    between atoms: C_24  and  O_34
    9  A    between atoms: P_26  and  O_36
   10  A    between atoms: N_30  and  N_31
                            x       y       z     vdW  Elec       q    Type
                         _______ _______ _______ _____ _____    ______ ____

>  <TORSDO>
F 10

$$$$
=
 OpenBabel11052410593D

 37 40  0  0  1  0  0  0  0  0999 V2000
  161.6790  210.3190  152.8920 C   0  0  1  0  0  3  0  0  0  0  0  0
  159.8980  211.9480  152.3190 C   0  0  0  0  0  0  0  0  0  0  0  0
  159.1570  210.3670  156.7310 O   0  0  0  0  0  0  0  0  0  0  0  0
  158.9830  210.9470  155.6270 C   0  0  0  0  0  0  0  0  0  0  0  0
  157.9160  211.7240  155.3420 N   0  0  0  0  0  2  0  0  0  0  0  0
  157.1450  213.0520  153.4320 C   0  0  0  0  0  1  0  0  0  0  0  0
  158.0820  212.1650  154.1000 N   0  0  0  0  0  0  0  0  0  0  0  0
  161.0330  211.3540  152.0510 N   0  0  0  0  0  0  0  0  0  0  0  0
  159.8310  210.8970  154.5440 C   0  0  0  0  0  0  0  0  0  0  0  0
  159.2350  211.6730  153.6010 C   0  0  0  0  0  0  0  0  0  0  0  0
  161.1270  210.2670  154.3030 C   0  0  0  0  0  0  0  0  0  0  0  0
  159.3490  212.8970  151.4040 N   0  0  0  0  0  2  0  0  0  0  0  0
  161.7460  209.6230  155.2360 N   0  0  0  0  0  2  0  0  0  0  0  0
  161.5280  208.9860  152.2380 C   0  0  0  0  0  0  0  0  0  0  0  0
  161.1610  205.4310  149.6300 C   0  0  0  0  0  3  0  0  0  0  0  0
  161.6250  208.8000  150.9310 O   0  0  0  0  0  0  0  0  0  0  0  0
  161.4210  207.5260  150.7410 C   0  0  0  0  0  0  0  0  0  0  0  0
  161.2580  207.8490  152.9320 N   0  0  0  0  0  0  0  0  0  0  0  0
  160.9250  204.8040  150.8830 C   0  0  0  0  0  0  0  0  0  0  0  0
  161.4140  206.8120  149.5470 C   0  0  0  0  0  3  0  0  0  0  0  0
  160.9440  205.5710  152.0640 C   0  0  0  0  0  3  0  0  0  0  0  0
  161.1970  206.9350  151.9480 C   0  0  0  0  0  0  0  0  0  0  0  0
  160.3490  202.6350  149.8440 C   0  0  0  0  0  1  0  0  0  0  0  0
  160.6690  203.4340  150.9760 O   0  0  0  0  0  0  0  0  0  0  0  0
  160.0360  213.2590  150.2380 N   0  0  0  0  0  2  0  0  0  0  0  0
  159.2310  214.2770  149.5730 C   0  0  1  0  0  3  0  0  0  0  0  0
  159.2040  214.0660  148.1330 N   0  0  0  0  0  2  0  0  0  0  0  0
  160.2710  213.1300  147.8210 C   0  0  0  0  0  2  0  0  0  0  0  0
  160.5080  213.0970  146.3460 C   0  0  0  0  0  0  0  0  0  0  0  0
  160.1480  212.1340  145.6870 O   0  0  0  0  0  0  0  0  0  0  0  0
  162.6300  214.0470  145.7100 N   0  0  0  0  0  1  0  0  0  0  0  0
  161.1900  214.2460  145.6810 C   0  0  0  0  0  2  0  0  0  0  0  0
  157.9270  214.3910  150.1150 O   0  0  0  0  0  0  0  0  0  0  0  0
  157.0140  214.4510  147.4850 O   0  0  0  0  0  0  0  0  0  0  0  0
  155.1790  214.1800  149.5300 O   0  0  0  0  0  1  0  0  0  0  0  0
  156.7480  213.7970  149.0230 P   0  0  0  0  0  0  0  0  0  0  0  0
  156.8770  212.2930  148.9380 O   0  0  0  0  0  1  0  0  0  0  0  0
  1 14  1  6  0  0  0
  1 11  1  0  0  0  0
  2 10  1  0  0  0  0
  4  3  2  0  0  0  0
  5  4  1  0  0  0  0
  6  7  1  0  0  0  0
  7  5  1  0  0  0  0
  8  2  2  0  0  0  0
  8  1  1  0  0  0  0
  9  4  1  0  0  0  0
 10  7  1  0  0  0  0
 10  9  2  0  0  0  0
 11  9  1  0  0  0  0
 11 13  2  0  0  0  0
 12  2  1  0  0  0  0
 14 18  2  0  0  0  0
 15 19  1  0  0  0  0
 16 14  1  0  0  0  0
 17 16  1  0  0  0  0
 17 22  2  0  0  0  0
 19 24  1  0  0  0  0
 19 21  2  0  0  0  0
 20 15  2  0  0  0  0
 20 17  1  0  0  0  0
 22 21  1  0  0  0  0
 22 18  1  0  0  0  0
 23 24  1  0  0  0  0
 25 12  1  0  0  0  0
 26 27  1  6  0  0  0
 26 33  1  0  0  0  0
 26 25  1  0  0  0  0
 28 27  1  0  0  0  0
 29 28  1  0  0  0  0
 30 29  2  0  0  0  0
 32 31  1  0  0  0  0
 32 29  1  0  0  0  0
 34 36  2  0  0  0  0
 36 35  1  0  0  0  0
 36 33  1  0  0  0  0
 37 36  1  0  0  0  0
M  END
>  <MODEL>
6

>  <REMARK>
 VINA RESULT:      -5.2      1.697      2.180
  Name = 
  10 active torsions:
  status: ('A' for Active; 'I' for Inactive)
    1  A    between atoms: C_1  and  C_3
    2  A    between atoms: C_7  and  C_29
    3  A    between atoms: C_7  and  C_33
    4  A    between atoms: C_16  and  N_19
    5  A    between atoms: C_16  and  N_30
    6  A    between atoms: C_16  and  O_36
    7  A    between atoms: N_19  and  C_29
    8  A    between atoms: C_24  and  O_34
    9  A    between atoms: P_26  and  O_36
   10  A    between atoms: N_30  and  N_31
                            x       y       z     vdW  Elec       q    Type
                         _______ _______ _______ _____ _____    ______ ____

>  <TORSDO>
F 10

$$$$
=
 OpenBabel11052410593D

 37 40  0  0  1  0  0  0  0  0999 V2000
  162.9230  207.6290  150.4240 C   0  0  1  0  0  3  0  0  0  0  0  0
  161.6080  209.6970  150.8100 C   0  0  0  0  0  0  0  0  0  0  0  0
  160.8310  206.7020  154.4070 O   0  0  0  0  0  0  0  0  0  0  0  0
  160.7310  207.6940  153.6380 C   0  0  0  0  0  0  0  0  0  0  0  0
  159.8940  208.7330  153.8510 N   0  0  0  0  0  2  0  0  0  0  0  0
  159.3570  210.8400  152.7220 C   0  0  0  0  0  1  0  0  0  0  0  0
  160.0700  209.5800  152.8440 N   0  0  0  0  0  0  0  0  0  0  0  0
  162.5140  209.0260  150.1450 N   0  0  0  0  0  0  0  0  0  0  0  0
  161.4420  207.8930  152.4760 C   0  0  0  0  0  0  0  0  0  0  0  0
  161.0020  209.0880  152.0020 C   0  0  0  0  0  0  0  0  0  0  0  0
  162.4950  207.1450  151.7950 C   0  0  0  0  0  0  0  0  0  0  0  0
  161.2620  211.0250  150.4140 N   0  0  0  0  0  2  0  0  0  0  0  0
  162.9910  206.0660  152.3040 N   0  0  0  0  0  2  0  0  0  0  0  0
  162.3640  206.7310  149.3710 C   0  0  0  0  0  0  0  0  0  0  0  0
  160.7040  203.5240  146.8130 C   0  0  0  0  0  3  0  0  0  0  0  0
  161.9910  205.4820  149.6010 O   0  0  0  0  0  0  0  0  0  0  0  0
  161.5770  205.0210  148.4540 C   0  0  0  0  0  0  0  0  0  0  0  0
  162.2070  207.1170  148.0780 N   0  0  0  0  0  0  0  0  0  0  0  0
  160.8310  204.5410  145.8300 C   0  0  0  0  0  0  0  0  0  0  0  0
  161.0800  203.7580  148.1490 C   0  0  0  0  0  3  0  0  0  0  0  0
  161.3390  205.8050  146.1890 C   0  0  0  0  0  3  0  0  0  0  0  0
  161.7020  206.0040  147.5180 C   0  0  0  0  0  0  0  0  0  0  0  0
  159.3310  203.5410  144.1360 C   0  0  0  0  0  1  0  0  0  0  0  0
  160.4650  204.3190  144.5000 O   0  0  0  0  0  0  0  0  0  0  0  0
  161.9240  211.6600  149.3550 N   0  0  0  0  0  2  0  0  0  0  0  0
  161.1130  212.8130  148.9820 C   0  0  1  0  0  3  0  0  0  0  0  0
  160.6550  213.5350  150.1610 N   0  0  0  0  0  2  0  0  0  0  0  0
  159.6080  214.4420  149.7250 C   0  0  0  0  0  2  0  0  0  0  0  0
  158.3140  213.7070  149.5970 C   0  0  0  0  0  0  0  0  0  0  0  0
  157.8410  213.1240  150.5600 O   0  0  0  0  0  0  0  0  0  0  0  0
  156.1960  213.9930  148.4810 N   0  0  0  0  0  1  0  0  0  0  0  0
  157.6030  213.6840  148.2850 C   0  0  0  0  0  2  0  0  0  0  0  0
  161.7610  213.6690  148.0580 O   0  0  0  0  0  0  0  0  0  0  0  0
  160.3810  211.8900  146.4200 O   0  0  0  0  0  1  0  0  0  0  0  0
  162.6080  213.1770  145.4160 O   0  0  0  0  0  0  0  0  0  0  0  0
  161.2760  213.3260  146.4510 P   0  0  0  0  0  0  0  0  0  0  0  0
  160.4000  214.4530  145.9550 O   0  0  0  0  0  1  0  0  0  0  0  0
  1 14  1  6  0  0  0
  1 11  1  0  0  0  0
  2 10  1  0  0  0  0
  4  5  1  0  0  0  0
  4  3  2  0  0  0  0
  6  7  1  0  0  0  0
  7  5  1  0  0  0  0
  8  1  1  0  0  0  0
  8  2  2  0  0  0  0
  9  4  1  0  0  0  0
 10  9  2  0  0  0  0
 10  7  1  0  0  0  0
 11 13  2  0  0  0  0
 11  9  1  0  0  0  0
 12  2  1  0  0  0  0
 14 16  1  0  0  0  0
 15 20  1  0  0  0  0
 17 16  1  0  0  0  0
 18 14  2  0  0  0  0
 19 21  1  0  0  0  0
 19 15  2  0  0  0  0
 20 17  2  0  0  0  0
 21 22  2  0  0  0  0
 22 18  1  0  0  0  0
 22 17  1  0  0  0  0
 23 24  1  0  0  0  0
 24 19  1  0  0  0  0
 25 12  1  0  0  0  0
 26 33  1  6  0  0  0
 26 25  1  0  0  0  0
 26 27  1  0  0  0  0
 28 27  1  0  0  0  0
 29 28  1  0  0  0  0
 29 30  2  0  0  0  0
 32 31  1  0  0  0  0
 32 29  1  0  0  0  0
 34 36  1  0  0  0  0
 35 36  2  0  0  0  0
 36 33  1  0  0  0  0
 37 36  1  0  0  0  0
M  END
>  <MODEL>
7

>  <REMARK>
 VINA RESULT:      -4.5      2.511      3.961
  Name = 
  10 active torsions:
  status: ('A' for Active; 'I' for Inactive)
    1  A    between atoms: C_1  and  C_3
    2  A    between atoms: C_7  and  C_29
    3  A    between atoms: C_7  and  C_33
    4  A    between atoms: C_16  and  N_19
    5  A    between atoms: C_16  and  N_30
    6  A    between atoms: C_16  and  O_36
    7  A    between atoms: N_19  and  C_29
    8  A    between atoms: C_24  and  O_34
    9  A    between atoms: P_26  and  O_36
   10  A    between atoms: N_30  and  N_31
                            x       y       z     vdW  Elec       q    Type
                         _______ _______ _______ _____ _____    ______ ____

>  <TORSDO>
F 10

$$$$
=
 OpenBabel11052410593D

 37 40  0  0  1  0  0  0  0  0999 V2000
  158.3660  211.6830  153.9680 C   0  0  1  0  0  3  0  0  0  0  0  0
  160.1010  210.0860  154.7380 C   0  0  0  0  0  0  0  0  0  0  0  0
  160.4860  214.0890  157.2560 O   0  0  0  0  0  0  0  0  0  0  0  0
  160.7370  212.9500  156.7810 C   0  0  0  0  0  0  0  0  0  0  0  0
  161.7810  212.1850  157.1640 N   0  0  0  0  0  2  0  0  0  0  0  0
  162.6630  209.9700  156.5970 C   0  0  0  0  0  1  0  0  0  0  0  0
  161.7150  211.0630  156.4570 N   0  0  0  0  0  0  0  0  0  0  0  0
  159.0330  210.3620  154.0330 N   0  0  0  0  0  0  0  0  0  0  0  0
  160.0050  212.2970  155.8150 C   0  0  0  0  0  0  0  0  0  0  0  0
  160.6470  211.1140  155.6350 C   0  0  0  0  0  0  0  0  0  0  0  0
  158.7770  212.6150  155.0910 C   0  0  0  0  0  0  0  0  0  0  0  0
  160.6840  208.7850  154.6810 N   0  0  0  0  0  2  0  0  0  0  0  0
  158.1050  213.6900  155.3430 N   0  0  0  0  0  2  0  0  0  0  0  0
  158.6560  212.3190  152.6490 C   0  0  0  0  0  0  0  0  0  0  0  0
  158.7390  214.2960  148.6910 C   0  0  0  0  0  3  0  0  0  0  0  0
  157.7240  212.8600  151.8800 O   0  0  0  0  0  0  0  0  0  0  0  0
  158.3490  213.2920  150.8200 C   0  0  0  0  0  0  0  0  0  0  0  0
  159.9040  212.3810  152.1170 N   0  0  0  0  0  0  0  0  0  0  0  0
  160.1230  214.0040  148.8160 C   0  0  0  0  0  0  0  0  0  0  0  0
  157.8300  213.9380  149.7040 C   0  0  0  0  0  3  0  0  0  0  0  0
  160.6010  213.3480  149.9670 C   0  0  0  0  0  3  0  0  0  0  0  0
  159.6750  213.0070  150.9500 C   0  0  0  0  0  0  0  0  0  0  0  0
  160.9610  213.8270  146.4950 C   0  0  0  0  0  1  0  0  0  0  0  0
  161.0350  214.3510  147.8150 O   0  0  0  0  0  0  0  0  0  0  0  0
  160.0980  207.7610  153.9250 N   0  0  0  0  0  2  0  0  0  0  0  0
  161.0260  207.4500  152.8440 C   0  0  1  0  0  3  0  0  0  0  0  0
  161.8530  208.6030  152.5160 N   0  0  0  0  0  2  0  0  0  0  0  0
  161.1830  209.3140  151.4400 C   0  0  0  0  0  2  0  0  0  0  0  0
  161.9790  209.2060  150.1810 C   0  0  0  0  0  0  0  0  0  0  0  0
  162.3380  210.2140  149.5920 O   0  0  0  0  0  0  0  0  0  0  0  0
  162.6660  207.9650  148.2320 N   0  0  0  0  0  1  0  0  0  0  0  0
  162.3320  207.8600  149.6430 C   0  0  0  0  0  2  0  0  0  0  0  0
  161.8050  206.2960  153.1000 O   0  0  0  0  0  0  0  0  0  0  0  0
  160.3800  205.6140  150.8070 O   0  0  0  0  0  0  0  0  0  0  0  0
  160.6820  203.7290  152.8020 O   0  0  0  0  0  1  0  0  0  0  0  0
  161.4180  205.0320  152.0100 P   0  0  0  0  0  0  0  0  0  0  0  0
  162.6920  204.5460  151.3560 O   0  0  0  0  0  1  0  0  0  0  0  0
  1 14  1  6  0  0  0
  1  8  1  0  0  0  0
  1 11  1  0  0  0  0
  2 10  1  0  0  0  0
  4  5  1  0  0  0  0
  4  3  2  0  0  0  0
  7  6  1  0  0  0  0
  7  5  1  0  0  0  0
  8  2  2  0  0  0  0
  9  4  1  0  0  0  0
 10  9  2  0  0  0  0
 10  7  1  0  0  0  0
 11 13  2  0  0  0  0
 11  9  1  0  0  0  0
 12  2  1  0  0  0  0
 15 19  2  0  0  0  0
 15 20  1  0  0  0  0
 16 14  1  0  0  0  0
 17 22  1  0  0  0  0
 17 16  1  0  0  0  0
 18 14  2  0  0  0  0
 19 21  1  0  0  0  0
 20 17  2  0  0  0  0
 21 22  2  0  0  0  0
 22 18  1  0  0  0  0
 23 24  1  0  0  0  0
 24 19  1  0  0  0  0
 25 12  1  0  0  0  0
 26 27  1  1  0  0  0
 26 33  1  0  0  0  0
 26 25  1  0  0  0  0
 28 27  1  0  0  0  0
 29 28  1  0  0  0  0
 30 29  2  0  0  0  0
 31 32  1  0  0  0  0
 32 29  1  0  0  0  0
 34 36  2  0  0  0  0
 36 35  1  0  0  0  0
 36 33  1  0  0  0  0
 37 36  1  0  0  0  0
M  END
>  <MODEL>
8

>  <REMARK>
 VINA RESULT:      -4.4      3.287      7.290
  Name = 
  10 active torsions:
  status: ('A' for Active; 'I' for Inactive)
    1  A    between atoms: C_1  and  C_3
    2  A    between atoms: C_7  and  C_29
    3  A    between atoms: C_7  and  C_33
    4  A    between atoms: C_16  and  N_19
    5  A    between atoms: C_16  and  N_30
    6  A    between atoms: C_16  and  O_36
    7  A    between atoms: N_19  and  C_29
    8  A    between atoms: C_24  and  O_34
    9  A    between atoms: P_26  and  O_36
   10  A    between atoms: N_30  and  N_31
                            x       y       z     vdW  Elec       q    Type
                         _______ _______ _______ _____ _____    ______ ____

>  <TORSDO>
F 10

$$$$
=
 OpenBabel11052410593D

 37 40  0  0  1  0  0  0  0  0999 V2000
  162.4820  208.0920  151.8990 C   0  0  1  0  0  3  0  0  0  0  0  0
  161.1450  210.1660  151.6440 C   0  0  0  0  0  0  0  0  0  0  0  0
  159.9950  208.1060  155.7610 O   0  0  0  0  0  0  0  0  0  0  0  0
  159.9770  208.8830  154.7700 C   0  0  0  0  0  0  0  0  0  0  0  0
  159.1290  209.9250  154.6430 N   0  0  0  0  0  2  0  0  0  0  0  0
  158.7180  211.6900  152.9940 C   0  0  0  0  0  1  0  0  0  0  0  0
  159.4100  210.5100  153.4850 N   0  0  0  0  0  0  0  0  0  0  0  0
  162.1100  209.3730  151.2530 N   0  0  0  0  0  0  0  0  0  0  0  0
  160.8030  208.8110  153.6710 C   0  0  0  0  0  0  0  0  0  0  0  0
  160.4190  209.8490  152.8820 C   0  0  0  0  0  0  0  0  0  0  0  0
  161.9160  207.9420  153.2970 C   0  0  0  0  0  0  0  0  0  0  0  0
  160.8470  211.3530  150.9090 N   0  0  0  0  0  2  0  0  0  0  0  0
  162.3530  207.0260  154.0980 N   0  0  0  0  0  2  0  0  0  0  0  0
  162.0280  206.9570  151.0430 C   0  0  0  0  0  0  0  0  0  0  0  0
  160.7250  204.1080  147.9170 C   0  0  0  0  0  3  0  0  0  0  0  0
  161.9020  207.0410  149.7280 O   0  0  0  0  0  0  0  0  0  0  0  0
  161.4740  205.8720  149.3400 C   0  0  0  0  0  0  0  0  0  0  0  0
  161.6860  205.7420  151.5460 N   0  0  0  0  0  0  0  0  0  0  0  0
  160.5790  203.2660  149.0520 C   0  0  0  0  0  0  0  0  0  0  0  0
  161.1790  205.4330  148.0530 C   0  0  0  0  0  3  0  0  0  0  0  0
  160.8920  203.7570  150.3340 C   0  0  0  0  0  3  0  0  0  0  0  0
  161.3370  205.0710  150.4340 C   0  0  0  0  0  0  0  0  0  0  0  0
  161.0060  200.8500  148.7320 C   0  0  0  0  0  1  0  0  0  0  0  0
  160.1250  201.9500  148.9290 O   0  0  0  0  0  0  0  0  0  0  0  0
  161.6150  211.7280  149.7990 N   0  0  0  0  0  2  0  0  0  0  0  0
  160.9170  212.8390  149.1600 C   0  0  1  0  0  3  0  0  0  0  0  0
  160.2090  213.6470  150.1420 N   0  0  0  0  0  2  0  0  0  0  0  0
  159.2180  214.4250  149.4170 C   0  0  0  0  0  2  0  0  0  0  0  0
  157.8590  214.1790  149.9850 C   0  0  0  0  0  0  0  0  0  0  0  0
  157.6500  214.3520  151.1750 O   0  0  0  0  0  0  0  0  0  0  0  0
  157.3150  213.0380  147.9330 N   0  0  0  0  0  1  0  0  0  0  0  0
  156.7570  213.7150  149.0920 C   0  0  0  0  0  2  0  0  0  0  0  0
  161.7650  213.6240  148.3410 O   0  0  0  0  0  0  0  0  0  0  0  0
  162.7870  213.6780  145.7520 O   0  0  0  0  0  0  0  0  0  0  0  0
  160.1680  214.4470  146.1690 O   0  0  0  0  0  1  0  0  0  0  0  0
  161.4000  213.4040  146.6810 P   0  0  0  0  0  0  0  0  0  0  0  0
  160.9490  211.9780  146.4670 O   0  0  0  0  0  1  0  0  0  0  0  0
  1 14  1  6  0  0  0
  1 11  1  0  0  0  0
  2 10  1  0  0  0  0
  4  3  2  0  0  0  0
  5  4  1  0  0  0  0
  6  7  1  0  0  0  0
  7  5  1  0  0  0  0
  8  2  2  0  0  0  0
  8  1  1  0  0  0  0
  9  4  1  0  0  0  0
 10  7  1  0  0  0  0
 10  9  2  0  0  0  0
 11  9  1  0  0  0  0
 11 13  2  0  0  0  0
 12  2  1  0  0  0  0
 14 18  2  0  0  0  0
 15 20  2  0  0  0  0
 15 19  1  0  0  0  0
 16 14  1  0  0  0  0
 17 16  1  0  0  0  0
 17 22  2  0  0  0  0
 19 21  2  0  0  0  0
 20 17  1  0  0  0  0
 21 22  1  0  0  0  0
 22 18  1  0  0  0  0
 23 24  1  0  0  0  0
 24 19  1  0  0  0  0
 25 12  1  0  0  0  0
 26 33  1  1  0  0  0
 26 25  1  0  0  0  0
 26 27  1  0  0  0  0
 28 29  1  0  0  0  0
 28 27  1  0  0  0  0
 29 30  2  0  0  0  0
 31 32  1  0  0  0  0
 32 29  1  0  0  0  0
 34 36  2  0  0  0  0
 35 36  1  0  0  0  0
 36 33  1  0  0  0  0
 37 36  1  0  0  0  0
M  END
>  <MODEL>
9

>  <REMARK>
 VINA RESULT:      -4.4      2.347      3.478
  Name = 
  10 active torsions:
  status: ('A' for Active; 'I' for Inactive)
    1  A    between atoms: C_1  and  C_3
    2  A    between atoms: C_7  and  C_29
    3  A    between atoms: C_7  and  C_33
    4  A    between atoms: C_16  and  N_19
    5  A    between atoms: C_16  and  N_30
    6  A    between atoms: C_16  and  O_36
    7  A    between atoms: N_19  and  C_29
    8  A    between atoms: C_24  and  O_34
    9  A    between atoms: P_26  and  O_36
   10  A    between atoms: N_30  and  N_31
                            x       y       z     vdW  Elec       q    Type
                         _______ _______ _______ _____ _____    ______ ____

>  <TORSDO>
F 10

$$$$
