=
 OpenBabel11042420433D

 27 31  0  0  1  0  0  0  0  0999 V2000
  162.0200  207.7940  148.3350 C   0  0  0  0  0  3  0  0  0  0  0  0
  162.1430  209.0370  148.9600 C   0  0  0  0  0  3  0  0  0  0  0  0
  161.3740  208.0690  151.0470 C   0  0  0  0  0  0  0  0  0  0  0  0
  161.5830  206.6710  149.0550 C   0  0  0  0  0  0  0  0  0  0  0  0
  161.2550  206.8270  150.4130 C   0  0  0  0  0  3  0  0  0  0  0  0
  161.8240  209.1750  150.3110 C   0  0  0  0  0  3  0  0  0  0  0  0
  161.1020  202.9210  148.3890 C   0  0  0  0  0  0  0  0  0  0  0  0
  161.1510  202.9260  147.0330 N   0  0  0  0  0  0  0  0  0  0  0  0
  160.9460  202.8820  151.1840 C   0  0  0  0  0  3  0  0  0  0  0  0
  160.9130  201.7130  149.0660 C   0  0  0  0  0  3  0  0  0  0  0  0
  161.2290  204.1330  149.1140 C   0  0  0  0  0  0  0  0  0  0  0  0
  161.1370  204.0930  150.5140 C   0  0  0  0  0  3  0  0  0  0  0  0
  161.4160  205.3450  148.4000 C   0  0  0  0  0  0  0  0  0  0  0  0
  160.8370  201.6930  150.4600 C   0  0  0  0  0  3  0  0  0  0  0  0
  161.4490  205.2920  146.9980 C   0  0  0  0  0  3  0  0  0  0  0  0
  161.3110  204.0760  146.3300 C   0  0  0  0  0  0  0  0  0  0  0  0
  161.3760  204.0350  144.8440 C   0  0  0  0  0  2  0  0  0  0  0  0
  161.1970  205.3740  144.3090 N   0  0  0  0  0  1  0  0  0  0  0  0
  161.2130  209.0870  154.4160 C   0  0  1  0  0  3  0  0  0  0  0  0
  160.9310  207.1040  153.3310 C   0  0  0  0  0  2  0  0  0  0  0  0
  160.9750  209.4110  153.0610 O   0  0  0  0  0  0  0  0  0  0  0  0
  160.2680  209.7930  155.3540 C   0  0  0  0  0  3  0  0  0  0  0  0
  159.7530  209.1590  156.4190 C   0  0  0  0  0  3  0  0  0  0  0  0
  161.0250  207.6190  154.5210 C   0  0  2  0  0  3  0  0  0  0  0  0
  161.0410  208.1980  152.4370 N   0  0  0  0  0  0  0  0  0  0  0  0
  160.5840  206.9890  155.7240 N   0  0  0  0  0  0  0  0  0  0  0  0
  160.0050  207.7120  156.6380 C   0  0  0  0  0  3  0  0  0  0  0  0
  1  2  2  0  0  0  0
  1  4  1  0  0  0  0
  2  6  1  0  0  0  0
  3 25  1  0  0  0  0
  4  5  2  0  0  0  0
  5  3  1  0  0  0  0
  6  3  2  0  0  0  0
  7 10  2  0  0  0  0
  7 11  1  0  0  0  0
  8  7  1  0  0  0  0
 10 14  1  0  0  0  0
 11 12  2  0  0  0  0
 12  9  1  0  0  0  0
 13  4  1  0  0  0  0
 13 11  1  0  0  0  0
 14  9  2  0  0  0  0
 15 13  2  0  0  0  0
 16 15  1  0  0  0  0
 16  8  2  0  0  0  0
 17 16  1  0  0  0  0
 18 17  1  0  0  0  0
 19 24  1  0  0  0  0
 19 22  1  1  0  0  0
 21 19  1  0  0  0  0
 22 23  2  0  0  0  0
 23 27  1  0  0  0  0
 24 20  1  6  0  0  0
 24 26  1  0  0  0  0
 25 21  1  0  0  0  0
 25 20  1  0  0  0  0
 26 27  2  0  0  0  0
M  END
>  <MODEL>
1

>  <REMARK>
 VINA RESULT:     -10.6      0.000      0.000
  Name = 
  3 active torsions:
  status: ('A' for Active; 'I' for Inactive)
    1  A    between atoms: C_14  and  N_19
    2  A    between atoms: C_15  and  C_18
    3  A    between atoms: C_23  and  C_25
                            x       y       z     vdW  Elec       q    Type
                         _______ _______ _______ _____ _____    ______ ____

>  <TORSDO>
F 3

$$$$
=
 OpenBabel11042420433D

 27 31  0  0  1  0  0  0  0  0999 V2000
  161.4380  204.9470  152.3750 C   0  0  0  0  0  3  0  0  0  0  0  0
  161.4500  205.5010  153.6570 C   0  0  0  0  0  3  0  0  0  0  0  0
  160.8200  207.6560  152.7370 C   0  0  0  0  0  0  0  0  0  0  0  0
  161.1090  205.7320  151.2590 C   0  0  0  0  0  0  0  0  0  0  0  0
  160.8100  207.0910  151.4560 C   0  0  0  0  0  3  0  0  0  0  0  0
  161.1410  206.8500  153.8390 C   0  0  0  0  0  3  0  0  0  0  0  0
  161.1000  203.3490  148.2500 C   0  0  0  0  0  0  0  0  0  0  0  0
  161.1800  204.2570  147.2450 N   0  0  0  0  0  0  0  0  0  0  0  0
  160.8830  201.4530  150.2980 C   0  0  0  0  0  3  0  0  0  0  0  0
  161.0420  201.9860  147.9430 C   0  0  0  0  0  3  0  0  0  0  0  0
  161.0620  203.7790  149.6010 C   0  0  0  0  0  0  0  0  0  0  0  0
  160.9420  202.8120  150.6120 C   0  0  0  0  0  3  0  0  0  0  0  0
  161.1190  205.1680  149.8820 C   0  0  0  0  0  0  0  0  0  0  0  0
  160.9360  201.0400  148.9640 C   0  0  0  0  0  3  0  0  0  0  0  0
  161.1910  206.0620  148.8020 C   0  0  0  0  0  3  0  0  0  0  0  0
  161.2170  205.5910  147.4900 C   0  0  0  0  0  0  0  0  0  0  0  0
  161.3210  206.5520  146.3600 C   0  0  0  0  0  2  0  0  0  0  0  0
  160.3240  206.2330  145.3530 N   0  0  0  0  0  1  0  0  0  0  0  0
  160.7290  211.1700  152.5020 C   0  0  1  0  0  3  0  0  0  0  0  0
  160.3430  209.6700  154.1730 C   0  0  0  0  0  2  0  0  0  0  0  0
  160.4990  209.9280  151.8690 O   0  0  0  0  0  0  0  0  0  0  0  0
  159.8260  212.2580  151.9850 C   0  0  0  0  0  3  0  0  0  0  0  0
  159.2870  213.1610  152.8190 C   0  0  0  0  0  3  0  0  0  0  0  0
  160.4700  210.9430  153.9460 C   0  0  2  0  0  3  0  0  0  0  0  0
  160.5020  209.0440  152.9110 N   0  0  0  0  0  0  0  0  0  0  0  0
  160.0060  211.9800  154.8110 N   0  0  0  0  0  0  0  0  0  0  0  0
  159.4680  213.0440  154.2880 C   0  0  0  0  0  3  0  0  0  0  0  0
  1  2  1  0  0  0  0
  2  6  2  0  0  0  0
  3 25  1  0  0  0  0
  3  6  1  0  0  0  0
  4  5  1  0  0  0  0
  4  1  2  0  0  0  0
  5  3  2  0  0  0  0
  7 11  1  0  0  0  0
  8 16  2  0  0  0  0
  8  7  1  0  0  0  0
  9 12  1  0  0  0  0
 10  7  2  0  0  0  0
 10 14  1  0  0  0  0
 11 13  1  0  0  0  0
 11 12  2  0  0  0  0
 13  4  1  0  0  0  0
 14  9  2  0  0  0  0
 15 13  2  0  0  0  0
 16 15  1  0  0  0  0
 17 16  1  0  0  0  0
 18 17  1  0  0  0  0
 19 22  1  6  0  0  0
 19 24  1  0  0  0  0
 21 19  1  0  0  0  0
 21 25  1  0  0  0  0
 22 23  2  0  0  0  0
 23 27  1  0  0  0  0
 24 20  1  6  0  0  0
 24 26  1  0  0  0  0
 25 20  1  0  0  0  0
 27 26  2  0  0  0  0
M  END
>  <MODEL>
2

>  <REMARK>
 VINA RESULT:     -10.3      1.994      3.095
  Name = 
  3 active torsions:
  status: ('A' for Active; 'I' for Inactive)
    1  A    between atoms: C_14  and  N_19
    2  A    between atoms: C_15  and  C_18
    3  A    between atoms: C_23  and  C_25
                            x       y       z     vdW  Elec       q    Type
                         _______ _______ _______ _____ _____    ______ ____

>  <TORSDO>
F 3

$$$$
=
 OpenBabel11042420433D

 27 31  0  0  1  0  0  0  0  0999 V2000
  161.1210  201.9810  150.4050 C   0  0  0  0  0  3  0  0  0  0  0  0
  161.1130  202.1370  151.7930 C   0  0  0  0  0  3  0  0  0  0  0  0
  161.0000  204.5460  151.5270 C   0  0  0  0  0  0  0  0  0  0  0  0
  161.0580  203.0990  149.5590 C   0  0  0  0  0  0  0  0  0  0  0  0
  161.0070  204.3800  150.1370 C   0  0  0  0  0  3  0  0  0  0  0  0
  161.0510  203.4130  152.3530 C   0  0  0  0  0  3  0  0  0  0  0  0
  161.4280  203.7690  145.7970 C   0  0  0  0  0  0  0  0  0  0  0  0
  161.0870  202.5460  145.3170 N   0  0  0  0  0  0  0  0  0  0  0  0
  162.1850  206.2880  146.7560 C   0  0  0  0  0  3  0  0  0  0  0  0
  161.7730  204.7870  144.9030 C   0  0  0  0  0  3  0  0  0  0  0  0
  161.4470  204.0090  147.1950 C   0  0  0  0  0  0  0  0  0  0  0  0
  161.8390  205.2760  147.6550 C   0  0  0  0  0  3  0  0  0  0  0  0
  161.0950  202.9560  148.0780 C   0  0  0  0  0  0  0  0  0  0  0  0
  162.1490  206.0440  145.3810 C   0  0  0  0  0  3  0  0  0  0  0  0
  160.7610  201.7100  147.5260 C   0  0  0  0  0  3  0  0  0  0  0  0
  160.7650  201.5200  146.1450 C   0  0  0  0  0  0  0  0  0  0  0  0
  160.3820  200.2000  145.5770 C   0  0  0  0  0  2  0  0  0  0  0  0
  161.3700  199.2020  145.9470 N   0  0  0  0  0  1  0  0  0  0  0  0
  161.4680  207.9720  152.2010 C   0  0  1  0  0  3  0  0  0  0  0  0
  161.0270  206.1380  153.4790 C   0  0  0  0  0  2  0  0  0  0  0  0
  160.9660  206.9890  151.3180 O   0  0  0  0  0  0  0  0  0  0  0  0
  160.7060  209.2680  152.1170 C   0  0  0  0  0  3  0  0  0  0  0  0
  160.4210  209.9730  153.2230 C   0  0  0  0  0  3  0  0  0  0  0  0
  161.3370  207.3970  153.5640 C   0  0  2  0  0  3  0  0  0  0  0  0
  160.9380  205.8630  152.0910 N   0  0  0  0  0  0  0  0  0  0  0  0
  161.1510  208.2100  154.7220 N   0  0  0  0  0  0  0  0  0  0  0  0
  160.7420  209.4370  154.5710 C   0  0  0  0  0  3  0  0  0  0  0  0
  1  2  1  0  0  0  0
  2  6  2  0  0  0  0
  3 25  1  0  0  0  0
  3  6  1  0  0  0  0
  4  5  1  0  0  0  0
  4  1  2  0  0  0  0
  5  3  2  0  0  0  0
  7 11  1  0  0  0  0
  8  7  2  0  0  0  0
  8 16  1  0  0  0  0
  9 12  2  0  0  0  0
 10 14  2  0  0  0  0
 10  7  1  0  0  0  0
 11 12  1  0  0  0  0
 11 13  2  0  0  0  0
 13  4  1  0  0  0  0
 14  9  1  0  0  0  0
 15 13  1  0  0  0  0
 16 15  2  0  0  0  0
 17 18  1  0  0  0  0
 17 16  1  0  0  0  0
 19 22  1  1  0  0  0
 19 24  1  0  0  0  0
 21 25  1  0  0  0  0
 21 19  1  0  0  0  0
 22 23  2  0  0  0  0
 23 27  1  0  0  0  0
 24 20  1  6  0  0  0
 24 26  1  0  0  0  0
 25 20  1  0  0  0  0
 27 26  2  0  0  0  0
M  END
>  <MODEL>
3

>  <REMARK>
 VINA RESULT:     -10.2      1.746      4.018
  Name = 
  3 active torsions:
  status: ('A' for Active; 'I' for Inactive)
    1  A    between atoms: C_14  and  N_19
    2  A    between atoms: C_15  and  C_18
    3  A    between atoms: C_23  and  C_25
                            x       y       z     vdW  Elec       q    Type
                         _______ _______ _______ _____ _____    ______ ____

>  <TORSDO>
F 3

$$$$
=
 OpenBabel11042420433D

 27 31  0  0  1  0  0  0  0  0999 V2000
  161.2760  203.8080  151.4060 C   0  0  0  0  0  3  0  0  0  0  0  0
  161.2920  204.1720  152.7550 C   0  0  0  0  0  3  0  0  0  0  0  0
  161.0060  206.5000  152.1340 C   0  0  0  0  0  0  0  0  0  0  0  0
  161.1160  204.7780  150.4040 C   0  0  0  0  0  0  0  0  0  0  0  0
  160.9910  206.1250  150.7850 C   0  0  0  0  0  3  0  0  0  0  0  0
  161.1550  205.5130  153.1180 C   0  0  0  0  0  3  0  0  0  0  0  0
  161.1740  202.8420  147.0900 C   0  0  0  0  0  0  0  0  0  0  0  0
  161.1780  203.8860  146.2220 N   0  0  0  0  0  0  0  0  0  0  0  0
  161.1150  200.6690  148.8530 C   0  0  0  0  0  3  0  0  0  0  0  0
  161.1870  201.5350  146.5950 C   0  0  0  0  0  3  0  0  0  0  0  0
  161.1430  203.0760  148.4880 C   0  0  0  0  0  0  0  0  0  0  0  0
  161.1030  201.9720  149.3550 C   0  0  0  0  0  3  0  0  0  0  0  0
  161.1260  204.4130  148.9610 C   0  0  0  0  0  0  0  0  0  0  0  0
  161.1600  200.4500  147.4740 C   0  0  0  0  0  3  0  0  0  0  0  0
  161.1210  205.4520  148.0180 C   0  0  0  0  0  3  0  0  0  0  0  0
  161.1430  205.1720  146.6530 C   0  0  0  0  0  0  0  0  0  0  0  0
  161.1650  206.2860  145.6670 C   0  0  0  0  0  2  0  0  0  0  0  0
  161.1880  205.7460  144.3190 N   0  0  0  0  0  1  0  0  0  0  0  0
  161.2940  210.0080  152.3010 C   0  0  1  0  0  3  0  0  0  0  0  0
  160.9080  208.3620  153.8280 C   0  0  0  0  0  2  0  0  0  0  0  0
  160.8610  208.8820  151.5640 O   0  0  0  0  0  0  0  0  0  0  0  0
  160.4730  211.2370  152.0110 C   0  0  0  0  0  3  0  0  0  0  0  0
  160.1270  212.0820  152.9960 C   0  0  0  0  0  3  0  0  0  0  0  0
  161.1560  209.6340  153.7310 C   0  0  2  0  0  3  0  0  0  0  0  0
  160.8670  207.8820  152.4950 N   0  0  0  0  0  0  0  0  0  0  0  0
  160.9020  210.5990  154.7520 N   0  0  0  0  0  0  0  0  0  0  0  0
  160.4390  211.7680  154.4130 C   0  0  0  0  0  3  0  0  0  0  0  0
  1  2  1  0  0  0  0
  2  6  2  0  0  0  0
  3 25  1  0  0  0  0
  3  6  1  0  0  0  0
  4  5  1  0  0  0  0
  4  1  2  0  0  0  0
  5  3  2  0  0  0  0
  7 11  1  0  0  0  0
  8 16  2  0  0  0  0
  8  7  1  0  0  0  0
  9 12  1  0  0  0  0
 10  7  2  0  0  0  0
 10 14  1  0  0  0  0
 11 13  1  0  0  0  0
 11 12  2  0  0  0  0
 13  4  1  0  0  0  0
 14  9  2  0  0  0  0
 15 13  2  0  0  0  0
 16 15  1  0  0  0  0
 17 16  1  0  0  0  0
 18 17  1  0  0  0  0
 19 22  1  1  0  0  0
 19 24  1  0  0  0  0
 21 19  1  0  0  0  0
 21 25  1  0  0  0  0
 22 23  2  0  0  0  0
 23 27  1  0  0  0  0
 24 20  1  6  0  0  0
 24 26  1  0  0  0  0
 25 20  1  0  0  0  0
 27 26  2  0  0  0  0
M  END
>  <MODEL>
4

>  <REMARK>
 VINA RESULT:     -10.2      1.738      2.905
  Name = 
  3 active torsions:
  status: ('A' for Active; 'I' for Inactive)
    1  A    between atoms: C_14  and  N_19
    2  A    between atoms: C_15  and  C_18
    3  A    between atoms: C_23  and  C_25
                            x       y       z     vdW  Elec       q    Type
                         _______ _______ _______ _____ _____    ______ ____

>  <TORSDO>
F 3

$$$$
=
 OpenBabel11042420433D

 27 31  0  0  1  0  0  0  0  0999 V2000
  161.1410  205.3810  153.1820 C   0  0  0  0  0  3  0  0  0  0  0  0
  161.2650  204.1340  152.5650 C   0  0  0  0  0  3  0  0  0  0  0  0
  161.0850  205.1880  150.3880 C   0  0  0  0  0  0  0  0  0  0  0  0
  160.9980  206.5480  152.4160 C   0  0  0  0  0  0  0  0  0  0  0  0
  160.9630  206.4340  151.0150 C   0  0  0  0  0  3  0  0  0  0  0  0
  161.2400  204.0370  151.1730 C   0  0  0  0  0  3  0  0  0  0  0  0
  160.4570  209.3840  154.9460 C   0  0  0  0  0  0  0  0  0  0  0  0
  160.5140  210.4480  154.1050 N   0  0  0  0  0  0  0  0  0  0  0  0
  160.3850  207.2150  156.7130 C   0  0  0  0  0  3  0  0  0  0  0  0
  160.2480  209.5970  156.3110 C   0  0  0  0  0  3  0  0  0  0  0  0
  160.6210  208.0670  154.4450 C   0  0  0  0  0  0  0  0  0  0  0  0
  160.5920  206.9940  155.3500 C   0  0  0  0  0  3  0  0  0  0  0  0
  160.8350  207.8820  153.0550 C   0  0  0  0  0  0  0  0  0  0  0  0
  160.2110  208.5150  157.1940 C   0  0  0  0  0  3  0  0  0  0  0  0
  160.8940  209.0190  152.2350 C   0  0  0  0  0  3  0  0  0  0  0  0
  160.7360  210.2940  152.7750 C   0  0  0  0  0  0  0  0  0  0  0  0
  160.7740  211.4860  151.8860 C   0  0  0  0  0  2  0  0  0  0  0  0
  159.7520  212.4350  152.2950 N   0  0  0  0  0  1  0  0  0  0  0  0
  161.9010  204.6340  147.0050 C   0  0  1  0  0  3  0  0  0  0  0  0
  160.5930  206.1400  148.1080 C   0  0  0  0  0  2  0  0  0  0  0  0
  161.6390  204.0720  148.2750 O   0  0  0  0  0  0  0  0  0  0  0  0
  161.5280  203.7100  145.8760 C   0  0  0  0  0  3  0  0  0  0  0  0
  160.9450  204.1820  144.7630 C   0  0  0  0  0  3  0  0  0  0  0  0
  161.0850  205.8720  146.9350 C   0  0  2  0  0  3  0  0  0  0  0  0
  161.0550  205.1020  148.9560 N   0  0  0  0  0  0  0  0  0  0  0  0
  160.5890  206.3910  145.7010 N   0  0  0  0  0  0  0  0  0  0  0  0
  160.5410  205.6080  144.6620 C   0  0  0  0  0  3  0  0  0  0  0  0
  2  1  1  0  0  0  0
  3  5  2  0  0  0  0
  3  6  1  0  0  0  0
  4 13  1  0  0  0  0
  4  1  2  0  0  0  0
  5  4  1  0  0  0  0
  6  2  2  0  0  0  0
  7 10  1  0  0  0  0
  8  7  1  0  0  0  0
  9 14  1  0  0  0  0
 10 14  2  0  0  0  0
 11  7  2  0  0  0  0
 11 12  1  0  0  0  0
 12  9  2  0  0  0  0
 13 11  1  0  0  0  0
 15 16  1  0  0  0  0
 15 13  2  0  0  0  0
 16  8  2  0  0  0  0
 17 18  1  0  0  0  0
 17 16  1  0  0  0  0
 19 22  1  6  0  0  0
 19 21  1  0  0  0  0
 20 25  1  0  0  0  0
 21 25  1  0  0  0  0
 23 22  2  0  0  0  0
 24 19  1  0  0  0  0
 24 20  1  1  0  0  0
 25  3  1  0  0  0  0
 26 24  1  0  0  0  0
 27 23  1  0  0  0  0
 27 26  2  0  0  0  0
M  END
>  <MODEL>
5

>  <REMARK>
 VINA RESULT:     -10.1      2.313      8.144
  Name = 
  3 active torsions:
  status: ('A' for Active; 'I' for Inactive)
    1  A    between atoms: C_14  and  N_19
    2  A    between atoms: C_15  and  C_18
    3  A    between atoms: C_23  and  C_25
                            x       y       z     vdW  Elec       q    Type
                         _______ _______ _______ _____ _____    ______ ____

>  <TORSDO>
F 3

$$$$
=
 OpenBabel11042420433D

 27 31  0  0  1  0  0  0  0  0999 V2000
  161.0180  204.1400  152.8880 C   0  0  0  0  0  3  0  0  0  0  0  0
  161.0230  202.9690  152.1250 C   0  0  0  0  0  3  0  0  0  0  0  0
  161.0840  204.2890  150.0910 C   0  0  0  0  0  0  0  0  0  0  0  0
  161.0560  205.3980  152.2680 C   0  0  0  0  0  0  0  0  0  0  0  0
  161.0800  205.4570  150.8640 C   0  0  0  0  0  3  0  0  0  0  0  0
  161.0570  203.0430  150.7320 C   0  0  0  0  0  3  0  0  0  0  0  0
  161.2800  209.0660  153.3750 C   0  0  0  0  0  0  0  0  0  0  0  0
  160.9470  208.9260  154.6840 N   0  0  0  0  0  0  0  0  0  0  0  0
  161.9190  209.3970  150.6700 C   0  0  0  0  0  3  0  0  0  0  0  0
  161.5680  210.3380  152.8710 C   0  0  0  0  0  3  0  0  0  0  0  0
  161.3220  207.9340  152.5230 C   0  0  0  0  0  0  0  0  0  0  0  0
  161.6350  208.1230  151.1670 C   0  0  0  0  0  3  0  0  0  0  0  0
  161.0220  206.6570  153.0620 C   0  0  0  0  0  0  0  0  0  0  0  0
  161.8880  210.5040  151.5220 C   0  0  0  0  0  3  0  0  0  0  0  0
  160.6750  206.5720  154.4190 C   0  0  0  0  0  3  0  0  0  0  0  0
  160.6390  207.7160  155.2150 C   0  0  0  0  0  0  0  0  0  0  0  0
  160.2960  207.6040  156.6580 C   0  0  0  0  0  2  0  0  0  0  0  0
  160.2630  208.9270  157.2580 N   0  0  0  0  0  1  0  0  0  0  0  0
  161.7040  203.7150  146.6710 C   0  0  1  0  0  3  0  0  0  0  0  0
  161.3740  205.5750  147.9440 C   0  0  0  0  0  2  0  0  0  0  0  0
  161.0800  203.2720  147.8590 O   0  0  0  0  0  0  0  0  0  0  0  0
  160.9660  203.2760  145.4330 C   0  0  0  0  0  3  0  0  0  0  0  0
  160.8280  204.1030  144.3840 C   0  0  0  0  0  3  0  0  0  0  0  0
  161.7200  205.1970  146.7500 C   0  0  2  0  0  3  0  0  0  0  0  0
  161.1170  204.3780  148.6600 N   0  0  0  0  0  0  0  0  0  0  0  0
  161.6890  206.0250  145.5880 N   0  0  0  0  0  0  0  0  0  0  0  0
  161.2920  205.5110  144.4590 C   0  0  0  0  0  3  0  0  0  0  0  0
  2  1  2  0  0  0  0
  3  6  2  0  0  0  0
  3  5  1  0  0  0  0
  4  1  1  0  0  0  0
  4 13  1  0  0  0  0
  5  4  2  0  0  0  0
  6  2  1  0  0  0  0
  7  8  2  0  0  0  0
  8 16  1  0  0  0  0
  9 12  2  0  0  0  0
  9 14  1  0  0  0  0
 10  7  1  0  0  0  0
 11 13  2  0  0  0  0
 11  7  1  0  0  0  0
 12 11  1  0  0  0  0
 13 15  1  0  0  0  0
 14 10  2  0  0  0  0
 15 16  2  0  0  0  0
 16 17  1  0  0  0  0
 17 18  1  0  0  0  0
 19 22  1  6  0  0  0
 19 24  1  0  0  0  0
 19 21  1  0  0  0  0
 20 25  1  0  0  0  0
 21 25  1  0  0  0  0
 23 27  1  0  0  0  0
 23 22  2  0  0  0  0
 24 20  1  1  0  0  0
 25  3  1  0  0  0  0
 26 24  1  0  0  0  0
 27 26  2  0  0  0  0
M  END
>  <MODEL>
6

>  <REMARK>
 VINA RESULT:     -10.0      2.094      8.446
  Name = 
  3 active torsions:
  status: ('A' for Active; 'I' for Inactive)
    1  A    between atoms: C_14  and  N_19
    2  A    between atoms: C_15  and  C_18
    3  A    between atoms: C_23  and  C_25
                            x       y       z     vdW  Elec       q    Type
                         _______ _______ _______ _____ _____    ______ ____

>  <TORSDO>
F 3

$$$$
=
 OpenBabel11042420433D

 27 31  0  0  1  0  0  0  0  0999 V2000
  161.8670  207.8000  148.9010 C   0  0  0  0  0  3  0  0  0  0  0  0
  161.9710  209.0540  149.5080 C   0  0  0  0  0  3  0  0  0  0  0  0
  161.3480  208.0780  151.6400 C   0  0  0  0  0  0  0  0  0  0  0  0
  161.5140  206.6680  149.6520 C   0  0  0  0  0  0  0  0  0  0  0  0
  161.2480  206.8250  151.0230 C   0  0  0  0  0  3  0  0  0  0  0  0
  161.7140  209.1930  150.8730 C   0  0  0  0  0  3  0  0  0  0  0  0
  161.3840  203.7770  147.1300 C   0  0  0  0  0  0  0  0  0  0  0  0
  161.0300  202.7670  147.9660 N   0  0  0  0  0  0  0  0  0  0  0  0
  162.1630  205.8260  145.3900 C   0  0  0  0  0  3  0  0  0  0  0  0
  161.5770  203.5100  145.7720 C   0  0  0  0  0  3  0  0  0  0  0  0
  161.5690  205.0890  147.6340 C   0  0  0  0  0  0  0  0  0  0  0  0
  161.9700  206.1010  146.7460 C   0  0  0  0  0  3  0  0  0  0  0  0
  161.3700  205.3290  149.0170 C   0  0  0  0  0  0  0  0  0  0  0  0
  161.9640  204.5330  144.9030 C   0  0  0  0  0  3  0  0  0  0  0  0
  161.0150  204.2460  149.8350 C   0  0  0  0  0  3  0  0  0  0  0  0
  160.8530  202.9710  149.2960 C   0  0  0  0  0  0  0  0  0  0  0  0
  160.4490  201.8400  150.1730 C   0  0  0  0  0  2  0  0  0  0  0  0
  161.0250  200.6030  149.6740 N   0  0  0  0  0  1  0  0  0  0  0  0
  161.4490  208.9850  155.0430 C   0  0  1  0  0  3  0  0  0  0  0  0
  160.8200  207.1140  153.9070 C   0  0  0  0  0  2  0  0  0  0  0  0
  161.2280  209.3920  153.7080 O   0  0  0  0  0  0  0  0  0  0  0  0
  160.6580  209.7980  156.0340 C   0  0  0  0  0  3  0  0  0  0  0  0
  160.0780  209.2170  157.0960 C   0  0  0  0  0  3  0  0  0  0  0  0
  161.0300  207.5630  155.1080 C   0  0  2  0  0  3  0  0  0  0  0  0
  161.0800  208.2080  153.0430 N   0  0  0  0  0  0  0  0  0  0  0  0
  160.5280  206.9680  156.3050 N   0  0  0  0  0  0  0  0  0  0  0  0
  160.0990  207.7410  157.2600 C   0  0  0  0  0  3  0  0  0  0  0  0
  1  2  2  0  0  0  0
  1  4  1  0  0  0  0
  2  6  1  0  0  0  0
  3 25  1  0  0  0  0
  4  5  2  0  0  0  0
  5  3  1  0  0  0  0
  6  3  2  0  0  0  0
  7 11  1  0  0  0  0
  7  8  2  0  0  0  0
  8 16  1  0  0  0  0
  9 12  2  0  0  0  0
 10  7  1  0  0  0  0
 11 13  2  0  0  0  0
 12 11  1  0  0  0  0
 13  4  1  0  0  0  0
 13 15  1  0  0  0  0
 14  9  1  0  0  0  0
 14 10  2  0  0  0  0
 16 15  2  0  0  0  0
 16 17  1  0  0  0  0
 18 17  1  0  0  0  0
 19 24  1  0  0  0  0
 19 22  1  1  0  0  0
 21 19  1  0  0  0  0
 22 23  2  0  0  0  0
 23 27  1  0  0  0  0
 24 20  1  6  0  0  0
 24 26  1  0  0  0  0
 25 21  1  0  0  0  0
 25 20  1  0  0  0  0
 26 27  2  0  0  0  0
M  END
>  <MODEL>
7

>  <REMARK>
 VINA RESULT:      -9.8      1.143      2.953
  Name = 
  3 active torsions:
  status: ('A' for Active; 'I' for Inactive)
    1  A    between atoms: C_14  and  N_19
    2  A    between atoms: C_15  and  C_18
    3  A    between atoms: C_23  and  C_25
                            x       y       z     vdW  Elec       q    Type
                         _______ _______ _______ _____ _____    ______ ____

>  <TORSDO>
F 3

$$$$
=
 OpenBabel11042420433D

 27 31  0  0  1  0  0  0  0  0999 V2000
  161.2050  205.0080  153.0400 C   0  0  0  0  0  3  0  0  0  0  0  0
  161.1780  203.6890  152.5800 C   0  0  0  0  0  3  0  0  0  0  0  0
  161.0910  204.4850  150.2900 C   0  0  0  0  0  0  0  0  0  0  0  0
  161.1860  206.0820  152.1370 C   0  0  0  0  0  0  0  0  0  0  0  0
  161.1200  205.8030  150.7610 C   0  0  0  0  0  3  0  0  0  0  0  0
  161.1230  203.4280  151.2110 C   0  0  0  0  0  3  0  0  0  0  0  0
  160.8370  209.2600  154.2600 C   0  0  0  0  0  0  0  0  0  0  0  0
  161.2000  210.1870  153.3380 N   0  0  0  0  0  0  0  0  0  0  0  0
  160.1320  207.3700  156.2010 C   0  0  0  0  0  3  0  0  0  0  0  0
  160.4880  209.6730  155.5500 C   0  0  0  0  0  3  0  0  0  0  0  0
  160.8230  207.8830  153.9240 C   0  0  0  0  0  0  0  0  0  0  0  0
  160.4770  206.9510  154.9150 C   0  0  0  0  0  3  0  0  0  0  0  0
  161.1850  207.4940  152.6090 C   0  0  0  0  0  0  0  0  0  0  0  0
  160.1350  208.7310  156.5180 C   0  0  0  0  0  3  0  0  0  0  0  0
  161.5620  208.4940  151.6990 C   0  0  0  0  0  3  0  0  0  0  0  0
  161.5680  209.8350  152.0800 C   0  0  0  0  0  0  0  0  0  0  0  0
  161.9430  210.8840  151.0940 C   0  0  0  0  0  2  0  0  0  0  0  0
  162.1240  210.2820  149.7840 N   0  0  0  0  0  1  0  0  0  0  0  0
  161.5800  203.1710  147.0580 C   0  0  1  0  0  3  0  0  0  0  0  0
  161.1020  205.2390  147.8870 C   0  0  0  0  0  2  0  0  0  0  0  0
  161.0830  202.9650  148.3650 O   0  0  0  0  0  0  0  0  0  0  0  0
  160.8320  202.3740  146.0230 C   0  0  0  0  0  3  0  0  0  0  0  0
  160.5350  202.9050  144.8260 C   0  0  0  0  0  3  0  0  0  0  0  0
  161.4220  204.6220  146.7880 C   0  0  2  0  0  3  0  0  0  0  0  0
  161.0320  204.2300  148.8800 N   0  0  0  0  0  0  0  0  0  0  0  0
  161.2260  205.1380  145.4720 N   0  0  0  0  0  0  0  0  0  0  0  0
  160.8310  204.3300  144.5310 C   0  0  0  0  0  3  0  0  0  0  0  0
  2  1  1  0  0  0  0
  3  5  2  0  0  0  0
  3  6  1  0  0  0  0
  4 13  1  0  0  0  0
  4  1  2  0  0  0  0
  5  4  1  0  0  0  0
  6  2  2  0  0  0  0
  7 10  1  0  0  0  0
  8  7  1  0  0  0  0
  9 14  1  0  0  0  0
 10 14  2  0  0  0  0
 11  7  2  0  0  0  0
 11 12  1  0  0  0  0
 12  9  2  0  0  0  0
 13 11  1  0  0  0  0
 15 16  1  0  0  0  0
 15 13  2  0  0  0  0
 16  8  2  0  0  0  0
 17 16  1  0  0  0  0
 18 17  1  0  0  0  0
 19 22  1  6  0  0  0
 19 21  1  0  0  0  0
 20 25  1  0  0  0  0
 21 25  1  0  0  0  0
 23 22  2  0  0  0  0
 24 19  1  0  0  0  0
 24 20  1  1  0  0  0
 25  3  1  0  0  0  0
 26 24  1  0  0  0  0
 27 23  1  0  0  0  0
 27 26  2  0  0  0  0
M  END
>  <MODEL>
8

>  <REMARK>
 VINA RESULT:      -9.8      2.221      8.011
  Name = 
  3 active torsions:
  status: ('A' for Active; 'I' for Inactive)
    1  A    between atoms: C_14  and  N_19
    2  A    between atoms: C_15  and  C_18
    3  A    between atoms: C_23  and  C_25
                            x       y       z     vdW  Elec       q    Type
                         _______ _______ _______ _____ _____    ______ ____

>  <TORSDO>
F 3

$$$$
=
 OpenBabel11042420433D

 27 31  0  0  1  0  0  0  0  0999 V2000
  161.1670  205.3900  153.0840 C   0  0  0  0  0  3  0  0  0  0  0  0
  161.0430  204.0120  152.8930 C   0  0  0  0  0  3  0  0  0  0  0  0
  161.0330  204.3410  150.4890 C   0  0  0  0  0  0  0  0  0  0  0  0
  161.2370  206.2620  151.9860 C   0  0  0  0  0  0  0  0  0  0  0  0
  161.1590  205.7210  150.6910 C   0  0  0  0  0  3  0  0  0  0  0  0
  160.9780  203.4890  151.6010 C   0  0  0  0  0  3  0  0  0  0  0  0
  161.7120  210.0260  151.4030 C   0  0  0  0  0  0  0  0  0  0  0  0
  161.5360  210.4730  152.6720 N   0  0  0  0  0  0  0  0  0  0  0  0
  162.0310  209.1420  148.7660 C   0  0  0  0  0  3  0  0  0  0  0  0
  161.9780  210.9420  150.3810 C   0  0  0  0  0  3  0  0  0  0  0  0
  161.6140  208.6410  151.1120 C   0  0  0  0  0  0  0  0  0  0  0  0
  161.7670  208.2200  149.7820 C   0  0  0  0  0  3  0  0  0  0  0  0
  161.3400  207.7350  152.1690 C   0  0  0  0  0  0  0  0  0  0  0  0
  162.1390  210.5010  149.0660 C   0  0  0  0  0  3  0  0  0  0  0  0
  161.1570  208.2550  153.4590 C   0  0  0  0  0  3  0  0  0  0  0  0
  161.2540  209.6260  153.6940 C   0  0  0  0  0  0  0  0  0  0  0  0
  161.0850  210.1560  155.0730 C   0  0  0  0  0  2  0  0  0  0  0  0
  162.3400  210.7210  155.5380 N   0  0  0  0  0  1  0  0  0  0  0  0
  161.3620  202.3300  147.6150 C   0  0  1  0  0  3  0  0  0  0  0  0
  161.2360  204.5740  147.9890 C   0  0  0  0  0  2  0  0  0  0  0  0
  160.8040  202.4820  148.9050 O   0  0  0  0  0  0  0  0  0  0  0  0
  160.5100  201.4740  146.7150 C   0  0  0  0  0  3  0  0  0  0  0  0
  160.3420  201.7900  145.4210 C   0  0  0  0  0  3  0  0  0  0  0  0
  161.4690  203.7000  147.0550 C   0  0  2  0  0  3  0  0  0  0  0  0
  160.9650  203.8160  149.1560 N   0  0  0  0  0  0  0  0  0  0  0  0
  161.3990  203.9610  145.6540 N   0  0  0  0  0  0  0  0  0  0  0  0
  160.8910  203.0550  144.8690 C   0  0  0  0  0  3  0  0  0  0  0  0
  2  1  1  0  0  0  0
  3  5  2  0  0  0  0
  3  6  1  0  0  0  0
  4 13  1  0  0  0  0
  4  1  2  0  0  0  0
  5  4  1  0  0  0  0
  6  2  2  0  0  0  0
  7  8  2  0  0  0  0
  8 16  1  0  0  0  0
  9 14  1  0  0  0  0
  9 12  2  0  0  0  0
 10  7  1  0  0  0  0
 11  7  1  0  0  0  0
 11 13  2  0  0  0  0
 12 11  1  0  0  0  0
 13 15  1  0  0  0  0
 14 10  2  0  0  0  0
 15 16  2  0  0  0  0
 16 17  1  0  0  0  0
 17 18  1  0  0  0  0
 19 22  1  6  0  0  0
 19 21  1  0  0  0  0
 20 25  1  0  0  0  0
 21 25  1  0  0  0  0
 23 22  2  0  0  0  0
 24 19  1  0  0  0  0
 24 20  1  1  0  0  0
 25  3  1  0  0  0  0
 26 24  1  0  0  0  0
 27 23  1  0  0  0  0
 27 26  2  0  0  0  0
M  END
>  <MODEL>
9

>  <REMARK>
 VINA RESULT:      -9.7      2.250      8.335
  Name = 
  3 active torsions:
  status: ('A' for Active; 'I' for Inactive)
    1  A    between atoms: C_14  and  N_19
    2  A    between atoms: C_15  and  C_18
    3  A    between atoms: C_23  and  C_25
                            x       y       z     vdW  Elec       q    Type
                         _______ _______ _______ _____ _____    ______ ____

>  <TORSDO>
F 3

$$$$
