=
 OpenBabel11052410443D

 35 40  0  0  1  0  0  0  0  0999 V2000
  161.4820  207.0410  153.3880 C   0  0  0  0  0  0  0  0  0  0  0  0
  161.2440  205.3520  150.2920 C   0  0  0  0  0  3  0  0  0  0  0  0
  160.4650  210.3060  152.8090 C   0  0  0  0  0  3  0  0  0  0  0  0
  159.5230  209.3320  155.4050 C   0  0  0  0  0  2  0  0  0  0  0  0
  160.5430  208.6810  154.5860 N   0  0  0  0  0  0  0  0  0  0  0  0
  161.0950  203.9910  150.6360 C   0  0  0  0  0  0  0  0  0  0  0  0
  160.8630  207.3140  154.6500 N   0  0  0  0  0  2  0  0  0  0  0  0
  159.2720  210.7440  154.9180 C   0  0  0  0  0  3  0  0  0  0  0  0
  161.4390  207.6600  151.2930 C   0  0  0  0  0  0  0  0  0  0  0  0
  161.5240  208.0980  152.5680 N   0  0  0  0  0  0  0  0  0  0  0  0
  160.8850  209.1370  153.2840 C   0  0  0  0  0  0  0  0  0  0  0  0
  161.0710  203.6070  152.0000 C   0  0  0  0  0  3  0  0  0  0  0  0
  161.4190  205.8810  152.6480 C   0  0  0  0  0  0  0  0  0  0  0  0
  161.2130  204.5590  153.0260 C   0  0  0  0  0  3  0  0  0  0  0  0
  159.6820  211.1730  153.7130 C   0  0  0  0  0  3  0  0  0  0  0  0
  161.4190  206.2720  151.3220 C   0  0  0  0  0  0  0  0  0  0  0  0
  160.6240  201.6460  149.7730 C   0  0  0  0  0  3  0  0  0  0  0  0
  160.5510  201.0240  148.5810 N   0  0  0  0  0  0  0  0  0  0  0  0
  161.0630  203.2000  148.2180 C   0  0  0  0  0  3  0  0  0  0  0  0
  160.8240  201.9630  147.6560 C   0  0  0  0  0  0  0  0  0  0  0  0
  160.9360  202.9780  149.5760 C   0  0  1  0  0  3  0  0  0  0  0  0
  160.8000  201.6950  146.1930 C   0  0  0  0  0  2  0  0  0  0  0  0
  161.1370  202.8560  145.4990 O   0  0  0  0  0  1  0  0  0  0  0  0
  161.2140  208.5250  150.0950 C   0  0  0  0  0  2  0  0  0  0  0  0
  162.3080  209.5790  149.9600 C   0  0  0  0  0  2  0  0  0  0  0  0
  162.1350  210.4250  148.7050 C   0  0  0  0  0  2  0  0  0  0  0  0
  161.7860  211.8570  149.0630 C   0  0  0  0  0  2  0  0  0  0  0  0
  162.2850  212.7470  148.0260 N   0  0  0  0  0  2  0  0  0  0  0  0
  159.8280  212.5470  145.1220 C   0  0  0  0  0  2  0  0  0  0  0  0
  161.7270  212.8110  146.7110 C   0  0  0  0  0  0  0  0  0  0  0  0
  162.8550  213.6090  143.2800 C   0  0  0  0  0  1  0  0  0  0  0  0
  160.4360  212.5180  146.4970 C   0  0  0  0  0  3  0  0  0  0  0  0
  162.0880  212.8920  144.2810 N   0  0  0  0  0  0  0  0  0  0  0  0
  160.7040  213.3380  144.1520 C   0  0  0  0  0  2  0  0  0  0  0  0
  162.5870  213.3260  145.5870 C   0  0  0  0  0  2  0  0  0  0  0  0
  1  7  1  0  0  0  0
  2  6  2  0  0  0  0
  2 16  1  0  0  0  0
  3 11  2  0  0  0  0
  3 15  1  0  0  0  0
  5  7  1  0  0  0  0
  5  4  1  0  0  0  0
  6 12  1  0  0  0  0
  8  4  1  0  0  0  0
  9 16  2  0  0  0  0
  9 10  1  0  0  0  0
 10 11  1  0  0  0  0
 10  1  1  0  0  0  0
 11  5  1  0  0  0  0
 12 14  2  0  0  0  0
 13 14  1  0  0  0  0
 13  1  2  0  0  0  0
 15  8  2  0  0  0  0
 16 13  1  0  0  0  0
 18 17  2  0  0  0  0
 19 21  1  0  0  0  0
 20 19  2  0  0  0  0
 20 18  1  0  0  0  0
 21 17  1  0  0  0  0
 21  6  1  6  0  0  0
 22 20  1  0  0  0  0
 23 22  1  0  0  0  0
 24  9  1  0  0  0  0
 25 24  1  0  0  0  0
 26 27  1  0  0  0  0
 26 25  1  0  0  0  0
 28 27  1  0  0  0  0
 29 32  1  0  0  0  0
 30 28  1  0  0  0  0
 31 33  1  0  0  0  0
 32 30  2  0  0  0  0
 33 35  1  0  0  0  0
 34 33  1  0  0  0  0
 34 29  1  0  0  0  0
 35 30  1  0  0  0  0
M  END
>  <MODEL>
1

>  <REMARK>
 VINA RESULT:      -9.3      0.000      0.000
  Name = 
  8 active torsions:
  status: ('A' for Active; 'I' for Inactive)
    1  A    between atoms: C_5  and  CA_20
    2  A    between atoms: C_6  and  N_21
    3  A    between atoms: C_8  and  C_23
    4  A    between atoms: C_8  and  C_27
    5  A    between atoms: C_13  and  C_17
    6  A    between atoms: C_13  and  C_27
    7  A    between atoms: C_14  and  C_31
    8  A    between atoms: C_17  and  N_21
                            x       y       z     vdW  Elec       q    Type
                         _______ _______ _______ _____ _____    ______ ____

>  <TORSDO>
F 8

$$$$
=
 OpenBabel11052410443D

 35 40  0  0  1  0  0  0  0  0999 V2000
  161.1890  208.7060  154.6050 C   0  0  0  0  0  0  0  0  0  0  0  0
  161.1800  206.8380  151.6040 C   0  0  0  0  0  3  0  0  0  0  0  0
  160.1000  211.8940  153.7830 C   0  0  0  0  0  3  0  0  0  0  0  0
  159.0480  211.0350  156.3770 C   0  0  0  0  0  2  0  0  0  0  0  0
  160.1320  210.3760  155.6540 N   0  0  0  0  0  0  0  0  0  0  0  0
  161.0570  205.4940  152.0180 C   0  0  0  0  0  0  0  0  0  0  0  0
  160.4930  209.0270  155.8140 N   0  0  0  0  0  2  0  0  0  0  0  0
  158.7770  212.4080  155.7970 C   0  0  0  0  0  3  0  0  0  0  0  0
  161.2430  209.2040  152.4790 C   0  0  0  0  0  0  0  0  0  0  0  0
  161.2420  209.7170  153.7280 N   0  0  0  0  0  0  0  0  0  0  0  0
  160.5300  210.7710  154.3480 C   0  0  0  0  0  0  0  0  0  0  0  0
  160.9690  205.1870  153.3990 C   0  0  0  0  0  3  0  0  0  0  0  0
  161.2060  207.5050  153.9310 C   0  0  0  0  0  0  0  0  0  0  0  0
  161.0220  206.1990  154.3740 C   0  0  0  0  0  3  0  0  0  0  0  0
  159.2400  212.7830  154.5920 C   0  0  0  0  0  3  0  0  0  0  0  0
  161.2670  207.8210  152.5860 C   0  0  0  0  0  0  0  0  0  0  0  0
  160.8600  204.5960  149.6470 C   0  0  0  0  0  3  0  0  0  0  0  0
  160.8430  203.3950  149.0400 N   0  0  0  0  0  0  0  0  0  0  0  0
  161.0580  203.0630  151.2700 C   0  0  0  0  0  3  0  0  0  0  0  0
  160.9550  202.4820  150.0230 C   0  0  0  0  0  0  0  0  0  0  0  0
  160.9900  204.4190  151.0120 C   0  0  1  0  0  3  0  0  0  0  0  0
  161.0240  201.0180  149.7690 C   0  0  0  0  0  2  0  0  0  0  0  0
  161.2110  200.7870  148.4060 O   0  0  0  0  0  1  0  0  0  0  0  0
  161.0560  209.9920  151.2220 C   0  0  0  0  0  2  0  0  0  0  0  0
  162.3070  209.9460  150.3490 C   0  0  0  0  0  2  0  0  0  0  0  0
  161.9880  209.5370  148.9160 C   0  0  0  0  0  2  0  0  0  0  0  0
  162.2220  208.0520  148.7130 C   0  0  0  0  0  2  0  0  0  0  0  0
  161.3800  207.5770  147.6260 N   0  0  0  0  0  2  0  0  0  0  0  0
  163.2220  204.5880  146.1470 C   0  0  0  0  0  2  0  0  0  0  0  0
  161.6790  206.4090  146.8560 C   0  0  0  0  0  0  0  0  0  0  0  0
  160.0120  204.2790  144.3340 C   0  0  0  0  0  1  0  0  0  0  0  0
  162.8680  205.7990  146.9650 C   0  0  0  0  0  3  0  0  0  0  0  0
  161.1360  204.9620  144.9450 N   0  0  0  0  0  0  0  0  0  0  0  0
  161.9690  203.9360  145.5640 C   0  0  0  0  0  2  0  0  0  0  0  0
  160.5900  205.8070  146.0080 C   0  0  0  0  0  2  0  0  0  0  0  0
  1  7  1  0  0  0  0
  2  6  2  0  0  0  0
  2 16  1  0  0  0  0
  3 11  2  0  0  0  0
  3 15  1  0  0  0  0
  5  7  1  0  0  0  0
  5  4  1  0  0  0  0
  6 12  1  0  0  0  0
  8  4  1  0  0  0  0
  9 16  2  0  0  0  0
  9 10  1  0  0  0  0
 10 11  1  0  0  0  0
 10  1  1  0  0  0  0
 11  5  1  0  0  0  0
 12 14  2  0  0  0  0
 13 14  1  0  0  0  0
 13  1  2  0  0  0  0
 15  8  2  0  0  0  0
 16 13  1  0  0  0  0
 17 21  1  0  0  0  0
 18 17  2  0  0  0  0
 18 20  1  0  0  0  0
 20 19  2  0  0  0  0
 21 19  1  0  0  0  0
 21  6  1  6  0  0  0
 22 20  1  0  0  0  0
 23 22  1  0  0  0  0
 24  9  1  0  0  0  0
 25 24  1  0  0  0  0
 26 25  1  0  0  0  0
 27 26  1  0  0  0  0
 28 27  1  0  0  0  0
 29 32  1  0  0  0  0
 30 32  2  0  0  0  0
 30 28  1  0  0  0  0
 31 33  1  0  0  0  0
 33 34  1  0  0  0  0
 33 35  1  0  0  0  0
 34 29  1  0  0  0  0
 35 30  1  0  0  0  0
M  END
>  <MODEL>
2

>  <REMARK>
 VINA RESULT:      -9.1      2.986      4.322
  Name = 
  8 active torsions:
  status: ('A' for Active; 'I' for Inactive)
    1  A    between atoms: C_5  and  CA_20
    2  A    between atoms: C_6  and  N_21
    3  A    between atoms: C_8  and  C_23
    4  A    between atoms: C_8  and  C_27
    5  A    between atoms: C_13  and  C_17
    6  A    between atoms: C_13  and  C_27
    7  A    between atoms: C_14  and  C_31
    8  A    between atoms: C_17  and  N_21
                            x       y       z     vdW  Elec       q    Type
                         _______ _______ _______ _____ _____    ______ ____

>  <TORSDO>
F 8

$$$$
=
 OpenBabel11052410443D

 35 40  0  0  1  0  0  0  0  0999 V2000
  161.2310  208.3430  154.1520 C   0  0  0  0  0  0  0  0  0  0  0  0
  161.3110  207.0110  150.8790 C   0  0  0  0  0  3  0  0  0  0  0  0
  160.1650  211.6290  153.8530 C   0  0  0  0  0  3  0  0  0  0  0  0
  159.0380  210.3460  156.2310 C   0  0  0  0  0  2  0  0  0  0  0  0
  160.1430  209.8150  155.4380 N   0  0  0  0  0  0  0  0  0  0  0  0
  161.1760  205.6180  151.0540 C   0  0  0  0  0  0  0  0  0  0  0  0
  160.5000  208.4570  155.3770 N   0  0  0  0  0  2  0  0  0  0  0  0
  158.7840  211.7990  155.8850 C   0  0  0  0  0  3  0  0  0  0  0  0
  161.3470  209.1950  152.1440 C   0  0  0  0  0  0  0  0  0  0  0  0
  161.3090  209.4870  153.4620 N   0  0  0  0  0  0  0  0  0  0  0  0
  160.5790  210.4240  154.2300 C   0  0  0  0  0  0  0  0  0  0  0  0
  161.0480  205.0810  152.3600 C   0  0  0  0  0  3  0  0  0  0  0  0
  161.2680  207.2730  153.2850 C   0  0  0  0  0  0  0  0  0  0  0  0
  161.0730  205.9120  153.4930 C   0  0  0  0  0  3  0  0  0  0  0  0
  159.2810  212.3710  154.7760 C   0  0  0  0  0  3  0  0  0  0  0  0
  161.3680  207.8130  152.0150 C   0  0  0  0  0  0  0  0  0  0  0  0
  161.4400  205.0950  148.5790 C   0  0  0  0  0  3  0  0  0  0  0  0
  161.3090  204.0260  147.7730 N   0  0  0  0  0  0  0  0  0  0  0  0
  160.8110  203.3870  149.8870 C   0  0  0  0  0  3  0  0  0  0  0  0
  160.9240  203.0090  148.5650 C   0  0  0  0  0  0  0  0  0  0  0  0
  161.1400  204.7290  149.8780 C   0  0  1  0  0  3  0  0  0  0  0  0
  160.7130  201.6230  148.0670 C   0  0  0  0  0  2  0  0  0  0  0  0
  161.4730  200.7320  148.8230 O   0  0  0  0  0  1  0  0  0  0  0  0
  161.1970  210.1850  151.0340 C   0  0  0  0  0  2  0  0  0  0  0  0
  162.3790  210.1220  150.0720 C   0  0  0  0  0  2  0  0  0  0  0  0
  162.0130  210.6300  148.6830 C   0  0  0  0  0  2  0  0  0  0  0  0
  162.0880  212.1440  148.6250 C   0  0  0  0  0  2  0  0  0  0  0  0
  160.9640  212.6530  147.8540 N   0  0  0  0  0  2  0  0  0  0  0  0
  159.8760  212.3140  144.2190 C   0  0  0  0  0  2  0  0  0  0  0  0
  160.9580  212.7160  146.4250 C   0  0  0  0  0  0  0  0  0  0  0  0
  163.2220  213.8070  143.7120 C   0  0  0  0  0  1  0  0  0  0  0  0
  159.9000  212.2880  145.7220 C   0  0  0  0  0  3  0  0  0  0  0  0
  162.2230  212.9580  144.3310 N   0  0  0  0  0  0  0  0  0  0  0  0
  160.9540  213.2470  143.6700 C   0  0  0  0  0  2  0  0  0  0  0  0
  162.1160  213.3820  145.7280 C   0  0  0  0  0  2  0  0  0  0  0  0
  1  7  1  0  0  0  0
  2  6  2  0  0  0  0
  2 16  1  0  0  0  0
  3 11  2  0  0  0  0
  3 15  1  0  0  0  0
  5  4  1  0  0  0  0
  6 12  1  0  0  0  0
  7  5  1  0  0  0  0
  8  4  1  0  0  0  0
  9 10  1  0  0  0  0
 10  1  1  0  0  0  0
 10 11  1  0  0  0  0
 11  5  1  0  0  0  0
 12 14  2  0  0  0  0
 13 14  1  0  0  0  0
 13  1  2  0  0  0  0
 15  8  2  0  0  0  0
 16  9  2  0  0  0  0
 16 13  1  0  0  0  0
 17 21  1  0  0  0  0
 18 20  1  0  0  0  0
 18 17  2  0  0  0  0
 20 19  2  0  0  0  0
 21 19  1  0  0  0  0
 21  6  1  1  0  0  0
 22 20  1  0  0  0  0
 22 23  1  0  0  0  0
 24  9  1  0  0  0  0
 25 24  1  0  0  0  0
 26 25  1  0  0  0  0
 27 26  1  0  0  0  0
 28 27  1  0  0  0  0
 29 32  1  0  0  0  0
 30 28  1  0  0  0  0
 31 33  1  0  0  0  0
 32 30  2  0  0  0  0
 33 35  1  0  0  0  0
 34 29  1  0  0  0  0
 34 33  1  0  0  0  0
 35 30  1  0  0  0  0
M  END
>  <MODEL>
3

>  <REMARK>
 VINA RESULT:      -8.8      1.319      1.702
  Name = 
  8 active torsions:
  status: ('A' for Active; 'I' for Inactive)
    1  A    between atoms: C_5  and  CA_20
    2  A    between atoms: C_6  and  N_21
    3  A    between atoms: C_8  and  C_23
    4  A    between atoms: C_8  and  C_27
    5  A    between atoms: C_13  and  C_17
    6  A    between atoms: C_13  and  C_27
    7  A    between atoms: C_14  and  C_31
    8  A    between atoms: C_17  and  N_21
                            x       y       z     vdW  Elec       q    Type
                         _______ _______ _______ _____ _____    ______ ____

>  <TORSDO>
F 8

$$$$
=
 OpenBabel11052410443D

 35 40  0  0  1  0  0  0  0  0999 V2000
  161.2330  209.7360  152.9700 C   0  0  0  0  0  0  0  0  0  0  0  0
  161.2470  207.1270  150.5850 C   0  0  0  0  0  3  0  0  0  0  0  0
  161.4760  208.2250  156.0820 C   0  0  0  0  0  3  0  0  0  0  0  0
  163.0310  210.7030  155.9670 C   0  0  0  0  0  2  0  0  0  0  0  0
  162.0300  210.2970  154.9840 N   0  0  0  0  0  0  0  0  0  0  0  0
  161.7160  207.7290  149.3970 C   0  0  0  0  0  0  0  0  0  0  0  0
  161.9990  210.7370  153.6490 N   0  0  0  0  0  2  0  0  0  0  0  0
  162.9130  209.8680  157.2240 C   0  0  0  0  0  3  0  0  0  0  0  0
  160.7850  207.5980  153.0210 C   0  0  0  0  0  0  0  0  0  0  0  0
  160.8420  208.7280  153.7590 N   0  0  0  0  0  0  0  0  0  0  0  0
  161.3820  209.0330  155.0310 C   0  0  0  0  0  0  0  0  0  0  0  0
  162.0550  209.1050  149.3910 C   0  0  0  0  0  3  0  0  0  0  0  0
  161.3900  209.2820  151.6790 C   0  0  0  0  0  0  0  0  0  0  0  0
  161.9130  209.8950  150.5460 C   0  0  0  0  0  3  0  0  0  0  0  0
  162.2210  208.7160  157.2600 C   0  0  0  0  0  3  0  0  0  0  0  0
  161.0800  207.9340  151.7070 C   0  0  0  0  0  0  0  0  0  0  0  0
  162.8410  205.9420  147.9790 C   0  0  0  0  0  3  0  0  0  0  0  0
  162.6840  205.4040  146.7560 N   0  0  0  0  0  0  0  0  0  0  0  0
  161.0950  206.9920  147.0430 C   0  0  0  0  0  3  0  0  0  0  0  0
  161.6400  206.0460  146.2000 C   0  0  0  0  0  0  0  0  0  0  0  0
  161.8800  206.9170  148.1780 C   0  0  1  0  0  3  0  0  0  0  0  0
  161.1040  205.7130  144.8520 C   0  0  0  0  0  2  0  0  0  0  0  0
  159.7110  205.7420  144.8810 O   0  0  0  0  0  1  0  0  0  0  0  0
  160.6230  206.2160  153.5670 C   0  0  0  0  0  2  0  0  0  0  0  0
  161.5700  205.2360  152.8810 C   0  0  0  0  0  2  0  0  0  0  0  0
  160.8330  204.0240  152.3250 C   0  0  0  0  0  2  0  0  0  0  0  0
  161.5380  203.4810  151.0960 C   0  0  0  0  0  2  0  0  0  0  0  0
  160.5520  203.1780  150.0700 N   0  0  0  0  0  2  0  0  0  0  0  0
  161.5750  200.1410  148.0100 C   0  0  0  0  0  2  0  0  0  0  0  0
  160.8140  202.3130  148.9620 C   0  0  0  0  0  0  0  0  0  0  0  0
  160.6390  202.4440  145.2700 C   0  0  0  0  0  1  0  0  0  0  0  0
  161.2630  201.0640  149.1550 C   0  0  0  0  0  3  0  0  0  0  0  0
  161.2020  202.0540  146.5490 N   0  0  0  0  0  0  0  0  0  0  0  0
  160.9230  200.6320  146.7190 C   0  0  0  0  0  2  0  0  0  0  0  0
  160.4640  202.7890  147.5770 C   0  0  0  0  0  2  0  0  0  0  0  0
  1  7  1  0  0  0  0
  1 10  1  0  0  0  0
  2 16  1  0  0  0  0
  3 15  1  0  0  0  0
  4  8  1  0  0  0  0
  5 11  1  0  0  0  0
  5  4  1  0  0  0  0
  6  2  2  0  0  0  0
  7  5  1  0  0  0  0
  8 15  2  0  0  0  0
  9 24  1  0  0  0  0
  9 10  1  0  0  0  0
 10 11  1  0  0  0  0
 11  3  2  0  0  0  0
 12  6  1  0  0  0  0
 12 14  2  0  0  0  0
 13 16  1  0  0  0  0
 13  1  2  0  0  0  0
 14 13  1  0  0  0  0
 16  9  2  0  0  0  0
 17 21  1  0  0  0  0
 18 17  2  0  0  0  0
 19 21  1  0  0  0  0
 20 18  1  0  0  0  0
 20 19  2  0  0  0  0
 21  6  1  1  0  0  0
 22 23  1  0  0  0  0
 22 20  1  0  0  0  0
 25 24  1  0  0  0  0
 26 25  1  0  0  0  0
 27 26  1  0  0  0  0
 28 27  1  0  0  0  0
 29 32  1  0  0  0  0
 30 32  2  0  0  0  0
 30 28  1  0  0  0  0
 31 33  1  0  0  0  0
 33 34  1  0  0  0  0
 33 35  1  0  0  0  0
 34 29  1  0  0  0  0
 35 30  1  0  0  0  0
M  END
>  <MODEL>
4

>  <REMARK>
 VINA RESULT:      -8.3      3.287      6.748
  Name = 
  8 active torsions:
  status: ('A' for Active; 'I' for Inactive)
    1  A    between atoms: C_5  and  CA_20
    2  A    between atoms: C_6  and  N_21
    3  A    between atoms: C_8  and  C_23
    4  A    between atoms: C_8  and  C_27
    5  A    between atoms: C_13  and  C_17
    6  A    between atoms: C_13  and  C_27
    7  A    between atoms: C_14  and  C_31
    8  A    between atoms: C_17  and  N_21
                            x       y       z     vdW  Elec       q    Type
                         _______ _______ _______ _____ _____    ______ ____

>  <TORSDO>
F 8

$$$$
=
 OpenBabel11052410443D

 35 40  0  0  1  0  0  0  0  0999 V2000
  161.8720  206.2960  152.7670 C   0  0  0  0  0  0  0  0  0  0  0  0
  161.4260  205.6110  149.3280 C   0  0  0  0  0  3  0  0  0  0  0  0
  160.5540  209.4560  153.3210 C   0  0  0  0  0  3  0  0  0  0  0  0
  159.9780  207.6460  155.5490 C   0  0  0  0  0  2  0  0  0  0  0  0
  160.9480  207.3860  154.4890 N   0  0  0  0  0  0  0  0  0  0  0  0
  161.4190  204.2030  149.2400 C   0  0  0  0  0  0  0  0  0  0  0  0
  161.3760  206.1060  154.0960 N   0  0  0  0  0  2  0  0  0  0  0  0
  159.5690  209.1040  155.5510 C   0  0  0  0  0  3  0  0  0  0  0  0
  161.5540  207.5130  150.9810 C   0  0  0  0  0  0  0  0  0  0  0  0
  161.7440  207.5500  152.3180 N   0  0  0  0  0  0  0  0  0  0  0  0
  161.1100  208.2490  153.3720 C   0  0  0  0  0  0  0  0  0  0  0  0
  161.5720  203.4220  150.4130 C   0  0  0  0  0  3  0  0  0  0  0  0
  161.8160  205.4160  151.7090 C   0  0  0  0  0  0  0  0  0  0  0  0
  161.7530  204.0270  151.6700 C   0  0  0  0  0  3  0  0  0  0  0  0
  159.8120  209.9200  154.5110 C   0  0  0  0  0  3  0  0  0  0  0  0
  161.6420  206.1890  150.5760 C   0  0  0  0  0  0  0  0  0  0  0  0
  161.4090  204.1400  146.6980 C   0  0  0  0  0  3  0  0  0  0  0  0
  161.1470  203.2440  145.7290 N   0  0  0  0  0  0  0  0  0  0  0  0
  160.8290  202.2390  147.7340 C   0  0  0  0  0  3  0  0  0  0  0  0
  160.7920  202.1100  146.3610 C   0  0  0  0  0  0  0  0  0  0  0  0
  161.2220  203.5490  147.9330 C   0  0  1  0  0  3  0  0  0  0  0  0
  160.4640  200.8480  145.6440 C   0  0  0  0  0  2  0  0  0  0  0  0
  159.7060  201.1360  144.5100 O   0  0  0  0  0  1  0  0  0  0  0  0
  161.1340  208.6730  150.1350 C   0  0  0  0  0  2  0  0  0  0  0  0
  162.3310  209.5370  149.7490 C   0  0  0  0  0  2  0  0  0  0  0  0
  162.0050  210.4800  148.5970 C   0  0  0  0  0  2  0  0  0  0  0  0
  162.8980  211.7060  148.6340 C   0  0  0  0  0  2  0  0  0  0  0  0
  162.2310  212.8070  147.9560 N   0  0  0  0  0  2  0  0  0  0  0  0
  158.7950  213.7990  149.2680 C   0  0  0  0  0  2  0  0  0  0  0  0
  160.8230  213.0410  148.0370 C   0  0  0  0  0  0  0  0  0  0  0  0
  157.8320  212.5780  145.9120 C   0  0  0  0  0  1  0  0  0  0  0  0
  160.2760  213.5690  149.1410 C   0  0  0  0  0  3  0  0  0  0  0  0
  158.5690  212.5990  147.1610 N   0  0  0  0  0  0  0  0  0  0  0  0
  158.1180  213.7740  147.8990 C   0  0  0  0  0  2  0  0  0  0  0  0
  159.9790  212.7910  146.8150 C   0  0  0  0  0  2  0  0  0  0  0  0
  1  7  1  0  0  0  0
  2 16  1  0  0  0  0
  3 11  2  0  0  0  0
  3 15  1  0  0  0  0
  4  8  1  0  0  0  0
  5  4  1  0  0  0  0
  6  2  2  0  0  0  0
  6 12  1  0  0  0  0
  7  5  1  0  0  0  0
  9 10  1  0  0  0  0
 10  1  1  0  0  0  0
 10 11  1  0  0  0  0
 11  5  1  0  0  0  0
 12 14  2  0  0  0  0
 13  1  2  0  0  0  0
 14 13  1  0  0  0  0
 15  8  2  0  0  0  0
 16  9  2  0  0  0  0
 16 13  1  0  0  0  0
 17 21  1  0  0  0  0
 18 20  1  0  0  0  0
 18 17  2  0  0  0  0
 19 21  1  0  0  0  0
 20 19  2  0  0  0  0
 21  6  1  1  0  0  0
 22 20  1  0  0  0  0
 23 22  1  0  0  0  0
 24  9  1  0  0  0  0
 25 24  1  0  0  0  0
 26 27  1  0  0  0  0
 26 25  1  0  0  0  0
 28 30  1  0  0  0  0
 28 27  1  0  0  0  0
 30 32  2  0  0  0  0
 31 33  1  0  0  0  0
 32 29  1  0  0  0  0
 33 34  1  0  0  0  0
 34 29  1  0  0  0  0
 35 33  1  0  0  0  0
 35 30  1  0  0  0  0
M  END
>  <MODEL>
5

>  <REMARK>
 VINA RESULT:      -8.1      1.678      2.296
  Name = 
  8 active torsions:
  status: ('A' for Active; 'I' for Inactive)
    1  A    between atoms: C_5  and  CA_20
    2  A    between atoms: C_6  and  N_21
    3  A    between atoms: C_8  and  C_23
    4  A    between atoms: C_8  and  C_27
    5  A    between atoms: C_13  and  C_17
    6  A    between atoms: C_13  and  C_27
    7  A    between atoms: C_14  and  C_31
    8  A    between atoms: C_17  and  N_21
                            x       y       z     vdW  Elec       q    Type
                         _______ _______ _______ _____ _____    ______ ____

>  <TORSDO>
F 8

$$$$
=
 OpenBabel11052410443D

 35 40  0  0  0  0  0  0  0  0999 V2000
  160.6650  204.9800  149.4650 C   0  0  0  0  0  0  0  0  0  0  0  0
  161.0450  207.5880  151.8210 C   0  0  0  0  0  3  0  0  0  0  0  0
  161.8580  206.2000  146.4460 C   0  0  0  0  0  3  0  0  0  0  0  0
  162.5750  203.3870  146.8260 C   0  0  0  0  0  2  0  0  0  0  0  0
  161.5880  204.1140  147.6200 N   0  0  0  0  0  0  0  0  0  0  0  0
  161.1110  206.9360  153.0710 C   0  0  0  0  0  0  0  0  0  0  0  0
  161.2060  203.7680  148.9280 N   0  0  0  0  0  2  0  0  0  0  0  0
  162.9200  204.1580  145.5690 C   0  0  0  0  0  3  0  0  0  0  0  0
  160.8800  207.1510  149.3420 C   0  0  0  0  0  0  0  0  0  0  0  0
  160.7260  206.0180  148.6220 N   0  0  0  0  0  0  0  0  0  0  0  0
  161.3570  205.5070  147.4640 C   0  0  0  0  0  0  0  0  0  0  0  0
  161.0250  205.5220  153.1340 C   0  0  0  0  0  3  0  0  0  0  0  0
  160.7300  205.4330  150.7640 C   0  0  0  0  0  0  0  0  0  0  0  0
  160.8530  204.7520  151.9710 C   0  0  0  0  0  3  0  0  0  0  0  0
  162.6130  205.4570  145.4160 C   0  0  0  0  0  3  0  0  0  0  0  0
  160.8390  206.8090  150.6860 C   0  0  0  0  0  0  0  0  0  0  0  0
  161.3890  207.2130  155.5840 C   0  0  0  0  0  3  0  0  0  0  0  0
  161.5690  208.2210  156.4560 N   0  0  0  0  0  2  0  0  0  0  0  0
  161.4290  209.0980  154.3730 C   0  0  0  0  0  3  0  0  0  0  0  0
  161.5830  209.3480  155.7210 C   0  0  0  0  0  0  0  0  0  0  0  0
  161.3000  207.7240  154.3030 C   0  0  0  0  0  0  0  0  0  0  0  0
  161.8090  210.6980  156.3040 C   0  0  0  0  0  2  0  0  0  0  0  0
  163.1770  210.9130  156.4730 O   0  0  0  0  0  1  0  0  0  0  0  0
  161.2250  208.4920  148.7780 C   0  0  0  0  0  2  0  0  0  0  0  0
  162.2700  209.2000  149.6350 C   0  0  0  0  0  2  0  0  0  0  0  0
  161.9560  210.6800  149.8120 C   0  0  0  0  0  2  0  0  0  0  0  0
  162.4990  211.4900  148.6490 C   0  0  0  0  0  2  0  0  0  0  0  0
  161.4550  212.3690  148.1460 N   0  0  0  0  0  2  0  0  0  0  0  0
  159.7610  212.4150  144.7350 C   0  0  0  0  0  2  0  0  0  0  0  0
  161.2100  212.5780  146.7530 C   0  0  0  0  0  0  0  0  0  0  0  0
  163.0130  213.9180  143.8150 C   0  0  0  0  0  1  0  0  0  0  0  0
  160.0370  212.2350  146.2020 C   0  0  0  0  0  3  0  0  0  0  0  0
  162.1090  213.0200  144.5090 N   0  0  0  0  0  0  0  0  0  0  0  0
  160.7550  213.3880  144.1060 C   0  0  0  0  0  2  0  0  0  0  0  0
  162.2510  213.3000  145.9380 C   0  0  0  0  0  2  0  0  0  0  0  0
  1 13  2  0  0  0  0
  2  6  2  0  0  0  0
  3 11  2  0  0  0  0
  4  5  1  0  0  0  0
  5  7  1  0  0  0  0
  6 12  1  0  0  0  0
  6 21  1  0  0  0  0
  7  1  1  0  0  0  0
  8  4  1  0  0  0  0
  9 16  2  0  0  0  0
 10  9  1  0  0  0  0
 10  1  1  0  0  0  0
 11  5  1  0  0  0  0
 11 10  1  0  0  0  0
 13 14  1  0  0  0  0
 14 12  2  0  0  0  0
 15  8  2  0  0  0  0
 15  3  1  0  0  0  0
 16 13  1  0  0  0  0
 16  2  1  0  0  0  0
 17 18  1  0  0  0  0
 19 20  2  0  0  0  0
 20 22  1  0  0  0  0
 20 18  1  0  0  0  0
 21 19  1  0  0  0  0
 21 17  2  0  0  0  0
 22 23  1  0  0  0  0
 24  9  1  0  0  0  0
 24 25  1  0  0  0  0
 25 26  1  0  0  0  0
 27 26  1  0  0  0  0
 28 27  1  0  0  0  0
 29 32  1  0  0  0  0
 30 28  1  0  0  0  0
 31 33  1  0  0  0  0
 32 30  2  0  0  0  0
 33 35  1  0  0  0  0
 34 33  1  0  0  0  0
 34 29  1  0  0  0  0
 35 30  1  0  0  0  0
M  END
>  <MODEL>
6

>  <REMARK>
 VINA RESULT:      -7.9      3.013      6.485
  Name = 
  8 active torsions:
  status: ('A' for Active; 'I' for Inactive)
    1  A    between atoms: C_5  and  CA_20
    2  A    between atoms: C_6  and  N_21
    3  A    between atoms: C_8  and  C_23
    4  A    between atoms: C_8  and  C_27
    5  A    between atoms: C_13  and  C_17
    6  A    between atoms: C_13  and  C_27
    7  A    between atoms: C_14  and  C_31
    8  A    between atoms: C_17  and  N_21
                            x       y       z     vdW  Elec       q    Type
                         _______ _______ _______ _____ _____    ______ ____

>  <TORSDO>
F 8

$$$$
=
 OpenBabel11052410443D

 35 40  0  0  1  0  0  0  0  0999 V2000
  161.3620  206.1960  153.8930 C   0  0  0  0  0  0  0  0  0  0  0  0
  161.6640  204.8000  150.6600 C   0  0  0  0  0  3  0  0  0  0  0  0
  161.6480  209.6310  153.5130 C   0  0  0  0  0  3  0  0  0  0  0  0
  159.6460  208.9370  155.5340 C   0  0  0  0  0  2  0  0  0  0  0  0
  160.6280  208.0110  154.9760 N   0  0  0  0  0  0  0  0  0  0  0  0
  161.0000  203.5580  150.7410 C   0  0  0  0  0  0  0  0  0  0  0  0
  160.4740  206.6140  154.9350 N   0  0  0  0  0  2  0  0  0  0  0  0
  160.0150  210.3680  155.2050 C   0  0  0  0  0  3  0  0  0  0  0  0
  162.2110  206.8690  151.9960 C   0  0  0  0  0  0  0  0  0  0  0  0
  161.9960  207.2070  153.2860 N   0  0  0  0  0  0  0  0  0  0  0  0
  161.5060  208.3730  153.9190 C   0  0  0  0  0  0  0  0  0  0  0  0
  160.4060  203.1550  151.9640 C   0  0  0  0  0  3  0  0  0  0  0  0
  161.1970  205.1530  153.0090 C   0  0  0  0  0  0  0  0  0  0  0  0
  160.4830  203.9640  153.1110 C   0  0  0  0  0  3  0  0  0  0  0  0
  160.9140  210.6780  154.2550 C   0  0  0  0  0  3  0  0  0  0  0  0
  161.7590  205.5700  151.8160 C   0  0  0  0  0  0  0  0  0  0  0  0
  160.6730  201.3340  149.5520 C   0  0  0  0  0  3  0  0  0  0  0  0
  160.6350  200.8840  148.2840 N   0  0  0  0  0  0  0  0  0  0  0  0
  161.0100  203.1170  148.2360 C   0  0  0  0  0  3  0  0  0  0  0  0
  160.8460  201.9590  147.5030 C   0  0  0  0  0  0  0  0  0  0  0  0
  160.9010  202.6970  149.5480 C   0  0  1  0  0  3  0  0  0  0  0  0
  160.8340  201.9000  146.0170 C   0  0  0  0  0  2  0  0  0  0  0  0
  160.1000  200.7910  145.5980 O   0  0  0  0  0  1  0  0  0  0  0  0
  162.6740  207.8040  150.9250 C   0  0  0  0  0  2  0  0  0  0  0  0
  161.5120  208.6140  150.3580 C   0  0  0  0  0  2  0  0  0  0  0  0
  161.9570  209.5380  149.2310 C   0  0  0  0  0  2  0  0  0  0  0  0
  161.5070  209.0030  147.8850 C   0  0  0  0  0  2  0  0  0  0  0  0
  161.2200  207.5820  148.0040 N   0  0  0  0  0  2  0  0  0  0  0  0
  160.4570  205.5330  144.8840 C   0  0  0  0  0  2  0  0  0  0  0  0
  161.3490  206.6620  146.9170 C   0  0  0  0  0  0  0  0  0  0  0  0
  163.8430  204.2480  145.6380 C   0  0  0  0  0  1  0  0  0  0  0  0
  160.3630  206.5130  146.0200 C   0  0  0  0  0  3  0  0  0  0  0  0
  162.5070  204.7320  145.9290 N   0  0  0  0  0  0  0  0  0  0  0  0
  161.9040  205.1020  144.6520 C   0  0  0  0  0  2  0  0  0  0  0  0
  162.6620  205.9470  146.7280 C   0  0  0  0  0  2  0  0  0  0  0  0
  1  7  1  0  0  0  0
  2  6  2  0  0  0  0
  2 16  1  0  0  0  0
  3 11  2  0  0  0  0
  3 15  1  0  0  0  0
  5  4  1  0  0  0  0
  6 12  1  0  0  0  0
  7  5  1  0  0  0  0
  8  4  1  0  0  0  0
  9 10  1  0  0  0  0
 10  1  1  0  0  0  0
 10 11  1  0  0  0  0
 11  5  1  0  0  0  0
 12 14  2  0  0  0  0
 13 14  1  0  0  0  0
 13  1  2  0  0  0  0
 15  8  2  0  0  0  0
 16  9  2  0  0  0  0
 16 13  1  0  0  0  0
 18 17  2  0  0  0  0
 19 21  1  0  0  0  0
 20 19  2  0  0  0  0
 20 18  1  0  0  0  0
 21 17  1  0  0  0  0
 21  6  1  6  0  0  0
 22 20  1  0  0  0  0
 23 22  1  0  0  0  0
 24  9  1  0  0  0  0
 25 24  1  0  0  0  0
 26 25  1  0  0  0  0
 27 28  1  0  0  0  0
 27 26  1  0  0  0  0
 29 32  1  0  0  0  0
 30 28  1  0  0  0  0
 31 33  1  0  0  0  0
 32 30  2  0  0  0  0
 33 35  1  0  0  0  0
 34 29  1  0  0  0  0
 34 33  1  0  0  0  0
 35 30  1  0  0  0  0
M  END
>  <MODEL>
7

>  <REMARK>
 VINA RESULT:      -7.5      2.705      3.698
  Name = 
  8 active torsions:
  status: ('A' for Active; 'I' for Inactive)
    1  A    between atoms: C_5  and  CA_20
    2  A    between atoms: C_6  and  N_21
    3  A    between atoms: C_8  and  C_23
    4  A    between atoms: C_8  and  C_27
    5  A    between atoms: C_13  and  C_17
    6  A    between atoms: C_13  and  C_27
    7  A    between atoms: C_14  and  C_31
    8  A    between atoms: C_17  and  N_21
                            x       y       z     vdW  Elec       q    Type
                         _______ _______ _______ _____ _____    ______ ____

>  <TORSDO>
F 8

$$$$
=
 OpenBabel11052410443D

 35 40  0  0  0  0  0  0  0  0999 V2000
  160.6690  204.7860  149.6020 C   0  0  0  0  0  0  0  0  0  0  0  0
  160.9770  207.1610  152.2020 C   0  0  0  0  0  3  0  0  0  0  0  0
  161.9170  206.2940  146.7390 C   0  0  0  0  0  3  0  0  0  0  0  0
  162.6470  203.4610  146.8670 C   0  0  0  0  0  2  0  0  0  0  0  0
  161.6370  204.1040  147.7040 N   0  0  0  0  0  0  0  0  0  0  0  0
  161.0210  206.3940  153.3850 C   0  0  0  0  0  0  0  0  0  0  0  0
  161.2300  203.6340  148.9640 N   0  0  0  0  0  2  0  0  0  0  0  0
  163.0130  204.3500  145.6960 C   0  0  0  0  0  3  0  0  0  0  0  0
  160.8680  206.9600  149.6880 C   0  0  0  0  0  0  0  0  0  0  0  0
  160.7390  205.9000  148.8620 N   0  0  0  0  0  0  0  0  0  0  0  0
  161.3990  205.5050  147.6750 C   0  0  0  0  0  0  0  0  0  0  0  0
  160.9450  204.9800  153.3130 C   0  0  0  0  0  3  0  0  0  0  0  0
  160.7020  205.1140  150.9390 C   0  0  0  0  0  0  0  0  0  0  0  0
  160.8040  204.3220  152.0780 C   0  0  0  0  0  3  0  0  0  0  0  0
  162.6990  205.6560  145.6590 C   0  0  0  0  0  3  0  0  0  0  0  0
  160.8010  206.4920  150.9940 C   0  0  0  0  0  0  0  0  0  0  0  0
  160.7240  206.5820  155.9040 C   0  0  0  0  0  3  0  0  0  0  0  0
  161.0520  207.4510  156.8780 N   0  0  0  0  0  2  0  0  0  0  0  0
  161.8100  208.2730  154.9090 C   0  0  0  0  0  3  0  0  0  0  0  0
  161.6950  208.4640  156.2700 C   0  0  0  0  0  0  0  0  0  0  0  0
  161.1770  207.0640  154.6900 C   0  0  0  0  0  0  0  0  0  0  0  0
  162.2700  209.6210  157.0070 C   0  0  0  0  0  2  0  0  0  0  0  0
  163.0590  210.3810  156.1440 O   0  0  0  0  0  1  0  0  0  0  0  0
  161.2140  208.3510  149.2620 C   0  0  0  0  0  2  0  0  0  0  0  0
  162.2930  208.9510  150.1580 C   0  0  0  0  0  2  0  0  0  0  0  0
  161.9510  210.3720  150.5900 C   0  0  0  0  0  2  0  0  0  0  0  0
  161.6990  210.4360  152.0850 C   0  0  0  0  0  2  0  0  0  0  0  0
  160.2660  210.5020  152.3280 N   0  0  0  0  0  0  0  0  0  0  0  0
  159.8870  212.4130  155.6010 C   0  0  0  0  0  2  0  0  0  0  0  0
  159.6900  211.1960  153.4380 C   0  0  0  0  0  0  0  0  0  0  0  0
  156.3240  212.1330  154.6480 C   0  0  0  0  0  1  0  0  0  0  0  0
  160.4640  211.7050  154.4070 C   0  0  0  0  0  2  0  0  0  0  0  0
  157.7020  211.7050  154.7900 N   0  0  0  0  0  0  0  0  0  0  0  0
  158.4420  212.8350  155.3420 C   0  0  0  0  0  2  0  0  0  0  0  0
  158.2050  211.4460  153.4400 C   0  0  0  0  0  2  0  0  0  0  0  0
  1 13  2  0  0  0  0
  2  6  2  0  0  0  0
  3 11  2  0  0  0  0
  4  5  1  0  0  0  0
  5  7  1  0  0  0  0
  6 21  1  0  0  0  0
  7  1  1  0  0  0  0
  8  4  1  0  0  0  0
  9 16  2  0  0  0  0
 10  1  1  0  0  0  0
 10  9  1  0  0  0  0
 11  5  1  0  0  0  0
 11 10  1  0  0  0  0
 12  6  1  0  0  0  0
 13 16  1  0  0  0  0
 13 14  1  0  0  0  0
 14 12  2  0  0  0  0
 15  8  2  0  0  0  0
 15  3  1  0  0  0  0
 16  2  1  0  0  0  0
 17 18  1  0  0  0  0
 19 20  2  0  0  0  0
 20 18  1  0  0  0  0
 20 22  1  0  0  0  0
 21 19  1  0  0  0  0
 21 17  2  0  0  0  0
 23 22  1  0  0  0  0
 24  9  1  0  0  0  0
 24 25  1  0  0  0  0
 25 26  1  0  0  0  0
 26 27  1  0  0  0  0
 27 28  1  0  0  0  0
 28 30  2  0  0  0  0
 30 35  1  0  0  0  0
 30 32  1  0  0  0  0
 31 33  1  0  0  0  0
 32 29  1  0  0  0  0
 33 34  1  0  0  0  0
 34 29  1  0  0  0  0
 35 33  1  0  0  0  0
M  END
>  <MODEL>
8

>  <REMARK>
 VINA RESULT:      -7.5      4.115      7.923
  Name = 
  8 active torsions:
  status: ('A' for Active; 'I' for Inactive)
    1  A    between atoms: C_5  and  CA_20
    2  A    between atoms: C_6  and  N_21
    3  A    between atoms: C_8  and  C_23
    4  A    between atoms: C_8  and  C_27
    5  A    between atoms: C_13  and  C_17
    6  A    between atoms: C_13  and  C_27
    7  A    between atoms: C_14  and  C_31
    8  A    between atoms: C_17  and  N_21
                            x       y       z     vdW  Elec       q    Type
                         _______ _______ _______ _____ _____    ______ ____

>  <TORSDO>
F 8

$$$$
=
 OpenBabel11052410443D

 35 40  0  0  0  0  0  0  0  0999 V2000
  162.3210  208.0880  150.2300 C   0  0  0  0  0  0  0  0  0  0  0  0
  160.7330  208.2760  153.3830 C   0  0  0  0  0  3  0  0  0  0  0  0
  161.2060  205.1620  148.7390 C   0  0  0  0  0  3  0  0  0  0  0  0
  161.4720  207.3290  146.7870 C   0  0  0  0  0  2  0  0  0  0  0  0
  162.0230  207.3480  148.1400 N   0  0  0  0  0  0  0  0  0  0  0  0
  160.7270  209.6510  153.7010 C   0  0  0  0  0  0  0  0  0  0  0  0
  162.3170  208.5160  148.8640 N   0  0  0  0  0  2  0  0  0  0  0  0
  161.0560  205.9250  146.4020 C   0  0  0  0  0  3  0  0  0  0  0  0
  161.3810  206.6420  151.5720 C   0  0  0  0  0  0  0  0  0  0  0  0
  162.0190  206.7940  150.3910 N   0  0  0  0  0  0  0  0  0  0  0  0
  161.7720  206.3150  149.0830 C   0  0  0  0  0  0  0  0  0  0  0  0
  161.2920  210.5860  152.7970 C   0  0  0  0  0  3  0  0  0  0  0  0
  161.9230  208.7990  151.3410 C   0  0  0  0  0  0  0  0  0  0  0  0
  161.8810  210.1670  151.5910 C   0  0  0  0  0  3  0  0  0  0  0  0
  160.9080  204.9440  147.3080 C   0  0  0  0  0  3  0  0  0  0  0  0
  161.3530  207.8790  152.2010 C   0  0  0  0  0  0  0  0  0  0  0  0
  160.4930  209.7450  156.2310 C   0  0  0  0  0  3  0  0  0  0  0  0
  159.7110  210.3670  157.1320 N   0  0  0  0  0  2  0  0  0  0  0  0
  159.0460  210.9930  155.0600 C   0  0  0  0  0  3  0  0  0  0  0  0
  158.8410  211.1060  156.4190 C   0  0  0  0  0  0  0  0  0  0  0  0
  160.1060  210.1130  154.9560 C   0  0  0  0  0  0  0  0  0  0  0  0
  157.8230  211.9930  157.0450 C   0  0  0  0  0  2  0  0  0  0  0  0
  156.7540  212.1690  156.1670 O   0  0  0  0  0  1  0  0  0  0  0  0
  160.6700  205.4050  152.0180 C   0  0  0  0  0  2  0  0  0  0  0  0
  161.6030  204.1970  152.0060 C   0  0  0  0  0  2  0  0  0  0  0  0
  160.8340  202.8830  151.9550 C   0  0  0  0  0  2  0  0  0  0  0  0
  161.3790  201.9800  150.8640 C   0  0  0  0  0  2  0  0  0  0  0  0
  160.4960  202.0350  149.7090 N   0  0  0  0  0  2  0  0  0  0  0  0
  161.9310  199.6260  147.1310 C   0  0  0  0  0  2  0  0  0  0  0  0
  160.7890  201.3890  148.4670 C   0  0  0  0  0  0  0  0  0  0  0  0
  159.9660  201.8130  144.8870 C   0  0  0  0  0  1  0  0  0  0  0  0
  161.5810  200.3090  148.4240 C   0  0  0  0  0  3  0  0  0  0  0  0
  160.8200  201.4820  146.0110 N   0  0  0  0  0  0  0  0  0  0  0  0
  160.9640  200.0290  146.0190 C   0  0  0  0  0  2  0  0  0  0  0  0
  160.0960  201.8750  147.2210 C   0  0  0  0  0  2  0  0  0  0  0  0
  1 10  1  0  0  0  0
  1 13  2  0  0  0  0
  2  6  2  0  0  0  0
  3 11  2  0  0  0  0
  4  5  1  0  0  0  0
  5  7  1  0  0  0  0
  5 11  1  0  0  0  0
  6 21  1  0  0  0  0
  7  1  1  0  0  0  0
  8  4  1  0  0  0  0
  8 15  2  0  0  0  0
  9 24  1  0  0  0  0
  9 16  2  0  0  0  0
 10  9  1  0  0  0  0
 11 10  1  0  0  0  0
 12  6  1  0  0  0  0
 13 14  1  0  0  0  0
 13 16  1  0  0  0  0
 14 12  2  0  0  0  0
 15  3  1  0  0  0  0
 16  2  1  0  0  0  0
 17 18  1  0  0  0  0
 19 20  2  0  0  0  0
 20 22  1  0  0  0  0
 20 18  1  0  0  0  0
 21 19  1  0  0  0  0
 21 17  2  0  0  0  0
 23 22  1  0  0  0  0
 25 24  1  0  0  0  0
 26 25  1  0  0  0  0
 27 26  1  0  0  0  0
 28 27  1  0  0  0  0
 29 32  1  0  0  0  0
 30 28  1  0  0  0  0
 31 33  1  0  0  0  0
 32 30  2  0  0  0  0
 33 34  1  0  0  0  0
 33 35  1  0  0  0  0
 34 29  1  0  0  0  0
 35 30  1  0  0  0  0
M  END
>  <MODEL>
9

>  <REMARK>
 VINA RESULT:      -7.3      4.099      9.376
  Name = 
  8 active torsions:
  status: ('A' for Active; 'I' for Inactive)
    1  A    between atoms: C_5  and  CA_20
    2  A    between atoms: C_6  and  N_21
    3  A    between atoms: C_8  and  C_23
    4  A    between atoms: C_8  and  C_27
    5  A    between atoms: C_13  and  C_17
    6  A    between atoms: C_13  and  C_27
    7  A    between atoms: C_14  and  C_31
    8  A    between atoms: C_17  and  N_21
                            x       y       z     vdW  Elec       q    Type
                         _______ _______ _______ _____ _____    ______ ____

>  <TORSDO>
F 8

$$$$
