=
 OpenBabel11042422513D

 38 40  0  0  1  0  0  0  0  0999 V2000
  160.5230  207.6250  154.9110 C   0  0  0  0  0  3  0  0  0  0  0  0
  161.4260  209.4020  153.3910 C   0  0  1  0  0  3  0  0  0  0  0  0
  160.5920  208.9140  154.5450 C   0  0  0  0  0  3  0  0  0  0  0  0
  160.5800  207.4320  152.1360 O   0  0  0  0  0  0  0  0  0  0  0  0
  161.0030  208.7830  152.0380 C   0  0  2  0  0  3  0  0  0  0  0  0
  161.5930  206.6920  152.7720 C   0  0  0  0  0  2  0  0  0  0  0  0
  161.2800  206.4910  154.2580 C   0  0  0  0  0  2  0  0  0  0  0  0
  161.4940  210.8680  153.3470 N   0  0  0  0  0  2  0  0  0  0  0  0
  160.1570  211.4640  153.3920 C   0  0  1  0  0  3  0  0  0  0  0  0
  159.9220  212.1630  154.7290 C   0  0  0  0  0  2  0  0  0  0  0  0
  155.5520  210.8110  154.7960 O   0  0  0  0  0  1  0  0  0  0  0  0
  157.8080  211.0670  155.4400 C   0  0  0  0  0  3  0  0  0  0  0  0
  156.3890  211.4350  155.7210 C   0  0  1  0  0  3  0  0  0  0  0  0
  158.4790  212.1560  155.1030 C   0  0  0  0  0  0  0  0  0  0  0  0
  157.6210  213.3280  155.1090 C   0  0  0  0  0  3  0  0  0  0  0  0
  156.4150  212.9060  155.4650 C   0  0  0  0  0  0  0  0  0  0  0  0
  155.2900  213.7220  155.5920 O   0  0  0  0  0  0  0  0  0  0  0  0
  154.9120  214.3130  156.8280 C   0  0  0  0  0  1  0  0  0  0  0  0
  159.9790  212.4510  152.2400 C   0  0  0  0  0  2  0  0  0  0  0  0
  158.5480  212.4630  151.7100 C   0  0  0  0  0  2  0  0  0  0  0  0
  158.2160  213.8140  151.1060 C   0  0  0  0  0  2  0  0  0  0  0  0
  156.8250  213.8460  150.6920 N   0  0  0  0  0  1  0  0  0  0  0  0
  162.0650  208.9350  151.0470 N   0  0  0  0  0  2  0  0  0  0  0  0
  161.4850  208.7300  149.7270 C   0  0  2  0  0  3  0  0  0  0  0  0
  162.9020  207.1410  148.6450 O   0  0  0  0  0  0  0  0  0  0  0  0
  160.8630  206.3020  149.4560 N   0  0  0  0  0  2  0  0  0  0  0  0
  161.8110  207.3550  149.2400 C   0  0  0  0  0  0  0  0  0  0  0  0
  161.2590  200.8410  147.7880 C   0  0  0  0  0  1  0  0  0  0  0  0
  160.8660  202.5770  149.5400 C   0  0  0  0  0  3  0  0  0  0  0  0
  161.2680  204.6200  147.6780 C   0  0  0  0  0  3  0  0  0  0  0  0
  161.1610  202.2620  148.2100 C   0  0  0  0  0  0  0  0  0  0  0  0
  161.3610  203.2840  147.2790 C   0  0  0  0  0  3  0  0  0  0  0  0
  160.9740  204.9440  149.0110 C   0  0  0  0  0  0  0  0  0  0  0  0
  160.7730  203.9140  149.9360 C   0  0  0  0  0  3  0  0  0  0  0  0
  161.9950  209.7910  148.7590 C   0  0  0  0  0  2  0  0  0  0  0  0
  162.1740  211.1300  149.4560 C   0  0  0  0  0  2  0  0  0  0  0  0
  162.5690  212.1020  148.5370 O   0  0  0  0  0  0  0  0  0  0  0  0
  161.5120  212.1800  147.6320 C   0  0  0  0  0  1  0  0  0  0  0  0
  2  8  1  6  0  0  0
  2  3  1  0  0  0  0
  3  1  2  0  0  0  0
  4  6  1  0  0  0  0
  5 23  1  6  0  0  0
  5  4  1  0  0  0  0
  5  2  1  0  0  0  0
  6  7  1  0  0  0  0
  7  1  1  0  0  0  0
  8  9  1  0  0  0  0
  9 19  1  6  0  0  0
  9 10  1  0  0  0  0
 10 14  1  0  0  0  0
 12 13  1  0  0  0  0
 13 11  1  6  0  0  0
 14 15  1  0  0  0  0
 14 12  2  0  0  0  0
 15 16  2  0  0  0  0
 16 17  1  0  0  0  0
 16 13  1  0  0  0  0
 17 18  1  0  0  0  0
 20 19  1  0  0  0  0
 21 20  1  0  0  0  0
 22 21  1  0  0  0  0
 24 35  1  6  0  0  0
 24 23  1  0  0  0  0
 25 27  2  0  0  0  0
 27 26  1  0  0  0  0
 27 24  1  0  0  0  0
 28 31  1  0  0  0  0
 29 34  1  0  0  0  0
 30 33  1  0  0  0  0
 31 29  2  0  0  0  0
 32 30  2  0  0  0  0
 32 31  1  0  0  0  0
 33 26  1  0  0  0  0
 33 34  2  0  0  0  0
 35 36  1  0  0  0  0
 37 36  1  0  0  0  0
 38 37  1  0  0  0  0
M  END
>  <MODEL>
1

>  <REMARK>
 VINA RESULT:      -7.1      0.000      0.000
  Name = 
  15 active torsions:
  status: ('A' for Active; 'I' for Inactive)
    1  A    between atoms: O_5  and  C_12
    2  A    between atoms: C_6  and  N_14
    3  A    between atoms: C_9  and  C_13
    4  A    between atoms: C_9  and  C_23
    5  A    between atoms: C_10  and  C_16
    6  A    between atoms: C_10  and  N_30
    7  A    between atoms: C_10  and  C_38
    8  A    between atoms: C_12  and  C_16
    9  A    between atoms: N_14  and  C_28
   10  A    between atoms: C_15  and  C_24
   11  A    between atoms: C_15  and  C_28
   12  A    between atoms: O_22  and  C_36
   13  A    between atoms: C_23  and  C_28
   14  A    between atoms: C_25  and  N_30
   15  A    between atoms: N_27  and  C_29
                            x       y       z     vdW  Elec       q    Type
                         _______ _______ _______ _____ _____    ______ ____

>  <TORSDO>
F 15

$$$$
=
 OpenBabel11042422513D

 38 40  0  0  1  0  0  0  0  0999 V2000
  162.2990  206.0470  153.0880 C   0  0  0  0  0  3  0  0  0  0  0  0
  161.6030  207.6230  151.2680 C   0  0  1  0  0  3  0  0  0  0  0  0
  162.4810  206.5530  151.8590 C   0  0  0  0  0  3  0  0  0  0  0  0
  161.7170  208.7370  153.4850 O   0  0  0  0  0  0  0  0  0  0  0  0
  161.6230  208.9370  152.0840 C   0  0  2  0  0  3  0  0  0  0  0  0
  160.6810  207.8740  153.8840 C   0  0  0  0  0  2  0  0  0  0  0  0
  161.1880  206.4360  154.0370 C   0  0  0  0  0  2  0  0  0  0  0  0
  161.8850  207.8360  149.8430 N   0  0  0  0  0  2  0  0  0  0  0  0
  161.8840  206.5710  149.1060 C   0  0  1  0  0  3  0  0  0  0  0  0
  160.5140  205.9020  149.1820 C   0  0  0  0  0  2  0  0  0  0  0  0
  161.8460  202.3780  151.7780 O   0  0  0  0  0  1  0  0  0  0  0  0
  160.5170  204.1330  150.9280 C   0  0  0  0  0  3  0  0  0  0  0  0
  160.7010  202.6550  151.0310 C   0  0  1  0  0  3  0  0  0  0  0  0
  160.6190  204.4930  149.6590 C   0  0  0  0  0  0  0  0  0  0  0  0
  160.8830  203.3490  148.8040 C   0  0  0  0  0  3  0  0  0  0  0  0
  160.9310  202.2900  149.6020 C   0  0  0  0  0  0  0  0  0  0  0  0
  161.1660  200.9820  149.1760 O   0  0  0  0  0  0  0  0  0  0  0  0
  161.4070  200.6550  147.8140 C   0  0  0  0  0  1  0  0  0  0  0  0
  162.2760  206.8070  147.6480 C   0  0  0  0  0  2  0  0  0  0  0  0
  161.1550  206.4310  146.6830 C   0  0  0  0  0  2  0  0  0  0  0  0
  161.7020  205.6180  145.5250 C   0  0  0  0  0  2  0  0  0  0  0  0
  162.9490  204.9820  145.9080 N   0  0  0  0  0  1  0  0  0  0  0  0
  160.4750  209.7730  151.7430 N   0  0  0  0  0  2  0  0  0  0  0  0
  160.8110  211.1550  152.0570 C   0  0  2  0  0  3  0  0  0  0  0  0
  160.6280  211.7610  154.3590 O   0  0  0  0  0  0  0  0  0  0  0  0
  158.6320  211.8360  153.1250 N   0  0  0  0  0  2  0  0  0  0  0  0
  160.0400  211.6030  153.2550 C   0  0  0  0  0  0  0  0  0  0  0  0
  155.0150  213.4410  157.2600 C   0  0  0  0  0  1  0  0  0  0  0  0
  156.6740  213.9690  155.4710 C   0  0  0  0  0  3  0  0  0  0  0  0
  156.9940  211.2540  154.8950 C   0  0  0  0  0  3  0  0  0  0  0  0
  155.9530  213.0130  156.1910 C   0  0  0  0  0  0  0  0  0  0  0  0
  156.1120  211.6560  155.9030 C   0  0  0  0  0  3  0  0  0  0  0  0
  157.7230  212.2080  154.1690 C   0  0  0  0  0  0  0  0  0  0  0  0
  157.5560  213.5660  154.4630 C   0  0  0  0  0  3  0  0  0  0  0  0
  160.5280  212.0490  150.8550 C   0  0  0  0  0  2  0  0  0  0  0  0
  161.4560  211.7230  149.6960 C   0  0  0  0  0  2  0  0  0  0  0  0
  161.7390  212.8780  148.9670 O   0  0  0  0  0  0  0  0  0  0  0  0
  162.6710  212.4720  148.0130 C   0  0  0  0  0  1  0  0  0  0  0  0
  1  7  1  0  0  0  0
  2  8  1  6  0  0  0
  2  3  1  0  0  0  0
  2  5  1  0  0  0  0
  3  1  2  0  0  0  0
  4  6  1  0  0  0  0
  5 23  1  1  0  0  0
  5  4  1  0  0  0  0
  6  7  1  0  0  0  0
  9 19  1  6  0  0  0
  9 10  1  0  0  0  0
  9  8  1  0  0  0  0
 10 14  1  0  0  0  0
 12 13  1  0  0  0  0
 13 11  1  1  0  0  0
 14 12  2  0  0  0  0
 15 16  2  0  0  0  0
 15 14  1  0  0  0  0
 16 13  1  0  0  0  0
 17 16  1  0  0  0  0
 18 17  1  0  0  0  0
 20 19  1  0  0  0  0
 21 22  1  0  0  0  0
 21 20  1  0  0  0  0
 23 24  1  0  0  0  0
 24 35  1  6  0  0  0
 24 27  1  0  0  0  0
 26 27  1  0  0  0  0
 26 33  1  0  0  0  0
 27 25  2  0  0  0  0
 29 31  1  0  0  0  0
 30 32  1  0  0  0  0
 31 28  1  0  0  0  0
 32 31  2  0  0  0  0
 33 34  1  0  0  0  0
 33 30  2  0  0  0  0
 34 29  2  0  0  0  0
 36 35  1  0  0  0  0
 37 36  1  0  0  0  0
 38 37  1  0  0  0  0
M  END
>  <MODEL>
2

>  <REMARK>
 VINA RESULT:      -6.9      2.131      9.148
  Name = 
  15 active torsions:
  status: ('A' for Active; 'I' for Inactive)
    1  A    between atoms: O_5  and  C_12
    2  A    between atoms: C_6  and  N_14
    3  A    between atoms: C_9  and  C_13
    4  A    between atoms: C_9  and  C_23
    5  A    between atoms: C_10  and  C_16
    6  A    between atoms: C_10  and  N_30
    7  A    between atoms: C_10  and  C_38
    8  A    between atoms: C_12  and  C_16
    9  A    between atoms: N_14  and  C_28
   10  A    between atoms: C_15  and  C_24
   11  A    between atoms: C_15  and  C_28
   12  A    between atoms: O_22  and  C_36
   13  A    between atoms: C_23  and  C_28
   14  A    between atoms: C_25  and  N_30
   15  A    between atoms: N_27  and  C_29
                            x       y       z     vdW  Elec       q    Type
                         _______ _______ _______ _____ _____    ______ ____

>  <TORSDO>
F 15

$$$$
=
 OpenBabel11042422513D

 38 40  0  0  1  0  0  0  0  0999 V2000
  161.0700  205.9050  153.2960 C   0  0  0  0  0  3  0  0  0  0  0  0
  162.2260  206.8690  151.2930 C   0  0  1  0  0  3  0  0  0  0  0  0
  161.5650  206.9660  152.6410 C   0  0  0  0  0  3  0  0  0  0  0  0
  160.3880  205.3210  150.6640 O   0  0  0  0  0  0  0  0  0  0  0  0
  161.2830  206.3180  150.1970 C   0  0  2  0  0  3  0  0  0  0  0  0
  161.1360  204.3070  151.2890 C   0  0  0  0  0  2  0  0  0  0  0  0
  161.1290  204.4740  152.8120 C   0  0  0  0  0  2  0  0  0  0  0  0
  162.8660  208.1330  150.9070 N   0  0  0  0  0  2  0  0  0  0  0  0
  161.8960  209.2290  150.8620 C   0  0  1  0  0  3  0  0  0  0  0  0
  162.2760  210.3280  151.8510 C   0  0  0  0  0  2  0  0  0  0  0  0
  159.5870  209.5640  155.4730 O   0  0  0  0  0  1  0  0  0  0  0  0
  161.3470  210.4210  154.1540 C   0  0  0  0  0  3  0  0  0  0  0  0
  160.0500  210.7130  154.8320 C   0  0  1  0  0  3  0  0  0  0  0  0
  161.1930  210.5640  152.8480 C   0  0  0  0  0  0  0  0  0  0  0  0
  159.8310  210.9430  152.5140 C   0  0  0  0  0  3  0  0  0  0  0  0
  159.1740  211.0250  153.6640 C   0  0  0  0  0  0  0  0  0  0  0  0
  157.8260  211.3630  153.7890 O   0  0  0  0  0  0  0  0  0  0  0  0
  157.3570  212.2810  154.7680 C   0  0  0  0  0  1  0  0  0  0  0  0
  161.8060  209.7990  149.4470 C   0  0  0  0  0  2  0  0  0  0  0  0
  162.1160  211.2930  149.4090 C   0  0  0  0  0  2  0  0  0  0  0  0
  162.0510  211.8120  147.9850 C   0  0  0  0  0  2  0  0  0  0  0  0
  162.8480  213.0190  147.8590 N   0  0  0  0  0  1  0  0  0  0  0  0
  162.0500  205.8470  149.0470 N   0  0  0  0  0  2  0  0  0  0  0  0
  161.1110  205.4950  147.9900 C   0  0  2  0  0  3  0  0  0  0  0  0
  162.6320  204.0860  146.8060 O   0  0  0  0  0  0  0  0  0  0  0  0
  160.5960  203.0930  147.4270 N   0  0  0  0  0  2  0  0  0  0  0  0
  161.5110  204.1950  147.3710 C   0  0  0  0  0  0  0  0  0  0  0  0
  161.3620  197.8760  145.2000 C   0  0  0  0  0  1  0  0  0  0  0  0
  161.6230  199.5300  147.0520 C   0  0  0  0  0  3  0  0  0  0  0  0
  160.3160  201.4920  145.5520 C   0  0  0  0  0  3  0  0  0  0  0  0
  161.1600  199.2340  145.7670 C   0  0  0  0  0  0  0  0  0  0  0  0
  160.5050  200.2140  145.0170 C   0  0  0  0  0  3  0  0  0  0  0  0
  160.7790  201.7970  146.8410 C   0  0  0  0  0  0  0  0  0  0  0  0
  161.4320  200.8080  147.5850 C   0  0  0  0  0  3  0  0  0  0  0  0
  161.0540  206.6060  146.9480 C   0  0  0  0  0  2  0  0  0  0  0  0
  160.1380  206.2320  145.7940 C   0  0  0  0  0  2  0  0  0  0  0  0
  160.7750  206.4720  144.5770 O   0  0  0  0  0  0  0  0  0  0  0  0
  161.1580  205.2110  144.1250 C   0  0  0  0  0  1  0  0  0  0  0  0
  2  8  1  6  0  0  0
  2  3  1  0  0  0  0
  3  1  2  0  0  0  0
  4  6  1  0  0  0  0
  5 23  1  6  0  0  0
  5  4  1  0  0  0  0
  5  2  1  0  0  0  0
  6  7  1  0  0  0  0
  7  1  1  0  0  0  0
  9 19  1  6  0  0  0
  9  8  1  0  0  0  0
  9 10  1  0  0  0  0
 10 14  1  0  0  0  0
 12 13  1  0  0  0  0
 13 11  1  6  0  0  0
 14 12  2  0  0  0  0
 15 14  1  0  0  0  0
 15 16  2  0  0  0  0
 16 17  1  0  0  0  0
 16 13  1  0  0  0  0
 17 18  1  0  0  0  0
 20 19  1  0  0  0  0
 21 20  1  0  0  0  0
 22 21  1  0  0  0  0
 24 35  1  6  0  0  0
 24 23  1  0  0  0  0
 25 27  2  0  0  0  0
 27 26  1  0  0  0  0
 27 24  1  0  0  0  0
 28 31  1  0  0  0  0
 29 34  1  0  0  0  0
 30 33  1  0  0  0  0
 31 29  2  0  0  0  0
 32 30  2  0  0  0  0
 32 31  1  0  0  0  0
 33 26  1  0  0  0  0
 33 34  2  0  0  0  0
 36 35  1  0  0  0  0
 37 36  1  0  0  0  0
 38 37  1  0  0  0  0
M  END
>  <MODEL>
3

>  <REMARK>
 VINA RESULT:      -6.9      2.480      4.233
  Name = 
  15 active torsions:
  status: ('A' for Active; 'I' for Inactive)
    1  A    between atoms: O_5  and  C_12
    2  A    between atoms: C_6  and  N_14
    3  A    between atoms: C_9  and  C_13
    4  A    between atoms: C_9  and  C_23
    5  A    between atoms: C_10  and  C_16
    6  A    between atoms: C_10  and  N_30
    7  A    between atoms: C_10  and  C_38
    8  A    between atoms: C_12  and  C_16
    9  A    between atoms: N_14  and  C_28
   10  A    between atoms: C_15  and  C_24
   11  A    between atoms: C_15  and  C_28
   12  A    between atoms: O_22  and  C_36
   13  A    between atoms: C_23  and  C_28
   14  A    between atoms: C_25  and  N_30
   15  A    between atoms: N_27  and  C_29
                            x       y       z     vdW  Elec       q    Type
                         _______ _______ _______ _____ _____    ______ ____

>  <TORSDO>
F 15

$$$$
=
 OpenBabel11042422513D

 38 40  0  0  1  0  0  0  0  0999 V2000
  162.3350  210.4380  149.1410 C   0  0  0  0  0  3  0  0  0  0  0  0
  161.4100  210.1540  151.4530 C   0  0  1  0  0  3  0  0  0  0  0  0
  162.2130  210.8740  150.4040 C   0  0  0  0  0  3  0  0  0  0  0  0
  162.4210  208.0590  150.5800 O   0  0  0  0  0  0  0  0  0  0  0  0
  161.9310  208.7240  151.7340 C   0  0  2  0  0  3  0  0  0  0  0  0
  161.4210  208.0820  149.5920 C   0  0  0  0  0  2  0  0  0  0  0  0
  161.6730  209.2020  148.5770 C   0  0  0  0  0  2  0  0  0  0  0  0
  161.2650  210.9540  152.6750 N   0  0  0  0  0  2  0  0  0  0  0  0
  159.8550  211.1860  152.9960 C   0  0  1  0  0  3  0  0  0  0  0  0
  159.7170  211.9130  154.3310 C   0  0  0  0  0  2  0  0  0  0  0  0
  155.3200  210.6940  154.6590 O   0  0  0  0  0  1  0  0  0  0  0  0
  157.6160  210.8830  155.1690 C   0  0  0  0  0  3  0  0  0  0  0  0
  156.2280  211.2950  155.5310 C   0  0  1  0  0  3  0  0  0  0  0  0
  158.2990  211.9510  154.7890 C   0  0  0  0  0  0  0  0  0  0  0  0
  157.4780  213.1480  154.8400 C   0  0  0  0  0  3  0  0  0  0  0  0
  156.2830  212.7630  155.2670 C   0  0  0  0  0  0  0  0  0  0  0  0
  155.1930  213.6140  155.4560 O   0  0  0  0  0  0  0  0  0  0  0  0
  154.6540  214.4080  154.4070 C   0  0  0  0  0  1  0  0  0  0  0  0
  159.1840  211.9910  151.8830 C   0  0  0  0  0  2  0  0  0  0  0  0
  159.7560  213.4010  151.7690 C   0  0  0  0  0  2  0  0  0  0  0  0
  159.8250  213.8290  150.3160 C   0  0  0  0  0  2  0  0  0  0  0  0
  158.5220  213.6880  149.6920 N   0  0  0  0  0  1  0  0  0  0  0  0
  160.9100  207.9280  152.4110 N   0  0  0  0  0  2  0  0  0  0  0  0
  161.5840  206.9240  153.2230 C   0  0  2  0  0  3  0  0  0  0  0  0
  163.0500  205.2710  152.3170 O   0  0  0  0  0  0  0  0  0  0  0  0
  160.7950  205.0860  151.6880 N   0  0  0  0  0  2  0  0  0  0  0  0
  161.8730  205.7150  152.3930 C   0  0  0  0  0  0  0  0  0  0  0  0
  161.1940  200.6790  148.0590 C   0  0  0  0  0  1  0  0  0  0  0  0
  161.0390  203.1260  148.5290 C   0  0  0  0  0  3  0  0  0  0  0  0
  160.9400  202.6440  151.2780 C   0  0  0  0  0  3  0  0  0  0  0  0
  161.0880  201.8150  149.0090 C   0  0  0  0  0  0  0  0  0  0  0  0
  161.0390  201.5740  150.3850 C   0  0  0  0  0  3  0  0  0  0  0  0
  160.8890  203.9630  150.8030 C   0  0  0  0  0  0  0  0  0  0  0  0
  160.9410  204.1950  149.4240 C   0  0  0  0  0  3  0  0  0  0  0  0
  160.7300  206.5690  154.4340 C   0  0  0  0  0  2  0  0  0  0  0  0
  160.4380  207.7970  155.2800 C   0  0  0  0  0  2  0  0  0  0  0  0
  161.6290  208.4250  155.6440 O   0  0  0  0  0  0  0  0  0  0  0  0
  161.3830  208.9320  156.9190 C   0  0  0  0  0  1  0  0  0  0  0  0
  1  3  2  0  0  0  0
  2  5  1  0  0  0  0
  2  8  1  1  0  0  0
  3  2  1  0  0  0  0
  4  5  1  0  0  0  0
  5 23  1  6  0  0  0
  6  4  1  0  0  0  0
  7  1  1  0  0  0  0
  7  6  1  0  0  0  0
  8  9  1  0  0  0  0
  9 19  1  6  0  0  0
  9 10  1  0  0  0  0
 10 14  1  0  0  0  0
 12 13  1  0  0  0  0
 13 11  1  6  0  0  0
 14 15  1  0  0  0  0
 14 12  2  0  0  0  0
 15 16  2  0  0  0  0
 16 17  1  0  0  0  0
 16 13  1  0  0  0  0
 18 17  1  0  0  0  0
 20 19  1  0  0  0  0
 21 20  1  0  0  0  0
 22 21  1  0  0  0  0
 23 24  1  0  0  0  0
 24 35  1  1  0  0  0
 25 27  2  0  0  0  0
 26 27  1  0  0  0  0
 27 24  1  0  0  0  0
 28 31  1  0  0  0  0
 29 31  2  0  0  0  0
 29 34  1  0  0  0  0
 31 32  1  0  0  0  0
 32 30  2  0  0  0  0
 33 30  1  0  0  0  0
 33 26  1  0  0  0  0
 34 33  2  0  0  0  0
 35 36  1  0  0  0  0
 36 37  1  0  0  0  0
 37 38  1  0  0  0  0
M  END
>  <MODEL>
4

>  <REMARK>
 VINA RESULT:      -6.7      1.465      3.613
  Name = 
  15 active torsions:
  status: ('A' for Active; 'I' for Inactive)
    1  A    between atoms: O_5  and  C_12
    2  A    between atoms: C_6  and  N_14
    3  A    between atoms: C_9  and  C_13
    4  A    between atoms: C_9  and  C_23
    5  A    between atoms: C_10  and  C_16
    6  A    between atoms: C_10  and  N_30
    7  A    between atoms: C_10  and  C_38
    8  A    between atoms: C_12  and  C_16
    9  A    between atoms: N_14  and  C_28
   10  A    between atoms: C_15  and  C_24
   11  A    between atoms: C_15  and  C_28
   12  A    between atoms: O_22  and  C_36
   13  A    between atoms: C_23  and  C_28
   14  A    between atoms: C_25  and  N_30
   15  A    between atoms: N_27  and  C_29
                            x       y       z     vdW  Elec       q    Type
                         _______ _______ _______ _____ _____    ______ ____

>  <TORSDO>
F 15

$$$$
=
 OpenBabel11042422513D

 38 40  0  0  1  0  0  0  0  0999 V2000
  159.7040  210.0580  156.5010 C   0  0  0  0  0  3  0  0  0  0  0  0
  159.9550  210.4440  154.0380 C   0  0  1  0  0  3  0  0  0  0  0  0
  159.1530  210.3100  155.3040 C   0  0  0  0  0  3  0  0  0  0  0  0
  161.2410  208.4660  154.8150 O   0  0  0  0  0  0  0  0  0  0  0  0
  160.7390  209.1590  153.6830 C   0  0  2  0  0  3  0  0  0  0  0  0
  162.0000  209.3630  155.5870 C   0  0  0  0  0  2  0  0  0  0  0  0
  161.1850  209.9050  156.7660 C   0  0  0  0  0  2  0  0  0  0  0  0
  159.1350  210.9340  152.9220 N   0  0  0  0  0  2  0  0  0  0  0  0
  159.3880  212.3520  152.6580 C   0  0  1  0  0  3  0  0  0  0  0  0
  158.4150  212.8890  151.6120 C   0  0  0  0  0  2  0  0  0  0  0  0
  159.3130  213.2920  147.1450 O   0  0  0  0  0  1  0  0  0  0  0  0
  158.5170  213.8080  149.3050 C   0  0  0  0  0  3  0  0  0  0  0  0
  159.5380  214.1030  148.2570 C   0  0  1  0  0  3  0  0  0  0  0  0
  159.1250  213.3200  150.3750 C   0  0  0  0  0  0  0  0  0  0  0  0
  160.5600  213.2260  150.1700 C   0  0  0  0  0  3  0  0  0  0  0  0
  160.7920  213.6770  148.9440 C   0  0  0  0  0  0  0  0  0  0  0  0
  162.0530  213.7550  148.3500 O   0  0  0  0  0  0  0  0  0  0  0  0
  162.7810  212.6010  147.9510 C   0  0  0  0  0  1  0  0  0  0  0  0
  159.2750  213.1600  153.9500 C   0  0  0  0  0  2  0  0  0  0  0  0
  157.9780  213.9620  154.0140 C   0  0  0  0  0  2  0  0  0  0  0  0
  157.2670  213.7180  155.3310 C   0  0  0  0  0  2  0  0  0  0  0  0
  155.9440  214.3140  155.3000 N   0  0  0  0  0  1  0  0  0  0  0  0
  161.8030  209.4520  152.7270 N   0  0  0  0  0  2  0  0  0  0  0  0
  161.4040  208.9250  151.4290 C   0  0  2  0  0  3  0  0  0  0  0  0
  162.8340  207.0310  151.6860 O   0  0  0  0  0  0  0  0  0  0  0  0
  160.6570  206.5690  150.9350 N   0  0  0  0  0  2  0  0  0  0  0  0
  161.6920  207.4610  151.3680 C   0  0  0  0  0  0  0  0  0  0  0  0
  161.1040  200.9240  150.1000 C   0  0  0  0  0  1  0  0  0  0  0  0
  160.8240  203.2530  149.2440 C   0  0  0  0  0  3  0  0  0  0  0  0
  160.9300  204.2750  151.8410 C   0  0  0  0  0  3  0  0  0  0  0  0
  160.9860  202.3870  150.3290 C   0  0  0  0  0  0  0  0  0  0  0  0
  161.0400  202.8980  151.6280 C   0  0  0  0  0  3  0  0  0  0  0  0
  160.7660  205.1510  150.7570 C   0  0  0  0  0  0  0  0  0  0  0  0
  160.7150  204.6300  149.4600 C   0  0  0  0  0  3  0  0  0  0  0  0
  162.1230  209.6750  150.3140 C   0  0  0  0  0  2  0  0  0  0  0  0
  161.7380  209.1320  148.9480 C   0  0  0  0  0  2  0  0  0  0  0  0
  162.8200  208.4650  148.3730 O   0  0  0  0  0  0  0  0  0  0  0  0
  162.2680  207.3120  147.8180 C   0  0  0  0  0  1  0  0  0  0  0  0
  1  7  1  0  0  0  0
  2  8  1  6  0  0  0
  2  3  1  0  0  0  0
  3  1  2  0  0  0  0
  4  6  1  0  0  0  0
  5 23  1  6  0  0  0
  5  2  1  0  0  0  0
  5  4  1  0  0  0  0
  6  7  1  0  0  0  0
  9 10  1  6  0  0  0
  9  8  1  0  0  0  0
  9 19  1  0  0  0  0
 12 14  2  0  0  0  0
 13 11  1  6  0  0  0
 13 16  1  0  0  0  0
 13 12  1  0  0  0  0
 14 10  1  0  0  0  0
 15 14  1  0  0  0  0
 16 15  2  0  0  0  0
 17 16  1  0  0  0  0
 18 17  1  0  0  0  0
 19 20  1  0  0  0  0
 20 21  1  0  0  0  0
 22 21  1  0  0  0  0
 24 35  1  6  0  0  0
 24 23  1  0  0  0  0
 26 27  1  0  0  0  0
 27 24  1  0  0  0  0
 27 25  2  0  0  0  0
 28 31  1  0  0  0  0
 29 34  2  0  0  0  0
 29 31  1  0  0  0  0
 31 32  2  0  0  0  0
 32 30  1  0  0  0  0
 33 26  1  0  0  0  0
 33 30  2  0  0  0  0
 34 33  1  0  0  0  0
 36 35  1  0  0  0  0
 37 36  1  0  0  0  0
 38 37  1  0  0  0  0
M  END
>  <MODEL>
5

>  <REMARK>
 VINA RESULT:      -6.7      2.332      4.621
  Name = 
  15 active torsions:
  status: ('A' for Active; 'I' for Inactive)
    1  A    between atoms: O_5  and  C_12
    2  A    between atoms: C_6  and  N_14
    3  A    between atoms: C_9  and  C_13
    4  A    between atoms: C_9  and  C_23
    5  A    between atoms: C_10  and  C_16
    6  A    between atoms: C_10  and  N_30
    7  A    between atoms: C_10  and  C_38
    8  A    between atoms: C_12  and  C_16
    9  A    between atoms: N_14  and  C_28
   10  A    between atoms: C_15  and  C_24
   11  A    between atoms: C_15  and  C_28
   12  A    between atoms: O_22  and  C_36
   13  A    between atoms: C_23  and  C_28
   14  A    between atoms: C_25  and  N_30
   15  A    between atoms: N_27  and  C_29
                            x       y       z     vdW  Elec       q    Type
                         _______ _______ _______ _____ _____    ______ ____

>  <TORSDO>
F 15

$$$$
=
 OpenBabel11042422513D

 38 40  0  0  1  0  0  0  0  0999 V2000
  162.3270  205.8300  153.1470 C   0  0  0  0  0  3  0  0  0  0  0  0
  161.4600  207.5370  151.5300 C   0  0  1  0  0  3  0  0  0  0  0  0
  162.4540  206.5090  151.9970 C   0  0  0  0  0  3  0  0  0  0  0  0
  161.4320  208.3620  153.8730 O   0  0  0  0  0  0  0  0  0  0  0  0
  161.3220  208.7290  152.5070 C   0  0  2  0  0  3  0  0  0  0  0  0
  160.5030  207.3400  154.1380 C   0  0  0  0  0  2  0  0  0  0  0  0
  161.1740  205.9630  154.1170 C   0  0  0  0  0  2  0  0  0  0  0  0
  161.7220  207.9630  150.1500 N   0  0  0  0  0  2  0  0  0  0  0  0
  161.7880  206.8160  149.2420 C   0  0  1  0  0  3  0  0  0  0  0  0
  160.4630  206.0580  149.2320 C   0  0  0  0  0  2  0  0  0  0  0  0
  161.8190  202.4180  151.6470 O   0  0  0  0  0  1  0  0  0  0  0  0
  160.4320  204.1260  150.7940 C   0  0  0  0  0  3  0  0  0  0  0  0
  160.7510  202.6680  150.7860 C   0  0  1  0  0  3  0  0  0  0  0  0
  160.6510  204.6230  149.5870 C   0  0  0  0  0  0  0  0  0  0  0  0
  161.1310  203.6010  148.6740 C   0  0  0  0  0  3  0  0  0  0  0  0
  161.1890  202.4740  149.3720 C   0  0  0  0  0  0  0  0  0  0  0  0
  161.6050  201.2430  148.8640 O   0  0  0  0  0  0  0  0  0  0  0  0
  161.2030  200.7710  147.5840 C   0  0  0  0  0  1  0  0  0  0  0  0
  162.1450  207.2780  147.8300 C   0  0  0  0  0  2  0  0  0  0  0  0
  161.3690  206.5130  146.7620 C   0  0  0  0  0  2  0  0  0  0  0  0
  162.3220  205.8290  145.8010 C   0  0  0  0  0  2  0  0  0  0  0  0
  161.5760  205.1630  144.7490 N   0  0  0  0  0  1  0  0  0  0  0  0
  160.0860  209.4630  152.2530 N   0  0  0  0  0  2  0  0  0  0  0  0
  160.2310  210.8020  152.8090 C   0  0  2  0  0  3  0  0  0  0  0  0
  159.9980  212.9520  151.7980 O   0  0  0  0  0  0  0  0  0  0  0  0
  161.2050  211.3670  150.5540 N   0  0  0  0  0  2  0  0  0  0  0  0
  160.4620  211.7830  151.7070 C   0  0  0  0  0  0  0  0  0  0  0  0
  162.3670  214.3900  145.8350 C   0  0  0  0  0  1  0  0  0  0  0  0
  162.9000  212.5730  147.4630 C   0  0  0  0  0  3  0  0  0  0  0  0
  160.6310  213.1900  148.9720 C   0  0  0  0  0  3  0  0  0  0  0  0
  162.0570  213.6140  147.0620 C   0  0  0  0  0  0  0  0  0  0  0  0
  160.9220  213.9210  147.8170 C   0  0  0  0  0  3  0  0  0  0  0  0
  161.4740  212.1450  149.3800 C   0  0  0  0  0  0  0  0  0  0  0  0
  162.6070  211.8420  148.6180 C   0  0  0  0  0  3  0  0  0  0  0  0
  161.3720  210.8290  153.8190 C   0  0  0  0  0  2  0  0  0  0  0  0
  160.9290  211.4510  155.1330 C   0  0  0  0  0  2  0  0  0  0  0  0
  160.2650  210.5060  155.9140 O   0  0  0  0  0  0  0  0  0  0  0  0
  159.3120  211.2380  156.6190 C   0  0  0  0  0  1  0  0  0  0  0  0
  1  7  1  0  0  0  0
  2  8  1  6  0  0  0
  2  3  1  0  0  0  0
  2  5  1  0  0  0  0
  3  1  2  0  0  0  0
  4  6  1  0  0  0  0
  5 23  1  1  0  0  0
  5  4  1  0  0  0  0
  7  6  1  0  0  0  0
  9 19  1  6  0  0  0
  9  8  1  0  0  0  0
 10  9  1  0  0  0  0
 10 14  1  0  0  0  0
 13 12  1  0  0  0  0
 13 11  1  1  0  0  0
 14 12  2  0  0  0  0
 15 16  2  0  0  0  0
 15 14  1  0  0  0  0
 16 13  1  0  0  0  0
 17 16  1  0  0  0  0
 18 17  1  0  0  0  0
 20 19  1  0  0  0  0
 21 20  1  0  0  0  0
 22 21  1  0  0  0  0
 23 24  1  0  0  0  0
 24 35  1  1  0  0  0
 26 27  1  0  0  0  0
 27 25  2  0  0  0  0
 27 24  1  0  0  0  0
 28 31  1  0  0  0  0
 29 34  1  0  0  0  0
 30 33  1  0  0  0  0
 31 29  2  0  0  0  0
 31 32  1  0  0  0  0
 32 30  2  0  0  0  0
 33 26  1  0  0  0  0
 34 33  2  0  0  0  0
 35 36  1  0  0  0  0
 36 37  1  0  0  0  0
 37 38  1  0  0  0  0
M  END
>  <MODEL>
6

>  <REMARK>
 VINA RESULT:      -6.2      2.613      8.705
  Name = 
  15 active torsions:
  status: ('A' for Active; 'I' for Inactive)
    1  A    between atoms: O_5  and  C_12
    2  A    between atoms: C_6  and  N_14
    3  A    between atoms: C_9  and  C_13
    4  A    between atoms: C_9  and  C_23
    5  A    between atoms: C_10  and  C_16
    6  A    between atoms: C_10  and  N_30
    7  A    between atoms: C_10  and  C_38
    8  A    between atoms: C_12  and  C_16
    9  A    between atoms: N_14  and  C_28
   10  A    between atoms: C_15  and  C_24
   11  A    between atoms: C_15  and  C_28
   12  A    between atoms: O_22  and  C_36
   13  A    between atoms: C_23  and  C_28
   14  A    between atoms: C_25  and  N_30
   15  A    between atoms: N_27  and  C_29
                            x       y       z     vdW  Elec       q    Type
                         _______ _______ _______ _____ _____    ______ ____

>  <TORSDO>
F 15

$$$$
=
 OpenBabel11042422513D

 38 40  0  0  1  0  0  0  0  0999 V2000
  161.7910  211.5030  149.9090 C   0  0  0  0  0  3  0  0  0  0  0  0
  160.4110  210.4490  151.7160 C   0  0  1  0  0  3  0  0  0  0  0  0
  161.0960  211.6120  151.0520 C   0  0  0  0  0  3  0  0  0  0  0  0
  162.4630  209.1420  151.2170 O   0  0  0  0  0  0  0  0  0  0  0  0
  161.3930  209.3270  152.1300 C   0  0  2  0  0  3  0  0  0  0  0  0
  161.9260  208.9400  149.9330 C   0  0  0  0  0  2  0  0  0  0  0  0
  161.9620  210.2310  149.1100 C   0  0  0  0  0  2  0  0  0  0  0  0
  159.5480  210.8830  152.8220 N   0  0  0  0  0  2  0  0  0  0  0  0
  159.7420  212.3030  153.1230 C   0  0  1  0  0  3  0  0  0  0  0  0
  158.4890  213.1040  152.7760 C   0  0  0  0  0  2  0  0  0  0  0  0
  156.6010  213.8360  156.8780 O   0  0  0  0  0  1  0  0  0  0  0  0
  157.0870  214.0800  154.5820 C   0  0  0  0  0  3  0  0  0  0  0  0
  156.0900  213.6310  155.5970 C   0  0  1  0  0  3  0  0  0  0  0  0
  157.4770  213.0360  153.8680 C   0  0  0  0  0  0  0  0  0  0  0  0
  156.8190  211.8180  154.3110 C   0  0  0  0  0  3  0  0  0  0  0  0
  156.0210  212.1680  155.3110 C   0  0  0  0  0  0  0  0  0  0  0  0
  155.2050  211.2870  156.0230 O   0  0  0  0  0  0  0  0  0  0  0  0
  154.9730  209.9500  155.6000 C   0  0  0  0  0  1  0  0  0  0  0  0
  160.0980  212.4900  154.5970 C   0  0  0  0  0  2  0  0  0  0  0  0
  160.2330  211.1570  155.3280 C   0  0  0  0  0  2  0  0  0  0  0  0
  161.4850  211.1470  156.1850 C   0  0  0  0  0  2  0  0  0  0  0  0
  162.6190  210.6880  155.4030 N   0  0  0  0  0  1  0  0  0  0  0  0
  160.6760  208.0770  152.3670 N   0  0  0  0  0  2  0  0  0  0  0  0
  161.5870  207.1510  153.0260 C   0  0  2  0  0  3  0  0  0  0  0  0
  163.1030  205.7320  151.8470 O   0  0  0  0  0  0  0  0  0  0  0  0
  160.8220  205.2700  151.5330 N   0  0  0  0  0  2  0  0  0  0  0  0
  161.9030  206.0150  152.1090 C   0  0  0  0  0  0  0  0  0  0  0  0
  161.2060  200.8960  147.8620 C   0  0  0  0  0  1  0  0  0  0  0  0
  160.9220  201.8030  150.1710 C   0  0  0  0  0  3  0  0  0  0  0  0
  161.1140  204.4230  149.2190 C   0  0  0  0  0  3  0  0  0  0  0  0
  161.1100  202.0380  148.8060 C   0  0  0  0  0  0  0  0  0  0  0  0
  161.2050  203.3480  148.3300 C   0  0  0  0  0  3  0  0  0  0  0  0
  160.9270  204.1950  150.5910 C   0  0  0  0  0  0  0  0  0  0  0  0
  160.8310  202.8800  151.0590 C   0  0  0  0  0  3  0  0  0  0  0  0
  160.9760  206.6520  154.3300 C   0  0  0  0  0  2  0  0  0  0  0  0
  160.1840  207.7500  155.0220 C   0  0  0  0  0  2  0  0  0  0  0  0
  159.3740  207.2050  156.0170 O   0  0  0  0  0  0  0  0  0  0  0  0
  160.2420  206.9450  157.0760 C   0  0  0  0  0  1  0  0  0  0  0  0
  1  3  2  0  0  0  0
  2  5  1  0  0  0  0
  2  8  1  1  0  0  0
  3  2  1  0  0  0  0
  4  5  1  0  0  0  0
  5 23  1  6  0  0  0
  6  4  1  0  0  0  0
  7  1  1  0  0  0  0
  7  6  1  0  0  0  0
  8  9  1  0  0  0  0
  9 10  1  1  0  0  0
  9 19  1  0  0  0  0
 10 14  1  0  0  0  0
 12 13  1  0  0  0  0
 13 11  1  1  0  0  0
 14 15  1  0  0  0  0
 14 12  2  0  0  0  0
 15 16  2  0  0  0  0
 16 13  1  0  0  0  0
 16 17  1  0  0  0  0
 18 17  1  0  0  0  0
 19 20  1  0  0  0  0
 20 21  1  0  0  0  0
 22 21  1  0  0  0  0
 23 24  1  0  0  0  0
 24 35  1  1  0  0  0
 25 27  2  0  0  0  0
 26 27  1  0  0  0  0
 27 24  1  0  0  0  0
 28 31  1  0  0  0  0
 29 34  1  0  0  0  0
 30 33  1  0  0  0  0
 31 29  2  0  0  0  0
 32 31  1  0  0  0  0
 32 30  2  0  0  0  0
 33 34  2  0  0  0  0
 33 26  1  0  0  0  0
 35 36  1  0  0  0  0
 36 37  1  0  0  0  0
 37 38  1  0  0  0  0
M  END
>  <MODEL>
7

>  <REMARK>
 VINA RESULT:      -6.2      1.717      4.259
  Name = 
  15 active torsions:
  status: ('A' for Active; 'I' for Inactive)
    1  A    between atoms: O_5  and  C_12
    2  A    between atoms: C_6  and  N_14
    3  A    between atoms: C_9  and  C_13
    4  A    between atoms: C_9  and  C_23
    5  A    between atoms: C_10  and  C_16
    6  A    between atoms: C_10  and  N_30
    7  A    between atoms: C_10  and  C_38
    8  A    between atoms: C_12  and  C_16
    9  A    between atoms: N_14  and  C_28
   10  A    between atoms: C_15  and  C_24
   11  A    between atoms: C_15  and  C_28
   12  A    between atoms: O_22  and  C_36
   13  A    between atoms: C_23  and  C_28
   14  A    between atoms: C_25  and  N_30
   15  A    between atoms: N_27  and  C_29
                            x       y       z     vdW  Elec       q    Type
                         _______ _______ _______ _____ _____    ______ ____

>  <TORSDO>
F 15

$$$$
=
 OpenBabel11042422513D

 38 40  0  0  1  0  0  0  0  0999 V2000
  160.8360  205.8170  148.3400 C   0  0  0  0  0  3  0  0  0  0  0  0
  161.2590  207.0300  150.4920 C   0  0  1  0  0  3  0  0  0  0  0  0
  160.4470  206.1500  149.5800 C   0  0  0  0  0  3  0  0  0  0  0  0
  161.6600  208.4680  148.5060 O   0  0  0  0  0  0  0  0  0  0  0  0
  161.4870  208.4480  149.9140 C   0  0  2  0  0  3  0  0  0  0  0  0
  162.6960  207.5780  148.1700 C   0  0  0  0  0  2  0  0  0  0  0  0
  162.1360  206.2350  147.6910 C   0  0  0  0  0  2  0  0  0  0  0  0
  160.7140  207.0550  151.8550 N   0  0  0  0  0  2  0  0  0  0  0  0
  161.4580  206.1590  152.7420 C   0  0  1  0  0  3  0  0  0  0  0  0
  160.6420  205.8350  153.9910 C   0  0  0  0  0  2  0  0  0  0  0  0
  159.4630  209.6230  156.2690 O   0  0  0  0  0  1  0  0  0  0  0  0
  159.7090  207.3370  155.7370 C   0  0  0  0  0  3  0  0  0  0  0  0
  160.1570  208.4620  156.6090 C   0  0  1  0  0  3  0  0  0  0  0  0
  160.7290  206.9290  154.9990 C   0  0  0  0  0  0  0  0  0  0  0  0
  161.9240  207.7080  155.2740 C   0  0  0  0  0  3  0  0  0  0  0  0
  161.5870  208.5930  156.2030 C   0  0  0  0  0  0  0  0  0  0  0  0
  162.4530  209.5420  156.7490 O   0  0  0  0  0  0  0  0  0  0  0  0
  162.8610  210.7030  156.0370 C   0  0  0  0  0  1  0  0  0  0  0  0
  161.8300  204.8730  152.0050 C   0  0  0  0  0  2  0  0  0  0  0  0
  160.8470  203.7420  152.2910 C   0  0  0  0  0  2  0  0  0  0  0  0
  161.2110  202.5070  151.4900 C   0  0  0  0  0  2  0  0  0  0  0  0
  160.6990  202.6230  150.1360 N   0  0  0  0  0  1  0  0  0  0  0  0
  162.5970  209.1090  150.5950 N   0  0  0  0  0  2  0  0  0  0  0  0
  162.3060  210.5350  150.6560 C   0  0  2  0  0  3  0  0  0  0  0  0
  161.4570  210.1750  152.8580 O   0  0  0  0  0  0  0  0  0  0  0  0
  160.3240  211.7880  151.5810 N   0  0  0  0  0  2  0  0  0  0  0  0
  161.3530  210.8080  151.7730 C   0  0  0  0  0  0  0  0  0  0  0  0
  156.1980  213.3090  155.2440 C   0  0  0  0  0  1  0  0  0  0  0  0
  157.9630  213.8740  153.5710 C   0  0  0  0  0  3  0  0  0  0  0  0
  158.5880  211.1710  153.2410 C   0  0  0  0  0  3  0  0  0  0  0  0
  157.2690  212.9030  154.2980 C   0  0  0  0  0  0  0  0  0  0  0  0
  157.5800  211.5510  154.1320 C   0  0  0  0  0  3  0  0  0  0  0  0
  159.2910  212.1400  152.5090 C   0  0  0  0  0  0  0  0  0  0  0  0
  158.9700  213.4910  152.6800 C   0  0  0  0  0  3  0  0  0  0  0  0
  161.7430  211.0130  149.3220 C   0  0  0  0  0  2  0  0  0  0  0  0
  162.7250  211.9260  148.6060 C   0  0  0  0  0  2  0  0  0  0  0  0
  162.2080  212.3130  147.3700 O   0  0  0  0  0  0  0  0  0  0  0  0
  160.9100  212.7370  147.6490 C   0  0  0  0  0  1  0  0  0  0  0  0
  1  3  2  0  0  0  0
  2  8  1  1  0  0  0
  3  2  1  0  0  0  0
  4  5  1  0  0  0  0
  5  2  1  0  0  0  0
  5 23  1  1  0  0  0
  6  4  1  0  0  0  0
  7  6  1  0  0  0  0
  7  1  1  0  0  0  0
  8  9  1  0  0  0  0
  9 19  1  6  0  0  0
  9 10  1  0  0  0  0
 10 14  1  0  0  0  0
 12 13  1  0  0  0  0
 13 11  1  6  0  0  0
 14 15  1  0  0  0  0
 14 12  2  0  0  0  0
 15 16  2  0  0  0  0
 16 13  1  0  0  0  0
 16 17  1  0  0  0  0
 18 17  1  0  0  0  0
 19 20  1  0  0  0  0
 21 20  1  0  0  0  0
 22 21  1  0  0  0  0
 23 24  1  0  0  0  0
 24 35  1  6  0  0  0
 24 27  1  0  0  0  0
 26 27  1  0  0  0  0
 26 33  1  0  0  0  0
 27 25  2  0  0  0  0
 29 31  1  0  0  0  0
 30 32  1  0  0  0  0
 31 28  1  0  0  0  0
 32 31  2  0  0  0  0
 33 34  1  0  0  0  0
 33 30  2  0  0  0  0
 34 29  2  0  0  0  0
 36 35  1  0  0  0  0
 37 38  1  0  0  0  0
 37 36  1  0  0  0  0
M  END
>  <MODEL>
8

>  <REMARK>
 VINA RESULT:      -6.1      2.230      7.351
  Name = 
  15 active torsions:
  status: ('A' for Active; 'I' for Inactive)
    1  A    between atoms: O_5  and  C_12
    2  A    between atoms: C_6  and  N_14
    3  A    between atoms: C_9  and  C_13
    4  A    between atoms: C_9  and  C_23
    5  A    between atoms: C_10  and  C_16
    6  A    between atoms: C_10  and  N_30
    7  A    between atoms: C_10  and  C_38
    8  A    between atoms: C_12  and  C_16
    9  A    between atoms: N_14  and  C_28
   10  A    between atoms: C_15  and  C_24
   11  A    between atoms: C_15  and  C_28
   12  A    between atoms: O_22  and  C_36
   13  A    between atoms: C_23  and  C_28
   14  A    between atoms: C_25  and  N_30
   15  A    between atoms: N_27  and  C_29
                            x       y       z     vdW  Elec       q    Type
                         _______ _______ _______ _____ _____    ______ ____

>  <TORSDO>
F 15

$$$$
=
 OpenBabel11042422513D

 38 40  0  0  1  0  0  0  0  0999 V2000
  160.8380  204.0980  153.1200 C   0  0  0  0  0  3  0  0  0  0  0  0
  161.8610  205.9230  151.7400 C   0  0  1  0  0  3  0  0  0  0  0  0
  161.1630  205.3900  152.9620 C   0  0  0  0  0  3  0  0  0  0  0  0
  160.3210  204.4920  150.4160 O   0  0  0  0  0  0  0  0  0  0  0  0
  161.0470  205.7110  150.4410 C   0  0  2  0  0  3  0  0  0  0  0  0
  161.2140  203.4350  150.6690 C   0  0  0  0  0  2  0  0  0  0  0  0
  161.1460  202.9930  152.1340 C   0  0  0  0  0  2  0  0  0  0  0  0
  162.2890  207.3160  151.9200 N   0  0  0  0  0  2  0  0  0  0  0  0
  161.4420  208.2360  151.1580 C   0  0  1  0  0  3  0  0  0  0  0  0
  160.3520  208.8290  152.0480 C   0  0  0  0  0  2  0  0  0  0  0  0
  160.3540  209.0130  156.6190 O   0  0  0  0  0  1  0  0  0  0  0  0
  160.7670  208.2420  154.4270 C   0  0  0  0  0  3  0  0  0  0  0  0
  161.3490  208.8630  155.6530 C   0  0  1  0  0  3  0  0  0  0  0  0
  160.8570  209.1010  153.4240 C   0  0  0  0  0  0  0  0  0  0  0  0
  161.4750  210.3460  153.8470 C   0  0  0  0  0  3  0  0  0  0  0  0
  161.7540  210.2040  155.1360 C   0  0  0  0  0  0  0  0  0  0  0  0
  162.3580  211.1790  155.9320 O   0  0  0  0  0  0  0  0  0  0  0  0
  163.6910  211.0570  156.4090 C   0  0  0  0  0  1  0  0  0  0  0  0
  162.2880  209.3500  150.5440 C   0  0  0  0  0  2  0  0  0  0  0  0
  161.9720  209.5630  149.0670 C   0  0  0  0  0  2  0  0  0  0  0  0
  162.3460  210.9710  148.6420 C   0  0  0  0  0  2  0  0  0  0  0  0
  161.6140  211.9410  149.4350 N   0  0  0  0  0  1  0  0  0  0  0  0
  161.9060  205.8410  149.2680 N   0  0  0  0  0  2  0  0  0  0  0  0
  161.1100  205.5370  148.0870 C   0  0  2  0  0  3  0  0  0  0  0  0
  162.7010  204.0930  147.0430 O   0  0  0  0  0  0  0  0  0  0  0  0
  160.6050  203.1380  147.5020 N   0  0  0  0  0  2  0  0  0  0  0  0
  161.5380  204.2250  147.5140 C   0  0  0  0  0  0  0  0  0  0  0  0
  161.4170  197.9790  145.1600 C   0  0  0  0  0  1  0  0  0  0  0  0
  160.6700  200.3580  145.0220 C   0  0  0  0  0  3  0  0  0  0  0  0
  161.3550  200.7810  147.6970 C   0  0  0  0  0  3  0  0  0  0  0  0
  161.2080  199.3130  145.7780 C   0  0  0  0  0  0  0  0  0  0  0  0
  161.5510  199.5250  147.1160 C   0  0  0  0  0  3  0  0  0  0  0  0
  160.8140  201.8340  146.9440 C   0  0  0  0  0  0  0  0  0  0  0  0
  160.4750  201.6130  145.6050 C   0  0  0  0  0  3  0  0  0  0  0  0
  161.2440  206.6560  147.0610 C   0  0  0  0  0  2  0  0  0  0  0  0
  160.7370  206.2160  145.6970 C   0  0  0  0  0  2  0  0  0  0  0  0
  161.8040  206.0620  144.8140 O   0  0  0  0  0  0  0  0  0  0  0  0
  161.2330  205.5220  143.6630 C   0  0  0  0  0  1  0  0  0  0  0  0
  2  8  1  1  0  0  0
  2  3  1  0  0  0  0
  3  1  2  0  0  0  0
  4  5  1  0  0  0  0
  4  6  1  0  0  0  0
  5 23  1  6  0  0  0
  5  2  1  0  0  0  0
  6  7  1  0  0  0  0
  7  1  1  0  0  0  0
  9 19  1  1  0  0  0
  9  8  1  0  0  0  0
  9 10  1  0  0  0  0
 10 14  1  0  0  0  0
 12 13  1  0  0  0  0
 13 11  1  1  0  0  0
 14 15  1  0  0  0  0
 14 12  2  0  0  0  0
 15 16  2  0  0  0  0
 16 13  1  0  0  0  0
 16 17  1  0  0  0  0
 17 18  1  0  0  0  0
 20 19  1  0  0  0  0
 21 20  1  0  0  0  0
 21 22  1  0  0  0  0
 24 35  1  6  0  0  0
 24 23  1  0  0  0  0
 25 27  2  0  0  0  0
 26 27  1  0  0  0  0
 27 24  1  0  0  0  0
 28 31  1  0  0  0  0
 29 34  2  0  0  0  0
 29 31  1  0  0  0  0
 31 32  2  0  0  0  0
 32 30  1  0  0  0  0
 33 26  1  0  0  0  0
 33 30  2  0  0  0  0
 34 33  1  0  0  0  0
 36 35  1  0  0  0  0
 37 36  1  0  0  0  0
 38 37  1  0  0  0  0
M  END
>  <MODEL>
9

>  <REMARK>
 VINA RESULT:      -5.9      3.548      4.894
  Name = 
  15 active torsions:
  status: ('A' for Active; 'I' for Inactive)
    1  A    between atoms: O_5  and  C_12
    2  A    between atoms: C_6  and  N_14
    3  A    between atoms: C_9  and  C_13
    4  A    between atoms: C_9  and  C_23
    5  A    between atoms: C_10  and  C_16
    6  A    between atoms: C_10  and  N_30
    7  A    between atoms: C_10  and  C_38
    8  A    between atoms: C_12  and  C_16
    9  A    between atoms: N_14  and  C_28
   10  A    between atoms: C_15  and  C_24
   11  A    between atoms: C_15  and  C_28
   12  A    between atoms: O_22  and  C_36
   13  A    between atoms: C_23  and  C_28
   14  A    between atoms: C_25  and  N_30
   15  A    between atoms: N_27  and  C_29
                            x       y       z     vdW  Elec       q    Type
                         _______ _______ _______ _____ _____    ______ ____

>  <TORSDO>
F 15

$$$$
