=
 OpenBabel11042423003D

 32 36  0  0  1  0  0  0  0  0999 V2000
  161.6700  209.0330  150.4450 C   0  0  0  0  0  2  0  0  0  0  0  0
  161.7690  206.5630  148.9990 O   0  0  0  0  0  0  0  0  0  0  0  0
  161.6550  207.6740  151.1450 C   0  0  2  0  0  3  0  0  0  0  0  0
  161.5280  207.7680  148.3160 C   0  0  0  0  0  2  0  0  0  0  0  0
  161.0400  206.6250  150.2020 C   0  0  2  0  0  3  0  0  0  0  0  0
  162.2370  208.9170  149.0340 C   0  0  1  0  0  3  0  0  0  0  0  0
  160.9590  202.9960  151.0270 C   0  0  0  0  0  0  0  0  0  0  0  0
  160.9620  204.0160  150.1250 C   0  0  0  0  0  0  0  0  0  0  0  0
  160.9380  202.4940  148.3490 C   0  0  0  0  0  0  0  0  0  0  0  0
  160.9960  203.5250  152.4170 C   0  0  0  0  0  2  0  0  0  0  0  0
  160.9500  201.7030  150.6200 N   0  0  0  0  0  0  0  0  0  0  0  0
  161.0330  205.0150  152.1490 C   0  0  0  0  0  3  0  0  0  0  0  0
  161.0050  205.2680  150.8360 C   0  0  0  0  0  0  0  0  0  0  0  0
  160.9280  202.1550  146.6310 Cl  0  0  0  0  0  0  0  0  0  0  0  0
  160.9410  201.4340  149.2800 C   0  0  0  0  0  3  0  0  0  0  0  0
  160.9540  203.7860  148.7880 N   0  0  0  0  0  0  0  0  0  0  0  0
  161.1540  208.7840  153.3280 C   0  0  0  0  0  0  0  0  0  0  0  0
  161.9330  209.8740  153.7690 N   0  0  0  0  0  0  0  0  0  0  0  0
  160.8680  209.4260  154.4930 C   0  0  1  0  0  3  0  0  0  0  0  0
  160.8720  207.7720  152.3660 N   0  0  0  0  0  2  0  0  0  0  0  0
  159.6820  210.3210  154.3000 C   0  0  0  0  0  0  0  0  0  0  0  0
  159.3910  210.9820  153.1270 C   0  0  0  0  0  3  0  0  0  0  0  0
  158.7730  210.5810  155.2100 O   0  0  0  0  0  0  0  0  0  0  0  0
  157.8800  211.3950  154.7000 C   0  0  0  0  0  3  0  0  0  0  0  0
  158.2230  211.6770  153.3880 C   0  0  0  0  0  3  0  0  0  0  0  0
  162.0040  210.2260  148.3020 C   0  0  0  0  0  2  0  0  0  0  0  0
  161.9640  211.3900  149.2760 C   0  0  0  0  0  2  0  0  0  0  0  0
  162.4110  212.7380  147.1940 N   0  0  0  0  0  2  0  0  0  0  0  0
  161.8890  212.6710  148.5230 C   0  0  0  0  0  0  0  0  0  0  0  0
  161.4140  213.6960  149.0790 O   0  0  0  0  0  0  0  0  0  0  0  0
  162.6030  213.6310  144.9370 C   0  0  0  0  0  1  0  0  0  0  0  0
  162.3870  213.9580  146.4010 C   0  0  0  0  0  2  0  0  0  0  0  0
  1  3  1  0  0  0  0
  2  5  1  0  0  0  0
  3 20  1  1  0  0  0
  4  2  1  0  0  0  0
  4  6  1  0  0  0  0
  5 13  1  1  0  0  0
  5  3  1  0  0  0  0
  6 26  1  6  0  0  0
  6  1  1  0  0  0  0
  7 10  1  0  0  0  0
  8 13  1  0  0  0  0
  8  7  2  0  0  0  0
  9 16  2  0  0  0  0
  9 15  1  0  0  0  0
 11  7  1  0  0  0  0
 12 10  1  0  0  0  0
 13 12  2  0  0  0  0
 14  9  1  0  0  0  0
 15 11  2  0  0  0  0
 16  8  1  0  0  0  0
 17 18  2  0  0  0  0
 17 19  1  0  0  0  0
 18 19  1  0  0  0  0
 19 21  1  6  0  0  0
 20 17  1  0  0  0  0
 21 23  1  0  0  0  0
 22 25  1  0  0  0  0
 22 21  2  0  0  0  0
 24 23  1  0  0  0  0
 25 24  2  0  0  0  0
 26 27  1  0  0  0  0
 28 29  1  0  0  0  0
 29 30  2  0  0  0  0
 29 27  1  0  0  0  0
 31 32  1  0  0  0  0
 32 28  1  0  0  0  0
M  END
>  <MODEL>
1

>  <REMARK>
 VINA RESULT:      -8.5      0.000      0.000
  Name = 
  7 active torsions:
  status: ('A' for Active; 'I' for Inactive)
    1  A    between atoms: N_4  and  C_18
    2  A    between atoms: C_7  and  C_23
    3  A    between atoms: C_7  and  C_30
    4  A    between atoms: C_10  and  N_26
    5  A    between atoms: C_16  and  C_21
    6  A    between atoms: C_17  and  C_22
    7  A    between atoms: C_23  and  C_25
                            x       y       z     vdW  Elec       q    Type
                         _______ _______ _______ _____ _____    ______ ____

>  <TORSDO>
F 7

$$$$
=
 OpenBabel11042423003D

 32 36  0  0  1  0  0  0  0  0999 V2000
  162.0190  208.3810  148.9550 C   0  0  0  0  0  2  0  0  0  0  0  0
  160.8840  206.7350  151.0050 O   0  0  0  0  0  0  0  0  0  0  0  0
  162.0780  208.7600  150.4350 C   0  0  2  0  0  3  0  0  0  0  0  0
  160.5850  206.4810  149.6550 C   0  0  0  0  0  2  0  0  0  0  0  0
  160.8780  208.1340  151.1660 C   0  0  2  0  0  3  0  0  0  0  0  0
  161.7730  206.8860  148.7810 C   0  0  1  0  0  3  0  0  0  0  0  0
  160.4660  209.5870  154.5690 C   0  0  0  0  0  0  0  0  0  0  0  0
  160.2690  209.6240  153.2230 C   0  0  0  0  0  0  0  0  0  0  0  0
  159.0430  211.6070  153.4210 C   0  0  0  0  0  0  0  0  0  0  0  0
  161.2480  208.3800  154.9500 C   0  0  0  0  0  2  0  0  0  0  0  0
  159.9580  210.5490  155.3770 N   0  0  0  0  0  0  0  0  0  0  0  0
  161.4490  207.7360  153.5950 C   0  0  0  0  0  3  0  0  0  0  0  0
  160.8880  208.4680  152.6270 C   0  0  0  0  0  0  0  0  0  0  0  0
  158.1230  212.9090  152.6980 Cl  0  0  0  0  0  0  0  0  0  0  0  0
  159.2400  211.5690  154.8180 C   0  0  0  0  0  3  0  0  0  0  0  0
  159.5610  210.6200  152.6330 N   0  0  0  0  0  0  0  0  0  0  0  0
  162.1830  211.0390  149.4130 C   0  0  0  0  0  0  0  0  0  0  0  0
  162.3920  211.1890  148.0250 N   0  0  0  0  0  0  0  0  0  0  0  0
  162.1990  212.2700  148.8340 C   0  0  1  0  0  3  0  0  0  0  0  0
  162.0430  210.2080  150.5610 N   0  0  0  0  0  2  0  0  0  0  0  0
  160.7990  212.7870  148.7020 C   0  0  0  0  0  0  0  0  0  0  0  0
  160.1030  213.4080  149.7160 C   0  0  0  0  0  3  0  0  0  0  0  0
  160.0670  212.7240  147.6160 O   0  0  0  0  0  0  0  0  0  0  0  0
  158.9010  213.2740  147.8550 C   0  0  0  0  0  3  0  0  0  0  0  0
  158.8740  213.7230  149.1650 C   0  0  0  0  0  3  0  0  0  0  0  0
  161.4790  206.6030  147.3180 C   0  0  0  0  0  2  0  0  0  0  0  0
  162.4460  205.5730  146.7620 C   0  0  0  0  0  2  0  0  0  0  0  0
  161.6090  203.4570  147.8450 N   0  0  0  0  0  2  0  0  0  0  0  0
  161.7690  204.2520  146.6680 C   0  0  0  0  0  0  0  0  0  0  0  0
  161.3920  203.8210  145.5460 O   0  0  0  0  0  0  0  0  0  0  0  0
  160.3780  201.8430  149.1900 C   0  0  0  0  0  1  0  0  0  0  0  0
  160.9740  202.1490  147.8290 C   0  0  0  0  0  2  0  0  0  0  0  0
  1  3  1  0  0  0  0
  2  5  1  0  0  0  0
  3 20  1  6  0  0  0
  3  5  1  0  0  0  0
  4  2  1  0  0  0  0
  5 13  1  1  0  0  0
  6 26  1  6  0  0  0
  6  1  1  0  0  0  0
  6  4  1  0  0  0  0
  7 10  1  0  0  0  0
  7 11  1  0  0  0  0
  8  7  2  0  0  0  0
  9 15  1  0  0  0  0
 12 10  1  0  0  0  0
 13  8  1  0  0  0  0
 13 12  2  0  0  0  0
 14  9  1  0  0  0  0
 15 11  2  0  0  0  0
 16  8  1  0  0  0  0
 16  9  2  0  0  0  0
 17 20  1  0  0  0  0
 18 19  1  0  0  0  0
 18 17  2  0  0  0  0
 19 21  1  6  0  0  0
 19 17  1  0  0  0  0
 21 22  2  0  0  0  0
 23 24  1  0  0  0  0
 23 21  1  0  0  0  0
 24 25  2  0  0  0  0
 25 22  1  0  0  0  0
 27 26  1  0  0  0  0
 29 27  1  0  0  0  0
 29 28  1  0  0  0  0
 30 29  2  0  0  0  0
 32 28  1  0  0  0  0
 32 31  1  0  0  0  0
M  END
>  <MODEL>
2

>  <REMARK>
 VINA RESULT:      -8.3      3.129      7.249
  Name = 
  7 active torsions:
  status: ('A' for Active; 'I' for Inactive)
    1  A    between atoms: N_4  and  C_18
    2  A    between atoms: C_7  and  C_23
    3  A    between atoms: C_7  and  C_30
    4  A    between atoms: C_10  and  N_26
    5  A    between atoms: C_16  and  C_21
    6  A    between atoms: C_17  and  C_22
    7  A    between atoms: C_23  and  C_25
                            x       y       z     vdW  Elec       q    Type
                         _______ _______ _______ _____ _____    ______ ____

>  <TORSDO>
F 7

$$$$
=
 OpenBabel11042423003D

 32 36  0  0  1  0  0  0  0  0999 V2000
  162.0250  209.0730  149.4420 C   0  0  0  0  0  2  0  0  0  0  0  0
  161.4380  208.0380  152.0470 O   0  0  0  0  0  0  0  0  0  0  0  0
  162.0080  209.9580  150.6890 C   0  0  2  0  0  3  0  0  0  0  0  0
  161.1940  207.2520  150.9070 C   0  0  0  0  0  2  0  0  0  0  0  0
  161.0450  209.3520  151.7260 C   0  0  2  0  0  3  0  0  0  0  0  0
  162.2030  207.6040  149.8140 C   0  0  1  0  0  3  0  0  0  0  0  0
  160.3350  211.7880  154.4490 C   0  0  0  0  0  0  0  0  0  0  0  0
  160.1170  211.2990  153.1980 C   0  0  0  0  0  0  0  0  0  0  0  0
  158.4450  212.8930  152.8270 C   0  0  0  0  0  0  0  0  0  0  0  0
  161.3940  211.0050  155.1410 C   0  0  0  0  0  2  0  0  0  0  0  0
  159.6170  212.8340  154.9260 N   0  0  0  0  0  0  0  0  0  0  0  0
  161.7290  209.9830  154.0750 C   0  0  0  0  0  3  0  0  0  0  0  0
  160.9920  210.1770  152.9750 C   0  0  0  0  0  0  0  0  0  0  0  0
  157.2240  213.6100  151.7980 Cl  0  0  0  0  0  0  0  0  0  0  0  0
  158.6640  213.3990  154.1260 C   0  0  0  0  0  3  0  0  0  0  0  0
  159.1780  211.8330  152.3770 N   0  0  0  0  0  0  0  0  0  0  0  0
  162.0000  211.8860  149.0980 C   0  0  0  0  0  0  0  0  0  0  0  0
  162.7580  211.8310  147.9090 N   0  0  0  0  0  0  0  0  0  0  0  0
  161.9740  212.9080  148.2010 C   0  0  1  0  0  3  0  0  0  0  0  0
  161.5730  211.2960  150.3210 N   0  0  0  0  0  2  0  0  0  0  0  0
  160.6970  212.8630  147.4180 C   0  0  0  0  0  0  0  0  0  0  0  0
  159.4790  213.2940  147.8940 C   0  0  0  0  0  3  0  0  0  0  0  0
  160.5780  212.4180  146.1890 O   0  0  0  0  0  0  0  0  0  0  0  0
  159.3250  212.5290  145.8170 C   0  0  0  0  0  3  0  0  0  0  0  0
  158.5910  213.0770  146.8550 C   0  0  0  0  0  3  0  0  0  0  0  0
  161.9680  206.7530  148.5790 C   0  0  0  0  0  2  0  0  0  0  0  0
  160.8000  205.8060  148.7890 C   0  0  0  0  0  2  0  0  0  0  0  0
  160.7370  203.2940  148.9820 N   0  0  0  0  0  2  0  0  0  0  0  0
  161.1470  204.4590  148.2620 C   0  0  0  0  0  0  0  0  0  0  0  0
  161.8420  204.3570  147.2170 O   0  0  0  0  0  0  0  0  0  0  0  0
  160.9960  200.9850  149.7100 C   0  0  0  0  0  1  0  0  0  0  0  0
  161.0520  201.9450  148.5380 C   0  0  0  0  0  2  0  0  0  0  0  0
  1  6  1  0  0  0  0
  1  3  1  0  0  0  0
  3 20  1  6  0  0  0
  3  5  1  0  0  0  0
  4  2  1  0  0  0  0
  5  2  1  0  0  0  0
  5 13  1  1  0  0  0
  6 26  1  6  0  0  0
  6  4  1  0  0  0  0
  7 11  1  0  0  0  0
  7 10  1  0  0  0  0
  8  7  2  0  0  0  0
  9 15  1  0  0  0  0
 12 10  1  0  0  0  0
 13  8  1  0  0  0  0
 13 12  2  0  0  0  0
 14  9  1  0  0  0  0
 15 11  2  0  0  0  0
 16  9  2  0  0  0  0
 16  8  1  0  0  0  0
 17 20  1  0  0  0  0
 18 19  1  0  0  0  0
 18 17  2  0  0  0  0
 19 21  1  6  0  0  0
 19 17  1  0  0  0  0
 21 22  2  0  0  0  0
 23 21  1  0  0  0  0
 24 23  1  0  0  0  0
 24 25  2  0  0  0  0
 25 22  1  0  0  0  0
 26 27  1  0  0  0  0
 29 27  1  0  0  0  0
 29 28  1  0  0  0  0
 30 29  2  0  0  0  0
 32 28  1  0  0  0  0
 32 31  1  0  0  0  0
M  END
>  <MODEL>
3

>  <REMARK>
 VINA RESULT:      -7.9      3.167      8.079
  Name = 
  7 active torsions:
  status: ('A' for Active; 'I' for Inactive)
    1  A    between atoms: N_4  and  C_18
    2  A    between atoms: C_7  and  C_23
    3  A    between atoms: C_7  and  C_30
    4  A    between atoms: C_10  and  N_26
    5  A    between atoms: C_16  and  C_21
    6  A    between atoms: C_17  and  C_22
    7  A    between atoms: C_23  and  C_25
                            x       y       z     vdW  Elec       q    Type
                         _______ _______ _______ _____ _____    ______ ____

>  <TORSDO>
F 7

$$$$
=
 OpenBabel11042423003D

 32 36  0  0  1  0  0  0  0  0999 V2000
  161.5990  209.5430  150.7290 C   0  0  0  0  0  2  0  0  0  0  0  0
  162.0880  208.0110  148.3590 O   0  0  0  0  0  0  0  0  0  0  0  0
  161.6000  208.0140  150.7290 C   0  0  2  0  0  3  0  0  0  0  0  0
  161.8430  209.3930  148.2650 C   0  0  0  0  0  2  0  0  0  0  0  0
  161.2020  207.5080  149.3310 C   0  0  2  0  0  3  0  0  0  0  0  0
  162.3560  210.0930  149.5240 C   0  0  1  0  0  3  0  0  0  0  0  0
  161.2280  203.9050  148.3980 C   0  0  0  0  0  0  0  0  0  0  0  0
  161.2310  205.2240  148.0650 C   0  0  0  0  0  0  0  0  0  0  0  0
  161.3480  204.6880  145.7910 C   0  0  0  0  0  0  0  0  0  0  0  0
  161.1820  203.7370  149.8750 C   0  0  0  0  0  3  0  0  0  0  0  0
  161.2890  202.9430  147.4440 N   0  0  0  0  0  0  0  0  0  0  0  0
  161.1720  205.1840  150.3210 C   0  0  0  0  0  3  0  0  0  0  0  0
  161.1930  206.0110  149.2700 C   0  0  0  0  0  0  0  0  0  0  0  0
  161.4290  205.1750  144.1110 Cl  0  0  0  0  0  0  0  0  0  0  0  0
  161.3510  203.3180  146.1320 C   0  0  0  0  0  3  0  0  0  0  0  0
  161.2930  205.6340  146.7730 N   0  0  0  0  0  2  0  0  0  0  0  0
  161.1150  206.8480  152.8860 C   0  0  0  0  0  0  0  0  0  0  0  0
  162.1660  206.3010  153.6520 N   0  0  0  0  0  0  0  0  0  0  0  0
  160.8720  206.2480  154.0830 C   0  0  1  0  0  3  0  0  0  0  0  0
  160.6570  207.5340  151.7250 N   0  0  0  0  0  2  0  0  0  0  0  0
  160.6190  207.2900  155.1300 C   0  0  0  0  0  0  0  0  0  0  0  0
  160.8080  208.6410  154.9410 C   0  0  0  0  0  3  0  0  0  0  0  0
  160.1830  207.0530  156.3440 O   0  0  0  0  0  0  0  0  0  0  0  0
  160.0720  208.1910  156.9860 C   0  0  0  0  0  3  0  0  0  0  0  0
  160.4520  209.2230  156.1450 C   0  0  0  0  0  3  0  0  0  0  0  0
  162.1180  211.5890  149.4350 C   0  0  0  0  0  2  0  0  0  0  0  0
  161.3100  211.9360  148.1970 C   0  0  0  0  0  2  0  0  0  0  0  0
  161.9910  213.0210  146.0270 N   0  0  0  0  0  2  0  0  0  0  0  0
  161.9780  213.0400  147.4560 C   0  0  0  0  0  0  0  0  0  0  0  0
  162.5690  213.9510  148.0920 O   0  0  0  0  0  0  0  0  0  0  0  0
  163.2800  213.4430  144.0050 C   0  0  0  0  0  1  0  0  0  0  0  0
  162.6370  214.0550  145.2340 C   0  0  0  0  0  2  0  0  0  0  0  0
  1  3  1  0  0  0  0
  2  5  1  0  0  0  0
  3 20  1  1  0  0  0
  4  2  1  0  0  0  0
  4  6  1  0  0  0  0
  5 13  1  1  0  0  0
  5  3  1  0  0  0  0
  6 26  1  6  0  0  0
  6  1  1  0  0  0  0
  7 10  1  0  0  0  0
  8  7  1  0  0  0  0
  8 13  2  0  0  0  0
  9 15  2  0  0  0  0
  9 16  1  0  0  0  0
 10 12  2  0  0  0  0
 11  7  2  0  0  0  0
 13 12  1  0  0  0  0
 14  9  1  0  0  0  0
 15 11  1  0  0  0  0
 16  8  1  0  0  0  0
 17 18  2  0  0  0  0
 17 19  1  0  0  0  0
 18 19  1  0  0  0  0
 19 21  1  1  0  0  0
 20 17  1  0  0  0  0
 21 23  1  0  0  0  0
 22 21  2  0  0  0  0
 22 25  1  0  0  0  0
 23 24  1  0  0  0  0
 25 24  2  0  0  0  0
 27 26  1  0  0  0  0
 28 29  1  0  0  0  0
 29 30  2  0  0  0  0
 29 27  1  0  0  0  0
 31 32  1  0  0  0  0
 32 28  1  0  0  0  0
M  END
>  <MODEL>
4

>  <REMARK>
 VINA RESULT:      -7.8      2.110      2.578
  Name = 
  7 active torsions:
  status: ('A' for Active; 'I' for Inactive)
    1  A    between atoms: N_4  and  C_18
    2  A    between atoms: C_7  and  C_23
    3  A    between atoms: C_7  and  C_30
    4  A    between atoms: C_10  and  N_26
    5  A    between atoms: C_16  and  C_21
    6  A    between atoms: C_17  and  C_22
    7  A    between atoms: C_23  and  C_25
                            x       y       z     vdW  Elec       q    Type
                         _______ _______ _______ _____ _____    ______ ____

>  <TORSDO>
F 7

$$$$
=
 OpenBabel11042423003D

 32 36  0  0  1  0  0  0  0  0999 V2000
  161.4920  210.4350  150.6950 C   0  0  0  0  0  2  0  0  0  0  0  0
  162.2480  207.8620  149.6910 O   0  0  0  0  0  0  0  0  0  0  0  0
  161.4710  209.1790  151.5660 C   0  0  2  0  0  3  0  0  0  0  0  0
  162.0380  208.9290  148.8010 C   0  0  0  0  0  2  0  0  0  0  0  0
  161.2420  207.9470  150.6720 C   0  0  2  0  0  3  0  0  0  0  0  0
  162.4010  210.2480  149.4840 C   0  0  1  0  0  3  0  0  0  0  0  0
  161.1430  204.4540  151.9540 C   0  0  0  0  0  0  0  0  0  0  0  0
  161.1160  205.3510  150.9310 C   0  0  0  0  0  0  0  0  0  0  0  0
  160.9740  203.6190  149.3660 C   0  0  0  0  0  0  0  0  0  0  0  0
  161.2610  205.1520  153.2620 C   0  0  0  0  0  2  0  0  0  0  0  0
  161.0910  203.1210  151.7150 N   0  0  0  0  0  0  0  0  0  0  0  0
  161.3090  206.5960  152.8050 C   0  0  0  0  0  3  0  0  0  0  0  0
  161.2170  206.6820  151.4740 C   0  0  0  0  0  0  0  0  0  0  0  0
  160.8700  203.0670  147.7080 Cl  0  0  0  0  0  0  0  0  0  0  0  0
  161.0080  202.6840  150.4230 C   0  0  0  0  0  3  0  0  0  0  0  0
  161.0350  204.9560  149.6360 N   0  0  0  0  0  0  0  0  0  0  0  0
  160.5590  210.1250  153.6920 C   0  0  0  0  0  0  0  0  0  0  0  0
  161.3430  210.9960  154.4780 N   0  0  0  0  0  0  0  0  0  0  0  0
  160.0620  210.6830  154.8290 C   0  0  1  0  0  3  0  0  0  0  0  0
  160.4040  209.2930  152.5470 N   0  0  0  0  0  2  0  0  0  0  0  0
  159.1280  211.8010  154.4790 C   0  0  0  0  0  0  0  0  0  0  0  0
  159.2990  213.1090  154.8790 C   0  0  0  0  0  3  0  0  0  0  0  0
  158.0450  211.6830  153.7490 O   0  0  0  0  0  0  0  0  0  0  0  0
  157.4730  212.8580  153.6420 C   0  0  0  0  0  3  0  0  0  0  0  0
  158.2250  213.7920  154.3340 C   0  0  0  0  0  3  0  0  0  0  0  0
  162.1990  211.4140  148.5340 C   0  0  0  0  0  2  0  0  0  0  0  0
  161.2470  212.4370  149.1280 C   0  0  0  0  0  2  0  0  0  0  0  0
  159.1140  213.3000  148.1010 N   0  0  0  0  0  2  0  0  0  0  0  0
  160.5340  213.1510  148.0350 C   0  0  0  0  0  0  0  0  0  0  0  0
  161.1780  213.5710  147.0380 O   0  0  0  0  0  0  0  0  0  0  0  0
  156.8750  213.9870  147.4340 C   0  0  0  0  0  1  0  0  0  0  0  0
  158.3450  213.9720  147.0640 C   0  0  0  0  0  2  0  0  0  0  0  0
  1  3  1  0  0  0  0
  2  5  1  0  0  0  0
  3 20  1  1  0  0  0
  4  6  1  0  0  0  0
  4  2  1  0  0  0  0
  5 13  1  1  0  0  0
  5  3  1  0  0  0  0
  6 26  1  6  0  0  0
  6  1  1  0  0  0  0
  7 10  1  0  0  0  0
  8 13  1  0  0  0  0
  8  7  2  0  0  0  0
  9 16  2  0  0  0  0
  9 15  1  0  0  0  0
 11  7  1  0  0  0  0
 12 10  1  0  0  0  0
 13 12  2  0  0  0  0
 14  9  1  0  0  0  0
 15 11  2  0  0  0  0
 16  8  1  0  0  0  0
 17 18  2  0  0  0  0
 17 19  1  0  0  0  0
 18 19  1  0  0  0  0
 19 21  1  6  0  0  0
 20 17  1  0  0  0  0
 21 22  2  0  0  0  0
 23 21  1  0  0  0  0
 24 23  1  0  0  0  0
 24 25  2  0  0  0  0
 25 22  1  0  0  0  0
 26 27  1  0  0  0  0
 29 28  1  0  0  0  0
 29 27  1  0  0  0  0
 30 29  2  0  0  0  0
 32 31  1  0  0  0  0
 32 28  1  0  0  0  0
M  END
>  <MODEL>
5

>  <REMARK>
 VINA RESULT:      -7.8      1.864      2.161
  Name = 
  7 active torsions:
  status: ('A' for Active; 'I' for Inactive)
    1  A    between atoms: N_4  and  C_18
    2  A    between atoms: C_7  and  C_23
    3  A    between atoms: C_7  and  C_30
    4  A    between atoms: C_10  and  N_26
    5  A    between atoms: C_16  and  C_21
    6  A    between atoms: C_17  and  C_22
    7  A    between atoms: C_23  and  C_25
                            x       y       z     vdW  Elec       q    Type
                         _______ _______ _______ _____ _____    ______ ____

>  <TORSDO>
F 7

$$$$
=
 OpenBabel11042423003D

 32 36  0  0  1  0  0  0  0  0999 V2000
  161.9240  209.0190  149.6770 C   0  0  0  0  0  2  0  0  0  0  0  0
  161.3760  208.0330  152.3100 O   0  0  0  0  0  0  0  0  0  0  0  0
  161.9620  209.9190  150.9120 C   0  0  2  0  0  3  0  0  0  0  0  0
  161.0810  207.2400  151.1870 C   0  0  0  0  0  2  0  0  0  0  0  0
  161.0110  209.3530  151.9810 C   0  0  2  0  0  3  0  0  0  0  0  0
  162.0710  207.5510  150.0630 C   0  0  1  0  0  3  0  0  0  0  0  0
  160.4060  211.8110  154.7100 C   0  0  0  0  0  0  0  0  0  0  0  0
  160.1260  211.3000  153.4800 C   0  0  0  0  0  0  0  0  0  0  0  0
  158.3990  212.8510  153.1880 C   0  0  0  0  0  0  0  0  0  0  0  0
  161.5210  211.0620  155.3480 C   0  0  0  0  0  2  0  0  0  0  0  0
  159.6930  212.8480  155.2140 N   0  0  0  0  0  0  0  0  0  0  0  0
  161.8160  210.0320  154.2770 C   0  0  0  0  0  3  0  0  0  0  0  0
  161.0120  210.1940  153.2210 C   0  0  0  0  0  0  0  0  0  0  0  0
  157.1040  213.5260  152.2230 Cl  0  0  0  0  0  0  0  0  0  0  0  0
  158.6820  213.3800  154.4650 C   0  0  0  0  0  3  0  0  0  0  0  0
  159.1290  211.8010  152.7090 N   0  0  0  0  0  0  0  0  0  0  0  0
  161.9720  211.8300  149.3010 C   0  0  0  0  0  0  0  0  0  0  0  0
  162.7050  211.7440  148.0980 N   0  0  0  0  0  0  0  0  0  0  0  0
  161.9540  212.8430  148.3930 C   0  0  1  0  0  3  0  0  0  0  0  0
  161.5540  211.2640  150.5390 N   0  0  0  0  0  2  0  0  0  0  0  0
  160.6610  212.8220  147.6350 C   0  0  0  0  0  0  0  0  0  0  0  0
  160.5480  212.4870  146.3040 C   0  0  0  0  0  3  0  0  0  0  0  0
  159.4840  213.1080  148.1380 O   0  0  0  0  0  0  0  0  0  0  0  0
  158.5780  212.9830  147.1980 C   0  0  0  0  0  3  0  0  0  0  0  0
  159.1970  212.5920  146.0230 C   0  0  0  0  0  3  0  0  0  0  0  0
  161.7820  206.6910  148.8460 C   0  0  0  0  0  2  0  0  0  0  0  0
  161.2160  205.3440  149.2580 C   0  0  0  0  0  2  0  0  0  0  0  0
  161.5850  204.8930  146.8070 N   0  0  0  0  0  2  0  0  0  0  0  0
  161.3000  204.3950  148.1160 C   0  0  0  0  0  0  0  0  0  0  0  0
  161.0690  203.1710  148.3010 O   0  0  0  0  0  0  0  0  0  0  0  0
  160.8260  204.5970  144.5120 C   0  0  0  0  0  1  0  0  0  0  0  0
  161.6670  204.0290  145.6380 C   0  0  0  0  0  2  0  0  0  0  0  0
  1  6  1  0  0  0  0
  1  3  1  0  0  0  0
  3 20  1  6  0  0  0
  3  5  1  0  0  0  0
  4  2  1  0  0  0  0
  5  2  1  0  0  0  0
  5 13  1  1  0  0  0
  6 26  1  6  0  0  0
  6  4  1  0  0  0  0
  7 11  1  0  0  0  0
  7 10  1  0  0  0  0
  8  7  2  0  0  0  0
  9 15  1  0  0  0  0
 12 10  1  0  0  0  0
 13  8  1  0  0  0  0
 13 12  2  0  0  0  0
 14  9  1  0  0  0  0
 15 11  2  0  0  0  0
 16  9  2  0  0  0  0
 16  8  1  0  0  0  0
 17 20  1  0  0  0  0
 18 19  1  0  0  0  0
 18 17  2  0  0  0  0
 19 21  1  6  0  0  0
 19 17  1  0  0  0  0
 21 23  1  0  0  0  0
 22 21  2  0  0  0  0
 24 23  1  0  0  0  0
 25 22  1  0  0  0  0
 25 24  2  0  0  0  0
 26 27  1  0  0  0  0
 28 29  1  0  0  0  0
 29 30  2  0  0  0  0
 29 27  1  0  0  0  0
 31 32  1  0  0  0  0
 32 28  1  0  0  0  0
M  END
>  <MODEL>
6

>  <REMARK>
 VINA RESULT:      -7.7      3.333      7.747
  Name = 
  7 active torsions:
  status: ('A' for Active; 'I' for Inactive)
    1  A    between atoms: N_4  and  C_18
    2  A    between atoms: C_7  and  C_23
    3  A    between atoms: C_7  and  C_30
    4  A    between atoms: C_10  and  N_26
    5  A    between atoms: C_16  and  C_21
    6  A    between atoms: C_17  and  C_22
    7  A    between atoms: C_23  and  C_25
                            x       y       z     vdW  Elec       q    Type
                         _______ _______ _______ _____ _____    ______ ____

>  <TORSDO>
F 7

$$$$
=
 OpenBabel11042423003D

 32 36  0  0  1  0  0  0  0  0999 V2000
  162.1810  209.2490  148.7880 C   0  0  0  0  0  2  0  0  0  0  0  0
  161.6300  210.0070  151.4950 O   0  0  0  0  0  0  0  0  0  0  0  0
  161.7060  208.2440  149.8390 C   0  0  2  0  0  3  0  0  0  0  0  0
  162.3010  210.8970  150.6390 C   0  0  0  0  0  2  0  0  0  0  0  0
  162.1480  208.7230  151.2330 C   0  0  2  0  0  3  0  0  0  0  0  0
  161.8340  210.6770  149.1990 C   0  0  1  0  0  3  0  0  0  0  0  0
  160.8310  207.0350  154.2780 C   0  0  0  0  0  0  0  0  0  0  0  0
  161.1270  208.1590  153.5700 C   0  0  1  0  0  3  0  0  0  0  0  0
  160.2760  209.5070  155.2820 C   0  0  0  0  0  0  0  0  0  0  0  0
  161.2060  205.8180  153.5110 C   0  0  0  0  0  3  0  0  0  0  0  0
  160.2480  207.1120  155.4990 N   0  0  0  0  0  0  0  0  0  0  0  0
  161.7530  206.4420  152.2440 C   0  0  0  0  0  3  0  0  0  0  0  0
  161.7040  207.7770  152.3060 C   0  0  0  0  0  0  0  0  0  0  0  0
  159.9100  211.0880  155.9390 Cl  0  0  0  0  0  0  0  0  0  0  0  0
  159.9610  208.3440  156.0170 C   0  0  0  0  0  3  0  0  0  0  0  0
  160.8560  209.3980  154.0510 N   0  0  0  0  0  0  0  0  0  0  0  0
  161.4460  205.8340  149.2280 C   0  0  0  0  0  0  0  0  0  0  0  0
  160.1610  205.2800  149.0480 N   0  0  0  0  0  0  0  0  0  0  0  0
  161.2870  204.5360  148.8540 C   0  0  1  0  0  3  0  0  0  0  0  0
  162.2820  206.9410  149.5500 N   0  0  0  0  0  2  0  0  0  0  0  0
  161.5810  204.3900  147.3920 C   0  0  0  0  0  0  0  0  0  0  0  0
  162.2970  205.3040  146.6500 C   0  0  0  0  0  3  0  0  0  0  0  0
  161.2060  203.3820  146.6410 O   0  0  0  0  0  0  0  0  0  0  0  0
  161.6370  203.5790  145.4180 C   0  0  0  0  0  3  0  0  0  0  0  0
  162.3330  204.7760  145.3720 C   0  0  0  0  0  3  0  0  0  0  0  0
  162.5340  211.6410  148.2590 C   0  0  0  0  0  2  0  0  0  0  0  0
  161.8760  213.0090  148.3000 C   0  0  0  0  0  2  0  0  0  0  0  0
  159.3870  213.3840  148.4120 N   0  0  0  0  0  2  0  0  0  0  0  0
  160.5270  212.9350  147.6770 C   0  0  0  0  0  0  0  0  0  0  0  0
  160.3950  212.4290  146.5320 O   0  0  0  0  0  0  0  0  0  0  0  0
  157.0310  213.2210  149.0080 C   0  0  0  0  0  1  0  0  0  0  0  0
  158.0350  213.3280  147.8770 C   0  0  0  0  0  2  0  0  0  0  0  0
  1  6  1  0  0  0  0
  1  3  1  0  0  0  0
  3 20  1  6  0  0  0
  3  5  1  0  0  0  0
  4  2  1  0  0  0  0
  5  2  1  0  0  0  0
  5 13  1  1  0  0  0
  6 26  1  6  0  0  0
  6  4  1  0  0  0  0
  7 11  1  0  0  0  0
  8 13  1  6  0  0  0
  8 16  1  0  0  0  0
  8  7  1  0  0  0  0
  9 14  1  0  0  0  0
  9 15  1  0  0  0  0
 10  7  2  0  0  0  0
 11 15  2  0  0  0  0
 12 13  2  0  0  0  0
 12 10  1  0  0  0  0
 16  9  2  0  0  0  0
 17 20  1  0  0  0  0
 18 17  2  0  0  0  0
 19 21  1  6  0  0  0
 19 18  1  0  0  0  0
 19 17  1  0  0  0  0
 22 21  2  0  0  0  0
 23 21  1  0  0  0  0
 24 23  1  0  0  0  0
 25 24  2  0  0  0  0
 25 22  1  0  0  0  0
 26 27  1  0  0  0  0
 29 27  1  0  0  0  0
 29 28  1  0  0  0  0
 30 29  2  0  0  0  0
 32 28  1  0  0  0  0
 32 31  1  0  0  0  0
M  END
>  <MODEL>
7

>  <REMARK>
 VINA RESULT:      -7.4      3.334      6.666
  Name = 
  7 active torsions:
  status: ('A' for Active; 'I' for Inactive)
    1  A    between atoms: N_4  and  C_18
    2  A    between atoms: C_7  and  C_23
    3  A    between atoms: C_7  and  C_30
    4  A    between atoms: C_10  and  N_26
    5  A    between atoms: C_16  and  C_21
    6  A    between atoms: C_17  and  C_22
    7  A    between atoms: C_23  and  C_25
                            x       y       z     vdW  Elec       q    Type
                         _______ _______ _______ _____ _____    ______ ____

>  <TORSDO>
F 7

$$$$
=
 OpenBabel11042423003D

 32 36  0  0  1  0  0  0  0  0999 V2000
  162.1640  209.4560  148.8090 C   0  0  0  0  0  2  0  0  0  0  0  0
  161.6560  210.1850  151.5320 O   0  0  0  0  0  0  0  0  0  0  0  0
  161.6860  208.4440  149.8520 C   0  0  2  0  0  3  0  0  0  0  0  0
  162.3310  211.0770  150.6790 C   0  0  0  0  0  2  0  0  0  0  0  0
  162.1510  208.8980  151.2470 C   0  0  2  0  0  3  0  0  0  0  0  0
  161.8440  210.8830  149.2430 C   0  0  1  0  0  3  0  0  0  0  0  0
  160.8290  207.1880  154.2770 C   0  0  0  0  0  0  0  0  0  0  0  0
  161.1260  208.3170  153.5780 C   0  0  1  0  0  3  0  0  0  0  0  0
  160.2710  209.6520  155.2970 C   0  0  0  0  0  0  0  0  0  0  0  0
  161.2060  205.9760  153.5020 C   0  0  0  0  0  3  0  0  0  0  0  0
  160.2430  207.2560  155.4980 N   0  0  0  0  0  0  0  0  0  0  0  0
  161.7560  206.6090  152.2410 C   0  0  0  0  0  3  0  0  0  0  0  0
  161.7050  207.9440  152.3130 C   0  0  0  0  0  0  0  0  0  0  0  0
  159.9020  211.2280  155.9640 Cl  0  0  0  0  0  0  0  0  0  0  0  0
  159.9550  208.4840  156.0230 C   0  0  0  0  0  3  0  0  0  0  0  0
  160.8530  209.5520  154.0670 N   0  0  0  0  0  0  0  0  0  0  0  0
  161.3940  206.0800  149.0930 C   0  0  0  0  0  0  0  0  0  0  0  0
  160.1100  205.5850  148.7830 N   0  0  0  0  0  0  0  0  0  0  0  0
  161.2230  204.8100  148.6370 C   0  0  1  0  0  3  0  0  0  0  0  0
  162.2390  207.1360  149.5390 N   0  0  0  0  0  2  0  0  0  0  0  0
  161.6280  204.7280  147.1980 C   0  0  0  0  0  0  0  0  0  0  0  0
  161.5800  203.5780  146.4420 C   0  0  0  0  0  3  0  0  0  0  0  0
  162.0690  205.7320  146.4770 O   0  0  0  0  0  0  0  0  0  0  0  0
  162.3250  205.3050  145.2640 C   0  0  0  0  0  3  0  0  0  0  0  0
  162.0310  203.9540  145.1890 C   0  0  0  0  0  3  0  0  0  0  0  0
  162.5470  211.8500  148.3080 C   0  0  0  0  0  2  0  0  0  0  0  0
  161.6410  213.0150  147.9530 C   0  0  0  0  0  2  0  0  0  0  0  0
  161.7630  213.1010  145.4380 N   0  0  0  0  0  2  0  0  0  0  0  0
  161.0250  212.7830  146.6190 C   0  0  0  0  0  0  0  0  0  0  0  0
  159.8420  212.3590  146.5430 O   0  0  0  0  0  0  0  0  0  0  0  0
  162.3370  212.5810  143.1290 C   0  0  0  0  0  1  0  0  0  0  0  0
  161.2220  212.9170  144.1000 C   0  0  0  0  0  2  0  0  0  0  0  0
  1  6  1  0  0  0  0
  1  3  1  0  0  0  0
  3 20  1  6  0  0  0
  3  5  1  0  0  0  0
  4  2  1  0  0  0  0
  5  2  1  0  0  0  0
  5 13  1  1  0  0  0
  6 26  1  6  0  0  0
  6  4  1  0  0  0  0
  7 11  1  0  0  0  0
  8 13  1  6  0  0  0
  8 16  1  0  0  0  0
  8  7  1  0  0  0  0
  9 14  1  0  0  0  0
  9 15  1  0  0  0  0
 10  7  2  0  0  0  0
 11 15  2  0  0  0  0
 12 13  2  0  0  0  0
 12 10  1  0  0  0  0
 16  9  2  0  0  0  0
 17 20  1  0  0  0  0
 18 17  2  0  0  0  0
 19 21  1  6  0  0  0
 19 18  1  0  0  0  0
 19 17  1  0  0  0  0
 22 21  2  0  0  0  0
 23 21  1  0  0  0  0
 24 23  1  0  0  0  0
 25 24  2  0  0  0  0
 25 22  1  0  0  0  0
 27 26  1  0  0  0  0
 28 29  1  0  0  0  0
 29 27  1  0  0  0  0
 30 29  2  0  0  0  0
 31 32  1  0  0  0  0
 32 28  1  0  0  0  0
M  END
>  <MODEL>
8

>  <REMARK>
 VINA RESULT:      -7.4      3.230      6.565
  Name = 
  7 active torsions:
  status: ('A' for Active; 'I' for Inactive)
    1  A    between atoms: N_4  and  C_18
    2  A    between atoms: C_7  and  C_23
    3  A    between atoms: C_7  and  C_30
    4  A    between atoms: C_10  and  N_26
    5  A    between atoms: C_16  and  C_21
    6  A    between atoms: C_17  and  C_22
    7  A    between atoms: C_23  and  C_25
                            x       y       z     vdW  Elec       q    Type
                         _______ _______ _______ _____ _____    ______ ____

>  <TORSDO>
F 7

$$$$
=
 OpenBabel11042423003D

 32 36  0  0  1  0  0  0  0  0999 V2000
  160.3750  209.4650  152.4230 C   0  0  0  0  0  2  0  0  0  0  0  0
  160.8310  209.9370  155.2110 O   0  0  0  0  0  0  0  0  0  0  0  0
  159.9240  210.7490  153.1210 C   0  0  2  0  0  3  0  0  0  0  0  0
  161.0290  208.6530  154.6740 C   0  0  0  0  0  2  0  0  0  0  0  0
  159.6670  210.4540  154.6090 C   0  0  2  0  0  3  0  0  0  0  0  0
  161.4770  208.7690  153.2170 C   0  0  1  0  0  3  0  0  0  0  0  0
  157.8940  213.1030  156.5300 C   0  0  0  0  0  0  0  0  0  0  0  0
  157.9240  211.8830  155.9280 C   0  0  0  0  0  0  0  0  0  0  0  0
  155.7240  211.4560  156.5980 C   0  0  0  0  0  0  0  0  0  0  0  0
  159.1990  213.7980  156.3740 C   0  0  0  0  0  2  0  0  0  0  0  0
  156.7870  213.5320  157.1840 N   0  0  0  0  0  0  0  0  0  0  0  0
  159.9780  212.7600  155.5930 C   0  0  0  0  0  3  0  0  0  0  0  0
  159.2260  211.6810  155.3460 C   0  0  0  0  0  0  0  0  0  0  0  0
  154.3240  210.4070  156.6540 Cl  0  0  0  0  0  0  0  0  0  0  0  0
  155.6900  212.7180  157.2290 C   0  0  0  0  0  3  0  0  0  0  0  0
  156.8560  211.0470  155.9540 N   0  0  0  0  0  0  0  0  0  0  0  0
  158.5970  212.5970  152.0840 C   0  0  0  0  0  0  0  0  0  0  0  0
  159.1350  213.8980  151.9970 N   0  0  0  0  0  0  0  0  0  0  0  0
  157.9060  213.6030  151.4840 C   0  0  1  0  0  3  0  0  0  0  0  0
  158.7080  211.2360  152.4880 N   0  0  0  0  0  2  0  0  0  0  0  0
  157.9760  213.4500  149.9950 C   0  0  0  0  0  0  0  0  0  0  0  0
  156.8950  213.1530  149.1940 C   0  0  0  0  0  3  0  0  0  0  0  0
  159.0610  213.5830  149.2700 O   0  0  0  0  0  0  0  0  0  0  0  0
  158.7570  213.3850  148.0100 C   0  0  0  0  0  3  0  0  0  0  0  0
  157.4030  213.1130  147.9080 C   0  0  0  0  0  3  0  0  0  0  0  0
  161.7140  207.3930  152.6220 C   0  0  0  0  0  2  0  0  0  0  0  0
  160.9560  207.2290  151.3170 C   0  0  0  0  0  2  0  0  0  0  0  0
  160.8410  205.5770  149.4180 N   0  0  0  0  0  2  0  0  0  0  0  0
  161.1740  205.8600  150.7790 C   0  0  0  0  0  0  0  0  0  0  0  0
  161.6000  204.9500  151.5380 O   0  0  0  0  0  0  0  0  0  0  0  0
  161.6990  204.3780  147.4800 C   0  0  0  0  0  1  0  0  0  0  0  0
  161.0110  204.2590  148.8260 C   0  0  0  0  0  2  0  0  0  0  0  0
  1  3  1  0  0  0  0
  1  6  1  0  0  0  0
  3 20  1  6  0  0  0
  3  5  1  0  0  0  0
  4  2  1  0  0  0  0
  5  2  1  0  0  0  0
  5 13  1  1  0  0  0
  6 26  1  6  0  0  0
  6  4  1  0  0  0  0
  7 11  1  0  0  0  0
  8 16  1  0  0  0  0
  8  7  2  0  0  0  0
  9 14  1  0  0  0  0
  9 15  1  0  0  0  0
 10  7  1  0  0  0  0
 11 15  2  0  0  0  0
 12 10  1  0  0  0  0
 13 12  2  0  0  0  0
 13  8  1  0  0  0  0
 16  9  2  0  0  0  0
 17 20  1  0  0  0  0
 18 17  2  0  0  0  0
 19 21  1  6  0  0  0
 19 18  1  0  0  0  0
 19 17  1  0  0  0  0
 22 21  2  0  0  0  0
 23 21  1  0  0  0  0
 24 23  1  0  0  0  0
 25 24  2  0  0  0  0
 25 22  1  0  0  0  0
 27 26  1  0  0  0  0
 28 29  1  0  0  0  0
 29 27  1  0  0  0  0
 29 30  2  0  0  0  0
 31 32  1  0  0  0  0
 32 28  1  0  0  0  0
M  END
>  <MODEL>
9

>  <REMARK>
 VINA RESULT:      -7.0      3.950      8.528
  Name = 
  7 active torsions:
  status: ('A' for Active; 'I' for Inactive)
    1  A    between atoms: N_4  and  C_18
    2  A    between atoms: C_7  and  C_23
    3  A    between atoms: C_7  and  C_30
    4  A    between atoms: C_10  and  N_26
    5  A    between atoms: C_16  and  C_21
    6  A    between atoms: C_17  and  C_22
    7  A    between atoms: C_23  and  C_25
                            x       y       z     vdW  Elec       q    Type
                         _______ _______ _______ _____ _____    ______ ____

>  <TORSDO>
F 7

$$$$
