=
 OpenBabel11052410523D

 28 31  0  0  1  0  0  0  0  0999 V2000
  161.1890  204.4670  151.2150 N   0  0  0  0  0  0  0  0  0  0  0  0
  161.1210  203.1930  145.2640 N   0  0  0  0  0  0  0  0  0  0  0  0
  161.2750  204.4510  144.7690 C   0  0  0  0  0  3  0  0  0  0  0  0
  161.0810  202.9500  146.6010 C   0  0  0  0  0  0  0  0  0  0  0  0
  161.2010  204.0180  147.5190 C   0  0  0  0  0  0  0  0  0  0  0  0
  161.2510  205.5570  152.1480 C   0  0  0  0  0  0  0  0  0  0  0  0
  160.9970  202.4050  149.3290 C   0  0  0  0  0  0  0  0  0  0  0  0
  161.1560  203.7420  148.9020 C   0  0  0  0  0  0  0  0  0  0  0  0
  161.1920  205.3300  153.3890 O   0  0  0  0  0  0  0  0  0  0  0  0
  161.3980  205.5370  145.6370 C   0  0  0  0  0  3  0  0  0  0  0  0
  161.3600  205.3180  147.0150 C   0  0  0  0  0  3  0  0  0  0  0  0
  161.1010  203.0920  151.7240 C   0  0  0  0  0  2  0  0  0  0  0  0
  160.9550  202.0780  150.6240 C   0  0  0  0  0  3  0  0  0  0  0  0
  160.8780  201.3900  148.3770 C   0  0  0  0  0  3  0  0  0  0  0  0
  161.2460  204.7290  149.8040 C   0  0  0  0  0  3  0  0  0  0  0  0
  160.9230  201.6790  147.0510 N   0  0  0  0  0  0  0  0  0  0  0  0
  162.7130  207.2520  151.2250 N   0  0  0  0  0  1  0  0  0  0  0  0
  161.3570  206.9720  151.6660 C   0  0  2  0  0  3  0  0  0  0  0  0
  160.9560  207.9340  152.7710 C   0  0  0  0  0  2  0  0  0  0  0  0
  161.4400  209.2680  152.4640 N   0  0  0  0  0  2  0  0  0  0  0  0
  161.4660  210.0010  153.7180 C   0  0  0  0  0  2  0  0  0  0  0  0
  158.0940  211.6910  153.4210 C   0  0  0  0  0  3  0  0  0  0  0  0
  158.3070  210.7380  155.6020 N   0  0  0  0  0  0  0  0  0  0  0  0
  157.5740  211.4370  154.6930 C   0  0  0  0  0  0  0  0  0  0  0  0
  160.0980  210.4930  154.0410 C   0  0  0  0  0  0  0  0  0  0  0  0
  156.2220  211.9350  155.0540 C   0  0  0  0  0  1  0  0  0  0  0  0
  159.3660  211.2160  153.0960 C   0  0  0  0  0  3  0  0  0  0  0  0
  159.5490  210.2660  155.3060 C   0  0  0  0  0  3  0  0  0  0  0  0
  1 12  1  0  0  0  0
  1  6  1  0  0  0  0
  2  4  2  0  0  0  0
  3  2  1  0  0  0  0
  3 10  2  0  0  0  0
  4 16  1  0  0  0  0
  4  5  1  0  0  0  0
  5  8  1  0  0  0  0
  6  9  2  0  0  0  0
  7 13  2  0  0  0  0
  8  7  1  0  0  0  0
  8 15  2  0  0  0  0
 10 11  1  0  0  0  0
 11  5  2  0  0  0  0
 13 12  1  0  0  0  0
 14  7  1  0  0  0  0
 15  1  1  0  0  0  0
 16 14  2  0  0  0  0
 18 17  1  1  0  0  0
 18  6  1  0  0  0  0
 18 19  1  0  0  0  0
 20 19  1  0  0  0  0
 20 21  1  0  0  0  0
 21 25  1  0  0  0  0
 22 24  1  0  0  0  0
 24 26  1  0  0  0  0
 24 23  2  0  0  0  0
 25 28  2  0  0  0  0
 27 22  2  0  0  0  0
 27 25  1  0  0  0  0
 28 23  1  0  0  0  0
M  END
>  <MODEL>
1

>  <REMARK>
 VINA RESULT:      -9.2      0.000      0.000
  Name = 
  5 active torsions:
  status: ('A' for Active; 'I' for Inactive)
    1  A    between atoms: C_8  and  C_11
    2  A    between atoms: C_8  and  C_25
    3  A    between atoms: C_12  and  C_13
    4  A    between atoms: C_13  and  N_18
    5  A    between atoms: N_18  and  C_25
                            x       y       z     vdW  Elec       q    Type
                         _______ _______ _______ _____ _____    ______ ____

>  <TORSDO>
F 5

$$$$
=
 OpenBabel11052410523D

 28 31  0  0  1  0  0  0  0  0999 V2000
  161.0830  206.9180  152.4620 N   0  0  0  0  0  0  0  0  0  0  0  0
  161.2820  204.0040  147.1220 N   0  0  0  0  0  0  0  0  0  0  0  0
  161.3510  205.0770  146.2900 C   0  0  0  0  0  3  0  0  0  0  0  0
  161.2240  204.1490  148.4740 C   0  0  0  0  0  0  0  0  0  0  0  0
  161.2340  205.4390  149.0490 C   0  0  0  0  0  0  0  0  0  0  0  0
  161.0340  208.2300  153.0450 C   0  0  0  0  0  0  0  0  0  0  0  0
  161.1060  204.3970  151.2430 C   0  0  0  0  0  0  0  0  0  0  0  0
  161.1720  205.5650  150.4520 C   0  0  0  0  0  0  0  0  0  0  0  0
  160.9580  208.3610  154.2980 O   0  0  0  0  0  0  0  0  0  0  0  0
  161.3640  206.3710  146.8120 C   0  0  0  0  0  3  0  0  0  0  0  0
  161.3050  206.5510  148.1950 C   0  0  0  0  0  3  0  0  0  0  0  0
  161.0890  205.7430  153.3410 C   0  0  0  0  0  2  0  0  0  0  0  0
  161.0540  204.4490  152.5770 C   0  0  0  0  0  3  0  0  0  0  0  0
  161.0940  203.1470  150.6200 C   0  0  0  0  0  3  0  0  0  0  0  0
  161.1600  206.7720  151.0350 C   0  0  0  0  0  3  0  0  0  0  0  0
  161.1530  203.0500  149.2670 N   0  0  0  0  0  0  0  0  0  0  0  0
  162.3400  210.1050  152.2430 N   0  0  0  0  0  1  0  0  0  0  0  0
  161.0420  209.4530  152.1790 C   0  0  2  0  0  3  0  0  0  0  0  0
  159.9510  210.4140  152.6180 C   0  0  0  0  0  2  0  0  0  0  0  0
  160.5460  211.6120  153.1830 N   0  0  0  0  0  2  0  0  0  0  0  0
  159.8950  211.8390  154.4610 C   0  0  0  0  0  2  0  0  0  0  0  0
  156.1610  212.4340  154.5790 C   0  0  0  0  0  3  0  0  0  0  0  0
  157.1820  214.1110  153.2140 N   0  0  0  0  0  0  0  0  0  0  0  0
  156.0630  213.5690  153.7690 C   0  0  0  0  0  0  0  0  0  0  0  0
  158.5530  212.4450  154.2410 C   0  0  0  0  0  0  0  0  0  0  0  0
  154.7350  214.1840  153.5110 C   0  0  0  0  0  1  0  0  0  0  0  0
  157.4160  211.8690  154.8120 C   0  0  0  0  0  3  0  0  0  0  0  0
  158.4140  213.5750  153.4290 C   0  0  0  0  0  3  0  0  0  0  0  0
  1  6  1  0  0  0  0
  1 12  1  0  0  0  0
  2  4  2  0  0  0  0
  3 10  2  0  0  0  0
  3  2  1  0  0  0  0
  4  5  1  0  0  0  0
  4 16  1  0  0  0  0
  5  8  1  0  0  0  0
  6  9  2  0  0  0  0
  7 13  2  0  0  0  0
  8 15  2  0  0  0  0
  8  7  1  0  0  0  0
 10 11  1  0  0  0  0
 11  5  2  0  0  0  0
 13 12  1  0  0  0  0
 14  7  1  0  0  0  0
 15  1  1  0  0  0  0
 16 14  2  0  0  0  0
 18 17  1  1  0  0  0
 18 19  1  0  0  0  0
 18  6  1  0  0  0  0
 19 20  1  0  0  0  0
 20 21  1  0  0  0  0
 22 27  1  0  0  0  0
 23 28  2  0  0  0  0
 23 24  1  0  0  0  0
 24 22  2  0  0  0  0
 25 21  1  0  0  0  0
 25 27  2  0  0  0  0
 26 24  1  0  0  0  0
 28 25  1  0  0  0  0
M  END
>  <MODEL>
2

>  <REMARK>
 VINA RESULT:      -8.6      1.799      2.717
  Name = 
  5 active torsions:
  status: ('A' for Active; 'I' for Inactive)
    1  A    between atoms: C_8  and  C_11
    2  A    between atoms: C_8  and  C_25
    3  A    between atoms: C_12  and  C_13
    4  A    between atoms: C_13  and  N_18
    5  A    between atoms: N_18  and  C_25
                            x       y       z     vdW  Elec       q    Type
                         _______ _______ _______ _____ _____    ______ ____

>  <TORSDO>
F 5

$$$$
=
 OpenBabel11052410523D

 28 31  0  0  1  0  0  0  0  0999 V2000
  161.1130  204.9390  151.3530 N   0  0  0  0  0  0  0  0  0  0  0  0
  161.2800  203.3230  145.4880 N   0  0  0  0  0  0  0  0  0  0  0  0
  161.4650  204.5490  144.9290 C   0  0  0  0  0  3  0  0  0  0  0  0
  161.1830  203.1580  146.8350 C   0  0  0  0  0  0  0  0  0  0  0  0
  161.2740  204.2760  147.6940 C   0  0  0  0  0  0  0  0  0  0  0  0
  161.1450  206.0810  152.2240 C   0  0  0  0  0  0  0  0  0  0  0  0
  160.9820  202.7730  149.5840 C   0  0  0  0  0  0  0  0  0  0  0  0
  161.1690  204.0810  149.0870 C   0  0  0  0  0  0  0  0  0  0  0  0
  161.0330  205.9270  153.4720 O   0  0  0  0  0  0  0  0  0  0  0  0
  161.5600  205.6820  145.7370 C   0  0  0  0  0  3  0  0  0  0  0  0
  161.4640  205.5440  147.1220 C   0  0  0  0  0  3  0  0  0  0  0  0
  160.9930  203.5970  151.9360 C   0  0  0  0  0  2  0  0  0  0  0  0
  160.8840  202.5210  150.8920 C   0  0  0  0  0  3  0  0  0  0  0  0
  160.8950  201.7050  148.6870 C   0  0  0  0  0  3  0  0  0  0  0  0
  161.2300  205.1190  149.9340 C   0  0  0  0  0  3  0  0  0  0  0  0
  160.9960  201.9160  147.3500 N   0  0  0  0  0  0  0  0  0  0  0  0
  162.6240  207.6660  151.1440 N   0  0  0  0  0  1  0  0  0  0  0  0
  161.2820  207.4650  151.6660 C   0  0  2  0  0  3  0  0  0  0  0  0
  160.9780  208.4960  152.7390 C   0  0  0  0  0  2  0  0  0  0  0  0
  161.7100  209.7200  152.4700 N   0  0  0  0  0  2  0  0  0  0  0  0
  160.7200  210.7690  152.2940 C   0  0  0  0  0  2  0  0  0  0  0  0
  160.5720  213.3720  149.5540 C   0  0  0  0  0  3  0  0  0  0  0  0
  162.0760  211.6330  148.9050 N   0  0  0  0  0  0  0  0  0  0  0  0
  161.4580  212.8140  148.6300 C   0  0  0  0  0  0  0  0  0  0  0  0
  160.9830  211.5010  151.0250 C   0  0  0  0  0  0  0  0  0  0  0  0
  161.7250  213.5090  147.3440 C   0  0  0  0  0  1  0  0  0  0  0  0
  160.3330  212.7070  150.7580 C   0  0  0  0  0  3  0  0  0  0  0  0
  161.8570  210.9690  150.0720 C   0  0  0  0  0  3  0  0  0  0  0  0
  1 12  1  0  0  0  0
  1  6  1  0  0  0  0
  2  4  2  0  0  0  0
  3  2  1  0  0  0  0
  3 10  2  0  0  0  0
  4 16  1  0  0  0  0
  4  5  1  0  0  0  0
  5  8  1  0  0  0  0
  6  9  2  0  0  0  0
  7 13  2  0  0  0  0
  8  7  1  0  0  0  0
  8 15  2  0  0  0  0
 10 11  1  0  0  0  0
 11  5  2  0  0  0  0
 13 12  1  0  0  0  0
 14  7  1  0  0  0  0
 15  1  1  0  0  0  0
 16 14  2  0  0  0  0
 18 17  1  1  0  0  0
 18  6  1  0  0  0  0
 18 19  1  0  0  0  0
 20 19  1  0  0  0  0
 21 20  1  0  0  0  0
 22 27  1  0  0  0  0
 23 28  2  0  0  0  0
 24 23  1  0  0  0  0
 24 22  2  0  0  0  0
 25 21  1  0  0  0  0
 26 24  1  0  0  0  0
 27 25  2  0  0  0  0
 28 25  1  0  0  0  0
M  END
>  <MODEL>
3

>  <REMARK>
 VINA RESULT:      -8.6      2.273      3.216
  Name = 
  5 active torsions:
  status: ('A' for Active; 'I' for Inactive)
    1  A    between atoms: C_8  and  C_11
    2  A    between atoms: C_8  and  C_25
    3  A    between atoms: C_12  and  C_13
    4  A    between atoms: C_13  and  N_18
    5  A    between atoms: N_18  and  C_25
                            x       y       z     vdW  Elec       q    Type
                         _______ _______ _______ _____ _____    ______ ____

>  <TORSDO>
F 5

$$$$
=
 OpenBabel11052410523D

 28 31  0  0  1  0  0  0  0  0999 V2000
  161.0830  206.9220  152.5490 N   0  0  0  0  0  0  0  0  0  0  0  0
  161.1980  204.2520  147.0810 N   0  0  0  0  0  0  0  0  0  0  0  0
  161.2390  205.3620  146.2970 C   0  0  0  0  0  3  0  0  0  0  0  0
  161.1660  204.3350  148.4380 C   0  0  0  0  0  0  0  0  0  0  0  0
  161.1770  205.5990  149.0710 C   0  0  0  0  0  0  0  0  0  0  0  0
  161.0330  208.2060  153.1910 C   0  0  0  0  0  0  0  0  0  0  0  0
  161.1040  204.4580  151.2180 C   0  0  0  0  0  0  0  0  0  0  0  0
  161.1420  205.6610  150.4800 C   0  0  0  0  0  0  0  0  0  0  0  0
  160.9830  208.2800  154.4510 O   0  0  0  0  0  0  0  0  0  0  0  0
  161.2500  206.6310  146.8760 C   0  0  0  0  0  3  0  0  0  0  0  0
  161.2190  206.7480  148.2660 C   0  0  0  0  0  3  0  0  0  0  0  0
  161.1190  205.7080  153.3750 C   0  0  0  0  0  2  0  0  0  0  0  0
  161.0800  204.4490  152.5540 C   0  0  0  0  0  3  0  0  0  0  0  0
  161.0910  203.2370  150.5400 C   0  0  0  0  0  3  0  0  0  0  0  0
  161.1310  206.8410  151.1160 C   0  0  0  0  0  3  0  0  0  0  0  0
  161.1220  203.2010  149.1830 N   0  0  0  0  0  0  0  0  0  0  0  0
  162.3520  209.7880  151.9190 N   0  0  0  0  0  1  0  0  0  0  0  0
  161.0120  209.4660  152.3820 C   0  0  2  0  0  3  0  0  0  0  0  0
  160.4540  210.6120  153.2090 C   0  0  0  0  0  2  0  0  0  0  0  0
  159.3650  211.2520  152.4940 N   0  0  0  0  0  2  0  0  0  0  0  0
  159.7500  212.6400  152.3030 C   0  0  0  0  0  2  0  0  0  0  0  0
  157.4640  213.6990  149.4820 C   0  0  0  0  0  3  0  0  0  0  0  0
  159.7320  213.7950  148.7340 N   0  0  0  0  0  0  0  0  0  0  0  0
  158.4050  213.9600  148.4820 C   0  0  0  0  0  0  0  0  0  0  0  0
  159.2700  213.1170  150.9780 C   0  0  0  0  0  0  0  0  0  0  0  0
  157.9550  214.4160  147.1410 C   0  0  0  0  0  1  0  0  0  0  0  0
  157.9030  213.2730  150.7370 C   0  0  0  0  0  3  0  0  0  0  0  0
  160.1800  213.3790  149.9500 C   0  0  0  0  0  3  0  0  0  0  0  0
  1  6  1  0  0  0  0
  1 12  1  0  0  0  0
  2  4  2  0  0  0  0
  3 10  2  0  0  0  0
  3  2  1  0  0  0  0
  4  5  1  0  0  0  0
  4 16  1  0  0  0  0
  5  8  1  0  0  0  0
  6  9  2  0  0  0  0
  7 13  2  0  0  0  0
  8 15  2  0  0  0  0
  8  7  1  0  0  0  0
 10 11  1  0  0  0  0
 11  5  2  0  0  0  0
 13 12  1  0  0  0  0
 14  7  1  0  0  0  0
 15  1  1  0  0  0  0
 16 14  2  0  0  0  0
 18 17  1  1  0  0  0
 18  6  1  0  0  0  0
 18 19  1  0  0  0  0
 20 19  1  0  0  0  0
 21 20  1  0  0  0  0
 22 27  1  0  0  0  0
 23 28  2  0  0  0  0
 24 23  1  0  0  0  0
 24 22  2  0  0  0  0
 25 21  1  0  0  0  0
 26 24  1  0  0  0  0
 27 25  2  0  0  0  0
 28 25  1  0  0  0  0
M  END
>  <MODEL>
4

>  <REMARK>
 VINA RESULT:      -8.4      2.823      3.824
  Name = 
  5 active torsions:
  status: ('A' for Active; 'I' for Inactive)
    1  A    between atoms: C_8  and  C_11
    2  A    between atoms: C_8  and  C_25
    3  A    between atoms: C_12  and  C_13
    4  A    between atoms: C_13  and  N_18
    5  A    between atoms: N_18  and  C_25
                            x       y       z     vdW  Elec       q    Type
                         _______ _______ _______ _____ _____    ______ ____

>  <TORSDO>
F 5

$$$$
=
 OpenBabel11052410523D

 28 31  0  0  1  0  0  0  0  0999 V2000
  161.5860  206.9760  148.1050 N   0  0  0  0  0  0  0  0  0  0  0  0
  160.9050  200.9650  148.7740 N   0  0  0  0  0  0  0  0  0  0  0  0
  160.7770  200.9090  150.1270 C   0  0  0  0  0  3  0  0  0  0  0  0
  161.0790  202.1450  148.1200 C   0  0  0  0  0  0  0  0  0  0  0  0
  161.1310  203.3560  148.8460 C   0  0  0  0  0  0  0  0  0  0  0  0
  161.6980  208.2010  148.8460 C   0  0  0  0  0  0  0  0  0  0  0  0
  161.4330  204.5350  146.7400 C   0  0  0  0  0  0  0  0  0  0  0  0
  161.3130  204.5680  148.1470 C   0  0  0  0  0  0  0  0  0  0  0  0
  161.8810  209.2920  148.2370 O   0  0  0  0  0  0  0  0  0  0  0  0
  160.8230  202.0790  150.8860 C   0  0  0  0  0  3  0  0  0  0  0  0
  161.0000  203.3040  150.2430 C   0  0  0  0  0  3  0  0  0  0  0  0
  161.6410  207.0170  146.6380 C   0  0  0  0  0  2  0  0  0  0  0  0
  161.5980  205.6480  146.0190 C   0  0  0  0  0  3  0  0  0  0  0  0
  161.3790  203.3080  146.0750 C   0  0  0  0  0  3  0  0  0  0  0  0
  161.3870  205.7350  148.8000 C   0  0  0  0  0  3  0  0  0  0  0  0
  161.2050  202.1540  146.7690 N   0  0  0  0  0  0  0  0  0  0  0  0
  162.3150  209.3650  150.8780 N   0  0  0  0  0  1  0  0  0  0  0  0
  161.6300  208.1990  150.3420 C   0  0  2  0  0  3  0  0  0  0  0  0
  162.2500  206.9280  150.8950 C   0  0  0  0  0  2  0  0  0  0  0  0
  162.4340  207.0500  152.3290 N   0  0  0  0  0  2  0  0  0  0  0  0
  161.2060  206.5840  152.9490 C   0  0  0  0  0  2  0  0  0  0  0  0
  159.9880  207.7950  156.3190 C   0  0  0  0  0  3  0  0  0  0  0  0
  160.6130  209.6780  154.9860 N   0  0  0  0  0  0  0  0  0  0  0  0
  160.1320  209.1750  156.1560 C   0  0  0  0  0  0  0  0  0  0  0  0
  160.8440  207.4780  154.0820 C   0  0  0  0  0  0  0  0  0  0  0  0
  159.7580  210.0960  157.2610 C   0  0  0  0  0  1  0  0  0  0  0  0
  160.3450  206.9430  155.2720 C   0  0  0  0  0  3  0  0  0  0  0  0
  160.9660  208.8650  153.9530 C   0  0  0  0  0  3  0  0  0  0  0  0
  1 15  1  0  0  0  0
  1  6  1  0  0  0  0
  2  3  1  0  0  0  0
  3 10  2  0  0  0  0
  4  2  2  0  0  0  0
  4  5  1  0  0  0  0
  5 11  2  0  0  0  0
  6 18  1  0  0  0  0
  7  8  1  0  0  0  0
  8 15  2  0  0  0  0
  8  5  1  0  0  0  0
  9  6  2  0  0  0  0
 11 10  1  0  0  0  0
 12  1  1  0  0  0  0
 13 12  1  0  0  0  0
 13  7  2  0  0  0  0
 14  7  1  0  0  0  0
 14 16  2  0  0  0  0
 16  4  1  0  0  0  0
 18 17  1  1  0  0  0
 18 19  1  0  0  0  0
 19 20  1  0  0  0  0
 20 21  1  0  0  0  0
 21 25  1  0  0  0  0
 23 24  2  0  0  0  0
 24 22  1  0  0  0  0
 24 26  1  0  0  0  0
 25 27  1  0  0  0  0
 27 22  2  0  0  0  0
 28 25  2  0  0  0  0
 28 23  1  0  0  0  0
M  END
>  <MODEL>
5

>  <REMARK>
 VINA RESULT:      -8.3      2.314      3.947
  Name = 
  5 active torsions:
  status: ('A' for Active; 'I' for Inactive)
    1  A    between atoms: C_8  and  C_11
    2  A    between atoms: C_8  and  C_25
    3  A    between atoms: C_12  and  C_13
    4  A    between atoms: C_13  and  N_18
    5  A    between atoms: N_18  and  C_25
                            x       y       z     vdW  Elec       q    Type
                         _______ _______ _______ _____ _____    ______ ____

>  <TORSDO>
F 5

$$$$
=
 OpenBabel11052410523D

 28 31  0  0  1  0  0  0  0  0999 V2000
  161.0240  203.3090  150.5220 N   0  0  0  0  0  0  0  0  0  0  0  0
  161.3770  204.1680  144.5070 N   0  0  0  0  0  0  0  0  0  0  0  0
  161.6600  205.4980  144.4920 C   0  0  0  0  0  3  0  0  0  0  0  0
  161.2060  203.4850  145.6710 C   0  0  0  0  0  0  0  0  0  0  0  0
  161.3220  204.1570  146.9090 C   0  0  0  0  0  0  0  0  0  0  0  0
  161.0820  204.0020  151.7790 C   0  0  0  0  0  0  0  0  0  0  0  0
  160.8520  202.0480  148.0280 C   0  0  0  0  0  0  0  0  0  0  0  0
  161.1390  203.4290  148.1030 C   0  0  0  0  0  0  0  0  0  0  0  0
  160.9020  203.3700  152.8570 O   0  0  0  0  0  0  0  0  0  0  0  0
  161.7830  206.2030  145.6890 C   0  0  0  0  0  3  0  0  0  0  0  0
  161.6130  205.5300  146.9000 C   0  0  0  0  0  3  0  0  0  0  0  0
  160.7990  201.8590  150.5130 C   0  0  0  0  0  2  0  0  0  0  0  0
  160.6770  201.3020  149.1220 C   0  0  0  0  0  3  0  0  0  0  0  0
  160.7450  201.4380  146.7760 C   0  0  0  0  0  3  0  0  0  0  0  0
  161.2210  204.0330  149.2970 C   0  0  0  0  0  3  0  0  0  0  0  0
  160.9220  202.1580  145.6390 N   0  0  0  0  0  0  0  0  0  0  0  0
  162.7320  205.7640  151.5850 N   0  0  0  0  0  1  0  0  0  0  0  0
  161.3270  205.4800  151.8280 C   0  0  2  0  0  3  0  0  0  0  0  0
  160.9050  206.0370  153.1760 C   0  0  0  0  0  2  0  0  0  0  0  0
  161.5860  207.2940  153.4270 N   0  0  0  0  0  2  0  0  0  0  0  0
  160.7890  208.3330  152.7980 C   0  0  0  0  0  2  0  0  0  0  0  0
  160.4550  211.8280  154.2070 C   0  0  0  0  0  3  0  0  0  0  0  0
  160.2460  210.2410  155.9820 N   0  0  0  0  0  0  0  0  0  0  0  0
  160.2650  211.5350  155.5600 C   0  0  0  0  0  0  0  0  0  0  0  0
  160.5890  209.4590  153.7510 C   0  0  0  0  0  0  0  0  0  0  0  0
  160.0860  212.6380  156.5400 C   0  0  0  0  0  1  0  0  0  0  0  0
  160.6200  210.7800  153.2990 C   0  0  0  0  0  3  0  0  0  0  0  0
  160.4060  209.2060  155.1130 C   0  0  0  0  0  3  0  0  0  0  0  0
  1  6  1  0  0  0  0
  2  4  2  0  0  0  0
  3  2  1  0  0  0  0
  3 10  2  0  0  0  0
  4  5  1  0  0  0  0
  5  8  1  0  0  0  0
  6 18  1  0  0  0  0
  6  9  2  0  0  0  0
  7  8  1  0  0  0  0
  7 13  2  0  0  0  0
  8 15  2  0  0  0  0
 10 11  1  0  0  0  0
 11  5  2  0  0  0  0
 12  1  1  0  0  0  0
 13 12  1  0  0  0  0
 14  7  1  0  0  0  0
 15  1  1  0  0  0  0
 16  4  1  0  0  0  0
 16 14  2  0  0  0  0
 18 17  1  1  0  0  0
 18 19  1  0  0  0  0
 19 20  1  0  0  0  0
 21 20  1  0  0  0  0
 21 25  1  0  0  0  0
 22 24  1  0  0  0  0
 24 23  2  0  0  0  0
 24 26  1  0  0  0  0
 25 28  2  0  0  0  0
 27 25  1  0  0  0  0
 27 22  2  0  0  0  0
 28 23  1  0  0  0  0
M  END
>  <MODEL>
6

>  <REMARK>
 VINA RESULT:      -8.2      1.553      1.756
  Name = 
  5 active torsions:
  status: ('A' for Active; 'I' for Inactive)
    1  A    between atoms: C_8  and  C_11
    2  A    between atoms: C_8  and  C_25
    3  A    between atoms: C_12  and  C_13
    4  A    between atoms: C_13  and  N_18
    5  A    between atoms: N_18  and  C_25
                            x       y       z     vdW  Elec       q    Type
                         _______ _______ _______ _____ _____    ______ ____

>  <TORSDO>
F 5

$$$$
=
 OpenBabel11052410523D

 28 31  0  0  1  0  0  0  0  0999 V2000
  161.7750  207.1470  148.5620 N   0  0  0  0  0  0  0  0  0  0  0  0
  160.8580  201.1350  148.8040 N   0  0  0  0  0  0  0  0  0  0  0  0
  160.7770  200.9810  150.1520 C   0  0  0  0  0  3  0  0  0  0  0  0
  161.0590  202.3540  148.2340 C   0  0  0  0  0  0  0  0  0  0  0  0
  161.1900  203.5030  149.0460 C   0  0  0  0  0  0  0  0  0  0  0  0
  161.9670  208.3060  149.3880 C   0  0  0  0  0  0  0  0  0  0  0  0
  161.4670  204.8270  147.0240 C   0  0  0  0  0  0  0  0  0  0  0  0
  161.3990  204.7560  148.4330 C   0  0  0  0  0  0  0  0  0  0  0  0
  162.1750  209.4330  148.8560 O   0  0  0  0  0  0  0  0  0  0  0  0
  160.9000  202.0860  150.9950 C   0  0  0  0  0  3  0  0  0  0  0  0
  161.1070  203.3490  150.4390 C   0  0  0  0  0  3  0  0  0  0  0  0
  161.7790  207.2990  147.1010 C   0  0  0  0  0  2  0  0  0  0  0  0
  161.6550  205.9840  146.3830 C   0  0  0  0  0  3  0  0  0  0  0  0
  161.3360  203.6570  146.2710 C   0  0  0  0  0  3  0  0  0  0  0  0
  161.5480  205.8660  149.1690 C   0  0  0  0  0  3  0  0  0  0  0  0
  161.1370  202.4620  146.8830 N   0  0  0  0  0  0  0  0  0  0  0  0
  160.6490  207.7370  151.3380 N   0  0  0  0  0  1  0  0  0  0  0  0
  161.9520  208.1920  150.8820 C   0  0  2  0  0  3  0  0  0  0  0  0
  162.2900  209.5320  151.5130 C   0  0  0  0  0  2  0  0  0  0  0  0
  161.0770  210.1760  151.9840 N   0  0  0  0  0  2  0  0  0  0  0  0
  161.2920  210.5000  153.3830 C   0  0  0  0  0  2  0  0  0  0  0  0
  157.7380  211.6470  153.9860 C   0  0  0  0  0  3  0  0  0  0  0  0
  158.6010  210.6740  155.9910 N   0  0  0  0  0  0  0  0  0  0  0  0
  157.5790  211.2770  155.3240 C   0  0  0  0  0  0  0  0  0  0  0  0
  159.9850  210.7600  154.0460 C   0  0  0  0  0  0  0  0  0  0  0  0
  156.2940  211.5440  156.0200 C   0  0  0  0  0  1  0  0  0  0  0  0
  158.9510  211.3870  153.3460 C   0  0  0  0  0  3  0  0  0  0  0  0
  159.7910  210.4130  155.3860 C   0  0  0  0  0  3  0  0  0  0  0  0
  1 15  1  0  0  0  0
  1  6  1  0  0  0  0
  2  3  1  0  0  0  0
  3 10  2  0  0  0  0
  4  2  2  0  0  0  0
  4  5  1  0  0  0  0
  5 11  2  0  0  0  0
  6 18  1  0  0  0  0
  7  8  1  0  0  0  0
  8  5  1  0  0  0  0
  8 15  2  0  0  0  0
  9  6  2  0  0  0  0
 11 10  1  0  0  0  0
 12  1  1  0  0  0  0
 13  7  2  0  0  0  0
 13 12  1  0  0  0  0
 14 16  2  0  0  0  0
 14  7  1  0  0  0  0
 16  4  1  0  0  0  0
 18 17  1  1  0  0  0
 18 19  1  0  0  0  0
 19 20  1  0  0  0  0
 20 21  1  0  0  0  0
 21 25  1  0  0  0  0
 22 24  1  0  0  0  0
 24 23  2  0  0  0  0
 24 26  1  0  0  0  0
 25 28  2  0  0  0  0
 27 22  2  0  0  0  0
 27 25  1  0  0  0  0
 28 23  1  0  0  0  0
M  END
>  <MODEL>
7

>  <REMARK>
 VINA RESULT:      -8.2      1.775      3.296
  Name = 
  5 active torsions:
  status: ('A' for Active; 'I' for Inactive)
    1  A    between atoms: C_8  and  C_11
    2  A    between atoms: C_8  and  C_25
    3  A    between atoms: C_12  and  C_13
    4  A    between atoms: C_13  and  N_18
    5  A    between atoms: N_18  and  C_25
                            x       y       z     vdW  Elec       q    Type
                         _______ _______ _______ _____ _____    ______ ____

>  <TORSDO>
F 5

$$$$
=
 OpenBabel11052410523D

 28 31  0  0  1  0  0  0  0  0999 V2000
  161.2060  206.6640  151.8560 N   0  0  0  0  0  0  0  0  0  0  0  0
  160.0040  211.7550  154.9680 N   0  0  0  0  0  0  0  0  0  0  0  0
  159.7060  212.5810  153.9290 C   0  0  0  0  0  3  0  0  0  0  0  0
  160.3450  210.4530  154.7720 C   0  0  0  0  0  0  0  0  0  0  0  0
  160.3960  209.9230  153.4630 C   0  0  0  0  0  0  0  0  0  0  0  0
  161.3160  206.1410  150.5230 C   0  0  0  0  0  0  0  0  0  0  0  0
  161.0430  207.7820  154.4180 C   0  0  0  0  0  0  0  0  0  0  0  0
  160.7520  208.5700  153.2830 C   0  0  0  0  0  0  0  0  0  0  0  0
  161.6530  204.9370  150.3430 O   0  0  0  0  0  0  0  0  0  0  0  0
  159.7430  212.1030  152.6190 C   0  0  0  0  0  3  0  0  0  0  0  0
  160.0890  210.7710  152.3860 C   0  0  0  0  0  3  0  0  0  0  0  0
  161.4460  205.7730  152.9980 C   0  0  0  0  0  2  0  0  0  0  0  0
  161.3790  206.4930  154.3160 C   0  0  0  0  0  3  0  0  0  0  0  0
  160.9810  208.3590  155.6890 C   0  0  0  0  0  3  0  0  0  0  0  0
  160.8310  208.0360  152.0560 C   0  0  0  0  0  3  0  0  0  0  0  0
  160.6380  209.6650  155.8380 N   0  0  0  0  0  0  0  0  0  0  0  0
  159.9980  206.4570  148.5160 N   0  0  0  0  0  1  0  0  0  0  0  0
  161.0620  207.0160  149.3330 C   0  0  2  0  0  3  0  0  0  0  0  0
  162.3310  207.1650  148.5120 C   0  0  0  0  0  2  0  0  0  0  0  0
  162.1360  206.5890  147.1930 N   0  0  0  0  0  2  0  0  0  0  0  0
  162.8960  205.3510  147.1630 C   0  0  0  0  0  2  0  0  0  0  0  0
  160.9530  202.1170  146.8920 C   0  0  0  0  0  3  0  0  0  0  0  0
  160.8310  203.2840  144.8100 N   0  0  0  0  0  0  0  0  0  0  0  0
  160.5050  202.2030  145.5710 C   0  0  0  0  0  0  0  0  0  0  0  0
  162.0470  204.2540  146.6230 C   0  0  0  0  0  0  0  0  0  0  0  0
  159.6760  201.1130  144.9960 C   0  0  0  0  0  1  0  0  0  0  0  0
  161.7300  203.1500  147.4180 C   0  0  0  0  0  3  0  0  0  0  0  0
  161.5890  204.3010  145.3030 C   0  0  0  0  0  3  0  0  0  0  0  0
  1 15  1  0  0  0  0
  1 12  1  0  0  0  0
  3  2  1  0  0  0  0
  4  2  2  0  0  0  0
  4 16  1  0  0  0  0
  5  4  1  0  0  0  0
  6  1  1  0  0  0  0
  7 14  1  0  0  0  0
  8  5  1  0  0  0  0
  8  7  1  0  0  0  0
  9  6  2  0  0  0  0
 10  3  2  0  0  0  0
 11 10  1  0  0  0  0
 11  5  2  0  0  0  0
 12 13  1  0  0  0  0
 13  7  2  0  0  0  0
 14 16  2  0  0  0  0
 15  8  2  0  0  0  0
 18 17  1  6  0  0  0
 18  6  1  0  0  0  0
 19 18  1  0  0  0  0
 20 19  1  0  0  0  0
 21 20  1  0  0  0  0
 22 27  1  0  0  0  0
 23 28  2  0  0  0  0
 23 24  1  0  0  0  0
 24 22  2  0  0  0  0
 25 21  1  0  0  0  0
 25 27  2  0  0  0  0
 26 24  1  0  0  0  0
 28 25  1  0  0  0  0
M  END
>  <MODEL>
8

>  <REMARK>
 VINA RESULT:      -8.2      1.959      9.062
  Name = 
  5 active torsions:
  status: ('A' for Active; 'I' for Inactive)
    1  A    between atoms: C_8  and  C_11
    2  A    between atoms: C_8  and  C_25
    3  A    between atoms: C_12  and  C_13
    4  A    between atoms: C_13  and  N_18
    5  A    between atoms: N_18  and  C_25
                            x       y       z     vdW  Elec       q    Type
                         _______ _______ _______ _____ _____    ______ ____

>  <TORSDO>
F 5

$$$$
=
 OpenBabel11052410523D

 28 31  0  0  1  0  0  0  0  0999 V2000
  161.3720  205.8950  150.5820 N   0  0  0  0  0  0  0  0  0  0  0  0
  160.8940  201.0640  146.9100 N   0  0  0  0  0  0  0  0  0  0  0  0
  161.0250  201.6890  145.7100 C   0  0  0  0  0  3  0  0  0  0  0  0
  160.9420  201.7510  148.0830 C   0  0  0  0  0  0  0  0  0  0  0  0
  161.1320  203.1520  148.0770 C   0  0  0  0  0  0  0  0  0  0  0  0
  161.5060  207.3250  150.5750 C   0  0  0  0  0  0  0  0  0  0  0  0
  161.0360  203.1160  150.5070 C   0  0  0  0  0  0  0  0  0  0  0  0
  161.1780  203.8430  149.3050 C   0  0  0  0  0  0  0  0  0  0  0  0
  161.5290  207.9620  151.6650 O   0  0  0  0  0  0  0  0  0  0  0  0
  161.2140  203.0700  145.6530 C   0  0  0  0  0  3  0  0  0  0  0  0
  161.2680  203.8020  146.8400 C   0  0  0  0  0  3  0  0  0  0  0  0
  161.3070  205.1870  151.8670 C   0  0  0  0  0  2  0  0  0  0  0  0
  161.0790  203.7110  151.7030 C   0  0  0  0  0  3  0  0  0  0  0  0
  160.8450  201.7330  150.4540 C   0  0  0  0  0  3  0  0  0  0  0  0
  161.3370  205.1740  149.3410 C   0  0  0  0  0  3  0  0  0  0  0  0
  160.8030  201.0880  149.2590 N   0  0  0  0  0  0  0  0  0  0  0  0
  162.6170  207.5010  148.4310 N   0  0  0  0  0  1  0  0  0  0  0  0
  161.5910  208.0790  149.2830 C   0  0  2  0  0  3  0  0  0  0  0  0
  161.8950  209.5430  149.5490 C   0  0  0  0  0  2  0  0  0  0  0  0
  162.2540  210.2070  148.3090 N   0  0  0  0  0  2  0  0  0  0  0  0
  162.2210  211.6350  148.5750 C   0  0  0  0  0  2  0  0  0  0  0  0
  159.4240  213.9130  147.4390 C   0  0  0  0  0  3  0  0  0  0  0  0
  159.9670  212.3950  145.6750 N   0  0  0  0  0  0  0  0  0  0  0  0
  159.2140  213.4260  146.1460 C   0  0  0  0  0  0  0  0  0  0  0  0
  161.1800  212.2800  147.7300 C   0  0  0  0  0  0  0  0  0  0  0  0
  158.1660  214.0340  145.2860 C   0  0  0  0  0  1  0  0  0  0  0  0
  160.4130  213.3320  148.2350 C   0  0  0  0  0  3  0  0  0  0  0  0
  160.9350  211.8150  146.4350 C   0  0  0  0  0  3  0  0  0  0  0  0
  1 12  1  0  0  0  0
  2  4  2  0  0  0  0
  3  2  1  0  0  0  0
  4 16  1  0  0  0  0
  5  4  1  0  0  0  0
  5  8  1  0  0  0  0
  6  1  1  0  0  0  0
  6  9  2  0  0  0  0
  7 13  2  0  0  0  0
  8 15  2  0  0  0  0
  8  7  1  0  0  0  0
 10  3  2  0  0  0  0
 10 11  1  0  0  0  0
 11  5  2  0  0  0  0
 13 12  1  0  0  0  0
 14  7  1  0  0  0  0
 15  1  1  0  0  0  0
 16 14  2  0  0  0  0
 18 17  1  6  0  0  0
 18 19  1  0  0  0  0
 18  6  1  0  0  0  0
 20 21  1  0  0  0  0
 20 19  1  0  0  0  0
 22 27  1  0  0  0  0
 23 24  1  0  0  0  0
 23 28  2  0  0  0  0
 24 22  2  0  0  0  0
 25 27  2  0  0  0  0
 25 21  1  0  0  0  0
 26 24  1  0  0  0  0
 28 25  1  0  0  0  0
M  END
>  <MODEL>
9

>  <REMARK>
 VINA RESULT:      -7.9      3.887      4.747
  Name = 
  5 active torsions:
  status: ('A' for Active; 'I' for Inactive)
    1  A    between atoms: C_8  and  C_11
    2  A    between atoms: C_8  and  C_25
    3  A    between atoms: C_12  and  C_13
    4  A    between atoms: C_13  and  N_18
    5  A    between atoms: N_18  and  C_25
                            x       y       z     vdW  Elec       q    Type
                         _______ _______ _______ _____ _____    ______ ____

>  <TORSDO>
F 5

$$$$
