=
 OpenBabel11052411133D

 26 29  0  0  1  0  0  0  0  0999 V2000
  160.9530  206.4750  146.5570 C   0  0  0  0  0  1  0  0  0  0  0  0
  161.2260  205.1250  148.6130 C   0  0  0  0  0  0  0  0  0  0  0  0
  161.8340  203.8220  145.0780 C   0  0  0  0  0  1  0  0  0  0  0  0
  161.0890  202.6750  148.4590 C   0  0  0  0  0  0  0  0  0  0  0  0
  161.0350  203.9070  149.2120 C   0  0  0  0  0  0  0  0  0  0  0  0
  160.9940  203.9100  150.5940 C   0  0  0  0  0  0  0  0  0  0  0  0
  161.0880  203.9710  146.3900 C   0  0  1  0  0  3  0  0  0  0  0  0
  161.1920  202.7150  147.1620 N   0  0  0  0  0  0  0  0  0  0  0  0
  161.5780  205.2280  147.1580 C   0  0  1  0  0  3  0  0  0  0  0  0
  161.1300  205.1890  151.1210 C   0  0  0  0  0  0  0  0  0  0  0  0
  161.3770  206.2780  149.8370 S   0  0  0  0  0  0  0  0  0  0  0  0
  161.0570  201.3920  150.4870 C   0  0  0  0  0  3  0  0  0  0  0  0
  161.1380  201.4390  149.1810 N   0  0  0  0  0  0  0  0  0  0  0  0
  160.8810  202.6240  151.3670 C   0  0  0  0  0  2  0  0  0  0  0  0
  161.1940  205.4790  152.5240 N   0  0  0  0  0  2  0  0  0  0  0  0
  160.5740  208.0030  155.1940 C   0  0  0  0  0  3  0  0  0  0  0  0
  160.6520  209.2040  154.4850 C   0  0  0  0  0  0  0  0  0  0  0  0
  160.7590  206.7840  154.5360 C   0  0  0  0  0  3  0  0  0  0  0  0
  161.0270  206.7510  153.1640 C   0  0  0  0  0  0  0  0  0  0  0  0
  160.9070  209.1780  153.1060 C   0  0  0  0  0  3  0  0  0  0  0  0
  161.0920  207.9580  152.4510 C   0  0  0  0  0  3  0  0  0  0  0  0
  160.4350  210.4970  155.2060 C   0  0  1  0  0  3  0  0  0  0  0  0
  161.6370  211.1930  155.3460 O   0  0  0  0  0  1  0  0  0  0  0  0
  159.4230  211.3440  154.5070 C   0  0  0  0  0  0  0  0  0  0  0  0
  158.1980  211.0820  154.6280 O   0  0  0  0  0  1  0  0  0  0  0  0
  159.8260  212.3990  153.6980 O   0  0  0  0  0  0  0  0  0  0  0  0
  2  5  2  0  0  0  0
  2 11  1  0  0  0  0
  4 13  1  0  0  0  0
  4  5  1  0  0  0  0
  5  6  1  0  0  0  0
  6 10  2  0  0  0  0
  6 14  1  0  0  0  0
  7  3  1  6  0  0  0
  7  9  1  0  0  0  0
  7  8  1  0  0  0  0
  8  4  2  0  0  0  0
  9  1  1  6  0  0  0
  9  2  1  0  0  0  0
 10 15  1  0  0  0  0
 11 10  1  0  0  0  0
 12 14  1  0  0  0  0
 13 12  2  0  0  0  0
 15 19  1  0  0  0  0
 17 16  2  0  0  0  0
 17 22  1  0  0  0  0
 18 16  1  0  0  0  0
 19 18  2  0  0  0  0
 20 17  1  0  0  0  0
 21 20  2  0  0  0  0
 21 19  1  0  0  0  0
 22 23  1  6  0  0  0
 24 25  1  0  0  0  0
 24 22  1  0  0  0  0
 26 24  2  0  0  0  0
M  END
>  <MODEL>
1

>  <REMARK>
 VINA RESULT:      -9.0      0.000      0.000
  Name = 
  4 active torsions:
  status: ('A' for Active; 'I' for Inactive)
    1  A    between atoms: N_4  and  C_16
    2  A    between atoms: N_4  and  C_19
    3  A    between atoms: C_10  and  C_11
    4  A    between atoms: C_11  and  C_14
                            x       y       z     vdW  Elec       q    Type
                         _______ _______ _______ _____ _____    ______ ____

>  <TORSDO>
F 4

$$$$
=
 OpenBabel11052411133D

 26 29  0  0  1  0  0  0  0  0999 V2000
  160.9980  201.2840  150.1440 C   0  0  0  0  0  1  0  0  0  0  0  0
  160.9810  203.5860  149.2340 C   0  0  0  0  0  0  0  0  0  0  0  0
  160.7590  200.4230  147.1100 C   0  0  0  0  0  1  0  0  0  0  0  0
  161.6600  203.9510  146.8990 C   0  0  0  0  0  0  0  0  0  0  0  0
  161.4230  204.4240  148.2430 C   0  0  0  0  0  0  0  0  0  0  0  0
  161.4300  205.7730  148.5480 C   0  0  0  0  0  0  0  0  0  0  0  0
  161.4230  201.6550  147.6940 C   0  0  1  0  0  3  0  0  0  0  0  0
  161.5810  202.6780  146.6400 N   0  0  0  0  0  0  0  0  0  0  0  0
  160.6500  202.1510  148.9460 C   0  0  1  0  0  3  0  0  0  0  0  0
  161.0020  206.0200  149.8490 C   0  0  0  0  0  0  0  0  0  0  0  0
  160.5510  204.5410  150.5570 S   0  0  0  0  0  0  0  0  0  0  0  0
  161.9270  206.2030  146.1150 C   0  0  0  0  0  3  0  0  0  0  0  0
  161.8680  204.9200  145.8650 N   0  0  0  0  0  0  0  0  0  0  0  0
  161.8050  206.7980  147.5130 C   0  0  0  0  0  2  0  0  0  0  0  0
  160.8430  207.3310  150.4080 N   0  0  0  0  0  2  0  0  0  0  0  0
  160.8610  209.4690  153.4590 C   0  0  0  0  0  3  0  0  0  0  0  0
  161.0680  208.5300  154.4730 C   0  0  0  0  0  0  0  0  0  0  0  0
  160.7840  209.0590  152.1250 C   0  0  0  0  0  3  0  0  0  0  0  0
  160.9110  207.7070  151.7890 C   0  0  0  0  0  0  0  0  0  0  0  0
  161.2100  207.1750  154.1420 C   0  0  0  0  0  3  0  0  0  0  0  0
  161.1330  206.7680  152.8070 C   0  0  0  0  0  3  0  0  0  0  0  0
  161.1640  208.9930  155.8920 C   0  0  1  0  0  3  0  0  0  0  0  0
  161.9560  208.1220  156.6430 O   0  0  0  0  0  1  0  0  0  0  0  0
  161.7010  210.3840  155.9740 C   0  0  0  0  0  0  0  0  0  0  0  0
  160.9390  211.3290  156.3070 O   0  0  0  0  0  1  0  0  0  0  0  0
  163.0270  210.6470  155.6540 O   0  0  0  0  0  0  0  0  0  0  0  0
  2 11  1  0  0  0  0
  4  5  1  0  0  0  0
  5  6  1  0  0  0  0
  5  2  2  0  0  0  0
  6 10  2  0  0  0  0
  7  3  1  6  0  0  0
  7  9  1  0  0  0  0
  8  4  2  0  0  0  0
  8  7  1  0  0  0  0
  9  2  1  0  0  0  0
  9  1  1  1  0  0  0
 10 15  1  0  0  0  0
 10 11  1  0  0  0  0
 12 14  1  0  0  0  0
 13 12  2  0  0  0  0
 13  4  1  0  0  0  0
 14  6  1  0  0  0  0
 15 19  1  0  0  0  0
 16 17  1  0  0  0  0
 17 22  1  0  0  0  0
 18 16  2  0  0  0  0
 19 18  1  0  0  0  0
 19 21  2  0  0  0  0
 20 17  2  0  0  0  0
 21 20  1  0  0  0  0
 22 24  1  0  0  0  0
 22 23  1  1  0  0  0
 24 25  1  0  0  0  0
 26 24  2  0  0  0  0
M  END
>  <MODEL>
2

>  <REMARK>
 VINA RESULT:      -8.8      1.637      3.312
  Name = 
  4 active torsions:
  status: ('A' for Active; 'I' for Inactive)
    1  A    between atoms: N_4  and  C_16
    2  A    between atoms: N_4  and  C_19
    3  A    between atoms: C_10  and  C_11
    4  A    between atoms: C_11  and  C_14
                            x       y       z     vdW  Elec       q    Type
                         _______ _______ _______ _____ _____    ______ ____

>  <TORSDO>
F 4

$$$$
=
 OpenBabel11052411133D

 26 29  0  0  1  0  0  0  0  0999 V2000
  161.2110  203.1840  152.0130 C   0  0  0  0  0  1  0  0  0  0  0  0
  161.2160  205.6000  151.4760 C   0  0  0  0  0  0  0  0  0  0  0  0
  160.4410  202.8320  148.9660 C   0  0  0  0  0  1  0  0  0  0  0  0
  161.5460  206.3040  149.1440 C   0  0  0  0  0  0  0  0  0  0  0  0
  161.5560  206.5650  150.5650 C   0  0  0  0  0  0  0  0  0  0  0  0
  161.7060  207.8460  151.0640 C   0  0  0  0  0  0  0  0  0  0  0  0
  161.2740  203.9220  149.6120 C   0  0  1  0  0  3  0  0  0  0  0  0
  161.3380  205.0940  148.7120 N   0  0  0  0  0  0  0  0  0  0  0  0
  160.7430  204.2470  151.0350 C   0  0  1  0  0  3  0  0  0  0  0  0
  161.5050  207.9000  152.4390 C   0  0  0  0  0  0  0  0  0  0  0  0
  161.0660  206.3490  152.9820 S   0  0  0  0  0  0  0  0  0  0  0  0
  161.8460  208.6380  148.6760 C   0  0  0  0  0  3  0  0  0  0  0  0
  161.6580  207.4150  148.2480 N   0  0  0  0  0  0  0  0  0  0  0  0
  161.9870  209.0060  150.1480 C   0  0  0  0  0  2  0  0  0  0  0  0
  161.5290  209.1100  153.2090 N   0  0  0  0  0  2  0  0  0  0  0  0
  158.9210  210.6640  155.3690 C   0  0  0  0  0  3  0  0  0  0  0  0
  158.2110  211.4460  154.4530 C   0  0  0  0  0  0  0  0  0  0  0  0
  160.0150  209.9040  154.9460 C   0  0  0  0  0  3  0  0  0  0  0  0
  160.4130  209.9180  153.6040 C   0  0  0  0  0  0  0  0  0  0  0  0
  158.5970  211.4540  153.1050 C   0  0  0  0  0  3  0  0  0  0  0  0
  159.6910  210.6930  152.6850 C   0  0  0  0  0  3  0  0  0  0  0  0
  157.0340  212.2400  154.9250 C   0  0  1  0  0  3  0  0  0  0  0  0
  156.5160  213.0180  153.8880 O   0  0  0  0  0  1  0  0  0  0  0  0
  155.9730  211.3530  155.4880 C   0  0  0  0  0  0  0  0  0  0  0  0
  155.6560  211.4520  156.7020 O   0  0  0  0  0  1  0  0  0  0  0  0
  155.3560  210.3970  154.6900 O   0  0  0  0  0  0  0  0  0  0  0  0
  2 11  1  0  0  0  0
  4  5  1  0  0  0  0
  5  6  1  0  0  0  0
  5  2  2  0  0  0  0
  6 10  2  0  0  0  0
  7  3  1  6  0  0  0
  7  9  1  0  0  0  0
  8  4  2  0  0  0  0
  8  7  1  0  0  0  0
  9  2  1  0  0  0  0
  9  1  1  1  0  0  0
 10 11  1  0  0  0  0
 10 15  1  0  0  0  0
 12 14  1  0  0  0  0
 13 12  2  0  0  0  0
 13  4  1  0  0  0  0
 14  6  1  0  0  0  0
 15 19  1  0  0  0  0
 17 22  1  0  0  0  0
 17 16  2  0  0  0  0
 18 16  1  0  0  0  0
 19 18  2  0  0  0  0
 20 17  1  0  0  0  0
 21 20  2  0  0  0  0
 21 19  1  0  0  0  0
 22 23  1  6  0  0  0
 22 24  1  0  0  0  0
 24 25  1  0  0  0  0
 26 24  2  0  0  0  0
M  END
>  <MODEL>
3

>  <REMARK>
 VINA RESULT:      -8.7      2.479      4.244
  Name = 
  4 active torsions:
  status: ('A' for Active; 'I' for Inactive)
    1  A    between atoms: N_4  and  C_16
    2  A    between atoms: N_4  and  C_19
    3  A    between atoms: C_10  and  C_11
    4  A    between atoms: C_11  and  C_14
                            x       y       z     vdW  Elec       q    Type
                         _______ _______ _______ _____ _____    ______ ____

>  <TORSDO>
F 4

$$$$
=
 OpenBabel11052411133D

 26 29  0  0  1  0  0  0  0  0999 V2000
  161.1460  206.5390  146.9060 C   0  0  0  0  0  1  0  0  0  0  0  0
  161.5610  206.8370  149.3280 C   0  0  0  0  0  0  0  0  0  0  0  0
  161.5510  203.4660  147.5360 C   0  0  0  0  0  1  0  0  0  0  0  0
  161.1620  204.9460  150.8480 C   0  0  0  0  0  0  0  0  0  0  0  0
  161.3330  206.3570  150.5910 C   0  0  0  0  0  0  0  0  0  0  0  0
  161.4800  207.2680  151.6220 C   0  0  0  0  0  0  0  0  0  0  0  0
  161.0090  204.5550  148.4420 C   0  0  1  0  0  3  0  0  0  0  0  0
  161.0910  204.1130  149.8510 N   0  0  0  0  0  0  0  0  0  0  0  0
  161.7200  205.9060  148.1620 C   0  0  1  0  0  3  0  0  0  0  0  0
  161.8140  208.5360  151.1580 C   0  0  0  0  0  0  0  0  0  0  0  0
  161.9910  208.4630  149.4680 S   0  0  0  0  0  0  0  0  0  0  0  0
  161.2790  205.3250  153.2140 C   0  0  0  0  0  3  0  0  0  0  0  0
  161.1860  204.4940  152.2070 N   0  0  0  0  0  0  0  0  0  0  0  0
  161.3470  206.8400  153.0580 C   0  0  0  0  0  2  0  0  0  0  0  0
  162.0960  209.6560  152.0090 N   0  0  0  0  0  2  0  0  0  0  0  0
  159.0490  211.5740  152.9660 C   0  0  0  0  0  3  0  0  0  0  0  0
  159.3180  211.9050  154.2970 C   0  0  0  0  0  0  0  0  0  0  0  0
  159.9710  210.8290  152.2260 C   0  0  0  0  0  3  0  0  0  0  0  0
  161.1700  210.4030  152.8080 C   0  0  0  0  0  0  0  0  0  0  0  0
  160.5240  211.4930  154.8820 C   0  0  0  0  0  3  0  0  0  0  0  0
  161.4440  210.7480  154.1400 C   0  0  0  0  0  3  0  0  0  0  0  0
  158.3240  212.7170  155.0650 C   0  0  1  0  0  3  0  0  0  0  0  0
  158.2950  214.0330  154.5970 O   0  0  0  0  0  1  0  0  0  0  0  0
  156.9610  212.1120  154.9980 C   0  0  0  0  0  0  0  0  0  0  0  0
  156.0140  212.7620  154.4840 O   0  0  0  0  0  0  0  0  0  0  0  0
  156.7240  210.8490  155.5280 O   0  0  0  0  0  1  0  0  0  0  0  0
  2 11  1  0  0  0  0
  2  5  2  0  0  0  0
  4 13  1  0  0  0  0
  5  4  1  0  0  0  0
  5  6  1  0  0  0  0
  6 14  1  0  0  0  0
  7  3  1  6  0  0  0
  7  8  1  0  0  0  0
  8  4  2  0  0  0  0
  9  1  1  6  0  0  0
  9  7  1  0  0  0  0
  9  2  1  0  0  0  0
 10  6  2  0  0  0  0
 10 15  1  0  0  0  0
 11 10  1  0  0  0  0
 13 12  2  0  0  0  0
 14 12  1  0  0  0  0
 15 19  1  0  0  0  0
 16 17  1  0  0  0  0
 17 20  2  0  0  0  0
 17 22  1  0  0  0  0
 18 19  1  0  0  0  0
 18 16  2  0  0  0  0
 19 21  2  0  0  0  0
 21 20  1  0  0  0  0
 22 23  1  6  0  0  0
 24 22  1  0  0  0  0
 24 26  1  0  0  0  0
 25 24  2  0  0  0  0
M  END
>  <MODEL>
4

>  <REMARK>
 VINA RESULT:      -8.7      1.972      3.385
  Name = 
  4 active torsions:
  status: ('A' for Active; 'I' for Inactive)
    1  A    between atoms: N_4  and  C_16
    2  A    between atoms: N_4  and  C_19
    3  A    between atoms: C_10  and  C_11
    4  A    between atoms: C_11  and  C_14
                            x       y       z     vdW  Elec       q    Type
                         _______ _______ _______ _____ _____    ______ ____

>  <TORSDO>
F 4

$$$$
=
 OpenBabel11052411133D

 26 29  0  0  1  0  0  0  0  0999 V2000
  160.9580  206.4890  146.6240 C   0  0  0  0  0  1  0  0  0  0  0  0
  161.2670  205.5450  148.8910 C   0  0  0  0  0  0  0  0  0  0  0  0
  161.6840  203.5670  145.6540 C   0  0  0  0  0  1  0  0  0  0  0  0
  161.0370  203.1190  149.2160 C   0  0  0  0  0  0  0  0  0  0  0  0
  161.0580  204.4730  149.7190 C   0  0  0  0  0  0  0  0  0  0  0  0
  161.0720  204.7420  151.0750 C   0  0  0  0  0  0  0  0  0  0  0  0
  160.9980  203.9950  146.9370 C   0  0  1  0  0  3  0  0  0  0  0  0
  161.0880  202.9070  147.9330 N   0  0  0  0  0  0  0  0  0  0  0  0
  161.5630  205.3540  147.4330 C   0  0  1  0  0  3  0  0  0  0  0  0
  161.2750  206.0920  151.3410 C   0  0  0  0  0  0  0  0  0  0  0  0
  161.5080  206.9030  149.8640 S   0  0  0  0  0  0  0  0  0  0  0  0
  161.0420  202.2500  151.4520 C   0  0  0  0  0  3  0  0  0  0  0  0
  161.0720  202.0430  150.1600 N   0  0  0  0  0  0  0  0  0  0  0  0
  160.9460  203.6330  152.0850 C   0  0  0  0  0  2  0  0  0  0  0  0
  161.4060  206.6410  152.6600 N   0  0  0  0  0  2  0  0  0  0  0  0
  160.3810  210.2220  152.5880 C   0  0  0  0  0  3  0  0  0  0  0  0
  160.1580  210.4900  153.9420 C   0  0  0  0  0  0  0  0  0  0  0  0
  160.7870  208.9490  152.1800 C   0  0  0  0  0  3  0  0  0  0  0  0
  160.9720  207.9280  153.1180 C   0  0  0  0  0  0  0  0  0  0  0  0
  160.3560  209.4750  154.8890 C   0  0  0  0  0  3  0  0  0  0  0  0
  160.7620  208.2020  154.4780 C   0  0  0  0  0  3  0  0  0  0  0  0
  159.7400  211.8640  154.3580 C   0  0  1  0  0  3  0  0  0  0  0  0
  159.5670  212.6870  153.2420 O   0  0  0  0  0  1  0  0  0  0  0  0
  158.4900  211.8270  155.1740 C   0  0  0  0  0  0  0  0  0  0  0  0
  158.5290  212.1460  156.3910 O   0  0  0  0  0  1  0  0  0  0  0  0
  157.2910  211.4120  154.6070 O   0  0  0  0  0  0  0  0  0  0  0  0
  2  5  2  0  0  0  0
  2 11  1  0  0  0  0
  4  5  1  0  0  0  0
  4 13  1  0  0  0  0
  5  6  1  0  0  0  0
  6 10  2  0  0  0  0
  6 14  1  0  0  0  0
  7  3  1  6  0  0  0
  7  9  1  0  0  0  0
  7  8  1  0  0  0  0
  8  4  2  0  0  0  0
  9  1  1  6  0  0  0
  9  2  1  0  0  0  0
 10 15  1  0  0  0  0
 11 10  1  0  0  0  0
 12 14  1  0  0  0  0
 13 12  2  0  0  0  0
 15 19  1  0  0  0  0
 16 17  1  0  0  0  0
 17 22  1  0  0  0  0
 17 20  2  0  0  0  0
 18 16  2  0  0  0  0
 18 19  1  0  0  0  0
 19 21  2  0  0  0  0
 21 20  1  0  0  0  0
 22 23  1  6  0  0  0
 22 24  1  0  0  0  0
 24 25  1  0  0  0  0
 26 24  2  0  0  0  0
M  END
>  <MODEL>
5

>  <REMARK>
 VINA RESULT:      -8.7      1.050      1.673
  Name = 
  4 active torsions:
  status: ('A' for Active; 'I' for Inactive)
    1  A    between atoms: N_4  and  C_16
    2  A    between atoms: N_4  and  C_19
    3  A    between atoms: C_10  and  C_11
    4  A    between atoms: C_11  and  C_14
                            x       y       z     vdW  Elec       q    Type
                         _______ _______ _______ _____ _____    ______ ____

>  <TORSDO>
F 4

$$$$
=
 OpenBabel11052411133D

 26 29  0  0  1  0  0  0  0  0999 V2000
  161.2120  202.6960  151.9900 C   0  0  0  0  0  1  0  0  0  0  0  0
  161.2260  205.0170  151.1290 C   0  0  0  0  0  0  0  0  0  0  0  0
  160.0820  201.9770  149.1250 C   0  0  0  0  0  1  0  0  0  0  0  0
  161.3010  205.3880  148.7000 C   0  0  0  0  0  0  0  0  0  0  0  0
  161.4850  205.8360  150.0610 C   0  0  0  0  0  0  0  0  0  0  0  0
  161.7310  207.1630  150.3590 C   0  0  0  0  0  0  0  0  0  0  0  0
  161.0160  203.1050  149.5170 C   0  0  1  0  0  3  0  0  0  0  0  0
  161.0090  204.1420  148.4640 N   0  0  0  0  0  0  0  0  0  0  0  0
  160.6650  203.6390  150.9320 C   0  0  1  0  0  3  0  0  0  0  0  0
  161.6930  207.4100  151.7280 C   0  0  0  0  0  0  0  0  0  0  0  0
  161.2750  205.9650  152.5240 S   0  0  0  0  0  0  0  0  0  0  0  0
  161.6140  207.6230  147.8840 C   0  0  0  0  0  3  0  0  0  0  0  0
  161.3410  206.3640  147.6520 N   0  0  0  0  0  0  0  0  0  0  0  0
  161.9360  208.1770  149.2670 C   0  0  0  0  0  2  0  0  0  0  0  0
  161.8420  208.7090  152.3160 N   0  0  0  0  0  2  0  0  0  0  0  0
  159.1730  211.0780  153.3830 C   0  0  0  0  0  3  0  0  0  0  0  0
  159.0870  210.8240  154.7540 C   0  0  0  0  0  0  0  0  0  0  0  0
  160.0810  210.3710  152.5910 C   0  0  0  0  0  3  0  0  0  0  0  0
  160.9120  209.3990  153.1600 C   0  0  0  0  0  0  0  0  0  0  0  0
  159.9270  209.8620  155.3330 C   0  0  0  0  0  3  0  0  0  0  0  0
  160.8350  209.1550  154.5390 C   0  0  0  0  0  3  0  0  0  0  0  0
  158.1190  211.6040  155.5860 C   0  0  1  0  0  3  0  0  0  0  0  0
  158.3890  211.4370  156.9460 O   0  0  0  0  0  1  0  0  0  0  0  0
  158.1410  213.0540  155.2260 C   0  0  0  0  0  0  0  0  0  0  0  0
  157.1970  213.5450  154.5540 O   0  0  0  0  0  0  0  0  0  0  0  0
  159.2110  213.8560  155.6010 O   0  0  0  0  0  1  0  0  0  0  0  0
  2 11  1  0  0  0  0
  4  5  1  0  0  0  0
  5  6  1  0  0  0  0
  5  2  2  0  0  0  0
  6 10  2  0  0  0  0
  7  3  1  6  0  0  0
  7  9  1  0  0  0  0
  8  4  2  0  0  0  0
  8  7  1  0  0  0  0
  9  2  1  0  0  0  0
  9  1  1  1  0  0  0
 10 15  1  0  0  0  0
 10 11  1  0  0  0  0
 12 14  1  0  0  0  0
 13 12  2  0  0  0  0
 13  4  1  0  0  0  0
 14  6  1  0  0  0  0
 15 19  1  0  0  0  0
 16 17  1  0  0  0  0
 17 20  2  0  0  0  0
 17 22  1  0  0  0  0
 18 19  1  0  0  0  0
 18 16  2  0  0  0  0
 19 21  2  0  0  0  0
 21 20  1  0  0  0  0
 22 23  1  1  0  0  0
 24 22  1  0  0  0  0
 24 26  1  0  0  0  0
 25 24  2  0  0  0  0
M  END
>  <MODEL>
6

>  <REMARK>
 VINA RESULT:      -8.4      1.987      3.697
  Name = 
  4 active torsions:
  status: ('A' for Active; 'I' for Inactive)
    1  A    between atoms: N_4  and  C_16
    2  A    between atoms: N_4  and  C_19
    3  A    between atoms: C_10  and  C_11
    4  A    between atoms: C_11  and  C_14
                            x       y       z     vdW  Elec       q    Type
                         _______ _______ _______ _____ _____    ______ ____

>  <TORSDO>
F 4

$$$$
=
 OpenBabel11052411133D

 26 29  0  0  1  0  0  0  0  0999 V2000
  159.3140  209.3920  155.8360 C   0  0  0  0  0  1  0  0  0  0  0  0
  160.7240  208.8590  153.8730 C   0  0  0  0  0  0  0  0  0  0  0  0
  159.8770  212.3970  155.0270 C   0  0  0  0  0  1  0  0  0  0  0  0
  160.9640  210.5310  152.0870 C   0  0  0  0  0  0  0  0  0  0  0  0
  161.0430  209.1750  152.5780 C   0  0  0  0  0  0  0  0  0  0  0  0
  161.6340  208.1680  151.8360 C   0  0  0  0  0  0  0  0  0  0  0  0
  159.7960  211.1750  154.1320 C   0  0  1  0  0  3  0  0  0  0  0  0
  160.4580  211.4620  152.8420 N   0  0  0  0  0  0  0  0  0  0  0  0
  160.3520  209.9230  154.8630 C   0  0  1  0  0  3  0  0  0  0  0  0
  161.7670  206.9890  152.5620 C   0  0  0  0  0  0  0  0  0  0  0  0
  161.2090  207.2650  154.1450 S   0  0  0  0  0  0  0  0  0  0  0  0
  162.0820  209.8990  150.0600 C   0  0  0  0  0  3  0  0  0  0  0  0
  161.5520  210.8280  150.8150 N   0  0  0  0  0  0  0  0  0  0  0  0
  162.1130  208.4220  150.4330 C   0  0  0  0  0  2  0  0  0  0  0  0
  162.4100  205.8070  152.0650 N   0  0  0  0  0  2  0  0  0  0  0  0
  161.0600  202.4160  151.3170 C   0  0  0  0  0  3  0  0  0  0  0  0
  160.6780  202.5420  149.9790 C   0  0  0  0  0  0  0  0  0  0  0  0
  161.6240  203.5010  151.9930 C   0  0  0  0  0  3  0  0  0  0  0  0
  161.8110  204.7250  151.3410 C   0  0  0  0  0  0  0  0  0  0  0  0
  160.8750  203.7620  149.3150 C   0  0  0  0  0  3  0  0  0  0  0  0
  161.4400  204.8450  149.9940 C   0  0  0  0  0  3  0  0  0  0  0  0
  160.0900  201.3630  149.2700 C   0  0  1  0  0  3  0  0  0  0  0  0
  158.7430  201.5850  148.9760 O   0  0  0  0  0  1  0  0  0  0  0  0
  160.8490  201.0470  148.0230 C   0  0  0  0  0  0  0  0  0  0  0  0
  161.7720  200.1920  148.0540 O   0  0  0  0  0  1  0  0  0  0  0  0
  160.5640  201.7130  146.8370 O   0  0  0  0  0  0  0  0  0  0  0  0
  2 11  1  0  0  0  0
  2  9  1  0  0  0  0
  4  5  1  0  0  0  0
  4  8  2  0  0  0  0
  5  2  2  0  0  0  0
  6 10  2  0  0  0  0
  6  5  1  0  0  0  0
  7  9  1  0  0  0  0
  7  3  1  1  0  0  0
  8  7  1  0  0  0  0
  9  1  1  1  0  0  0
 10 11  1  0  0  0  0
 12 14  1  0  0  0  0
 12 13  2  0  0  0  0
 13  4  1  0  0  0  0
 14  6  1  0  0  0  0
 15 10  1  0  0  0  0
 16 18  1  0  0  0  0
 17 16  2  0  0  0  0
 19 18  2  0  0  0  0
 19 15  1  0  0  0  0
 20 17  1  0  0  0  0
 20 21  2  0  0  0  0
 21 19  1  0  0  0  0
 22 23  1  6  0  0  0
 22 17  1  0  0  0  0
 24 25  1  0  0  0  0
 24 22  1  0  0  0  0
 26 24  2  0  0  0  0
M  END
>  <MODEL>
7

>  <REMARK>
 VINA RESULT:      -8.3      4.713      8.607
  Name = 
  4 active torsions:
  status: ('A' for Active; 'I' for Inactive)
    1  A    between atoms: N_4  and  C_16
    2  A    between atoms: N_4  and  C_19
    3  A    between atoms: C_10  and  C_11
    4  A    between atoms: C_11  and  C_14
                            x       y       z     vdW  Elec       q    Type
                         _______ _______ _______ _____ _____    ______ ____

>  <TORSDO>
F 4

$$$$
=
 OpenBabel11052411133D

 26 29  0  0  1  0  0  0  0  0999 V2000
  160.1800  212.1950  151.9990 C   0  0  0  0  0  1  0  0  0  0  0  0
  160.3110  210.1040  153.3180 C   0  0  0  0  0  0  0  0  0  0  0  0
  158.3730  213.2130  154.3870 C   0  0  0  0  0  1  0  0  0  0  0  0
  159.9080  210.1940  155.7410 C   0  0  0  0  0  0  0  0  0  0  0  0
  160.4380  209.5470  154.5630 C   0  0  0  0  0  0  0  0  0  0  0  0
  160.9140  208.2490  154.6020 C   0  0  0  0  0  0  0  0  0  0  0  0
  159.5090  212.2100  154.4220 C   0  0  1  0  0  3  0  0  0  0  0  0
  159.4110  211.3930  155.6500 N   0  0  0  0  0  0  0  0  0  0  0  0
  159.5450  211.3770  153.1110 C   0  0  1  0  0  3  0  0  0  0  0  0
  161.2050  207.7580  153.3340 C   0  0  0  0  0  0  0  0  0  0  0  0
  160.7840  208.9430  152.1880 S   0  0  0  0  0  0  0  0  0  0  0  0
  160.3270  208.2290  157.0530 C   0  0  0  0  0  3  0  0  0  0  0  0
  159.8480  209.4440  156.9600 N   0  0  0  0  0  0  0  0  0  0  0  0
  161.0100  207.4990  155.9020 C   0  0  0  0  0  2  0  0  0  0  0  0
  161.6470  206.4190  153.0710 N   0  0  0  0  0  2  0  0  0  0  0  0
  161.0460  203.4450  150.9100 C   0  0  0  0  0  3  0  0  0  0  0  0
  160.9710  204.0180  149.6370 C   0  0  0  0  0  0  0  0  0  0  0  0
  161.2630  204.2480  152.0320 C   0  0  0  0  0  3  0  0  0  0  0  0
  161.4070  205.6330  151.8970 C   0  0  0  0  0  0  0  0  0  0  0  0
  161.1280  205.4040  149.4930 C   0  0  0  0  0  3  0  0  0  0  0  0
  161.3460  206.2050  150.6170 C   0  0  0  0  0  3  0  0  0  0  0  0
  160.7530  203.1370  148.4480 C   0  0  1  0  0  3  0  0  0  0  0  0
  161.8010  203.2740  147.5340 O   0  0  0  0  0  1  0  0  0  0  0  0
  160.6010  201.7080  148.8530 C   0  0  0  0  0  0  0  0  0  0  0  0
  161.5490  200.9010  148.6660 O   0  0  0  0  0  0  0  0  0  0  0  0
  159.4090  201.2550  149.4050 O   0  0  0  0  0  1  0  0  0  0  0  0
  2  5  2  0  0  0  0
  4 13  1  0  0  0  0
  5  6  1  0  0  0  0
  5  4  1  0  0  0  0
  6 14  1  0  0  0  0
  7  3  1  6  0  0  0
  7  8  1  0  0  0  0
  8  4  2  0  0  0  0
  9  1  1  6  0  0  0
  9  2  1  0  0  0  0
  9  7  1  0  0  0  0
 10  6  2  0  0  0  0
 11  2  1  0  0  0  0
 11 10  1  0  0  0  0
 13 12  2  0  0  0  0
 14 12  1  0  0  0  0
 15 10  1  0  0  0  0
 16 18  1  0  0  0  0
 17 16  2  0  0  0  0
 19 18  2  0  0  0  0
 19 15  1  0  0  0  0
 20 17  1  0  0  0  0
 20 21  2  0  0  0  0
 21 19  1  0  0  0  0
 22 23  1  6  0  0  0
 22 24  1  0  0  0  0
 22 17  1  0  0  0  0
 24 26  1  0  0  0  0
 25 24  2  0  0  0  0
M  END
>  <MODEL>
8

>  <REMARK>
 VINA RESULT:      -8.3      4.510      8.630
  Name = 
  4 active torsions:
  status: ('A' for Active; 'I' for Inactive)
    1  A    between atoms: N_4  and  C_16
    2  A    between atoms: N_4  and  C_19
    3  A    between atoms: C_10  and  C_11
    4  A    between atoms: C_11  and  C_14
                            x       y       z     vdW  Elec       q    Type
                         _______ _______ _______ _____ _____    ______ ____

>  <TORSDO>
F 4

$$$$
=
 OpenBabel11052411133D

 26 29  0  0  1  0  0  0  0  0999 V2000
  160.8040  204.0570  145.0110 C   0  0  0  0  0  1  0  0  0  0  0  0
  161.3180  204.3050  147.4200 C   0  0  0  0  0  0  0  0  0  0  0  0
  160.9070  200.9580  145.6330 C   0  0  0  0  0  1  0  0  0  0  0  0
  160.7710  202.4630  148.9530 C   0  0  0  0  0  0  0  0  0  0  0  0
  161.0790  203.8490  148.6900 C   0  0  0  0  0  0  0  0  0  0  0  0
  161.3500  204.7380  149.7140 C   0  0  0  0  0  0  0  0  0  0  0  0
  160.5070  202.0940  146.5540 C   0  0  1  0  0  3  0  0  0  0  0  0
  160.5840  201.6440  147.9590 N   0  0  0  0  0  0  0  0  0  0  0  0
  161.3460  203.3660  146.2500 C   0  0  1  0  0  3  0  0  0  0  0  0
  161.7980  205.9660  149.2400 C   0  0  0  0  0  0  0  0  0  0  0  0
  161.9170  205.8780  147.5450 S   0  0  0  0  0  0  0  0  0  0  0  0
  160.9950  202.8240  151.3150 C   0  0  0  0  0  3  0  0  0  0  0  0
  160.7870  202.0090  150.3110 N   0  0  0  0  0  0  0  0  0  0  0  0
  161.2150  204.3230  151.1540 C   0  0  0  0  0  2  0  0  0  0  0  0
  162.2190  207.0490  150.0810 N   0  0  0  0  0  2  0  0  0  0  0  0
  160.5850  208.9250  152.8540 C   0  0  0  0  0  3  0  0  0  0  0  0
  160.8220  208.0910  153.9500 C   0  0  0  0  0  0  0  0  0  0  0  0
  161.0460  208.5660  151.5840 C   0  0  0  0  0  3  0  0  0  0  0  0
  161.7480  207.3700  151.3960 C   0  0  0  0  0  0  0  0  0  0  0  0
  161.5360  206.8980  153.7700 C   0  0  0  0  0  3  0  0  0  0  0  0
  161.9970  206.5420  152.5000 C   0  0  0  0  0  3  0  0  0  0  0  0
  160.3320  208.5020  155.3030 C   0  0  1  0  0  3  0  0  0  0  0  0
  159.8460  207.3990  156.0080 O   0  0  0  0  0  1  0  0  0  0  0  0
  161.4070  209.1840  156.0840 C   0  0  0  0  0  0  0  0  0  0  0  0
  162.1020  208.5230  156.8990 O   0  0  0  0  0  1  0  0  0  0  0  0
  161.6230  210.5490  155.9400 O   0  0  0  0  0  0  0  0  0  0  0  0
  2 11  1  0  0  0  0
  2  5  2  0  0  0  0
  4 13  1  0  0  0  0
  5  4  1  0  0  0  0
  5  6  1  0  0  0  0
  6 14  1  0  0  0  0
  7  3  1  6  0  0  0
  7  8  1  0  0  0  0
  8  4  2  0  0  0  0
  9  1  1  6  0  0  0
  9  7  1  0  0  0  0
  9  2  1  0  0  0  0
 10  6  2  0  0  0  0
 10 15  1  0  0  0  0
 11 10  1  0  0  0  0
 13 12  2  0  0  0  0
 14 12  1  0  0  0  0
 15 19  1  0  0  0  0
 16 17  1  0  0  0  0
 17 22  1  0  0  0  0
 18 16  2  0  0  0  0
 19 18  1  0  0  0  0
 19 21  2  0  0  0  0
 20 17  2  0  0  0  0
 21 20  1  0  0  0  0
 22 23  1  1  0  0  0
 22 24  1  0  0  0  0
 24 25  1  0  0  0  0
 26 24  2  0  0  0  0
M  END
>  <MODEL>
9

>  <REMARK>
 VINA RESULT:      -8.2      1.724      2.513
  Name = 
  4 active torsions:
  status: ('A' for Active; 'I' for Inactive)
    1  A    between atoms: N_4  and  C_16
    2  A    between atoms: N_4  and  C_19
    3  A    between atoms: C_10  and  C_11
    4  A    between atoms: C_11  and  C_14
                            x       y       z     vdW  Elec       q    Type
                         _______ _______ _______ _____ _____    ______ ____

>  <TORSDO>
F 4

$$$$
