=
 OpenBabel11052410063D

 54 59  0  0  1  0  0  0  0  0999 V2000
  160.7330  209.3860  150.2650 C   0  0  0  0  0  2  0  0  0  0  0  0
  158.9570  211.1850  156.2270 N   0  0  0  0  0  2  0  0  0  0  0  0
  158.8480  211.7870  154.9020 C   0  0  1  0  0  3  0  0  0  0  0  0
  160.9070  209.2890  154.4140 N   0  0  0  0  0  0  0  0  0  0  0  0
  157.3660  212.1810  152.9380 C   0  0  0  0  0  2  0  0  0  0  0  0
  161.9220  206.4010  150.9330 C   0  0  2  0  0  3  0  0  0  0  0  0
  162.3570  208.2880  157.2610 C   0  0  0  0  0  1  0  0  0  0  0  0
  161.2230  210.8380  150.3270 C   0  0  2  0  0  3  0  0  0  0  0  0
  161.2360  207.1910  155.4070 N   0  0  0  0  0  2  0  0  0  0  0  0
  161.5710  208.4500  149.3620 C   0  0  2  0  0  0  0  0  0  0  0  0
  163.3270  210.2910  148.9890 C   0  0  0  0  0  2  0  0  0  0  0  0
  160.4130  212.8580  149.8150 C   0  0  0  0  0  2  0  0  0  0  0  0
  161.0320  207.3320  153.0480 C   0  0  0  0  0  0  0  0  0  0  0  0
  157.5230  211.4130  154.2460 C   0  0  0  0  0  2  0  0  0  0  0  0
  161.0550  208.1390  156.4990 C   0  0  2  0  0  3  0  0  0  0  0  0
  159.2110  209.7540  156.0920 C   0  0  0  0  0  2  0  0  0  0  0  0
  158.8000  214.3430  150.9590 C   0  0  0  0  0  2  0  0  0  0  0  0
  156.5600  214.1950  153.9790 O   0  0  0  0  0  1  0  0  0  0  0  0
  160.6420  211.5800  149.2880 O   0  0  0  0  0  0  0  0  0  0  0  0
  161.1990  207.9230  154.2020 C   0  0  0  0  0  0  0  0  0  0  0  0
  162.5360  207.6310  150.2440 C   0  0  0  0  0  2  0  0  0  0  0  0
  162.7530  210.9090  150.2690 C   0  0  0  0  0  2  0  0  0  0  0  0
  159.0050  212.9550  150.3750 C   0  0  0  0  0  2  0  0  0  0  0  0
  157.5840  213.6900  153.1630 C   0  0  1  0  0  0  0  0  0  0  0  0
  160.6890  209.4820  155.8420 C   0  0  2  0  0  3  0  0  0  0  0  0
  160.8290  206.7150  151.9140 C   0  0  0  0  0  3  0  0  0  0  0  0
  162.4070  209.2480  148.3470 C   0  0  0  0  0  2  0  0  0  0  0  0
  158.9030  213.3050  155.0380 C   0  0  0  0  0  2  0  0  0  0  0  0
  161.4690  210.3380  153.5820 C   0  0  0  0  0  1  0  0  0  0  0  0
  158.8490  213.9220  153.7670 O   0  0  0  0  0  0  0  0  0  0  0  0
  157.5390  214.4530  151.8230 C   0  0  2  0  0  3  0  0  0  0  0  0
  162.3940  204.1990  152.1100 C   0  0  0  0  0  1  0  0  0  0  0  0
  162.9870  205.4570  151.4950 C   0  0  0  0  0  2  0  0  0  0  0  0
  155.2020  214.0900  151.6150 O   0  0  0  0  0  0  0  0  0  0  0  0
  156.2590  214.3150  151.0440 C   0  0  0  0  0  0  0  0  0  0  0  0
  156.2920  214.4530  149.5560 C   0  0  0  0  0  2  0  0  0  0  0  0
  156.4940  213.0960  148.9090 C   0  0  0  0  0  1  0  0  0  0  0  0
  160.6500  207.5100  148.5710 C   0  0  0  0  0  2  0  0  0  0  0  0
  161.4010  206.3680  147.8900 C   0  0  0  0  0  2  0  0  0  0  0  0
  161.2780  206.4930  146.4460 N   0  0  0  0  0  2  0  0  0  0  0  0
  161.2920  205.5430  144.3320 O   0  0  0  0  0  0  0  0  0  0  0  0
  161.7010  205.4840  145.5210 C   0  0  0  0  0  0  0  0  0  0  0  0
  163.4880  203.9610  145.1320 O   0  0  0  0  0  0  0  0  0  0  0  0
  162.6000  204.3820  145.9200 C   0  0  0  0  0  0  0  0  0  0  0  0
  162.4680  203.7460  147.2700 C   0  0  0  0  0  2  0  0  0  0  0  0
  160.5070  202.7340  146.0480 C   0  0  0  0  0  2  0  0  0  0  0  0
  160.3110  203.3360  148.4040 N   0  0  0  0  0  2  0  0  0  0  0  0
  161.0610  200.4910  146.7330 C   0  0  0  0  0  2  0  0  0  0  0  0
  160.7190  202.7610  149.6760 C   0  0  0  0  0  2  0  0  0  0  0  0
  159.5720  200.8150  144.7740 C   0  0  0  0  0  1  0  0  0  0  0  0
  160.7830  201.3440  145.5160 C   0  0  1  0  0  3  0  0  0  0  0  0
  161.1120  201.0160  149.4080 S   0  0  0  0  0  0  0  0  0  0  0  0
  161.2340  202.8400  147.3840 C   0  0  2  0  0  0  0  0  0  0  0  0
  161.6880  201.4290  147.7430 C   0  0  2  0  0  3  0  0  0  0  0  0
  3 14  1  1  0  0  0
  3 28  1  0  0  0  0
  3  2  1  0  0  0  0
  4 25  1  0  0  0  0
  5 24  1  0  0  0  0
  5 14  1  0  0  0  0
  6 33  1  1  0  0  0
  6 26  1  0  0  0  0
  8  1  1  6  0  0  0
  9 15  1  0  0  0  0
 10 38  1  6  0  0  0
 10 21  1  0  0  0  0
 10  1  1  0  0  0  0
 11 22  1  0  0  0  0
 12 23  1  0  0  0  0
 13 20  2  0  0  0  0
 15  7  1  6  0  0  0
 16  2  1  0  0  0  0
 17 31  1  0  0  0  0
 19 12  1  0  0  0  0
 19  8  1  0  0  0  0
 20  4  1  0  0  0  0
 20  9  1  0  0  0  0
 21  6  1  0  0  0  0
 22  8  1  0  0  0  0
 23 17  1  0  0  0  0
 24 30  1  0  0  0  0
 24 18  1  1  0  0  0
 25 16  1  6  0  0  0
 25 15  1  0  0  0  0
 26 13  2  0  0  0  0
 27 11  1  0  0  0  0
 27 10  1  0  0  0  0
 29  4  1  0  0  0  0
 30 28  1  0  0  0  0
 31 35  1  6  0  0  0
 31 24  1  0  0  0  0
 33 32  1  0  0  0  0
 35 34  2  0  0  0  0
 36 35  1  0  0  0  0
 37 36  1  0  0  0  0
 39 38  1  0  0  0  0
 40 39  1  0  0  0  0
 41 42  2  0  0  0  0
 42 44  1  0  0  0  0
 42 40  1  0  0  0  0
 43 44  2  0  0  0  0
 44 45  1  0  0  0  0
 46 53  1  0  0  0  0
 47 49  1  0  0  0  0
 51 50  1  1  0  0  0
 51 46  1  0  0  0  0
 51 48  1  0  0  0  0
 52 49  1  0  0  0  0
 53 45  1  6  0  0  0
 53 54  1  0  0  0  0
 53 47  1  0  0  0  0
 54 48  1  6  0  0  0
 54 52  1  0  0  0  0
M  END
>  <MODEL>
1

>  <REMARK>
 VINA RESULT:      -1.3      0.000      0.000
  Name = 
  9 active torsions:
  status: ('A' for Active; 'I' for Inactive)
    1  A    between atoms: N_1  and  C_45
    2  A    between atoms: C_2  and  C_18
    3  A    between atoms: C_2  and  C_45
    4  A    between atoms: C_8  and  C_36
    5  A    between atoms: C_13  and  C_50
    6  A    between atoms: C_38  and  C_39
    7  A    between atoms: C_39  and  C_41
    8  A    between atoms: C_41  and  C_48
    9  A    between atoms: C_50  and  C_53
                            x       y       z     vdW  Elec       q    Type
                         _______ _______ _______ _____ _____    ______ ____

>  <TORSDO>
F 9

$$$$
=
 OpenBabel11052410063D

 54 59  0  0  1  0  0  0  0  0999 V2000
  160.8510  208.8700  150.0550 C   0  0  0  0  0  2  0  0  0  0  0  0
  159.1580  211.3090  155.8100 N   0  0  0  0  0  2  0  0  0  0  0  0
  159.1740  211.8260  154.4450 C   0  0  1  0  0  3  0  0  0  0  0  0
  160.8820  209.0430  154.2050 N   0  0  0  0  0  0  0  0  0  0  0  0
  157.8220  212.2770  152.4010 C   0  0  0  0  0  2  0  0  0  0  0  0
  161.5950  205.8060  150.9640 C   0  0  2  0  0  3  0  0  0  0  0  0
  162.0920  208.0570  157.1670 C   0  0  0  0  0  1  0  0  0  0  0  0
  161.5350  210.2430  150.0410 C   0  0  2  0  0  3  0  0  0  0  0  0
  160.8870  206.9950  155.3460 N   0  0  0  0  0  2  0  0  0  0  0  0
  161.5790  207.7680  149.2500 C   0  0  2  0  0  0  0  0  0  0  0  0
  163.5830  209.3230  148.8270 C   0  0  0  0  0  2  0  0  0  0  0  0
  161.0280  212.3130  149.3660 C   0  0  0  0  0  2  0  0  0  0  0  0
  160.7780  206.9960  152.9770 C   0  0  0  0  0  0  0  0  0  0  0  0
  157.8310  211.5900  153.7620 C   0  0  0  0  0  2  0  0  0  0  0  0
  160.8050  208.0330  156.3650 C   0  0  2  0  0  3  0  0  0  0  0  0
  159.2160  209.8510  155.7800 C   0  0  0  0  0  2  0  0  0  0  0  0
  159.6000  214.0800  150.3440 C   0  0  0  0  0  2  0  0  0  0  0  0
  157.2700  214.4500  153.2750 O   0  0  0  0  0  1  0  0  0  0  0  0
  161.0940  210.9820  148.9330 O   0  0  0  0  0  0  0  0  0  0  0  0
  160.9890  207.6380  154.0950 C   0  0  0  0  0  0  0  0  0  0  0  0
  162.3940  206.8900  150.2220 C   0  0  0  0  0  2  0  0  0  0  0  0
  163.0610  210.1020  150.0400 C   0  0  0  0  0  2  0  0  0  0  0  0
  159.6300  212.6390  149.8620 C   0  0  0  0  0  2  0  0  0  0  0  0
  158.2390  213.7550  152.5350 C   0  0  1  0  0  0  0  0  0  0  0  0
  160.6490  209.3640  155.6080 C   0  0  2  0  0  3  0  0  0  0  0  0
  160.5260  206.3340  151.8780 C   0  0  0  0  0  3  0  0  0  0  0  0
  162.5480  208.3710  148.2190 C   0  0  0  0  0  2  0  0  0  0  0  0
  159.4340  213.3270  154.4830 C   0  0  0  0  0  2  0  0  0  0  0  0
  161.6090  209.9450  153.3290 C   0  0  0  0  0  1  0  0  0  0  0  0
  159.5050  213.8550  153.1740 O   0  0  0  0  0  0  0  0  0  0  0  0
  158.3410  214.4210  151.1480 C   0  0  2  0  0  3  0  0  0  0  0  0
  161.7410  203.5390  152.1040 C   0  0  0  0  0  1  0  0  0  0  0  0
  162.5020  204.7680  151.6290 C   0  0  0  0  0  2  0  0  0  0  0  0
  155.9830  214.4160  150.8700 O   0  0  0  0  0  0  0  0  0  0  0  0
  157.0790  214.4030  150.3290 C   0  0  0  0  0  0  0  0  0  0  0  0
  157.1770  214.3680  148.8380 C   0  0  0  0  0  2  0  0  0  0  0  0
  155.7900  214.3520  148.2230 C   0  0  0  0  0  1  0  0  0  0  0  0
  160.5620  206.9080  148.4860 C   0  0  0  0  0  2  0  0  0  0  0  0
  161.1970  205.7110  147.7830 C   0  0  0  0  0  2  0  0  0  0  0  0
  161.6070  206.0920  146.4400 N   0  0  0  0  0  2  0  0  0  0  0  0
  161.5000  205.8070  144.1430 O   0  0  0  0  0  0  0  0  0  0  0  0
  161.3860  205.2800  145.2790 C   0  0  0  0  0  0  0  0  0  0  0  0
  160.0880  203.3730  144.6920 O   0  0  0  0  0  0  0  0  0  0  0  0
  161.0300  203.8500  145.3790 C   0  0  0  0  0  0  0  0  0  0  0  0
  161.7870  202.9420  146.3010 C   0  0  0  0  0  2  0  0  0  0  0  0
  160.5620  200.8450  145.6190 C   0  0  0  0  0  2  0  0  0  0  0  0
  159.7390  202.2030  147.4710 N   0  0  0  0  0  2  0  0  0  0  0  0
  161.7290  199.4770  147.2250 C   0  0  0  0  0  2  0  0  0  0  0  0
  160.0820  202.3940  148.8710 C   0  0  0  0  0  2  0  0  0  0  0  0
  160.6070  198.3790  145.3020 C   0  0  0  0  0  1  0  0  0  0  0  0
  161.3990  199.5900  145.7540 C   0  0  1  0  0  3  0  0  0  0  0  0
  161.1010  200.9960  149.4000 S   0  0  0  0  0  0  0  0  0  0  0  0
  160.9480  201.7510  146.7840 C   0  0  2  0  0  0  0  0  0  0  0  0
  161.7930  200.9040  147.7300 C   0  0  2  0  0  3  0  0  0  0  0  0
  3 14  1  1  0  0  0
  3 28  1  0  0  0  0
  3  2  1  0  0  0  0
  4 25  1  0  0  0  0
  5 24  1  0  0  0  0
  5 14  1  0  0  0  0
  6 33  1  1  0  0  0
  6 26  1  0  0  0  0
  8 22  1  6  0  0  0
  8  1  1  0  0  0  0
  9 15  1  0  0  0  0
 10 38  1  6  0  0  0
 10  1  1  0  0  0  0
 10 21  1  0  0  0  0
 11 22  1  0  0  0  0
 12 23  1  0  0  0  0
 13 20  2  0  0  0  0
 15  7  1  6  0  0  0
 16  2  1  0  0  0  0
 17 31  1  0  0  0  0
 19 12  1  0  0  0  0
 19  8  1  0  0  0  0
 20  4  1  0  0  0  0
 20  9  1  0  0  0  0
 21  6  1  0  0  0  0
 23 17  1  0  0  0  0
 24 30  1  0  0  0  0
 24 18  1  1  0  0  0
 25 16  1  6  0  0  0
 25 15  1  0  0  0  0
 26 13  2  0  0  0  0
 27 11  1  0  0  0  0
 27 10  1  0  0  0  0
 29  4  1  0  0  0  0
 30 28  1  0  0  0  0
 31 35  1  6  0  0  0
 31 24  1  0  0  0  0
 33 32  1  0  0  0  0
 35 34  2  0  0  0  0
 36 35  1  0  0  0  0
 37 36  1  0  0  0  0
 39 38  1  0  0  0  0
 40 39  1  0  0  0  0
 41 42  2  0  0  0  0
 42 44  1  0  0  0  0
 42 40  1  0  0  0  0
 43 44  2  0  0  0  0
 44 45  1  0  0  0  0
 46 51  1  0  0  0  0
 46 53  1  0  0  0  0
 47 49  1  0  0  0  0
 49 52  1  0  0  0  0
 51 50  1  1  0  0  0
 51 48  1  0  0  0  0
 53 45  1  6  0  0  0
 53 47  1  0  0  0  0
 53 54  1  0  0  0  0
 54 48  1  6  0  0  0
 54 52  1  0  0  0  0
M  END
>  <MODEL>
2

>  <REMARK>
 VINA RESULT:      -1.2      0.956      1.089
  Name = 
  9 active torsions:
  status: ('A' for Active; 'I' for Inactive)
    1  A    between atoms: N_1  and  C_45
    2  A    between atoms: C_2  and  C_18
    3  A    between atoms: C_2  and  C_45
    4  A    between atoms: C_8  and  C_36
    5  A    between atoms: C_13  and  C_50
    6  A    between atoms: C_38  and  C_39
    7  A    between atoms: C_39  and  C_41
    8  A    between atoms: C_41  and  C_48
    9  A    between atoms: C_50  and  C_53
                            x       y       z     vdW  Elec       q    Type
                         _______ _______ _______ _____ _____    ______ ____

>  <TORSDO>
F 9

$$$$
=
 OpenBabel11052410063D

 54 59  0  0  1  0  0  0  0  0999 V2000
  160.8580  208.0810  151.2750 C   0  0  0  0  0  2  0  0  0  0  0  0
  158.9880  214.0770  152.8520 N   0  0  0  0  0  2  0  0  0  0  0  0
  159.3660  213.4180  151.6060 C   0  0  1  0  0  3  0  0  0  0  0  0
  160.2610  211.2520  153.8910 N   0  0  0  0  0  0  0  0  0  0  0  0
  158.5390  212.3090  149.5330 C   0  0  0  0  0  2  0  0  0  0  0  0
  160.5770  206.6380  154.2090 C   0  0  2  0  0  3  0  0  0  0  0  0
  160.6580  212.6880  156.8900 C   0  0  0  0  0  1  0  0  0  0  0  0
  161.8850  208.9480  150.5350 C   0  0  2  0  0  3  0  0  0  0  0  0
  159.5210  210.7140  156.0490 N   0  0  0  0  0  2  0  0  0  0  0  0
  161.3770  206.6970  151.7300 C   0  0  2  0  0  0  0  0  0  0  0  0
  163.7710  207.2940  151.0070 C   0  0  0  0  0  2  0  0  0  0  0  0
  162.0810  209.8780  148.5120 C   0  0  0  0  0  2  0  0  0  0  0  0
  159.8010  208.9770  154.4590 C   0  0  0  0  0  0  0  0  0  0  0  0
  158.1390  212.8490  150.9020 C   0  0  0  0  0  2  0  0  0  0  0  0
  159.5620  212.1690  155.9800 C   0  0  2  0  0  3  0  0  0  0  0  0
  158.6480  213.0700  153.8520 C   0  0  0  0  0  2  0  0  0  0  0  0
  161.0530  211.8850  147.4970 C   0  0  0  0  0  2  0  0  0  0  0  0
  158.4700  214.4530  148.4420 O   0  0  0  0  0  1  0  0  0  0  0  0
  161.8490  208.6600  149.1630 O   0  0  0  0  0  0  0  0  0  0  0  0
  159.9960  210.2190  154.8170 C   0  0  0  0  0  0  0  0  0  0  0  0
  161.7510  206.7660  153.2250 C   0  0  0  0  0  2  0  0  0  0  0  0
  163.2930  208.7480  151.1060 C   0  0  0  0  0  2  0  0  0  0  0  0
  160.7650  210.5590  148.1790 C   0  0  0  0  0  2  0  0  0  0  0  0
  159.3180  213.3740  148.7350 C   0  0  1  0  0  0  0  0  0  0  0  0
  159.9010  212.5170  154.5190 C   0  0  2  0  0  3  0  0  0  0  0  0
  159.5600  207.7400  154.1140 C   0  0  0  0  0  3  0  0  0  0  0  0
  162.6280  206.2770  150.9400 C   0  0  0  0  0  2  0  0  0  0  0  0
  160.0170  214.4390  150.6790 C   0  0  0  0  0  2  0  0  0  0  0  0
  161.3410  211.1640  152.9220 C   0  0  0  0  0  1  0  0  0  0  0  0
  160.4420  213.8250  149.4790 O   0  0  0  0  0  0  0  0  0  0  0  0
  159.8220  212.7930  147.3980 C   0  0  2  0  0  3  0  0  0  0  0  0
  160.0720  206.8920  156.6870 C   0  0  0  0  0  1  0  0  0  0  0  0
  161.0440  206.3680  155.6400 C   0  0  0  0  0  2  0  0  0  0  0  0
  157.6140  212.0880  146.8850 O   0  0  0  0  0  0  0  0  0  0  0  0
  158.7530  212.2650  146.4800 C   0  0  0  0  0  0  0  0  0  0  0  0
  159.1000  211.9530  145.0600 C   0  0  0  0  0  2  0  0  0  0  0  0
  159.2740  213.2360  144.2700 C   0  0  0  0  0  1  0  0  0  0  0  0
  160.3010  205.6250  151.5030 C   0  0  0  0  0  2  0  0  0  0  0  0
  160.8760  204.2180  151.3650 C   0  0  0  0  0  2  0  0  0  0  0  0
  159.8580  203.3210  150.8390 N   0  0  0  0  0  2  0  0  0  0  0  0
  159.2500  201.5160  149.5200 O   0  0  0  0  0  0  0  0  0  0  0  0
  160.0650  202.4540  149.7170 C   0  0  0  0  0  0  0  0  0  0  0  0
  162.1110  201.7620  148.7160 O   0  0  0  0  0  0  0  0  0  0  0  0
  161.2000  202.6290  148.7880 C   0  0  0  0  0  0  0  0  0  0  0  0
  161.2870  203.8450  147.9160 C   0  0  0  0  0  2  0  0  0  0  0  0
  161.2500  202.0190  146.1760 C   0  0  0  0  0  2  0  0  0  0  0  0
  162.8450  203.8550  145.9980 N   0  0  0  0  0  2  0  0  0  0  0  0
  159.7720  203.2470  144.7210 C   0  0  0  0  0  2  0  0  0  0  0  0
  162.8110  205.2430  145.5630 C   0  0  0  0  0  2  0  0  0  0  0  0
  159.9780  200.7910  144.4270 C   0  0  0  0  0  1  0  0  0  0  0  0
  159.9330  201.9240  145.4340 C   0  0  1  0  0  3  0  0  0  0  0  0
  161.3160  205.4900  144.5760 S   0  0  0  0  0  0  0  0  0  0  0  0
  161.4950  203.5020  146.4340 C   0  0  2  0  0  0  0  0  0  0  0  0
  160.4680  204.2630  145.6020 C   0  0  2  0  0  3  0  0  0  0  0  0
  1 10  1  0  0  0  0
  2 16  1  0  0  0  0
  3 28  1  6  0  0  0
  3  2  1  0  0  0  0
  4 25  1  0  0  0  0
  4 20  1  0  0  0  0
  5 14  1  0  0  0  0
  6 33  1  1  0  0  0
  8 22  1  1  0  0  0
  8  1  1  0  0  0  0
 10 38  1  6  0  0  0
 10 21  1  0  0  0  0
 11 22  1  0  0  0  0
 12 19  1  0  0  0  0
 13 20  2  0  0  0  0
 14  3  1  0  0  0  0
 15  9  1  0  0  0  0
 15  7  1  1  0  0  0
 17 23  1  0  0  0  0
 19  8  1  0  0  0  0
 20  9  1  0  0  0  0
 21  6  1  0  0  0  0
 23 12  1  0  0  0  0
 24 18  1  6  0  0  0
 24 30  1  0  0  0  0
 24  5  1  0  0  0  0
 25 16  1  6  0  0  0
 25 15  1  0  0  0  0
 26  6  1  0  0  0  0
 26 13  2  0  0  0  0
 27 11  1  0  0  0  0
 27 10  1  0  0  0  0
 29  4  1  0  0  0  0
 30 28  1  0  0  0  0
 31 35  1  1  0  0  0
 31 17  1  0  0  0  0
 31 24  1  0  0  0  0
 33 32  1  0  0  0  0
 35 34  2  0  0  0  0
 36 35  1  0  0  0  0
 37 36  1  0  0  0  0
 39 38  1  0  0  0  0
 40 39  1  0  0  0  0
 41 42  2  0  0  0  0
 42 40  1  0  0  0  0
 43 44  2  0  0  0  0
 44 42  1  0  0  0  0
 45 44  1  0  0  0  0
 46 53  1  0  0  0  0
 47 53  1  0  0  0  0
 48 51  1  0  0  0  0
 49 47  1  0  0  0  0
 51 50  1  6  0  0  0
 51 46  1  0  0  0  0
 52 49  1  0  0  0  0
 52 54  1  0  0  0  0
 53 45  1  1  0  0  0
 54 48  1  6  0  0  0
 54 53  1  0  0  0  0
M  END
>  <MODEL>
3

>  <REMARK>
 VINA RESULT:       0.7      2.501      4.084
  Name = 
  9 active torsions:
  status: ('A' for Active; 'I' for Inactive)
    1  A    between atoms: N_1  and  C_45
    2  A    between atoms: C_2  and  C_18
    3  A    between atoms: C_2  and  C_45
    4  A    between atoms: C_8  and  C_36
    5  A    between atoms: C_13  and  C_50
    6  A    between atoms: C_38  and  C_39
    7  A    between atoms: C_39  and  C_41
    8  A    between atoms: C_41  and  C_48
    9  A    between atoms: C_50  and  C_53
                            x       y       z     vdW  Elec       q    Type
                         _______ _______ _______ _____ _____    ______ ____

>  <TORSDO>
F 9

$$$$
