=
 OpenBabel11042421503D

 42 46  0  0  1  0  0  0  0  0999 V2000
  162.3030  208.4870  150.7410 C   0  0  0  0  0  3  0  0  0  0  0  0
  160.6210  210.0050  152.4580 C   0  0  0  0  0  0  0  0  0  0  0  0
  161.8570  207.7990  151.9960 C   0  0  1  0  0  3  0  0  0  0  0  0
  159.5240  210.4470  156.8590 C   0  0  0  0  0  3  0  0  0  0  0  0
  159.3840  210.9400  154.4930 C   0  0  0  0  0  0  0  0  0  0  0  0
  158.1230  212.2080  156.1310 C   0  0  0  0  0  0  0  0  0  0  0  0
  159.7000  210.8710  153.1980 C   0  0  0  0  0  3  0  0  0  0  0  0
  160.7130  209.0880  155.4340 C   0  0  0  0  0  3  0  0  0  0  0  0
  161.2690  208.4120  154.2600 C   0  0  0  0  0  3  0  0  0  0  0  0
  161.2240  208.7590  152.9790 C   0  0  0  0  0  0  0  0  0  0  0  0
  161.8050  209.6700  150.3800 C   0  0  0  0  0  0  0  0  0  0  0  0
  158.6550  211.4560  157.1250 N   0  0  0  0  0  0  0  0  0  0  0  0
  158.4830  211.9640  154.8090 C   0  0  0  0  0  2  0  0  0  0  0  0
  159.9080  210.1450  155.5460 C   0  0  0  0  0  0  0  0  0  0  0  0
  160.9090  210.3810  151.2450 N   0  0  0  0  0  2  0  0  0  0  0  0
  157.2050  213.2670  156.4430 C   0  0  0  0  0  0  0  0  0  0  0  0
  156.4650  214.1210  156.6920 N   0  0  0  0  0  0  0  0  0  0  0  0
  160.8910  206.6770  151.6170 C   0  0  0  0  0  2  0  0  0  0  0  0
  161.4580  205.3020  151.9390 C   0  0  0  0  0  2  0  0  0  0  0  0
  161.3120  204.4200  150.7950 N   0  0  0  0  0  2  0  0  0  0  0  0
  161.0670  204.9550  149.5290 N   0  0  0  0  0  0  0  0  0  0  0  0
  163.5000  204.4450  146.0110 C   0  0  0  0  0  1  0  0  0  0  0  0
  160.4380  206.2270  145.4170 C   0  0  1  0  0  3  0  0  0  0  0  0
  161.5330  203.1020  145.8280 O   0  0  0  0  0  1  0  0  0  0  0  0
  160.5350  206.1100  146.9290 C   0  0  0  0  0  2  0  0  0  0  0  0
  161.6600  204.4610  148.4920 C   0  0  0  0  0  3  0  0  0  0  0  0
  161.4730  205.2700  144.8330 C   0  0  0  0  0  2  0  0  0  0  0  0
  161.4270  204.9970  147.1850 N   0  0  0  0  0  0  0  0  0  0  0  0
  159.1640  205.8390  145.0070 O   0  0  0  0  0  1  0  0  0  0  0  0
  161.9830  204.4150  145.9800 C   0  0  2  0  0  0  0  0  0  0  0  0
  162.2410  210.2810  149.0940 C   0  0  0  0  0  2  0  0  0  0  0  0
  161.9310  211.7680  149.0870 C   0  0  0  0  0  2  0  0  0  0  0  0
  161.6390  212.2390  147.6720 C   0  0  2  0  0  3  0  0  0  0  0  0
  162.5590  213.2170  147.2920 O   0  0  0  0  0  1  0  0  0  0  0  0
  160.0390  211.8420  145.4120 O   0  0  0  0  0  0  0  0  0  0  0  0
  160.3790  213.8520  150.0910 Cl  0  0  0  0  0  0  0  0  0  0  0  0
  160.2280  212.7560  147.5350 C   0  0  2  0  0  3  0  0  0  0  0  0
  159.5900  213.4870  148.5630 C   0  0  0  0  0  0  0  0  0  0  0  0
  158.2840  213.9410  148.3800 C   0  0  0  0  0  3  0  0  0  0  0  0
  158.2410  212.9610  146.2070 N   0  0  0  0  0  0  0  0  0  0  0  0
  159.5120  212.5000  146.3500 C   0  0  0  0  0  0  0  0  0  0  0  0
  157.6200  213.6690  147.1850 C   0  0  0  0  0  3  0  0  0  0  0  0
  1  3  1  0  0  0  0
  2 10  2  0  0  0  0
  2  7  1  0  0  0  0
  3 18  1  6  0  0  0
  3 10  1  0  0  0  0
  4 12  1  0  0  0  0
  5 13  1  0  0  0  0
  5 14  1  0  0  0  0
  6 16  1  0  0  0  0
  6 12  2  0  0  0  0
  7  5  2  0  0  0  0
  8 14  1  0  0  0  0
  9  8  2  0  0  0  0
 10  9  1  0  0  0  0
 11  1  2  0  0  0  0
 11 15  1  0  0  0  0
 13  6  1  0  0  0  0
 14  4  2  0  0  0  0
 15  2  1  0  0  0  0
 16 17  3  0  0  0  0
 18 19  1  0  0  0  0
 20 19  1  0  0  0  0
 21 20  1  0  0  0  0
 23 29  1  6  0  0  0
 23 25  1  0  0  0  0
 24 30  1  0  0  0  0
 25 28  1  0  0  0  0
 26 21  2  0  0  0  0
 27 23  1  0  0  0  0
 27 30  1  0  0  0  0
 28 26  1  0  0  0  0
 30 22  1  1  0  0  0
 30 28  1  0  0  0  0
 31 11  1  0  0  0  0
 32 31  1  0  0  0  0
 33 34  1  1  0  0  0
 33 32  1  0  0  0  0
 35 41  2  0  0  0  0
 37 33  1  1  0  0  0
 37 38  1  0  0  0  0
 38 36  1  0  0  0  0
 39 38  2  0  0  0  0
 40 41  1  0  0  0  0
 40 42  2  0  0  0  0
 41 37  1  0  0  0  0
 42 39  1  0  0  0  0
M  END
>  <MODEL>
1

>  <REMARK>
 VINA RESULT:      -8.0      0.000      0.000
  Name = 
  9 active torsions:
  status: ('A' for Active; 'I' for Inactive)
    1  A    between atoms: N_5  and  N_10
    2  A    between atoms: C_6  and  C_20
    3  A    between atoms: C_7  and  N_10
    4  A    between atoms: C_7  and  C_13
    5  A    between atoms: C_8  and  C_13
    6  A    between atoms: C_11  and  C_26
    7  A    between atoms: C_15  and  C_30
    8  A    between atoms: C_15  and  C_36
    9  A    between atoms: C_26  and  C_36
                            x       y       z     vdW  Elec       q    Type
                         _______ _______ _______ _____ _____    ______ ____

>  <TORSDO>
F 9

$$$$
=
 OpenBabel11042421503D

 42 46  0  0  1  0  0  0  0  0999 V2000
  162.3900  209.7230  150.6940 C   0  0  0  0  0  3  0  0  0  0  0  0
  160.3340  210.8490  152.3010 C   0  0  0  0  0  0  0  0  0  0  0  0
  161.9520  208.9000  151.8690 C   0  0  1  0  0  3  0  0  0  0  0  0
  158.7870  210.8510  156.5890 C   0  0  0  0  0  3  0  0  0  0  0  0
  158.7820  211.4540  154.2440 C   0  0  0  0  0  0  0  0  0  0  0  0
  157.1880  212.4060  155.8040 C   0  0  0  0  0  0  0  0  0  0  0  0
  159.2210  211.5130  152.9850 C   0  0  0  0  0  3  0  0  0  0  0  0
  160.3070  209.7850  155.2290 C   0  0  0  0  0  3  0  0  0  0  0  0
  161.0700  209.2760  154.0880 C   0  0  0  0  0  3  0  0  0  0  0  0
  161.0840  209.6860  152.8250 C   0  0  0  0  0  0  0  0  0  0  0  0
  161.7400  210.8300  150.3380 C   0  0  0  0  0  0  0  0  0  0  0  0
  157.7440  211.6910  156.8120 N   0  0  0  0  0  0  0  0  0  0  0  0
  157.7010  212.3010  154.5140 C   0  0  0  0  0  2  0  0  0  0  0  0
  159.3320  210.6920  155.3080 C   0  0  0  0  0  0  0  0  0  0  0  0
  160.6650  211.3370  151.1410 N   0  0  0  0  0  2  0  0  0  0  0  0
  156.0840  213.2850  156.0700 C   0  0  0  0  0  0  0  0  0  0  0  0
  155.1920  213.9920  156.2820 N   0  0  0  0  0  0  0  0  0  0  0  0
  161.2210  207.6620  151.3470 C   0  0  0  0  0  2  0  0  0  0  0  0
  161.5880  207.3490  149.9030 C   0  0  0  0  0  2  0  0  0  0  0  0
  160.5200  206.6000  149.2670 N   0  0  0  0  0  2  0  0  0  0  0  0
  160.8060  205.4060  148.6010 N   0  0  0  0  0  0  0  0  0  0  0  0
  161.4110  201.5410  150.4030 C   0  0  0  0  0  1  0  0  0  0  0  0
  161.4120  201.4880  146.8120 C   0  0  1  0  0  3  0  0  0  0  0  0
  159.2640  201.6120  149.3600 O   0  0  0  0  0  1  0  0  0  0  0  0
  161.4270  202.9620  147.1800 C   0  0  0  0  0  2  0  0  0  0  0  0
  160.6240  204.2730  149.1970 C   0  0  0  0  0  3  0  0  0  0  0  0
  161.0700  200.7180  148.0830 C   0  0  0  0  0  2  0  0  0  0  0  0
  160.9150  203.0380  148.5340 N   0  0  0  0  0  0  0  0  0  0  0  0
  160.4260  201.2640  145.8530 O   0  0  0  0  0  1  0  0  0  0  0  0
  160.6320  201.7410  149.1160 C   0  0  2  0  0  0  0  0  0  0  0  0
  162.1840  211.5770  149.1290 C   0  0  0  0  0  2  0  0  0  0  0  0
  161.3790  212.8570  148.9780 C   0  0  0  0  0  2  0  0  0  0  0  0
  161.1540  213.1680  147.5070 C   0  0  2  0  0  3  0  0  0  0  0  0
  161.6090  214.4530  147.2130 O   0  0  0  0  0  1  0  0  0  0  0  0
  160.2880  212.1840  145.0370 O   0  0  0  0  0  0  0  0  0  0  0  0
  158.9350  213.9830  149.6170 Cl  0  0  0  0  0  0  0  0  0  0  0  0
  159.7030  213.0170  147.1200 C   0  0  2  0  0  3  0  0  0  0  0  0
  158.6490  213.3590  147.9990 C   0  0  0  0  0  0  0  0  0  0  0  0
  157.3270  213.1990  147.5860 C   0  0  0  0  0  3  0  0  0  0  0  0
  158.0770  212.3720  145.4790 N   0  0  0  0  0  0  0  0  0  0  0  0
  159.3790  212.5120  145.8470 C   0  0  0  0  0  0  0  0  0  0  0  0
  157.0570  212.7030  146.3120 C   0  0  0  0  0  3  0  0  0  0  0  0
  1  3  1  0  0  0  0
  2 10  2  0  0  0  0
  2  7  1  0  0  0  0
  3 18  1  6  0  0  0
  3 10  1  0  0  0  0
  4 12  1  0  0  0  0
  5 13  1  0  0  0  0
  5 14  1  0  0  0  0
  6 16  1  0  0  0  0
  6 12  2  0  0  0  0
  7  5  2  0  0  0  0
  8 14  1  0  0  0  0
  9  8  2  0  0  0  0
 10  9  1  0  0  0  0
 11  1  2  0  0  0  0
 11 15  1  0  0  0  0
 13  6  1  0  0  0  0
 14  4  2  0  0  0  0
 15  2  1  0  0  0  0
 16 17  3  0  0  0  0
 19 18  1  0  0  0  0
 20 19  1  0  0  0  0
 21 26  2  0  0  0  0
 21 20  1  0  0  0  0
 23 29  1  6  0  0  0
 23 25  1  0  0  0  0
 23 27  1  0  0  0  0
 25 28  1  0  0  0  0
 27 30  1  0  0  0  0
 28 30  1  0  0  0  0
 28 26  1  0  0  0  0
 30 24  1  0  0  0  0
 30 22  1  1  0  0  0
 31 11  1  0  0  0  0
 32 31  1  0  0  0  0
 33 34  1  1  0  0  0
 33 32  1  0  0  0  0
 35 41  2  0  0  0  0
 37 33  1  1  0  0  0
 37 38  1  0  0  0  0
 38 36  1  0  0  0  0
 39 38  2  0  0  0  0
 40 41  1  0  0  0  0
 40 42  2  0  0  0  0
 41 37  1  0  0  0  0
 42 39  1  0  0  0  0
M  END
>  <MODEL>
2

>  <REMARK>
 VINA RESULT:      -7.6      1.683      2.294
  Name = 
  9 active torsions:
  status: ('A' for Active; 'I' for Inactive)
    1  A    between atoms: N_5  and  N_10
    2  A    between atoms: C_6  and  C_20
    3  A    between atoms: C_7  and  N_10
    4  A    between atoms: C_7  and  C_13
    5  A    between atoms: C_8  and  C_13
    6  A    between atoms: C_11  and  C_26
    7  A    between atoms: C_15  and  C_30
    8  A    between atoms: C_15  and  C_36
    9  A    between atoms: C_26  and  C_36
                            x       y       z     vdW  Elec       q    Type
                         _______ _______ _______ _____ _____    ______ ____

>  <TORSDO>
F 9

$$$$
=
 OpenBabel11042421503D

 42 46  0  0  1  0  0  0  0  0999 V2000
  162.3970  208.7760  150.7060 C   0  0  0  0  0  3  0  0  0  0  0  0
  160.5210  210.1830  152.3130 C   0  0  0  0  0  0  0  0  0  0  0  0
  161.9710  208.0880  151.9690 C   0  0  1  0  0  3  0  0  0  0  0  0
  159.2280  210.6570  156.6580 C   0  0  0  0  0  3  0  0  0  0  0  0
  159.1300  211.0610  154.2720 C   0  0  0  0  0  0  0  0  0  0  0  0
  157.6990  212.2570  155.8230 C   0  0  0  0  0  0  0  0  0  0  0  0
  159.4990  210.9820  152.9930 C   0  0  0  0  0  3  0  0  0  0  0  0
  160.5890  209.3710  155.3200 C   0  0  0  0  0  3  0  0  0  0  0  0
  161.2470  208.7140  154.1900 C   0  0  0  0  0  3  0  0  0  0  0  0
  161.2170  209.0150  152.8970 C   0  0  0  0  0  0  0  0  0  0  0  0
  161.8060  209.8950  150.2890 C   0  0  0  0  0  0  0  0  0  0  0  0
  158.2610  211.5890  156.8600 N   0  0  0  0  0  0  0  0  0  0  0  0
  158.1280  212.0060  154.5240 C   0  0  0  0  0  2  0  0  0  0  0  0
  159.6860  210.3520  155.3700 C   0  0  0  0  0  0  0  0  0  0  0  0
  160.8170  210.5460  151.0990 N   0  0  0  0  0  2  0  0  0  0  0  0
  156.6770  213.2350  156.0680 C   0  0  0  0  0  0  0  0  0  0  0  0
  155.8530  214.0230  156.2690 N   0  0  0  0  0  0  0  0  0  0  0  0
  161.1260  206.8700  151.5960 C   0  0  0  0  0  2  0  0  0  0  0  0
  161.8740  205.5640  151.8270 C   0  0  0  0  0  2  0  0  0  0  0  0
  160.9500  204.4460  151.7970 N   0  0  0  0  0  2  0  0  0  0  0  0
  160.7970  203.6980  150.6270 N   0  0  0  0  0  0  0  0  0  0  0  0
  160.9340  205.1910  146.5890 C   0  0  0  0  0  1  0  0  0  0  0  0
  160.6530  201.6170  146.8110 C   0  0  1  0  0  3  0  0  0  0  0  0
  162.9550  204.0160  147.0790 O   0  0  0  0  0  1  0  0  0  0  0  0
  160.4430  202.1140  148.2310 C   0  0  0  0  0  2  0  0  0  0  0  0
  161.1960  204.1790  149.4960 C   0  0  0  0  0  3  0  0  0  0  0  0
  161.2090  202.7900  146.0100 C   0  0  0  0  0  2  0  0  0  0  0  0
  161.0450  203.4310  148.2840 N   0  0  0  0  0  0  0  0  0  0  0  0
  161.5820  200.5780  146.8200 O   0  0  0  0  0  1  0  0  0  0  0  0
  161.5680  203.8770  147.0080 C   0  0  2  0  0  0  0  0  0  0  0  0
  162.2300  210.5030  148.9980 C   0  0  0  0  0  2  0  0  0  0  0  0
  161.9530  211.9970  149.0050 C   0  0  0  0  0  2  0  0  0  0  0  0
  161.6290  212.4800  147.6000 C   0  0  2  0  0  3  0  0  0  0  0  0
  162.3690  213.6230  147.3030 O   0  0  0  0  0  1  0  0  0  0  0  0
  160.1840  211.8310  145.2950 O   0  0  0  0  0  0  0  0  0  0  0  0
  160.0420  213.8230  149.9910 Cl  0  0  0  0  0  0  0  0  0  0  0  0
  160.1530  212.7430  147.4270 C   0  0  2  0  0  3  0  0  0  0  0  0
  159.3690  213.3410  148.4400 C   0  0  0  0  0  0  0  0  0  0  0  0
  158.0100  213.5610  148.2230 C   0  0  0  0  0  3  0  0  0  0  0  0
  158.1970  212.6090  146.0440 N   0  0  0  0  0  0  0  0  0  0  0  0
  159.5250  212.3770  146.2210 C   0  0  0  0  0  0  0  0  0  0  0  0
  157.4360  213.1890  147.0080 C   0  0  0  0  0  3  0  0  0  0  0  0
  1  3  1  0  0  0  0
  2 10  2  0  0  0  0
  2  7  1  0  0  0  0
  3 18  1  6  0  0  0
  3 10  1  0  0  0  0
  4 12  1  0  0  0  0
  5 13  1  0  0  0  0
  5 14  1  0  0  0  0
  6 16  1  0  0  0  0
  6 12  2  0  0  0  0
  7  5  2  0  0  0  0
  8 14  1  0  0  0  0
  9  8  2  0  0  0  0
 10  9  1  0  0  0  0
 11  1  2  0  0  0  0
 11 15  1  0  0  0  0
 13  6  1  0  0  0  0
 14  4  2  0  0  0  0
 15  2  1  0  0  0  0
 16 17  3  0  0  0  0
 18 19  1  0  0  0  0
 20 19  1  0  0  0  0
 21 20  1  0  0  0  0
 23 29  1  1  0  0  0
 23 25  1  0  0  0  0
 25 28  1  0  0  0  0
 26 21  2  0  0  0  0
 27 23  1  0  0  0  0
 27 30  1  0  0  0  0
 28 26  1  0  0  0  0
 30 22  1  6  0  0  0
 30 24  1  0  0  0  0
 30 28  1  0  0  0  0
 31 32  1  0  0  0  0
 31 11  1  0  0  0  0
 33 34  1  1  0  0  0
 33 32  1  0  0  0  0
 35 41  2  0  0  0  0
 37 33  1  1  0  0  0
 37 38  1  0  0  0  0
 38 36  1  0  0  0  0
 39 38  2  0  0  0  0
 40 41  1  0  0  0  0
 40 42  2  0  0  0  0
 41 37  1  0  0  0  0
 42 39  1  0  0  0  0
M  END
>  <MODEL>
3

>  <REMARK>
 VINA RESULT:      -7.5      1.129      1.636
  Name = 
  9 active torsions:
  status: ('A' for Active; 'I' for Inactive)
    1  A    between atoms: N_5  and  N_10
    2  A    between atoms: C_6  and  C_20
    3  A    between atoms: C_7  and  N_10
    4  A    between atoms: C_7  and  C_13
    5  A    between atoms: C_8  and  C_13
    6  A    between atoms: C_11  and  C_26
    7  A    between atoms: C_15  and  C_30
    8  A    between atoms: C_15  and  C_36
    9  A    between atoms: C_26  and  C_36
                            x       y       z     vdW  Elec       q    Type
                         _______ _______ _______ _____ _____    ______ ____

>  <TORSDO>
F 9

$$$$
=
 OpenBabel11042421503D

 42 46  0  0  1  0  0  0  0  0999 V2000
  162.3450  208.5160  150.8710 C   0  0  0  0  0  3  0  0  0  0  0  0
  160.5610  210.0390  152.4750 C   0  0  0  0  0  0  0  0  0  0  0  0
  161.9120  207.8760  152.1550 C   0  0  1  0  0  3  0  0  0  0  0  0
  159.3640  210.6650  156.8280 C   0  0  0  0  0  3  0  0  0  0  0  0
  159.2430  211.0210  154.4360 C   0  0  0  0  0  0  0  0  0  0  0  0
  157.8930  212.3120  155.9830 C   0  0  0  0  0  0  0  0  0  0  0  0
  159.5860  210.8970  153.1530 C   0  0  0  0  0  3  0  0  0  0  0  0
  160.6440  209.2910  155.4980 C   0  0  0  0  0  3  0  0  0  0  0  0
  161.2530  208.5810  154.3720 C   0  0  0  0  0  3  0  0  0  0  0  0
  161.2150  208.8550  153.0740 C   0  0  0  0  0  0  0  0  0  0  0  0
  161.7980  209.6510  150.4380 C   0  0  0  0  0  0  0  0  0  0  0  0
  158.4430  211.6430  157.0250 N   0  0  0  0  0  0  0  0  0  0  0  0
  158.2880  212.0150  154.6820 C   0  0  0  0  0  2  0  0  0  0  0  0
  159.7860  210.3110  155.5400 C   0  0  0  0  0  0  0  0  0  0  0  0
  160.8520  210.3620  151.2480 N   0  0  0  0  0  2  0  0  0  0  0  0
  156.9190  213.3390  156.2220 C   0  0  0  0  0  0  0  0  0  0  0  0
  156.1310  214.1660  156.4130 N   0  0  0  0  0  0  0  0  0  0  0  0
  161.0080  206.6880  151.8230 C   0  0  0  0  0  2  0  0  0  0  0  0
  161.2990  205.4840  152.7080 C   0  0  0  0  0  2  0  0  0  0  0  0
  161.0120  204.2550  151.9910 N   0  0  0  0  0  2  0  0  0  0  0  0
  161.2410  204.1810  150.6150 N   0  0  0  0  0  0  0  0  0  0  0  0
  161.4340  200.5970  148.2340 C   0  0  0  0  0  1  0  0  0  0  0  0
  161.6360  203.6290  146.3190 C   0  0  1  0  0  3  0  0  0  0  0  0
  159.3620  201.7150  147.8330 O   0  0  0  0  0  1  0  0  0  0  0  0
  161.7470  204.0740  147.7670 C   0  0  0  0  0  2  0  0  0  0  0  0
  160.9370  203.1050  149.9660 C   0  0  0  0  0  3  0  0  0  0  0  0
  161.1620  202.1790  146.3370 C   0  0  0  0  0  2  0  0  0  0  0  0
  161.1660  203.0060  148.5570 N   0  0  0  0  0  0  0  0  0  0  0  0
  160.6920  204.4190  145.6660 O   0  0  0  0  0  1  0  0  0  0  0  0
  160.7480  201.8660  147.7640 C   0  0  2  0  0  0  0  0  0  0  0  0
  162.2260  210.2120  149.1270 C   0  0  0  0  0  2  0  0  0  0  0  0
  161.9720  211.7090  149.0880 C   0  0  0  0  0  2  0  0  0  0  0  0
  161.6080  212.1460  147.6780 C   0  0  2  0  0  3  0  0  0  0  0  0
  162.6340  212.9170  147.1340 O   0  0  0  0  0  1  0  0  0  0  0  0
  160.6830  213.7540  149.7710 O   0  0  0  0  0  0  0  0  0  0  0  0
  159.7990  211.9370  145.0840 Cl  0  0  0  0  0  0  0  0  0  0  0  0
  160.3020  212.9020  147.6480 C   0  0  2  0  0  3  0  0  0  0  0  0
  159.4330  212.8640  146.5330 C   0  0  0  0  0  0  0  0  0  0  0  0
  158.2390  213.5820  146.5630 C   0  0  0  0  0  3  0  0  0  0  0  0
  158.7580  214.3690  148.7530 N   0  0  0  0  0  0  0  0  0  0  0  0
  159.9320  213.6830  148.7600 C   0  0  0  0  0  0  0  0  0  0  0  0
  157.9130  214.3340  147.6910 C   0  0  0  0  0  3  0  0  0  0  0  0
  1  3  1  0  0  0  0
  2 10  2  0  0  0  0
  2  7  1  0  0  0  0
  3 18  1  6  0  0  0
  3 10  1  0  0  0  0
  4 12  1  0  0  0  0
  5 13  1  0  0  0  0
  5 14  1  0  0  0  0
  6 16  1  0  0  0  0
  6 12  2  0  0  0  0
  7  5  2  0  0  0  0
  8 14  1  0  0  0  0
  9  8  2  0  0  0  0
 10  9  1  0  0  0  0
 11  1  2  0  0  0  0
 11 15  1  0  0  0  0
 13  6  1  0  0  0  0
 14  4  2  0  0  0  0
 15  2  1  0  0  0  0
 16 17  3  0  0  0  0
 18 19  1  0  0  0  0
 20 19  1  0  0  0  0
 21 20  1  0  0  0  0
 23 29  1  6  0  0  0
 23 27  1  0  0  0  0
 23 25  1  0  0  0  0
 25 28  1  0  0  0  0
 26 21  2  0  0  0  0
 27 30  1  0  0  0  0
 28 26  1  0  0  0  0
 30 24  1  0  0  0  0
 30 22  1  1  0  0  0
 30 28  1  0  0  0  0
 31 11  1  0  0  0  0
 32 31  1  0  0  0  0
 33 34  1  1  0  0  0
 33 32  1  0  0  0  0
 36 38  1  0  0  0  0
 37 33  1  6  0  0  0
 37 41  1  0  0  0  0
 38 39  2  0  0  0  0
 38 37  1  0  0  0  0
 39 42  1  0  0  0  0
 40 41  1  0  0  0  0
 41 35  2  0  0  0  0
 42 40  2  0  0  0  0
M  END
>  <MODEL>
4

>  <REMARK>
 VINA RESULT:      -7.4      1.589      2.015
  Name = 
  9 active torsions:
  status: ('A' for Active; 'I' for Inactive)
    1  A    between atoms: N_5  and  N_10
    2  A    between atoms: C_6  and  C_20
    3  A    between atoms: C_7  and  N_10
    4  A    between atoms: C_7  and  C_13
    5  A    between atoms: C_8  and  C_13
    6  A    between atoms: C_11  and  C_26
    7  A    between atoms: C_15  and  C_30
    8  A    between atoms: C_15  and  C_36
    9  A    between atoms: C_26  and  C_36
                            x       y       z     vdW  Elec       q    Type
                         _______ _______ _______ _____ _____    ______ ____

>  <TORSDO>
F 9

$$$$
=
 OpenBabel11042421503D

 42 46  0  0  1  0  0  0  0  0999 V2000
  162.2530  207.7290  151.9510 C   0  0  0  0  0  3  0  0  0  0  0  0
  161.5820  205.8250  149.9490 C   0  0  0  0  0  0  0  0  0  0  0  0
  162.2890  208.2260  150.5360 C   0  0  1  0  0  3  0  0  0  0  0  0
  162.4250  204.8280  145.5820 C   0  0  0  0  0  2  0  0  0  0  0  0
  161.3850  204.5340  147.7490 C   0  0  0  0  0  0  0  0  0  0  0  0
  161.0390  202.9470  145.9480 C   0  0  0  0  0  0  0  0  0  0  0  0
  161.1380  204.7660  149.0400 C   0  0  0  0  0  3  0  0  0  0  0  0
  162.7840  206.4750  147.1490 C   0  0  0  0  0  3  0  0  0  0  0  0
  162.7400  207.3300  148.3360 C   0  0  0  0  0  3  0  0  0  0  0  0
  162.2140  207.0970  149.5330 C   0  0  0  0  0  0  0  0  0  0  0  0
  161.7770  206.5220  152.2530 C   0  0  0  0  0  0  0  0  0  0  0  0
  161.8490  203.6790  145.1450 N   0  0  0  0  0  0  0  0  0  0  0  0
  160.8020  203.3610  147.2550 C   0  0  0  0  0  3  0  0  0  0  0  0
  162.2080  205.3020  146.8830 C   0  0  0  0  0  0  0  0  0  0  0  0
  161.3890  205.6080  151.2180 N   0  0  0  0  0  2  0  0  0  0  0  0
  160.4420  201.7370  145.4570 C   0  0  0  0  0  0  0  0  0  0  0  0
  159.9640  200.7610  145.0590 N   0  0  0  0  0  0  0  0  0  0  0  0
  161.1420  209.2170  150.3420 C   0  0  0  0  0  2  0  0  0  0  0  0
  161.5790  210.6530  150.5950 C   0  0  0  0  0  2  0  0  0  0  0  0
  161.9930  211.2760  149.3510 N   0  0  0  0  0  2  0  0  0  0  0  0
  161.1100  212.1100  148.6600 N   0  0  0  0  0  0  0  0  0  0  0  0
  161.5950  213.6050  144.6500 C   0  0  0  0  0  1  0  0  0  0  0  0
  158.4430  214.4530  146.1480 C   0  0  1  0  0  3  0  0  0  0  0  0
  159.9510  211.8730  144.6670 O   0  0  0  0  0  1  0  0  0  0  0  0
  159.2660  213.8620  147.2800 C   0  0  0  0  0  2  0  0  0  0  0  0
  161.1850  212.2070  147.3740 C   0  0  0  0  0  3  0  0  0  0  0  0
  159.1720  214.1210  144.8510 C   0  0  0  0  0  2  0  0  0  0  0  0
  160.2930  213.0590  146.6470 N   0  0  0  0  0  0  0  0  0  0  0  0
  157.1820  213.8580  146.1380 O   0  0  0  0  0  1  0  0  0  0  0  0
  160.2650  213.1250  145.1990 C   0  0  2  0  0  0  0  0  0  0  0  0
  161.7110  206.1020  153.6800 C   0  0  0  0  0  2  0  0  0  0  0  0
  160.6880  206.9400  154.4270 C   0  0  0  0  0  2  0  0  0  0  0  0
  161.3830  208.0170  155.2450 C   0  0  2  0  0  3  0  0  0  0  0  0
  161.4600  207.6300  156.5820 O   0  0  0  0  0  1  0  0  0  0  0  0
  158.7980  208.5300  156.1800 O   0  0  0  0  0  0  0  0  0  0  0  0
  162.9380  210.4060  153.8610 Cl  0  0  0  0  0  0  0  0  0  0  0  0
  160.6880  209.3500  155.1170 C   0  0  2  0  0  3  0  0  0  0  0  0
  161.3070  210.4690  154.5120 C   0  0  0  0  0  0  0  0  0  0  0  0
  160.6150  211.6760  154.4210 C   0  0  0  0  0  3  0  0  0  0  0  0
  158.7380  210.6900  155.5140 N   0  0  0  0  0  0  0  0  0  0  0  0
  159.3820  209.4980  155.6230 C   0  0  0  0  0  0  0  0  0  0  0  0
  159.3200  211.7690  154.9290 C   0  0  0  0  0  3  0  0  0  0  0  0
  1 11  2  0  0  0  0
  2 15  1  0  0  0  0
  3 18  1  6  0  0  0
  3  1  1  0  0  0  0
  4 14  1  0  0  0  0
  5  7  1  0  0  0  0
  6 13  1  0  0  0  0
  7  2  2  0  0  0  0
  8  9  1  0  0  0  0
  9 10  2  0  0  0  0
 10  2  1  0  0  0  0
 10  3  1  0  0  0  0
 11 31  1  0  0  0  0
 12  4  1  0  0  0  0
 12  6  2  0  0  0  0
 13  5  2  0  0  0  0
 14  8  2  0  0  0  0
 14  5  1  0  0  0  0
 15 11  1  0  0  0  0
 16  6  1  0  0  0  0
 17 16  3  0  0  0  0
 18 19  1  0  0  0  0
 20 19  1  0  0  0  0
 21 20  1  0  0  0  0
 23 29  1  6  0  0  0
 23 25  1  0  0  0  0
 24 30  1  0  0  0  0
 26 21  2  0  0  0  0
 27 30  1  0  0  0  0
 27 23  1  0  0  0  0
 28 25  1  0  0  0  0
 28 26  1  0  0  0  0
 30 22  1  6  0  0  0
 30 28  1  0  0  0  0
 31 32  1  0  0  0  0
 32 33  1  0  0  0  0
 33 34  1  1  0  0  0
 36 38  1  0  0  0  0
 37 33  1  1  0  0  0
 37 41  1  0  0  0  0
 38 37  1  0  0  0  0
 39 38  2  0  0  0  0
 39 42  1  0  0  0  0
 40 41  1  0  0  0  0
 41 35  2  0  0  0  0
 42 40  2  0  0  0  0
M  END
>  <MODEL>
5

>  <REMARK>
 VINA RESULT:      -6.9      3.133      9.031
  Name = 
  9 active torsions:
  status: ('A' for Active; 'I' for Inactive)
    1  A    between atoms: N_5  and  N_10
    2  A    between atoms: C_6  and  C_20
    3  A    between atoms: C_7  and  N_10
    4  A    between atoms: C_7  and  C_13
    5  A    between atoms: C_8  and  C_13
    6  A    between atoms: C_11  and  C_26
    7  A    between atoms: C_15  and  C_30
    8  A    between atoms: C_15  and  C_36
    9  A    between atoms: C_26  and  C_36
                            x       y       z     vdW  Elec       q    Type
                         _______ _______ _______ _____ _____    ______ ____

>  <TORSDO>
F 9

$$$$
=
 OpenBabel11042421503D

 42 46  0  0  1  0  0  0  0  0999 V2000
  161.5130  210.2510  153.9640 C   0  0  0  0  0  3  0  0  0  0  0  0
  161.1380  207.7760  152.6170 C   0  0  0  0  0  0  0  0  0  0  0  0
  161.2240  210.3420  152.4950 C   0  0  1  0  0  3  0  0  0  0  0  0
  161.6400  205.8640  148.5110 C   0  0  0  0  0  3  0  0  0  0  0  0
  161.0170  205.9310  150.8500 C   0  0  0  0  0  0  0  0  0  0  0  0
  160.8890  203.8810  149.5580 C   0  0  0  0  0  0  0  0  0  0  0  0
  160.8880  206.4380  152.0770 C   0  0  0  0  0  3  0  0  0  0  0  0
  161.7330  207.9090  149.5620 C   0  0  0  0  0  3  0  0  0  0  0  0
  161.6120  209.0180  150.5100 C   0  0  0  0  0  3  0  0  0  0  0  0
  161.3330  209.0000  151.8080 C   0  0  0  0  0  0  0  0  0  0  0  0
  161.4340  209.0940  154.6190 C   0  0  0  0  0  0  0  0  0  0  0  0
  161.3520  204.5380  148.4670 N   0  0  0  0  0  0  0  0  0  0  0  0
  160.7220  204.5650  150.7590 C   0  0  0  0  0  3  0  0  0  0  0  0
  161.4740  206.6060  149.6870 C   0  0  2  0  0  3  0  0  0  0  0  0
  161.1800  207.8700  153.9150 N   0  0  0  0  0  2  0  0  0  0  0  0
  160.5910  202.4790  149.4810 C   0  0  0  0  0  0  0  0  0  0  0  0
  160.3480  201.3490  149.4160 N   0  0  0  0  0  0  0  0  0  0  0  0
  159.8320  210.9480  152.3130 C   0  0  0  0  0  2  0  0  0  0  0  0
  159.8530  212.4670  152.4080 C   0  0  0  0  0  2  0  0  0  0  0  0
  158.7020  213.0270  151.7240 N   0  0  0  0  0  2  0  0  0  0  0  0
  158.8180  213.4540  150.3990 N   0  0  0  0  0  0  0  0  0  0  0  0
  162.4550  213.7850  148.1160 C   0  0  0  0  0  1  0  0  0  0  0  0
  159.4790  214.4530  146.2180 C   0  0  1  0  0  3  0  0  0  0  0  0
  161.2270  211.8680  147.3950 O   0  0  0  0  0  1  0  0  0  0  0  0
  159.0110  214.3730  147.6610 C   0  0  0  0  0  2  0  0  0  0  0  0
  159.8870  213.1860  149.7240 C   0  0  0  0  0  3  0  0  0  0  0  0
  160.8980  213.8950  146.1820 C   0  0  0  0  0  2  0  0  0  0  0  0
  160.0280  213.6170  148.3660 N   0  0  0  0  0  0  0  0  0  0  0  0
  158.6500  213.6660  145.4220 O   0  0  0  0  0  1  0  0  0  0  0  0
  161.1580  213.2550  147.5340 C   0  0  2  0  0  0  0  0  0  0  0  0
  161.6750  209.0720  156.0880 C   0  0  0  0  0  2  0  0  0  0  0  0
  160.6200  209.8950  156.8060 C   0  0  0  0  0  2  0  0  0  0  0  0
  160.7110  211.3530  156.3850 C   0  0  2  0  0  3  0  0  0  0  0  0
  161.5420  212.0540  157.2580 O   0  0  0  0  0  1  0  0  0  0  0  0
  158.3920  210.0310  155.5480 O   0  0  0  0  0  0  0  0  0  0  0  0
  160.4300  214.3860  157.2580 Cl  0  0  0  0  0  0  0  0  0  0  0  0
  159.3490  211.9990  156.3140 C   0  0  2  0  0  3  0  0  0  0  0  0
  159.1340  213.3480  156.6820 C   0  0  0  0  0  0  0  0  0  0  0  0
  157.8540  213.8920  156.5940 C   0  0  0  0  0  3  0  0  0  0  0  0
  157.0130  211.8060  155.8010 N   0  0  0  0  0  0  0  0  0  0  0  0
  158.2470  211.2400  155.8750 C   0  0  0  0  0  0  0  0  0  0  0  0
  156.7970  213.1010  156.1460 C   0  0  0  0  0  3  0  0  0  0  0  0
  1 11  2  0  0  0  0
  2 15  1  0  0  0  0
  3 18  1  1  0  0  0
  3  1  1  0  0  0  0
  5  7  2  0  0  0  0
  6 13  2  0  0  0  0
  7  2  1  0  0  0  0
  8 14  1  0  0  0  0
  8  9  2  0  0  0  0
  9 10  1  0  0  0  0
 10  3  1  0  0  0  0
 10  2  2  0  0  0  0
 11 31  1  0  0  0  0
 12  4  2  0  0  0  0
 12  6  1  0  0  0  0
 13  5  1  0  0  0  0
 14  4  1  6  0  0  0
 14  5  1  0  0  0  0
 15 11  1  0  0  0  0
 16  6  1  0  0  0  0
 17 16  3  0  0  0  0
 18 19  1  0  0  0  0
 20 19  1  0  0  0  0
 21 20  1  0  0  0  0
 23 29  1  6  0  0  0
 23 25  1  0  0  0  0
 24 30  1  0  0  0  0
 25 28  1  0  0  0  0
 26 21  2  0  0  0  0
 27 23  1  0  0  0  0
 27 30  1  0  0  0  0
 28 26  1  0  0  0  0
 30 22  1  1  0  0  0
 30 28  1  0  0  0  0
 31 32  1  0  0  0  0
 33 32  1  0  0  0  0
 33 34  1  1  0  0  0
 35 41  2  0  0  0  0
 37 33  1  1  0  0  0
 37 38  1  0  0  0  0
 38 36  1  0  0  0  0
 39 38  2  0  0  0  0
 40 41  1  0  0  0  0
 40 42  2  0  0  0  0
 41 37  1  0  0  0  0
 42 39  1  0  0  0  0
M  END
>  <MODEL>
6

>  <REMARK>
 VINA RESULT:      -6.8      3.015      8.331
  Name = 
  9 active torsions:
  status: ('A' for Active; 'I' for Inactive)
    1  A    between atoms: N_5  and  N_10
    2  A    between atoms: C_6  and  C_20
    3  A    between atoms: C_7  and  N_10
    4  A    between atoms: C_7  and  C_13
    5  A    between atoms: C_8  and  C_13
    6  A    between atoms: C_11  and  C_26
    7  A    between atoms: C_15  and  C_30
    8  A    between atoms: C_15  and  C_36
    9  A    between atoms: C_26  and  C_36
                            x       y       z     vdW  Elec       q    Type
                         _______ _______ _______ _____ _____    ______ ____

>  <TORSDO>
F 9

$$$$
=
 OpenBabel11042421503D

 42 46  0  0  1  0  0  0  0  0999 V2000
  161.4190  208.2440  150.1160 C   0  0  0  0  0  3  0  0  0  0  0  0
  161.4930  205.6630  148.9260 C   0  0  0  0  0  0  0  0  0  0  0  0
  161.2960  207.0850  151.0590 C   0  0  1  0  0  3  0  0  0  0  0  0
  159.9560  201.4200  149.5670 C   0  0  0  0  0  3  0  0  0  0  0  0
  161.1870  203.1710  148.4350 C   0  0  2  0  0  3  0  0  0  0  0  0
  161.0250  200.9330  147.5140 C   0  0  0  0  0  0  0  0  0  0  0  0
  161.6280  204.4060  148.1870 C   0  0  0  0  0  3  0  0  0  0  0  0
  160.0880  203.4600  150.6230 C   0  0  0  0  0  3  0  0  0  0  0  0
  160.4270  204.8290  151.0180 C   0  0  0  0  0  3  0  0  0  0  0  0
  161.0480  205.7820  150.3330 C   0  0  0  0  0  0  0  0  0  0  0  0
  161.7090  208.0660  148.8280 C   0  0  0  0  0  0  0  0  0  0  0  0
  160.2630  200.5530  148.5680 N   0  0  0  0  0  0  0  0  0  0  0  0
  161.4900  202.2420  147.4320 C   0  0  0  0  0  3  0  0  0  0  0  0
  160.4120  202.7450  149.5450 C   0  0  0  0  0  0  0  0  0  0  0  0
  161.8000  206.7460  148.2730 N   0  0  0  0  0  2  0  0  0  0  0  0
  161.3340  199.9920  146.4740 C   0  0  0  0  0  0  0  0  0  0  0  0
  161.5810  199.2340  145.6350 N   0  0  0  0  0  0  0  0  0  0  0  0
  162.5670  207.0130  151.9060 C   0  0  0  0  0  2  0  0  0  0  0  0
  162.3390  206.2730  153.2160 C   0  0  0  0  0  2  0  0  0  0  0  0
  160.9500  206.3900  153.6220 N   0  0  0  0  0  2  0  0  0  0  0  0
  160.5780  207.3490  154.5670 N   0  0  0  0  0  0  0  0  0  0  0  0
  162.9370  210.7030  155.8870 C   0  0  0  0  0  1  0  0  0  0  0  0
  159.6100  210.6420  157.2390 C   0  0  1  0  0  3  0  0  0  0  0  0
  161.2070  211.4640  154.4280 O   0  0  0  0  0  1  0  0  0  0  0  0
  159.7770  209.2970  156.5520 C   0  0  0  0  0  2  0  0  0  0  0  0
  161.2070  208.4770  154.6250 C   0  0  0  0  0  3  0  0  0  0  0  0
  160.7640  211.5230  156.7720 C   0  0  0  0  0  2  0  0  0  0  0  0
  160.8440  209.4730  155.5880 N   0  0  0  0  0  0  0  0  0  0  0  0
  158.4010  211.2120  156.8440 O   0  0  0  0  0  1  0  0  0  0  0  0
  161.4450  210.7920  155.6270 C   0  0  2  0  0  0  0  0  0  0  0  0
  161.8750  209.2570  147.9490 C   0  0  0  0  0  2  0  0  0  0  0  0
  161.9560  210.5210  148.7870 C   0  0  0  0  0  2  0  0  0  0  0  0
  162.1520  211.7350  147.8930 C   0  0  2  0  0  3  0  0  0  0  0  0
  163.2520  212.4770  148.3240 O   0  0  0  0  0  1  0  0  0  0  0  0
  160.9390  212.5990  145.5250 O   0  0  0  0  0  0  0  0  0  0  0  0
  160.8140  212.6130  150.6270 Cl  0  0  0  0  0  0  0  0  0  0  0  0
  160.9160  212.5980  147.8440 C   0  0  2  0  0  3  0  0  0  0  0  0
  160.2560  213.0380  149.0150 C   0  0  0  0  0  0  0  0  0  0  0  0
  159.1180  213.8360  148.9090 C   0  0  0  0  0  3  0  0  0  0  0  0
  159.2770  213.7580  146.5300 N   0  0  0  0  0  0  0  0  0  0  0  0
  160.3890  212.9780  146.5950 C   0  0  0  0  0  0  0  0  0  0  0  0
  158.6390  214.1920  147.6480 C   0  0  0  0  0  3  0  0  0  0  0  0
  1  3  1  0  0  0  0
  2 10  1  0  0  0  0
  3 18  1  6  0  0  0
  5 13  1  6  0  0  0
  5 14  1  0  0  0  0
  6 12  1  0  0  0  0
  7  5  1  0  0  0  0
  7  2  2  0  0  0  0
  8  9  1  0  0  0  0
 10  9  2  0  0  0  0
 10  3  1  0  0  0  0
 11  1  2  0  0  0  0
 12  4  2  0  0  0  0
 13  6  2  0  0  0  0
 14  4  1  0  0  0  0
 14  8  2  0  0  0  0
 15 11  1  0  0  0  0
 15  2  1  0  0  0  0
 16  6  1  0  0  0  0
 17 16  3  0  0  0  0
 18 19  1  0  0  0  0
 19 20  1  0  0  0  0
 20 21  1  0  0  0  0
 21 26  2  0  0  0  0
 23 29  1  6  0  0  0
 24 30  1  0  0  0  0
 25 23  1  0  0  0  0
 26 28  1  0  0  0  0
 27 23  1  0  0  0  0
 28 30  1  0  0  0  0
 28 25  1  0  0  0  0
 30 22  1  1  0  0  0
 30 27  1  0  0  0  0
 31 32  1  0  0  0  0
 31 11  1  0  0  0  0
 33 34  1  1  0  0  0
 33 32  1  0  0  0  0
 35 41  2  0  0  0  0
 37 33  1  6  0  0  0
 37 38  1  0  0  0  0
 38 36  1  0  0  0  0
 39 38  2  0  0  0  0
 40 41  1  0  0  0  0
 40 42  2  0  0  0  0
 41 37  1  0  0  0  0
 42 39  1  0  0  0  0
M  END
>  <MODEL>
7

>  <REMARK>
 VINA RESULT:      -6.7      3.035      8.482
  Name = 
  9 active torsions:
  status: ('A' for Active; 'I' for Inactive)
    1  A    between atoms: N_5  and  N_10
    2  A    between atoms: C_6  and  C_20
    3  A    between atoms: C_7  and  N_10
    4  A    between atoms: C_7  and  C_13
    5  A    between atoms: C_8  and  C_13
    6  A    between atoms: C_11  and  C_26
    7  A    between atoms: C_15  and  C_30
    8  A    between atoms: C_15  and  C_36
    9  A    between atoms: C_26  and  C_36
                            x       y       z     vdW  Elec       q    Type
                         _______ _______ _______ _____ _____    ______ ____

>  <TORSDO>
F 9

$$$$
=
 OpenBabel11042421503D

 42 46  0  0  1  0  0  0  0  0999 V2000
  160.9920  211.2900  151.6040 C   0  0  0  0  0  3  0  0  0  0  0  0
  161.6070  209.1720  149.8110 C   0  0  0  0  0  0  0  0  0  0  0  0
  161.1770  209.9390  152.2270 C   0  0  1  0  0  3  0  0  0  0  0  0
  161.1120  204.6650  149.3480 C   0  0  0  0  0  3  0  0  0  0  0  0
  161.8620  206.8770  148.7100 C   0  0  2  0  0  3  0  0  0  0  0  0
  162.1790  204.9590  147.2590 C   0  0  0  0  0  0  0  0  0  0  0  0
  161.9970  208.2020  148.7860 C   0  0  0  0  0  3  0  0  0  0  0  0
  160.8150  206.3550  150.8810 C   0  0  0  0  0  3  0  0  0  0  0  0
  160.8470  207.6240  151.6100 C   0  0  0  0  0  3  0  0  0  0  0  0
  161.2040  208.8340  151.1950 C   0  0  0  0  0  0  0  0  0  0  0  0
  161.2620  211.5080  150.3180 C   0  0  0  0  0  0  0  0  0  0  0  0
  161.5690  204.1650  148.1710 N   0  0  0  0  0  0  0  0  0  0  0  0
  162.3280  206.3190  147.5130 C   0  0  0  0  0  3  0  0  0  0  0  0
  161.2500  206.0220  149.6650 C   0  0  0  0  0  0  0  0  0  0  0  0
  161.6310  210.4230  149.4540 N   0  0  0  0  0  2  0  0  0  0  0  0
  162.6540  204.4020  146.0240 C   0  0  0  0  0  0  0  0  0  0  0  0
  163.0340  203.9530  145.0270 N   0  0  0  0  0  0  0  0  0  0  0  0
  162.4630  209.9580  153.0530 C   0  0  0  0  0  2  0  0  0  0  0  0
  162.2030  210.3290  154.5060 C   0  0  0  0  0  2  0  0  0  0  0  0
  161.0460  209.6100  155.0060 N   0  0  0  0  0  2  0  0  0  0  0  0
  160.0140  210.3050  155.6410 N   0  0  0  0  0  0  0  0  0  0  0  0
  158.5790  214.2420  154.6470 C   0  0  0  0  0  1  0  0  0  0  0  0
  156.6690  212.6010  157.2090 C   0  0  1  0  0  3  0  0  0  0  0  0
  157.0140  212.6040  153.8910 O   0  0  0  0  0  1  0  0  0  0  0  0
  157.8890  211.7200  157.0060 C   0  0  0  0  0  2  0  0  0  0  0  0
  159.4500  211.3070  155.0500 C   0  0  0  0  0  3  0  0  0  0  0  0
  156.6280  213.5750  156.0350 C   0  0  0  0  0  2  0  0  0  0  0  0
  158.3930  212.0360  155.6840 N   0  0  0  0  0  0  0  0  0  0  0  0
  155.5220  211.8090  157.1950 O   0  0  0  0  0  1  0  0  0  0  0  0
  157.6580  213.0980  155.0270 C   0  0  2  0  0  0  0  0  0  0  0  0
  161.1160  212.8830  149.7650 C   0  0  0  0  0  2  0  0  0  0  0  0
  161.8360  212.9930  148.4330 C   0  0  0  0  0  2  0  0  0  0  0  0
  161.1240  213.9870  147.5290 C   0  0  2  0  0  3  0  0  0  0  0  0
  159.9640  214.4530  148.1480 O   0  0  0  0  0  1  0  0  0  0  0  0
  162.8700  214.0130  145.3450 O   0  0  0  0  0  0  0  0  0  0  0  0
  158.3130  212.5780  147.1370 Cl  0  0  0  0  0  0  0  0  0  0  0  0
  160.8010  213.3860  146.1830 C   0  0  2  0  0  3  0  0  0  0  0  0
  159.5710  212.7410  145.9200 C   0  0  0  0  0  0  0  0  0  0  0  0
  159.3280  212.2050  144.6560 C   0  0  0  0  0  3  0  0  0  0  0  0
  161.4820  212.9240  143.9290 N   0  0  0  0  0  0  0  0  0  0  0  0
  161.7560  213.4570  145.1500 C   0  0  0  0  0  0  0  0  0  0  0  0
  160.3010  212.3080  143.6630 C   0  0  0  0  0  3  0  0  0  0  0  0
  1  3  1  0  0  0  0
  2 10  1  0  0  0  0
  3 18  1  6  0  0  0
  4 14  1  0  0  0  0
  5 13  1  6  0  0  0
  5  7  1  0  0  0  0
  5 14  1  0  0  0  0
  6 13  2  0  0  0  0
  6 12  1  0  0  0  0
  7  2  2  0  0  0  0
  8  9  1  0  0  0  0
 10  9  2  0  0  0  0
 10  3  1  0  0  0  0
 11  1  2  0  0  0  0
 12  4  2  0  0  0  0
 14  8  2  0  0  0  0
 15  2  1  0  0  0  0
 15 11  1  0  0  0  0
 16  6  1  0  0  0  0
 17 16  3  0  0  0  0
 18 19  1  0  0  0  0
 19 20  1  0  0  0  0
 20 21  1  0  0  0  0
 23 29  1  6  0  0  0
 24 30  1  0  0  0  0
 25 23  1  0  0  0  0
 26 21  2  0  0  0  0
 26 28  1  0  0  0  0
 27 23  1  0  0  0  0
 28 25  1  0  0  0  0
 30 22  1  6  0  0  0
 30 28  1  0  0  0  0
 30 27  1  0  0  0  0
 31 11  1  0  0  0  0
 32 31  1  0  0  0  0
 33 34  1  1  0  0  0
 33 32  1  0  0  0  0
 37 33  1  1  0  0  0
 38 37  1  0  0  0  0
 38 36  1  0  0  0  0
 39 38  2  0  0  0  0
 40 41  1  0  0  0  0
 41 35  2  0  0  0  0
 41 37  1  0  0  0  0
 42 40  2  0  0  0  0
 42 39  1  0  0  0  0
M  END
>  <MODEL>
8

>  <REMARK>
 VINA RESULT:      -6.4      2.998      8.447
  Name = 
  9 active torsions:
  status: ('A' for Active; 'I' for Inactive)
    1  A    between atoms: N_5  and  N_10
    2  A    between atoms: C_6  and  C_20
    3  A    between atoms: C_7  and  N_10
    4  A    between atoms: C_7  and  C_13
    5  A    between atoms: C_8  and  C_13
    6  A    between atoms: C_11  and  C_26
    7  A    between atoms: C_15  and  C_30
    8  A    between atoms: C_15  and  C_36
    9  A    between atoms: C_26  and  C_36
                            x       y       z     vdW  Elec       q    Type
                         _______ _______ _______ _____ _____    ______ ____

>  <TORSDO>
F 9

$$$$
=
 OpenBabel11042421503D

 42 46  0  0  1  0  0  0  0  0999 V2000
  161.5880  210.6080  150.2390 C   0  0  0  0  0  3  0  0  0  0  0  0
  161.5580  207.8620  149.5090 C   0  0  0  0  0  0  0  0  0  0  0  0
  161.6530  209.6290  151.3730 C   0  0  1  0  0  3  0  0  0  0  0  0
  160.2800  203.7860  151.0980 C   0  0  0  0  0  3  0  0  0  0  0  0
  161.2600  205.3210  149.5030 C   0  0  2  0  0  3  0  0  0  0  0  0
  161.0280  202.9560  149.0130 C   0  0  0  0  0  0  0  0  0  0  0  0
  161.6170  206.4960  148.9820 C   0  0  0  0  0  3  0  0  0  0  0  0
  160.5100  205.9780  151.7580 C   0  0  0  0  0  3  0  0  0  0  0  0
  160.8620  207.3960  151.8550 C   0  0  0  0  0  3  0  0  0  0  0  0
  161.3360  208.2190  150.9270 C   0  0  0  0  0  0  0  0  0  0  0  0
  161.6780  210.2130  148.9700 C   0  0  0  0  0  0  0  0  0  0  0  0
  160.4540  202.7600  150.2250 N   0  0  0  0  0  0  0  0  0  0  0  0
  161.4310  204.2340  148.6370 C   0  0  0  0  0  3  0  0  0  0  0  0
  160.6830  205.0890  150.7790 C   0  0  0  0  0  0  0  0  0  0  0  0
  161.7230  208.8170  148.6400 N   0  0  0  0  0  2  0  0  0  0  0  0
  161.2010  201.8520  148.1130 C   0  0  0  0  0  0  0  0  0  0  0  0
  161.3390  200.9590  147.3890 N   0  0  0  0  0  0  0  0  0  0  0  0
  163.0430  209.7110  152.0050 C   0  0  0  0  0  2  0  0  0  0  0  0
  163.0020  210.3260  153.3960 C   0  0  0  0  0  2  0  0  0  0  0  0
  161.7070  210.0900  154.0090 N   0  0  0  0  0  2  0  0  0  0  0  0
  161.0120  211.1480  154.5990 N   0  0  0  0  0  0  0  0  0  0  0  0
  158.3700  213.9100  152.6120 C   0  0  0  0  0  1  0  0  0  0  0  0
  158.4970  214.3260  156.1780 C   0  0  1  0  0  3  0  0  0  0  0  0
  157.0880  212.3510  153.8890 O   0  0  0  0  0  1  0  0  0  0  0  0
  159.6140  213.3470  155.8600 C   0  0  0  0  0  2  0  0  0  0  0  0
  160.0030  211.6790  153.9900 C   0  0  0  0  0  3  0  0  0  0  0  0
  157.6300  214.4300  154.9270 C   0  0  0  0  0  2  0  0  0  0  0  0
  159.2790  212.7670  154.5740 N   0  0  0  0  0  0  0  0  0  0  0  0
  157.7340  213.8270  157.2320 O   0  0  0  0  0  1  0  0  0  0  0  0
  158.0800  213.3280  153.9840 C   0  0  2  0  0  0  0  0  0  0  0  0
  161.6650  211.2340  147.8870 C   0  0  0  0  0  2  0  0  0  0  0  0
  162.3300  212.5140  148.3640 C   0  0  0  0  0  2  0  0  0  0  0  0
  161.6390  213.7250  147.7580 C   0  0  2  0  0  3  0  0  0  0  0  0
  160.9270  214.4130  148.7400 O   0  0  0  0  0  1  0  0  0  0  0  0
  158.8790  213.3520  148.0160 O   0  0  0  0  0  0  0  0  0  0  0  0
  162.9050  213.3290  144.8800 Cl  0  0  0  0  0  0  0  0  0  0  0  0
  160.7290  213.3360  146.6180 C   0  0  2  0  0  3  0  0  0  0  0  0
  161.2090  213.1370  145.3030 C   0  0  0  0  0  0  0  0  0  0  0  0
  160.3210  212.7770  144.2900 C   0  0  0  0  0  3  0  0  0  0  0  0
  158.5160  212.8200  145.8480 N   0  0  0  0  0  0  0  0  0  0  0  0
  159.3510  213.1730  146.8610 C   0  0  0  0  0  0  0  0  0  0  0  0
  158.9680  212.6190  144.5830 C   0  0  0  0  0  3  0  0  0  0  0  0
  1  3  1  0  0  0  0
  2 10  1  0  0  0  0
  3 18  1  6  0  0  0
  5 13  1  6  0  0  0
  5 14  1  0  0  0  0
  6 12  1  0  0  0  0
  7  5  1  0  0  0  0
  7  2  2  0  0  0  0
  8  9  1  0  0  0  0
 10  3  1  0  0  0  0
 10  9  2  0  0  0  0
 11  1  2  0  0  0  0
 12  4  2  0  0  0  0
 13  6  2  0  0  0  0
 14  4  1  0  0  0  0
 14  8  2  0  0  0  0
 15 11  1  0  0  0  0
 15  2  1  0  0  0  0
 16  6  1  0  0  0  0
 17 16  3  0  0  0  0
 18 19  1  0  0  0  0
 19 20  1  0  0  0  0
 20 21  1  0  0  0  0
 23 29  1  1  0  0  0
 24 30  1  0  0  0  0
 25 23  1  0  0  0  0
 26 28  1  0  0  0  0
 26 21  2  0  0  0  0
 27 23  1  0  0  0  0
 28 25  1  0  0  0  0
 30 22  1  6  0  0  0
 30 28  1  0  0  0  0
 30 27  1  0  0  0  0
 31 32  1  0  0  0  0
 31 11  1  0  0  0  0
 33 32  1  0  0  0  0
 33 34  1  1  0  0  0
 36 38  1  0  0  0  0
 37 41  1  0  0  0  0
 37 33  1  6  0  0  0
 38 37  1  0  0  0  0
 39 42  1  0  0  0  0
 39 38  2  0  0  0  0
 40 41  1  0  0  0  0
 41 35  2  0  0  0  0
 42 40  2  0  0  0  0
M  END
>  <MODEL>
9

>  <REMARK>
 VINA RESULT:      -6.2      3.129      8.247
  Name = 
  9 active torsions:
  status: ('A' for Active; 'I' for Inactive)
    1  A    between atoms: N_5  and  N_10
    2  A    between atoms: C_6  and  C_20
    3  A    between atoms: C_7  and  N_10
    4  A    between atoms: C_7  and  C_13
    5  A    between atoms: C_8  and  C_13
    6  A    between atoms: C_11  and  C_26
    7  A    between atoms: C_15  and  C_30
    8  A    between atoms: C_15  and  C_36
    9  A    between atoms: C_26  and  C_36
                            x       y       z     vdW  Elec       q    Type
                         _______ _______ _______ _____ _____    ______ ____

>  <TORSDO>
F 9

$$$$
