=
 OpenBabel11042423043D

 55 60  0  0  1  0  0  0  0  0999 V2000
  162.3650  208.0500  150.1870 C   0  0  2  0  0  3  0  0  0  0  0  0
  161.9800  206.9580  151.2370 C   0  0  1  0  0  3  0  0  0  0  0  0
  160.5730  208.2660  154.5630 C   0  0  0  0  0  3  0  0  0  0  0  0
  161.2420  210.0680  153.0700 C   0  0  0  0  0  3  0  0  0  0  0  0
  161.4740  207.7660  152.3900 C   0  0  0  0  0  0  0  0  0  0  0  0
  160.9610  207.3140  153.6060 C   0  0  0  0  0  3  0  0  0  0  0  0
  161.6160  209.1040  152.1380 C   0  0  0  0  0  0  0  0  0  0  0  0
  162.1590  209.3360  150.8560 N   0  0  0  0  0  0  0  0  0  0  0  0
  160.7140  209.6430  154.3030 C   0  0  0  0  0  0  0  0  0  0  0  0
  160.0600  203.7860  150.2890 N   0  0  0  0  0  2  0  0  0  0  0  0
  162.2100  204.1040  151.1430 O   0  0  0  0  0  0  0  0  0  0  0  0
  161.1260  204.6190  150.7430 C   0  0  0  0  0  0  0  0  0  0  0  0
  160.9560  206.0370  150.7510 N   0  0  0  0  0  2  0  0  0  0  0  0
  160.1900  202.3390  150.1920 C   0  0  1  0  0  3  0  0  0  0  0  0
  161.1520  202.3670  147.2470 O   0  0  0  0  0  1  0  0  0  0  0  0
  162.1790  200.8660  150.4380 C   0  0  0  0  0  1  0  0  0  0  0  0
  159.5070  201.8480  148.9200 C   0  0  0  0  0  2  0  0  0  0  0  0
  160.8630  201.5190  148.3220 C   0  0  2  0  0  0  0  0  0  0  0  0
  161.5540  201.9860  149.6090 C   0  0  1  0  0  3  0  0  0  0  0  0
  160.9800  200.0410  147.9400 C   0  0  0  0  0  2  0  0  0  0  0  0
  161.6820  199.9030  146.6900 N   0  0  0  0  0  0  0  0  0  0  0  0
  161.2410  199.0980  145.7960 C   0  0  0  0  0  2  0  0  0  0  0  0
  160.2990  210.5810  155.3020 N   0  0  0  0  0  2  0  0  0  0  0  0
  160.4920  212.6060  156.5070 O   0  0  0  0  0  1  0  0  0  0  0  0
  160.4340  212.0390  155.2320 C   0  0  2  0  0  3  0  0  0  0  0  0
  155.6830  213.2400  154.6030 C   0  0  0  0  0  0  0  0  0  0  0  0
  154.7260  213.8520  153.8570 N   0  0  0  0  0  0  0  0  0  0  0  0
  157.0080  213.2340  154.1500 C   0  0  0  0  0  0  0  0  0  0  0  0
  155.2230  212.4840  156.1220 Cl  0  0  0  0  0  0  0  0  0  0  0  0
  157.2980  213.8520  152.9170 C   0  0  0  0  0  0  0  0  0  0  0  0
  159.6290  213.2640  153.1670 C   0  0  0  0  0  3  0  0  0  0  0  0
  155.0250  214.4520  152.6730 C   0  0  0  0  0  3  0  0  0  0  0  0
  156.3020  214.4490  152.2100 N   0  0  0  0  0  0  0  0  0  0  0  0
  158.6050  213.8590  152.4260 C   0  0  0  0  0  3  0  0  0  0  0  0
  158.0410  212.6440  154.8870 C   0  0  0  0  0  3  0  0  0  0  0  0
  159.3530  212.6640  154.4040 C   0  0  0  0  0  0  0  0  0  0  0  0
  162.5370  210.6400  150.3230 C   0  0  0  0  0  2  0  0  0  0  0  0
  161.5650  211.0740  149.2280 C   0  0  0  0  0  2  0  0  0  0  0  0
  162.0220  212.3820  148.5620 C   0  0  2  0  0  3  0  0  0  0  0  0
  159.0930  212.8000  146.2080 O   0  0  0  0  0  0  0  0  0  0  0  0
  158.0810  212.9840  147.1720 C   0  0  1  0  0  3  0  0  0  0  0  0
  158.6010  213.8090  148.3320 C   0  0  0  0  0  0  0  0  0  0  0  0
  157.8160  214.4190  149.1050 O   0  0  0  0  0  0  0  0  0  0  0  0
  160.0040  213.7670  148.6300 N   0  0  0  0  0  2  0  0  0  0  0  0
  160.1510  212.1050  146.8310 C   0  0  0  0  0  2  0  0  0  0  0  0
  160.9260  213.0730  147.7380 C   0  0  2  0  0  3  0  0  0  0  0  0
  156.8790  213.6450  146.5000 C   0  0  0  0  0  2  0  0  0  0  0  0
  157.2980  214.3560  145.3040 N   0  0  0  0  0  1  0  0  0  0  0  0
  163.2440  212.2670  147.8680 O   0  0  0  0  0  0  0  0  0  0  0  0
  163.0930  212.8850  146.7100 O   0  0  0  0  0  1  0  0  0  0  0  0
  161.6070  207.9960  148.8490 C   0  0  0  0  0  2  0  0  0  0  0  0
  161.9100  206.0380  147.4020 C   0  0  0  0  0  3  0  0  0  0  0  0
  162.3540  207.2330  147.8000 C   0  0  0  0  0  3  0  0  0  0  0  0
  162.6590  205.2890  146.3570 C   0  0  0  0  0  2  0  0  0  0  0  0
  161.8580  205.2890  145.0710 C   0  0  0  0  0  1  0  0  0  0  0  0
  1 51  1  6  0  0  0
  1  8  1  0  0  0  0
  1  2  1  0  0  0  0
  2 13  1  6  0  0  0
  2  5  1  0  0  0  0
  4  9  2  0  0  0  0
  5  6  1  0  0  0  0
  6  3  2  0  0  0  0
  7  5  2  0  0  0  0
  7  4  1  0  0  0  0
  8  7  1  0  0  0  0
  9  3  1  0  0  0  0
  9 23  1  0  0  0  0
 10 12  1  0  0  0  0
 12 13  1  0  0  0  0
 12 11  2  0  0  0  0
 14 10  1  6  0  0  0
 17 14  1  0  0  0  0
 18 15  1  6  0  0  0
 18 17  1  0  0  0  0
 18 19  1  0  0  0  0
 19 14  1  0  0  0  0
 19 16  1  1  0  0  0
 20 18  1  0  0  0  0
 21 20  1  0  0  0  0
 22 21  2  0  0  0  0
 25 23  1  0  0  0  0
 25 24  1  1  0  0  0
 26 29  1  0  0  0  0
 27 26  2  0  0  0  0
 28 26  1  0  0  0  0
 28 35  1  0  0  0  0
 30 28  2  0  0  0  0
 31 36  1  0  0  0  0
 32 27  1  0  0  0  0
 33 32  2  0  0  0  0
 33 30  1  0  0  0  0
 34 30  1  0  0  0  0
 34 31  2  0  0  0  0
 36 35  2  0  0  0  0
 36 25  1  0  0  0  0
 37  8  1  0  0  0  0
 38 37  1  0  0  0  0
 39 38  1  6  0  0  0
 40 45  1  0  0  0  0
 40 41  1  0  0  0  0
 41 47  1  6  0  0  0
 41 42  1  0  0  0  0
 42 44  1  0  0  0  0
 42 43  2  0  0  0  0
 45 46  1  0  0  0  0
 46 39  1  1  0  0  0
 46 44  1  0  0  0  0
 48 47  1  0  0  0  0
 49 39  1  0  0  0  0
 50 49  1  0  0  0  0
 52 53  2  0  0  0  0
 53 51  1  0  0  0  0
 54 52  1  0  0  0  0
 55 54  1  0  0  0  0
M  END
>  <MODEL>
1

>  <REMARK>
 VINA RESULT:      -6.1      0.000      0.000
  Name = 
  16 active torsions:
  status: ('A' for Active; 'I' for Inactive)
    1  A    between atoms: N_2  and  C_16
    2  A    between atoms: C_3  and  N_7
    3  A    between atoms: C_4  and  C_27
    4  A    between atoms: C_5  and  C_35
    5  A    between atoms: C_6  and  N_52
    6  A    between atoms: C_10  and  C_26
    7  A    between atoms: C_16  and  C_42
    8  A    between atoms: O_18  and  C_30
    9  A    between atoms: C_27  and  C_49
   10  A    between atoms: C_30  and  C_44
   11  A    between atoms: C_30  and  C_48
   12  A    between atoms: C_36  and  C_54
   13  A    between atoms: C_36  and  N_55
   14  A    between atoms: C_43  and  C_44
   15  A    between atoms: C_43  and  N_50
   16  A    between atoms: C_53  and  N_55
                            x       y       z     vdW  Elec       q    Type
                         _______ _______ _______ _____ _____    ______ ____

>  <TORSDO>
F 16

$$$$
=
 OpenBabel11042423043D

 55 60  0  0  1  0  0  0  0  0999 V2000
  162.2810  208.0990  150.0410 C   0  0  2  0  0  3  0  0  0  0  0  0
  161.9440  206.9600  151.0580 C   0  0  1  0  0  3  0  0  0  0  0  0
  160.6250  208.1110  154.4760 C   0  0  0  0  0  3  0  0  0  0  0  0
  161.2210  209.9820  153.0380 C   0  0  0  0  0  3  0  0  0  0  0  0
  161.4630  207.7120  152.2580 C   0  0  0  0  0  0  0  0  0  0  0  0
  160.9950  207.2050  153.4700 C   0  0  0  0  0  3  0  0  0  0  0  0
  161.5790  209.0620  152.0560 C   0  0  0  0  0  0  0  0  0  0  0  0
  162.0780  209.3530  150.7690 N   0  0  0  0  0  0  0  0  0  0  0  0
  160.7380  209.4990  154.2690 C   0  0  0  0  0  0  0  0  0  0  0  0
  159.9910  203.7970  150.1440 N   0  0  0  0  0  2  0  0  0  0  0  0
  162.1180  204.1000  151.0590 O   0  0  0  0  0  0  0  0  0  0  0  0
  161.0580  204.6230  150.6070 C   0  0  0  0  0  0  0  0  0  0  0  0
  160.9170  206.0450  150.5660 N   0  0  0  0  0  2  0  0  0  0  0  0
  160.0950  202.3460  150.0960 C   0  0  1  0  0  3  0  0  0  0  0  0
  161.4280  202.2790  147.3000 O   0  0  0  0  0  1  0  0  0  0  0  0
  161.9960  200.8340  150.6290 C   0  0  0  0  0  1  0  0  0  0  0  0
  159.5680  201.8400  148.7560 C   0  0  0  0  0  2  0  0  0  0  0  0
  160.9810  201.4640  148.3460 C   0  0  2  0  0  0  0  0  0  0  0  0
  161.5130  201.9470  149.7020 C   0  0  1  0  0  3  0  0  0  0  0  0
  161.1070  199.9750  148.0140 C   0  0  0  0  0  2  0  0  0  0  0  0
  161.6330  199.8040  146.6850 N   0  0  0  0  0  0  0  0  0  0  0  0
  160.8570  199.4300  145.7350 C   0  0  0  0  0  2  0  0  0  0  0  0
  160.3430  210.3900  155.3170 N   0  0  0  0  0  2  0  0  0  0  0  0
  160.7140  212.4140  156.4810 O   0  0  0  0  0  1  0  0  0  0  0  0
  160.3410  211.8540  155.2580 C   0  0  2  0  0  3  0  0  0  0  0  0
  157.6080  214.0090  151.7500 C   0  0  0  0  0  0  0  0  0  0  0  0
  156.3940  214.4510  151.3270 N   0  0  0  0  0  0  0  0  0  0  0  0
  157.7280  213.4490  153.0280 C   0  0  0  0  0  0  0  0  0  0  0  0
  158.9870  214.1440  150.6680 Cl  0  0  0  0  0  0  0  0  0  0  0  0
  156.5800  213.3840  153.8430 C   0  0  0  0  0  0  0  0  0  0  0  0
  157.8810  212.3520  155.5990 C   0  0  0  0  0  3  0  0  0  0  0  0
  155.2940  214.3710  152.1230 C   0  0  0  0  0  3  0  0  0  0  0  0
  155.3910  213.8430  153.3710 N   0  0  0  0  0  0  0  0  0  0  0  0
  156.6610  212.8410  155.1270 C   0  0  0  0  0  3  0  0  0  0  0  0
  158.9450  212.9520  153.5080 C   0  0  0  0  0  3  0  0  0  0  0  0
  159.0250  212.3950  154.7880 C   0  0  0  0  0  0  0  0  0  0  0  0
  162.4220  210.6840  150.2790 C   0  0  0  0  0  2  0  0  0  0  0  0
  161.2550  211.2840  149.4970 C   0  0  0  0  0  2  0  0  0  0  0  0
  161.7370  212.3680  148.5190 C   0  0  2  0  0  3  0  0  0  0  0  0
  159.3680  213.8670  145.9820 O   0  0  0  0  0  0  0  0  0  0  0  0
  160.3200  214.2520  145.0160 C   0  0  1  0  0  3  0  0  0  0  0  0
  161.4210  213.2150  144.9170 C   0  0  0  0  0  0  0  0  0  0  0  0
  162.1530  213.1330  143.8950 O   0  0  0  0  0  0  0  0  0  0  0  0
  161.7170  212.4150  146.0710 N   0  0  0  0  0  2  0  0  0  0  0  0
  160.0330  213.7790  147.2230 C   0  0  0  0  0  2  0  0  0  0  0  0
  160.8720  212.4920  147.2570 C   0  0  2  0  0  3  0  0  0  0  0  0
  159.6080  214.4530  143.6800 C   0  0  0  0  0  2  0  0  0  0  0  0
  158.5870  213.4360  143.4940 N   0  0  0  0  0  1  0  0  0  0  0  0
  163.1180  212.3030  148.2370 O   0  0  0  0  0  0  0  0  0  0  0  0
  163.5620  213.5460  148.1850 O   0  0  0  0  0  1  0  0  0  0  0  0
  161.4820  208.0880  148.7260 C   0  0  0  0  0  2  0  0  0  0  0  0
  161.8600  206.0840  147.3630 C   0  0  0  0  0  3  0  0  0  0  0  0
  162.1900  207.3490  147.6340 C   0  0  0  0  0  3  0  0  0  0  0  0
  162.5690  205.3600  146.2730 C   0  0  0  0  0  2  0  0  0  0  0  0
  161.6710  205.2850  145.0560 C   0  0  0  0  0  1  0  0  0  0  0  0
  1 51  1  6  0  0  0
  1  8  1  0  0  0  0
  1  2  1  0  0  0  0
  2 13  1  6  0  0  0
  2  5  1  0  0  0  0
  4  9  2  0  0  0  0
  5  6  1  0  0  0  0
  6  3  2  0  0  0  0
  7  5  2  0  0  0  0
  7  4  1  0  0  0  0
  8  7  1  0  0  0  0
  9  3  1  0  0  0  0
  9 23  1  0  0  0  0
 10 12  1  0  0  0  0
 12 11  2  0  0  0  0
 13 12  1  0  0  0  0
 14 10  1  6  0  0  0
 17 14  1  0  0  0  0
 18 15  1  6  0  0  0
 18 17  1  0  0  0  0
 18 19  1  0  0  0  0
 19 14  1  0  0  0  0
 19 16  1  1  0  0  0
 20 18  1  0  0  0  0
 21 20  1  0  0  0  0
 22 21  2  0  0  0  0
 25 23  1  0  0  0  0
 25 24  1  1  0  0  0
 26 28  1  0  0  0  0
 27 26  2  0  0  0  0
 27 32  1  0  0  0  0
 28 35  2  0  0  0  0
 28 30  1  0  0  0  0
 29 26  1  0  0  0  0
 30 34  2  0  0  0  0
 32 33  2  0  0  0  0
 33 30  1  0  0  0  0
 34 31  1  0  0  0  0
 35 36  1  0  0  0  0
 36 25  1  0  0  0  0
 36 31  2  0  0  0  0
 37  8  1  0  0  0  0
 38 37  1  0  0  0  0
 39 38  1  6  0  0  0
 40 45  1  0  0  0  0
 41 47  1  6  0  0  0
 41 40  1  0  0  0  0
 42 41  1  0  0  0  0
 42 44  1  0  0  0  0
 43 42  2  0  0  0  0
 44 46  1  0  0  0  0
 45 46  1  0  0  0  0
 46 39  1  1  0  0  0
 48 47  1  0  0  0  0
 49 39  1  0  0  0  0
 50 49  1  0  0  0  0
 52 53  2  0  0  0  0
 53 51  1  0  0  0  0
 54 52  1  0  0  0  0
 55 54  1  0  0  0  0
M  END
>  <MODEL>
2

>  <REMARK>
 VINA RESULT:      -5.8      1.456      2.006
  Name = 
  16 active torsions:
  status: ('A' for Active; 'I' for Inactive)
    1  A    between atoms: N_2  and  C_16
    2  A    between atoms: C_3  and  N_7
    3  A    between atoms: C_4  and  C_27
    4  A    between atoms: C_5  and  C_35
    5  A    between atoms: C_6  and  N_52
    6  A    between atoms: C_10  and  C_26
    7  A    between atoms: C_16  and  C_42
    8  A    between atoms: O_18  and  C_30
    9  A    between atoms: C_27  and  C_49
   10  A    between atoms: C_30  and  C_44
   11  A    between atoms: C_30  and  C_48
   12  A    between atoms: C_36  and  C_54
   13  A    between atoms: C_36  and  N_55
   14  A    between atoms: C_43  and  C_44
   15  A    between atoms: C_43  and  N_50
   16  A    between atoms: C_53  and  N_55
                            x       y       z     vdW  Elec       q    Type
                         _______ _______ _______ _____ _____    ______ ____

>  <TORSDO>
F 16

$$$$
=
 OpenBabel11042423043D

 55 60  0  0  1  0  0  0  0  0999 V2000
  161.2730  207.2920  151.4810 C   0  0  2  0  0  3  0  0  0  0  0  0
  161.0900  207.2410  149.9290 C   0  0  1  0  0  3  0  0  0  0  0  0
  161.8880  210.4930  148.0480 C   0  0  0  0  0  3  0  0  0  0  0  0
  162.0990  210.7450  150.4590 C   0  0  0  0  0  3  0  0  0  0  0  0
  161.4730  208.6220  149.5000 C   0  0  0  0  0  0  0  0  0  0  0  0
  161.5280  209.1450  148.2090 C   0  0  0  0  0  3  0  0  0  0  0  0
  161.7430  209.4050  150.5910 C   0  0  0  0  0  0  0  0  0  0  0  0
  161.6210  208.6790  151.7940 N   0  0  0  0  0  0  0  0  0  0  0  0
  162.1710  211.2980  149.1670 C   0  0  0  0  0  0  0  0  0  0  0  0
  162.5410  204.7250  147.4360 N   0  0  0  0  0  2  0  0  0  0  0  0
  160.5910  206.0090  147.3910 O   0  0  0  0  0  0  0  0  0  0  0  0
  161.6400  205.6700  148.0120 C   0  0  0  0  0  0  0  0  0  0  0  0
  161.9370  206.2380  149.2890 N   0  0  0  0  0  2  0  0  0  0  0  0
  162.2670  204.0590  146.1700 C   0  0  1  0  0  3  0  0  0  0  0  0
  160.2080  202.0780  147.3670 O   0  0  0  0  0  1  0  0  0  0  0  0
  160.4340  204.3910  144.5230 C   0  0  0  0  0  1  0  0  0  0  0  0
  162.3390  202.5480  146.3620 C   0  0  0  0  0  2  0  0  0  0  0  0
  160.8350  202.4550  146.1750 C   0  0  2  0  0  0  0  0  0  0  0  0
  160.7600  203.9710  145.9550 C   0  0  1  0  0  3  0  0  0  0  0  0
  160.4560  201.5410  145.0080 C   0  0  0  0  0  2  0  0  0  0  0  0
  160.2070  200.2040  145.4820 N   0  0  0  0  0  0  0  0  0  0  0  0
  161.1900  199.4120  145.7030 C   0  0  0  0  0  2  0  0  0  0  0  0
  162.5410  212.6660  148.9600 N   0  0  0  0  0  2  0  0  0  0  0  0
  163.6700  214.4460  147.8900 O   0  0  0  0  0  1  0  0  0  0  0  0
  162.9370  213.2750  147.6880 C   0  0  2  0  0  3  0  0  0  0  0  0
  160.8150  212.9390  143.2390 C   0  0  0  0  0  0  0  0  0  0  0  0
  159.7200  213.1230  142.4540 N   0  0  0  0  0  0  0  0  0  0  0  0
  160.7650  213.3180  144.5860 C   0  0  0  0  0  0  0  0  0  0  0  0
  162.2550  212.2170  142.5340 Cl  0  0  0  0  0  0  0  0  0  0  0  0
  159.5790  213.9000  145.0770 C   0  0  0  0  0  0  0  0  0  0  0  0
  160.5840  214.1100  147.2650 C   0  0  0  0  0  3  0  0  0  0  0  0
  158.5790  213.6770  142.9470 C   0  0  0  0  0  3  0  0  0  0  0  0
  158.5140  214.0620  144.2480 N   0  0  0  0  0  0  0  0  0  0  0  0
  159.4940  214.2990  146.4120 C   0  0  0  0  0  3  0  0  0  0  0  0
  161.8500  213.1280  145.4500 C   0  0  0  0  0  3  0  0  0  0  0  0
  161.7620  213.5140  146.7900 C   0  0  0  0  0  0  0  0  0  0  0  0
  161.7330  209.2430  153.1350 C   0  0  0  0  0  2  0  0  0  0  0  0
  160.3480  209.4430  153.7480 C   0  0  0  0  0  2  0  0  0  0  0  0
  160.4480  209.9450  155.1990 C   0  0  2  0  0  3  0  0  0  0  0  0
  158.6160  213.2300  154.8130 O   0  0  0  0  0  0  0  0  0  0  0  0
  157.3790  212.7230  154.3660 C   0  0  1  0  0  3  0  0  0  0  0  0
  157.0470  211.4320  155.0870 C   0  0  0  0  0  0  0  0  0  0  0  0
  155.8640  211.0040  155.1510 O   0  0  0  0  0  0  0  0  0  0  0  0
  158.1250  210.6210  155.5760 N   0  0  0  0  0  2  0  0  0  0  0  0
  159.6040  212.2670  154.5140 C   0  0  0  0  0  2  0  0  0  0  0  0
  159.4980  211.1080  155.5180 C   0  0  2  0  0  3  0  0  0  0  0  0
  156.3060  213.7870  154.5850 C   0  0  0  0  0  2  0  0  0  0  0  0
  155.4300  213.8660  153.4280 N   0  0  0  0  0  1  0  0  0  0  0  0
  161.7710  210.1790  155.6280 O   0  0  0  0  0  0  0  0  0  0  0  0
  161.7040  210.6190  156.8710 O   0  0  0  0  0  1  0  0  0  0  0  0
  162.3080  206.3170  152.0700 C   0  0  0  0  0  2  0  0  0  0  0  0
  161.3520  204.1250  151.5190 C   0  0  0  0  0  3  0  0  0  0  0  0
  161.6980  205.0060  152.4610 C   0  0  0  0  0  3  0  0  0  0  0  0
  160.7500  202.8250  151.9190 C   0  0  0  0  0  2  0  0  0  0  0  0
  161.3040  201.7250  151.0370 C   0  0  0  0  0  1  0  0  0  0  0  0
  1  8  1  0  0  0  0
  1 51  1  6  0  0  0
  2 13  1  6  0  0  0
  2  1  1  0  0  0  0
  3  6  2  0  0  0  0
  3  9  1  0  0  0  0
  4  7  1  0  0  0  0
  5  2  1  0  0  0  0
  5  7  2  0  0  0  0
  6  5  1  0  0  0  0
  7  8  1  0  0  0  0
  8 37  1  0  0  0  0
  9  4  2  0  0  0  0
 10 12  1  0  0  0  0
 11 12  2  0  0  0  0
 12 13  1  0  0  0  0
 14 17  1  0  0  0  0
 14 10  1  1  0  0  0
 18 17  1  0  0  0  0
 18 15  1  1  0  0  0
 19 16  1  6  0  0  0
 19 14  1  0  0  0  0
 19 18  1  0  0  0  0
 20 21  1  0  0  0  0
 20 18  1  0  0  0  0
 21 22  2  0  0  0  0
 23  9  1  0  0  0  0
 25 24  1  1  0  0  0
 25 23  1  0  0  0  0
 26 28  1  0  0  0  0
 27 32  1  0  0  0  0
 27 26  2  0  0  0  0
 28 30  2  0  0  0  0
 28 35  1  0  0  0  0
 29 26  1  0  0  0  0
 30 34  1  0  0  0  0
 32 33  2  0  0  0  0
 33 30  1  0  0  0  0
 34 31  2  0  0  0  0
 35 36  2  0  0  0  0
 36 31  1  0  0  0  0
 36 25  1  0  0  0  0
 37 38  1  0  0  0  0
 39 38  1  6  0  0  0
 39 49  1  0  0  0  0
 41 47  1  1  0  0  0
 41 40  1  0  0  0  0
 41 42  1  0  0  0  0
 42 43  2  0  0  0  0
 42 44  1  0  0  0  0
 45 40  1  0  0  0  0
 45 46  1  0  0  0  0
 46 39  1  6  0  0  0
 46 44  1  0  0  0  0
 48 47  1  0  0  0  0
 49 50  1  0  0  0  0
 51 53  1  0  0  0  0
 52 54  1  0  0  0  0
 52 53  2  0  0  0  0
 55 54  1  0  0  0  0
M  END
>  <MODEL>
3

>  <REMARK>
 VINA RESULT:      -4.7      2.927      6.908
  Name = 
  16 active torsions:
  status: ('A' for Active; 'I' for Inactive)
    1  A    between atoms: N_2  and  C_16
    2  A    between atoms: C_3  and  N_7
    3  A    between atoms: C_4  and  C_27
    4  A    between atoms: C_5  and  C_35
    5  A    between atoms: C_6  and  N_52
    6  A    between atoms: C_10  and  C_26
    7  A    between atoms: C_16  and  C_42
    8  A    between atoms: O_18  and  C_30
    9  A    between atoms: C_27  and  C_49
   10  A    between atoms: C_30  and  C_44
   11  A    between atoms: C_30  and  C_48
   12  A    between atoms: C_36  and  C_54
   13  A    between atoms: C_36  and  N_55
   14  A    between atoms: C_43  and  C_44
   15  A    between atoms: C_43  and  N_50
   16  A    between atoms: C_53  and  N_55
                            x       y       z     vdW  Elec       q    Type
                         _______ _______ _______ _____ _____    ______ ____

>  <TORSDO>
F 16

$$$$
=
 OpenBabel11042423043D

 55 60  0  0  1  0  0  0  0  0999 V2000
  161.3910  211.1380  152.8830 C   0  0  2  0  0  3  0  0  0  0  0  0
  161.9020  210.7880  151.4470 C   0  0  1  0  0  3  0  0  0  0  0  0
  161.3220  207.1670  150.3070 C   0  0  0  0  0  3  0  0  0  0  0  0
  160.5890  207.5440  152.5970 C   0  0  0  0  0  3  0  0  0  0  0  0
  161.5330  209.3460  151.3020 C   0  0  0  0  0  0  0  0  0  0  0  0
  161.7210  208.5090  150.2020 C   0  0  0  0  0  3  0  0  0  0  0  0
  160.9910  208.8700  152.4660 C   0  0  0  0  0  0  0  0  0  0  0  0
  160.9000  209.8800  153.4470 N   0  0  0  0  0  0  0  0  0  0  0  0
  160.7590  206.6770  151.5010 C   0  0  0  0  0  0  0  0  0  0  0  0
  161.0510  212.4230  148.0920 N   0  0  0  0  0  2  0  0  0  0  0  0
  162.7710  210.9740  148.7230 O   0  0  0  0  0  0  0  0  0  0  0  0
  161.7470  211.6380  149.0590 C   0  0  0  0  0  0  0  0  0  0  0  0
  161.2730  211.5980  150.4060 N   0  0  0  0  0  2  0  0  0  0  0  0
  161.5180  212.5600  146.7190 C   0  0  1  0  0  3  0  0  0  0  0  0
  159.0340  214.1470  145.7650 O   0  0  0  0  0  1  0  0  0  0  0  0
  162.6910  214.4330  145.5810 C   0  0  0  0  0  1  0  0  0  0  0  0
  160.3990  212.1700  145.7580 C   0  0  0  0  0  2  0  0  0  0  0  0
  160.2580  213.6220  145.3380 C   0  0  2  0  0  0  0  0  0  0  0  0
  161.4010  214.0160  146.2820 C   0  0  1  0  0  3  0  0  0  0  0  0
  160.4740  213.8090  143.8340 C   0  0  0  0  0  2  0  0  0  0  0  0
  159.3060  213.3850  143.1060 N   0  0  0  0  0  0  0  0  0  0  0  0
  159.4350  212.8520  141.9470 C   0  0  0  0  0  2  0  0  0  0  0  0
  160.3570  205.3050  151.5650 N   0  0  0  0  0  2  0  0  0  0  0  0
  162.5730  204.4940  151.7160 O   0  0  0  0  0  1  0  0  0  0  0  0
  161.2410  204.1370  151.4950 C   0  0  2  0  0  3  0  0  0  0  0  0
  161.2370  204.0780  146.5550 C   0  0  0  0  0  0  0  0  0  0  0  0
  161.1330  203.3700  145.3990 N   0  0  0  0  0  0  0  0  0  0  0  0
  161.0980  203.4160  147.7810 C   0  0  0  0  0  0  0  0  0  0  0  0
  161.5560  205.8050  146.4690 Cl  0  0  0  0  0  0  0  0  0  0  0  0
  160.8330  202.0320  147.7690 C   0  0  0  0  0  0  0  0  0  0  0  0
  160.7990  202.0150  150.1860 C   0  0  0  0  0  3  0  0  0  0  0  0
  160.8870  202.0330  145.4070 C   0  0  0  0  0  3  0  0  0  0  0  0
  160.7370  201.3730  146.5840 N   0  0  0  0  0  0  0  0  0  0  0  0
  160.6780  201.3370  148.9700 C   0  0  0  0  0  3  0  0  0  0  0  0
  161.2210  204.0850  149.0040 C   0  0  0  0  0  3  0  0  0  0  0  0
  161.0810  203.3890  150.2070 C   0  0  0  0  0  0  0  0  0  0  0  0
  160.4720  209.6790  154.8280 C   0  0  0  0  0  2  0  0  0  0  0  0
  161.6810  209.6160  155.7580 C   0  0  0  0  0  2  0  0  0  0  0  0
  161.4640  210.4770  157.0140 C   0  0  2  0  0  3  0  0  0  0  0  0
  158.5460  212.8800  157.1000 O   0  0  0  0  0  0  0  0  0  0  0  0
  157.9900  212.5710  155.8420 C   0  0  1  0  0  3  0  0  0  0  0  0
  158.0980  211.0840  155.5680 C   0  0  0  0  0  0  0  0  0  0  0  0
  157.3560  210.5190  154.7220 O   0  0  0  0  0  0  0  0  0  0  0  0
  159.1640  210.3480  156.1840 N   0  0  0  0  0  2  0  0  0  0  0  0
  159.9080  212.5140  157.0640 C   0  0  0  0  0  2  0  0  0  0  0  0
  160.0250  210.9860  157.1740 C   0  0  2  0  0  3  0  0  0  0  0  0
  156.5390  213.0480  155.8170 C   0  0  0  0  0  2  0  0  0  0  0  0
  156.4160  214.2470  155.0040 N   0  0  0  0  0  1  0  0  0  0  0  0
  162.4300  211.4910  157.1800 O   0  0  0  0  0  0  0  0  0  0  0  0
  163.5390  211.0700  156.6000 O   0  0  0  0  0  1  0  0  0  0  0  0
  160.3170  212.2380  152.9670 C   0  0  0  0  0  2  0  0  0  0  0  0
  158.5030  213.0390  151.5230 C   0  0  0  0  0  3  0  0  0  0  0  0
  159.1850  212.0030  152.0170 C   0  0  0  0  0  3  0  0  0  0  0  0
  157.3810  212.7950  150.5770 C   0  0  0  0  0  2  0  0  0  0  0  0
  156.3820  213.9280  150.6810 C   0  0  0  0  0  1  0  0  0  0  0  0
  1 51  1  6  0  0  0
  1  8  1  0  0  0  0
  2 13  1  6  0  0  0
  2  1  1  0  0  0  0
  3  9  1  0  0  0  0
  5  2  1  0  0  0  0
  5  7  2  0  0  0  0
  6  3  2  0  0  0  0
  6  5  1  0  0  0  0
  7  4  1  0  0  0  0
  7  8  1  0  0  0  0
  8 37  1  0  0  0  0
  9 23  1  0  0  0  0
  9  4  2  0  0  0  0
 10 12  1  0  0  0  0
 11 12  2  0  0  0  0
 12 13  1  0  0  0  0
 14 10  1  1  0  0  0
 17 14  1  0  0  0  0
 18 17  1  0  0  0  0
 18 15  1  1  0  0  0
 18 19  1  0  0  0  0
 19 16  1  6  0  0  0
 19 14  1  0  0  0  0
 20 18  1  0  0  0  0
 21 20  1  0  0  0  0
 22 21  2  0  0  0  0
 25 23  1  0  0  0  0
 25 24  1  6  0  0  0
 26 28  1  0  0  0  0
 27 32  1  0  0  0  0
 27 26  2  0  0  0  0
 28 35  1  0  0  0  0
 29 26  1  0  0  0  0
 30 28  2  0  0  0  0
 30 34  1  0  0  0  0
 31 36  1  0  0  0  0
 32 33  2  0  0  0  0
 33 30  1  0  0  0  0
 34 31  2  0  0  0  0
 35 36  2  0  0  0  0
 36 25  1  0  0  0  0
 37 38  1  0  0  0  0
 39 38  1  6  0  0  0
 39 49  1  0  0  0  0
 41 47  1  1  0  0  0
 41 40  1  0  0  0  0
 42 41  1  0  0  0  0
 42 44  1  0  0  0  0
 43 42  2  0  0  0  0
 44 46  1  0  0  0  0
 45 40  1  0  0  0  0
 45 46  1  0  0  0  0
 46 39  1  6  0  0  0
 48 47  1  0  0  0  0
 50 49  1  0  0  0  0
 52 53  2  0  0  0  0
 53 51  1  0  0  0  0
 54 55  1  0  0  0  0
 54 52  1  0  0  0  0
M  END
>  <MODEL>
4

>  <REMARK>
 VINA RESULT:      -4.6      2.708      9.951
  Name = 
  16 active torsions:
  status: ('A' for Active; 'I' for Inactive)
    1  A    between atoms: N_2  and  C_16
    2  A    between atoms: C_3  and  N_7
    3  A    between atoms: C_4  and  C_27
    4  A    between atoms: C_5  and  C_35
    5  A    between atoms: C_6  and  N_52
    6  A    between atoms: C_10  and  C_26
    7  A    between atoms: C_16  and  C_42
    8  A    between atoms: O_18  and  C_30
    9  A    between atoms: C_27  and  C_49
   10  A    between atoms: C_30  and  C_44
   11  A    between atoms: C_30  and  C_48
   12  A    between atoms: C_36  and  C_54
   13  A    between atoms: C_36  and  N_55
   14  A    between atoms: C_43  and  C_44
   15  A    between atoms: C_43  and  N_50
   16  A    between atoms: C_53  and  N_55
                            x       y       z     vdW  Elec       q    Type
                         _______ _______ _______ _____ _____    ______ ____

>  <TORSDO>
F 16

$$$$
=
 OpenBabel11042423043D

 55 60  0  0  1  0  0  0  0  0999 V2000
  161.4230  207.8670  149.5050 C   0  0  2  0  0  3  0  0  0  0  0  0
  161.0590  209.3870  149.5530 C   0  0  1  0  0  3  0  0  0  0  0  0
  160.9690  210.9730  153.0490 C   0  0  0  0  0  3  0  0  0  0  0  0
  161.4290  208.5840  153.1290 C   0  0  0  0  0  3  0  0  0  0  0  0
  161.1110  209.6990  151.0140 C   0  0  0  0  0  0  0  0  0  0  0  0
  160.9000  210.9240  151.6480 C   0  0  0  0  0  3  0  0  0  0  0  0
  161.3580  208.5640  151.7390 C   0  0  0  0  0  0  0  0  0  0  0  0
  161.5320  207.4410  150.9010 N   0  0  0  0  0  0  0  0  0  0  0  0
  161.2290  209.8070  153.7960 C   0  0  0  0  0  0  0  0  0  0  0  0
  162.6070  212.2270  147.5050 N   0  0  0  0  0  2  0  0  0  0  0  0
  160.4230  211.8550  148.2420 O   0  0  0  0  0  0  0  0  0  0  0  0
  161.6200  211.4510  148.1830 C   0  0  0  0  0  0  0  0  0  0  0  0
  161.9970  210.2200  148.8040 N   0  0  0  0  0  2  0  0  0  0  0  0
  162.2790  213.4550  146.7950 C   0  0  1  0  0  3  0  0  0  0  0  0
  161.8610  212.0630  144.0600 O   0  0  0  0  0  1  0  0  0  0  0  0
  160.0790  214.4530  146.2060 C   0  0  0  0  0  1  0  0  0  0  0  0
  163.0920  213.5340  145.5070 C   0  0  0  0  0  2  0  0  0  0  0  0
  161.8270  213.3070  144.6990 C   0  0  2  0  0  0  0  0  0  0  0  0
  161.0000  213.2540  145.9900 C   0  0  1  0  0  3  0  0  0  0  0  0
  161.5560  214.4530  143.7200 C   0  0  0  0  0  2  0  0  0  0  0  0
  160.5370  214.0730  142.7760 N   0  0  0  0  0  0  0  0  0  0  0  0
  160.7200  214.2750  141.5240 C   0  0  0  0  0  2  0  0  0  0  0  0
  161.2980  209.9000  155.2230 N   0  0  0  0  0  2  0  0  0  0  0  0
  162.2760  210.7640  157.1940 O   0  0  0  0  0  1  0  0  0  0  0  0
  161.6350  211.0970  156.0000 C   0  0  2  0  0  3  0  0  0  0  0  0
  156.7380  211.7500  155.8970 C   0  0  0  0  0  0  0  0  0  0  0  0
  155.6620  212.5340  156.1710 N   0  0  0  0  0  0  0  0  0  0  0  0
  158.0250  212.2260  156.1800 C   0  0  0  0  0  0  0  0  0  0  0  0
  156.4740  210.1540  155.2070 Cl  0  0  0  0  0  0  0  0  0  0  0  0
  158.1570  213.5190  156.7230 C   0  0  0  0  0  0  0  0  0  0  0  0
  160.5590  213.2580  156.7680 C   0  0  0  0  0  3  0  0  0  0  0  0
  155.8080  213.7770  156.7050 C   0  0  0  0  0  3  0  0  0  0  0  0
  157.0470  214.2620  156.9760 N   0  0  0  0  0  0  0  0  0  0  0  0
  159.4230  214.0340  157.0100 C   0  0  0  0  0  3  0  0  0  0  0  0
  159.1680  211.4540  155.9450 C   0  0  0  0  0  3  0  0  0  0  0  0
  160.4360  211.9620  156.2450 C   0  0  0  0  0  0  0  0  0  0  0  0
  161.7000  206.0660  151.3580 C   0  0  0  0  0  2  0  0  0  0  0  0
  161.1050  205.0900  150.3460 C   0  0  0  0  0  2  0  0  0  0  0  0
  161.2260  203.6360  150.8340 C   0  0  2  0  0  3  0  0  0  0  0  0
  161.4510  200.5070  148.7230 O   0  0  0  0  0  0  0  0  0  0  0  0
  160.7900  200.9880  147.5740 C   0  0  1  0  0  3  0  0  0  0  0  0
  161.1590  202.4360  147.3200 C   0  0  0  0  0  0  0  0  0  0  0  0
  161.0170  202.9580  146.1830 O   0  0  0  0  0  0  0  0  0  0  0  0
  161.5410  203.2540  148.4360 N   0  0  0  0  0  2  0  0  0  0  0  0
  161.0260  201.2910  149.8170 C   0  0  0  0  0  2  0  0  0  0  0  0
  161.7200  202.6610  149.7570 C   0  0  2  0  0  3  0  0  0  0  0  0
  161.1530  200.0940  146.3910 C   0  0  0  0  0  2  0  0  0  0  0  0
  160.4120  200.4970  145.2070 N   0  0  0  0  0  1  0  0  0  0  0  0
  160.0840  203.1710  151.5180 O   0  0  0  0  0  0  0  0  0  0  0  0
  160.4490  202.9290  152.7640 O   0  0  0  0  0  1  0  0  0  0  0  0
  162.6920  207.5020  148.7160 C   0  0  0  0  0  2  0  0  0  0  0  0
  161.1120  206.6080  147.0660 C   0  0  0  0  0  3  0  0  0  0  0  0
  162.3820  206.8060  147.4270 C   0  0  0  0  0  3  0  0  0  0  0  0
  160.8150  205.9180  145.7810 C   0  0  0  0  0  2  0  0  0  0  0  0
  162.0920  205.7870  144.9770 C   0  0  0  0  0  1  0  0  0  0  0  0
  1 51  1  6  0  0  0
  1  2  1  0  0  0  0
  1  8  1  0  0  0  0
  2 13  1  6  0  0  0
  2  5  1  0  0  0  0
  3  9  1  0  0  0  0
  4  9  2  0  0  0  0
  5  6  1  0  0  0  0
  5  7  2  0  0  0  0
  6  3  2  0  0  0  0
  7  4  1  0  0  0  0
  8 37  1  0  0  0  0
  8  7  1  0  0  0  0
  9 23  1  0  0  0  0
 10 12  1  0  0  0  0
 12 11  2  0  0  0  0
 12 13  1  0  0  0  0
 14 10  1  1  0  0  0
 17 14  1  0  0  0  0
 18 15  1  6  0  0  0
 18 17  1  0  0  0  0
 18 19  1  0  0  0  0
 19 16  1  6  0  0  0
 19 14  1  0  0  0  0
 20 18  1  0  0  0  0
 21 20  1  0  0  0  0
 22 21  2  0  0  0  0
 23 25  1  0  0  0  0
 25 36  1  0  0  0  0
 25 24  1  1  0  0  0
 26 27  2  0  0  0  0
 26 28  1  0  0  0  0
 27 32  1  0  0  0  0
 28 30  1  0  0  0  0
 29 26  1  0  0  0  0
 30 33  1  0  0  0  0
 30 34  2  0  0  0  0
 31 34  1  0  0  0  0
 32 33  2  0  0  0  0
 35 28  2  0  0  0  0
 35 36  1  0  0  0  0
 36 31  2  0  0  0  0
 38 37  1  0  0  0  0
 39 38  1  6  0  0  0
 39 49  1  0  0  0  0
 40 45  1  0  0  0  0
 41 47  1  6  0  0  0
 41 40  1  0  0  0  0
 42 41  1  0  0  0  0
 42 44  1  0  0  0  0
 43 42  2  0  0  0  0
 44 46  1  0  0  0  0
 46 45  1  0  0  0  0
 46 39  1  1  0  0  0
 48 47  1  0  0  0  0
 49 50  1  0  0  0  0
 52 53  2  0  0  0  0
 53 51  1  0  0  0  0
 54 52  1  0  0  0  0
 55 54  1  0  0  0  0
M  END
>  <MODEL>
5

>  <REMARK>
 VINA RESULT:      -4.5      2.194      8.286
  Name = 
  16 active torsions:
  status: ('A' for Active; 'I' for Inactive)
    1  A    between atoms: N_2  and  C_16
    2  A    between atoms: C_3  and  N_7
    3  A    between atoms: C_4  and  C_27
    4  A    between atoms: C_5  and  C_35
    5  A    between atoms: C_6  and  N_52
    6  A    between atoms: C_10  and  C_26
    7  A    between atoms: C_16  and  C_42
    8  A    between atoms: O_18  and  C_30
    9  A    between atoms: C_27  and  C_49
   10  A    between atoms: C_30  and  C_44
   11  A    between atoms: C_30  and  C_48
   12  A    between atoms: C_36  and  C_54
   13  A    between atoms: C_36  and  N_55
   14  A    between atoms: C_43  and  C_44
   15  A    between atoms: C_43  and  N_50
   16  A    between atoms: C_53  and  N_55
                            x       y       z     vdW  Elec       q    Type
                         _______ _______ _______ _____ _____    ______ ____

>  <TORSDO>
F 16

$$$$
=
 OpenBabel11042423043D

 55 60  0  0  1  0  0  0  0  0999 V2000
  161.2390  207.6090  151.5910 C   0  0  2  0  0  3  0  0  0  0  0  0
  161.0550  207.4290  150.0490 C   0  0  1  0  0  3  0  0  0  0  0  0
  161.7710  210.5370  147.9100 C   0  0  0  0  0  3  0  0  0  0  0  0
  161.9770  210.9880  150.2930 C   0  0  0  0  0  3  0  0  0  0  0  0
  161.4040  208.7800  149.5100 C   0  0  0  0  0  0  0  0  0  0  0  0
  161.4450  209.1990  148.1800 C   0  0  0  0  0  3  0  0  0  0  0  0
  161.6550  209.6540  150.5330 C   0  0  0  0  0  0  0  0  0  0  0  0
  161.5520  209.0240  151.7910 N   0  0  0  0  0  0  0  0  0  0  0  0
  162.0340  211.4370  148.9610 C   0  0  0  0  0  0  0  0  0  0  0  0
  162.5810  204.7750  147.7500 N   0  0  0  0  0  2  0  0  0  0  0  0
  160.6130  206.0220  147.5920 O   0  0  0  0  0  0  0  0  0  0  0  0
  161.6580  205.7420  148.2490 C   0  0  0  0  0  0  0  0  0  0  0  0
  161.9270  206.3990  149.4890 N   0  0  0  0  0  2  0  0  0  0  0  0
  162.3360  204.0220  146.5290 C   0  0  1  0  0  3  0  0  0  0  0  0
  160.1600  202.2080  147.7830 O   0  0  0  0  0  1  0  0  0  0  0  0
  160.5850  204.2840  144.7820 C   0  0  0  0  0  1  0  0  0  0  0  0
  162.3460  202.5280  146.8390 C   0  0  0  0  0  2  0  0  0  0  0  0
  160.8490  202.4700  146.5930 C   0  0  2  0  0  0  0  0  0  0  0  0
  160.8370  203.9660  146.2540 C   0  0  1  0  0  3  0  0  0  0  0  0
  160.4850  201.4800  145.4840 C   0  0  0  0  0  2  0  0  0  0  0  0
  160.3660  200.1500  146.0220 N   0  0  0  0  0  0  0  0  0  0  0  0
  161.1900  199.2380  145.6580 C   0  0  0  0  0  2  0  0  0  0  0  0
  162.3700  212.7920  148.6440 N   0  0  0  0  0  2  0  0  0  0  0  0
  163.4910  214.4510  147.3860 O   0  0  0  0  0  1  0  0  0  0  0  0
  162.6710  213.3230  147.3110 C   0  0  2  0  0  3  0  0  0  0  0  0
  157.7600  213.8240  147.1130 C   0  0  0  0  0  0  0  0  0  0  0  0
  156.6480  214.1260  146.3900 N   0  0  0  0  0  0  0  0  0  0  0  0
  159.0120  213.8440  146.4860 C   0  0  0  0  0  0  0  0  0  0  0  0
  157.5860  213.4310  148.8170 Cl  0  0  0  0  0  0  0  0  0  0  0  0
  159.0710  214.1580  145.1140 C   0  0  0  0  0  0  0  0  0  0  0  0
  161.4730  213.8990  145.1540 C   0  0  0  0  0  3  0  0  0  0  0  0
  156.7250  214.4380  145.0680 C   0  0  0  0  0  3  0  0  0  0  0  0
  157.9280  214.4510  144.4390 N   0  0  0  0  0  0  0  0  0  0  0  0
  160.3000  214.1790  144.4510 C   0  0  0  0  0  3  0  0  0  0  0  0
  160.1940  213.5690  147.1830 C   0  0  0  0  0  3  0  0  0  0  0  0
  161.4260  213.6030  146.5250 C   0  0  0  0  0  0  0  0  0  0  0  0
  161.6510  209.6980  153.0820 C   0  0  0  0  0  2  0  0  0  0  0  0
  160.3500  210.4300  153.4040 C   0  0  0  0  0  2  0  0  0  0  0  0
  160.2620  210.7810  154.8990 C   0  0  2  0  0  3  0  0  0  0  0  0
  157.7230  213.5590  154.5350 O   0  0  0  0  0  0  0  0  0  0  0  0
  156.6030  212.7700  154.2000 C   0  0  1  0  0  3  0  0  0  0  0  0
  156.6150  211.4760  154.9890 C   0  0  0  0  0  0  0  0  0  0  0  0
  155.5640  210.8020  155.1570 O   0  0  0  0  0  0  0  0  0  0  0  0
  157.8760  210.9480  155.4240 N   0  0  0  0  0  2  0  0  0  0  0  0
  158.8780  212.8220  154.1970 C   0  0  0  0  0  2  0  0  0  0  0  0
  159.1000  211.7220  155.2460 C   0  0  2  0  0  3  0  0  0  0  0  0
  155.3360  213.5820  154.4610 C   0  0  0  0  0  2  0  0  0  0  0  0
  155.2460  213.9400  155.8660 N   0  0  0  0  0  1  0  0  0  0  0  0
  161.4900  211.1910  155.4570 O   0  0  0  0  0  0  0  0  0  0  0  0
  161.6350  210.5410  156.5970 O   0  0  0  0  0  1  0  0  0  0  0  0
  162.2980  206.7100  152.2540 C   0  0  0  0  0  2  0  0  0  0  0  0
  160.9760  207.0690  154.2900 C   0  0  0  0  0  3  0  0  0  0  0  0
  162.0640  206.5410  153.7230 C   0  0  0  0  0  3  0  0  0  0  0  0
  160.7520  206.8930  155.7500 C   0  0  0  0  0  2  0  0  0  0  0  0
  159.3530  207.3540  156.1000 C   0  0  0  0  0  1  0  0  0  0  0  0
  1  8  1  0  0  0  0
  1 51  1  6  0  0  0
  2 13  1  6  0  0  0
  2  1  1  0  0  0  0
  3  6  2  0  0  0  0
  3  9  1  0  0  0  0
  4  7  1  0  0  0  0
  5  2  1  0  0  0  0
  5  7  2  0  0  0  0
  6  5  1  0  0  0  0
  7  8  1  0  0  0  0
  8 37  1  0  0  0  0
  9  4  2  0  0  0  0
 10 12  1  0  0  0  0
 11 12  2  0  0  0  0
 12 13  1  0  0  0  0
 14 17  1  0  0  0  0
 14 10  1  1  0  0  0
 18 17  1  0  0  0  0
 18 15  1  1  0  0  0
 19 16  1  6  0  0  0
 19 14  1  0  0  0  0
 19 18  1  0  0  0  0
 20 21  1  0  0  0  0
 20 18  1  0  0  0  0
 22 21  2  0  0  0  0
 23  9  1  0  0  0  0
 25 24  1  1  0  0  0
 25 23  1  0  0  0  0
 26 29  1  0  0  0  0
 27 26  2  0  0  0  0
 28 26  1  0  0  0  0
 28 35  1  0  0  0  0
 30 28  2  0  0  0  0
 31 36  1  0  0  0  0
 32 27  1  0  0  0  0
 33 32  2  0  0  0  0
 33 30  1  0  0  0  0
 34 30  1  0  0  0  0
 34 31  2  0  0  0  0
 36 35  2  0  0  0  0
 36 25  1  0  0  0  0
 37 38  1  0  0  0  0
 39 38  1  6  0  0  0
 39 49  1  0  0  0  0
 41 47  1  1  0  0  0
 41 40  1  0  0  0  0
 41 42  1  0  0  0  0
 42 43  2  0  0  0  0
 42 44  1  0  0  0  0
 45 40  1  0  0  0  0
 45 46  1  0  0  0  0
 46 39  1  6  0  0  0
 46 44  1  0  0  0  0
 47 48  1  0  0  0  0
 49 50  1  0  0  0  0
 51 53  1  0  0  0  0
 52 54  1  0  0  0  0
 53 52  2  0  0  0  0
 54 55  1  0  0  0  0
M  END
>  <MODEL>
6

>  <REMARK>
 VINA RESULT:      -3.7      2.351      6.570
  Name = 
  16 active torsions:
  status: ('A' for Active; 'I' for Inactive)
    1  A    between atoms: N_2  and  C_16
    2  A    between atoms: C_3  and  N_7
    3  A    between atoms: C_4  and  C_27
    4  A    between atoms: C_5  and  C_35
    5  A    between atoms: C_6  and  N_52
    6  A    between atoms: C_10  and  C_26
    7  A    between atoms: C_16  and  C_42
    8  A    between atoms: O_18  and  C_30
    9  A    between atoms: C_27  and  C_49
   10  A    between atoms: C_30  and  C_44
   11  A    between atoms: C_30  and  C_48
   12  A    between atoms: C_36  and  C_54
   13  A    between atoms: C_36  and  N_55
   14  A    between atoms: C_43  and  C_44
   15  A    between atoms: C_43  and  N_50
   16  A    between atoms: C_53  and  N_55
                            x       y       z     vdW  Elec       q    Type
                         _______ _______ _______ _____ _____    ______ ____

>  <TORSDO>
F 16

$$$$
=
 OpenBabel11042423043D

 55 60  0  0  1  0  0  0  0  0999 V2000
  159.5560  214.4530  147.8590 C   0  0  2  0  0  3  0  0  0  0  0  0
  160.8910  214.2230  147.0800 C   0  0  1  0  0  3  0  0  0  0  0  0
  163.0240  211.2560  148.2620 C   0  0  0  0  0  3  0  0  0  0  0  0
  161.0380  211.5720  149.6340 C   0  0  0  0  0  3  0  0  0  0  0  0
  161.4740  213.0250  147.7580 C   0  0  0  0  0  0  0  0  0  0  0  0
  162.6570  212.3480  147.4600 C   0  0  0  0  0  3  0  0  0  0  0  0
  160.6960  212.6490  148.8210 C   0  0  0  0  0  0  0  0  0  0  0  0
  159.5560  213.4710  148.9450 N   0  0  0  0  0  0  0  0  0  0  0  0
  162.2220  210.8650  149.3520 C   0  0  0  0  0  0  0  0  0  0  0  0
  161.4440  213.3280  143.3990 N   0  0  0  0  0  2  0  0  0  0  0  0
  162.9250  213.4960  145.1970 O   0  0  0  0  0  0  0  0  0  0  0  0
  161.7390  213.5970  144.7690 C   0  0  0  0  0  0  0  0  0  0  0  0
  160.6820  213.9710  145.6560 N   0  0  0  0  0  2  0  0  0  0  0  0
  162.4810  213.0080  142.4290 C   0  0  1  0  0  3  0  0  0  0  0  0
  160.5820  211.4630  140.5300 O   0  0  0  0  0  1  0  0  0  0  0  0
  163.1090  214.1180  140.2950 C   0  0  0  0  0  1  0  0  0  0  0  0
  162.4150  211.5230  142.0820 C   0  0  0  0  0  2  0  0  0  0  0  0
  161.9090  211.8730  140.6940 C   0  0  2  0  0  0  0  0  0  0  0  0
  162.0000  213.3680  141.0280 C   0  0  1  0  0  3  0  0  0  0  0  0
  162.8230  211.3270  139.5940 C   0  0  0  0  0  2  0  0  0  0  0  0
  162.0480  210.6260  138.6040 N   0  0  0  0  0  0  0  0  0  0  0  0
  162.3620  210.7190  137.3640 C   0  0  0  0  0  2  0  0  0  0  0  0
  162.6270  209.7420  150.1420 N   0  0  0  0  0  2  0  0  0  0  0  0
  162.1730  208.8050  152.2640 O   0  0  0  0  0  1  0  0  0  0  0  0
  161.7500  208.8770  150.9360 C   0  0  2  0  0  3  0  0  0  0  0  0
  161.0970  204.0090  151.4690 C   0  0  0  0  0  0  0  0  0  0  0  0
  160.9270  202.7880  150.8970 N   0  0  0  0  0  0  0  0  0  0  0  0
  161.2810  205.1310  150.6510 C   0  0  0  0  0  0  0  0  0  0  0  0
  161.0680  204.1390  153.2220 Cl  0  0  0  0  0  0  0  0  0  0  0  0
  161.3030  204.9460  149.2540 C   0  0  0  0  0  0  0  0  0  0  0  0
  161.6500  207.3170  148.9430 C   0  0  0  0  0  3  0  0  0  0  0  0
  160.9410  202.6290  149.5460 C   0  0  0  0  0  3  0  0  0  0  0  0
  161.1290  203.7010  148.7350 N   0  0  0  0  0  0  0  0  0  0  0  0
  161.4940  206.0380  148.4050 C   0  0  0  0  0  3  0  0  0  0  0  0
  161.4340  206.4170  151.1800 C   0  0  0  0  0  3  0  0  0  0  0  0
  161.6100  207.5130  150.3310 C   0  0  0  0  0  0  0  0  0  0  0  0
  158.5850  213.4090  150.0330 C   0  0  0  0  0  2  0  0  0  0  0  0
  159.2970  213.3970  151.3840 C   0  0  0  0  0  2  0  0  0  0  0  0
  158.3610  213.8660  152.5110 C   0  0  2  0  0  3  0  0  0  0  0  0
  158.8700  210.7320  154.5640 O   0  0  0  0  0  0  0  0  0  0  0  0
  159.9570  211.1750  155.3460 C   0  0  1  0  0  3  0  0  0  0  0  0
  159.7830  212.6350  155.7140 C   0  0  0  0  0  0  0  0  0  0  0  0
  160.3920  213.1400  156.6920 O   0  0  0  0  0  0  0  0  0  0  0  0
  159.0200  213.4770  154.8370 N   0  0  0  0  0  2  0  0  0  0  0  0
  158.8530  211.5060  153.3840 C   0  0  0  0  0  2  0  0  0  0  0  0
  158.3000  212.9040  153.7050 C   0  0  2  0  0  3  0  0  0  0  0  0
  160.0620  210.2870  156.5850 C   0  0  0  0  0  2  0  0  0  0  0  0
  160.1950  208.8930  156.1970 N   0  0  0  0  0  1  0  0  0  0  0  0
  157.0860  214.2660  152.0590 O   0  0  0  0  0  0  0  0  0  0  0  0
  156.3240  214.4130  153.1280 O   0  0  0  0  0  1  0  0  0  0  0  0
  158.2640  214.3580  147.0280 C   0  0  0  0  0  2  0  0  0  0  0  0
  158.4320  213.7050  144.6690 C   0  0  0  0  0  3  0  0  0  0  0  0
  158.3570  213.3260  145.9470 C   0  0  0  0  0  3  0  0  0  0  0  0
  158.5270  212.6710  143.6030 C   0  0  0  0  0  2  0  0  0  0  0  0
  158.3750  213.3330  142.2490 C   0  0  0  0  0  1  0  0  0  0  0  0
  1 51  1  6  0  0  0
  1  8  1  0  0  0  0
  2 13  1  6  0  0  0
  2  5  1  0  0  0  0
  2  1  1  0  0  0  0
  3  9  1  0  0  0  0
  5  7  2  0  0  0  0
  6  5  1  0  0  0  0
  6  3  2  0  0  0  0
  7  8  1  0  0  0  0
  7  4  1  0  0  0  0
  8 37  1  0  0  0  0
  9  4  2  0  0  0  0
  9 23  1  0  0  0  0
 10 12  1  0  0  0  0
 12 11  2  0  0  0  0
 12 13  1  0  0  0  0
 14 10  1  1  0  0  0
 17 14  1  0  0  0  0
 18 15  1  6  0  0  0
 18 19  1  0  0  0  0
 18 17  1  0  0  0  0
 19 16  1  6  0  0  0
 19 14  1  0  0  0  0
 20 18  1  0  0  0  0
 21 20  1  0  0  0  0
 22 21  2  0  0  0  0
 23 25  1  0  0  0  0
 25 24  1  1  0  0  0
 26 29  1  0  0  0  0
 27 26  1  0  0  0  0
 28 35  1  0  0  0  0
 28 26  2  0  0  0  0
 30 28  1  0  0  0  0
 31 36  1  0  0  0  0
 32 27  2  0  0  0  0
 33 30  2  0  0  0  0
 33 32  1  0  0  0  0
 34 31  2  0  0  0  0
 34 30  1  0  0  0  0
 36 25  1  0  0  0  0
 36 35  2  0  0  0  0
 37 38  1  0  0  0  0
 39 38  1  6  0  0  0
 40 41  1  0  0  0  0
 41 42  1  0  0  0  0
 41 47  1  1  0  0  0
 42 43  2  0  0  0  0
 44 42  1  0  0  0  0
 45 46  1  0  0  0  0
 45 40  1  0  0  0  0
 46 39  1  6  0  0  0
 46 44  1  0  0  0  0
 48 47  1  0  0  0  0
 49 39  1  0  0  0  0
 49 50  1  0  0  0  0
 52 53  2  0  0  0  0
 53 51  1  0  0  0  0
 54 52  1  0  0  0  0
 55 54  1  0  0  0  0
M  END
>  <MODEL>
7

>  <REMARK>
 VINA RESULT:      -3.2      3.742      9.633
  Name = 
  16 active torsions:
  status: ('A' for Active; 'I' for Inactive)
    1  A    between atoms: N_2  and  C_16
    2  A    between atoms: C_3  and  N_7
    3  A    between atoms: C_4  and  C_27
    4  A    between atoms: C_5  and  C_35
    5  A    between atoms: C_6  and  N_52
    6  A    between atoms: C_10  and  C_26
    7  A    between atoms: C_16  and  C_42
    8  A    between atoms: O_18  and  C_30
    9  A    between atoms: C_27  and  C_49
   10  A    between atoms: C_30  and  C_44
   11  A    between atoms: C_30  and  C_48
   12  A    between atoms: C_36  and  C_54
   13  A    between atoms: C_36  and  N_55
   14  A    between atoms: C_43  and  C_44
   15  A    between atoms: C_43  and  N_50
   16  A    between atoms: C_53  and  N_55
                            x       y       z     vdW  Elec       q    Type
                         _______ _______ _______ _____ _____    ______ ____

>  <TORSDO>
F 16

$$$$
