=
 OpenBabel11052411193D

 31 33  0  0  1  0  0  0  0  0999 V2000
  160.6970  210.2030  153.4710 C   0  0  1  0  0  3  0  0  0  0  0  0
  161.8380  208.9620  156.5160 C   0  0  0  0  0  2  0  0  0  0  0  0
  162.1660  210.0800  155.5170 C   0  0  2  0  0  3  0  0  0  0  0  0
  160.4310  208.9570  156.6460 O   0  0  0  0  0  0  0  0  0  0  0  0
  162.8100  211.1200  156.1840 O   0  0  0  0  0  1  0  0  0  0  0  0
  158.6050  210.0500  155.7440 O   0  0  0  0  0  0  0  0  0  0  0  0
  159.8490  209.8560  155.7830 C   0  0  0  0  0  0  0  0  0  0  0  0
  160.8330  210.5860  154.9520 C   0  0  2  0  0  3  0  0  0  0  0  0
  159.5820  212.1240  152.2500 C   0  0  0  0  0  0  0  0  0  0  0  0
  160.6690  211.4140  152.5730 C   0  0  0  0  0  3  0  0  0  0  0  0
  158.5000  213.7610  150.7200 C   0  0  0  0  0  2  0  0  0  0  0  0
  158.6500  213.6710  149.4070 C   0  0  0  0  0  3  0  0  0  0  0  0
  159.7820  213.2980  151.3360 C   0  0  2  0  0  3  0  0  0  0  0  0
  160.5810  212.9380  150.1760 N   0  0  0  0  0  2  0  0  0  0  0  0
  159.9400  213.1600  149.1050 N   0  0  0  0  0  0  0  0  0  0  0  0
  158.2520  211.7600  152.7830 C   0  0  0  0  0  3  0  0  0  0  0  0
  157.7440  212.3600  153.7660 O   0  0  0  0  0  0  0  0  0  0  0  0
  161.7680  209.2960  153.0690 N   0  0  0  0  0  2  0  0  0  0  0  0
  161.1720  208.1880  152.3320 C   0  0  1  0  0  3  0  0  0  0  0  0
  161.0140  206.3820  149.0470 C   0  0  0  0  0  2  0  0  0  0  0  0
  162.2510  207.4650  151.5130 C   0  0  2  0  0  3  0  0  0  0  0  0
  162.4660  208.1100  150.1360 C   0  0  0  0  0  2  0  0  0  0  0  0
  161.9460  205.9690  151.3500 C   0  0  0  0  0  2  0  0  0  0  0  0
  160.7560  205.7420  150.4090 C   0  0  2  0  0  3  0  0  0  0  0  0
  161.2720  207.8750  149.2130 C   0  0  0  0  0  2  0  0  0  0  0  0
  160.4040  204.2580  150.2660 C   0  0  1  0  0  3  0  0  0  0  0  0
  160.9860  203.6450  148.9990 C   0  0  0  0  0  1  0  0  0  0  0  0
  161.0500  202.2450  150.9220 C   0  0  0  0  0  1  0  0  0  0  0  0
  160.8480  203.5470  151.3830 O   0  0  0  0  0  0  0  0  0  0  0  0
  161.5690  206.5670  154.1910 C   0  0  0  0  0  1  0  0  0  0  0  0
  160.5190  207.2200  153.3130 C   0  0  0  0  0  2  0  0  0  0  0  0
  1 10  1  6  0  0  0
  2  4  1  0  0  0  0
  3  5  1  1  0  0  0
  3  2  1  0  0  0  0
  6  7  2  0  0  0  0
  7  4  1  0  0  0  0
  8  1  1  6  0  0  0
  8  3  1  0  0  0  0
  8  7  1  0  0  0  0
  9 10  2  0  0  0  0
  9 16  1  0  0  0  0
 11 13  1  0  0  0  0
 12 11  1  0  0  0  0
 13  9  1  1  0  0  0
 14 13  1  0  0  0  0
 15 12  2  0  0  0  0
 15 14  1  0  0  0  0
 16 17  2  0  0  0  0
 18  1  1  0  0  0  0
 19 18  1  0  0  0  0
 19 31  1  1  0  0  0
 20 25  1  0  0  0  0
 20 24  1  0  0  0  0
 21 19  1  6  0  0  0
 22 21  1  0  0  0  0
 23 21  1  0  0  0  0
 24 26  1  6  0  0  0
 24 23  1  0  0  0  0
 25 22  1  0  0  0  0
 26 27  1  6  0  0  0
 26 29  1  0  0  0  0
 28 29  1  0  0  0  0
 31 30  1  0  0  0  0
M  END
>  <MODEL>
1

>  <REMARK>
 VINA RESULT:      -6.2      0.000      0.000
  Name = 
  10 active torsions:
  status: ('A' for Active; 'I' for Inactive)
    1  A    between atoms: C_3  and  N_9
    2  A    between atoms: C_3  and  C_14
    3  A    between atoms: C_3  and  C_25
    4  A    between atoms: C_5  and  C_6
    5  A    between atoms: C_6  and  C_7
    6  A    between atoms: N_9  and  C_18
    7  A    between atoms: C_12  and  C_18
    8  A    between atoms: C_15  and  C_18
    9  A    between atoms: C_21  and  C_27
   10  A    between atoms: C_21  and  O_30
                            x       y       z     vdW  Elec       q    Type
                         _______ _______ _______ _____ _____    ______ ____

>  <TORSDO>
F 10

$$$$
=
 OpenBabel11052411193D

 31 33  0  0  1  0  0  0  0  0999 V2000
  161.1370  205.2770  148.0620 C   0  0  1  0  0  3  0  0  0  0  0  0
  160.9060  204.4760  144.6830 C   0  0  0  0  0  2  0  0  0  0  0  0
  160.4840  205.5930  145.6470 C   0  0  2  0  0  3  0  0  0  0  0  0
  162.2380  204.1490  145.0260 O   0  0  0  0  0  0  0  0  0  0  0  0
  160.3400  206.7850  144.9380 O   0  0  0  0  0  1  0  0  0  0  0  0
  163.8140  204.7430  146.6080 O   0  0  0  0  0  0  0  0  0  0  0  0
  162.6510  204.8460  146.1360 C   0  0  0  0  0  0  0  0  0  0  0  0
  161.6090  205.7480  146.6790 C   0  0  2  0  0  3  0  0  0  0  0  0
  160.5420  203.0850  149.1840 C   0  0  0  0  0  0  0  0  0  0  0  0
  160.9040  203.7880  148.1060 C   0  0  0  0  0  3  0  0  0  0  0  0
  161.6230  200.8450  149.2770 C   0  0  0  0  0  2  0  0  0  0  0  0
  161.9210  200.1850  148.1680 C   0  0  0  0  0  3  0  0  0  0  0  0
  160.3640  201.6050  149.0040 C   0  0  2  0  0  3  0  0  0  0  0  0
  160.0820  201.2690  147.6180 N   0  0  0  0  0  2  0  0  0  0  0  0
  160.9550  200.4670  147.1660 N   0  0  0  0  0  0  0  0  0  0  0  0
  160.3230  203.7490  150.4860 C   0  0  0  0  0  3  0  0  0  0  0  0
  160.6770  203.2180  151.5710 O   0  0  0  0  0  0  0  0  0  0  0  0
  162.0890  205.6740  149.0970 N   0  0  0  0  0  2  0  0  0  0  0  0
  161.5060  206.7800  149.8490 C   0  0  1  0  0  3  0  0  0  0  0  0
  160.9630  207.5190  153.4870 C   0  0  0  0  0  2  0  0  0  0  0  0
  162.4740  207.2250  150.9550 C   0  0  2  0  0  3  0  0  0  0  0  0
  162.5710  206.1970  152.0920 C   0  0  0  0  0  2  0  0  0  0  0  0
  162.1060  208.6040  151.5230 C   0  0  0  0  0  2  0  0  0  0  0  0
  160.8210  208.5370  152.3570 C   0  0  2  0  0  3  0  0  0  0  0  0
  161.2840  206.1440  152.9130 C   0  0  0  0  0  2  0  0  0  0  0  0
  160.4090  209.9100  152.8980 C   0  0  1  0  0  3  0  0  0  0  0  0
  160.9430  210.1640  154.3020 C   0  0  0  0  0  1  0  0  0  0  0  0
  160.0350  212.0170  152.3320 C   0  0  0  0  0  1  0  0  0  0  0  0
  160.8440  210.9180  152.0360 O   0  0  0  0  0  0  0  0  0  0  0  0
  162.5140  208.5630  148.4200 C   0  0  0  0  0  1  0  0  0  0  0  0
  161.2190  207.9400  148.9030 C   0  0  0  0  0  2  0  0  0  0  0  0
  1 10  1  6  0  0  0
  1 18  1  0  0  0  0
  2  4  1  0  0  0  0
  2  3  1  0  0  0  0
  3  5  1  6  0  0  0
  3  8  1  0  0  0  0
  4  7  1  0  0  0  0
  7  6  2  0  0  0  0
  7  8  1  0  0  0  0
  8  1  1  1  0  0  0
  9 16  1  0  0  0  0
 10  9  2  0  0  0  0
 12 11  1  0  0  0  0
 13  9  1  6  0  0  0
 13 11  1  0  0  0  0
 14 13  1  0  0  0  0
 15 14  1  0  0  0  0
 15 12  2  0  0  0  0
 16 17  2  0  0  0  0
 18 19  1  0  0  0  0
 19 31  1  6  0  0  0
 21 19  1  6  0  0  0
 21 23  1  0  0  0  0
 21 22  1  0  0  0  0
 22 25  1  0  0  0  0
 23 24  1  0  0  0  0
 24 26  1  1  0  0  0
 24 20  1  0  0  0  0
 25 20  1  0  0  0  0
 26 27  1  1  0  0  0
 29 28  1  0  0  0  0
 29 26  1  0  0  0  0
 30 31  1  0  0  0  0
M  END
>  <MODEL>
2

>  <REMARK>
 VINA RESULT:      -6.1      3.891      9.146
  Name = 
  10 active torsions:
  status: ('A' for Active; 'I' for Inactive)
    1  A    between atoms: C_3  and  N_9
    2  A    between atoms: C_3  and  C_14
    3  A    between atoms: C_3  and  C_25
    4  A    between atoms: C_5  and  C_6
    5  A    between atoms: C_6  and  C_7
    6  A    between atoms: N_9  and  C_18
    7  A    between atoms: C_12  and  C_18
    8  A    between atoms: C_15  and  C_18
    9  A    between atoms: C_21  and  C_27
   10  A    between atoms: C_21  and  O_30
                            x       y       z     vdW  Elec       q    Type
                         _______ _______ _______ _____ _____    ______ ____

>  <TORSDO>
F 10

$$$$
=
 OpenBabel11052411193D

 31 33  0  0  1  0  0  0  0  0999 V2000
  160.3260  209.8650  154.0470 C   0  0  1  0  0  3  0  0  0  0  0  0
  162.4120  209.9130  156.8320 C   0  0  0  0  0  2  0  0  0  0  0  0
  161.5060  210.8640  156.0390 C   0  0  2  0  0  3  0  0  0  0  0  0
  161.6890  208.7060  156.9630 O   0  0  0  0  0  0  0  0  0  0  0  0
  161.0760  211.8950  156.8720 O   0  0  0  0  0  1  0  0  0  0  0  0
  159.6770  207.8090  156.2640 O   0  0  0  0  0  0  0  0  0  0  0  0
  160.5040  208.7580  156.2670 C   0  0  0  0  0  0  0  0  0  0  0  0
  160.2940  210.0480  155.5700 C   0  0  2  0  0  3  0  0  0  0  0  0
  159.1890  211.9220  153.0990 C   0  0  0  0  0  0  0  0  0  0  0  0
  160.2830  211.1840  153.3160 C   0  0  0  0  0  3  0  0  0  0  0  0
  158.0750  213.7750  151.8670 C   0  0  0  0  0  2  0  0  0  0  0  0
  158.1570  213.8640  150.5480 C   0  0  0  0  0  3  0  0  0  0  0  0
  159.3730  213.2070  152.3460 C   0  0  2  0  0  3  0  0  0  0  0  0
  160.1050  212.9970  151.1070 N   0  0  0  0  0  2  0  0  0  0  0  0
  159.4180  213.3770  150.1120 N   0  0  0  0  0  0  0  0  0  0  0  0
  157.8660  211.4830  153.5920 C   0  0  0  0  0  3  0  0  0  0  0  0
  157.4230  211.8420  154.7140 O   0  0  0  0  0  0  0  0  0  0  0  0
  161.5000  209.0960  153.6410 N   0  0  0  0  0  2  0  0  0  0  0  0
  161.2370  208.5280  152.3240 C   0  0  1  0  0  3  0  0  0  0  0  0
  161.7390  208.9610  148.6310 C   0  0  0  0  0  2  0  0  0  0  0  0
  162.5100  208.5840  151.4680 C   0  0  2  0  0  3  0  0  0  0  0  0
  162.6670  209.9310  150.7470 C   0  0  0  0  0  2  0  0  0  0  0  0
  162.5740  207.4350  150.4510 C   0  0  0  0  0  2  0  0  0  0  0  0
  161.5390  207.6200  149.3350 C   0  0  2  0  0  3  0  0  0  0  0  0
  161.6300  210.1000  149.6380 C   0  0  0  0  0  2  0  0  0  0  0  0
  161.5540  206.4620  148.3320 C   0  0  1  0  0  3  0  0  0  0  0  0
  160.7880  205.2470  148.8400 C   0  0  0  0  0  1  0  0  0  0  0  0
  161.1810  205.7800  146.2600 C   0  0  0  0  0  1  0  0  0  0  0  0
  161.0250  206.8780  147.1080 O   0  0  0  0  0  0  0  0  0  0  0  0
  161.5040  206.4120  153.6240 C   0  0  0  0  0  1  0  0  0  0  0  0
  160.7710  207.0840  152.4790 C   0  0  0  0  0  2  0  0  0  0  0  0
  1 10  1  6  0  0  0
  2  4  1  0  0  0  0
  3  2  1  0  0  0  0
  3  5  1  1  0  0  0
  6  7  2  0  0  0  0
  7  4  1  0  0  0  0
  8  1  1  6  0  0  0
  8  3  1  0  0  0  0
  8  7  1  0  0  0  0
  9 10  2  0  0  0  0
  9 16  1  0  0  0  0
 11 13  1  0  0  0  0
 12 11  1  0  0  0  0
 13  9  1  6  0  0  0
 14 13  1  0  0  0  0
 15 12  2  0  0  0  0
 15 14  1  0  0  0  0
 16 17  2  0  0  0  0
 18  1  1  0  0  0  0
 19 31  1  1  0  0  0
 19 18  1  0  0  0  0
 20 24  1  0  0  0  0
 20 25  1  0  0  0  0
 21 19  1  6  0  0  0
 22 21  1  0  0  0  0
 23 21  1  0  0  0  0
 24 26  1  6  0  0  0
 24 23  1  0  0  0  0
 25 22  1  0  0  0  0
 26 27  1  1  0  0  0
 28 29  1  0  0  0  0
 29 26  1  0  0  0  0
 31 30  1  0  0  0  0
M  END
>  <MODEL>
3

>  <REMARK>
 VINA RESULT:      -5.8      1.649      2.072
  Name = 
  10 active torsions:
  status: ('A' for Active; 'I' for Inactive)
    1  A    between atoms: C_3  and  N_9
    2  A    between atoms: C_3  and  C_14
    3  A    between atoms: C_3  and  C_25
    4  A    between atoms: C_5  and  C_6
    5  A    between atoms: C_6  and  C_7
    6  A    between atoms: N_9  and  C_18
    7  A    between atoms: C_12  and  C_18
    8  A    between atoms: C_15  and  C_18
    9  A    between atoms: C_21  and  C_27
   10  A    between atoms: C_21  and  O_30
                            x       y       z     vdW  Elec       q    Type
                         _______ _______ _______ _____ _____    ______ ____

>  <TORSDO>
F 10

$$$$
=
 OpenBabel11052411193D

 31 33  0  0  1  0  0  0  0  0999 V2000
  160.8740  210.4750  153.7020 C   0  0  1  0  0  3  0  0  0  0  0  0
  162.1120  209.0110  156.6060 C   0  0  0  0  0  2  0  0  0  0  0  0
  162.2670  210.3050  155.7970 C   0  0  2  0  0  3  0  0  0  0  0  0
  160.7250  208.7410  156.6470 O   0  0  0  0  0  0  0  0  0  0  0  0
  162.6860  211.3310  156.6430 O   0  0  0  0  0  1  0  0  0  0  0  0
  158.7650  209.6200  155.7950 O   0  0  0  0  0  0  0  0  0  0  0  0
  160.0200  209.6430  155.8840 C   0  0  0  0  0  0  0  0  0  0  0  0
  160.8850  210.6490  155.2260 C   0  0  2  0  0  3  0  0  0  0  0  0
  159.2750  212.1960  152.7510 C   0  0  0  0  0  0  0  0  0  0  0  0
  160.5150  211.7540  152.9870 C   0  0  0  0  0  3  0  0  0  0  0  0
  157.9040  213.5640  151.1870 C   0  0  0  0  0  2  0  0  0  0  0  0
  158.2910  213.7620  149.9360 C   0  0  0  0  0  3  0  0  0  0  0  0
  159.1460  213.5010  152.0190 C   0  0  2  0  0  3  0  0  0  0  0  0
  160.2000  213.6640  151.0320 N   0  0  0  0  0  2  0  0  0  0  0  0
  159.7080  213.8180  149.8730 N   0  0  0  0  0  0  0  0  0  0  0  0
  158.0960  211.4280  153.2020 C   0  0  0  0  0  3  0  0  0  0  0  0
  157.3270  211.8580  154.1010 O   0  0  0  0  0  0  0  0  0  0  0  0
  162.1600  209.9710  153.2280 N   0  0  0  0  0  2  0  0  0  0  0  0
  161.9220  209.1720  152.0310 C   0  0  1  0  0  3  0  0  0  0  0  0
  161.8980  205.4240  151.8530 C   0  0  0  0  0  2  0  0  0  0  0  0
  160.8130  208.1450  152.3010 C   0  0  2  0  0  3  0  0  0  0  0  0
  161.1640  207.2010  153.4610 C   0  0  0  0  0  2  0  0  0  0  0  0
  160.4630  207.3300  151.0480 C   0  0  0  0  0  2  0  0  0  0  0  0
  161.5910  206.3570  150.6830 C   0  0  2  0  0  3  0  0  0  0  0  0
  162.2890  206.2390  153.0810 C   0  0  0  0  0  2  0  0  0  0  0  0
  161.2830  205.5640  149.4100 C   0  0  1  0  0  3  0  0  0  0  0  0
  160.8620  204.1310  149.7070 C   0  0  0  0  0  1  0  0  0  0  0  0
  160.7750  206.2340  147.3620 C   0  0  0  0  0  1  0  0  0  0  0  0
  160.2880  206.2070  148.6700 O   0  0  0  0  0  0  0  0  0  0  0  0
  162.2890  209.7310  149.6250 C   0  0  0  0  0  1  0  0  0  0  0  0
  161.5200  210.0900  150.8820 C   0  0  0  0  0  2  0  0  0  0  0  0
  1 10  1  6  0  0  0
  2  4  1  0  0  0  0
  3  2  1  0  0  0  0
  3  5  1  1  0  0  0
  6  7  2  0  0  0  0
  7  4  1  0  0  0  0
  8  1  1  6  0  0  0
  8  3  1  0  0  0  0
  8  7  1  0  0  0  0
  9 10  2  0  0  0  0
  9 16  1  0  0  0  0
 11 13  1  0  0  0  0
 12 11  1  0  0  0  0
 13  9  1  6  0  0  0
 14 13  1  0  0  0  0
 15 12  2  0  0  0  0
 15 14  1  0  0  0  0
 16 17  2  0  0  0  0
 18  1  1  0  0  0  0
 19 31  1  6  0  0  0
 19 18  1  0  0  0  0
 20 25  1  0  0  0  0
 21 19  1  6  0  0  0
 21 22  1  0  0  0  0
 23 21  1  0  0  0  0
 24 26  1  6  0  0  0
 24 23  1  0  0  0  0
 24 20  1  0  0  0  0
 25 22  1  0  0  0  0
 26 27  1  1  0  0  0
 28 29  1  0  0  0  0
 29 26  1  0  0  0  0
 30 31  1  0  0  0  0
M  END
>  <MODEL>
4

>  <REMARK>
 VINA RESULT:      -5.4      1.182      2.225
  Name = 
  10 active torsions:
  status: ('A' for Active; 'I' for Inactive)
    1  A    between atoms: C_3  and  N_9
    2  A    between atoms: C_3  and  C_14
    3  A    between atoms: C_3  and  C_25
    4  A    between atoms: C_5  and  C_6
    5  A    between atoms: C_6  and  C_7
    6  A    between atoms: N_9  and  C_18
    7  A    between atoms: C_12  and  C_18
    8  A    between atoms: C_15  and  C_18
    9  A    between atoms: C_21  and  C_27
   10  A    between atoms: C_21  and  O_30
                            x       y       z     vdW  Elec       q    Type
                         _______ _______ _______ _____ _____    ______ ____

>  <TORSDO>
F 10

$$$$
=
 OpenBabel11052411193D

 31 33  0  0  1  0  0  0  0  0999 V2000
  161.0220  208.5950  153.7180 C   0  0  1  0  0  3  0  0  0  0  0  0
  159.9340  209.1970  156.9680 C   0  0  0  0  0  2  0  0  0  0  0  0
  160.2660  208.0120  156.0520 C   0  0  2  0  0  3  0  0  0  0  0  0
  160.9630  210.1450  156.7670 O   0  0  0  0  0  0  0  0  0  0  0  0
  160.6280  206.9140  156.8300 O   0  0  0  0  0  1  0  0  0  0  0  0
  162.8390  210.4080  155.4420 O   0  0  0  0  0  0  0  0  0  0  0  0
  161.8240  209.7400  155.7740 C   0  0  0  0  0  0  0  0  0  0  0  0
  161.4560  208.4340  155.1810 C   0  0  2  0  0  3  0  0  0  0  0  0
  161.1990  206.4690  152.3500 C   0  0  0  0  0  0  0  0  0  0  0  0
  160.5070  207.3030  153.1330 C   0  0  0  0  0  3  0  0  0  0  0  0
  161.2090  203.9810  152.2670 C   0  0  0  0  0  2  0  0  0  0  0  0
  161.4950  203.3370  151.1460 C   0  0  0  0  0  3  0  0  0  0  0  0
  160.4890  205.2330  151.8770 C   0  0  2  0  0  3  0  0  0  0  0  0
  160.4730  205.1520  150.4250 N   0  0  0  0  0  2  0  0  0  0  0  0
  161.0300  204.0830  150.0310 N   0  0  0  0  0  0  0  0  0  0  0  0
  162.6000  206.7600  151.9810 C   0  0  0  0  0  3  0  0  0  0  0  0
  162.9150  207.1540  150.8270 O   0  0  0  0  0  0  0  0  0  0  0  0
  160.0190  209.6480  153.5870 N   0  0  0  0  0  2  0  0  0  0  0  0
  160.4280  210.5330  152.5030 C   0  0  1  0  0  3  0  0  0  0  0  0
  157.5680  212.9520  152.7320 C   0  0  0  0  0  2  0  0  0  0  0  0
  160.3630  211.9950  152.9700 C   0  0  2  0  0  3  0  0  0  0  0  0
  159.4510  212.1750  154.1920 C   0  0  0  0  0  2  0  0  0  0  0  0
  159.9240  212.9420  151.8430 C   0  0  0  0  0  2  0  0  0  0  0  0
  158.4430  212.7470  151.4970 C   0  0  2  0  0  3  0  0  0  0  0  0
  157.9800  211.9780  153.8290 C   0  0  0  0  0  2  0  0  0  0  0  0
  157.9940  213.6500  150.3450 C   0  0  1  0  0  3  0  0  0  0  0  0
  159.1510  214.0610  149.4440 C   0  0  0  0  0  1  0  0  0  0  0  0
  156.0910  214.0160  149.2740 C   0  0  0  0  0  1  0  0  0  0  0  0
  157.0090  213.0110  149.5880 O   0  0  0  0  0  0  0  0  0  0  0  0
  161.9820  210.2800  150.5640 C   0  0  0  0  0  1  0  0  0  0  0  0
  161.8470  210.1820  152.0710 C   0  0  0  0  0  2  0  0  0  0  0  0
  1 10  1  1  0  0  0
  3  5  1  1  0  0  0
  3  2  1  0  0  0  0
  4  2  1  0  0  0  0
  6  7  2  0  0  0  0
  7  4  1  0  0  0  0
  8  1  1  6  0  0  0
  8  7  1  0  0  0  0
  8  3  1  0  0  0  0
  9 10  2  0  0  0  0
 12 11  1  0  0  0  0
 13 11  1  0  0  0  0
 13  9  1  6  0  0  0
 14 13  1  0  0  0  0
 15 14  1  0  0  0  0
 15 12  2  0  0  0  0
 16  9  1  0  0  0  0
 17 16  2  0  0  0  0
 18  1  1  0  0  0  0
 19 31  1  1  0  0  0
 19 18  1  0  0  0  0
 20 25  1  0  0  0  0
 21 19  1  6  0  0  0
 21 22  1  0  0  0  0
 23 21  1  0  0  0  0
 24 26  1  6  0  0  0
 24 23  1  0  0  0  0
 24 20  1  0  0  0  0
 25 22  1  0  0  0  0
 26 27  1  6  0  0  0
 28 29  1  0  0  0  0
 29 26  1  0  0  0  0
 30 31  1  0  0  0  0
M  END
>  <MODEL>
5

>  <REMARK>
 VINA RESULT:      -5.3      2.248      6.915
  Name = 
  10 active torsions:
  status: ('A' for Active; 'I' for Inactive)
    1  A    between atoms: C_3  and  N_9
    2  A    between atoms: C_3  and  C_14
    3  A    between atoms: C_3  and  C_25
    4  A    between atoms: C_5  and  C_6
    5  A    between atoms: C_6  and  C_7
    6  A    between atoms: N_9  and  C_18
    7  A    between atoms: C_12  and  C_18
    8  A    between atoms: C_15  and  C_18
    9  A    between atoms: C_21  and  C_27
   10  A    between atoms: C_21  and  O_30
                            x       y       z     vdW  Elec       q    Type
                         _______ _______ _______ _____ _____    ______ ____

>  <TORSDO>
F 10

$$$$
=
 OpenBabel11052411193D

 31 33  0  0  1  0  0  0  0  0999 V2000
  161.5860  203.9380  149.4580 C   0  0  1  0  0  3  0  0  0  0  0  0
  159.5460  201.1290  149.2140 C   0  0  0  0  0  2  0  0  0  0  0  0
  160.8090  201.7100  148.5660 C   0  0  2  0  0  3  0  0  0  0  0  0
  159.6950  201.3280  150.6050 O   0  0  0  0  0  0  0  0  0  0  0  0
  161.5780  200.6730  148.0390 O   0  0  0  0  0  1  0  0  0  0  0  0
  161.1930  202.3160  152.0610 O   0  0  0  0  0  0  0  0  0  0  0  0
  160.8340  202.0450  150.8850 C   0  0  0  0  0  0  0  0  0  0  0  0
  161.6000  202.4180  149.6740 C   0  0  2  0  0  3  0  0  0  0  0  0
  161.4420  204.8880  147.1130 C   0  0  0  0  0  0  0  0  0  0  0  0
  160.8750  204.3230  148.1840 C   0  0  0  0  0  3  0  0  0  0  0  0
  160.6690  204.1730  144.8580 C   0  0  0  0  0  2  0  0  0  0  0  0
  161.0500  204.8220  143.7680 C   0  0  0  0  0  3  0  0  0  0  0  0
  160.5450  205.1900  145.9480 C   0  0  2  0  0  3  0  0  0  0  0  0
  160.9360  206.4210  145.2810 N   0  0  0  0  0  2  0  0  0  0  0  0
  161.2060  206.2030  144.0610 N   0  0  0  0  0  0  0  0  0  0  0  0
  162.8890  205.1880  147.0890 C   0  0  0  0  0  3  0  0  0  0  0  0
  163.6560  204.6930  146.2210 O   0  0  0  0  0  0  0  0  0  0  0  0
  160.9850  204.6180  150.6020 N   0  0  0  0  0  2  0  0  0  0  0  0
  161.6710  205.8930  150.7830 C   0  0  1  0  0  3  0  0  0  0  0  0
  162.3140  209.5600  150.3130 C   0  0  0  0  0  2  0  0  0  0  0  0
  160.7430  207.0470  150.3800 C   0  0  2  0  0  3  0  0  0  0  0  0
  161.1760  207.7090  149.0630 C   0  0  0  0  0  2  0  0  0  0  0  0
  160.6240  208.1060  151.4850 C   0  0  0  0  0  2  0  0  0  0  0  0
  161.9260  208.9020  151.6360 C   0  0  2  0  0  3  0  0  0  0  0  0
  162.4740  208.4980  149.2310 C   0  0  0  0  0  2  0  0  0  0  0  0
  161.8470  209.9350  152.7640 C   0  0  1  0  0  3  0  0  0  0  0  0
  160.8310  211.0330  152.4750 C   0  0  0  0  0  1  0  0  0  0  0  0
  161.9560  210.2000  154.9590 C   0  0  0  0  0  1  0  0  0  0  0  0
  161.5350  209.3070  153.9720 O   0  0  0  0  0  0  0  0  0  0  0  0
  161.2060  205.1910  153.1340 C   0  0  0  0  0  1  0  0  0  0  0  0
  162.0900  206.0400  152.2410 C   0  0  0  0  0  2  0  0  0  0  0  0
  1 10  1  6  0  0  0
  1 18  1  0  0  0  0
  2  4  1  0  0  0  0
  3  5  1  1  0  0  0
  3  2  1  0  0  0  0
  3  8  1  0  0  0  0
  4  7  1  0  0  0  0
  7  6  2  0  0  0  0
  8  1  1  6  0  0  0
  8  7  1  0  0  0  0
  9 10  2  0  0  0  0
 11 13  1  0  0  0  0
 12 15  2  0  0  0  0
 12 11  1  0  0  0  0
 13  9  1  1  0  0  0
 14 13  1  0  0  0  0
 15 14  1  0  0  0  0
 16  9  1  0  0  0  0
 17 16  2  0  0  0  0
 18 19  1  0  0  0  0
 19 31  1  1  0  0  0
 20 24  1  0  0  0  0
 21 19  1  1  0  0  0
 21 23  1  0  0  0  0
 22 25  1  0  0  0  0
 22 21  1  0  0  0  0
 23 24  1  0  0  0  0
 24 26  1  1  0  0  0
 25 20  1  0  0  0  0
 26 27  1  6  0  0  0
 26 29  1  0  0  0  0
 29 28  1  0  0  0  0
 31 30  1  0  0  0  0
M  END
>  <MODEL>
6

>  <REMARK>
 VINA RESULT:      -5.1      3.304      8.087
  Name = 
  10 active torsions:
  status: ('A' for Active; 'I' for Inactive)
    1  A    between atoms: C_3  and  N_9
    2  A    between atoms: C_3  and  C_14
    3  A    between atoms: C_3  and  C_25
    4  A    between atoms: C_5  and  C_6
    5  A    between atoms: C_6  and  C_7
    6  A    between atoms: N_9  and  C_18
    7  A    between atoms: C_12  and  C_18
    8  A    between atoms: C_15  and  C_18
    9  A    between atoms: C_21  and  C_27
   10  A    between atoms: C_21  and  O_30
                            x       y       z     vdW  Elec       q    Type
                         _______ _______ _______ _____ _____    ______ ____

>  <TORSDO>
F 10

$$$$
=
 OpenBabel11052411193D

 31 33  0  0  1  0  0  0  0  0999 V2000
  160.6850  208.8260  153.6370 C   0  0  1  0  0  3  0  0  0  0  0  0
  159.8760  209.6430  156.9220 C   0  0  0  0  0  2  0  0  0  0  0  0
  160.0760  208.3990  156.0470 C   0  0  2  0  0  3  0  0  0  0  0  0
  160.9350  210.5210  156.5980 O   0  0  0  0  0  0  0  0  0  0  0  0
  160.4390  207.3210  156.8530 O   0  0  0  0  0  1  0  0  0  0  0  0
  162.7170  210.6160  155.1300 O   0  0  0  0  0  0  0  0  0  0  0  0
  161.6970  210.0220  155.5690 C   0  0  0  0  0  0  0  0  0  0  0  0
  161.2190  208.7110  155.0720 C   0  0  2  0  0  3  0  0  0  0  0  0
  160.7030  211.0220  152.3740 C   0  0  0  0  0  0  0  0  0  0  0  0
  160.2040  210.2200  153.3200 C   0  0  0  0  0  3  0  0  0  0  0  0
  159.5130  212.8840  153.5190 C   0  0  0  0  0  2  0  0  0  0  0  0
  158.2190  213.0890  153.3240 C   0  0  0  0  0  3  0  0  0  0  0  0
  160.0720  212.3770  152.2280 C   0  0  2  0  0  3  0  0  0  0  0  0
  158.8990  212.3260  151.3700 N   0  0  0  0  0  2  0  0  0  0  0  0
  157.8720  212.7360  151.9930 N   0  0  0  0  0  0  0  0  0  0  0  0
  161.8210  210.5800  151.5150 C   0  0  0  0  0  3  0  0  0  0  0  0
  161.9060  210.9240  150.3060 O   0  0  0  0  0  0  0  0  0  0  0  0
  161.6980  208.4060  152.6730 N   0  0  0  0  0  2  0  0  0  0  0  0
  161.4340  207.0170  152.3120 C   0  0  1  0  0  3  0  0  0  0  0  0
  160.6490  205.8750  148.8260 C   0  0  0  0  0  2  0  0  0  0  0  0
  162.3420  206.5980  151.1480 C   0  0  2  0  0  3  0  0  0  0  0  0
  162.1870  207.5180  149.9280 C   0  0  0  0  0  2  0  0  0  0  0  0
  162.1150  205.1360  150.7350 C   0  0  0  0  0  2  0  0  0  0  0  0
  160.7590  204.9580  150.0420 C   0  0  2  0  0  3  0  0  0  0  0  0
  160.8310  207.3270  149.2500 C   0  0  0  0  0  2  0  0  0  0  0  0
  160.4890  203.4990  149.6610 C   0  0  1  0  0  3  0  0  0  0  0  0
  161.2050  203.0930  148.3790 C   0  0  0  0  0  1  0  0  0  0  0  0
  160.8450  201.3700  150.1490 C   0  0  0  0  0  1  0  0  0  0  0  0
  160.8680  202.6500  150.7040 O   0  0  0  0  0  0  0  0  0  0  0  0
  160.4510  205.2970  153.8340 C   0  0  0  0  0  1  0  0  0  0  0  0
  161.6840  206.1240  153.5230 C   0  0  0  0  0  2  0  0  0  0  0  0
  1 10  1  6  0  0  0
  3  5  1  1  0  0  0
  3  2  1  0  0  0  0
  4  2  1  0  0  0  0
  6  7  2  0  0  0  0
  7  4  1  0  0  0  0
  8  1  1  6  0  0  0
  8  7  1  0  0  0  0
  8  3  1  0  0  0  0
  9 10  2  0  0  0  0
 12 11  1  0  0  0  0
 13  9  1  1  0  0  0
 13 11  1  0  0  0  0
 14 15  1  0  0  0  0
 14 13  1  0  0  0  0
 15 12  2  0  0  0  0
 16  9  1  0  0  0  0
 17 16  2  0  0  0  0
 18  1  1  0  0  0  0
 19 18  1  0  0  0  0
 19 31  1  1  0  0  0
 20 25  1  0  0  0  0
 20 24  1  0  0  0  0
 21 19  1  1  0  0  0
 22 21  1  0  0  0  0
 23 21  1  0  0  0  0
 24 26  1  6  0  0  0
 24 23  1  0  0  0  0
 25 22  1  0  0  0  0
 26 27  1  6  0  0  0
 26 29  1  0  0  0  0
 28 29  1  0  0  0  0
 31 30  1  0  0  0  0
M  END
>  <MODEL>
7

>  <REMARK>
 VINA RESULT:      -4.9      1.647      2.375
  Name = 
  10 active torsions:
  status: ('A' for Active; 'I' for Inactive)
    1  A    between atoms: C_3  and  N_9
    2  A    between atoms: C_3  and  C_14
    3  A    between atoms: C_3  and  C_25
    4  A    between atoms: C_5  and  C_6
    5  A    between atoms: C_6  and  C_7
    6  A    between atoms: N_9  and  C_18
    7  A    between atoms: C_12  and  C_18
    8  A    between atoms: C_15  and  C_18
    9  A    between atoms: C_21  and  C_27
   10  A    between atoms: C_21  and  O_30
                            x       y       z     vdW  Elec       q    Type
                         _______ _______ _______ _____ _____    ______ ____

>  <TORSDO>
F 10

$$$$
=
 OpenBabel11052411193D

 31 33  0  0  1  0  0  0  0  0999 V2000
  161.5100  204.2350  149.4300 C   0  0  1  0  0  3  0  0  0  0  0  0
  159.5560  201.3560  149.3850 C   0  0  0  0  0  2  0  0  0  0  0  0
  160.7910  201.9360  148.6830 C   0  0  2  0  0  3  0  0  0  0  0  0
  159.7200  201.6410  150.7600 O   0  0  0  0  0  0  0  0  0  0  0  0
  161.5830  200.8940  148.2050 O   0  0  0  0  0  1  0  0  0  0  0  0
  161.2080  202.7580  152.1300 O   0  0  0  0  0  0  0  0  0  0  0  0
  160.8400  202.4080  150.9780 C   0  0  0  0  0  0  0  0  0  0  0  0
  161.5750  202.7320  149.7340 C   0  0  2  0  0  3  0  0  0  0  0  0
  161.4010  204.4380  146.9070 C   0  0  0  0  0  0  0  0  0  0  0  0
  160.8300  204.5190  148.1140 C   0  0  0  0  0  3  0  0  0  0  0  0
  161.1680  204.3570  144.4300 C   0  0  0  0  0  2  0  0  0  0  0  0
  161.2870  205.4530  143.6970 C   0  0  0  0  0  3  0  0  0  0  0  0
  160.5370  204.7660  145.7230 C   0  0  2  0  0  3  0  0  0  0  0  0
  160.3790  206.2020  145.5610 N   0  0  0  0  0  2  0  0  0  0  0  0
  160.7940  206.5710  144.4200 N   0  0  0  0  0  0  0  0  0  0  0  0
  162.8160  204.0380  146.7600 C   0  0  0  0  0  3  0  0  0  0  0  0
  163.6990  204.8500  146.3780 O   0  0  0  0  0  0  0  0  0  0  0  0
  160.8440  204.9540  150.5120 N   0  0  0  0  0  2  0  0  0  0  0  0
  161.1760  206.3690  150.3890 C   0  0  1  0  0  3  0  0  0  0  0  0
  160.8310  207.5170  153.9450 C   0  0  0  0  0  2  0  0  0  0  0  0
  162.2250  206.7530  151.4430 C   0  0  2  0  0  3  0  0  0  0  0  0
  162.1800  205.8310  152.6710 C   0  0  0  0  0  2  0  0  0  0  0  0
  162.0930  208.2190  151.8820 C   0  0  0  0  0  2  0  0  0  0  0  0
  160.8310  208.4370  152.7250 C   0  0  2  0  0  3  0  0  0  0  0  0
  160.9170  206.0620  153.5000 C   0  0  0  0  0  2  0  0  0  0  0  0
  160.6550  209.9010  153.1370 C   0  0  1  0  0  3  0  0  0  0  0  0
  161.5830  210.2990  154.2770 C   0  0  0  0  0  1  0  0  0  0  0  0
  160.0630  211.8560  152.2840 C   0  0  0  0  0  1  0  0  0  0  0  0
  160.8650  210.7400  152.0400 O   0  0  0  0  0  0  0  0  0  0  0  0
  161.5950  208.1170  148.6540 C   0  0  0  0  0  1  0  0  0  0  0  0
  161.7140  206.6430  148.9890 C   0  0  0  0  0  2  0  0  0  0  0  0
  1 10  1  6  0  0  0
  1 18  1  0  0  0  0
  2  4  1  0  0  0  0
  3  5  1  1  0  0  0
  3  2  1  0  0  0  0
  3  8  1  0  0  0  0
  4  7  1  0  0  0  0
  7  6  2  0  0  0  0
  8  1  1  6  0  0  0
  8  7  1  0  0  0  0
  9 10  2  0  0  0  0
 11 13  1  0  0  0  0
 12 15  2  0  0  0  0
 12 11  1  0  0  0  0
 13  9  1  1  0  0  0
 14 13  1  0  0  0  0
 15 14  1  0  0  0  0
 16  9  1  0  0  0  0
 17 16  2  0  0  0  0
 19 31  1  6  0  0  0
 19 18  1  0  0  0  0
 21 19  1  6  0  0  0
 21 23  1  0  0  0  0
 21 22  1  0  0  0  0
 22 25  1  0  0  0  0
 23 24  1  0  0  0  0
 24 26  1  1  0  0  0
 24 20  1  0  0  0  0
 25 20  1  0  0  0  0
 26 27  1  1  0  0  0
 29 28  1  0  0  0  0
 29 26  1  0  0  0  0
 30 31  1  0  0  0  0
M  END
>  <MODEL>
8

>  <REMARK>
 VINA RESULT:      -4.8      3.242      8.245
  Name = 
  10 active torsions:
  status: ('A' for Active; 'I' for Inactive)
    1  A    between atoms: C_3  and  N_9
    2  A    between atoms: C_3  and  C_14
    3  A    between atoms: C_3  and  C_25
    4  A    between atoms: C_5  and  C_6
    5  A    between atoms: C_6  and  C_7
    6  A    between atoms: N_9  and  C_18
    7  A    between atoms: C_12  and  C_18
    8  A    between atoms: C_15  and  C_18
    9  A    between atoms: C_21  and  C_27
   10  A    between atoms: C_21  and  O_30
                            x       y       z     vdW  Elec       q    Type
                         _______ _______ _______ _____ _____    ______ ____

>  <TORSDO>
F 10

$$$$
=
 OpenBabel11052411193D

 31 33  0  0  1  0  0  0  0  0999 V2000
  161.1330  209.6500  153.3190 C   0  0  1  0  0  3  0  0  0  0  0  0
  159.7090  210.5930  156.3510 C   0  0  0  0  0  2  0  0  0  0  0  0
  159.8240  209.3540  155.4540 C   0  0  2  0  0  3  0  0  0  0  0  0
  160.9970  211.1750  156.3780 O   0  0  0  0  0  0  0  0  0  0  0  0
  159.6860  208.2060  156.2330 O   0  0  0  0  0  1  0  0  0  0  0  0
  163.0710  210.8320  155.4190 O   0  0  0  0  0  0  0  0  0  0  0  0
  161.8590  210.5130  155.5360 C   0  0  0  0  0  0  0  0  0  0  0  0
  161.2240  209.3780  154.8270 C   0  0  2  0  0  3  0  0  0  0  0  0
  159.6100  211.6230  152.8660 C   0  0  0  0  0  0  0  0  0  0  0  0
  160.8300  211.0970  153.0210 C   0  0  0  0  0  3  0  0  0  0  0  0
  158.1260  213.5840  152.4850 C   0  0  0  0  0  2  0  0  0  0  0  0
  157.9720  214.0990  151.2740 C   0  0  0  0  0  3  0  0  0  0  0  0
  159.5360  213.0940  152.5720 C   0  0  2  0  0  3  0  0  0  0  0  0
  160.0620  213.3990  151.2510 N   0  0  0  0  0  2  0  0  0  0  0  0
  159.1810  213.9680  150.5400 N   0  0  0  0  0  0  0  0  0  0  0  0
  158.3990  210.7850  152.9890 C   0  0  0  0  0  3  0  0  0  0  0  0
  157.4570  211.0880  153.7680 O   0  0  0  0  0  0  0  0  0  0  0  0
  162.3600  209.2370  152.6440 N   0  0  0  0  0  2  0  0  0  0  0  0
  161.9910  208.4430  151.4770 C   0  0  1  0  0  3  0  0  0  0  0  0
  161.6470  204.7140  151.2410 C   0  0  0  0  0  2  0  0  0  0  0  0
  160.8320  207.5010  151.8320 C   0  0  2  0  0  3  0  0  0  0  0  0
  161.2100  206.5050  152.9390 C   0  0  0  0  0  2  0  0  0  0  0  0
  160.3040  206.7460  150.6040 C   0  0  0  0  0  2  0  0  0  0  0  0
  161.3110  205.6960  150.1210 C   0  0  2  0  0  3  0  0  0  0  0  0
  162.2130  205.4660  152.4400 C   0  0  0  0  0  2  0  0  0  0  0  0
  160.8250  204.9600  148.8690 C   0  0  1  0  0  3  0  0  0  0  0  0
  161.6040  205.3590  147.6220 C   0  0  0  0  0  1  0  0  0  0  0  0
  161.4550  203.0870  147.8700 C   0  0  0  0  0  1  0  0  0  0  0  0
  160.9100  203.5780  149.0580 O   0  0  0  0  0  0  0  0  0  0  0  0
  162.2940  208.9840  149.0580 C   0  0  0  0  0  1  0  0  0  0  0  0
  161.5840  209.3730  150.3400 C   0  0  0  0  0  2  0  0  0  0  0  0
  1 10  1  1  0  0  0
  2  4  1  0  0  0  0
  3  5  1  1  0  0  0
  3  2  1  0  0  0  0
  6  7  2  0  0  0  0
  7  4  1  0  0  0  0
  8  1  1  6  0  0  0
  8  3  1  0  0  0  0
  8  7  1  0  0  0  0
  9 16  1  0  0  0  0
  9 10  2  0  0  0  0
 11 13  1  0  0  0  0
 12 11  1  0  0  0  0
 13  9  1  6  0  0  0
 14 13  1  0  0  0  0
 15 14  1  0  0  0  0
 15 12  2  0  0  0  0
 16 17  2  0  0  0  0
 18  1  1  0  0  0  0
 19 31  1  6  0  0  0
 19 18  1  0  0  0  0
 20 25  1  0  0  0  0
 21 19  1  6  0  0  0
 21 22  1  0  0  0  0
 23 21  1  0  0  0  0
 24 26  1  6  0  0  0
 24 23  1  0  0  0  0
 24 20  1  0  0  0  0
 25 22  1  0  0  0  0
 26 27  1  6  0  0  0
 26 29  1  0  0  0  0
 28 29  1  0  0  0  0
 30 31  1  0  0  0  0
M  END
>  <MODEL>
9

>  <REMARK>
 VINA RESULT:      -4.8      1.359      2.528
  Name = 
  10 active torsions:
  status: ('A' for Active; 'I' for Inactive)
    1  A    between atoms: C_3  and  N_9
    2  A    between atoms: C_3  and  C_14
    3  A    between atoms: C_3  and  C_25
    4  A    between atoms: C_5  and  C_6
    5  A    between atoms: C_6  and  C_7
    6  A    between atoms: N_9  and  C_18
    7  A    between atoms: C_12  and  C_18
    8  A    between atoms: C_15  and  C_18
    9  A    between atoms: C_21  and  C_27
   10  A    between atoms: C_21  and  O_30
                            x       y       z     vdW  Elec       q    Type
                         _______ _______ _______ _____ _____    ______ ____

>  <TORSDO>
F 10

$$$$
