=
 OpenBabel11042422453D

 38 43  0  0  1  0  0  0  0  0999 V2000
  161.6800  207.7160  156.1210 C   0  0  0  0  0  1  0  0  0  0  0  0
  162.2800  208.1840  150.4740 C   0  0  1  0  0  3  0  0  0  0  0  0
  159.8470  202.8130  150.1290 C   0  0  0  0  0  2  0  0  0  0  0  0
  162.5810  207.3170  151.7210 C   0  0  1  0  0  3  0  0  0  0  0  0
  160.4150  210.9700  152.4400 C   0  0  0  0  0  0  0  0  0  0  0  0
  160.9640  209.7060  152.1230 C   0  0  0  0  0  0  0  0  0  0  0  0
  159.6700  204.3340  150.1540 C   0  0  0  0  0  2  0  0  0  0  0  0
  161.8370  207.3870  149.2440 C   0  0  0  0  0  2  0  0  0  0  0  0
  161.4380  207.2970  152.7470 C   0  0  0  0  0  2  0  0  0  0  0  0
  160.4620  208.9570  154.3650 C   0  0  0  0  0  0  0  0  0  0  0  0
  161.3570  209.3980  150.6900 C   0  0  1  0  0  3  0  0  0  0  0  0
  160.4950  212.1250  151.4780 C   0  0  0  0  0  2  0  0  0  0  0  0
  159.6220  208.9520  156.5070 N   0  0  0  0  0  0  0  0  0  0  0  0
  160.9850  208.6770  153.0940 C   0  0  0  0  0  0  0  0  0  0  0  0
  160.6350  206.5110  149.5750 C   0  0  0  0  0  2  0  0  0  0  0  0
  160.3120  208.0740  155.5630 C   0  0  2  0  0  3  0  0  0  0  0  0
  161.0000  205.0550  149.9130 C   0  0  0  0  0  0  0  0  0  0  0  0
  159.9490  210.1820  154.6610 C   0  0  0  0  0  0  0  0  0  0  0  0
  160.3760  202.4160  148.8890 O   0  0  0  0  0  0  0  0  0  0  0  0
  161.7360  204.3970  148.7240 C   0  0  0  0  0  2  0  0  0  0  0  0
  163.0280  205.8840  151.3570 C   0  0  0  0  0  2  0  0  0  0  0  0
  161.7150  202.8700  148.8700 C   0  0  0  0  0  2  0  0  0  0  0  0
  161.8430  204.9180  151.1990 C   0  0  0  0  0  2  0  0  0  0  0  0
  159.9130  211.2100  153.7290 C   0  0  0  0  0  3  0  0  0  0  0  0
  159.4290  210.1310  156.0030 C   0  0  0  0  0  3  0  0  0  0  0  0
  160.8490  211.7330  150.0390 C   0  0  2  0  0  3  0  0  0  0  0  0
  161.9080  210.6320  149.9910 C   0  0  0  0  0  2  0  0  0  0  0  0
  161.2660  212.9680  149.2420 C   0  0  2  0  0  3  0  0  0  0  0  0
  160.1390  213.5920  148.7040 O   0  0  0  0  0  1  0  0  0  0  0  0
  162.2660  212.6300  148.1500 C   0  0  0  0  0  2  0  0  0  0  0  0
  162.3000  213.7080  147.0810 C   0  0  0  0  0  2  0  0  0  0  0  0
  162.3140  213.2670  144.5670 C   0  0  0  0  0  0  0  0  0  0  0  0
  162.9360  213.2340  145.8610 N   0  0  0  0  0  2  0  0  0  0  0  0
  162.9910  212.9490  143.5490 O   0  0  0  0  0  0  0  0  0  0  0  0
  160.8730  213.6480  144.4050 C   0  0  0  0  0  2  0  0  0  0  0  0
  159.9980  212.4410  144.4660 C   0  0  0  0  0  0  0  0  0  0  0  0
  159.9690  211.6490  143.4920 O   0  0  0  0  0  0  0  0  0  0  0  0
  159.2400  212.1640  145.5960 O   0  0  0  0  0  1  0  0  0  0  0  0
  2  8  1  6  0  0  0
  2 11  1  0  0  0  0
  2  4  1  0  0  0  0
  3  7  1  0  0  0  0
  4 21  1  6  0  0  0
  4  9  1  0  0  0  0
  5 24  1  0  0  0  0
  6  5  2  0  0  0  0
  6 14  1  0  0  0  0
  8 15  1  0  0  0  0
  9 14  1  0  0  0  0
 10 18  1  0  0  0  0
 10 16  1  0  0  0  0
 11 27  1  1  0  0  0
 11  6  1  0  0  0  0
 12  5  1  0  0  0  0
 14 10  2  0  0  0  0
 15 17  1  0  0  0  0
 16  1  1  1  0  0  0
 16 13  1  0  0  0  0
 17  7  1  0  0  0  0
 17 23  1  0  0  0  0
 18 25  1  0  0  0  0
 19  3  1  0  0  0  0
 20 22  1  0  0  0  0
 20 17  1  0  0  0  0
 22 19  1  0  0  0  0
 23 21  1  0  0  0  0
 24 18  2  0  0  0  0
 25 13  2  0  0  0  0
 26 28  1  6  0  0  0
 26 12  1  0  0  0  0
 27 26  1  0  0  0  0
 28 29  1  6  0  0  0
 30 28  1  0  0  0  0
 31 30  1  0  0  0  0
 32 33  1  0  0  0  0
 33 31  1  0  0  0  0
 34 32  2  0  0  0  0
 35 36  1  0  0  0  0
 35 32  1  0  0  0  0
 36 38  1  0  0  0  0
 37 36  2  0  0  0  0
M  END
>  <MODEL>
1

>  <REMARK>
 VINA RESULT:      -6.1      0.000      0.000
  Name = 
  6 active torsions:
  status: ('A' for Active; 'I' for Inactive)
    1  A    between atoms: C_3  and  C_8
    2  A    between atoms: C_3  and  C_22
    3  A    between atoms: C_19  and  C_23
    4  A    between atoms: C_19  and  C_30
    5  A    between atoms: C_23  and  N_32
    6  A    between atoms: C_30  and  C_36
                            x       y       z     vdW  Elec       q    Type
                         _______ _______ _______ _____ _____    ______ ____

>  <TORSDO>
F 6

$$$$
=
 OpenBabel11042422453D

 38 43  0  0  1  0  0  0  0  0999 V2000
  161.6220  214.4530  150.2040 C   0  0  0  0  0  1  0  0  0  0  0  0
  160.3510  210.6450  154.2480 C   0  0  1  0  0  3  0  0  0  0  0  0
  155.2160  213.5070  154.8290 C   0  0  0  0  0  2  0  0  0  0  0  0
  160.4700  212.1510  153.9070 C   0  0  1  0  0  3  0  0  0  0  0  0
  161.4260  209.4100  150.7240 C   0  0  0  0  0  0  0  0  0  0  0  0
  160.9290  210.2560  151.7420 C   0  0  0  0  0  0  0  0  0  0  0  0
  156.0310  212.3980  154.1550 C   0  0  0  0  0  2  0  0  0  0  0  0
  159.1160  210.2830  155.0800 C   0  0  0  0  0  2  0  0  0  0  0  0
  160.0090  212.4970  152.4830 C   0  0  0  0  0  2  0  0  0  0  0  0
  160.9020  212.0890  150.1670 C   0  0  0  0  0  0  0  0  0  0  0  0
  160.5160  209.6610  153.0750 C   0  0  1  0  0  3  0  0  0  0  0  0
  161.8520  207.9960  151.0150 C   0  0  0  0  0  2  0  0  0  0  0  0
  161.0560  213.2340  148.1770 N   0  0  0  0  0  0  0  0  0  0  0  0
  160.6550  211.6160  151.4650 C   0  0  0  0  0  0  0  0  0  0  0  0
  157.8440  210.7670  154.3940 C   0  0  0  0  0  2  0  0  0  0  0  0
  160.6760  213.4440  149.5740 C   0  0  2  0  0  3  0  0  0  0  0  0
  157.3300  212.1190  154.9190 C   0  0  0  0  0  0  0  0  0  0  0  0
  161.3930  211.2670  149.2000 C   0  0  0  0  0  0  0  0  0  0  0  0
  154.9120  213.1380  156.1510 O   0  0  0  0  0  0  0  0  0  0  0  0
  157.0310  212.0280  156.4320 C   0  0  0  0  0  2  0  0  0  0  0  0
  159.7810  213.0550  154.9510 C   0  0  0  0  0  2  0  0  0  0  0  0
  156.1320  213.1940  156.8630 C   0  0  0  0  0  2  0  0  0  0  0  0
  158.2950  213.2920  154.6390 C   0  0  0  0  0  2  0  0  0  0  0  0
  161.6700  209.9290  149.4420 C   0  0  0  0  0  3  0  0  0  0  0  0
  161.4650  212.0200  147.9750 C   0  0  0  0  0  3  0  0  0  0  0  0
  161.3580  207.4450  152.3570 C   0  0  2  0  0  3  0  0  0  0  0  0
  161.4170  208.4970  153.4630 C   0  0  0  0  0  2  0  0  0  0  0  0
  162.1290  206.1790  152.7260 C   0  0  2  0  0  3  0  0  0  0  0  0
  163.2070  206.0050  151.8550 O   0  0  0  0  0  1  0  0  0  0  0  0
  161.2380  204.9490  152.7310 C   0  0  0  0  0  2  0  0  0  0  0  0
  160.3620  204.8980  151.4920 C   0  0  0  0  0  2  0  0  0  0  0  0
  161.0920  204.5450  149.0730 C   0  0  0  0  0  0  0  0  0  0  0  0
  160.9720  204.1070  150.4350 N   0  0  0  0  0  2  0  0  0  0  0  0
  161.7470  203.8400  148.2540 O   0  0  0  0  0  0  0  0  0  0  0  0
  160.4370  205.8080  148.6000 C   0  0  0  0  0  2  0  0  0  0  0  0
  161.1630  206.3690  147.4230 C   0  0  0  0  0  0  0  0  0  0  0  0
  160.5670  206.4730  146.3220 O   0  0  0  0  0  0  0  0  0  0  0  0
  162.4760  206.8060  147.5340 O   0  0  0  0  0  1  0  0  0  0  0  0
  2  8  1  6  0  0  0
  3 19  1  0  0  0  0
  4  9  1  6  0  0  0
  4  2  1  0  0  0  0
  4 21  1  0  0  0  0
  5 12  1  0  0  0  0
  5  6  1  0  0  0  0
  6 11  1  0  0  0  0
  7  3  1  0  0  0  0
  7 17  1  0  0  0  0
 10 14  1  0  0  0  0
 11 27  1  1  0  0  0
 11  2  1  0  0  0  0
 12 26  1  0  0  0  0
 13 16  1  0  0  0  0
 14  6  2  0  0  0  0
 14  9  1  0  0  0  0
 15 17  1  0  0  0  0
 15  8  1  0  0  0  0
 16 10  1  0  0  0  0
 16  1  1  1  0  0  0
 17 20  1  0  0  0  0
 18 24  1  0  0  0  0
 18 10  2  0  0  0  0
 19 22  1  0  0  0  0
 20 22  1  0  0  0  0
 23 17  1  0  0  0  0
 23 21  1  0  0  0  0
 24  5  2  0  0  0  0
 25 13  2  0  0  0  0
 25 18  1  0  0  0  0
 26 28  1  1  0  0  0
 26 27  1  0  0  0  0
 28 29  1  6  0  0  0
 28 30  1  0  0  0  0
 31 30  1  0  0  0  0
 32 33  1  0  0  0  0
 33 31  1  0  0  0  0
 34 32  2  0  0  0  0
 35 32  1  0  0  0  0
 36 38  1  0  0  0  0
 36 35  1  0  0  0  0
 37 36  2  0  0  0  0
M  END
>  <MODEL>
2

>  <REMARK>
 VINA RESULT:      -5.3      3.106      8.182
  Name = 
  6 active torsions:
  status: ('A' for Active; 'I' for Inactive)
    1  A    between atoms: C_3  and  C_8
    2  A    between atoms: C_3  and  C_22
    3  A    between atoms: C_19  and  C_23
    4  A    between atoms: C_19  and  C_30
    5  A    between atoms: C_23  and  N_32
    6  A    between atoms: C_30  and  C_36
                            x       y       z     vdW  Elec       q    Type
                         _______ _______ _______ _____ _____    ______ ____

>  <TORSDO>
F 6

$$$$
=
 OpenBabel11042422453D

 38 43  0  0  1  0  0  0  0  0999 V2000
  162.7960  206.0280  147.4160 C   0  0  0  0  0  1  0  0  0  0  0  0
  162.0870  210.7470  150.5310 C   0  0  1  0  0  3  0  0  0  0  0  0
  159.1390  212.9310  145.9010 C   0  0  0  0  0  2  0  0  0  0  0  0
  162.5900  210.1720  149.1840 C   0  0  1  0  0  3  0  0  0  0  0  0
  161.0140  207.3080  151.9900 C   0  0  0  0  0  0  0  0  0  0  0  0
  161.3480  208.3060  151.0460 C   0  0  0  0  0  0  0  0  0  0  0  0
  159.1190  212.1540  147.2220 C   0  0  0  0  0  2  0  0  0  0  0  0
  161.2900  212.0500  150.4020 C   0  0  0  0  0  2  0  0  0  0  0  0
  161.7250  209.0220  148.6450 C   0  0  0  0  0  2  0  0  0  0  0  0
  161.3220  206.6290  149.3060 C   0  0  0  0  0  0  0  0  0  0  0  0
  161.3610  209.7630  151.4680 C   0  0  1  0  0  3  0  0  0  0  0  0
  160.9740  207.6040  153.4650 C   0  0  0  0  0  2  0  0  0  0  0  0
  161.0150  204.6030  148.2580 N   0  0  0  0  0  0  0  0  0  0  0  0
  161.5000  207.9690  149.6800 C   0  0  0  0  0  0  0  0  0  0  0  0
  160.1230  211.8730  149.4390 C   0  0  0  0  0  2  0  0  0  0  0  0
  161.3760  205.9890  147.9550 C   0  0  2  0  0  3  0  0  0  0  0  0
  160.4170  212.3590  148.0090 C   0  0  0  0  0  0  0  0  0  0  0  0
  161.0120  205.6760  150.2280 C   0  0  0  0  0  0  0  0  0  0  0  0
  159.3190  214.3010  146.1580 O   0  0  0  0  0  0  0  0  0  0  0  0
  160.7850  213.8600  148.0180 C   0  0  0  0  0  2  0  0  0  0  0  0
  162.7980  211.2620  148.1110 C   0  0  0  0  0  2  0  0  0  0  0  0
  160.6530  214.4440  146.6050 C   0  0  0  0  0  2  0  0  0  0  0  0
  161.5230  211.5470  147.3020 C   0  0  0  0  0  2  0  0  0  0  0  0
  160.8560  205.9770  151.5730 C   0  0  0  0  0  3  0  0  0  0  0  0
  160.8220  204.4320  149.5290 C   0  0  0  0  0  3  0  0  0  0  0  0
  160.9390  209.0960  153.8160 C   0  0  2  0  0  3  0  0  0  0  0  0
  161.8460  209.9190  152.9020 C   0  0  0  0  0  2  0  0  0  0  0  0
  161.2710  209.3010  155.2930 C   0  0  2  0  0  3  0  0  0  0  0  0
  160.1830  208.9260  156.0840 O   0  0  0  0  0  1  0  0  0  0  0  0
  161.6850  210.7310  155.5900 C   0  0  0  0  0  2  0  0  0  0  0  0
  160.4940  211.5730  156.0150 C   0  0  0  0  0  2  0  0  0  0  0  0
  158.3960  211.9760  154.6200 C   0  0  0  0  0  0  0  0  0  0  0  0
  159.8010  212.1390  154.8680 N   0  0  0  0  0  2  0  0  0  0  0  0
  157.8610  212.6080  153.6650 O   0  0  0  0  0  0  0  0  0  0  0  0
  157.5590  211.0550  155.4550 C   0  0  0  0  0  2  0  0  0  0  0  0
  156.1080  211.3580  155.2820 C   0  0  0  0  0  0  0  0  0  0  0  0
  155.3540  210.4970  154.7670 O   0  0  0  0  0  0  0  0  0  0  0  0
  155.5740  212.5670  155.7110 O   0  0  0  0  0  1  0  0  0  0  0  0
  2  8  1  6  0  0  0
  2 11  1  0  0  0  0
  3 19  1  0  0  0  0
  3  7  1  0  0  0  0
  4 21  1  6  0  0  0
  4  2  1  0  0  0  0
  5 12  1  0  0  0  0
  6 11  1  0  0  0  0
  6  5  2  0  0  0  0
  7 17  1  0  0  0  0
  9  4  1  0  0  0  0
  9 14  1  0  0  0  0
 10 14  2  0  0  0  0
 10 18  1  0  0  0  0
 11 27  1  1  0  0  0
 12 26  1  0  0  0  0
 13 25  2  0  0  0  0
 14  6  1  0  0  0  0
 15  8  1  0  0  0  0
 16  1  1  1  0  0  0
 16 13  1  0  0  0  0
 16 10  1  0  0  0  0
 17 20  1  0  0  0  0
 17 15  1  0  0  0  0
 18 24  2  0  0  0  0
 19 22  1  0  0  0  0
 22 20  1  0  0  0  0
 23 17  1  0  0  0  0
 23 21  1  0  0  0  0
 24  5  1  0  0  0  0
 25 18  1  0  0  0  0
 26 28  1  1  0  0  0
 27 26  1  0  0  0  0
 28 30  1  0  0  0  0
 28 29  1  1  0  0  0
 30 31  1  0  0  0  0
 32 33  1  0  0  0  0
 32 35  1  0  0  0  0
 33 31  1  0  0  0  0
 34 32  2  0  0  0  0
 36 35  1  0  0  0  0
 36 38  1  0  0  0  0
 37 36  2  0  0  0  0
M  END
>  <MODEL>
3

>  <REMARK>
 VINA RESULT:      -5.1      3.359      8.065
  Name = 
  6 active torsions:
  status: ('A' for Active; 'I' for Inactive)
    1  A    between atoms: C_3  and  C_8
    2  A    between atoms: C_3  and  C_22
    3  A    between atoms: C_19  and  C_23
    4  A    between atoms: C_19  and  C_30
    5  A    between atoms: C_23  and  N_32
    6  A    between atoms: C_30  and  C_36
                            x       y       z     vdW  Elec       q    Type
                         _______ _______ _______ _____ _____    ______ ____

>  <TORSDO>
F 6

$$$$
=
 OpenBabel11042422453D

 38 43  0  0  1  0  0  0  0  0999 V2000
  161.9530  207.7200  156.2930 C   0  0  0  0  0  1  0  0  0  0  0  0
  161.9410  208.8130  150.7010 C   0  0  1  0  0  3  0  0  0  0  0  0
  160.2400  203.2030  149.9700 C   0  0  0  0  0  2  0  0  0  0  0  0
  162.4750  207.8820  151.8170 C   0  0  1  0  0  3  0  0  0  0  0  0
  159.9110  211.0950  153.1030 C   0  0  0  0  0  0  0  0  0  0  0  0
  160.5930  209.9610  152.6070 C   0  0  0  0  0  0  0  0  0  0  0  0
  159.8600  204.6740  150.1760 C   0  0  0  0  0  2  0  0  0  0  0  0
  161.4950  208.0820  149.4300 C   0  0  0  0  0  2  0  0  0  0  0  0
  161.4490  207.5970  152.9240 C   0  0  0  0  0  2  0  0  0  0  0  0
  160.4150  208.9340  154.7870 C   0  0  0  0  0  0  0  0  0  0  0  0
  160.8870  209.8530  151.1220 C   0  0  1  0  0  3  0  0  0  0  0  0
  159.7410  212.3370  152.2690 C   0  0  0  0  0  2  0  0  0  0  0  0
  159.7920  208.6000  156.9770 N   0  0  0  0  0  0  0  0  0  0  0  0
  160.8470  208.8570  153.4550 C   0  0  0  0  0  0  0  0  0  0  0  0
  160.4600  207.0130  149.7610 C   0  0  0  0  0  2  0  0  0  0  0  0
  160.5020  207.9270  155.8900 C   0  0  2  0  0  3  0  0  0  0  0  0
  161.0510  205.6000  149.9070 C   0  0  0  0  0  0  0  0  0  0  0  0
  159.7700  210.0380  155.2550 C   0  0  0  0  0  0  0  0  0  0  0  0
  160.6970  203.0090  148.6550 O   0  0  0  0  0  0  0  0  0  0  0  0
  161.7520  205.1730  148.5980 C   0  0  0  0  0  2  0  0  0  0  0  0
  163.0760  206.5720  151.2640 C   0  0  0  0  0  2  0  0  0  0  0  0
  161.9540  203.6530  148.5780 C   0  0  0  0  0  2  0  0  0  0  0  0
  162.0240  205.4630  151.0990 C   0  0  0  0  0  2  0  0  0  0  0  0
  159.5070  211.1340  154.4470 C   0  0  0  0  0  3  0  0  0  0  0  0
  159.3940  209.7820  156.6210 C   0  0  0  0  0  3  0  0  0  0  0  0
  160.0050  212.1410  150.7720 C   0  0  2  0  0  3  0  0  0  0  0  0
  161.1950  211.2160  150.5190 C   0  0  0  0  0  2  0  0  0  0  0  0
  160.1720  213.4940  150.0830 C   0  0  2  0  0  3  0  0  0  0  0  0
  160.6470  214.4390  150.9950 O   0  0  0  0  0  1  0  0  0  0  0  0
  158.8820  213.9690  149.4390 C   0  0  0  0  0  2  0  0  0  0  0  0
  158.6850  213.3410  148.0700 C   0  0  0  0  0  2  0  0  0  0  0  0
  160.5660  213.7200  146.3880 C   0  0  0  0  0  0  0  0  0  0  0  0
  159.3410  214.1120  147.0260 N   0  0  0  0  0  2  0  0  0  0  0  0
  160.9930  214.3910  145.4060 O   0  0  0  0  0  0  0  0  0  0  0  0
  161.3580  212.5450  146.8780 C   0  0  0  0  0  2  0  0  0  0  0  0
  162.6680  212.9890  147.4370 C   0  0  0  0  0  0  0  0  0  0  0  0
  162.7340  214.0690  148.0740 O   0  0  0  0  0  1  0  0  0  0  0  0
  163.8090  212.2110  147.2890 O   0  0  0  0  0  0  0  0  0  0  0  0
  2  8  1  6  0  0  0
  2 11  1  0  0  0  0
  2  4  1  0  0  0  0
  3  7  1  0  0  0  0
  4 21  1  6  0  0  0
  4  9  1  0  0  0  0
  5 24  1  0  0  0  0
  6  5  2  0  0  0  0
  6 14  1  0  0  0  0
  8 15  1  0  0  0  0
  9 14  1  0  0  0  0
 10 18  1  0  0  0  0
 10 16  1  0  0  0  0
 11 27  1  1  0  0  0
 11  6  1  0  0  0  0
 12  5  1  0  0  0  0
 14 10  2  0  0  0  0
 15 17  1  0  0  0  0
 16  1  1  1  0  0  0
 16 13  1  0  0  0  0
 17  7  1  0  0  0  0
 17 23  1  0  0  0  0
 18 25  1  0  0  0  0
 19  3  1  0  0  0  0
 20 17  1  0  0  0  0
 22 20  1  0  0  0  0
 22 19  1  0  0  0  0
 23 21  1  0  0  0  0
 24 18  2  0  0  0  0
 25 13  2  0  0  0  0
 26 28  1  1  0  0  0
 26 12  1  0  0  0  0
 27 26  1  0  0  0  0
 28 29  1  1  0  0  0
 30 28  1  0  0  0  0
 31 30  1  0  0  0  0
 32 35  1  0  0  0  0
 32 33  1  0  0  0  0
 33 31  1  0  0  0  0
 34 32  2  0  0  0  0
 35 36  1  0  0  0  0
 36 37  1  0  0  0  0
 38 36  2  0  0  0  0
M  END
>  <MODEL>
4

>  <REMARK>
 VINA RESULT:      -4.9      1.518      2.080
  Name = 
  6 active torsions:
  status: ('A' for Active; 'I' for Inactive)
    1  A    between atoms: C_3  and  C_8
    2  A    between atoms: C_3  and  C_22
    3  A    between atoms: C_19  and  C_23
    4  A    between atoms: C_19  and  C_30
    5  A    between atoms: C_23  and  N_32
    6  A    between atoms: C_30  and  C_36
                            x       y       z     vdW  Elec       q    Type
                         _______ _______ _______ _____ _____    ______ ____

>  <TORSDO>
F 6

$$$$
=
 OpenBabel11042422453D

 38 43  0  0  1  0  0  0  0  0999 V2000
  163.3690  211.8450  149.6690 C   0  0  0  0  0  1  0  0  0  0  0  0
  161.3650  208.3370  153.6870 C   0  0  1  0  0  3  0  0  0  0  0  0
  158.0340  212.8730  155.4820 C   0  0  0  0  0  2  0  0  0  0  0  0
  162.0300  209.7070  153.4070 C   0  0  1  0  0  3  0  0  0  0  0  0
  161.2200  207.2580  149.9570 C   0  0  0  0  0  0  0  0  0  0  0  0
  161.2950  208.0880  151.0990 C   0  0  0  0  0  0  0  0  0  0  0  0
  158.1950  211.6330  154.5960 C   0  0  0  0  0  2  0  0  0  0  0  0
  160.2530  208.3800  154.7410 C   0  0  0  0  0  2  0  0  0  0  0  0
  161.5140  210.3910  152.1320 C   0  0  0  0  0  2  0  0  0  0  0  0
  161.7510  209.9770  149.6620 C   0  0  0  0  0  0  0  0  0  0  0  0
  160.9100  207.5310  152.4570 C   0  0  1  0  0  3  0  0  0  0  0  0
  161.0730  205.7650  150.0790 C   0  0  0  0  0  2  0  0  0  0  0  0
  162.0160  211.2230  147.7460 N   0  0  0  0  0  0  0  0  0  0  0  0
  161.5580  209.4710  150.9560 C   0  0  0  0  0  0  0  0  0  0  0  0
  159.1940  209.4080  154.3630 C   0  0  0  0  0  2  0  0  0  0  0  0
  162.0000  211.3780  149.2010 C   0  0  2  0  0  3  0  0  0  0  0  0
  159.3760  210.7710  155.0540 C   0  0  0  0  0  0  0  0  0  0  0  0
  161.6880  209.1640  148.5720 C   0  0  0  0  0  0  0  0  0  0  0  0
  157.8370  212.4810  156.8180 O   0  0  0  0  0  0  0  0  0  0  0  0
  159.3300  210.6040  156.5890 C   0  0  0  0  0  2  0  0  0  0  0  0
  161.9610  210.6620  154.6180 C   0  0  0  0  0  2  0  0  0  0  0  0
  159.0760  211.9610  157.2600 C   0  0  0  0  0  2  0  0  0  0  0  0
  160.6730  211.5000  154.6380 C   0  0  0  0  0  2  0  0  0  0  0  0
  161.4310  207.8040  148.6810 C   0  0  0  0  0  3  0  0  0  0  0  0
  161.8510  209.9840  147.4000 C   0  0  0  0  0  3  0  0  0  0  0  0
  160.6350  205.2780  151.4640 C   0  0  2  0  0  3  0  0  0  0  0  0
  161.3070  206.0680  152.5870 C   0  0  0  0  0  2  0  0  0  0  0  0
  160.8710  203.7750  151.5970 C   0  0  2  0  0  3  0  0  0  0  0  0
  161.8750  203.5310  152.5370 O   0  0  0  0  0  1  0  0  0  0  0  0
  161.2130  203.1310  150.2650 C   0  0  0  0  0  2  0  0  0  0  0  0
  160.0080  202.4290  149.6660 C   0  0  0  0  0  2  0  0  0  0  0  0
  160.9850  202.2580  147.3150 C   0  0  0  0  0  0  0  0  0  0  0  0
  160.3620  201.6780  148.4710 N   0  0  0  0  0  2  0  0  0  0  0  0
  161.3670  201.5040  146.3760 O   0  0  0  0  0  0  0  0  0  0  0  0
  161.1690  203.7410  147.1910 C   0  0  0  0  0  2  0  0  0  0  0  0
  161.7270  204.0930  145.8520 C   0  0  0  0  0  0  0  0  0  0  0  0
  162.8810  204.5810  145.7730 O   0  0  0  0  0  1  0  0  0  0  0  0
  161.0010  203.8590  144.6910 O   0  0  0  0  0  0  0  0  0  0  0  0
  2  8  1  1  0  0  0
  3 19  1  0  0  0  0
  4  9  1  6  0  0  0
  4  2  1  0  0  0  0
  4 21  1  0  0  0  0
  5 12  1  0  0  0  0
  5  6  1  0  0  0  0
  6 11  1  0  0  0  0
  7 17  1  0  0  0  0
  7  3  1  0  0  0  0
 10 14  1  0  0  0  0
 11 27  1  1  0  0  0
 11  2  1  0  0  0  0
 12 26  1  0  0  0  0
 13 16  1  0  0  0  0
 14  6  2  0  0  0  0
 14  9  1  0  0  0  0
 15  8  1  0  0  0  0
 15 17  1  0  0  0  0
 16 10  1  0  0  0  0
 16  1  1  1  0  0  0
 17 20  1  0  0  0  0
 18 24  1  0  0  0  0
 18 10  2  0  0  0  0
 19 22  1  0  0  0  0
 20 22  1  0  0  0  0
 21 23  1  0  0  0  0
 23 17  1  0  0  0  0
 24  5  2  0  0  0  0
 25 13  2  0  0  0  0
 25 18  1  0  0  0  0
 26 28  1  1  0  0  0
 26 27  1  0  0  0  0
 28 29  1  1  0  0  0
 30 28  1  0  0  0  0
 31 30  1  0  0  0  0
 32 33  1  0  0  0  0
 33 31  1  0  0  0  0
 34 32  2  0  0  0  0
 35 32  1  0  0  0  0
 36 35  1  0  0  0  0
 37 36  1  0  0  0  0
 38 36  2  0  0  0  0
M  END
>  <MODEL>
5

>  <REMARK>
 VINA RESULT:      -3.4      3.638      8.296
  Name = 
  6 active torsions:
  status: ('A' for Active; 'I' for Inactive)
    1  A    between atoms: C_3  and  C_8
    2  A    between atoms: C_3  and  C_22
    3  A    between atoms: C_19  and  C_23
    4  A    between atoms: C_19  and  C_30
    5  A    between atoms: C_23  and  N_32
    6  A    between atoms: C_30  and  C_36
                            x       y       z     vdW  Elec       q    Type
                         _______ _______ _______ _____ _____    ______ ____

>  <TORSDO>
F 6

$$$$
=
 OpenBabel11042422453D

 38 43  0  0  1  0  0  0  0  0999 V2000
  162.9730  205.9700  146.5330 C   0  0  0  0  0  1  0  0  0  0  0  0
  162.2250  210.0020  150.4890 C   0  0  1  0  0  3  0  0  0  0  0  0
  159.5910  213.1670  146.2530 C   0  0  0  0  0  2  0  0  0  0  0  0
  162.7840  209.6860  149.0800 C   0  0  1  0  0  3  0  0  0  0  0  0
  160.9820  206.3860  151.1810 C   0  0  0  0  0  0  0  0  0  0  0  0
  161.3940  207.5370  150.4710 C   0  0  0  0  0  0  0  0  0  0  0  0
  159.4790  212.1460  147.3900 C   0  0  0  0  0  2  0  0  0  0  0  0
  161.4730  211.3340  150.5850 C   0  0  0  0  0  2  0  0  0  0  0  0
  161.9180  208.7000  148.2820 C   0  0  0  0  0  2  0  0  0  0  0  0
  161.4150  206.2390  148.4330 C   0  0  0  0  0  0  0  0  0  0  0  0
  161.4240  208.8810  151.1760 C   0  0  1  0  0  3  0  0  0  0  0  0
  160.8710  206.3860  152.6820 C   0  0  0  0  0  2  0  0  0  0  0  0
  161.1100  204.4740  146.9890 N   0  0  0  0  0  0  0  0  0  0  0  0
  161.6100  207.4720  149.0750 C   0  0  0  0  0  0  0  0  0  0  0  0
  160.3540  211.3950  149.5520 C   0  0  0  0  0  2  0  0  0  0  0  0
  161.5240  205.8770  146.9860 C   0  0  2  0  0  3  0  0  0  0  0  0
  160.7380  212.1430  148.2630 C   0  0  0  0  0  0  0  0  0  0  0  0
  161.0310  205.1360  149.1310 C   0  0  0  0  0  0  0  0  0  0  0  0
  159.7950  214.4520  146.7860 O   0  0  0  0  0  0  0  0  0  0  0  0
  161.1460  213.5970  148.5880 C   0  0  0  0  0  2  0  0  0  0  0  0
  163.0800  210.9590  148.2570 C   0  0  0  0  0  2  0  0  0  0  0  0
  161.1060  214.4530  147.3160 C   0  0  0  0  0  2  0  0  0  0  0  0
  161.8580  211.4450  147.4610 C   0  0  0  0  0  2  0  0  0  0  0  0
  160.8110  205.1700  150.5010 C   0  0  0  0  0  3  0  0  0  0  0  0
  160.8450  204.0620  148.1900 C   0  0  0  0  0  3  0  0  0  0  0  0
  160.8570  207.7790  153.3210 C   0  0  2  0  0  3  0  0  0  0  0  0
  161.8350  208.7320  152.6330 C   0  0  0  0  0  2  0  0  0  0  0  0
  161.1160  207.6760  154.8230 C   0  0  2  0  0  3  0  0  0  0  0  0
  161.9570  206.5930  155.0900 O   0  0  0  0  0  1  0  0  0  0  0  0
  159.8260  207.5630  155.6170 C   0  0  0  0  0  2  0  0  0  0  0  0
  159.9020  208.3590  156.9080 C   0  0  0  0  0  2  0  0  0  0  0  0
  160.8560  210.7210  156.7550 C   0  0  0  0  0  0  0  0  0  0  0  0
  161.0110  209.3000  156.8950 N   0  0  0  0  0  2  0  0  0  0  0  0
  161.8680  211.4670  156.8790 O   0  0  0  0  0  0  0  0  0  0  0  0
  159.5230  211.3320  156.4420 C   0  0  0  0  0  2  0  0  0  0  0  0
  159.4020  211.6140  154.9810 C   0  0  0  0  0  0  0  0  0  0  0  0
  158.9610  210.7240  154.2140 O   0  0  0  0  0  0  0  0  0  0  0  0
  159.7410  212.8580  154.4630 O   0  0  0  0  0  1  0  0  0  0  0  0
  2  8  1  6  0  0  0
  2 11  1  0  0  0  0
  3 19  1  0  0  0  0
  3  7  1  0  0  0  0
  4 21  1  6  0  0  0
  4  2  1  0  0  0  0
  5 12  1  0  0  0  0
  6 11  1  0  0  0  0
  6  5  2  0  0  0  0
  7 17  1  0  0  0  0
  9 14  1  0  0  0  0
  9  4  1  0  0  0  0
 10 14  2  0  0  0  0
 10 18  1  0  0  0  0
 11 27  1  1  0  0  0
 12 26  1  0  0  0  0
 13 25  2  0  0  0  0
 14  6  1  0  0  0  0
 15  8  1  0  0  0  0
 16  1  1  1  0  0  0
 16 13  1  0  0  0  0
 16 10  1  0  0  0  0
 17 20  1  0  0  0  0
 17 15  1  0  0  0  0
 18 24  2  0  0  0  0
 19 22  1  0  0  0  0
 22 20  1  0  0  0  0
 23 21  1  0  0  0  0
 23 17  1  0  0  0  0
 24  5  1  0  0  0  0
 25 18  1  0  0  0  0
 26 28  1  1  0  0  0
 27 26  1  0  0  0  0
 28 29  1  6  0  0  0
 28 30  1  0  0  0  0
 30 31  1  0  0  0  0
 32 34  2  0  0  0  0
 32 33  1  0  0  0  0
 33 31  1  0  0  0  0
 35 32  1  0  0  0  0
 36 35  1  0  0  0  0
 37 36  2  0  0  0  0
 38 36  1  0  0  0  0
M  END
>  <MODEL>
6

>  <REMARK>
 VINA RESULT:      -3.2      3.077      8.515
  Name = 
  6 active torsions:
  status: ('A' for Active; 'I' for Inactive)
    1  A    between atoms: C_3  and  C_8
    2  A    between atoms: C_3  and  C_22
    3  A    between atoms: C_19  and  C_23
    4  A    between atoms: C_19  and  C_30
    5  A    between atoms: C_23  and  N_32
    6  A    between atoms: C_30  and  C_36
                            x       y       z     vdW  Elec       q    Type
                         _______ _______ _______ _____ _____    ______ ____

>  <TORSDO>
F 6

$$$$
