=
 OpenBabel11042422283D

 34 37  0  0  1  0  0  0  0  0999 V2000
  161.4510  207.8260  151.1290 C   0  0  1  0  0  3  0  0  0  0  0  0
  161.4420  206.5710  146.3710 C   0  0  0  0  0  1  0  0  0  0  0  0
  161.5190  203.8040  147.4380 C   0  0  2  0  0  3  0  0  0  0  0  0
  160.7230  202.2700  149.3460 C   0  0  0  0  0  0  0  0  0  0  0  0
  160.3170  205.8420  150.5360 C   0  0  1  0  0  3  0  0  0  0  0  0
  161.6120  206.7390  152.2000 C   0  0  2  0  0  0  0  0  0  0  0  0
  161.1850  206.3390  147.8290 C   0  0  0  0  0  0  0  0  0  0  0  0
  162.9650  203.8080  147.2820 N   0  0  0  0  0  1  0  0  0  0  0  0
  161.0760  207.3780  148.6770 C   0  0  0  0  0  0  0  0  0  0  0  0
  160.5030  200.9080  149.9080 C   0  0  0  0  0  1  0  0  0  0  0  0
  161.0560  201.4800  147.1350 O   0  0  0  0  0  0  0  0  0  0  0  0
  160.5700  203.3300  150.1350 C   0  0  0  0  0  3  0  0  0  0  0  0
  161.1020  204.9440  148.3470 C   0  0  0  0  0  0  0  0  0  0  0  0
  163.0530  206.2500  152.1500 C   0  0  0  0  0  1  0  0  0  0  0  0
  160.8090  207.1200  150.0610 N   0  0  0  0  0  0  0  0  0  0  0  0
  160.7380  204.7100  149.6330 C   0  0  0  0  0  0  0  0  0  0  0  0
  160.5750  209.0080  151.5370 C   0  0  0  0  0  1  0  0  0  0  0  0
  161.0780  202.4570  147.9310 C   0  0  0  0  0  0  0  0  0  0  0  0
  160.7760  205.6450  151.8590 O   0  0  0  0  0  0  0  0  0  0  0  0
  161.8530  208.4240  154.0830 C   0  0  0  0  0  3  0  0  0  0  0  0
  161.3160  207.2180  153.6080 C   0  0  0  0  0  0  0  0  0  0  0  0
  161.5950  208.8220  155.3940 C   0  0  0  0  0  0  0  0  0  0  0  0
  160.5650  206.4460  154.4450 N   0  0  0  0  0  0  0  0  0  0  0  0
  160.3030  206.8200  155.7270 C   0  0  0  0  0  3  0  0  0  0  0  0
  160.8140  208.0200  156.2250 C   0  0  0  0  0  3  0  0  0  0  0  0
  162.2540  210.3270  155.9980 Cl  0  0  0  0  0  0  0  0  0  0  0  0
  161.2260  208.7920  148.2060 C   0  0  0  0  0  2  0  0  0  0  0  0
  162.5300  209.3710  148.7230 C   0  0  0  0  0  2  0  0  0  0  0  0
  162.3670  210.8540  149.0140 C   0  0  0  0  0  2  0  0  0  0  0  0
  161.6490  211.4980  147.9670 O   0  0  0  0  0  0  0  0  0  0  0  0
  162.9300  213.3980  147.9820 O   0  0  0  0  0  0  0  0  0  0  0  0
  162.1070  212.6710  147.3640 C   0  0  0  0  0  0  0  0  0  0  0  0
  162.5540  213.3520  145.0410 C   0  0  0  0  0  1  0  0  0  0  0  0
  161.6560  213.0340  146.0920 O   0  0  0  0  0  0  0  0  0  0  0  0
  1 17  1  1  0  0  0
  1  6  1  0  0  0  0
  2  7  1  0  0  0  0
  3  8  1  1  0  0  0
  3 18  1  0  0  0  0
  3 13  1  0  0  0  0
  4 10  1  0  0  0  0
  4 12  2  0  0  0  0
  5 16  1  6  0  0  0
  5 19  1  0  0  0  0
  6 14  1  6  0  0  0
  6 21  1  0  0  0  0
  7 13  1  0  0  0  0
  7  9  2  0  0  0  0
  9 15  1  0  0  0  0
 11 18  2  0  0  0  0
 13 16  2  0  0  0  0
 15  5  1  0  0  0  0
 15  1  1  0  0  0  0
 16 12  1  0  0  0  0
 18  4  1  0  0  0  0
 19  6  1  0  0  0  0
 20 22  1  0  0  0  0
 21 20  2  0  0  0  0
 21 23  1  0  0  0  0
 22 26  1  0  0  0  0
 22 25  2  0  0  0  0
 23 24  2  0  0  0  0
 24 25  1  0  0  0  0
 27  9  1  0  0  0  0
 27 28  1  0  0  0  0
 28 29  1  0  0  0  0
 30 29  1  0  0  0  0
 32 30  1  0  0  0  0
 32 31  2  0  0  0  0
 33 34  1  0  0  0  0
 34 32  1  0  0  0  0
M  END
>  <MODEL>
1

>  <REMARK>
 VINA RESULT:      -6.2      0.000      0.000
  Name = 
  7 active torsions:
  status: ('A' for Active; 'I' for Inactive)
    1  A    between atoms: O_1  and  C_18
    2  A    between atoms: O_1  and  C_29
    3  A    between atoms: C_2  and  C_15
    4  A    between atoms: C_2  and  C_33
    5  A    between atoms: C_9  and  C_13
    6  A    between atoms: C_18  and  O_30
    7  A    between atoms: C_29  and  C_33
                            x       y       z     vdW  Elec       q    Type
                         _______ _______ _______ _____ _____    ______ ____

>  <TORSDO>
F 7

$$$$
=
 OpenBabel11042422283D

 34 37  0  0  1  0  0  0  0  0999 V2000
  161.5320  207.2240  148.6100 C   0  0  1  0  0  3  0  0  0  0  0  0
  161.9140  211.4610  151.0840 C   0  0  0  0  0  1  0  0  0  0  0  0
  160.7960  209.8720  153.3260 C   0  0  2  0  0  3  0  0  0  0  0  0
  160.7470  207.5460  154.4290 C   0  0  0  0  0  0  0  0  0  0  0  0
  162.0620  207.0910  150.9060 C   0  0  1  0  0  3  0  0  0  0  0  0
  160.8640  206.0130  149.2760 C   0  0  2  0  0  0  0  0  0  0  0  0
  161.8450  209.9680  150.9640 C   0  0  0  0  0  0  0  0  0  0  0  0
  159.4710  210.3630  152.9840 N   0  0  0  0  0  1  0  0  0  0  0  0
  162.1380  209.3630  149.7990 C   0  0  0  0  0  0  0  0  0  0  0  0
  160.4310  206.6690  155.5910 C   0  0  0  0  0  1  0  0  0  0  0  0
  160.5440  209.5510  155.6800 O   0  0  0  0  0  0  0  0  0  0  0  0
  161.0970  206.9910  153.2720 C   0  0  0  0  0  3  0  0  0  0  0  0
  161.3980  209.1570  152.1320 C   0  0  0  0  0  0  0  0  0  0  0  0
  159.3710  206.2970  149.3610 C   0  0  0  0  0  1  0  0  0  0  0  0
  162.0820  207.9330  149.7260 N   0  0  0  0  0  0  0  0  0  0  0  0
  161.4570  207.8020  152.0910 C   0  0  0  0  0  0  0  0  0  0  0  0
  162.6580  206.8850  147.6360 C   0  0  0  0  0  1  0  0  0  0  0  0
  160.7040  209.0110  154.5520 C   0  0  0  0  0  0  0  0  0  0  0  0
  161.3560  205.9040  150.6020 O   0  0  0  0  0  0  0  0  0  0  0  0
  161.0210  203.4820  149.1950 C   0  0  0  0  0  3  0  0  0  0  0  0
  161.0650  204.7130  148.5240 C   0  0  0  0  0  0  0  0  0  0  0  0
  161.2470  202.3030  148.4850 C   0  0  0  0  0  0  0  0  0  0  0  0
  161.3490  204.7360  147.1900 N   0  0  0  0  0  0  0  0  0  0  0  0
  161.5720  203.5960  146.4810 C   0  0  0  0  0  3  0  0  0  0  0  0
  161.5240  202.3550  147.1190 C   0  0  0  0  0  3  0  0  0  0  0  0
  161.1880  200.7600  149.3090 Cl  0  0  0  0  0  0  0  0  0  0  0  0
  162.5200  210.1480  148.5820 C   0  0  0  0  0  2  0  0  0  0  0  0
  161.3260  210.9410  148.0850 C   0  0  0  0  0  2  0  0  0  0  0  0
  161.7830  212.2670  147.4990 C   0  0  0  0  0  2  0  0  0  0  0  0
  160.6660  213.0880  147.1740 O   0  0  0  0  0  0  0  0  0  0  0  0
  159.7590  212.1980  145.2670 O   0  0  0  0  0  0  0  0  0  0  0  0
  159.5780  212.6060  146.4460 C   0  0  0  0  0  0  0  0  0  0  0  0
  157.1260  212.5580  146.2240 C   0  0  0  0  0  1  0  0  0  0  0  0
  158.3020  212.5790  147.0170 O   0  0  0  0  0  0  0  0  0  0  0  0
  1 17  1  6  0  0  0
  1  6  1  0  0  0  0
  1 15  1  0  0  0  0
  3  8  1  6  0  0  0
  3 18  1  0  0  0  0
  4 18  1  0  0  0  0
  4 10  1  0  0  0  0
  5 19  1  6  0  0  0
  5 16  1  0  0  0  0
  6 14  1  1  0  0  0
  6 19  1  0  0  0  0
  7  2  1  0  0  0  0
  7 13  1  0  0  0  0
  9  7  2  0  0  0  0
 12  4  2  0  0  0  0
 13  3  1  0  0  0  0
 15  9  1  0  0  0  0
 15  5  1  0  0  0  0
 16 13  2  0  0  0  0
 16 12  1  0  0  0  0
 18 11  2  0  0  0  0
 21 20  1  0  0  0  0
 21  6  1  0  0  0  0
 22 20  2  0  0  0  0
 22 26  1  0  0  0  0
 23 21  2  0  0  0  0
 24 25  2  0  0  0  0
 24 23  1  0  0  0  0
 25 22  1  0  0  0  0
 27  9  1  0  0  0  0
 28 27  1  0  0  0  0
 29 28  1  0  0  0  0
 30 29  1  0  0  0  0
 31 32  2  0  0  0  0
 32 34  1  0  0  0  0
 32 30  1  0  0  0  0
 33 34  1  0  0  0  0
M  END
>  <MODEL>
2

>  <REMARK>
 VINA RESULT:      -5.7      2.863      6.389
  Name = 
  7 active torsions:
  status: ('A' for Active; 'I' for Inactive)
    1  A    between atoms: O_1  and  C_18
    2  A    between atoms: O_1  and  C_29
    3  A    between atoms: C_2  and  C_15
    4  A    between atoms: C_2  and  C_33
    5  A    between atoms: C_9  and  C_13
    6  A    between atoms: C_18  and  O_30
    7  A    between atoms: C_29  and  C_33
                            x       y       z     vdW  Elec       q    Type
                         _______ _______ _______ _____ _____    ______ ____

>  <TORSDO>
F 7

$$$$
=
 OpenBabel11042422283D

 34 37  0  0  1  0  0  0  0  0999 V2000
  161.4960  207.2630  148.5910 C   0  0  1  0  0  3  0  0  0  0  0  0
  161.8530  211.5200  151.0340 C   0  0  0  0  0  1  0  0  0  0  0  0
  160.7680  209.9350  153.2950 C   0  0  2  0  0  3  0  0  0  0  0  0
  160.7520  207.6170  154.4140 C   0  0  0  0  0  0  0  0  0  0  0  0
  162.0450  207.1510  150.8850 C   0  0  1  0  0  3  0  0  0  0  0  0
  160.8460  206.0500  149.2710 C   0  0  2  0  0  0  0  0  0  0  0  0
  161.7980  210.0260  150.9250 C   0  0  0  0  0  0  0  0  0  0  0  0
  159.4350  210.4100  152.9600 N   0  0  0  0  0  1  0  0  0  0  0  0
  162.0890  209.4160  149.7620 C   0  0  0  0  0  0  0  0  0  0  0  0
  160.4540  206.7440  155.5840 C   0  0  0  0  0  1  0  0  0  0  0  0
  160.5370  209.6280  155.6530 O   0  0  0  0  0  0  0  0  0  0  0  0
  161.0990  207.0570  153.2580 C   0  0  0  0  0  3  0  0  0  0  0  0
  161.3690  209.2190  152.1010 C   0  0  0  0  0  0  0  0  0  0  0  0
  159.3510  206.3190  149.3660 C   0  0  0  0  0  1  0  0  0  0  0  0
  162.0470  207.9850  149.6990 N   0  0  0  0  0  0  0  0  0  0  0  0
  161.4410  207.8640  152.0690 C   0  0  0  0  0  0  0  0  0  0  0  0
  162.6190  206.9280  147.6120 C   0  0  0  0  0  1  0  0  0  0  0  0
  160.6940  209.0820  154.5280 C   0  0  0  0  0  0  0  0  0  0  0  0
  161.3490  205.9540  150.5940 O   0  0  0  0  0  0  0  0  0  0  0  0
  161.0100  203.5180  149.2030 C   0  0  0  0  0  3  0  0  0  0  0  0
  161.0550  204.7460  148.5260 C   0  0  0  0  0  0  0  0  0  0  0  0
  161.2440  202.3360  148.5000 C   0  0  0  0  0  0  0  0  0  0  0  0
  161.3470  204.7640  147.1940 N   0  0  0  0  0  0  0  0  0  0  0  0
  161.5770  203.6210  146.4920 C   0  0  0  0  0  3  0  0  0  0  0  0
  161.5280  202.3830  147.1350 C   0  0  0  0  0  3  0  0  0  0  0  0
  161.1840  200.7970  149.3300 Cl  0  0  0  0  0  0  0  0  0  0  0  0
  162.4530  210.1970  148.5360 C   0  0  0  0  0  2  0  0  0  0  0  0
  161.2660  211.0250  148.0810 C   0  0  0  0  0  2  0  0  0  0  0  0
  161.7390  212.3490  147.5050 C   0  0  0  0  0  2  0  0  0  0  0  0
  160.7710  212.8860  146.6100 O   0  0  0  0  0  0  0  0  0  0  0  0
  160.2680  212.2580  144.4650 O   0  0  0  0  0  0  0  0  0  0  0  0
  160.9870  212.9510  145.2340 C   0  0  0  0  0  0  0  0  0  0  0  0
  163.1130  213.2440  144.0270 C   0  0  0  0  0  1  0  0  0  0  0  0
  161.9910  213.7740  144.7150 O   0  0  0  0  0  0  0  0  0  0  0  0
  1 17  1  6  0  0  0
  1  6  1  0  0  0  0
  1 15  1  0  0  0  0
  3  8  1  6  0  0  0
  3 18  1  0  0  0  0
  4 18  1  0  0  0  0
  4 10  1  0  0  0  0
  5 19  1  6  0  0  0
  5 16  1  0  0  0  0
  6 14  1  1  0  0  0
  6 19  1  0  0  0  0
  7  2  1  0  0  0  0
  7 13  1  0  0  0  0
  9  7  2  0  0  0  0
 12  4  2  0  0  0  0
 13  3  1  0  0  0  0
 15  9  1  0  0  0  0
 15  5  1  0  0  0  0
 16 13  2  0  0  0  0
 16 12  1  0  0  0  0
 18 11  2  0  0  0  0
 21 20  1  0  0  0  0
 21  6  1  0  0  0  0
 22 20  2  0  0  0  0
 22 26  1  0  0  0  0
 23 21  2  0  0  0  0
 24 25  2  0  0  0  0
 24 23  1  0  0  0  0
 25 22  1  0  0  0  0
 27  9  1  0  0  0  0
 28 27  1  0  0  0  0
 29 28  1  0  0  0  0
 30 29  1  0  0  0  0
 31 32  2  0  0  0  0
 32 30  1  0  0  0  0
 33 34  1  0  0  0  0
 34 32  1  0  0  0  0
M  END
>  <MODEL>
3

>  <REMARK>
 VINA RESULT:      -5.6      2.670      6.304
  Name = 
  7 active torsions:
  status: ('A' for Active; 'I' for Inactive)
    1  A    between atoms: O_1  and  C_18
    2  A    between atoms: O_1  and  C_29
    3  A    between atoms: C_2  and  C_15
    4  A    between atoms: C_2  and  C_33
    5  A    between atoms: C_9  and  C_13
    6  A    between atoms: C_18  and  O_30
    7  A    between atoms: C_29  and  C_33
                            x       y       z     vdW  Elec       q    Type
                         _______ _______ _______ _____ _____    ______ ____

>  <TORSDO>
F 7

$$$$
=
 OpenBabel11042422283D

 34 37  0  0  1  0  0  0  0  0999 V2000
  161.5240  206.6180  149.0500 C   0  0  1  0  0  3  0  0  0  0  0  0
  162.0220  211.0860  151.0520 C   0  0  0  0  0  1  0  0  0  0  0  0
  160.8270  209.7900  153.4380 C   0  0  2  0  0  3  0  0  0  0  0  0
  160.6890  207.6020  154.7880 C   0  0  0  0  0  0  0  0  0  0  0  0
  162.0250  206.7210  151.3550 C   0  0  1  0  0  3  0  0  0  0  0  0
  160.8090  205.5100  149.8360 C   0  0  2  0  0  0  0  0  0  0  0  0
  161.9040  209.5930  151.0950 C   0  0  0  0  0  0  0  0  0  0  0  0
  159.5230  210.2820  153.0260 N   0  0  0  0  0  1  0  0  0  0  0  0
  162.1890  208.8540  150.0070 C   0  0  0  0  0  0  0  0  0  0  0  0
  160.3330  206.8680  156.0340 C   0  0  0  0  0  1  0  0  0  0  0  0
  160.5400  209.7370  155.8090 O   0  0  0  0  0  0  0  0  0  0  0  0
  161.0330  206.9120  153.7030 C   0  0  0  0  0  3  0  0  0  0  0  0
  161.4180  208.9300  152.3380 C   0  0  0  0  0  0  0  0  0  0  0  0
  159.3260  205.8490  149.8680 C   0  0  0  0  0  1  0  0  0  0  0  0
  162.0860  207.4270  150.0910 N   0  0  0  0  0  0  0  0  0  0  0  0
  161.4320  207.5770  152.4460 C   0  0  0  0  0  0  0  0  0  0  0  0
  162.6490  206.1380  148.1360 C   0  0  0  0  0  1  0  0  0  0  0  0
  160.6940  209.0720  154.7500 C   0  0  0  0  0  0  0  0  0  0  0  0
  161.2830  205.5310  151.1730 O   0  0  0  0  0  0  0  0  0  0  0  0
  160.9700  203.9490  147.8420 C   0  0  0  0  0  3  0  0  0  0  0  0
  160.9750  204.1290  149.2330 C   0  0  0  0  0  0  0  0  0  0  0  0
  161.0860  202.6630  147.3140 C   0  0  0  0  0  0  0  0  0  0  0  0
  161.0730  203.0390  150.0470 N   0  0  0  0  0  0  0  0  0  0  0  0
  161.1870  201.7770  149.5490 C   0  0  0  0  0  3  0  0  0  0  0  0
  161.1970  201.5670  148.1690 C   0  0  0  0  0  3  0  0  0  0  0  0
  161.0890  202.4250  145.5800 Cl  0  0  0  0  0  0  0  0  0  0  0  0
  162.6100  209.4880  148.7170 C   0  0  0  0  0  2  0  0  0  0  0  0
  161.5080  210.3990  148.2080 C   0  0  0  0  0  2  0  0  0  0  0  0
  162.0610  211.7870  147.9300 C   0  0  0  0  0  2  0  0  0  0  0  0
  161.0070  212.7390  147.8220 O   0  0  0  0  0  0  0  0  0  0  0  0
  158.8400  212.6320  147.0850 O   0  0  0  0  0  0  0  0  0  0  0  0
  160.0660  212.6910  146.7940 C   0  0  0  0  0  0  0  0  0  0  0  0
  159.6750  212.1650  144.4200 C   0  0  0  0  0  1  0  0  0  0  0  0
  160.4770  212.7060  145.4580 O   0  0  0  0  0  0  0  0  0  0  0  0
  1 17  1  6  0  0  0
  1  6  1  0  0  0  0
  1 15  1  0  0  0  0
  2  7  1  0  0  0  0
  3  8  1  6  0  0  0
  3 18  1  0  0  0  0
  4 10  1  0  0  0  0
  5 19  1  6  0  0  0
  5 16  1  0  0  0  0
  6 14  1  1  0  0  0
  6 19  1  0  0  0  0
  7 13  1  0  0  0  0
  9 15  1  0  0  0  0
  9  7  2  0  0  0  0
 12  4  2  0  0  0  0
 13 16  2  0  0  0  0
 13  3  1  0  0  0  0
 15  5  1  0  0  0  0
 16 12  1  0  0  0  0
 18  4  1  0  0  0  0
 18 11  2  0  0  0  0
 20 21  1  0  0  0  0
 21  6  1  0  0  0  0
 21 23  2  0  0  0  0
 22 20  2  0  0  0  0
 22 25  1  0  0  0  0
 24 23  1  0  0  0  0
 25 24  2  0  0  0  0
 26 22  1  0  0  0  0
 27  9  1  0  0  0  0
 28 27  1  0  0  0  0
 29 28  1  0  0  0  0
 30 29  1  0  0  0  0
 32 31  2  0  0  0  0
 32 30  1  0  0  0  0
 33 34  1  0  0  0  0
 34 32  1  0  0  0  0
M  END
>  <MODEL>
4

>  <REMARK>
 VINA RESULT:      -5.3      2.938      6.283
  Name = 
  7 active torsions:
  status: ('A' for Active; 'I' for Inactive)
    1  A    between atoms: O_1  and  C_18
    2  A    between atoms: O_1  and  C_29
    3  A    between atoms: C_2  and  C_15
    4  A    between atoms: C_2  and  C_33
    5  A    between atoms: C_9  and  C_13
    6  A    between atoms: C_18  and  O_30
    7  A    between atoms: C_29  and  C_33
                            x       y       z     vdW  Elec       q    Type
                         _______ _______ _______ _____ _____    ______ ____

>  <TORSDO>
F 7

$$$$
=
 OpenBabel11042422283D

 34 37  0  0  1  0  0  0  0  0999 V2000
  161.4250  205.7100  149.6470 C   0  0  1  0  0  3  0  0  0  0  0  0
  161.9400  210.4230  150.9660 C   0  0  0  0  0  1  0  0  0  0  0  0
  160.8500  209.4750  153.5570 C   0  0  2  0  0  3  0  0  0  0  0  0
  160.7890  207.5030  155.2110 C   0  0  0  0  0  0  0  0  0  0  0  0
  162.0090  206.1470  151.8920 C   0  0  1  0  0  3  0  0  0  0  0  0
  160.7540  204.7220  150.6100 C   0  0  2  0  0  0  0  0  0  0  0  0
  161.8420  208.9510  151.2270 C   0  0  0  0  0  0  0  0  0  0  0  0
  159.5250  209.8940  153.1280 N   0  0  0  0  0  1  0  0  0  0  0  0
  162.0960  208.0650  150.2470 C   0  0  0  0  0  0  0  0  0  0  0  0
  160.4880  206.9540  156.5620 C   0  0  0  0  0  1  0  0  0  0  0  0
  160.6510  209.7620  155.9210 O   0  0  0  0  0  0  0  0  0  0  0  0
  161.1020  206.6670  154.2250 C   0  0  0  0  0  3  0  0  0  0  0  0
  161.4110  208.4700  152.5700 C   0  0  0  0  0  0  0  0  0  0  0  0
  159.2690  205.0510  150.6490 C   0  0  0  0  0  1  0  0  0  0  0  0
  162.0150  206.6640  150.5380 N   0  0  0  0  0  0  0  0  0  0  0  0
  161.4460  207.1470  152.8700 C   0  0  0  0  0  0  0  0  0  0  0  0
  162.5210  205.1120  148.7680 C   0  0  0  0  0  1  0  0  0  0  0  0
  160.7740  208.9530  154.9620 C   0  0  0  0  0  0  0  0  0  0  0  0
  161.2760  204.9380  151.9110 O   0  0  0  0  0  0  0  0  0  0  0  0
  160.8230  202.8860  148.8590 C   0  0  0  0  0  3  0  0  0  0  0  0
  160.9140  203.2690  150.2050 C   0  0  0  0  0  0  0  0  0  0  0  0
  160.9370  201.5380  148.5190 C   0  0  0  0  0  0  0  0  0  0  0  0
  161.0930  202.3130  151.1610 N   0  0  0  0  0  0  0  0  0  0  0  0
  161.2060  200.9930  150.8470 C   0  0  0  0  0  3  0  0  0  0  0  0
  161.1310  200.5820  149.5150 C   0  0  0  0  0  3  0  0  0  0  0  0
  160.8320  201.0470  146.8420 Cl  0  0  0  0  0  0  0  0  0  0  0  0
  162.4620  208.5100  148.8640 C   0  0  0  0  0  2  0  0  0  0  0  0
  161.3450  208.1590  147.8980 C   0  0  0  0  0  2  0  0  0  0  0  0
  161.8600  207.2180  146.8210 C   0  0  0  0  0  2  0  0  0  0  0  0
  160.7790  206.5810  146.1480 O   0  0  0  0  0  0  0  0  0  0  0  0
  160.8310  205.8310  143.9840 O   0  0  0  0  0  0  0  0  0  0  0  0
  160.9810  205.5700  145.2080 C   0  0  0  0  0  0  0  0  0  0  0  0
  162.6790  203.8150  145.5230 C   0  0  0  0  0  1  0  0  0  0  0  0
  161.3430  204.2850  145.6200 O   0  0  0  0  0  0  0  0  0  0  0  0
  1 17  1  1  0  0  0
  1 15  1  0  0  0  0
  1  6  1  0  0  0  0
  2  7  1  0  0  0  0
  3  8  1  6  0  0  0
  3 18  1  0  0  0  0
  4 10  1  0  0  0  0
  5 19  1  6  0  0  0
  5 16  1  0  0  0  0
  6 14  1  1  0  0  0
  6 19  1  0  0  0  0
  7 13  1  0  0  0  0
  9 15  1  0  0  0  0
  9  7  2  0  0  0  0
 12  4  2  0  0  0  0
 13 16  2  0  0  0  0
 13  3  1  0  0  0  0
 15  5  1  0  0  0  0
 16 12  1  0  0  0  0
 18  4  1  0  0  0  0
 18 11  2  0  0  0  0
 20 21  1  0  0  0  0
 21  6  1  0  0  0  0
 21 23  2  0  0  0  0
 22 20  2  0  0  0  0
 22 25  1  0  0  0  0
 24 23  1  0  0  0  0
 25 24  2  0  0  0  0
 26 22  1  0  0  0  0
 27  9  1  0  0  0  0
 28 27  1  0  0  0  0
 29 28  1  0  0  0  0
 30 29  1  0  0  0  0
 31 32  2  0  0  0  0
 32 34  1  0  0  0  0
 32 30  1  0  0  0  0
 33 34  1  0  0  0  0
M  END
>  <MODEL>
5

>  <REMARK>
 VINA RESULT:      -4.1      3.555      6.933
  Name = 
  7 active torsions:
  status: ('A' for Active; 'I' for Inactive)
    1  A    between atoms: O_1  and  C_18
    2  A    between atoms: O_1  and  C_29
    3  A    between atoms: C_2  and  C_15
    4  A    between atoms: C_2  and  C_33
    5  A    between atoms: C_9  and  C_13
    6  A    between atoms: C_18  and  O_30
    7  A    between atoms: C_29  and  C_33
                            x       y       z     vdW  Elec       q    Type
                         _______ _______ _______ _____ _____    ______ ____

>  <TORSDO>
F 7

$$$$
=
 OpenBabel11042422283D

 34 37  0  0  1  0  0  0  0  0999 V2000
  161.7750  205.7980  150.2550 C   0  0  1  0  0  3  0  0  0  0  0  0
  161.4120  206.8690  155.0450 C   0  0  0  0  0  1  0  0  0  0  0  0
  161.2760  209.6680  154.0720 C   0  0  2  0  0  3  0  0  0  0  0  0
  160.4310  211.1910  152.1760 C   0  0  0  0  0  0  0  0  0  0  0  0
  160.4280  207.6430  150.8510 C   0  0  1  0  0  3  0  0  0  0  0  0
  161.8840  206.9350  149.2290 C   0  0  2  0  0  0  0  0  0  0  0  0
  161.2060  207.1300  153.5830 C   0  0  0  0  0  0  0  0  0  0  0  0
  162.7060  209.7950  154.3040 N   0  0  0  0  0  1  0  0  0  0  0  0
  161.2390  206.1170  152.6980 C   0  0  0  0  0  0  0  0  0  0  0  0
  160.1100  212.5460  151.6480 C   0  0  0  0  0  1  0  0  0  0  0  0
  160.5790  211.9260  154.4270 O   0  0  0  0  0  0  0  0  0  0  0  0
  160.4200  210.1510  151.3460 C   0  0  0  0  0  3  0  0  0  0  0  0
  161.0160  208.5290  153.1060 C   0  0  0  0  0  0  0  0  0  0  0  0
  163.2670  207.5540  149.3710 C   0  0  0  0  0  1  0  0  0  0  0  0
  161.0170  206.4000  151.3110 N   0  0  0  0  0  0  0  0  0  0  0  0
  160.6940  208.7760  151.8110 C   0  0  0  0  0  0  0  0  0  0  0  0
  161.0370  204.5550  149.7640 C   0  0  0  0  0  1  0  0  0  0  0  0
  160.7320  210.9860  153.6010 C   0  0  0  0  0  0  0  0  0  0  0  0
  160.9310  207.9320  149.5610 O   0  0  0  0  0  0  0  0  0  0  0  0
  162.6530  205.6520  147.1790 C   0  0  0  0  0  3  0  0  0  0  0  0
  161.7040  206.4820  147.7940 C   0  0  0  0  0  0  0  0  0  0  0  0
  162.4820  205.2820  145.8450 C   0  0  0  0  0  0  0  0  0  0  0  0
  160.6390  206.9290  147.0680 N   0  0  0  0  0  0  0  0  0  0  0  0
  160.4560  206.5780  145.7660 C   0  0  0  0  0  3  0  0  0  0  0  0
  161.3780  205.7440  145.1300 C   0  0  0  0  0  3  0  0  0  0  0  0
  163.6560  204.2410  145.0680 Cl  0  0  0  0  0  0  0  0  0  0  0  0
  161.5000  204.7070  153.1290 C   0  0  0  0  0  2  0  0  0  0  0  0
  160.5700  203.7620  152.3920 C   0  0  0  0  0  2  0  0  0  0  0  0
  161.3450  202.5630  151.8700 C   0  0  0  0  0  2  0  0  0  0  0  0
  160.4630  201.5950  151.3120 O   0  0  0  0  0  0  0  0  0  0  0  0
  159.3410  201.4620  149.3180 O   0  0  0  0  0  0  0  0  0  0  0  0
  160.4270  201.3240  149.9440 C   0  0  0  0  0  0  0  0  0  0  0  0
  161.5720  200.5780  147.8960 C   0  0  0  0  0  1  0  0  0  0  0  0
  161.5810  200.9020  149.2770 O   0  0  0  0  0  0  0  0  0  0  0  0
  1 17  1  6  0  0  0
  1 15  1  0  0  0  0
  3  8  1  6  0  0  0
  4 18  1  0  0  0  0
  5 19  1  6  0  0  0
  5 15  1  0  0  0  0
  5 16  1  0  0  0  0
  6 14  1  1  0  0  0
  6 19  1  0  0  0  0
  6  1  1  0  0  0  0
  7  2  1  0  0  0  0
  9 27  1  0  0  0  0
  9  7  2  0  0  0  0
 10  4  1  0  0  0  0
 12 16  1  0  0  0  0
 12  4  2  0  0  0  0
 13  7  1  0  0  0  0
 13  3  1  0  0  0  0
 15  9  1  0  0  0  0
 16 13  2  0  0  0  0
 18  3  1  0  0  0  0
 18 11  2  0  0  0  0
 20 21  1  0  0  0  0
 21  6  1  0  0  0  0
 22 20  2  0  0  0  0
 23 21  2  0  0  0  0
 24 23  1  0  0  0  0
 25 24  2  0  0  0  0
 25 22  1  0  0  0  0
 26 22  1  0  0  0  0
 28 27  1  0  0  0  0
 29 28  1  0  0  0  0
 30 29  1  0  0  0  0
 31 32  2  0  0  0  0
 32 30  1  0  0  0  0
 33 34  1  0  0  0  0
 34 32  1  0  0  0  0
M  END
>  <MODEL>
6

>  <REMARK>
 VINA RESULT:      -3.9      3.505      8.560
  Name = 
  7 active torsions:
  status: ('A' for Active; 'I' for Inactive)
    1  A    between atoms: O_1  and  C_18
    2  A    between atoms: O_1  and  C_29
    3  A    between atoms: C_2  and  C_15
    4  A    between atoms: C_2  and  C_33
    5  A    between atoms: C_9  and  C_13
    6  A    between atoms: C_18  and  O_30
    7  A    between atoms: C_29  and  C_33
                            x       y       z     vdW  Elec       q    Type
                         _______ _______ _______ _____ _____    ______ ____

>  <TORSDO>
F 7

$$$$
=
 OpenBabel11042422283D

 34 37  0  0  1  0  0  0  0  0999 V2000
  159.9230  209.9200  153.9370 C   0  0  1  0  0  3  0  0  0  0  0  0
  162.7070  207.9680  150.3780 C   0  0  0  0  0  1  0  0  0  0  0  0
  162.0180  210.4600  148.9240 C   0  0  2  0  0  3  0  0  0  0  0  0
  161.5490  212.9780  149.1840 C   0  0  0  0  0  0  0  0  0  0  0  0
  161.1880  211.4100  152.6130 C   0  0  1  0  0  3  0  0  0  0  0  0
  159.1660  211.2290  153.6750 C   0  0  2  0  0  0  0  0  0  0  0  0
  162.0640  209.0980  151.1220 C   0  0  0  0  0  0  0  0  0  0  0  0
  160.9350  209.7490  148.2640 N   0  0  0  0  0  1  0  0  0  0  0  0
  161.6590  208.9350  152.3950 C   0  0  0  0  0  0  0  0  0  0  0  0
  161.3990  214.3360  148.5910 C   0  0  0  0  0  1  0  0  0  0  0  0
  162.5690  212.0680  147.2460 O   0  0  0  0  0  0  0  0  0  0  0  0
  161.2140  212.7840  150.4570 C   0  0  0  0  0  3  0  0  0  0  0  0
  161.8270  210.3950  150.4270 C   0  0  0  0  0  0  0  0  0  0  0  0
  158.0250  210.9190  152.7160 C   0  0  0  0  0  1  0  0  0  0  0  0
  161.0680  210.0440  153.0840 N   0  0  0  0  0  0  0  0  0  0  0  0
  161.3720  211.4720  151.1170 C   0  0  0  0  0  0  0  0  0  0  0  0
  160.3980  209.7250  155.3750 C   0  0  0  0  0  1  0  0  0  0  0  0
  162.0880  211.8620  148.3920 C   0  0  0  0  0  0  0  0  0  0  0  0
  160.0430  212.1320  153.0220 O   0  0  0  0  0  0  0  0  0  0  0  0
  157.3250  211.4750  155.4050 C   0  0  0  0  0  3  0  0  0  0  0  0
  158.5860  211.8600  154.9260 C   0  0  0  0  0  0  0  0  0  0  0  0
  156.7990  212.0980  156.5360 C   0  0  0  0  0  0  0  0  0  0  0  0
  159.2680  212.8530  155.5650 N   0  0  0  0  0  0  0  0  0  0  0  0
  158.7700  213.4720  156.6700 C   0  0  0  0  0  3  0  0  0  0  0  0
  157.5230  213.1030  157.1770 C   0  0  0  0  0  3  0  0  0  0  0  0
  155.2290  211.6230  157.1480 Cl  0  0  0  0  0  0  0  0  0  0  0  0
  161.8130  207.6250  153.1050 C   0  0  0  0  0  2  0  0  0  0  0  0
  160.8300  206.6150  152.5410 C   0  0  0  0  0  2  0  0  0  0  0  0
  161.3490  205.2020  152.7540 C   0  0  0  0  0  2  0  0  0  0  0  0
  161.9220  204.6880  151.5570 O   0  0  0  0  0  0  0  0  0  0  0  0
  160.8240  204.7740  149.5470 O   0  0  0  0  0  0  0  0  0  0  0  0
  161.1480  204.0950  150.5590 C   0  0  0  0  0  0  0  0  0  0  0  0
  160.6770  201.8930  149.5620 C   0  0  0  0  0  1  0  0  0  0  0  0
  160.7370  202.7640  150.6800 O   0  0  0  0  0  0  0  0  0  0  0  0
  1 17  1  1  0  0  0
  2  7  1  0  0  0  0
  3  8  1  6  0  0  0
  3 13  1  0  0  0  0
  4 12  2  0  0  0  0
  5 16  1  6  0  0  0
  5 19  1  0  0  0  0
  5 15  1  0  0  0  0
  6 14  1  6  0  0  0
  6  1  1  0  0  0  0
  6 21  1  0  0  0  0
  7  9  2  0  0  0  0
  9 15  1  0  0  0  0
  9 27  1  0  0  0  0
 10  4  1  0  0  0  0
 11 18  2  0  0  0  0
 12 16  1  0  0  0  0
 13 16  2  0  0  0  0
 13  7  1  0  0  0  0
 15  1  1  0  0  0  0
 18  3  1  0  0  0  0
 18  4  1  0  0  0  0
 19  6  1  0  0  0  0
 20 22  1  0  0  0  0
 21 20  2  0  0  0  0
 21 23  1  0  0  0  0
 22 26  1  0  0  0  0
 22 25  2  0  0  0  0
 23 24  2  0  0  0  0
 24 25  1  0  0  0  0
 28 29  1  0  0  0  0
 28 27  1  0  0  0  0
 30 29  1  0  0  0  0
 31 32  2  0  0  0  0
 32 34  1  0  0  0  0
 32 30  1  0  0  0  0
 33 34  1  0  0  0  0
M  END
>  <MODEL>
7

>  <REMARK>
 VINA RESULT:      -3.4      3.389      7.486
  Name = 
  7 active torsions:
  status: ('A' for Active; 'I' for Inactive)
    1  A    between atoms: O_1  and  C_18
    2  A    between atoms: O_1  and  C_29
    3  A    between atoms: C_2  and  C_15
    4  A    between atoms: C_2  and  C_33
    5  A    between atoms: C_9  and  C_13
    6  A    between atoms: C_18  and  O_30
    7  A    between atoms: C_29  and  C_33
                            x       y       z     vdW  Elec       q    Type
                         _______ _______ _______ _____ _____    ______ ____

>  <TORSDO>
F 7

$$$$
=
 OpenBabel11042422283D

 34 37  0  0  1  0  0  0  0  0999 V2000
  160.7500  208.7300  152.3860 C   0  0  1  0  0  3  0  0  0  0  0  0
  161.3740  207.8790  147.5790 C   0  0  0  0  0  1  0  0  0  0  0  0
  161.5810  210.8340  147.4170 C   0  0  2  0  0  3  0  0  0  0  0  0
  162.4020  212.9480  148.6360 C   0  0  0  0  0  0  0  0  0  0  0  0
  162.1970  210.1780  151.2100 C   0  0  1  0  0  3  0  0  0  0  0  0
  160.6410  210.1750  152.8920 C   0  0  2  0  0  0  0  0  0  0  0  0
  161.5230  208.6750  148.8400 C   0  0  0  0  0  0  0  0  0  0  0  0
  160.1700  210.8920  147.0730 N   0  0  0  0  0  1  0  0  0  0  0  0
  161.4090  208.0790  150.0410 C   0  0  0  0  0  0  0  0  0  0  0  0
  162.7550  214.3950  148.6250 C   0  0  0  0  0  1  0  0  0  0  0  0
  162.3880  212.7680  146.2710 O   0  0  0  0  0  0  0  0  0  0  0  0
  162.3330  212.3050  149.7980 C   0  0  0  0  0  3  0  0  0  0  0  0
  161.7500  210.1450  148.7580 C   0  0  0  0  0  0  0  0  0  0  0  0
  159.2930  210.7220  152.4450 C   0  0  0  0  0  1  0  0  0  0  0  0
  161.5790  208.8660  151.2260 N   0  0  0  0  0  0  0  0  0  0  0  0
  162.0230  210.8620  149.8780 C   0  0  0  0  0  0  0  0  0  0  0  0
  161.4120  207.7540  153.3550 C   0  0  0  0  0  1  0  0  0  0  0  0
  162.1580  212.2190  147.3820 C   0  0  0  0  0  0  0  0  0  0  0  0
  161.6490  210.9480  152.2610 O   0  0  0  0  0  0  0  0  0  0  0  0
  161.9580  210.6110  155.0180 C   0  0  0  0  0  3  0  0  0  0  0  0
  160.7370  210.3020  154.4000 C   0  0  0  0  0  0  0  0  0  0  0  0
  162.0260  210.6850  156.4090 C   0  0  0  0  0  0  0  0  0  0  0  0
  159.6410  210.0590  155.1740 N   0  0  0  0  0  0  0  0  0  0  0  0
  159.6890  210.1270  156.5330 C   0  0  0  0  0  3  0  0  0  0  0  0
  160.8870  210.4440  157.1750 C   0  0  0  0  0  3  0  0  0  0  0  0
  163.5420  211.0770  157.1910 Cl  0  0  0  0  0  0  0  0  0  0  0  0
  161.1080  206.6160  150.1650 C   0  0  0  0  0  2  0  0  0  0  0  0
  162.2310  205.9220  150.9130 C   0  0  0  0  0  2  0  0  0  0  0  0
  161.7980  204.5270  151.3320 C   0  0  0  0  0  2  0  0  0  0  0  0
  160.7550  204.0480  150.4910 O   0  0  0  0  0  0  0  0  0  0  0  0
  160.5820  201.7630  150.4560 O   0  0  0  0  0  0  0  0  0  0  0  0
  160.8390  202.8240  149.8260 C   0  0  0  0  0  0  0  0  0  0  0  0
  161.5790  203.9430  147.7610 C   0  0  0  0  0  1  0  0  0  0  0  0
  161.2060  202.7770  148.4780 O   0  0  0  0  0  0  0  0  0  0  0  0
  1  6  1  0  0  0  0
  1 17  1  1  0  0  0
  2  7  1  0  0  0  0
  3  8  1  1  0  0  0
  3 13  1  0  0  0  0
  4 12  2  0  0  0  0
  5 16  1  6  0  0  0
  5 15  1  0  0  0  0
  5 19  1  0  0  0  0
  6 14  1  6  0  0  0
  6 21  1  0  0  0  0
  7  9  2  0  0  0  0
  9 27  1  0  0  0  0
  9 15  1  0  0  0  0
 10  4  1  0  0  0  0
 11 18  2  0  0  0  0
 12 16  1  0  0  0  0
 13  7  1  0  0  0  0
 13 16  2  0  0  0  0
 15  1  1  0  0  0  0
 18  3  1  0  0  0  0
 18  4  1  0  0  0  0
 19  6  1  0  0  0  0
 20 22  1  0  0  0  0
 21 20  2  0  0  0  0
 21 23  1  0  0  0  0
 22 25  2  0  0  0  0
 22 26  1  0  0  0  0
 23 24  2  0  0  0  0
 24 25  1  0  0  0  0
 27 28  1  0  0  0  0
 28 29  1  0  0  0  0
 30 29  1  0  0  0  0
 32 31  2  0  0  0  0
 32 30  1  0  0  0  0
 33 34  1  0  0  0  0
 34 32  1  0  0  0  0
M  END
>  <MODEL>
8

>  <REMARK>
 VINA RESULT:      -3.4      2.096      6.789
  Name = 
  7 active torsions:
  status: ('A' for Active; 'I' for Inactive)
    1  A    between atoms: O_1  and  C_18
    2  A    between atoms: O_1  and  C_29
    3  A    between atoms: C_2  and  C_15
    4  A    between atoms: C_2  and  C_33
    5  A    between atoms: C_9  and  C_13
    6  A    between atoms: C_18  and  O_30
    7  A    between atoms: C_29  and  C_33
                            x       y       z     vdW  Elec       q    Type
                         _______ _______ _______ _____ _____    ______ ____

>  <TORSDO>
F 7

$$$$
