=
 OpenBabel11052412143D

 41 49  0  0  1  0  0  0  0  0999 V2000
  158.2060  213.8490  150.4590 N   0  0  0  0  0  0  0  0  0  0  0  0
  162.4680  213.3060  146.2000 C   0  0  0  0  0  2  0  0  0  0  0  0
  160.0920  213.3340  147.3920 C   0  0  0  0  0  0  0  0  0  0  0  0
  158.0630  212.7570  146.1230 C   0  0  0  0  0  3  0  0  0  0  0  0
  160.8150  212.9640  149.5410 N   0  0  0  0  0  2  0  0  0  0  0  0
  157.1790  212.4850  147.0840 C   0  0  0  0  0  3  0  0  0  0  0  0
  155.8680  213.6380  150.3560 N   0  0  0  0  0  0  0  0  0  0  0  0
  161.8810  212.0470  146.4580 O   0  0  0  0  0  0  0  0  0  0  0  0
  157.1830  213.0600  148.4450 C   0  0  0  0  0  0  0  0  0  0  0  0
  161.5620  213.0900  147.3490 C   0  0  1  0  0  0  0  0  0  0  0  0
  155.9480  213.1770  149.0840 C   0  0  0  0  0  3  0  0  0  0  0  0
  158.3440  213.4090  149.1780 C   0  0  0  0  0  0  0  0  0  0  0  0
  156.9870  213.9780  151.0410 C   0  0  0  0  0  0  0  0  0  0  0  0
  159.1590  213.7560  146.2860 C   0  0  2  0  0  3  0  0  0  0  0  0
  159.7200  213.2310  148.6630 C   0  0  0  0  0  0  0  0  0  0  0  0
  156.8850  214.4530  152.3780 N   0  0  0  0  0  1  0  0  0  0  0  0
  162.0550  212.8570  148.7790 C   0  0  2  0  0  3  0  0  0  0  0  0
  162.2780  209.6220  150.5290 C   0  0  0  0  0  2  0  0  0  0  0  0
  161.9960  210.3900  148.2520 C   0  0  0  0  0  2  0  0  0  0  0  0
  160.9460  207.8050  147.6350 O   0  0  0  0  0  0  0  0  0  0  0  0
  162.7120  211.4910  149.0220 C   0  0  2  0  0  3  0  0  0  0  0  0
  162.6230  211.0980  150.4950 C   0  0  0  0  0  2  0  0  0  0  0  0
  161.8450  209.2960  149.1880 N   0  0  0  0  0  0  0  0  0  0  0  0
  161.3110  208.0190  148.8240 C   0  0  0  0  0  0  0  0  0  0  0  0
  161.1940  206.9880  149.8060 N   0  0  0  0  0  2  0  0  0  0  0  0
  161.1420  203.7230  148.3010 N   0  0  0  0  0  2  0  0  0  0  0  0
  160.6530  205.6770  149.4880 C   0  0  1  0  0  3  0  0  0  0  0  0
  161.7300  204.8240  148.9490 N   0  0  1  0  0  0  0  0  0  0  0  0
  160.4460  202.9130  149.2240 C   0  0  0  0  0  3  0  0  0  0  0  0
  160.4830  203.4340  150.3960 N   0  0  0  0  0  0  0  0  0  0  0  0
  161.2750  204.6650  150.3530 C   0  0  2  0  0  3  0  0  0  0  0  0
  159.8440  213.9950  144.9500 C   0  0  1  0  0  3  0  0  0  0  0  0
  159.2730  213.1000  143.9140 C   0  0  1  0  0  3  0  0  0  0  0  0
  158.8940  214.4530  144.0190 O   0  0  0  0  0  0  0  0  0  0  0  0
  162.0100  212.5310  140.6500 C   0  0  0  0  0  0  0  0  0  0  0  0
  159.9360  213.4380  141.5130 C   0  0  0  0  0  3  0  0  0  0  0  0
  162.3040  212.0040  141.9110 C   0  0  0  0  0  3  0  0  0  0  0  0
  160.2350  212.9250  142.7830 C   0  0  0  0  0  0  0  0  0  0  0  0
  162.9520  212.3260  139.5200 C   0  0  0  0  0  1  0  0  0  0  0  0
  161.4170  212.1970  142.9740 C   0  0  0  0  0  3  0  0  0  0  0  0
  160.8240  213.2450  140.4510 C   0  0  0  0  0  3  0  0  0  0  0  0
  1 13  2  0  0  0  0
  2  8  1  0  0  0  0
  3 15  2  0  0  0  0
  4  6  2  0  0  0  0
  6  9  1  0  0  0  0
  7 13  1  0  0  0  0
  8 10  1  0  0  0  0
  9 11  1  0  0  0  0
  9 12  2  0  0  0  0
 10  2  1  6  0  0  0
 10  3  1  0  0  0  0
 10 17  1  0  0  0  0
 11  7  2  0  0  0  0
 12  1  1  0  0  0  0
 13 16  1  0  0  0  0
 14  4  1  6  0  0  0
 14  3  1  0  0  0  0
 15 12  1  0  0  0  0
 15  5  1  0  0  0  0
 17 21  1  0  0  0  0
 17  5  1  1  0  0  0
 19 23  1  0  0  0  0
 20 24  2  0  0  0  0
 21 19  1  6  0  0  0
 21 22  1  0  0  0  0
 22 18  1  0  0  0  0
 23 18  1  0  0  0  0
 24 23  1  0  0  0  0
 24 25  1  0  0  0  0
 26 29  1  0  0  0  0
 27 25  1  1  0  0  0
 27 31  1  0  0  0  0
 28 26  1  6  0  0  0
 28 27  1  0  0  0  0
 28 31  1  0  0  0  0
 29 30  2  0  0  0  0
 31 30  1  6  0  0  0
 32 34  1  6  0  0  0
 32 14  1  0  0  0  0
 33 38  1  6  0  0  0
 33 34  1  0  0  0  0
 33 32  1  0  0  0  0
 35 37  1  0  0  0  0
 36 38  2  0  0  0  0
 37 40  2  0  0  0  0
 38 40  1  0  0  0  0
 39 35  1  0  0  0  0
 41 35  2  0  0  0  0
 41 36  1  0  0  0  0
M  END
>  <MODEL>
1

>  <REMARK>
 VINA RESULT:      -5.7      0.000      0.000
  Name = 
  4 active torsions:
  status: ('A' for Active; 'I' for Inactive)
    1  A    between atoms: C_10  and  N_33
    2  A    between atoms: C_14  and  C_31
    3  A    between atoms: C_16  and  C_41
    4  A    between atoms: C_27  and  C_29
                            x       y       z     vdW  Elec       q    Type
                         _______ _______ _______ _____ _____    ______ ____

>  <TORSDO>
F 4

$$$$
=
 OpenBabel11052412143D

 41 49  0  0  1  0  0  0  0  0999 V2000
  162.4690  206.4940  146.9860 N   0  0  0  0  0  0  0  0  0  0  0  0
  162.3030  210.7160  151.3150 C   0  0  0  0  0  2  0  0  0  0  0  0
  161.9190  208.4290  150.0170 C   0  0  0  0  0  0  0  0  0  0  0  0
  160.6030  206.6230  151.0490 C   0  0  0  0  0  3  0  0  0  0  0  0
  162.1530  209.2390  147.8790 N   0  0  0  0  0  2  0  0  0  0  0  0
  160.2870  205.8520  150.0090 C   0  0  0  0  0  3  0  0  0  0  0  0
  161.6310  204.2990  146.9190 N   0  0  0  0  0  0  0  0  0  0  0  0
  161.0030  210.4930  150.8100 O   0  0  0  0  0  0  0  0  0  0  0  0
  161.0820  205.7090  148.7710 C   0  0  0  0  0  0  0  0  0  0  0  0
  162.0690  209.9100  150.0980 C   0  0  1  0  0  0  0  0  0  0  0  0
  160.9820  204.4930  148.0940 C   0  0  0  0  0  3  0  0  0  0  0  0
  161.8540  206.7380  148.1760 C   0  0  0  0  0  0  0  0  0  0  0  0
  162.3750  205.2890  146.3670 C   0  0  0  0  0  0  0  0  0  0  0  0
  161.8690  207.4090  151.1250 C   0  0  2  0  0  3  0  0  0  0  0  0
  161.9550  208.1070  148.7280 C   0  0  0  0  0  0  0  0  0  0  0  0
  163.0420  205.0710  145.1310 N   0  0  0  0  0  1  0  0  0  0  0  0
  162.2410  210.4560  148.6780 C   0  0  2  0  0  3  0  0  0  0  0  0
  161.1970  213.6040  147.0730 C   0  0  0  0  0  2  0  0  0  0  0  0
  160.7680  211.2410  146.7860 C   0  0  0  0  0  2  0  0  0  0  0  0
  159.9130  211.8400  144.1250 O   0  0  0  0  0  0  0  0  0  0  0  0
  161.1660  211.4610  148.2380 C   0  0  2  0  0  3  0  0  0  0  0  0
  161.6950  212.8920  148.3150 C   0  0  0  0  0  2  0  0  0  0  0  0
  160.7350  212.5590  146.1870 N   0  0  0  0  0  0  0  0  0  0  0  0
  160.2970  212.8020  144.8470 C   0  0  0  0  0  0  0  0  0  0  0  0
  160.2930  214.1330  144.3270 N   0  0  0  0  0  2  0  0  0  0  0  0
  160.6260  214.4480  140.7610 N   0  0  0  0  0  2  0  0  0  0  0  0
  159.8640  214.4310  142.9710 C   0  0  1  0  0  3  0  0  0  0  0  0
  160.8260  213.8470  142.0160 N   0  0  1  0  0  0  0  0  0  0  0  0
  159.3490  214.1300  140.2510 C   0  0  0  0  0  3  0  0  0  0  0  0
  158.6890  213.4300  141.1000 N   0  0  0  0  0  0  0  0  0  0  0  0
  159.5250  213.1810  142.2760 C   0  0  2  0  0  3  0  0  0  0  0  0
  162.0320  207.9940  152.5190 C   0  0  1  0  0  3  0  0  0  0  0  0
  160.7030  208.2690  153.1180 C   0  0  1  0  0  3  0  0  0  0  0  0
  161.4500  207.1240  153.4570 O   0  0  0  0  0  0  0  0  0  0  0  0
  161.0930  211.2390  156.1990 C   0  0  0  0  0  0  0  0  0  0  0  0
  160.1050  210.4970  154.1160 C   0  0  0  0  0  3  0  0  0  0  0  0
  161.8180  210.0460  156.2800 C   0  0  0  0  0  3  0  0  0  0  0  0
  160.8180  209.2930  154.2010 C   0  0  0  0  0  0  0  0  0  0  0  0
  161.2350  212.2680  157.2610 C   0  0  0  0  0  1  0  0  0  0  0  0
  161.6850  209.0770  155.2810 C   0  0  0  0  0  3  0  0  0  0  0  0
  160.2390  211.4650  155.1150 C   0  0  0  0  0  3  0  0  0  0  0  0
  1 12  1  0  0  0  0
  3 10  1  0  0  0  0
  3 14  1  0  0  0  0
  5 15  1  0  0  0  0
  6  4  2  0  0  0  0
  7 11  2  0  0  0  0
  8  2  1  0  0  0  0
  9  6  1  0  0  0  0
 10  8  1  0  0  0  0
 10  2  1  1  0  0  0
 11  9  1  0  0  0  0
 12 15  1  0  0  0  0
 12  9  2  0  0  0  0
 13  7  1  0  0  0  0
 13  1  2  0  0  0  0
 14  4  1  1  0  0  0
 14 32  1  0  0  0  0
 15  3  2  0  0  0  0
 16 13  1  0  0  0  0
 17  5  1  6  0  0  0
 17 10  1  0  0  0  0
 18 22  1  0  0  0  0
 20 24  2  0  0  0  0
 21 19  1  6  0  0  0
 21 22  1  0  0  0  0
 21 17  1  0  0  0  0
 23 19  1  0  0  0  0
 23 18  1  0  0  0  0
 24 23  1  0  0  0  0
 25 24  1  0  0  0  0
 27 25  1  1  0  0  0
 28 26  1  6  0  0  0
 28 31  1  0  0  0  0
 28 27  1  0  0  0  0
 29 26  1  0  0  0  0
 29 30  2  0  0  0  0
 31 30  1  6  0  0  0
 31 27  1  0  0  0  0
 32 33  1  0  0  0  0
 32 34  1  1  0  0  0
 33 34  1  0  0  0  0
 33 38  1  1  0  0  0
 35 37  1  0  0  0  0
 35 39  1  0  0  0  0
 36 38  2  0  0  0  0
 36 41  1  0  0  0  0
 38 40  1  0  0  0  0
 40 37  2  0  0  0  0
 41 35  2  0  0  0  0
M  END
>  <MODEL>
2

>  <REMARK>
 VINA RESULT:      -5.7      3.844     10.016
  Name = 
  4 active torsions:
  status: ('A' for Active; 'I' for Inactive)
    1  A    between atoms: C_10  and  N_33
    2  A    between atoms: C_14  and  C_31
    3  A    between atoms: C_16  and  C_41
    4  A    between atoms: C_27  and  C_29
                            x       y       z     vdW  Elec       q    Type
                         _______ _______ _______ _____ _____    ______ ____

>  <TORSDO>
F 4

$$$$
=
 OpenBabel11052412143D

 41 49  0  0  1  0  0  0  0  0999 V2000
  164.5490  213.6510  139.4510 N   0  0  0  0  0  0  0  0  0  0  0  0
  159.9310  211.5070  142.7180 C   0  0  0  0  0  2  0  0  0  0  0  0
  161.3180  212.5430  140.7020 C   0  0  0  0  0  0  0  0  0  0  0  0
  160.1790  213.1850  138.6160 C   0  0  0  0  0  3  0  0  0  0  0  0
  163.0540  213.4140  141.9290 N   0  0  0  0  0  2  0  0  0  0  0  0
  161.0590  214.0020  138.0360 C   0  0  0  0  0  3  0  0  0  0  0  0
  164.6560  214.4490  137.2440 N   0  0  0  0  0  0  0  0  0  0  0  0
  159.7520  212.8870  142.4780 O   0  0  0  0  0  0  0  0  0  0  0  0
  162.5260  213.9510  138.2100 C   0  0  0  0  0  0  0  0  0  0  0  0
  161.0070  212.3440  142.1460 C   0  0  1  0  0  0  0  0  0  0  0  0
  163.3040  214.4050  137.1440 C   0  0  0  0  0  3  0  0  0  0  0  0
  163.1910  213.5690  139.4020 C   0  0  0  0  0  0  0  0  0  0  0  0
  165.2790  214.0710  138.3870 C   0  0  0  0  0  0  0  0  0  0  0  0
  160.5820  212.0420  139.4860 C   0  0  2  0  0  3  0  0  0  0  0  0
  162.4850  213.1750  140.6410 C   0  0  0  0  0  0  0  0  0  0  0  0
  166.6970  214.1310  138.4760 N   0  0  0  0  0  1  0  0  0  0  0  0
  162.1660  212.9080  142.9710 C   0  0  2  0  0  3  0  0  0  0  0  0
  159.8900  214.4530  145.4220 C   0  0  0  0  0  2  0  0  0  0  0  0
  162.1890  213.7030  145.3660 C   0  0  0  0  0  2  0  0  0  0  0  0
  162.1060  213.6130  148.2210 O   0  0  0  0  0  0  0  0  0  0  0  0
  161.7820  214.0370  143.9380 C   0  0  2  0  0  3  0  0  0  0  0  0
  160.2670  214.2330  143.9700 C   0  0  0  0  0  2  0  0  0  0  0  0
  161.0480  214.0470  146.1880 N   0  0  0  0  0  0  0  0  0  0  0  0
  161.0610  213.9840  147.6170 C   0  0  0  0  0  0  0  0  0  0  0  0
  159.8930  214.3400  148.3590 N   0  0  0  0  0  2  0  0  0  0  0  0
  158.3820  214.4530  151.6190 N   0  0  0  0  0  2  0  0  0  0  0  0
  159.8540  214.2870  149.8100 C   0  0  1  0  0  3  0  0  0  0  0  0
  158.4550  214.1240  150.2540 N   0  0  1  0  0  0  0  0  0  0  0  0
  159.1320  213.5420  152.3940 C   0  0  0  0  0  3  0  0  0  0  0  0
  159.7320  212.6970  151.6380 N   0  0  0  0  0  0  0  0  0  0  0  0
  159.3820  212.9640  150.2420 C   0  0  2  0  0  3  0  0  0  0  0  0
  159.3700  211.1810  139.8020 C   0  0  1  0  0  3  0  0  0  0  0  0
  158.5780  210.9400  138.5710 C   0  0  1  0  0  3  0  0  0  0  0  0
  159.4610  209.9730  139.0880 O   0  0  0  0  0  0  0  0  0  0  0  0
  154.5060  209.9240  139.4950 C   0  0  0  0  0  0  0  0  0  0  0  0
  156.7250  209.2550  138.7920 C   0  0  0  0  0  3  0  0  0  0  0  0
  154.9400  211.2480  139.6050 C   0  0  0  0  0  3  0  0  0  0  0  0
  157.1680  210.5790  138.9170 C   0  0  0  0  0  0  0  0  0  0  0  0
  153.0960  209.5750  139.8070 C   0  0  0  0  0  1  0  0  0  0  0  0
  156.2660  211.5770  139.3120 C   0  0  0  0  0  3  0  0  0  0  0  0
  155.3980  208.9280  139.0860 C   0  0  0  0  0  3  0  0  0  0  0  0
  3 10  1  0  0  0  0
  6  9  1  0  0  0  0
  6  4  2  0  0  0  0
  7 13  1  0  0  0  0
  8  2  1  0  0  0  0
  9 12  2  0  0  0  0
 10  8  1  0  0  0  0
 10  2  1  1  0  0  0
 10 17  1  0  0  0  0
 11  7  2  0  0  0  0
 11  9  1  0  0  0  0
 12  1  1  0  0  0  0
 12 15  1  0  0  0  0
 13 16  1  0  0  0  0
 13  1  2  0  0  0  0
 14  4  1  1  0  0  0
 14 32  1  0  0  0  0
 14  3  1  0  0  0  0
 15  3  2  0  0  0  0
 15  5  1  0  0  0  0
 17  5  1  6  0  0  0
 17 21  1  0  0  0  0
 18 23  1  0  0  0  0
 19 23  1  0  0  0  0
 21 22  1  1  0  0  0
 21 19  1  0  0  0  0
 22 18  1  0  0  0  0
 23 24  1  0  0  0  0
 24 20  2  0  0  0  0
 24 25  1  0  0  0  0
 26 29  1  0  0  0  0
 27 25  1  6  0  0  0
 27 31  1  0  0  0  0
 27 28  1  0  0  0  0
 28 26  1  1  0  0  0
 30 29  2  0  0  0  0
 31 28  1  0  0  0  0
 31 30  1  1  0  0  0
 32 34  1  6  0  0  0
 33 38  1  1  0  0  0
 33 34  1  0  0  0  0
 33 32  1  0  0  0  0
 35 37  1  0  0  0  0
 35 39  1  0  0  0  0
 36 38  2  0  0  0  0
 36 41  1  0  0  0  0
 38 40  1  0  0  0  0
 40 37  2  0  0  0  0
 41 35  2  0  0  0  0
M  END
>  <MODEL>
3

>  <REMARK>
 VINA RESULT:      -5.0      4.788      8.969
  Name = 
  4 active torsions:
  status: ('A' for Active; 'I' for Inactive)
    1  A    between atoms: C_10  and  N_33
    2  A    between atoms: C_14  and  C_31
    3  A    between atoms: C_16  and  C_41
    4  A    between atoms: C_27  and  C_29
                            x       y       z     vdW  Elec       q    Type
                         _______ _______ _______ _____ _____    ______ ____

>  <TORSDO>
F 4

$$$$
=
 OpenBabel11052412143D

 41 49  0  0  1  0  0  0  0  0999 V2000
  162.5320  212.1710  149.1190 N   0  0  0  0  0  0  0  0  0  0  0  0
  162.4710  206.5620  151.3830 C   0  0  0  0  0  2  0  0  0  0  0  0
  162.1110  208.6100  149.7280 C   0  0  0  0  0  0  0  0  0  0  0  0
  160.9750  208.2740  147.5700 C   0  0  0  0  0  3  0  0  0  0  0  0
  162.1400  210.2890  151.2950 N   0  0  0  0  0  2  0  0  0  0  0  0
  160.6230  209.5120  147.2240 C   0  0  0  0  0  3  0  0  0  0  0  0
  161.8090  213.0230  147.0510 N   0  0  0  0  0  0  0  0  0  0  0  0
  161.1500  207.0480  151.2660 O   0  0  0  0  0  0  0  0  0  0  0  0
  161.3280  210.7500  147.6170 C   0  0  0  0  0  0  0  0  0  0  0  0
  162.1880  207.9800  151.0770 C   0  0  1  0  0  0  0  0  0  0  0  0
  161.2420  211.8310  146.7390 C   0  0  0  0  0  3  0  0  0  0  0  0
  161.9970  210.9480  148.8500 C   0  0  0  0  0  0  0  0  0  0  0  0
  162.4550  213.1940  148.2310 C   0  0  0  0  0  0  0  0  0  0  0  0
  162.2000  207.9690  148.3660 C   0  0  2  0  0  3  0  0  0  0  0  0
  162.0670  209.9240  149.9160 C   0  0  0  0  0  0  0  0  0  0  0  0
  163.0380  214.4530  148.5450 N   0  0  0  0  0  1  0  0  0  0  0  0
  162.2230  209.0930  152.1270 C   0  0  2  0  0  3  0  0  0  0  0  0
  160.5010  210.3500  155.1330 C   0  0  0  0  0  2  0  0  0  0  0  0
  159.9990  210.0900  152.7800 C   0  0  0  0  0  2  0  0  0  0  0  0
  157.9300  212.0310  153.1290 O   0  0  0  0  0  0  0  0  0  0  0  0
  161.0660  209.0650  153.1370 C   0  0  2  0  0  3  0  0  0  0  0  0
  161.5550  209.4390  154.5350 C   0  0  0  0  0  2  0  0  0  0  0  0
  159.6650  210.7540  154.0230 N   0  0  0  0  0  0  0  0  0  0  0  0
  158.6160  211.7200  154.1410 C   0  0  0  0  0  0  0  0  0  0  0  0
  158.3470  212.3310  155.4040 N   0  0  0  0  0  2  0  0  0  0  0  0
  155.1000  213.8020  154.9390 N   0  0  0  0  0  2  0  0  0  0  0  0
  157.2980  213.3220  155.5750 C   0  0  1  0  0  3  0  0  0  0  0  0
  156.0110  212.7490  155.1310 N   0  0  1  0  0  0  0  0  0  0  0  0
  154.8220  214.4530  156.1600 C   0  0  0  0  0  3  0  0  0  0  0  0
  155.5260  213.9500  157.1070 N   0  0  0  0  0  0  0  0  0  0  0  0
  156.3330  212.8490  156.5770 C   0  0  2  0  0  3  0  0  0  0  0  0
  162.4360  206.4680  148.3970 C   0  0  1  0  0  3  0  0  0  0  0  0
  161.3350  205.7610  147.7000 C   0  0  1  0  0  3  0  0  0  0  0  0
  162.5780  205.9940  147.0810 O   0  0  0  0  0  0  0  0  0  0  0  0
  161.0200  201.6800  149.0090 C   0  0  0  0  0  0  0  0  0  0  0  0
  161.3670  203.2910  147.2340 C   0  0  0  0  0  3  0  0  0  0  0  0
  160.8880  202.7240  149.9300 C   0  0  0  0  0  3  0  0  0  0  0  0
  161.2510  204.3400  148.1570 C   0  0  0  0  0  0  0  0  0  0  0  0
  160.9020  200.2700  149.4610 C   0  0  0  0  0  1  0  0  0  0  0  0
  160.9990  204.0500  149.5050 C   0  0  0  0  0  3  0  0  0  0  0  0
  161.2560  201.9650  147.6600 C   0  0  0  0  0  3  0  0  0  0  0  0
  3 15  2  0  0  0  0
  3 10  1  0  0  0  0
  6  4  2  0  0  0  0
  6  9  1  0  0  0  0
  7 13  1  0  0  0  0
  8  2  1  0  0  0  0
  9 12  2  0  0  0  0
 10  8  1  0  0  0  0
 10  2  1  1  0  0  0
 10 17  1  0  0  0  0
 11  7  2  0  0  0  0
 11  9  1  0  0  0  0
 12  1  1  0  0  0  0
 12 15  1  0  0  0  0
 13 16  1  0  0  0  0
 13  1  2  0  0  0  0
 14  4  1  1  0  0  0
 14 32  1  0  0  0  0
 14  3  1  0  0  0  0
 15  5  1  0  0  0  0
 17  5  1  6  0  0  0
 17 21  1  0  0  0  0
 19 23  1  0  0  0  0
 20 24  2  0  0  0  0
 21 19  1  6  0  0  0
 21 22  1  0  0  0  0
 22 18  1  0  0  0  0
 23 24  1  0  0  0  0
 23 18  1  0  0  0  0
 24 25  1  0  0  0  0
 26 29  1  0  0  0  0
 27 25  1  6  0  0  0
 27 31  1  0  0  0  0
 28 26  1  1  0  0  0
 28 27  1  0  0  0  0
 28 31  1  0  0  0  0
 29 30  2  0  0  0  0
 31 30  1  1  0  0  0
 32 34  1  6  0  0  0
 33 38  1  1  0  0  0
 33 32  1  0  0  0  0
 34 33  1  0  0  0  0
 35 39  1  0  0  0  0
 35 37  1  0  0  0  0
 36 41  1  0  0  0  0
 36 38  2  0  0  0  0
 38 40  1  0  0  0  0
 40 37  2  0  0  0  0
 41 35  2  0  0  0  0
M  END
>  <MODEL>
4

>  <REMARK>
 VINA RESULT:      -4.3      4.282      8.825
  Name = 
  4 active torsions:
  status: ('A' for Active; 'I' for Inactive)
    1  A    between atoms: C_10  and  N_33
    2  A    between atoms: C_14  and  C_31
    3  A    between atoms: C_16  and  C_41
    4  A    between atoms: C_27  and  C_29
                            x       y       z     vdW  Elec       q    Type
                         _______ _______ _______ _____ _____    ______ ____

>  <TORSDO>
F 4

$$$$
=
 OpenBabel11052412143D

 41 49  0  0  1  0  0  0  0  0999 V2000
  159.6900  212.2670  154.9630 N   0  0  0  0  0  0  0  0  0  0  0  0
  162.4860  211.3960  149.6700 C   0  0  0  0  0  2  0  0  0  0  0  0
  160.6260  212.0400  151.4560 C   0  0  0  0  0  0  0  0  0  0  0  0
  158.4190  212.8380  150.7120 C   0  0  0  0  0  3  0  0  0  0  0  0
  161.3690  210.7110  153.1760 N   0  0  0  0  0  2  0  0  0  0  0  0
  157.6610  212.6690  151.7960 C   0  0  0  0  0  3  0  0  0  0  0  0
  157.5610  213.1200  155.4770 N   0  0  0  0  0  0  0  0  0  0  0  0
  161.4010  210.5010  149.7940 O   0  0  0  0  0  0  0  0  0  0  0  0
  158.1390  212.7030  153.1950 C   0  0  0  0  0  0  0  0  0  0  0  0
  161.7640  211.2220  150.9480 C   0  0  1  0  0  0  0  0  0  0  0  0
  157.2240  213.1170  154.1630 C   0  0  0  0  0  3  0  0  0  0  0  0
  159.4120  212.2590  153.6310 C   0  0  0  0  0  0  0  0  0  0  0  0
  158.7870  212.7030  155.8780 C   0  0  0  0  0  0  0  0  0  0  0  0
  159.8750  213.1580  150.7800 C   0  0  2  0  0  3  0  0  0  0  0  0
  160.4350  211.6920  152.7230 C   0  0  0  0  0  0  0  0  0  0  0  0
  159.1210  212.7050  157.2610 N   0  0  0  0  0  1  0  0  0  0  0  0
  162.2750  210.3430  152.0930 C   0  0  2  0  0  3  0  0  0  0  0  0
  160.5470  207.3400  150.8400 C   0  0  0  0  0  2  0  0  0  0  0  0
  162.6240  208.5020  150.4040 C   0  0  0  0  0  2  0  0  0  0  0  0
  162.7090  207.1570  147.8840 O   0  0  0  0  0  0  0  0  0  0  0  0
  162.2050  208.8330  151.8290 C   0  0  2  0  0  3  0  0  0  0  0  0
  160.7720  208.3210  151.9740 C   0  0  0  0  0  2  0  0  0  0  0  0
  161.6380  207.5590  149.9170 N   0  0  0  0  0  0  0  0  0  0  0  0
  161.7310  206.9140  148.6430 C   0  0  0  0  0  0  0  0  0  0  0  0
  160.7170  205.9940  148.2340 N   0  0  0  0  0  2  0  0  0  0  0  0
  162.2080  204.8260  145.1770 N   0  0  0  0  0  2  0  0  0  0  0  0
  160.7630  205.3180  146.9480 C   0  0  1  0  0  3  0  0  0  0  0  0
  162.1710  205.1190  146.5520 N   0  0  1  0  0  0  0  0  0  0  0  0
  161.5650  203.5980  144.9100 C   0  0  0  0  0  3  0  0  0  0  0  0
  161.0620  203.1120  145.9850 N   0  0  0  0  0  0  0  0  0  0  0  0
  161.3800  203.9940  147.1100 C   0  0  2  0  0  3  0  0  0  0  0  0
  160.3920  213.5090  149.3940 C   0  0  1  0  0  3  0  0  0  0  0  0
  159.3980  213.1230  148.3630 C   0  0  1  0  0  3  0  0  0  0  0  0
  159.5330  214.4530  148.8040 O   0  0  0  0  0  0  0  0  0  0  0  0
  161.2800  212.7140  144.5210 C   0  0  0  0  0  0  0  0  0  0  0  0
  161.4340  213.1940  146.8910 C   0  0  0  0  0  3  0  0  0  0  0  0
  159.9060  212.4930  144.6560 C   0  0  0  0  0  3  0  0  0  0  0  0
  160.0600  212.9560  147.0330 C   0  0  0  0  0  0  0  0  0  0  0  0
  161.9270  212.5820  143.1910 C   0  0  0  0  0  1  0  0  0  0  0  0
  159.2960  212.6170  145.9070 C   0  0  0  0  0  3  0  0  0  0  0  0
  162.0420  213.0690  145.6380 C   0  0  0  0  0  3  0  0  0  0  0  0
  1 13  2  0  0  0  0
  2  8  1  0  0  0  0
  3 15  2  0  0  0  0
  4  6  2  0  0  0  0
  6  9  1  0  0  0  0
  7 13  1  0  0  0  0
  8 10  1  0  0  0  0
  9 12  2  0  0  0  0
  9 11  1  0  0  0  0
 10  2  1  6  0  0  0
 10  3  1  0  0  0  0
 10 17  1  0  0  0  0
 11  7  2  0  0  0  0
 12  1  1  0  0  0  0
 13 16  1  0  0  0  0
 14  4  1  6  0  0  0
 14  3  1  0  0  0  0
 15  5  1  0  0  0  0
 15 12  1  0  0  0  0
 17  5  1  1  0  0  0
 18 22  1  0  0  0  0
 20 24  2  0  0  0  0
 21 19  1  6  0  0  0
 21 22  1  0  0  0  0
 21 17  1  0  0  0  0
 23 19  1  0  0  0  0
 23 18  1  0  0  0  0
 24 23  1  0  0  0  0
 25 24  1  0  0  0  0
 27 31  1  0  0  0  0
 27 25  1  1  0  0  0
 28 26  1  6  0  0  0
 28 27  1  0  0  0  0
 28 31  1  0  0  0  0
 29 26  1  0  0  0  0
 29 30  2  0  0  0  0
 31 30  1  6  0  0  0
 32 34  1  1  0  0  0
 32 14  1  0  0  0  0
 33 38  1  6  0  0  0
 33 34  1  0  0  0  0
 33 32  1  0  0  0  0
 35 37  2  0  0  0  0
 35 41  1  0  0  0  0
 36 38  1  0  0  0  0
 37 40  1  0  0  0  0
 39 35  1  0  0  0  0
 40 38  2  0  0  0  0
 41 36  2  0  0  0  0
M  END
>  <MODEL>
5

>  <REMARK>
 VINA RESULT:      -4.0      2.663      4.144
  Name = 
  4 active torsions:
  status: ('A' for Active; 'I' for Inactive)
    1  A    between atoms: C_10  and  N_33
    2  A    between atoms: C_14  and  C_31
    3  A    between atoms: C_16  and  C_41
    4  A    between atoms: C_27  and  C_29
                            x       y       z     vdW  Elec       q    Type
                         _______ _______ _______ _____ _____    ______ ____

>  <TORSDO>
F 4

$$$$
=
 OpenBabel11052412143D

 41 49  0  0  1  0  0  0  0  0999 V2000
  161.2610  209.8230  154.0520 N   0  0  0  0  0  0  0  0  0  0  0  0
  162.6000  209.4610  148.1640 C   0  0  0  0  0  2  0  0  0  0  0  0
  161.6330  210.3530  150.4730 C   0  0  0  0  0  0  0  0  0  0  0  0
  160.3140  212.4310  150.5430 C   0  0  0  0  0  3  0  0  0  0  0  0
  161.5340  208.3380  151.5710 N   0  0  0  0  0  2  0  0  0  0  0  0
  159.6830  212.3430  151.7140 C   0  0  0  0  0  3  0  0  0  0  0  0
  160.1220  211.4630  155.2910 N   0  0  0  0  0  0  0  0  0  0  0  0
  161.2050  209.3350  148.3490 O   0  0  0  0  0  0  0  0  0  0  0  0
  160.1750  211.6210  152.9060 C   0  0  0  0  0  0  0  0  0  0  0  0
  162.0070  209.2820  149.5060 C   0  0  1  0  0  0  0  0  0  0  0  0
  159.7650  212.1020  154.1500 C   0  0  0  0  0  3  0  0  0  0  0  0
  160.9470  210.4320  152.8760 C   0  0  0  0  0  0  0  0  0  0  0  0
  160.8700  210.3330  155.2470 C   0  0  0  0  0  0  0  0  0  0  0  0
  161.6670  211.8510  150.3030 C   0  0  2  0  0  3  0  0  0  0  0  0
  161.3550  209.7540  151.6260 C   0  0  0  0  0  0  0  0  0  0  0  0
  161.2290  209.6710  156.4540 N   0  0  0  0  0  1  0  0  0  0  0  0
  161.9580  207.9360  150.2340 C   0  0  2  0  0  3  0  0  0  0  0  0
  160.6220  205.9510  147.4330 C   0  0  0  0  0  2  0  0  0  0  0  0
  161.5720  205.5210  149.6160 C   0  0  0  0  0  2  0  0  0  0  0  0
  162.1210  202.8620  148.7220 O   0  0  0  0  0  0  0  0  0  0  0  0
  160.9710  206.9190  149.6450 C   0  0  2  0  0  3  0  0  0  0  0  0
  160.6360  207.2620  148.1950 C   0  0  0  0  0  2  0  0  0  0  0  0
  161.2590  204.9890  148.3060 N   0  0  0  0  0  0  0  0  0  0  0  0
  161.5560  203.6470  147.9110 C   0  0  0  0  0  0  0  0  0  0  0  0
  161.2140  203.1960  146.5990 N   0  0  0  0  0  2  0  0  0  0  0  0
  161.5770  199.6320  146.8970 N   0  0  0  0  0  2  0  0  0  0  0  0
  161.5010  201.8450  146.1470 C   0  0  1  0  0  3  0  0  0  0  0  0
  160.9760  200.8800  147.1340 N   0  0  1  0  0  0  0  0  0  0  0  0
  161.1960  199.1240  145.6360 C   0  0  0  0  0  3  0  0  0  0  0  0
  160.4560  199.9700  145.0170 N   0  0  0  0  0  0  0  0  0  0  0  0
  160.2420  201.1400  145.8710 C   0  0  2  0  0  3  0  0  0  0  0  0
  162.1970  212.3130  148.9560 C   0  0  1  0  0  3  0  0  0  0  0  0
  161.1130  212.9520  148.1710 C   0  0  1  0  0  3  0  0  0  0  0  0
  162.0740  213.7110  148.8650 O   0  0  0  0  0  0  0  0  0  0  0  0
  162.0160  212.9540  143.9700 C   0  0  0  0  0  0  0  0  0  0  0  0
  162.7060  213.3210  146.2620 C   0  0  0  0  0  3  0  0  0  0  0  0
  160.7450  212.5780  144.4130 C   0  0  0  0  0  3  0  0  0  0  0  0
  161.4370  212.9290  146.7110 C   0  0  0  0  0  0  0  0  0  0  0  0
  162.3250  212.9620  142.5170 C   0  0  0  0  0  1  0  0  0  0  0  0
  160.4540  212.5700  145.7800 C   0  0  0  0  0  3  0  0  0  0  0  0
  162.9950  213.3280  144.8950 C   0  0  0  0  0  3  0  0  0  0  0  0
  1 13  2  0  0  0  0
  2  8  1  0  0  0  0
  3 15  2  0  0  0  0
  4  6  2  0  0  0  0
  5 15  1  0  0  0  0
  6  9  1  0  0  0  0
  8 10  1  0  0  0  0
  9 11  1  0  0  0  0
 10  2  1  6  0  0  0
 10 17  1  0  0  0  0
 10  3  1  0  0  0  0
 11  7  2  0  0  0  0
 12  9  2  0  0  0  0
 12  1  1  0  0  0  0
 13  7  1  0  0  0  0
 13 16  1  0  0  0  0
 14  3  1  0  0  0  0
 14  4  1  6  0  0  0
 15 12  1  0  0  0  0
 17  5  1  1  0  0  0
 18 22  1  0  0  0  0
 18 23  1  0  0  0  0
 19 21  1  0  0  0  0
 21 22  1  6  0  0  0
 21 17  1  0  0  0  0
 23 19  1  0  0  0  0
 24 23  1  0  0  0  0
 24 20  2  0  0  0  0
 25 24  1  0  0  0  0
 27 25  1  1  0  0  0
 27 28  1  0  0  0  0
 28 26  1  6  0  0  0
 29 26  1  0  0  0  0
 30 29  2  0  0  0  0
 31 30  1  6  0  0  0
 31 27  1  0  0  0  0
 31 28  1  0  0  0  0
 32 34  1  1  0  0  0
 32 14  1  0  0  0  0
 33 38  1  6  0  0  0
 33 34  1  0  0  0  0
 33 32  1  0  0  0  0
 35 37  2  0  0  0  0
 35 41  1  0  0  0  0
 36 38  1  0  0  0  0
 37 40  1  0  0  0  0
 39 35  1  0  0  0  0
 40 38  2  0  0  0  0
 41 36  2  0  0  0  0
M  END
>  <MODEL>
6

>  <REMARK>
 VINA RESULT:      -3.8      3.013      5.097
  Name = 
  4 active torsions:
  status: ('A' for Active; 'I' for Inactive)
    1  A    between atoms: C_10  and  N_33
    2  A    between atoms: C_14  and  C_31
    3  A    between atoms: C_16  and  C_41
    4  A    between atoms: C_27  and  C_29
                            x       y       z     vdW  Elec       q    Type
                         _______ _______ _______ _____ _____    ______ ____

>  <TORSDO>
F 4

$$$$
=
 OpenBabel11052412143D

 41 49  0  0  1  0  0  0  0  0999 V2000
  158.9680  213.4440  151.9670 N   0  0  0  0  0  0  0  0  0  0  0  0
  163.2740  211.4390  148.2210 C   0  0  0  0  0  2  0  0  0  0  0  0
  160.9520  212.3740  149.1120 C   0  0  0  0  0  0  0  0  0  0  0  0
  159.0890  212.7560  147.5490 C   0  0  0  0  0  3  0  0  0  0  0  0
  161.1180  211.6180  151.2750 N   0  0  0  0  0  2  0  0  0  0  0  0
  158.0300  212.8170  148.3570 C   0  0  0  0  0  3  0  0  0  0  0  0
  156.7880  214.2190  151.5590 N   0  0  0  0  0  0  0  0  0  0  0  0
  162.2020  210.5210  148.2580 O   0  0  0  0  0  0  0  0  0  0  0  0
  158.0470  213.2620  149.7670 C   0  0  0  0  0  0  0  0  0  0  0  0
  162.1890  211.5500  149.2190 C   0  0  1  0  0  0  0  0  0  0  0  0
  156.8770  213.8390  150.2600 C   0  0  0  0  0  3  0  0  0  0  0  0
  159.1200  213.0600  150.6710 C   0  0  0  0  0  0  0  0  0  0  0  0
  157.8270  214.0300  152.4090 C   0  0  0  0  0  0  0  0  0  0  0  0
  160.4510  213.2050  147.9580 C   0  0  2  0  0  3  0  0  0  0  0  0
  160.3740  212.3610  150.3080 C   0  0  0  0  0  0  0  0  0  0  0  0
  157.7130  214.4270  153.7700 N   0  0  0  0  0  1  0  0  0  0  0  0
  162.3150  211.0540  150.6620 C   0  0  2  0  0  3  0  0  0  0  0  0
  160.6610  207.7630  150.5620 C   0  0  0  0  0  2  0  0  0  0  0  0
  162.5430  208.8350  149.4830 C   0  0  0  0  0  2  0  0  0  0  0  0
  162.3410  206.8560  147.4300 O   0  0  0  0  0  0  0  0  0  0  0  0
  162.3270  209.5270  150.8210 C   0  0  2  0  0  3  0  0  0  0  0  0
  160.9810  209.0240  151.3400 C   0  0  0  0  0  2  0  0  0  0  0  0
  161.5730  207.7600  149.4390 N   0  0  0  0  0  0  0  0  0  0  0  0
  161.5170  206.7950  148.3840 C   0  0  0  0  0  0  0  0  0  0  0  0
  160.5290  205.7630  148.4130 N   0  0  0  0  0  2  0  0  0  0  0  0
  161.6560  203.7760  145.6360 N   0  0  0  0  0  2  0  0  0  0  0  0
  160.4270  204.7630  147.3630 C   0  0  1  0  0  3  0  0  0  0  0  0
  161.7800  204.4300  146.8740 N   0  0  1  0  0  0  0  0  0  0  0  0
  160.9950  202.5380  145.7890 C   0  0  0  0  0  3  0  0  0  0  0  0
  160.6280  202.3730  147.0070 N   0  0  0  0  0  0  0  0  0  0  0  0
  161.0700  203.5180  147.8040 C   0  0  2  0  0  3  0  0  0  0  0  0
  161.3760  213.2170  146.7510 C   0  0  1  0  0  3  0  0  0  0  0  0
  161.1390  214.4330  145.9370 C   0  0  1  0  0  3  0  0  0  0  0  0
  162.2240  214.3360  146.8290 O   0  0  0  0  0  0  0  0  0  0  0  0
  162.5220  213.7680  141.9230 C   0  0  0  0  0  0  0  0  0  0  0  0
  160.7260  213.7690  143.5480 C   0  0  0  0  0  3  0  0  0  0  0  0
  163.4130  214.2070  142.9070 C   0  0  0  0  0  3  0  0  0  0  0  0
  161.6120  214.2250  144.5330 C   0  0  0  0  0  0  0  0  0  0  0  0
  163.0030  213.5290  140.5380 C   0  0  0  0  0  1  0  0  0  0  0  0
  162.9600  214.4310  144.2100 C   0  0  0  0  0  3  0  0  0  0  0  0
  161.1800  213.5450  142.2450 C   0  0  0  0  0  3  0  0  0  0  0  0
  1 13  2  0  0  0  0
  2  8  1  0  0  0  0
  3 10  1  0  0  0  0
  3 15  2  0  0  0  0
  4  6  2  0  0  0  0
  6  9  1  0  0  0  0
  7 13  1  0  0  0  0
  8 10  1  0  0  0  0
  9 11  1  0  0  0  0
  9 12  2  0  0  0  0
 10  2  1  6  0  0  0
 10 17  1  0  0  0  0
 11  7  2  0  0  0  0
 12  1  1  0  0  0  0
 13 16  1  0  0  0  0
 14  4  1  6  0  0  0
 14  3  1  0  0  0  0
 15 12  1  0  0  0  0
 15  5  1  0  0  0  0
 17 21  1  0  0  0  0
 17  5  1  1  0  0  0
 18 22  1  0  0  0  0
 20 24  2  0  0  0  0
 21 19  1  6  0  0  0
 21 22  1  0  0  0  0
 23 19  1  0  0  0  0
 23 18  1  0  0  0  0
 24 25  1  0  0  0  0
 24 23  1  0  0  0  0
 26 29  1  0  0  0  0
 27 31  1  0  0  0  0
 27 25  1  1  0  0  0
 28 26  1  6  0  0  0
 28 27  1  0  0  0  0
 28 31  1  0  0  0  0
 29 30  2  0  0  0  0
 31 30  1  6  0  0  0
 32 34  1  1  0  0  0
 32 14  1  0  0  0  0
 33 38  1  6  0  0  0
 33 32  1  0  0  0  0
 33 34  1  0  0  0  0
 35 41  2  0  0  0  0
 35 37  1  0  0  0  0
 36 38  2  0  0  0  0
 37 40  2  0  0  0  0
 39 35  1  0  0  0  0
 40 38  1  0  0  0  0
 41 36  1  0  0  0  0
M  END
>  <MODEL>
7

>  <REMARK>
 VINA RESULT:      -3.5      1.687      2.355
  Name = 
  4 active torsions:
  status: ('A' for Active; 'I' for Inactive)
    1  A    between atoms: C_10  and  N_33
    2  A    between atoms: C_14  and  C_31
    3  A    between atoms: C_16  and  C_41
    4  A    between atoms: C_27  and  C_29
                            x       y       z     vdW  Elec       q    Type
                         _______ _______ _______ _____ _____    ______ ____

>  <TORSDO>
F 4

$$$$
