=
 OpenBabel11052411003D

 37 41  0  0  1  0  0  0  0  0999 V2000
  158.5970  213.7400  152.4320 C   0  0  0  0  0  3  0  0  0  0  0  0
  160.0550  213.1640  150.5190 C   0  0  0  0  0  1  0  0  0  0  0  0
  162.8800  208.5090  150.5610 C   0  0  0  0  0  2  0  0  0  0  0  0
  160.3850  204.4690  151.2250 O   0  0  0  0  0  0  0  0  0  0  0  0
  160.0620  211.7160  152.5870 C   0  0  0  0  0  0  0  0  0  0  0  0
  162.0190  208.9450  151.7620 C   0  0  1  0  0  3  0  0  0  0  0  0
  157.5270  213.3180  156.3580 N   0  0  0  0  0  1  0  0  0  0  0  0
  158.1680  213.5500  153.6400 N   0  0  0  0  0  0  0  0  0  0  0  0
  160.5660  207.0050  152.0660 C   0  0  0  0  0  2  0  0  0  0  0  0
  158.6450  212.4470  154.4220 C   0  0  0  0  0  0  0  0  0  0  0  0
  160.9370  209.7820  151.4460 O   0  0  0  0  0  0  0  0  0  0  0  0
  161.1810  206.1730  149.3230 C   0  0  0  0  0  2  0  0  0  0  0  0
  163.1360  207.9270  148.2730 O   0  0  0  0  0  1  0  0  0  0  0  0
  158.3540  212.3450  155.7260 C   0  0  0  0  0  0  0  0  0  0  0  0
  161.2710  210.9850  152.0740 C   0  0  0  0  0  2  0  0  0  0  0  0
  159.8690  208.9710  153.9580 C   0  0  0  0  0  2  0  0  0  0  0  0
  161.2620  208.3370  153.9560 C   0  0  0  0  0  2  0  0  0  0  0  0
  159.5710  212.8600  151.8550 N   0  0  0  0  0  0  0  0  0  0  0  0
  160.9380  207.6700  149.1540 C   0  0  0  0  0  2  0  0  0  0  0  0
  162.6410  205.3930  151.4400 O   0  0  0  0  0  0  0  0  0  0  0  0
  158.9040  211.2750  156.5140 N   0  0  0  0  0  0  0  0  0  0  0  0
  159.6060  210.3110  155.9930 C   0  0  0  0  0  3  0  0  0  0  0  0
  159.5460  211.4510  153.8090 C   0  0  0  0  0  0  0  0  0  0  0  0
  161.6440  207.8210  152.6340 N   0  0  2  0  0  0  0  0  0  0  0  0
  161.2250  205.7010  151.0420 S   0  0  0  0  0  0  0  0  0  0  0  0
  162.2300  208.5080  149.1630 C   0  0  1  0  0  0  0  0  0  0  0  0
  159.8800  210.2830  154.5860 N   0  0  0  0  0  0  0  0  0  0  0  0
  161.9770  209.9280  148.6860 C   0  0  0  0  0  0  0  0  0  0  0  0
  161.6490  212.5330  147.6570 C   0  0  0  0  0  0  0  0  0  0  0  0
  162.7330  212.2350  148.4940 C   0  0  0  0  0  3  0  0  0  0  0  0
  160.7380  211.5260  147.3260 C   0  0  0  0  0  3  0  0  0  0  0  0
  160.9040  210.2340  147.8300 C   0  0  0  0  0  3  0  0  0  0  0  0
  162.8980  210.9420  148.9960 C   0  0  0  0  0  3  0  0  0  0  0  0
  161.4570  213.8490  147.1320 N   0  0  0  0  0  2  0  0  0  0  0  0
  162.2560  214.3880  146.0440 C   0  0  0  0  0  2  0  0  0  0  0  0
  163.0870  213.3680  144.2750 C   0  0  0  0  0  1  0  0  0  0  0  0
  161.8830  213.7780  144.8470 O   0  0  0  0  0  0  0  0  0  0  0  0
  1  8  2  0  0  0  0
  2 18  1  0  0  0  0
  5 23  2  0  0  0  0
  6  3  1  6  0  0  0
  6 24  1  0  0  0  0
  8 10  1  0  0  0  0
 10 14  2  0  0  0  0
 11  6  1  0  0  0  0
 11 15  1  0  0  0  0
 12 25  1  0  0  0  0
 14  7  1  0  0  0  0
 14 21  1  0  0  0  0
 15  5  1  0  0  0  0
 16 27  1  0  0  0  0
 17 16  1  0  0  0  0
 18  1  1  0  0  0  0
 18  5  1  0  0  0  0
 19 26  1  0  0  0  0
 19 12  1  0  0  0  0
 22 21  2  0  0  0  0
 23 10  1  0  0  0  0
 23 27  1  0  0  0  0
 24  9  1  6  0  0  0
 24 17  1  0  0  0  0
 25  4  2  0  0  0  0
 25 20  2  0  0  0  0
 25  9  1  0  0  0  0
 26 13  1  6  0  0  0
 26  3  1  0  0  0  0
 27 22  1  0  0  0  0
 28 33  1  0  0  0  0
 28 26  1  0  0  0  0
 29 30  1  0  0  0  0
 30 33  2  0  0  0  0
 31 29  2  0  0  0  0
 31 32  1  0  0  0  0
 32 28  2  0  0  0  0
 34 29  1  0  0  0  0
 35 34  1  0  0  0  0
 36 37  1  0  0  0  0
 37 35  1  0  0  0  0
M  END
>  <MODEL>
1

>  <REMARK>
 VINA RESULT:      -3.1      0.000      0.000
  Name = 
  4 active torsions:
  status: ('A' for Active; 'I' for Inactive)
    1  A    between atoms: C_4  and  C_36
    2  A    between atoms: C_5  and  N_15
    3  A    between atoms: N_15  and  C_27
    4  A    between atoms: O_23  and  C_27
                            x       y       z     vdW  Elec       q    Type
                         _______ _______ _______ _____ _____    ______ ____

>  <TORSDO>
F 4

$$$$
=
 OpenBabel11052411003D

 37 41  0  0  1  0  0  0  0  0999 V2000
  161.9340  209.5890  149.6480 C   0  0  0  0  0  3  0  0  0  0  0  0
  161.6400  208.9220  152.0110 C   0  0  0  0  0  1  0  0  0  0  0  0
  159.2140  212.3150  155.5110 C   0  0  0  0  0  2  0  0  0  0  0  0
  154.8440  213.8900  154.3210 O   0  0  0  0  0  0  0  0  0  0  0  0
  161.0340  211.2610  151.2800 C   0  0  0  0  0  0  0  0  0  0  0  0
  159.4850  212.7170  154.0490 C   0  0  1  0  0  3  0  0  0  0  0  0
  162.1630  212.4730  146.7560 N   0  0  0  0  0  1  0  0  0  0  0  0
  161.9060  210.4690  148.6960 N   0  0  0  0  0  0  0  0  0  0  0  0
  157.2570  213.3660  153.2870 C   0  0  0  0  0  2  0  0  0  0  0  0
  161.4530  211.8060  148.9480 C   0  0  0  0  0  0  0  0  0  0  0  0
  159.5520  211.6490  153.1400 O   0  0  0  0  0  0  0  0  0  0  0  0
  156.1040  211.8570  155.5200 C   0  0  0  0  0  2  0  0  0  0  0  0
  158.2170  210.9040  157.1410 O   0  0  0  0  0  1  0  0  0  0  0  0
  161.5920  212.7690  148.0270 C   0  0  0  0  0  0  0  0  0  0  0  0
  160.8840  211.6740  152.7170 C   0  0  0  0  0  2  0  0  0  0  0  0
  159.0650  213.6170  151.1420 C   0  0  0  0  0  2  0  0  0  0  0  0
  159.2290  214.4530  152.4120 C   0  0  0  0  0  2  0  0  0  0  0  0
  161.5280  209.9370  150.9780 N   0  0  0  0  0  0  0  0  0  0  0  0
  157.1690  210.8940  155.0020 C   0  0  0  0  0  2  0  0  0  0  0  0
  156.7780  214.4520  155.7130 O   0  0  0  0  0  0  0  0  0  0  0  0
  161.2040  214.1220  148.3230 N   0  0  0  0  0  0  0  0  0  0  0  0
  160.6110  214.4530  149.4330 C   0  0  0  0  0  3  0  0  0  0  0  0
  160.9050  212.1550  150.2740 C   0  0  0  0  0  0  0  0  0  0  0  0
  158.6210  213.8150  153.5890 N   0  0  2  0  0  0  0  0  0  0  0  0
  156.2210  213.4540  154.7360 S   0  0  0  0  0  0  0  0  0  0  0  0
  158.4980  210.9740  155.7750 C   0  0  1  0  0  0  0  0  0  0  0  0
  160.3260  213.4670  150.4340 N   0  0  0  0  0  0  0  0  0  0  0  0
  159.4090  209.8050  155.4420 C   0  0  0  0  0  0  0  0  0  0  0  0
  161.1060  207.5910  155.0220 C   0  0  0  0  0  0  0  0  0  0  0  0
  161.6330  208.8130  155.4650 C   0  0  0  0  0  3  0  0  0  0  0  0
  159.7310  207.4750  154.8010 C   0  0  0  0  0  3  0  0  0  0  0  0
  158.8890  208.5690  155.0160 C   0  0  0  0  0  3  0  0  0  0  0  0
  160.7900  209.9050  155.6800 C   0  0  0  0  0  3  0  0  0  0  0  0
  161.9480  206.4600  154.7940 N   0  0  0  0  0  2  0  0  0  0  0  0
  162.2020  205.9190  153.4690 C   0  0  0  0  0  2  0  0  0  0  0  0
  161.4700  204.6420  151.8270 C   0  0  0  0  0  1  0  0  0  0  0  0
  161.2340  204.9630  153.1640 O   0  0  0  0  0  0  0  0  0  0  0  0
  1 18  1  0  0  0  0
  3 26  1  0  0  0  0
  4 25  2  0  0  0  0
  5 15  1  0  0  0  0
  6  3  1  1  0  0  0
  7 14  1  0  0  0  0
  8 10  1  0  0  0  0
  8  1  2  0  0  0  0
  9 24  1  0  0  0  0
  9 25  1  0  0  0  0
 10 23  1  0  0  0  0
 11  6  1  0  0  0  0
 14 21  1  0  0  0  0
 14 10  2  0  0  0  0
 15 11  1  0  0  0  0
 16 17  1  0  0  0  0
 18  5  1  0  0  0  0
 18  2  1  0  0  0  0
 19 12  1  0  0  0  0
 19 26  1  0  0  0  0
 21 22  2  0  0  0  0
 22 27  1  0  0  0  0
 23 27  1  0  0  0  0
 23  5  2  0  0  0  0
 24 17  1  6  0  0  0
 24  6  1  0  0  0  0
 25 12  1  0  0  0  0
 25 20  2  0  0  0  0
 26 13  1  1  0  0  0
 27 16  1  0  0  0  0
 28 33  1  0  0  0  0
 28 26  1  0  0  0  0
 29 30  1  0  0  0  0
 30 33  2  0  0  0  0
 31 32  1  0  0  0  0
 31 29  2  0  0  0  0
 32 28  2  0  0  0  0
 34 29  1  0  0  0  0
 35 34  1  0  0  0  0
 36 37  1  0  0  0  0
 37 35  1  0  0  0  0
M  END
>  <MODEL>
2

>  <REMARK>
 VINA RESULT:      -2.5      3.118      8.023
  Name = 
  4 active torsions:
  status: ('A' for Active; 'I' for Inactive)
    1  A    between atoms: C_4  and  C_36
    2  A    between atoms: C_5  and  N_15
    3  A    between atoms: N_15  and  C_27
    4  A    between atoms: O_23  and  C_27
                            x       y       z     vdW  Elec       q    Type
                         _______ _______ _______ _____ _____    ______ ____

>  <TORSDO>
F 4

$$$$
=
 OpenBabel11052411003D

 37 41  0  0  1  0  0  0  0  0999 V2000
  162.0930  206.4380  147.9950 C   0  0  0  0  0  3  0  0  0  0  0  0
  161.5580  208.7720  148.6120 C   0  0  0  0  0  1  0  0  0  0  0  0
  159.9060  209.9350  153.6690 C   0  0  0  0  0  2  0  0  0  0  0  0
  162.7660  208.5360  157.2550 O   0  0  0  0  0  0  0  0  0  0  0  0
  161.1100  206.9040  150.2500 C   0  0  0  0  0  0  0  0  0  0  0  0
  160.1780  208.4870  153.2180 C   0  0  1  0  0  3  0  0  0  0  0  0
  161.7620  202.4110  148.6360 N   0  0  0  0  0  1  0  0  0  0  0  0
  162.0940  205.1640  148.2330 N   0  0  0  0  0  0  0  0  0  0  0  0
  161.7880  207.7360  154.8940 C   0  0  0  0  0  2  0  0  0  0  0  0
  161.6040  204.6510  149.4790 C   0  0  0  0  0  0  0  0  0  0  0  0
  161.1080  208.3530  152.1760 O   0  0  0  0  0  0  0  0  0  0  0  0
  162.3690  210.5390  155.5260 C   0  0  0  0  0  2  0  0  0  0  0  0
  160.6020  212.1750  154.0410 O   0  0  0  0  0  1  0  0  0  0  0  0
  161.4280  203.3370  149.6670 C   0  0  0  0  0  0  0  0  0  0  0  0
  160.3370  207.8510  151.1230 C   0  0  0  0  0  2  0  0  0  0  0  0
  161.3550  205.6540  153.0480 C   0  0  0  0  0  2  0  0  0  0  0  0
  160.2130  206.1900  153.9130 C   0  0  0  0  0  2  0  0  0  0  0  0
  161.5860  207.3630  148.9660 N   0  0  0  0  0  0  0  0  0  0  0  0
  162.3480  210.5550  153.9990 C   0  0  0  0  0  2  0  0  0  0  0  0
  160.4430  209.1370  156.7700 O   0  0  0  0  0  0  0  0  0  0  0  0
  160.8630  202.8440  150.8940 N   0  0  0  0  0  0  0  0  0  0  0  0
  160.6020  203.6200  151.9050 C   0  0  0  0  0  3  0  0  0  0  0  0
  161.2010  205.5880  150.5480 C   0  0  0  0  0  0  0  0  0  0  0  0
  160.4370  207.5770  154.3450 N   0  0  2  0  0  0  0  0  0  0  0  0
  161.8150  208.9740  156.1770 S   0  0  0  0  0  0  0  0  0  0  0  0
  160.9960  210.9940  153.4080 C   0  0  1  0  0  0  0  0  0  0  0  0
  160.8570  205.0290  151.8330 N   0  0  0  0  0  0  0  0  0  0  0  0
  161.1090  211.2950  151.9230 C   0  0  0  0  0  0  0  0  0  0  0  0
  161.4050  212.0300  149.2160 C   0  0  0  0  0  0  0  0  0  0  0  0
  160.3620  212.5660  149.9850 C   0  0  0  0  0  3  0  0  0  0  0  0
  162.3040  211.1370  149.8050 C   0  0  0  0  0  3  0  0  0  0  0  0
  162.1620  210.7780  151.1480 C   0  0  0  0  0  3  0  0  0  0  0  0
  160.2220  212.2070  151.3270 C   0  0  0  0  0  3  0  0  0  0  0  0
  161.5690  212.3810  147.8400 N   0  0  0  0  0  2  0  0  0  0  0  0
  160.5130  212.2210  146.8540 C   0  0  0  0  0  2  0  0  0  0  0  0
  162.1800  213.3120  145.9100 C   0  0  0  0  0  1  0  0  0  0  0  0
  160.8800  212.8650  145.6730 O   0  0  0  0  0  0  0  0  0  0  0  0
  1  8  2  0  0  0  0
  1 18  1  0  0  0  0
  2 18  1  0  0  0  0
  5 23  2  0  0  0  0
  5 15  1  0  0  0  0
  6  3  1  1  0  0  0
  6 24  1  0  0  0  0
  7 14  1  0  0  0  0
  8 10  1  0  0  0  0
  9 25  1  0  0  0  0
 10 14  2  0  0  0  0
 10 23  1  0  0  0  0
 11  6  1  0  0  0  0
 12 25  1  0  0  0  0
 14 21  1  0  0  0  0
 15 11  1  0  0  0  0
 16 17  1  0  0  0  0
 18  5  1  0  0  0  0
 19 12  1  0  0  0  0
 21 22  2  0  0  0  0
 23 27  1  0  0  0  0
 24 17  1  6  0  0  0
 24  9  1  0  0  0  0
 25 20  2  0  0  0  0
 25  4  2  0  0  0  0
 26  3  1  0  0  0  0
 26 19  1  0  0  0  0
 26 13  1  1  0  0  0
 27 22  1  0  0  0  0
 27 16  1  0  0  0  0
 28 26  1  0  0  0  0
 29 31  2  0  0  0  0
 29 30  1  0  0  0  0
 30 33  2  0  0  0  0
 31 32  1  0  0  0  0
 32 28  2  0  0  0  0
 33 28  1  0  0  0  0
 34 29  1  0  0  0  0
 35 34  1  0  0  0  0
 37 36  1  0  0  0  0
 37 35  1  0  0  0  0
M  END
>  <MODEL>
3

>  <REMARK>
 VINA RESULT:      -2.2      2.935      6.237
  Name = 
  4 active torsions:
  status: ('A' for Active; 'I' for Inactive)
    1  A    between atoms: C_4  and  C_36
    2  A    between atoms: C_5  and  N_15
    3  A    between atoms: N_15  and  C_27
    4  A    between atoms: O_23  and  C_27
                            x       y       z     vdW  Elec       q    Type
                         _______ _______ _______ _____ _____    ______ ____

>  <TORSDO>
F 4

$$$$
=
 OpenBabel11052411003D

 37 41  0  0  1  0  0  0  0  0999 V2000
  159.4980  212.2650  153.3800 C   0  0  0  0  0  3  0  0  0  0  0  0
  160.6310  211.9720  151.2010 C   0  0  0  0  0  1  0  0  0  0  0  0
  162.8600  207.1720  149.9210 C   0  0  0  0  0  2  0  0  0  0  0  0
  159.9970  203.3310  150.1320 O   0  0  0  0  0  0  0  0  0  0  0  0
  160.7170  210.1270  152.9220 C   0  0  0  0  0  0  0  0  0  0  0  0
  162.2110  207.4220  151.2950 C   0  0  1  0  0  3  0  0  0  0  0  0
  158.8740  211.1260  157.2600 N   0  0  0  0  0  1  0  0  0  0  0  0
  159.2010  211.8650  154.5770 N   0  0  0  0  0  0  0  0  0  0  0  0
  160.5840  205.6050  151.4190 C   0  0  0  0  0  2  0  0  0  0  0  0
  159.6340  210.5830  155.0500 C   0  0  0  0  0  0  0  0  0  0  0  0
  161.2070  208.4040  151.3090 O   0  0  0  0  0  0  0  0  0  0  0  0
  160.7530  205.3170  148.5070 C   0  0  0  0  0  2  0  0  0  0  0  0
  162.7620  207.0640  147.5500 O   0  0  0  0  0  1  0  0  0  0  0  0
  159.4940  210.2350  156.3360 C   0  0  0  0  0  0  0  0  0  0  0  0
  161.7570  209.4110  152.1060 C   0  0  0  0  0  2  0  0  0  0  0  0
  160.3650  207.1840  153.7400 C   0  0  0  0  0  2  0  0  0  0  0  0
  161.6600  206.4380  153.4130 C   0  0  0  0  0  2  0  0  0  0  0  0
  160.2820  211.4400  152.5080 N   0  0  0  0  0  0  0  0  0  0  0  0
  160.6730  206.8320  148.6720 C   0  0  0  0  0  2  0  0  0  0  0  0
  162.3570  203.9760  150.1960 O   0  0  0  0  0  0  0  0  0  0  0  0
  160.0040  208.9770  156.8110 N   0  0  0  0  0  0  0  0  0  0  0  0
  160.5160  208.0840  156.0150 C   0  0  0  0  0  3  0  0  0  0  0  0
  160.3270  209.6590  154.1290 C   0  0  0  0  0  0  0  0  0  0  0  0
  161.8130  206.1790  151.9740 N   0  0  2  0  0  0  0  0  0  0  0  0
  160.9500  204.4910  150.0750 S   0  0  0  0  0  0  0  0  0  0  0  0
  162.0480  207.5260  148.6580 C   0  0  1  0  0  0  0  0  0  0  0  0
  160.6100  208.3270  154.6060 N   0  0  0  0  0  0  0  0  0  0  0  0
  161.9120  209.0310  148.5110 C   0  0  0  0  0  0  0  0  0  0  0  0
  161.8070  211.8190  148.0990 C   0  0  0  0  0  0  0  0  0  0  0  0
  162.8070  211.2610  148.9070 C   0  0  0  0  0  3  0  0  0  0  0  0
  160.8690  210.9830  147.4890 C   0  0  0  0  0  3  0  0  0  0  0  0
  160.9240  209.6010  147.6870 C   0  0  0  0  0  3  0  0  0  0  0  0
  162.8620  209.8790  149.1030 C   0  0  0  0  0  3  0  0  0  0  0  0
  161.7290  213.2300  147.8840 N   0  0  0  0  0  2  0  0  0  0  0  0
  160.5530  213.8810  147.3310 C   0  0  0  0  0  2  0  0  0  0  0  0
  159.5090  213.9150  145.3900 C   0  0  0  0  0  1  0  0  0  0  0  0
  160.7560  214.1330  145.9750 O   0  0  0  0  0  0  0  0  0  0  0  0
  1  8  2  0  0  0  0
  2 18  1  0  0  0  0
  5 23  2  0  0  0  0
  6  3  1  6  0  0  0
  6 11  1  0  0  0  0
  6 24  1  0  0  0  0
  8 10  1  0  0  0  0
 10 14  2  0  0  0  0
 11 15  1  0  0  0  0
 12 19  1  0  0  0  0
 12 25  1  0  0  0  0
 14 21  1  0  0  0  0
 14  7  1  0  0  0  0
 15  5  1  0  0  0  0
 16 27  1  0  0  0  0
 17 16  1  0  0  0  0
 18  5  1  0  0  0  0
 18  1  1  0  0  0  0
 22 21  2  0  0  0  0
 23 27  1  0  0  0  0
 23 10  1  0  0  0  0
 24  9  1  6  0  0  0
 24 17  1  0  0  0  0
 25  4  2  0  0  0  0
 25 20  2  0  0  0  0
 25  9  1  0  0  0  0
 26 13  1  6  0  0  0
 26 19  1  0  0  0  0
 26  3  1  0  0  0  0
 27 22  1  0  0  0  0
 28 26  1  0  0  0  0
 28 33  1  0  0  0  0
 29 30  1  0  0  0  0
 30 33  2  0  0  0  0
 31 32  1  0  0  0  0
 31 29  2  0  0  0  0
 32 28  2  0  0  0  0
 34 29  1  0  0  0  0
 35 34  1  0  0  0  0
 36 37  1  0  0  0  0
 37 35  1  0  0  0  0
M  END
>  <MODEL>
4

>  <REMARK>
 VINA RESULT:      -1.6      1.545      1.801
  Name = 
  4 active torsions:
  status: ('A' for Active; 'I' for Inactive)
    1  A    between atoms: C_4  and  C_36
    2  A    between atoms: C_5  and  N_15
    3  A    between atoms: N_15  and  C_27
    4  A    between atoms: O_23  and  C_27
                            x       y       z     vdW  Elec       q    Type
                         _______ _______ _______ _____ _____    ______ ____

>  <TORSDO>
F 4

$$$$
