=
 OpenBabel11052412133D

 41 43  0  0  1  0  0  0  0  0999 V2000
  162.6740  206.1820  151.3270 C   0  0  0  0  0  3  0  0  0  0  0  0
  162.5400  205.8780  152.6170 C   0  0  0  0  0  3  0  0  0  0  0  0
  161.7800  207.1560  150.6330 C   0  0  1  0  0  3  0  0  0  0  0  0
  161.4640  208.7590  152.4890 C   0  0  0  0  0  3  0  0  0  0  0  0
  162.2750  209.7280  150.4350 C   0  0  0  0  0  1  0  0  0  0  0  0
  161.5620  206.4930  153.5390 C   0  0  0  0  0  3  0  0  0  0  0  0
  161.0450  207.7280  153.4660 C   0  0  0  0  0  0  0  0  0  0  0  0
  161.8650  208.5390  151.2370 C   0  0  0  0  0  0  0  0  0  0  0  0
  161.6460  208.4170  148.4400 C   0  0  0  0  0  1  0  0  0  0  0  0
  161.8960  207.0570  149.0960 C   0  0  2  0  0  3  0  0  0  0  0  0
  159.9040  206.6380  147.8130 C   0  0  0  0  0  1  0  0  0  0  0  0
  161.0060  206.0190  148.5500 N   0  0  0  0  0  0  0  0  0  0  0  0
  161.7560  205.7490  143.8380 C   0  0  0  0  0  1  0  0  0  0  0  0
  161.1340  203.7130  147.6290 C   0  0  2  0  0  3  0  0  0  0  0  0
  161.3400  203.0120  146.2870 C   0  0  0  0  0  2  0  0  0  0  0  0
  161.1520  205.3580  145.1730 C   0  0  1  0  0  3  0  0  0  0  0  0
  161.7600  205.1160  147.6600 C   0  0  1  0  0  3  0  0  0  0  0  0
  160.8160  203.8880  145.1920 C   0  0  0  0  0  0  0  0  0  0  0  0
  160.0920  203.4120  144.3330 O   0  0  0  0  0  0  0  0  0  0  0  0
  162.1380  205.7210  146.2850 C   0  0  0  0  0  2  0  0  0  0  0  0
  161.7220  202.8820  148.7570 C   0  0  0  0  0  2  0  0  0  0  0  0
  160.9610  200.9120  150.0720 C   0  0  0  0  0  1  0  0  0  0  0  0
  160.6310  202.3390  149.6630 C   0  0  1  0  0  3  0  0  0  0  0  0
  160.5350  203.2070  150.8740 C   0  0  0  0  0  3  0  0  0  0  0  0
  161.1420  202.8640  152.0080 C   0  0  0  0  0  2  0  0  0  0  0  0
  160.1100  208.1510  154.5480 C   0  0  0  0  0  2  0  0  0  0  0  0
  160.4460  209.5490  155.0500 C   0  0  2  0  0  3  0  0  0  0  0  0
  162.3480  210.6230  156.2550 O   0  0  0  0  0  0  0  0  0  0  0  0
  161.5410  209.5080  156.0710 C   0  0  0  0  0  0  0  0  0  0  0  0
  161.7400  208.4730  156.7610 O   0  0  0  0  0  1  0  0  0  0  0  0
  159.1960  210.2040  155.6160 C   0  0  0  0  0  2  0  0  0  0  0  0
  158.7020  211.2690  154.6960 C   0  0  0  0  0  0  0  0  0  0  0  0
  159.1550  211.4390  153.4420 N   0  0  0  0  0  0  0  0  0  0  0  0
  157.6950  212.1650  154.9660 C   0  0  1  0  0  3  0  0  0  0  0  0
  157.5000  212.9490  153.8480 C   0  0  0  0  0  3  0  0  0  0  0  0
  158.4280  212.4610  152.9370 C   0  0  0  0  0  0  0  0  0  0  0  0
  157.6150  213.3210  150.8860 O   0  0  0  0  0  0  0  0  0  0  0  0
  158.6120  212.9830  151.5770 C   0  0  0  0  0  0  0  0  0  0  0  0
  159.9770  213.1200  150.9980 C   0  0  0  0  0  1  0  0  0  0  0  0
  155.7300  211.5240  156.4100 C   0  0  0  0  0  1  0  0  0  0  0  0
  156.9700  212.2500  156.1940 N   0  0  0  0  0  2  0  0  0  0  0  0
  1  2  2  0  0  0  0
  2  6  1  0  0  0  0
  3 10  1  6  0  0  0
  3  8  1  0  0  0  0
  3  1  1  0  0  0  0
  4  7  1  0  0  0  0
  5  8  1  0  0  0  0
  7  6  2  0  0  0  0
  7 26  1  0  0  0  0
  8  4  2  0  0  0  0
 10  9  1  6  0  0  0
 11 12  1  0  0  0  0
 12 10  1  0  0  0  0
 14 17  1  0  0  0  0
 14 21  1  1  0  0  0
 15 14  1  0  0  0  0
 16 13  1  6  0  0  0
 16 18  1  0  0  0  0
 16 20  1  0  0  0  0
 17 12  1  6  0  0  0
 18 15  1  0  0  0  0
 19 18  2  0  0  0  0
 20 17  1  0  0  0  0
 21 23  1  0  0  0  0
 23 22  1  1  0  0  0
 23 24  1  0  0  0  0
 24 25  2  0  0  0  0
 27 26  1  1  0  0  0
 27 31  1  0  0  0  0
 27 29  1  0  0  0  0
 29 28  2  0  0  0  0
 29 30  1  0  0  0  0
 32 34  1  0  0  0  0
 32 31  1  0  0  0  0
 33 32  2  0  0  0  0
 34 41  1  6  0  0  0
 35 34  1  0  0  0  0
 36 33  1  0  0  0  0
 36 35  2  0  0  0  0
 37 38  2  0  0  0  0
 38 36  1  0  0  0  0
 39 38  1  0  0  0  0
 41 40  1  0  0  0  0
M  END
>  <MODEL>
1

>  <REMARK>
 VINA RESULT:      -7.5      0.000      0.000
  Name = 
  13 active torsions:
  status: ('A' for Active; 'I' for Inactive)
    1  A    between atoms: C_5  and  C_19
    2  A    between atoms: C_5  and  C_33
    3  A    between atoms: C_6  and  C_8
    4  A    between atoms: C_6  and  C_38
    5  A    between atoms: C_9  and  C_36
    6  A    between atoms: C_14  and  N_35
    7  A    between atoms: C_16  and  C_26
    8  A    between atoms: C_19  and  C_21
    9  A    between atoms: C_19  and  C_26
   10  A    between atoms: C_20  and  C_38
   11  A    between atoms: C_23  and  N_32
   12  A    between atoms: N_35  and  C_36
   13  A    between atoms: C_37  and  C_39
                            x       y       z     vdW  Elec       q    Type
                         _______ _______ _______ _____ _____    ______ ____

>  <TORSDO>
F 13

$$$$
=
 OpenBabel11052412133D

 41 43  0  0  1  0  0  0  0  0999 V2000
  162.5040  206.3740  151.2030 C   0  0  0  0  0  3  0  0  0  0  0  0
  162.3600  206.2280  152.5200 C   0  0  0  0  0  3  0  0  0  0  0  0
  161.7540  207.4020  150.4220 C   0  0  1  0  0  3  0  0  0  0  0  0
  161.7430  209.2150  152.1030 C   0  0  0  0  0  3  0  0  0  0  0  0
  162.6380  209.8300  149.9510 C   0  0  0  0  0  1  0  0  0  0  0  0
  161.5170  207.0800  153.3840 C   0  0  0  0  0  3  0  0  0  0  0  0
  161.1960  208.3680  153.1870 C   0  0  0  0  0  0  0  0  0  0  0  0
  162.0710  208.8080  150.8770 C   0  0  0  0  0  0  0  0  0  0  0  0
  161.4360  208.3850  148.1080 C   0  0  0  0  0  1  0  0  0  0  0  0
  161.8100  207.1310  148.9020 C   0  0  2  0  0  3  0  0  0  0  0  0
  159.7540  206.4390  147.8620 C   0  0  0  0  0  1  0  0  0  0  0  0
  160.9740  205.9790  148.5250 N   0  0  0  0  0  0  0  0  0  0  0  0
  161.6560  205.6870  143.8030 C   0  0  0  0  0  1  0  0  0  0  0  0
  161.1060  203.6690  147.6150 C   0  0  2  0  0  3  0  0  0  0  0  0
  161.2980  202.9610  146.2750 C   0  0  0  0  0  2  0  0  0  0  0  0
  161.0750  205.2990  145.1500 C   0  0  1  0  0  3  0  0  0  0  0  0
  161.7220  205.0770  147.6290 C   0  0  1  0  0  3  0  0  0  0  0  0
  160.7510  203.8270  145.1830 C   0  0  0  0  0  0  0  0  0  0  0  0
  160.0180  203.3400  144.3370 O   0  0  0  0  0  0  0  0  0  0  0  0
  162.0750  205.6760  146.2460 C   0  0  0  0  0  2  0  0  0  0  0  0
  161.7170  202.8490  148.7400 C   0  0  0  0  0  2  0  0  0  0  0  0
  160.9360  201.0460  150.2660 C   0  0  0  0  0  1  0  0  0  0  0  0
  160.6670  202.4570  149.7640 C   0  0  1  0  0  3  0  0  0  0  0  0
  160.7220  203.4210  150.9020 C   0  0  0  0  0  3  0  0  0  0  0  0
  160.7600  202.9890  152.1610 C   0  0  0  0  0  2  0  0  0  0  0  0
  160.3680  209.0400  154.2300 C   0  0  0  0  0  2  0  0  0  0  0  0
  161.2460  209.7040  155.2840 C   0  0  2  0  0  3  0  0  0  0  0  0
  162.2840  208.5930  157.2610 O   0  0  0  0  0  1  0  0  0  0  0  0
  161.1330  209.0020  156.6020 C   0  0  0  0  0  0  0  0  0  0  0  0
  160.0050  208.7770  157.1170 O   0  0  0  0  0  0  0  0  0  0  0  0
  160.8690  211.1720  155.4130 C   0  0  0  0  0  2  0  0  0  0  0  0
  159.4910  211.4050  154.8930 C   0  0  0  0  0  0  0  0  0  0  0  0
  158.3770  211.1980  155.6160 N   0  0  0  0  0  2  0  0  0  0  0  0
  159.1700  211.9110  153.6550 C   0  0  0  0  0  0  0  0  0  0  0  0
  157.7980  212.0250  153.5750 C   0  0  0  0  0  3  0  0  0  0  0  0
  157.3570  211.5690  154.8110 C   0  0  0  0  0  0  0  0  0  0  0  0
  155.3220  212.5360  155.5410 O   0  0  0  0  0  0  0  0  0  0  0  0
  155.9460  211.4930  155.2140 C   0  0  0  0  0  0  0  0  0  0  0  0
  155.2370  210.1840  155.2390 C   0  0  0  0  0  1  0  0  0  0  0  0
  159.7480  213.1280  151.5240 C   0  0  0  0  0  1  0  0  0  0  0  0
  160.1090  212.2710  152.6400 N   0  0  0  0  0  2  0  0  0  0  0  0
  1  2  2  0  0  0  0
  2  6  1  0  0  0  0
  3 10  1  6  0  0  0
  3  8  1  0  0  0  0
  3  1  1  0  0  0  0
  4  7  1  0  0  0  0
  5  8  1  0  0  0  0
  7  6  2  0  0  0  0
  7 26  1  0  0  0  0
  8  4  2  0  0  0  0
 10  9  1  6  0  0  0
 11 12  1  0  0  0  0
 12 10  1  0  0  0  0
 14 17  1  0  0  0  0
 14 21  1  1  0  0  0
 15 14  1  0  0  0  0
 16 13  1  6  0  0  0
 16 18  1  0  0  0  0
 16 20  1  0  0  0  0
 17 12  1  6  0  0  0
 18 15  1  0  0  0  0
 19 18  2  0  0  0  0
 20 17  1  0  0  0  0
 21 23  1  0  0  0  0
 23 22  1  1  0  0  0
 23 24  1  0  0  0  0
 24 25  2  0  0  0  0
 27 26  1  6  0  0  0
 27 31  1  0  0  0  0
 27 29  1  0  0  0  0
 29 30  2  0  0  0  0
 29 28  1  0  0  0  0
 32 31  1  0  0  0  0
 32 33  1  0  0  0  0
 34 32  2  0  0  0  0
 35 34  1  0  0  0  0
 35 36  2  0  0  0  0
 36 38  1  0  0  0  0
 36 33  1  0  0  0  0
 38 39  1  0  0  0  0
 38 37  2  0  0  0  0
 40 41  1  0  0  0  0
 41 34  1  0  0  0  0
M  END
>  <MODEL>
2

>  <REMARK>
 VINA RESULT:      -6.8      1.148      2.199
  Name = 
  13 active torsions:
  status: ('A' for Active; 'I' for Inactive)
    1  A    between atoms: C_5  and  C_19
    2  A    between atoms: C_5  and  C_33
    3  A    between atoms: C_6  and  C_8
    4  A    between atoms: C_6  and  C_38
    5  A    between atoms: C_9  and  C_36
    6  A    between atoms: C_14  and  N_35
    7  A    between atoms: C_16  and  C_26
    8  A    between atoms: C_19  and  C_21
    9  A    between atoms: C_19  and  C_26
   10  A    between atoms: C_20  and  C_38
   11  A    between atoms: C_23  and  N_32
   12  A    between atoms: N_35  and  C_36
   13  A    between atoms: C_37  and  C_39
                            x       y       z     vdW  Elec       q    Type
                         _______ _______ _______ _____ _____    ______ ____

>  <TORSDO>
F 13

$$$$
=
 OpenBabel11052412133D

 41 43  0  0  1  0  0  0  0  0999 V2000
  161.1870  207.8080  154.2090 C   0  0  0  0  0  3  0  0  0  0  0  0
  160.6420  208.6830  155.0530 C   0  0  0  0  0  3  0  0  0  0  0  0
  160.8400  207.7660  152.7580 C   0  0  1  0  0  3  0  0  0  0  0  0
  160.5600  210.1920  152.3710 C   0  0  0  0  0  3  0  0  0  0  0  0
  162.1240  209.1010  150.8960 C   0  0  0  0  0  1  0  0  0  0  0  0
  159.6950  209.7530  154.6740 C   0  0  0  0  0  3  0  0  0  0  0  0
  159.6130  210.3820  153.4930 C   0  0  0  0  0  0  0  0  0  0  0  0
  161.1820  209.0570  152.0520 C   0  0  0  0  0  0  0  0  0  0  0  0
  162.6310  205.9750  152.6900 C   0  0  0  0  0  1  0  0  0  0  0  0
  161.3100  206.4570  152.0860 C   0  0  2  0  0  3  0  0  0  0  0  0
  162.7880  206.4240  150.1870 C   0  0  0  0  0  1  0  0  0  0  0  0
  161.4020  206.6000  150.6230 N   0  0  0  0  0  0  0  0  0  0  0  0
  160.4550  201.9580  151.2540 C   0  0  0  0  0  1  0  0  0  0  0  0
  161.0310  205.3020  148.5350 C   0  0  2  0  0  3  0  0  0  0  0  0
  160.7130  203.8720  148.1020 C   0  0  0  0  0  2  0  0  0  0  0  0
  161.0700  203.1730  150.5840 C   0  0  1  0  0  3  0  0  0  0  0  0
  160.5360  205.6090  149.9570 C   0  0  1  0  0  3  0  0  0  0  0  0
  161.2720  202.9190  149.1120 C   0  0  0  0  0  0  0  0  0  0  0  0
  161.9170  201.9530  148.7370 O   0  0  0  0  0  0  0  0  0  0  0  0
  160.1630  204.3810  150.8250 C   0  0  0  0  0  2  0  0  0  0  0  0
  160.4130  206.2990  147.5690 C   0  0  0  0  0  2  0  0  0  0  0  0
  162.5790  205.7060  146.5000 C   0  0  0  0  0  1  0  0  0  0  0  0
  161.2710  206.4630  146.3280 C   0  0  1  0  0  3  0  0  0  0  0  0
  160.5240  205.9270  145.1520 C   0  0  0  0  0  3  0  0  0  0  0  0
  161.1620  205.2940  144.1690 C   0  0  0  0  0  2  0  0  0  0  0  0
  158.6050  211.4740  153.3610 C   0  0  0  0  0  2  0  0  0  0  0  0
  159.2330  212.8350  153.6270 C   0  0  2  0  0  3  0  0  0  0  0  0
  158.0310  213.7490  155.6130 O   0  0  0  0  0  0  0  0  0  0  0  0
  159.1820  213.1790  155.0840 C   0  0  0  0  0  0  0  0  0  0  0  0
  160.1720  212.9620  155.8320 O   0  0  0  0  0  1  0  0  0  0  0  0
  158.5310  213.8950  152.7920 C   0  0  0  0  0  2  0  0  0  0  0  0
  158.9600  213.8050  151.3660 C   0  0  0  0  0  0  0  0  0  0  0  0
  160.2240  213.5600  150.9830 N   0  0  0  0  0  2  0  0  0  0  0  0
  158.1350  213.8930  150.2690 C   0  0  0  0  0  0  0  0  0  0  0  0
  158.8990  213.7080  149.1360 C   0  0  0  0  0  3  0  0  0  0  0  0
  160.1820  213.5090  149.6320 C   0  0  0  0  0  0  0  0  0  0  0  0
  161.9750  214.2360  148.2670 O   0  0  0  0  0  0  0  0  0  0  0  0
  161.3680  213.2700  148.7990 C   0  0  0  0  0  0  0  0  0  0  0  0
  161.8660  211.8860  148.5740 C   0  0  0  0  0  1  0  0  0  0  0  0
  155.9120  214.1440  149.1060 C   0  0  0  0  0  1  0  0  0  0  0  0
  156.7250  214.1190  150.3100 N   0  0  0  0  0  2  0  0  0  0  0  0
  1  2  2  0  0  0  0
  3 10  1  6  0  0  0
  3  1  1  0  0  0  0
  4  7  1  0  0  0  0
  5  8  1  0  0  0  0
  6  2  1  0  0  0  0
  7  6  2  0  0  0  0
  8  4  2  0  0  0  0
  8  3  1  0  0  0  0
 10  9  1  1  0  0  0
 11 12  1  0  0  0  0
 12 10  1  0  0  0  0
 14 21  1  6  0  0  0
 14 17  1  0  0  0  0
 15 14  1  0  0  0  0
 15 18  1  0  0  0  0
 16 20  1  0  0  0  0
 16 13  1  6  0  0  0
 17 12  1  1  0  0  0
 17 20  1  0  0  0  0
 18 16  1  0  0  0  0
 19 18  2  0  0  0  0
 23 22  1  1  0  0  0
 23 21  1  0  0  0  0
 24 23  1  0  0  0  0
 25 24  2  0  0  0  0
 26  7  1  0  0  0  0
 26 27  1  0  0  0  0
 27 31  1  6  0  0  0
 27 29  1  0  0  0  0
 29 28  2  0  0  0  0
 29 30  1  0  0  0  0
 32 31  1  0  0  0  0
 33 32  1  0  0  0  0
 34 41  1  0  0  0  0
 34 32  2  0  0  0  0
 35 36  2  0  0  0  0
 35 34  1  0  0  0  0
 36 33  1  0  0  0  0
 37 38  2  0  0  0  0
 38 36  1  0  0  0  0
 39 38  1  0  0  0  0
 40 41  1  0  0  0  0
M  END
>  <MODEL>
3

>  <REMARK>
 VINA RESULT:      -6.3      2.230      4.594
  Name = 
  13 active torsions:
  status: ('A' for Active; 'I' for Inactive)
    1  A    between atoms: C_5  and  C_19
    2  A    between atoms: C_5  and  C_33
    3  A    between atoms: C_6  and  C_8
    4  A    between atoms: C_6  and  C_38
    5  A    between atoms: C_9  and  C_36
    6  A    between atoms: C_14  and  N_35
    7  A    between atoms: C_16  and  C_26
    8  A    between atoms: C_19  and  C_21
    9  A    between atoms: C_19  and  C_26
   10  A    between atoms: C_20  and  C_38
   11  A    between atoms: C_23  and  N_32
   12  A    between atoms: N_35  and  C_36
   13  A    between atoms: C_37  and  C_39
                            x       y       z     vdW  Elec       q    Type
                         _______ _______ _______ _____ _____    ______ ____

>  <TORSDO>
F 13

$$$$
=
 OpenBabel11052412133D

 41 43  0  0  1  0  0  0  0  0999 V2000
  160.5920  208.4100  151.9480 C   0  0  0  0  0  3  0  0  0  0  0  0
  160.5400  207.2510  151.2940 C   0  0  0  0  0  3  0  0  0  0  0  0
  161.6750  209.4130  151.7240 C   0  0  1  0  0  3  0  0  0  0  0  0
  161.9830  209.0890  149.2920 C   0  0  0  0  0  3  0  0  0  0  0  0
  161.5380  211.3610  149.9670 C   0  0  0  0  0  1  0  0  0  0  0  0
  161.4780  206.8300  150.2330 C   0  0  0  0  0  3  0  0  0  0  0  0
  162.1550  207.6220  149.3880 C   0  0  0  0  0  0  0  0  0  0  0  0
  161.7000  209.9150  150.2990 C   0  0  0  0  0  0  0  0  0  0  0  0
  162.9740  210.3140  153.7030 C   0  0  0  0  0  1  0  0  0  0  0  0
  161.7200  210.4790  152.8410 C   0  0  2  0  0  3  0  0  0  0  0  0
  160.7820  209.9240  154.9860 C   0  0  0  0  0  1  0  0  0  0  0  0
  160.4940  210.4630  153.6570 N   0  0  0  0  0  0  0  0  0  0  0  0
  158.9390  213.1890  157.2610 C   0  0  0  0  0  1  0  0  0  0  0  0
  158.5580  211.9270  153.1180 C   0  0  2  0  0  3  0  0  0  0  0  0
  157.6610  212.9590  153.7990 C   0  0  0  0  0  2  0  0  0  0  0  0
  158.8160  212.2990  156.0380 C   0  0  1  0  0  3  0  0  0  0  0  0
  159.9430  211.8260  153.7760 C   0  0  1  0  0  3  0  0  0  0  0  0
  157.5710  212.6390  155.2590 C   0  0  0  0  0  0  0  0  0  0  0  0
  156.4800  212.6260  155.8070 O   0  0  0  0  0  0  0  0  0  0  0  0
  160.0740  212.4620  155.1820 C   0  0  0  0  0  2  0  0  0  0  0  0
  158.7310  212.2640  151.6460 C   0  0  0  0  0  2  0  0  0  0  0  0
  159.5770  214.4530  150.8200 C   0  0  0  0  0  1  0  0  0  0  0  0
  158.3680  213.7120  151.3700 C   0  0  1  0  0  3  0  0  0  0  0  0
  157.2530  213.7480  150.3770 C   0  0  0  0  0  3  0  0  0  0  0  0
  157.3440  213.0830  149.2270 C   0  0  0  0  0  2  0  0  0  0  0  0
  163.0090  206.9630  148.3580 C   0  0  0  0  0  2  0  0  0  0  0  0
  162.3110  205.7490  147.7600 C   0  0  2  0  0  3  0  0  0  0  0  0
  162.3620  205.8350  145.2680 O   0  0  0  0  0  0  0  0  0  0  0  0
  161.6720  206.0840  146.4470 C   0  0  0  0  0  0  0  0  0  0  0  0
  160.5200  206.5910  146.4020 O   0  0  0  0  0  1  0  0  0  0  0  0
  161.2830  205.2130  148.7450 C   0  0  0  0  0  2  0  0  0  0  0  0
  161.0090  203.7710  148.4810 C   0  0  0  0  0  0  0  0  0  0  0  0
  161.1700  203.1900  147.2800 N   0  0  0  0  0  0  0  0  0  0  0  0
  160.6240  202.8390  149.4160 C   0  0  1  0  0  3  0  0  0  0  0  0
  160.5230  201.6130  148.7910 C   0  0  0  0  0  3  0  0  0  0  0  0
  160.8690  201.8860  147.4740 C   0  0  0  0  0  0  0  0  0  0  0  0
  161.5790  199.8290  146.5400 O   0  0  0  0  0  0  0  0  0  0  0  0
  160.9070  200.8840  146.4000 C   0  0  0  0  0  0  0  0  0  0  0  0
  160.1540  201.1030  145.1350 C   0  0  0  0  0  1  0  0  0  0  0  0
  161.3810  202.8160  151.8210 C   0  0  0  0  0  1  0  0  0  0  0  0
  160.3880  203.1040  150.8000 N   0  0  0  0  0  2  0  0  0  0  0  0
  2  1  2  0  0  0  0
  3  1  1  0  0  0  0
  3 10  1  1  0  0  0
  4  7  1  0  0  0  0
  4  8  2  0  0  0  0
  5  8  1  0  0  0  0
  6  2  1  0  0  0  0
  7  6  2  0  0  0  0
  8  3  1  0  0  0  0
 10 12  1  0  0  0  0
 10  9  1  1  0  0  0
 12 11  1  0  0  0  0
 14 21  1  6  0  0  0
 14 17  1  0  0  0  0
 14 15  1  0  0  0  0
 15 18  1  0  0  0  0
 16 13  1  1  0  0  0
 17 12  1  1  0  0  0
 17 20  1  0  0  0  0
 18 19  2  0  0  0  0
 18 16  1  0  0  0  0
 20 16  1  0  0  0  0
 23 22  1  6  0  0  0
 23 21  1  0  0  0  0
 24 23  1  0  0  0  0
 25 24  2  0  0  0  0
 26  7  1  0  0  0  0
 27 26  1  1  0  0  0
 27 31  1  0  0  0  0
 28 29  2  0  0  0  0
 29 27  1  0  0  0  0
 30 29  1  0  0  0  0
 32 31  1  0  0  0  0
 32 34  1  0  0  0  0
 33 36  1  0  0  0  0
 33 32  2  0  0  0  0
 34 41  1  1  0  0  0
 35 34  1  0  0  0  0
 36 35  2  0  0  0  0
 38 37  2  0  0  0  0
 38 36  1  0  0  0  0
 39 38  1  0  0  0  0
 41 40  1  0  0  0  0
M  END
>  <MODEL>
4

>  <REMARK>
 VINA RESULT:      -5.8      2.391     10.201
  Name = 
  13 active torsions:
  status: ('A' for Active; 'I' for Inactive)
    1  A    between atoms: C_5  and  C_19
    2  A    between atoms: C_5  and  C_33
    3  A    between atoms: C_6  and  C_8
    4  A    between atoms: C_6  and  C_38
    5  A    between atoms: C_9  and  C_36
    6  A    between atoms: C_14  and  N_35
    7  A    between atoms: C_16  and  C_26
    8  A    between atoms: C_19  and  C_21
    9  A    between atoms: C_19  and  C_26
   10  A    between atoms: C_20  and  C_38
   11  A    between atoms: C_23  and  N_32
   12  A    between atoms: N_35  and  C_36
   13  A    between atoms: C_37  and  C_39
                            x       y       z     vdW  Elec       q    Type
                         _______ _______ _______ _____ _____    ______ ____

>  <TORSDO>
F 13

$$$$
=
 OpenBabel11052412133D

 41 43  0  0  1  0  0  0  0  0999 V2000
  160.8470  208.2300  151.6240 C   0  0  0  0  0  3  0  0  0  0  0  0
  160.7070  207.0680  150.9860 C   0  0  0  0  0  3  0  0  0  0  0  0
  161.9360  209.1990  151.3010 C   0  0  1  0  0  3  0  0  0  0  0  0
  162.0320  208.8520  148.8550 C   0  0  0  0  0  3  0  0  0  0  0  0
  161.7100  211.1390  149.5450 C   0  0  0  0  0  1  0  0  0  0  0  0
  161.5420  206.6140  149.8540 C   0  0  0  0  0  3  0  0  0  0  0  0
  162.1690  207.3800  148.9490 C   0  0  0  0  0  0  0  0  0  0  0  0
  161.8570  209.6920  149.8750 C   0  0  0  0  0  0  0  0  0  0  0  0
  163.5680  210.7010  152.5250 C   0  0  0  0  0  1  0  0  0  0  0  0
  162.1050  210.2700  152.4010 C   0  0  2  0  0  3  0  0  0  0  0  0
  162.2860  210.4450  154.7950 C   0  0  0  0  0  1  0  0  0  0  0  0
  161.5620  209.8130  153.6920 N   0  0  0  0  0  0  0  0  0  0  0  0
  158.9070  213.7150  152.9380 C   0  0  0  0  0  1  0  0  0  0  0  0
  159.6390  210.1010  155.2420 C   0  0  2  0  0  3  0  0  0  0  0  0
  158.4960  211.0810  155.5000 C   0  0  0  0  0  2  0  0  0  0  0  0
  159.6210  212.6570  153.7590 C   0  0  1  0  0  3  0  0  0  0  0  0
  160.1250  210.1360  153.7840 C   0  0  1  0  0  3  0  0  0  0  0  0
  158.9250  212.4530  155.0800 C   0  0  0  0  0  0  0  0  0  0  0  0
  158.7340  213.3990  155.8270 O   0  0  0  0  0  0  0  0  0  0  0  0
  159.6770  211.3590  152.9490 C   0  0  0  0  0  2  0  0  0  0  0  0
  159.2120  208.6840  155.5890 C   0  0  0  0  0  2  0  0  0  0  0  0
  160.3520  207.2290  157.2530 C   0  0  0  0  0  1  0  0  0  0  0  0
  160.4160  207.7960  155.8430 C   0  0  1  0  0  3  0  0  0  0  0  0
  160.4130  206.6840  154.8460 C   0  0  0  0  0  3  0  0  0  0  0  0
  161.5530  206.2180  154.3420 C   0  0  0  0  0  2  0  0  0  0  0  0
  162.9150  206.6910  147.8570 C   0  0  0  0  0  2  0  0  0  0  0  0
  162.1170  205.5180  147.3030 C   0  0  2  0  0  3  0  0  0  0  0  0
  161.9040  205.5690  144.8180 O   0  0  0  0  0  0  0  0  0  0  0  0
  161.3790  205.9060  146.0590 C   0  0  0  0  0  0  0  0  0  0  0  0
  160.2910  206.5370  146.1260 O   0  0  0  0  0  1  0  0  0  0  0  0
  161.1600  205.0020  148.3660 C   0  0  0  0  0  2  0  0  0  0  0  0
  160.9540  203.5320  148.2140 C   0  0  0  0  0  0  0  0  0  0  0  0
  161.1070  202.8750  147.0520 N   0  0  0  0  0  0  0  0  0  0  0  0
  160.6490  202.6520  149.2260 C   0  0  1  0  0  3  0  0  0  0  0  0
  160.5930  201.3810  148.6930 C   0  0  0  0  0  3  0  0  0  0  0  0
  160.8810  201.5750  147.3470 C   0  0  0  0  0  0  0  0  0  0  0  0
  161.6110  199.4620  146.5670 O   0  0  0  0  0  0  0  0  0  0  0  0
  160.9370  200.5020  146.3460 C   0  0  0  0  0  0  0  0  0  0  0  0
  160.1990  200.6290  145.0600 C   0  0  0  0  0  1  0  0  0  0  0  0
  161.5520  203.1890  151.5180 C   0  0  0  0  0  1  0  0  0  0  0  0
  160.4450  203.0030  150.5960 N   0  0  0  0  0  2  0  0  0  0  0  0
  2  1  2  0  0  0  0
  3  1  1  0  0  0  0
  3 10  1  1  0  0  0
  4  7  1  0  0  0  0
  4  8  2  0  0  0  0
  5  8  1  0  0  0  0
  6  2  1  0  0  0  0
  7  6  2  0  0  0  0
  8  3  1  0  0  0  0
 10  9  1  1  0  0  0
 10 12  1  0  0  0  0
 12 11  1  0  0  0  0
 14 15  1  0  0  0  0
 14 21  1  6  0  0  0
 16 13  1  6  0  0  0
 16 18  1  0  0  0  0
 17 12  1  1  0  0  0
 17 14  1  0  0  0  0
 18 15  1  0  0  0  0
 18 19  2  0  0  0  0
 20 16  1  0  0  0  0
 20 17  1  0  0  0  0
 21 23  1  0  0  0  0
 23 22  1  1  0  0  0
 24 23  1  0  0  0  0
 25 24  2  0  0  0  0
 26  7  1  0  0  0  0
 27 26  1  1  0  0  0
 27 31  1  0  0  0  0
 28 29  2  0  0  0  0
 29 30  1  0  0  0  0
 29 27  1  0  0  0  0
 32 31  1  0  0  0  0
 32 34  1  0  0  0  0
 33 36  1  0  0  0  0
 33 32  2  0  0  0  0
 34 41  1  1  0  0  0
 35 34  1  0  0  0  0
 36 35  2  0  0  0  0
 38 37  2  0  0  0  0
 38 36  1  0  0  0  0
 39 38  1  0  0  0  0
 41 40  1  0  0  0  0
M  END
>  <MODEL>
5

>  <REMARK>
 VINA RESULT:      -5.7      2.293      9.594
  Name = 
  13 active torsions:
  status: ('A' for Active; 'I' for Inactive)
    1  A    between atoms: C_5  and  C_19
    2  A    between atoms: C_5  and  C_33
    3  A    between atoms: C_6  and  C_8
    4  A    between atoms: C_6  and  C_38
    5  A    between atoms: C_9  and  C_36
    6  A    between atoms: C_14  and  N_35
    7  A    between atoms: C_16  and  C_26
    8  A    between atoms: C_19  and  C_21
    9  A    between atoms: C_19  and  C_26
   10  A    between atoms: C_20  and  C_38
   11  A    between atoms: C_23  and  N_32
   12  A    between atoms: N_35  and  C_36
   13  A    between atoms: C_37  and  C_39
                            x       y       z     vdW  Elec       q    Type
                         _______ _______ _______ _____ _____    ______ ____

>  <TORSDO>
F 13

$$$$
=
 OpenBabel11052412133D

 41 43  0  0  1  0  0  0  0  0999 V2000
  161.7800  210.0210  150.9160 C   0  0  0  0  0  3  0  0  0  0  0  0
  162.2200  209.7240  149.6940 C   0  0  0  0  0  3  0  0  0  0  0  0
  160.6690  209.2740  151.5750 C   0  0  1  0  0  3  0  0  0  0  0  0
  161.1750  207.0140  150.7100 C   0  0  0  0  0  3  0  0  0  0  0  0
  161.0120  207.1710  153.1110 C   0  0  0  0  0  1  0  0  0  0  0  0
  161.7320  208.6030  148.8640 C   0  0  0  0  0  3  0  0  0  0  0  0
  161.2260  207.4380  149.2920 C   0  0  0  0  0  0  0  0  0  0  0  0
  160.9970  207.8110  151.7630 C   0  0  0  0  0  0  0  0  0  0  0  0
  158.6320  210.3730  152.6050 C   0  0  0  0  0  1  0  0  0  0  0  0
  160.1090  210.0280  152.8020 C   0  0  2  0  0  3  0  0  0  0  0  0
  160.3340  212.3990  152.4640 C   0  0  0  0  0  1  0  0  0  0  0  0
  160.9100  211.2230  153.1160 N   0  0  0  0  0  0  0  0  0  0  0  0
  162.4090  208.6580  156.8600 C   0  0  0  0  0  1  0  0  0  0  0  0
  159.5520  211.4740  155.1840 C   0  0  2  0  0  3  0  0  0  0  0  0
  159.5200  210.9510  156.6190 C   0  0  0  0  0  2  0  0  0  0  0  0
  161.3950  209.2850  155.9210 C   0  0  1  0  0  3  0  0  0  0  0  0
  160.9630  211.4330  154.5750 C   0  0  1  0  0  3  0  0  0  0  0  0
  160.1080  209.5740  156.6500 C   0  0  0  0  0  0  0  0  0  0  0  0
  159.5240  208.6820  157.2440 O   0  0  0  0  0  0  0  0  0  0  0  0
  161.9980  210.5580  155.3230 C   0  0  0  0  0  2  0  0  0  0  0  0
  159.0290  212.9000  155.1270 C   0  0  0  0  0  2  0  0  0  0  0  0
  156.8110  211.8130  155.4260 C   0  0  0  0  0  1  0  0  0  0  0  0
  157.5660  212.9310  154.7230 C   0  0  1  0  0  3  0  0  0  0  0  0
  156.9890  214.2540  155.1040 C   0  0  0  0  0  3  0  0  0  0  0  0
  156.2010  214.3720  156.1710 C   0  0  0  0  0  2  0  0  0  0  0  0
  160.8470  206.4280  148.2620 C   0  0  0  0  0  2  0  0  0  0  0  0
  161.9680  206.2300  147.2500 C   0  0  2  0  0  3  0  0  0  0  0  0
  160.0590  206.2050  145.6450 O   0  0  0  0  0  1  0  0  0  0  0  0
  161.4300  206.1530  145.8540 C   0  0  0  0  0  0  0  0  0  0  0  0
  162.2090  206.0370  144.8710 O   0  0  0  0  0  0  0  0  0  0  0  0
  162.7580  204.9780  147.6000 C   0  0  0  0  0  2  0  0  0  0  0  0
  161.8990  203.7660  147.4750 C   0  0  0  0  0  0  0  0  0  0  0  0
  161.6360  203.1560  146.3060 N   0  0  0  0  0  0  0  0  0  0  0  0
  161.3170  203.0790  148.5140 C   0  0  1  0  0  3  0  0  0  0  0  0
  160.6470  201.9910  147.9950 C   0  0  0  0  0  3  0  0  0  0  0  0
  160.8740  202.0870  146.6270 C   0  0  0  0  0  0  0  0  0  0  0  0
  159.4810  201.5140  144.8000 O   0  0  0  0  0  0  0  0  0  0  0  0
  160.3520  201.1430  145.6300 C   0  0  0  0  0  0  0  0  0  0  0  0
  160.8460  199.7400  145.5860 C   0  0  0  0  0  1  0  0  0  0  0  0
  160.2370  203.6500  150.7200 C   0  0  0  0  0  1  0  0  0  0  0  0
  161.4130  203.4310  149.8960 N   0  0  0  0  0  2  0  0  0  0  0  0
  1  3  1  0  0  0  0
  2  1  2  0  0  0  0
  3  8  1  0  0  0  0
  3 10  1  1  0  0  0
  4  8  2  0  0  0  0
  6  7  2  0  0  0  0
  6  2  1  0  0  0  0
  7  4  1  0  0  0  0
  8  5  1  0  0  0  0
 10  9  1  6  0  0  0
 10 12  1  0  0  0  0
 11 12  1  0  0  0  0
 14 21  1  1  0  0  0
 14 15  1  0  0  0  0
 15 18  1  0  0  0  0
 16 18  1  0  0  0  0
 16 13  1  1  0  0  0
 17 12  1  6  0  0  0
 17 14  1  0  0  0  0
 17 20  1  0  0  0  0
 18 19  2  0  0  0  0
 20 16  1  0  0  0  0
 23 24  1  0  0  0  0
 23 21  1  0  0  0  0
 23 22  1  1  0  0  0
 24 25  2  0  0  0  0
 26  7  1  0  0  0  0
 27 31  1  1  0  0  0
 27 26  1  0  0  0  0
 28 29  1  0  0  0  0
 29 27  1  0  0  0  0
 30 29  2  0  0  0  0
 32 31  1  0  0  0  0
 32 34  1  0  0  0  0
 33 36  1  0  0  0  0
 33 32  2  0  0  0  0
 34 41  1  1  0  0  0
 35 34  1  0  0  0  0
 36 35  2  0  0  0  0
 37 38  2  0  0  0  0
 38 36  1  0  0  0  0
 39 38  1  0  0  0  0
 41 40  1  0  0  0  0
M  END
>  <MODEL>
6

>  <REMARK>
 VINA RESULT:      -5.7      2.150     10.305
  Name = 
  13 active torsions:
  status: ('A' for Active; 'I' for Inactive)
    1  A    between atoms: C_5  and  C_19
    2  A    between atoms: C_5  and  C_33
    3  A    between atoms: C_6  and  C_8
    4  A    between atoms: C_6  and  C_38
    5  A    between atoms: C_9  and  C_36
    6  A    between atoms: C_14  and  N_35
    7  A    between atoms: C_16  and  C_26
    8  A    between atoms: C_19  and  C_21
    9  A    between atoms: C_19  and  C_26
   10  A    between atoms: C_20  and  C_38
   11  A    between atoms: C_23  and  N_32
   12  A    between atoms: N_35  and  C_36
   13  A    between atoms: C_37  and  C_39
                            x       y       z     vdW  Elec       q    Type
                         _______ _______ _______ _____ _____    ______ ____

>  <TORSDO>
F 13

$$$$
=
 OpenBabel11052412133D

 41 43  0  0  1  0  0  0  0  0999 V2000
  161.6260  210.4800  152.0040 C   0  0  0  0  0  3  0  0  0  0  0  0
  162.4400  209.9220  151.1090 C   0  0  0  0  0  3  0  0  0  0  0  0
  160.3400  209.8500  152.4260 C   0  0  1  0  0  3  0  0  0  0  0  0
  161.0500  207.4820  152.3690 C   0  0  0  0  0  3  0  0  0  0  0  0
  160.1020  208.2100  154.4630 C   0  0  0  0  0  1  0  0  0  0  0  0
  162.2290  208.6040  150.4730 C   0  0  0  0  0  3  0  0  0  0  0  0
  161.5800  207.5500  150.9890 C   0  0  0  0  0  0  0  0  0  0  0  0
  160.5520  208.5000  153.0710 C   0  0  0  0  0  0  0  0  0  0  0  0
  158.2620  211.2910  152.2810 C   0  0  0  0  0  1  0  0  0  0  0  0
  159.4230  210.8440  153.1720 C   0  0  2  0  0  3  0  0  0  0  0  0
  159.5630  213.2450  153.2540 C   0  0  0  0  0  1  0  0  0  0  0  0
  160.1800  211.9940  153.6950 N   0  0  0  0  0  0  0  0  0  0  0  0
  162.8320  209.6930  156.9380 C   0  0  0  0  0  1  0  0  0  0  0  0
  158.9650  211.2800  155.7430 C   0  0  2  0  0  3  0  0  0  0  0  0
  159.2380  210.5510  157.0570 C   0  0  0  0  0  2  0  0  0  0  0  0
  161.5960  209.9860  156.1080 C   0  0  1  0  0  3  0  0  0  0  0  0
  160.2250  211.9470  155.1690 C   0  0  1  0  0  3  0  0  0  0  0  0
  160.3510  209.5700  156.8490 C   0  0  0  0  0  0  0  0  0  0  0  0
  160.2310  208.4260  157.2570 O   0  0  0  0  0  0  0  0  0  0  0  0
  161.5730  211.4770  155.7660 C   0  0  0  0  0  2  0  0  0  0  0  0
  157.8890  212.3370  155.9370 C   0  0  0  0  0  2  0  0  0  0  0  0
  155.5250  212.7880  156.5650 C   0  0  0  0  0  1  0  0  0  0  0  0
  156.5700  211.7060  156.3450 C   0  0  1  0  0  3  0  0  0  0  0  0
  156.1240  210.7810  155.2610 C   0  0  0  0  0  3  0  0  0  0  0  0
  154.9880  210.0950  155.3740 C   0  0  0  0  0  2  0  0  0  0  0  0
  161.5420  206.2980  150.1780 C   0  0  0  0  0  2  0  0  0  0  0  0
  160.9380  205.1480  150.9730 C   0  0  2  0  0  3  0  0  0  0  0  0
  161.8150  202.9300  151.7000 O   0  0  0  0  0  0  0  0  0  0  0  0
  162.0040  204.3010  151.5960 C   0  0  0  0  0  0  0  0  0  0  0  0
  163.0660  204.8210  152.0300 O   0  0  0  0  0  1  0  0  0  0  0  0
  160.0410  204.3170  150.0680 C   0  0  0  0  0  2  0  0  0  0  0  0
  160.6600  204.1600  148.7200 C   0  0  0  0  0  0  0  0  0  0  0  0
  160.8530  205.1790  147.8660 N   0  0  0  0  0  0  0  0  0  0  0  0
  161.1650  202.9940  148.1960 C   0  0  0  0  0  0  0  0  0  0  0  0
  161.6950  203.2700  146.9530 C   0  0  0  0  0  3  0  0  0  0  0  0
  161.4750  204.6330  146.7970 C   0  0  0  0  0  0  0  0  0  0  0  0
  163.0680  205.7370  145.4360 O   0  0  0  0  0  0  0  0  0  0  0  0
  161.8650  205.4080  145.6120 C   0  0  0  0  0  0  0  0  0  0  0  0
  160.8470  205.8150  144.6050 C   0  0  0  0  0  1  0  0  0  0  0  0
  161.5760  200.5060  148.1700 C   0  0  0  0  0  1  0  0  0  0  0  0
  161.1540  201.7210  148.8450 N   0  0  0  0  0  0  0  0  0  0  0  0
  1  3  1  0  0  0  0
  2  1  2  0  0  0  0
  3  8  1  0  0  0  0
  3 10  1  1  0  0  0
  4  8  2  0  0  0  0
  6  7  2  0  0  0  0
  6  2  1  0  0  0  0
  7  4  1  0  0  0  0
  8  5  1  0  0  0  0
 10  9  1  6  0  0  0
 10 12  1  0  0  0  0
 11 12  1  0  0  0  0
 14 21  1  1  0  0  0
 14 15  1  0  0  0  0
 16 18  1  0  0  0  0
 16 13  1  1  0  0  0
 17 12  1  6  0  0  0
 17 14  1  0  0  0  0
 17 20  1  0  0  0  0
 18 15  1  0  0  0  0
 18 19  2  0  0  0  0
 20 16  1  0  0  0  0
 21 23  1  0  0  0  0
 23 22  1  6  0  0  0
 24 25  2  0  0  0  0
 24 23  1  0  0  0  0
 26 27  1  0  0  0  0
 26  7  1  0  0  0  0
 27 31  1  6  0  0  0
 27 29  1  0  0  0  0
 29 28  2  0  0  0  0
 29 30  1  0  0  0  0
 32 31  1  0  0  0  0
 33 32  2  0  0  0  0
 34 32  1  0  0  0  0
 34 41  2  0  0  0  0
 35 34  1  0  0  0  0
 36 35  2  0  0  0  0
 36 33  1  0  0  0  0
 37 38  2  0  0  0  0
 38 36  1  0  0  0  0
 39 38  1  0  0  0  0
 40 41  1  0  0  0  0
M  END
>  <MODEL>
7

>  <REMARK>
 VINA RESULT:      -5.5      2.169      9.670
  Name = 
  13 active torsions:
  status: ('A' for Active; 'I' for Inactive)
    1  A    between atoms: C_5  and  C_19
    2  A    between atoms: C_5  and  C_33
    3  A    between atoms: C_6  and  C_8
    4  A    between atoms: C_6  and  C_38
    5  A    between atoms: C_9  and  C_36
    6  A    between atoms: C_14  and  N_35
    7  A    between atoms: C_16  and  C_26
    8  A    between atoms: C_19  and  C_21
    9  A    between atoms: C_19  and  C_26
   10  A    between atoms: C_20  and  C_38
   11  A    between atoms: C_23  and  N_32
   12  A    between atoms: N_35  and  C_36
   13  A    between atoms: C_37  and  C_39
                            x       y       z     vdW  Elec       q    Type
                         _______ _______ _______ _____ _____    ______ ____

>  <TORSDO>
F 13

$$$$
=
 OpenBabel11052412133D

 41 43  0  0  1  0  0  0  0  0999 V2000
  159.8770  208.5030  155.2400 C   0  0  0  0  0  3  0  0  0  0  0  0
  160.0410  207.1810  155.2430 C   0  0  0  0  0  3  0  0  0  0  0  0
  160.6990  209.4130  154.3870 C   0  0  1  0  0  3  0  0  0  0  0  0
  160.9210  207.9610  152.3980 C   0  0  0  0  0  3  0  0  0  0  0  0
  160.0320  210.1580  151.9580 C   0  0  0  0  0  1  0  0  0  0  0  0
  160.9820  206.4380  154.3790 C   0  0  0  0  0  3  0  0  0  0  0  0
  161.4150  206.7910  153.1600 C   0  0  0  0  0  0  0  0  0  0  0  0
  160.5260  209.1250  152.9140 C   0  0  0  0  0  0  0  0  0  0  0  0
  161.6350  211.2330  155.8800 C   0  0  0  0  0  1  0  0  0  0  0  0
  160.5780  210.8890  154.8280 C   0  0  2  0  0  3  0  0  0  0  0  0
  159.0900  210.8750  156.7190 C   0  0  0  0  0  1  0  0  0  0  0  0
  159.2190  211.2050  155.2990 N   0  0  0  0  0  0  0  0  0  0  0  0
  156.2130  214.3750  157.2380 C   0  0  0  0  0  1  0  0  0  0  0  0
  158.2740  212.8730  153.7160 C   0  0  2  0  0  3  0  0  0  0  0  0
  157.3170  214.0640  153.7240 C   0  0  0  0  0  2  0  0  0  0  0  0
  156.7350  213.4220  156.1790 C   0  0  1  0  0  3  0  0  0  0  0  0
  158.9260  212.6350  155.0870 C   0  0  1  0  0  3  0  0  0  0  0  0
  156.3010  213.8680  154.8060 C   0  0  0  0  0  0  0  0  0  0  0  0
  155.1180  214.0430  154.5610 O   0  0  0  0  0  0  0  0  0  0  0  0
  158.2590  213.3500  156.2890 C   0  0  0  0  0  2  0  0  0  0  0  0
  159.3640  213.0750  152.6770 C   0  0  0  0  0  2  0  0  0  0  0  0
  160.0350  214.3660  150.6590 C   0  0  0  0  0  1  0  0  0  0  0  0
  158.8620  213.9100  151.5130 C   0  0  1  0  0  3  0  0  0  0  0  0
  157.9270  213.0830  150.6940 C   0  0  0  0  0  3  0  0  0  0  0  0
  157.7390  213.3430  149.4020 C   0  0  0  0  0  2  0  0  0  0  0  0
  162.3280  205.8480  152.4510 C   0  0  0  0  0  2  0  0  0  0  0  0
  161.7580  205.4460  151.0970 C   0  0  2  0  0  3  0  0  0  0  0  0
  160.3760  203.5460  150.2610 O   0  0  0  0  0  0  0  0  0  0  0  0
  161.4180  203.9880  151.0640 C   0  0  0  0  0  0  0  0  0  0  0  0
  162.0650  203.1610  151.7600 O   0  0  0  0  0  1  0  0  0  0  0  0
  162.7490  205.8000  149.9990 C   0  0  0  0  0  2  0  0  0  0  0  0
  162.0510  205.9270  148.6870 C   0  0  0  0  0  0  0  0  0  0  0  0
  161.9720  204.9330  147.7860 N   0  0  0  0  0  0  0  0  0  0  0  0
  161.3520  207.0270  148.2480 C   0  0  1  0  0  3  0  0  0  0  0  0
  160.8120  206.7340  147.0130 C   0  0  0  0  0  3  0  0  0  0  0  0
  161.2270  205.4300  146.7730 C   0  0  0  0  0  0  0  0  0  0  0  0
  160.6990  205.2560  144.4710 O   0  0  0  0  0  0  0  0  0  0  0  0
  160.9020  204.6630  145.5630 C   0  0  0  0  0  0  0  0  0  0  0  0
  160.8100  203.1780  145.6110 C   0  0  0  0  0  1  0  0  0  0  0  0
  162.1660  209.3350  148.8540 C   0  0  0  0  0  1  0  0  0  0  0  0
  161.2030  208.2540  148.9650 N   0  0  0  0  0  2  0  0  0  0  0  0
  1  2  2  0  0  0  0
  3 10  1  6  0  0  0
  3  1  1  0  0  0  0
  4  8  2  0  0  0  0
  4  7  1  0  0  0  0
  5  8  1  0  0  0  0
  6  2  1  0  0  0  0
  7  6  2  0  0  0  0
  8  3  1  0  0  0  0
 10 12  1  0  0  0  0
 10  9  1  1  0  0  0
 12 11  1  0  0  0  0
 14 21  1  6  0  0  0
 14 15  1  0  0  0  0
 14 17  1  0  0  0  0
 15 18  1  0  0  0  0
 16 20  1  0  0  0  0
 16 13  1  1  0  0  0
 17 12  1  1  0  0  0
 17 20  1  0  0  0  0
 18 16  1  0  0  0  0
 19 18  2  0  0  0  0
 23 22  1  6  0  0  0
 23 21  1  0  0  0  0
 24 23  1  0  0  0  0
 25 24  2  0  0  0  0
 26  7  1  0  0  0  0
 27 31  1  6  0  0  0
 27 26  1  0  0  0  0
 28 29  2  0  0  0  0
 29 27  1  0  0  0  0
 29 30  1  0  0  0  0
 32 31  1  0  0  0  0
 33 32  2  0  0  0  0
 34 32  1  0  0  0  0
 34 41  1  1  0  0  0
 35 34  1  0  0  0  0
 36 35  2  0  0  0  0
 36 33  1  0  0  0  0
 37 38  2  0  0  0  0
 38 39  1  0  0  0  0
 38 36  1  0  0  0  0
 40 41  1  0  0  0  0
M  END
>  <MODEL>
8

>  <REMARK>
 VINA RESULT:      -5.5      2.374      9.749
  Name = 
  13 active torsions:
  status: ('A' for Active; 'I' for Inactive)
    1  A    between atoms: C_5  and  C_19
    2  A    between atoms: C_5  and  C_33
    3  A    between atoms: C_6  and  C_8
    4  A    between atoms: C_6  and  C_38
    5  A    between atoms: C_9  and  C_36
    6  A    between atoms: C_14  and  N_35
    7  A    between atoms: C_16  and  C_26
    8  A    between atoms: C_19  and  C_21
    9  A    between atoms: C_19  and  C_26
   10  A    between atoms: C_20  and  C_38
   11  A    between atoms: C_23  and  N_32
   12  A    between atoms: N_35  and  C_36
   13  A    between atoms: C_37  and  C_39
                            x       y       z     vdW  Elec       q    Type
                         _______ _______ _______ _____ _____    ______ ____

>  <TORSDO>
F 13

$$$$
=
 OpenBabel11052412133D

 41 43  0  0  1  0  0  0  0  0999 V2000
  160.1350  208.3030  154.6480 C   0  0  0  0  0  3  0  0  0  0  0  0
  160.3350  206.9990  154.4590 C   0  0  0  0  0  3  0  0  0  0  0  0
  160.9700  209.3480  153.9860 C   0  0  1  0  0  3  0  0  0  0  0  0
  161.3270  208.2220  151.8140 C   0  0  0  0  0  3  0  0  0  0  0  0
  160.3990  210.4420  151.6680 C   0  0  0  0  0  1  0  0  0  0  0  0
  161.3360  206.4160  153.5420 C   0  0  0  0  0  3  0  0  0  0  0  0
  161.8170  206.9600  152.4140 C   0  0  0  0  0  0  0  0  0  0  0  0
  160.8760  209.2850  152.4800 C   0  0  0  0  0  0  0  0  0  0  0  0
  161.5820  210.8350  155.9450 C   0  0  0  0  0  1  0  0  0  0  0  0
  160.7880  210.7360  154.6400 C   0  0  2  0  0  3  0  0  0  0  0  0
  158.9380  210.6300  156.1750 C   0  0  0  0  0  1  0  0  0  0  0  0
  159.3660  211.0580  154.8430 N   0  0  0  0  0  0  0  0  0  0  0  0
  156.9500  214.3990  157.2610 C   0  0  0  0  0  1  0  0  0  0  0  0
  158.2920  212.8100  153.4430 C   0  0  2  0  0  3  0  0  0  0  0  0
  157.4360  214.0640  153.6120 C   0  0  0  0  0  2  0  0  0  0  0  0
  157.2220  213.4280  156.1270 C   0  0  1  0  0  3  0  0  0  0  0  0
  159.1430  212.5080  154.6870 C   0  0  1  0  0  3  0  0  0  0  0  0
  156.6010  213.9230  154.8460 C   0  0  0  0  0  0  0  0  0  0  0  0
  155.4090  214.1820  154.8000 O   0  0  0  0  0  0  0  0  0  0  0  0
  158.7350  213.2490  155.9830 C   0  0  0  0  0  2  0  0  0  0  0  0
  159.2080  212.9520  152.2380 C   0  0  0  0  0  2  0  0  0  0  0  0
  159.6340  214.1650  150.1090 C   0  0  0  0  0  1  0  0  0  0  0  0
  158.6210  213.9040  151.2130 C   0  0  1  0  0  3  0  0  0  0  0  0
  157.3870  213.2910  150.6370 C   0  0  0  0  0  3  0  0  0  0  0  0
  157.0720  213.4670  149.3550 C   0  0  0  0  0  2  0  0  0  0  0  0
  162.7880  206.1550  151.6180 C   0  0  0  0  0  2  0  0  0  0  0  0
  162.2310  205.8290  150.2390 C   0  0  2  0  0  3  0  0  0  0  0  0
  160.5440  207.2380  149.0610 O   0  0  0  0  0  0  0  0  0  0  0  0
  161.8510  207.0750  149.5000 C   0  0  0  0  0  0  0  0  0  0  0  0
  162.7040  207.9710  149.2690 O   0  0  0  0  0  1  0  0  0  0  0  0
  161.0400  204.8920  150.3770 C   0  0  0  0  0  2  0  0  0  0  0  0
  160.9970  203.9320  149.2370 C   0  0  0  0  0  0  0  0  0  0  0  0
  161.2060  204.2840  147.9570 N   0  0  0  0  0  0  0  0  0  0  0  0
  160.8050  202.5730  149.3330 C   0  0  1  0  0  3  0  0  0  0  0  0
  160.8830  202.0330  148.0660 C   0  0  0  0  0  3  0  0  0  0  0  0
  161.1300  203.1320  147.2540 C   0  0  0  0  0  0  0  0  0  0  0  0
  162.1440  203.7940  145.2190 O   0  0  0  0  0  0  0  0  0  0  0  0
  161.2920  203.0690  145.7950 C   0  0  0  0  0  0  0  0  0  0  0  0
  160.4530  202.1480  144.9810 C   0  0  0  0  0  1  0  0  0  0  0  0
  161.6340  201.6410  151.5240 C   0  0  0  0  0  1  0  0  0  0  0  0
  160.5810  201.8530  150.5470 N   0  0  0  0  0  2  0  0  0  0  0  0
  2  1  2  0  0  0  0
  3 10  1  1  0  0  0
  3  1  1  0  0  0  0
  4  7  1  0  0  0  0
  4  8  2  0  0  0  0
  5  8  1  0  0  0  0
  6  2  1  0  0  0  0
  7  6  2  0  0  0  0
  8  3  1  0  0  0  0
 10 12  1  0  0  0  0
 10  9  1  1  0  0  0
 12 11  1  0  0  0  0
 14 21  1  6  0  0  0
 14 15  1  0  0  0  0
 14 17  1  0  0  0  0
 15 18  1  0  0  0  0
 16 13  1  1  0  0  0
 17 12  1  1  0  0  0
 17 20  1  0  0  0  0
 18 16  1  0  0  0  0
 19 18  2  0  0  0  0
 20 16  1  0  0  0  0
 23 22  1  6  0  0  0
 23 21  1  0  0  0  0
 24 23  1  0  0  0  0
 25 24  2  0  0  0  0
 26  7  1  0  0  0  0
 27 31  1  1  0  0  0
 27 26  1  0  0  0  0
 28 29  2  0  0  0  0
 29 27  1  0  0  0  0
 30 29  1  0  0  0  0
 32 34  1  0  0  0  0
 32 31  1  0  0  0  0
 33 32  2  0  0  0  0
 34 41  1  1  0  0  0
 35 34  1  0  0  0  0
 36 33  1  0  0  0  0
 36 35  2  0  0  0  0
 37 38  2  0  0  0  0
 38 36  1  0  0  0  0
 39 38  1  0  0  0  0
 41 40  1  0  0  0  0
M  END
>  <MODEL>
9

>  <REMARK>
 VINA RESULT:      -5.2      2.385     10.088
  Name = 
  13 active torsions:
  status: ('A' for Active; 'I' for Inactive)
    1  A    between atoms: C_5  and  C_19
    2  A    between atoms: C_5  and  C_33
    3  A    between atoms: C_6  and  C_8
    4  A    between atoms: C_6  and  C_38
    5  A    between atoms: C_9  and  C_36
    6  A    between atoms: C_14  and  N_35
    7  A    between atoms: C_16  and  C_26
    8  A    between atoms: C_19  and  C_21
    9  A    between atoms: C_19  and  C_26
   10  A    between atoms: C_20  and  C_38
   11  A    between atoms: C_23  and  N_32
   12  A    between atoms: N_35  and  C_36
   13  A    between atoms: C_37  and  C_39
                            x       y       z     vdW  Elec       q    Type
                         _______ _______ _______ _____ _____    ______ ____

>  <TORSDO>
F 13

$$$$
