=
 OpenBabel11052410283D

 35 40  0  0  1  0  0  0  0  0999 V2000
  161.6010  208.5150  149.6940 S   0  0  0  0  0  0  0  0  0  0  0  0
  162.1350  209.5000  152.1370 C   0  0  1  0  0  3  0  0  0  0  0  0
  161.2500  207.5090  151.1680 C   0  0  2  0  0  3  0  0  0  0  0  0
  161.9890  208.0560  152.3060 N   0  0  0  0  0  2  0  0  0  0  0  0
  161.5810  209.9450  150.7920 C   0  0  1  0  0  3  0  0  0  0  0  0
  159.6980  211.4820  154.3250 C   0  0  0  0  0  0  0  0  0  0  0  0
  160.4980  211.6290  155.4640 C   0  0  0  0  0  3  0  0  0  0  0  0
  159.4550  210.6190  152.0590 O   0  0  0  0  0  1  0  0  0  0  0  0
  161.5210  210.2520  153.2800 C   0  0  0  0  0  0  0  0  0  0  0  0
  161.7830  211.0920  155.4880 C   0  0  0  0  0  3  0  0  0  0  0  0
  162.2610  210.4230  154.4070 N   0  0  0  0  0  0  0  0  0  0  0  0
  160.2160  210.7830  153.2140 C   0  0  0  0  0  0  0  0  0  0  0  0
  158.0590  213.3060  153.8870 N   0  0  0  0  0  0  0  0  0  0  0  0
  156.7280  213.4010  154.0830 C   0  0  0  0  0  3  0  0  0  0  0  0
  158.3380  212.0660  154.3340 C   0  0  0  0  0  0  0  0  0  0  0  0
  156.2310  212.2710  154.6200 N   0  0  0  0  0  0  0  0  0  0  0  0
  157.2400  211.4320  154.7780 N   0  0  0  0  0  2  0  0  0  0  0  0
  161.6170  206.0400  150.9330 C   0  0  1  0  0  3  0  0  0  0  0  0
  161.2300  204.4450  152.7110 N   0  0  0  0  0  2  0  0  0  0  0  0
  161.9820  205.3590  152.2190 C   0  0  0  0  0  3  0  0  0  0  0  0
  160.4390  205.3000  150.3090 C   0  0  0  0  0  2  0  0  0  0  0  0
  161.2310  202.4920  147.8910 C   0  0  0  0  0  3  0  0  0  0  0  0
  161.6180  204.6070  146.7750 C   0  0  0  0  0  3  0  0  0  0  0  0
  161.2390  205.2890  147.9350 C   0  0  0  0  0  3  0  0  0  0  0  0
  160.8580  204.5740  149.0760 C   0  0  0  0  0  0  0  0  0  0  0  0
  160.8530  203.1740  149.0520 C   0  0  0  0  0  3  0  0  0  0  0  0
  161.6140  203.2090  146.7520 C   0  0  0  0  0  3  0  0  0  0  0  0
  162.3070  211.0900  150.2330 N   0  0  0  0  0  2  0  0  0  0  0  0
  161.5020  212.4270  148.3800 C   0  0  2  0  0  3  0  0  0  0  0  0
  163.0030  212.2790  148.2370 C   0  0  0  0  0  2  0  0  0  0  0  0
  162.1790  211.1310  148.7800 C   0  0  1  0  0  3  0  0  0  0  0  0
  160.8770  212.2510  147.0820 N   0  0  0  0  0  2  0  0  0  0  0  0
  160.3370  213.4790  145.0980 C   0  0  0  0  0  2  0  0  0  0  0  0
  161.2000  213.4280  146.2970 C   0  0  2  0  0  3  0  0  0  0  0  0
  161.6650  213.0230  145.0320 O   0  0  0  0  0  0  0  0  0  0  0  0
  1  5  1  0  0  0  0
  1  3  1  0  0  0  0
  2  4  1  0  0  0  0
  2  9  1  1  0  0  0
  3 18  1  6  0  0  0
  3  4  1  0  0  0  0
  5 28  1  6  0  0  0
  5  2  1  0  0  0  0
  6 15  1  0  0  0  0
  6  7  1  0  0  0  0
  7 10  2  0  0  0  0
  8 12  1  0  0  0  0
  9 11  2  0  0  0  0
 11 10  1  0  0  0  0
 12  9  1  0  0  0  0
 12  6  2  0  0  0  0
 13 14  1  0  0  0  0
 13 15  2  0  0  0  0
 14 16  2  0  0  0  0
 15 17  1  0  0  0  0
 16 17  1  0  0  0  0
 18 21  1  1  0  0  0
 18 20  1  0  0  0  0
 20 19  2  0  0  0  0
 22 26  1  0  0  0  0
 23 24  2  0  0  0  0
 24 25  1  0  0  0  0
 25 21  1  0  0  0  0
 26 25  2  0  0  0  0
 27 23  1  0  0  0  0
 27 22  2  0  0  0  0
 29 32  1  6  0  0  0
 29 31  1  0  0  0  0
 30 29  1  0  0  0  0
 30 31  1  0  0  0  0
 31 28  1  1  0  0  0
 33 34  1  0  0  0  0
 34 32  1  1  0  0  0
 35 33  1  0  0  0  0
 35 34  1  0  0  0  0
M  END
>  <MODEL>
1

>  <REMARK>
 VINA RESULT:      -7.2      0.000      0.000
  Name = 
  10 active torsions:
  status: ('A' for Active; 'I' for Inactive)
    1  A    between atoms: C_6  and  N_18
    2  A    between atoms: C_7  and  C_22
    3  A    between atoms: C_10  and  C_12
    4  A    between atoms: C_10  and  C_16
    5  A    between atoms: C_13  and  C_16
    6  A    between atoms: C_16  and  C_21
    7  A    between atoms: C_17  and  C_19
    8  A    between atoms: N_18  and  C_20
    9  A    between atoms: C_25  and  N_26
   10  A    between atoms: N_26  and  C_34
                            x       y       z     vdW  Elec       q    Type
                         _______ _______ _______ _____ _____    ______ ____

>  <TORSDO>
F 10

$$$$
=
 OpenBabel11052410283D

 35 40  0  0  1  0  0  0  0  0999 V2000
  162.3020  208.2880  152.6880 S   0  0  0  0  0  0  0  0  0  0  0  0
  160.9720  206.3450  151.3930 C   0  0  1  0  0  3  0  0  0  0  0  0
  161.2800  207.1140  153.6290 C   0  0  2  0  0  3  0  0  0  0  0  0
  160.3540  206.4470  152.7130 N   0  0  0  0  0  2  0  0  0  0  0  0
  162.3140  207.0600  151.3680 C   0  0  1  0  0  3  0  0  0  0  0  0
  161.1140  203.1840  149.2380 C   0  0  0  0  0  0  0  0  0  0  0  0
  161.3000  202.2370  150.2520 C   0  0  0  0  0  3  0  0  0  0  0  0
  160.8130  205.5190  148.6110 O   0  0  0  0  0  1  0  0  0  0  0  0
  161.0830  204.9170  150.9480 C   0  0  0  0  0  0  0  0  0  0  0  0
  161.3700  202.6440  151.5820 C   0  0  0  0  0  3  0  0  0  0  0  0
  161.2610  203.9610  151.8970 N   0  0  0  0  0  0  0  0  0  0  0  0
  161.0030  204.5460  149.5900 C   0  0  0  0  0  0  0  0  0  0  0  0
  160.6260  201.4840  147.4840 N   0  0  0  0  0  0  0  0  0  0  0  0
  160.7240  201.5080  146.1390 C   0  0  0  0  0  3  0  0  0  0  0  0
  161.0430  202.7160  147.8360 C   0  0  0  0  0  0  0  0  0  0  0  0
  161.1780  202.6980  145.7040 N   0  0  0  0  0  0  0  0  0  0  0  0
  161.3790  203.4580  146.7670 N   0  0  0  0  0  2  0  0  0  0  0  0
  160.5190  207.8240  154.7540 C   0  0  1  0  0  3  0  0  0  0  0  0
  159.9300  207.2730  157.0360 N   0  0  0  0  0  2  0  0  0  0  0  0
  160.7790  207.1720  156.0800 C   0  0  0  0  0  3  0  0  0  0  0  0
  160.9510  209.2840  154.8370 C   0  0  0  0  0  2  0  0  0  0  0  0
  157.8100  211.3260  155.4050 C   0  0  0  0  0  3  0  0  0  0  0  0
  158.5560  211.6700  153.1250 C   0  0  0  0  0  3  0  0  0  0  0  0
  159.6310  210.8040  153.3460 C   0  0  0  0  0  3  0  0  0  0  0  0
  159.7950  210.1960  154.5960 C   0  0  0  0  0  0  0  0  0  0  0  0
  158.8850  210.4590  155.6250 C   0  0  0  0  0  3  0  0  0  0  0  0
  157.6450  211.9320  154.1540 C   0  0  0  0  0  3  0  0  0  0  0  0
  162.6160  207.6490  150.0590 N   0  0  0  0  0  2  0  0  0  0  0  0
  162.4800  209.8470  149.0490 C   0  0  2  0  0  3  0  0  0  0  0  0
  161.5870  208.9110  148.2610 C   0  0  0  0  0  2  0  0  0  0  0  0
  161.7100  208.7540  149.7620 C   0  0  1  0  0  3  0  0  0  0  0  0
  161.7950  211.1110  149.2460 N   0  0  0  0  0  2  0  0  0  0  0  0
  161.5460  213.2990  148.3020 C   0  0  0  0  0  2  0  0  0  0  0  0
  162.2500  212.0040  148.1950 C   0  0  2  0  0  3  0  0  0  0  0  0
  161.1610  212.3260  147.3640 O   0  0  0  0  0  0  0  0  0  0  0  0
  1  3  1  0  0  0  0
  2  9  1  1  0  0  0
  2  4  1  0  0  0  0
  3 18  1  1  0  0  0
  4  3  1  0  0  0  0
  5 28  1  6  0  0  0
  5  2  1  0  0  0  0
  5  1  1  0  0  0  0
  6 12  2  0  0  0  0
  6  7  1  0  0  0  0
  7 10  2  0  0  0  0
  8 12  1  0  0  0  0
  9 11  2  0  0  0  0
 10 11  1  0  0  0  0
 12  9  1  0  0  0  0
 13 15  2  0  0  0  0
 14 13  1  0  0  0  0
 15  6  1  0  0  0  0
 16 14  2  0  0  0  0
 16 17  1  0  0  0  0
 17 15  1  0  0  0  0
 18 21  1  1  0  0  0
 18 20  1  0  0  0  0
 20 19  2  0  0  0  0
 22 26  1  0  0  0  0
 23 24  2  0  0  0  0
 23 27  1  0  0  0  0
 24 25  1  0  0  0  0
 25 21  1  0  0  0  0
 25 26  2  0  0  0  0
 27 22  2  0  0  0  0
 29 32  1  1  0  0  0
 29 31  1  0  0  0  0
 30 29  1  0  0  0  0
 30 31  1  0  0  0  0
 31 28  1  6  0  0  0
 34 33  1  0  0  0  0
 34 32  1  1  0  0  0
 35 34  1  0  0  0  0
 35 33  1  0  0  0  0
M  END
>  <MODEL>
2

>  <REMARK>
 VINA RESULT:      -6.9      2.870      7.921
  Name = 
  10 active torsions:
  status: ('A' for Active; 'I' for Inactive)
    1  A    between atoms: C_6  and  N_18
    2  A    between atoms: C_7  and  C_22
    3  A    between atoms: C_10  and  C_12
    4  A    between atoms: C_10  and  C_16
    5  A    between atoms: C_13  and  C_16
    6  A    between atoms: C_16  and  C_21
    7  A    between atoms: C_17  and  C_19
    8  A    between atoms: N_18  and  C_20
    9  A    between atoms: C_25  and  N_26
   10  A    between atoms: N_26  and  C_34
                            x       y       z     vdW  Elec       q    Type
                         _______ _______ _______ _____ _____    ______ ____

>  <TORSDO>
F 10

$$$$
=
 OpenBabel11052410283D

 35 40  0  0  1  0  0  0  0  0999 V2000
  162.1620  210.1900  152.7540 S   0  0  0  0  0  0  0  0  0  0  0  0
  160.9050  208.0120  151.8060 C   0  0  1  0  0  3  0  0  0  0  0  0
  161.1320  209.1890  153.8680 C   0  0  2  0  0  3  0  0  0  0  0  0
  160.2450  208.3430  153.0670 N   0  0  0  0  0  2  0  0  0  0  0  0
  162.2350  208.7410  151.6850 C   0  0  1  0  0  3  0  0  0  0  0  0
  161.1690  204.5120  150.2790 C   0  0  0  0  0  0  0  0  0  0  0  0
  161.3370  203.7730  151.4550 C   0  0  0  0  0  3  0  0  0  0  0  0
  160.8500  206.6840  149.2220 O   0  0  0  0  0  1  0  0  0  0  0  0
  161.0540  206.5300  151.6360 C   0  0  0  0  0  0  0  0  0  0  0  0
  161.3570  204.4200  152.6890 C   0  0  0  0  0  3  0  0  0  0  0  0
  161.2160  205.7700  152.7510 N   0  0  0  0  0  0  0  0  0  0  0  0
  161.0240  205.9130  150.3680 C   0  0  0  0  0  0  0  0  0  0  0  0
  161.6340  204.3100  147.8390 N   0  0  0  0  0  0  0  0  0  0  0  0
  161.4150  203.3210  146.9490 C   0  0  0  0  0  3  0  0  0  0  0  0
  161.1520  203.7910  148.9860 C   0  0  0  0  0  0  0  0  0  0  0  0
  160.8300  202.2590  147.5330 N   0  0  0  0  0  0  0  0  0  0  0  0
  160.6650  202.5510  148.8110 N   0  0  0  0  0  2  0  0  0  0  0  0
  160.3240  210.0770  154.8210 C   0  0  1  0  0  3  0  0  0  0  0  0
  161.8490  209.2990  156.5310 N   0  0  0  0  0  2  0  0  0  0  0  0
  160.9840  210.1710  156.1650 C   0  0  0  0  0  3  0  0  0  0  0  0
  160.1950  211.4820  154.2430 C   0  0  0  0  0  2  0  0  0  0  0  0
  156.4740  211.6330  154.9410 C   0  0  0  0  0  3  0  0  0  0  0  0
  157.0590  213.4590  153.4590 C   0  0  0  0  0  3  0  0  0  0  0  0
  158.3930  213.0420  153.4720 C   0  0  0  0  0  3  0  0  0  0  0  0
  158.7690  211.9180  154.2160 C   0  0  0  0  0  0  0  0  0  0  0  0
  157.8080  211.2150  154.9520 C   0  0  0  0  0  3  0  0  0  0  0  0
  156.0990  212.7560  154.1940 C   0  0  0  0  0  3  0  0  0  0  0  0
  162.5660  209.0840  150.2980 N   0  0  0  0  0  2  0  0  0  0  0  0
  162.5000  211.1110  148.9720 C   0  0  2  0  0  3  0  0  0  0  0  0
  161.6440  210.0680  148.2820 C   0  0  0  0  0  2  0  0  0  0  0  0
  161.6850  210.1320  149.7940 C   0  0  1  0  0  3  0  0  0  0  0  0
  161.8130  212.3890  148.9450 N   0  0  0  0  0  2  0  0  0  0  0  0
  161.6790  214.3740  147.6110 C   0  0  0  0  0  2  0  0  0  0  0  0
  162.5290  213.2310  148.0030 C   0  0  2  0  0  3  0  0  0  0  0  0
  161.8300  213.2490  146.7820 O   0  0  0  0  0  0  0  0  0  0  0  0
  1  3  1  0  0  0  0
  2  9  1  1  0  0  0
  2  4  1  0  0  0  0
  3 18  1  1  0  0  0
  4  3  1  0  0  0  0
  5 28  1  6  0  0  0
  5  2  1  0  0  0  0
  5  1  1  0  0  0  0
  6 12  2  0  0  0  0
  6  7  1  0  0  0  0
  7 10  2  0  0  0  0
  8 12  1  0  0  0  0
  9 11  2  0  0  0  0
 10 11  1  0  0  0  0
 12  9  1  0  0  0  0
 13 15  2  0  0  0  0
 14 16  2  0  0  0  0
 14 13  1  0  0  0  0
 15  6  1  0  0  0  0
 16 17  1  0  0  0  0
 17 15  1  0  0  0  0
 18 21  1  6  0  0  0
 18 20  1  0  0  0  0
 20 19  2  0  0  0  0
 22 26  1  0  0  0  0
 23 24  2  0  0  0  0
 23 27  1  0  0  0  0
 24 25  1  0  0  0  0
 25 21  1  0  0  0  0
 25 26  2  0  0  0  0
 27 22  2  0  0  0  0
 29 32  1  6  0  0  0
 29 31  1  0  0  0  0
 30 29  1  0  0  0  0
 30 31  1  0  0  0  0
 31 28  1  1  0  0  0
 33 34  1  0  0  0  0
 34 32  1  1  0  0  0
 35 33  1  0  0  0  0
 35 34  1  0  0  0  0
M  END
>  <MODEL>
3

>  <REMARK>
 VINA RESULT:      -6.8      2.281      7.578
  Name = 
  10 active torsions:
  status: ('A' for Active; 'I' for Inactive)
    1  A    between atoms: C_6  and  N_18
    2  A    between atoms: C_7  and  C_22
    3  A    between atoms: C_10  and  C_12
    4  A    between atoms: C_10  and  C_16
    5  A    between atoms: C_13  and  C_16
    6  A    between atoms: C_16  and  C_21
    7  A    between atoms: C_17  and  C_19
    8  A    between atoms: N_18  and  C_20
    9  A    between atoms: C_25  and  N_26
   10  A    between atoms: N_26  and  C_34
                            x       y       z     vdW  Elec       q    Type
                         _______ _______ _______ _____ _____    ______ ____

>  <TORSDO>
F 10

$$$$
=
 OpenBabel11052410283D

 35 40  0  0  1  0  0  0  0  0999 V2000
  160.5230  207.2510  154.4860 S   0  0  0  0  0  0  0  0  0  0  0  0
  162.0480  207.9720  152.3940 C   0  0  1  0  0  3  0  0  0  0  0  0
  160.6740  209.0080  154.0440 C   0  0  2  0  0  3  0  0  0  0  0  0
  161.8430  209.1850  153.1820 N   0  0  0  0  0  2  0  0  0  0  0  0
  161.0630  206.8880  152.8050 C   0  0  1  0  0  3  0  0  0  0  0  0
  161.9860  209.7680  149.0140 C   0  0  0  0  0  0  0  0  0  0  0  0
  161.8850  208.6520  148.1760 C   0  0  0  0  0  3  0  0  0  0  0  0
  162.1380  210.6540  151.2790 O   0  0  0  0  0  1  0  0  0  0  0  0
  161.9950  208.2570  150.9230 C   0  0  0  0  0  0  0  0  0  0  0  0
  161.8380  207.3710  148.7220 C   0  0  0  0  0  3  0  0  0  0  0  0
  161.8930  207.2040  150.0690 N   0  0  0  0  0  0  0  0  0  0  0  0
  162.0420  209.5690  150.4100 C   0  0  0  0  0  0  0  0  0  0  0  0
  163.1560  211.8560  148.3200 N   0  0  0  0  0  0  0  0  0  0  0  0
  162.7310  212.9730  147.6950 C   0  0  0  0  0  3  0  0  0  0  0  0
  162.0330  211.1140  148.4000 C   0  0  0  0  0  0  0  0  0  0  0  0
  161.4170  212.9050  147.4130 N   0  0  0  0  0  0  0  0  0  0  0  0
  160.9770  211.7390  147.8540 N   0  0  0  0  0  2  0  0  0  0  0  0
  160.7820  209.8860  155.2970 C   0  0  1  0  0  3  0  0  0  0  0  0
  162.8830  210.5620  156.2880 N   0  0  0  0  0  2  0  0  0  0  0  0
  162.0550  209.6140  156.0420 C   0  0  0  0  0  3  0  0  0  0  0  0
  160.7510  211.3600  154.9060 C   0  0  0  0  0  2  0  0  0  0  0  0
  157.7340  213.0250  153.3310 C   0  0  0  0  0  3  0  0  0  0  0  0
  157.0230  211.8760  155.3420 C   0  0  0  0  0  3  0  0  0  0  0  0
  158.3370  211.4550  155.5670 C   0  0  0  0  0  3  0  0  0  0  0  0
  159.3520  211.8210  154.6760 C   0  0  0  0  0  0  0  0  0  0  0  0
  159.0490  212.6050  153.5560 C   0  0  0  0  0  3  0  0  0  0  0  0
  156.7210  212.6600  154.2240 C   0  0  0  0  0  3  0  0  0  0  0  0
  161.6220  205.5390  152.6770 N   0  0  0  0  0  2  0  0  0  0  0  0
  161.6130  203.7250  151.0700 C   0  0  2  0  0  3  0  0  0  0  0  0
  160.9000  203.2510  152.3200 C   0  0  0  0  0  2  0  0  0  0  0  0
  160.7560  204.6880  151.8680 C   0  0  1  0  0  3  0  0  0  0  0  0
  160.8700  203.2920  149.9010 N   0  0  0  0  0  2  0  0  0  0  0  0
  160.8380  201.3330  148.5220 C   0  0  0  0  0  2  0  0  0  0  0  0
  160.8820  201.8400  149.9090 C   0  0  2  0  0  3  0  0  0  0  0  0
  159.6890  201.3670  149.3320 O   0  0  0  0  0  0  0  0  0  0  0  0
  2  9  1  6  0  0  0
  2  5  1  0  0  0  0
  2  4  1  0  0  0  0
  3  1  1  0  0  0  0
  3 18  1  1  0  0  0
  4  3  1  0  0  0  0
  5 28  1  1  0  0  0
  5  1  1  0  0  0  0
  6 12  1  0  0  0  0
  7 10  1  0  0  0  0
  7  6  2  0  0  0  0
 10 11  2  0  0  0  0
 11  9  1  0  0  0  0
 12  9  2  0  0  0  0
 12  8  1  0  0  0  0
 13 15  2  0  0  0  0
 14 13  1  0  0  0  0
 15  6  1  0  0  0  0
 16 14  2  0  0  0  0
 16 17  1  0  0  0  0
 17 15  1  0  0  0  0
 18 21  1  6  0  0  0
 18 20  1  0  0  0  0
 20 19  2  0  0  0  0
 22 26  2  0  0  0  0
 22 27  1  0  0  0  0
 23 24  1  0  0  0  0
 25 21  1  0  0  0  0
 25 24  2  0  0  0  0
 26 25  1  0  0  0  0
 27 23  2  0  0  0  0
 29 32  1  6  0  0  0
 29 31  1  0  0  0  0
 29 30  1  0  0  0  0
 31 30  1  0  0  0  0
 31 28  1  1  0  0  0
 33 35  1  0  0  0  0
 33 34  1  0  0  0  0
 34 32  1  6  0  0  0
 35 34  1  0  0  0  0
M  END
>  <MODEL>
4

>  <REMARK>
 VINA RESULT:      -6.6      2.784      8.248
  Name = 
  10 active torsions:
  status: ('A' for Active; 'I' for Inactive)
    1  A    between atoms: C_6  and  N_18
    2  A    between atoms: C_7  and  C_22
    3  A    between atoms: C_10  and  C_12
    4  A    between atoms: C_10  and  C_16
    5  A    between atoms: C_13  and  C_16
    6  A    between atoms: C_16  and  C_21
    7  A    between atoms: C_17  and  C_19
    8  A    between atoms: N_18  and  C_20
    9  A    between atoms: C_25  and  N_26
   10  A    between atoms: N_26  and  C_34
                            x       y       z     vdW  Elec       q    Type
                         _______ _______ _______ _____ _____    ______ ____

>  <TORSDO>
F 10

$$$$
=
 OpenBabel11052410283D

 35 40  0  0  1  0  0  0  0  0999 V2000
  161.4580  207.1680  149.9480 S   0  0  0  0  0  0  0  0  0  0  0  0
  161.8620  207.5570  152.5770 C   0  0  1  0  0  3  0  0  0  0  0  0
  161.1210  205.8200  151.1210 C   0  0  2  0  0  3  0  0  0  0  0  0
  161.7930  206.1100  152.3880 N   0  0  0  0  0  2  0  0  0  0  0  0
  161.3230  208.2870  151.3550 C   0  0  1  0  0  3  0  0  0  0  0  0
  160.5730  209.6310  155.5250 C   0  0  0  0  0  0  0  0  0  0  0  0
  159.8500  208.6350  156.1920 C   0  0  0  0  0  3  0  0  0  0  0  0
  161.9790  210.2600  153.6380 O   0  0  0  0  0  1  0  0  0  0  0  0
  161.1710  207.9800  153.8390 C   0  0  0  0  0  0  0  0  0  0  0  0
  159.8050  207.3420  155.6760 C   0  0  0  0  0  3  0  0  0  0  0  0
  160.4600  207.0460  154.5240 N   0  0  0  0  0  0  0  0  0  0  0  0
  161.2450  209.3000  154.3300 C   0  0  0  0  0  0  0  0  0  0  0  0
  161.4750  211.3820  157.0510 N   0  0  0  0  0  0  0  0  0  0  0  0
  161.1360  212.6700  157.2610 C   0  0  0  0  0  3  0  0  0  0  0  0
  160.6000  210.9940  156.1020 C   0  0  0  0  0  0  0  0  0  0  0  0
  160.1070  213.0390  156.4740 N   0  0  0  0  0  0  0  0  0  0  0  0
  159.7700  211.9880  155.7460 N   0  0  0  0  0  2  0  0  0  0  0  0
  161.5780  204.4700  150.5560 C   0  0  1  0  0  3  0  0  0  0  0  0
  161.5580  202.3160  151.6570 N   0  0  0  0  0  2  0  0  0  0  0  0
  161.9740  203.5280  151.6550 C   0  0  0  0  0  3  0  0  0  0  0  0
  160.4510  203.8320  149.7510 C   0  0  0  0  0  2  0  0  0  0  0  0
  161.1820  202.1790  146.4200 C   0  0  0  0  0  3  0  0  0  0  0  0
  161.6240  204.5530  146.2200 C   0  0  0  0  0  3  0  0  0  0  0  0
  161.2580  204.7350  147.5570 C   0  0  0  0  0  3  0  0  0  0  0  0
  160.8570  203.6380  148.3290 C   0  0  0  0  0  0  0  0  0  0  0  0
  160.8170  202.3600  147.7580 C   0  0  0  0  0  3  0  0  0  0  0  0
  161.5850  203.2760  145.6510 C   0  0  0  0  0  3  0  0  0  0  0  0
  162.0000  209.5670  151.1190 N   0  0  0  0  0  2  0  0  0  0  0  0
  162.3300  211.4040  149.5750 C   0  0  2  0  0  3  0  0  0  0  0  0
  162.3290  210.1150  148.7790 C   0  0  0  0  0  2  0  0  0  0  0  0
  161.4160  210.2640  149.9780 C   0  0  1  0  0  3  0  0  0  0  0  0
  161.5510  212.4050  148.8690 N   0  0  0  0  0  2  0  0  0  0  0  0
  161.7260  213.8110  146.9370 C   0  0  0  0  0  2  0  0  0  0  0  0
  162.1240  212.5220  147.5390 C   0  0  2  0  0  3  0  0  0  0  0  0
  161.0830  212.6080  146.5970 O   0  0  0  0  0  0  0  0  0  0  0  0
  1  3  1  0  0  0  0
  1  5  1  0  0  0  0
  2  9  1  1  0  0  0
  3 18  1  6  0  0  0
  3  4  1  0  0  0  0
  4  2  1  0  0  0  0
  5 28  1  6  0  0  0
  5  2  1  0  0  0  0
  6 15  1  0  0  0  0
  6  7  1  0  0  0  0
  8 12  1  0  0  0  0
  9 12  1  0  0  0  0
  9 11  2  0  0  0  0
 10  7  2  0  0  0  0
 11 10  1  0  0  0  0
 12  6  2  0  0  0  0
 13 14  1  0  0  0  0
 15 13  2  0  0  0  0
 16 14  2  0  0  0  0
 17 15  1  0  0  0  0
 17 16  1  0  0  0  0
 18 21  1  1  0  0  0
 18 20  1  0  0  0  0
 20 19  2  0  0  0  0
 22 26  1  0  0  0  0
 23 24  2  0  0  0  0
 24 25  1  0  0  0  0
 25 21  1  0  0  0  0
 26 25  2  0  0  0  0
 27 23  1  0  0  0  0
 27 22  2  0  0  0  0
 29 32  1  6  0  0  0
 29 31  1  0  0  0  0
 30 29  1  0  0  0  0
 30 31  1  0  0  0  0
 31 28  1  1  0  0  0
 33 34  1  0  0  0  0
 34 32  1  1  0  0  0
 35 33  1  0  0  0  0
 35 34  1  0  0  0  0
M  END
>  <MODEL>
5

>  <REMARK>
 VINA RESULT:      -6.3      1.964      2.546
  Name = 
  10 active torsions:
  status: ('A' for Active; 'I' for Inactive)
    1  A    between atoms: C_6  and  N_18
    2  A    between atoms: C_7  and  C_22
    3  A    between atoms: C_10  and  C_12
    4  A    between atoms: C_10  and  C_16
    5  A    between atoms: C_13  and  C_16
    6  A    between atoms: C_16  and  C_21
    7  A    between atoms: C_17  and  C_19
    8  A    between atoms: N_18  and  C_20
    9  A    between atoms: C_25  and  N_26
   10  A    between atoms: N_26  and  C_34
                            x       y       z     vdW  Elec       q    Type
                         _______ _______ _______ _____ _____    ______ ____

>  <TORSDO>
F 10

$$$$
=
 OpenBabel11052410283D

 35 40  0  0  1  0  0  0  0  0999 V2000
  161.5720  205.5940  153.5300 S   0  0  0  0  0  0  0  0  0  0  0  0
  160.4530  207.7830  152.4460 C   0  0  1  0  0  3  0  0  0  0  0  0
  161.7290  205.8950  151.7450 C   0  0  2  0  0  3  0  0  0  0  0  0
  160.7210  206.8730  151.3340 N   0  0  0  0  0  2  0  0  0  0  0  0
  161.2130  207.3530  153.6910 C   0  0  1  0  0  3  0  0  0  0  0  0
  160.2300  211.5870  152.0830 C   0  0  0  0  0  0  0  0  0  0  0  0
  161.3760  211.8000  151.3080 C   0  0  0  0  0  3  0  0  0  0  0  0
  158.7710  210.0160  153.2390 O   0  0  0  0  0  1  0  0  0  0  0  0
  160.7390  209.2070  152.0710 C   0  0  0  0  0  0  0  0  0  0  0  0
  162.1720  210.7210  150.9290 C   0  0  0  0  0  3  0  0  0  0  0  0
  161.8390  209.4620  151.3150 N   0  0  0  0  0  0  0  0  0  0  0  0
  159.9040  210.2700  152.4710 C   0  0  0  0  0  0  0  0  0  0  0  0
  158.6370  213.4400  151.5970 N   0  0  0  0  0  0  0  0  0  0  0  0
  158.0830  214.3930  152.3740 C   0  0  0  0  0  3  0  0  0  0  0  0
  159.4070  212.7560  152.4660 C   0  0  0  0  0  0  0  0  0  0  0  0
  158.5010  214.2870  153.6500 N   0  0  0  0  0  0  0  0  0  0  0  0
  159.3310  213.2600  153.7100 N   0  0  0  0  0  2  0  0  0  0  0  0
  161.5810  204.5920  150.9500 C   0  0  1  0  0  3  0  0  0  0  0  0
  160.9720  202.2860  151.3560 N   0  0  0  0  0  2  0  0  0  0  0  0
  161.1470  203.4620  151.8350 C   0  0  0  0  0  3  0  0  0  0  0  0
  160.5450  204.7700  149.8450 C   0  0  0  0  0  2  0  0  0  0  0  0
  162.0880  203.6930  146.5560 C   0  0  0  0  0  3  0  0  0  0  0  0
  162.1030  206.1140  146.6630 C   0  0  0  0  0  3  0  0  0  0  0  0
  161.5040  206.0620  147.9250 C   0  0  0  0  0  3  0  0  0  0  0  0
  161.1990  204.8260  148.5050 C   0  0  0  0  0  0  0  0  0  0  0  0
  161.4900  203.6420  147.8190 C   0  0  0  0  0  3  0  0  0  0  0  0
  162.3950  204.9300  145.9780 C   0  0  0  0  0  3  0  0  0  0  0  0
  160.4910  207.6660  154.9290 N   0  0  0  0  0  2  0  0  0  0  0  0
  160.2620  209.3230  156.6820 C   0  0  2  0  0  3  0  0  0  0  0  0
  161.1800  208.2280  157.1850 C   0  0  0  0  0  2  0  0  0  0  0  0
  161.2240  208.6410  155.7300 C   0  0  1  0  0  3  0  0  0  0  0  0
  160.8060  210.6160  157.0550 N   0  0  0  0  0  2  0  0  0  0  0  0
  159.4320  212.5670  157.2610 C   0  0  0  0  0  2  0  0  0  0  0  0
  160.0560  211.6160  156.3170 C   0  0  2  0  0  3  0  0  0  0  0  0
  158.6970  211.5250  156.6710 O   0  0  0  0  0  0  0  0  0  0  0  0
  1  5  1  0  0  0  0
  2  9  1  6  0  0  0
  2  5  1  0  0  0  0
  3 18  1  6  0  0  0
  3  1  1  0  0  0  0
  4  3  1  0  0  0  0
  4  2  1  0  0  0  0
  5 28  1  1  0  0  0
  6 15  1  0  0  0  0
  6 12  1  0  0  0  0
  7  6  2  0  0  0  0
  9 12  2  0  0  0  0
 10  7  1  0  0  0  0
 10 11  2  0  0  0  0
 11  9  1  0  0  0  0
 12  8  1  0  0  0  0
 13 14  1  0  0  0  0
 13 15  2  0  0  0  0
 14 16  2  0  0  0  0
 15 17  1  0  0  0  0
 16 17  1  0  0  0  0
 18 21  1  6  0  0  0
 18 20  1  0  0  0  0
 19 20  2  0  0  0  0
 22 26  1  0  0  0  0
 23 24  2  0  0  0  0
 24 25  1  0  0  0  0
 25 21  1  0  0  0  0
 26 25  2  0  0  0  0
 27 22  2  0  0  0  0
 27 23  1  0  0  0  0
 29 32  1  1  0  0  0
 29 30  1  0  0  0  0
 31 28  1  6  0  0  0
 31 29  1  0  0  0  0
 31 30  1  0  0  0  0
 34 35  1  0  0  0  0
 34 32  1  1  0  0  0
 34 33  1  0  0  0  0
 35 33  1  0  0  0  0
M  END
>  <MODEL>
6

>  <REMARK>
 VINA RESULT:      -6.1      2.983      5.214
  Name = 
  10 active torsions:
  status: ('A' for Active; 'I' for Inactive)
    1  A    between atoms: C_6  and  N_18
    2  A    between atoms: C_7  and  C_22
    3  A    between atoms: C_10  and  C_12
    4  A    between atoms: C_10  and  C_16
    5  A    between atoms: C_13  and  C_16
    6  A    between atoms: C_16  and  C_21
    7  A    between atoms: C_17  and  C_19
    8  A    between atoms: N_18  and  C_20
    9  A    between atoms: C_25  and  N_26
   10  A    between atoms: N_26  and  C_34
                            x       y       z     vdW  Elec       q    Type
                         _______ _______ _______ _____ _____    ______ ____

>  <TORSDO>
F 10

$$$$
=
 OpenBabel11052410283D

 35 40  0  0  1  0  0  0  0  0999 V2000
  161.2150  207.8520  152.7170 S   0  0  0  0  0  0  0  0  0  0  0  0
  161.8730  210.1910  151.5690 C   0  0  1  0  0  3  0  0  0  0  0  0
  160.9170  209.4070  153.6090 C   0  0  2  0  0  3  0  0  0  0  0  0
  161.7140  210.4700  152.9950 N   0  0  0  0  0  2  0  0  0  0  0  0
  161.2650  208.8430  151.2120 C   0  0  1  0  0  3  0  0  0  0  0  0
  161.1680  212.5710  148.6550 C   0  0  0  0  0  0  0  0  0  0  0  0
  160.2260  213.4010  149.2750 C   0  0  0  0  0  3  0  0  0  0  0  0
  162.6690  210.6580  148.8140 O   0  0  0  0  0  1  0  0  0  0  0  0
  161.3210  211.3030  150.7280 C   0  0  0  0  0  0  0  0  0  0  0  0
  159.8560  213.1700  150.5980 C   0  0  0  0  0  3  0  0  0  0  0  0
  160.4060  212.1370  151.2870 N   0  0  0  0  0  0  0  0  0  0  0  0
  161.7250  211.5040  149.3920 C   0  0  0  0  0  0  0  0  0  0  0  0
  162.7150  213.3930  146.8830 N   0  0  0  0  0  0  0  0  0  0  0  0
  162.6120  213.4500  145.5400 C   0  0  0  0  0  3  0  0  0  0  0  0
  161.5380  212.8460  147.2490 C   0  0  0  0  0  0  0  0  0  0  0  0
  161.4310  212.9610  145.1180 N   0  0  0  0  0  0  0  0  0  0  0  0
  160.7560  212.5810  146.1890 N   0  0  0  0  0  2  0  0  0  0  0  0
  161.2530  209.2640  155.0980 C   0  0  1  0  0  3  0  0  0  0  0  0
  162.9500  210.3180  156.4630 N   0  0  0  0  0  2  0  0  0  0  0  0
  162.0110  210.4560  155.6010 C   0  0  0  0  0  3  0  0  0  0  0  0
  159.9710  209.1230  155.9110 C   0  0  0  0  0  2  0  0  0  0  0  0
  157.7330  212.0710  155.0970 C   0  0  0  0  0  3  0  0  0  0  0  0
  158.7560  212.4500  157.2610 C   0  0  0  0  0  3  0  0  0  0  0  0
  159.4320  211.2300  157.1550 C   0  0  0  0  0  3  0  0  0  0  0  0
  159.2620  210.4310  156.0180 C   0  0  0  0  0  0  0  0  0  0  0  0
  158.4100  210.8520  154.9900 C   0  0  0  0  0  3  0  0  0  0  0  0
  157.9060  212.8700  156.2330 C   0  0  0  0  0  3  0  0  0  0  0  0
  161.9810  208.1720  150.1230 N   0  0  0  0  0  2  0  0  0  0  0  0
  161.8410  206.7540  148.1630 C   0  0  2  0  0  3  0  0  0  0  0  0
  161.2720  205.9880  149.3390 C   0  0  0  0  0  2  0  0  0  0  0  0
  161.0520  207.4820  149.2330 C   0  0  1  0  0  3  0  0  0  0  0  0
  160.9900  206.5560  147.0040 N   0  0  0  0  0  2  0  0  0  0  0  0
  160.9220  205.4520  144.8790 C   0  0  0  0  0  2  0  0  0  0  0  0
  161.7750  205.8210  146.0280 C   0  0  2  0  0  3  0  0  0  0  0  0
  161.2400  204.5270  145.8890 O   0  0  0  0  0  0  0  0  0  0  0  0
  1  3  1  0  0  0  0
  2  9  1  6  0  0  0
  2  4  1  0  0  0  0
  3 18  1  1  0  0  0
  4  3  1  0  0  0  0
  5 28  1  6  0  0  0
  5  2  1  0  0  0  0
  5  1  1  0  0  0  0
  6  7  2  0  0  0  0
  6 12  1  0  0  0  0
  7 10  1  0  0  0  0
  8 12  1  0  0  0  0
  9 11  1  0  0  0  0
 10 11  2  0  0  0  0
 12  9  2  0  0  0  0
 13 15  2  0  0  0  0
 14 13  1  0  0  0  0
 15  6  1  0  0  0  0
 16 14  2  0  0  0  0
 16 17  1  0  0  0  0
 17 15  1  0  0  0  0
 18 20  1  1  0  0  0
 18 21  1  0  0  0  0
 20 19  2  0  0  0  0
 21 25  1  0  0  0  0
 22 27  1  0  0  0  0
 24 23  1  0  0  0  0
 25 24  2  0  0  0  0
 26 22  2  0  0  0  0
 26 25  1  0  0  0  0
 27 23  2  0  0  0  0
 29 32  1  6  0  0  0
 29 31  1  0  0  0  0
 29 30  1  0  0  0  0
 31 30  1  0  0  0  0
 31 28  1  1  0  0  0
 33 35  1  0  0  0  0
 33 34  1  0  0  0  0
 34 32  1  1  0  0  0
 35 34  1  0  0  0  0
M  END
>  <MODEL>
7

>  <REMARK>
 VINA RESULT:      -6.0      2.578      7.514
  Name = 
  10 active torsions:
  status: ('A' for Active; 'I' for Inactive)
    1  A    between atoms: C_6  and  N_18
    2  A    between atoms: C_7  and  C_22
    3  A    between atoms: C_10  and  C_12
    4  A    between atoms: C_10  and  C_16
    5  A    between atoms: C_13  and  C_16
    6  A    between atoms: C_16  and  C_21
    7  A    between atoms: C_17  and  C_19
    8  A    between atoms: N_18  and  C_20
    9  A    between atoms: C_25  and  N_26
   10  A    between atoms: N_26  and  C_34
                            x       y       z     vdW  Elec       q    Type
                         _______ _______ _______ _____ _____    ______ ____

>  <TORSDO>
F 10

$$$$
=
 OpenBabel11052410283D

 35 40  0  0  1  0  0  0  0  0999 V2000
  161.2480  208.2890  147.8150 S   0  0  0  0  0  0  0  0  0  0  0  0
  162.0940  207.7250  150.3020 C   0  0  1  0  0  3  0  0  0  0  0  0
  160.9060  206.6550  148.5340 C   0  0  2  0  0  3  0  0  0  0  0  0
  161.7950  206.4400  149.6750 N   0  0  0  0  0  2  0  0  0  0  0  0
  161.4850  208.8690  149.5050 C   0  0  1  0  0  3  0  0  0  0  0  0
  160.9940  208.9000  153.7750 C   0  0  0  0  0  0  0  0  0  0  0  0
  160.8920  207.6550  154.4050 C   0  0  0  0  0  3  0  0  0  0  0  0
  161.5060  210.1700  151.7600 O   0  0  0  0  0  1  0  0  0  0  0  0
  161.6680  207.7470  151.7400 C   0  0  0  0  0  0  0  0  0  0  0  0
  161.1810  206.4900  153.6970 C   0  0  0  0  0  3  0  0  0  0  0  0
  161.5590  206.5620  152.3950 N   0  0  0  0  0  0  0  0  0  0  0  0
  161.3880  208.9500  152.4220 C   0  0  0  0  0  0  0  0  0  0  0  0
  161.6030  210.8170  155.2470 N   0  0  0  0  0  0  0  0  0  0  0  0
  160.8780  211.8180  155.7850 C   0  0  0  0  0  3  0  0  0  0  0  0
  160.6800  210.1170  154.5580 C   0  0  0  0  0  0  0  0  0  0  0  0
  159.5810  211.7260  155.4350 N   0  0  0  0  0  0  0  0  0  0  0  0
  159.4550  210.6590  154.6650 N   0  0  0  0  0  2  0  0  0  0  0  0
  161.0790  205.5450  147.4900 C   0  0  1  0  0  3  0  0  0  0  0  0
  160.9450  205.7240  145.0810 N   0  0  0  0  0  2  0  0  0  0  0  0
  161.5080  206.1070  146.1670 C   0  0  0  0  0  3  0  0  0  0  0  0
  162.1310  204.5460  147.9600 C   0  0  0  0  0  2  0  0  0  0  0  0
  160.6070  201.0790  148.0910 C   0  0  0  0  0  3  0  0  0  0  0  0
  160.6210  202.0050  150.3300 C   0  0  0  0  0  3  0  0  0  0  0  0
  161.2070  203.1770  149.8430 C   0  0  0  0  0  3  0  0  0  0  0  0
  161.4910  203.3030  148.4780 C   0  0  0  0  0  0  0  0  0  0  0  0
  161.1930  202.2520  147.6030 C   0  0  0  0  0  3  0  0  0  0  0  0
  160.3210  200.9560  149.4550 C   0  0  0  0  0  3  0  0  0  0  0  0
  162.2910  210.0930  149.5690 N   0  0  0  0  0  2  0  0  0  0  0  0
  161.6030  212.2760  148.7740 C   0  0  2  0  0  3  0  0  0  0  0  0
  163.0590  212.0790  148.4080 C   0  0  0  0  0  2  0  0  0  0  0  0
  162.1060  210.9040  148.3700 C   0  0  1  0  0  3  0  0  0  0  0  0
  160.9010  212.8700  147.6520 N   0  0  0  0  0  2  0  0  0  0  0  0
  158.7360  213.6190  146.9520 C   0  0  0  0  0  2  0  0  0  0  0  0
  159.5270  213.0750  148.0760 C   0  0  2  0  0  3  0  0  0  0  0  0
  159.2180  214.4450  147.9820 O   0  0  0  0  0  0  0  0  0  0  0  0
  1  3  1  0  0  0  0
  1  5  1  0  0  0  0
  2  9  1  1  0  0  0
  3 18  1  6  0  0  0
  3  4  1  0  0  0  0
  4  2  1  0  0  0  0
  5 28  1  6  0  0  0
  5  2  1  0  0  0  0
  6  7  1  0  0  0  0
  6 15  1  0  0  0  0
  8 12  1  0  0  0  0
  9 11  2  0  0  0  0
  9 12  1  0  0  0  0
 10  7  2  0  0  0  0
 11 10  1  0  0  0  0
 12  6  2  0  0  0  0
 13 14  1  0  0  0  0
 15 17  1  0  0  0  0
 15 13  2  0  0  0  0
 16 14  2  0  0  0  0
 17 16  1  0  0  0  0
 18 20  1  6  0  0  0
 18 21  1  0  0  0  0
 19 20  2  0  0  0  0
 21 25  1  0  0  0  0
 22 27  1  0  0  0  0
 24 23  1  0  0  0  0
 25 24  2  0  0  0  0
 26 22  2  0  0  0  0
 26 25  1  0  0  0  0
 27 23  2  0  0  0  0
 29 32  1  6  0  0  0
 30 29  1  0  0  0  0
 31 30  1  0  0  0  0
 31 29  1  0  0  0  0
 31 28  1  1  0  0  0
 33 35  1  0  0  0  0
 33 34  1  0  0  0  0
 34 32  1  6  0  0  0
 35 34  1  0  0  0  0
M  END
>  <MODEL>
8

>  <REMARK>
 VINA RESULT:      -6.0      2.083      3.337
  Name = 
  10 active torsions:
  status: ('A' for Active; 'I' for Inactive)
    1  A    between atoms: C_6  and  N_18
    2  A    between atoms: C_7  and  C_22
    3  A    between atoms: C_10  and  C_12
    4  A    between atoms: C_10  and  C_16
    5  A    between atoms: C_13  and  C_16
    6  A    between atoms: C_16  and  C_21
    7  A    between atoms: C_17  and  C_19
    8  A    between atoms: N_18  and  C_20
    9  A    between atoms: C_25  and  N_26
   10  A    between atoms: N_26  and  C_34
                            x       y       z     vdW  Elec       q    Type
                         _______ _______ _______ _____ _____    ______ ____

>  <TORSDO>
F 10

$$$$
=
 OpenBabel11052410283D

 35 40  0  0  1  0  0  0  0  0999 V2000
  162.2280  209.6590  151.3190 S   0  0  0  0  0  0  0  0  0  0  0  0
  161.1020  207.9720  149.5560 C   0  0  1  0  0  3  0  0  0  0  0  0
  161.4680  208.1170  151.9080 C   0  0  2  0  0  3  0  0  0  0  0  0
  160.5810  207.5940  150.8680 N   0  0  0  0  0  2  0  0  0  0  0  0
  162.3180  208.8750  149.6980 C   0  0  1  0  0  3  0  0  0  0  0  0
  161.3980  204.3670  148.3030 C   0  0  0  0  0  0  0  0  0  0  0  0
  161.9670  204.6180  147.0490 C   0  0  0  0  0  3  0  0  0  0  0  0
  160.5420  205.2500  150.4060 O   0  0  0  0  0  1  0  0  0  0  0  0
  161.3880  206.7670  148.7100 C   0  0  0  0  0  0  0  0  0  0  0  0
  162.2360  205.9270  146.6540 C   0  0  0  0  0  3  0  0  0  0  0  0
  161.9430  206.9610  147.4850 N   0  0  0  0  0  0  0  0  0  0  0  0
  161.1040  205.4580  149.1480 C   0  0  0  0  0  0  0  0  0  0  0  0
  160.7980  202.5890  149.9420 N   0  0  0  0  0  0  0  0  0  0  0  0
  160.6450  201.2550  149.8220 C   0  0  0  0  0  3  0  0  0  0  0  0
  161.1270  202.9650  148.6900 C   0  0  0  0  0  0  0  0  0  0  0  0
  160.8690  200.8480  148.5590 N   0  0  0  0  0  0  0  0  0  0  0  0
  161.1720  201.9190  147.8460 N   0  0  0  0  0  2  0  0  0  0  0  0
  160.7000  208.3440  153.2160 C   0  0  1  0  0  3  0  0  0  0  0  0
  161.2760  206.0610  153.7760 N   0  0  0  0  0  2  0  0  0  0  0  0
  160.9440  207.2290  154.1890 C   0  0  0  0  0  3  0  0  0  0  0  0
  161.1400  209.6550  153.8580 C   0  0  0  0  0  2  0  0  0  0  0  0
  157.9300  211.6690  153.8810 C   0  0  0  0  0  3  0  0  0  0  0  0
  158.6520  211.3370  156.1700 C   0  0  0  0  0  3  0  0  0  0  0  0
  159.7640  210.6210  155.7150 C   0  0  0  0  0  3  0  0  0  0  0  0
  159.9620  210.4320  154.3430 C   0  0  0  0  0  0  0  0  0  0  0  0
  159.0430  210.9540  153.4260 C   0  0  0  0  0  3  0  0  0  0  0  0
  157.7350  211.8600  155.2530 C   0  0  0  0  0  3  0  0  0  0  0  0
  162.4260  209.8520  148.6100 N   0  0  0  0  0  2  0  0  0  0  0  0
  161.6110  212.1260  148.4160 C   0  0  2  0  0  3  0  0  0  0  0  0
  161.1910  211.3670  147.1730 C   0  0  0  0  0  2  0  0  0  0  0  0
  161.2180  210.6650  148.5140 C   0  0  1  0  0  3  0  0  0  0  0  0
  160.5050  212.9430  148.8760 N   0  0  0  0  0  2  0  0  0  0  0  0
  159.3920  213.5340  150.9140 C   0  0  0  0  0  2  0  0  0  0  0  0
  160.6720  213.1070  150.3090 C   0  0  2  0  0  3  0  0  0  0  0  0
  160.4250  214.4500  150.6500 O   0  0  0  0  0  0  0  0  0  0  0  0
  1  3  1  0  0  0  0
  2  9  1  1  0  0  0
  2  5  1  0  0  0  0
  2  4  1  0  0  0  0
  3 18  1  1  0  0  0
  4  3  1  0  0  0  0
  5 28  1  6  0  0  0
  5  1  1  0  0  0  0
  6 15  1  0  0  0  0
  6 12  1  0  0  0  0
  7  6  2  0  0  0  0
  9 12  2  0  0  0  0
 10  7  1  0  0  0  0
 10 11  2  0  0  0  0
 11  9  1  0  0  0  0
 12  8  1  0  0  0  0
 14 13  1  0  0  0  0
 15 13  2  0  0  0  0
 16 14  2  0  0  0  0
 17 16  1  0  0  0  0
 17 15  1  0  0  0  0
 18 21  1  1  0  0  0
 18 20  1  0  0  0  0
 19 20  2  0  0  0  0
 21 25  1  0  0  0  0
 22 27  1  0  0  0  0
 24 23  1  0  0  0  0
 25 24  2  0  0  0  0
 26 22  2  0  0  0  0
 26 25  1  0  0  0  0
 27 23  2  0  0  0  0
 29 31  1  0  0  0  0
 29 32  1  1  0  0  0
 30 29  1  0  0  0  0
 30 31  1  0  0  0  0
 31 28  1  6  0  0  0
 34 32  1  6  0  0  0
 34 35  1  0  0  0  0
 34 33  1  0  0  0  0
 35 33  1  0  0  0  0
M  END
>  <MODEL>
9

>  <REMARK>
 VINA RESULT:      -6.0      2.804      7.790
  Name = 
  10 active torsions:
  status: ('A' for Active; 'I' for Inactive)
    1  A    between atoms: C_6  and  N_18
    2  A    between atoms: C_7  and  C_22
    3  A    between atoms: C_10  and  C_12
    4  A    between atoms: C_10  and  C_16
    5  A    between atoms: C_13  and  C_16
    6  A    between atoms: C_16  and  C_21
    7  A    between atoms: C_17  and  C_19
    8  A    between atoms: N_18  and  C_20
    9  A    between atoms: C_25  and  N_26
   10  A    between atoms: N_26  and  C_34
                            x       y       z     vdW  Elec       q    Type
                         _______ _______ _______ _____ _____    ______ ____

>  <TORSDO>
F 10

$$$$
