=
 OpenBabel11042421203D

 39 42  0  0  1  0  0  0  0  0999 V2000
  161.0920  208.1490  151.8860 C   0  0  1  0  0  3  0  0  0  0  0  0
  161.1230  205.0790  148.9080 C   0  0  0  0  0  0  0  0  0  0  0  0
  161.1050  205.7300  151.2370 C   0  0  0  0  0  3  0  0  0  0  0  0
  161.0990  203.3790  150.3280 C   0  0  0  0  0  0  0  0  0  0  0  0
  161.1160  207.0790  150.8340 C   0  0  0  0  0  0  0  0  0  0  0  0
  161.0780  202.5570  151.5730 C   0  0  0  0  0  1  0  0  0  0  0  0
  161.1080  202.9190  149.0150 C   0  0  0  0  0  0  0  0  0  0  0  0
  161.1210  203.9630  148.1500 N   0  0  0  0  0  0  0  0  0  0  0  0
  161.1270  206.4050  148.4750 C   0  0  0  0  0  3  0  0  0  0  0  0
  161.0920  201.4830  148.6030 C   0  0  0  0  0  1  0  0  0  0  0  0
  161.1090  204.7560  150.2420 C   0  0  0  0  0  0  0  0  0  0  0  0
  161.1200  207.4110  149.4570 C   0  0  0  0  0  3  0  0  0  0  0  0
  161.1560  203.8930  146.6920 C   0  0  0  0  0  2  0  0  0  0  0  0
  162.4210  204.5520  146.1510 C   0  0  0  0  0  2  0  0  0  0  0  0
  160.6180  205.7860  144.9430 C   0  0  0  0  0  1  0  0  0  0  0  0
  162.1070  205.5060  145.0080 C   0  0  0  0  0  2  0  0  0  0  0  0
  161.2680  207.5680  153.2100 N   0  0  0  0  0  2  0  0  0  0  0  0
  160.6830  208.4880  154.1740 C   0  0  0  0  0  2  0  0  0  0  0  0
  161.3230  208.2980  155.5450 C   0  0  0  0  0  2  0  0  0  0  0  0
  161.0120  209.4660  156.4740 C   0  0  0  0  0  2  0  0  0  0  0  0
  159.6130  210.0220  156.2310 C   0  0  0  0  0  2  0  0  0  0  0  0
  160.6110  211.9770  155.3240 O   0  0  0  0  0  0  0  0  0  0  0  0
  159.6420  211.4960  155.9690 C   0  0  0  0  0  0  0  0  0  0  0  0
  158.6770  212.3880  156.5460 N   0  0  0  0  0  0  0  0  0  0  0  0
  157.4590  212.6230  156.1500 C   0  0  0  0  0  3  0  0  0  0  0  0
  157.0510  212.6940  153.7990 O   0  0  0  0  0  0  0  0  0  0  0  0
  155.8750  211.0040  154.9770 C   0  0  0  0  0  1  0  0  0  0  0  0
  156.8450  212.1300  154.9050 C   0  0  0  0  0  0  0  0  0  0  0  0
  162.1700  209.1990  151.6390 C   0  0  0  0  0  2  0  0  0  0  0  0
  161.8650  213.2930  147.3670 C   0  0  0  0  0  3  0  0  0  0  0  0
  160.6910  211.0870  151.9840 N   0  0  0  0  0  0  0  0  0  0  0  0
  161.9970  210.8940  149.9170 N   0  0  0  0  0  2  0  0  0  0  0  0
  159.9930  212.2140  151.8990 N   0  0  0  0  0  2  0  0  0  0  0  0
  161.5700  210.4700  151.1410 C   0  0  0  0  0  0  0  0  0  0  0  0
  162.3680  212.1040  147.8740 C   0  0  0  0  0  3  0  0  0  0  0  0
  160.9900  213.8490  148.2300 N   0  0  0  0  0  2  0  0  0  0  0  0
  160.9360  213.0160  149.2800 C   0  0  0  0  0  0  0  0  0  0  0  0
  159.9870  213.2990  150.6280 S   0  0  0  0  0  0  0  0  0  0  0  0
  161.7590  211.9490  149.1000 C   0  0  0  0  0  0  0  0  0  0  0  0
  1 29  1  6  0  0  0
  1 17  1  0  0  0  0
  2 11  1  0  0  0  0
  4  6  1  0  0  0  0
  5  3  1  0  0  0  0
  5  1  1  0  0  0  0
  7  4  2  0  0  0  0
  8  2  1  0  0  0  0
  8  7  1  0  0  0  0
  9  2  2  0  0  0  0
  9 12  1  0  0  0  0
 10  7  1  0  0  0  0
 11  4  1  0  0  0  0
 11  3  2  0  0  0  0
 12  5  2  0  0  0  0
 13  8  1  0  0  0  0
 14 13  1  0  0  0  0
 15 16  1  0  0  0  0
 16 14  1  0  0  0  0
 17 18  1  0  0  0  0
 18 19  1  0  0  0  0
 19 20  1  0  0  0  0
 21 20  1  0  0  0  0
 22 23  2  0  0  0  0
 23 21  1  0  0  0  0
 23 24  1  0  0  0  0
 25 24  2  0  0  0  0
 26 28  2  0  0  0  0
 28 27  1  0  0  0  0
 28 25  1  0  0  0  0
 30 35  2  0  0  0  0
 30 36  1  0  0  0  0
 32 34  1  0  0  0  0
 33 31  1  0  0  0  0
 34 29  1  0  0  0  0
 34 31  2  0  0  0  0
 35 39  1  0  0  0  0
 36 37  1  0  0  0  0
 37 38  1  0  0  0  0
 38 33  1  0  0  0  0
 39 37  2  0  0  0  0
 39 32  1  0  0  0  0
M  END
>  <MODEL>
1

>  <REMARK>
 VINA RESULT:      -8.1      0.000      0.000
  Name = 
  14 active torsions:
  status: ('A' for Active; 'I' for Inactive)
    1  A    between atoms: N_1  and  C_11
    2  A    between atoms: N_1  and  C_24
    3  A    between atoms: C_3  and  C_4
    4  A    between atoms: C_3  and  N_29
    5  A    between atoms: C_4  and  C_22
    6  A    between atoms: N_6  and  C_33
    7  A    between atoms: C_7  and  C_24
    8  A    between atoms: C_7  and  C_34
    9  A    between atoms: C_11  and  C_23
   10  A    between atoms: C_11  and  C_39
   11  A    between atoms: C_12  and  C_39
   12  A    between atoms: C_15  and  C_27
   13  A    between atoms: C_33  and  C_37
   14  A    between atoms: C_34  and  C_37
                            x       y       z     vdW  Elec       q    Type
                         _______ _______ _______ _____ _____    ______ ____

>  <TORSDO>
F 14

$$$$
=
 OpenBabel11042421203D

 39 42  0  0  1  0  0  0  0  0999 V2000
  161.7830  209.7360  150.1420 C   0  0  1  0  0  3  0  0  0  0  0  0
  161.8260  205.8530  148.3470 C   0  0  0  0  0  0  0  0  0  0  0  0
  161.2920  207.2820  150.2240 C   0  0  0  0  0  3  0  0  0  0  0  0
  160.8810  204.8000  150.0510 C   0  0  0  0  0  0  0  0  0  0  0  0
  161.8140  208.3750  149.5080 C   0  0  0  0  0  0  0  0  0  0  0  0
  160.2460  204.4920  151.3650 C   0  0  0  0  0  1  0  0  0  0  0  0
  161.1540  203.9110  149.0180 C   0  0  0  0  0  0  0  0  0  0  0  0
  161.7310  204.5600  147.9770 N   0  0  0  0  0  0  0  0  0  0  0  0
  162.3450  206.9170  147.6080 C   0  0  0  0  0  3  0  0  0  0  0  0
  160.8480  202.4480  149.0340 C   0  0  0  0  0  1  0  0  0  0  0  0
  161.3150  206.0330  149.6090 C   0  0  0  0  0  0  0  0  0  0  0  0
  162.3330  208.1910  148.2030 C   0  0  0  0  0  3  0  0  0  0  0  0
  162.1850  203.9720  146.7200 C   0  0  0  0  0  2  0  0  0  0  0  0
  161.0150  203.7810  145.7610 C   0  0  0  0  0  2  0  0  0  0  0  0
  160.2280  206.0450  145.0590 C   0  0  0  0  0  1  0  0  0  0  0  0
  161.0280  204.8220  144.6510 C   0  0  0  0  0  2  0  0  0  0  0  0
  162.5040  209.7280  151.4070 N   0  0  0  0  0  2  0  0  0  0  0  0
  161.5470  209.4040  152.4550 C   0  0  0  0  0  2  0  0  0  0  0  0
  160.4340  210.4450  152.4970 C   0  0  0  0  0  2  0  0  0  0  0  0
  160.5990  211.3920  153.6790 C   0  0  0  0  0  2  0  0  0  0  0  0
  161.6280  210.8740  154.6770 C   0  0  0  0  0  2  0  0  0  0  0  0
  159.9080  210.7830  156.3130 O   0  0  0  0  0  0  0  0  0  0  0  0
  160.9750  210.2700  155.8820 C   0  0  0  0  0  0  0  0  0  0  0  0
  161.5980  209.2200  156.6370 N   0  0  0  0  0  0  0  0  0  0  0  0
  161.4250  207.9340  156.5210 C   0  0  0  0  0  3  0  0  0  0  0  0
  159.2340  207.0990  156.0770 O   0  0  0  0  0  0  0  0  0  0  0  0
  160.8330  206.6940  154.3730 C   0  0  0  0  0  1  0  0  0  0  0  0
  160.4160  207.2700  155.6790 C   0  0  0  0  0  0  0  0  0  0  0  0
  162.3780  210.7950  149.2190 C   0  0  0  0  0  2  0  0  0  0  0  0
  158.9440  213.0690  144.9600 C   0  0  0  0  0  3  0  0  0  0  0  0
  160.9480  212.6640  149.7960 N   0  0  0  0  0  0  0  0  0  0  0  0
  160.9430  211.7530  147.5180 N   0  0  0  0  0  2  0  0  0  0  0  0
  160.0890  213.6770  149.8110 N   0  0  0  0  0  2  0  0  0  0  0  0
  161.3450  211.7940  148.8210 C   0  0  0  0  0  0  0  0  0  0  0  0
  159.8850  212.1480  145.3980 C   0  0  0  0  0  3  0  0  0  0  0  0
  158.5740  213.8890  145.9660 N   0  0  0  0  0  2  0  0  0  0  0  0
  159.2760  213.4910  147.0370 C   0  0  0  0  0  0  0  0  0  0  0  0
  159.1650  214.2310  148.5330 S   0  0  0  0  0  0  0  0  0  0  0  0
  160.0810  212.4390  146.7300 C   0  0  0  0  0  0  0  0  0  0  0  0
  1 29  1  6  0  0  0
  1 17  1  0  0  0  0
  2 11  1  0  0  0  0
  4  6  1  0  0  0  0
  5  1  1  0  0  0  0
  5  3  1  0  0  0  0
  7 10  1  0  0  0  0
  7  4  2  0  0  0  0
  8  2  1  0  0  0  0
  8  7  1  0  0  0  0
  9 12  1  0  0  0  0
  9  2  2  0  0  0  0
 11  4  1  0  0  0  0
 11  3  2  0  0  0  0
 12  5  2  0  0  0  0
 13  8  1  0  0  0  0
 14 13  1  0  0  0  0
 16 15  1  0  0  0  0
 16 14  1  0  0  0  0
 17 18  1  0  0  0  0
 18 19  1  0  0  0  0
 19 20  1  0  0  0  0
 20 21  1  0  0  0  0
 21 23  1  0  0  0  0
 23 22  2  0  0  0  0
 23 24  1  0  0  0  0
 25 24  2  0  0  0  0
 27 28  1  0  0  0  0
 28 26  2  0  0  0  0
 28 25  1  0  0  0  0
 30 35  2  0  0  0  0
 30 36  1  0  0  0  0
 31 33  1  0  0  0  0
 32 34  1  0  0  0  0
 34 29  1  0  0  0  0
 34 31  2  0  0  0  0
 35 39  1  0  0  0  0
 36 37  1  0  0  0  0
 37 38  1  0  0  0  0
 38 33  1  0  0  0  0
 39 37  2  0  0  0  0
 39 32  1  0  0  0  0
M  END
>  <MODEL>
2

>  <REMARK>
 VINA RESULT:      -7.6      2.105      3.070
  Name = 
  14 active torsions:
  status: ('A' for Active; 'I' for Inactive)
    1  A    between atoms: N_1  and  C_11
    2  A    between atoms: N_1  and  C_24
    3  A    between atoms: C_3  and  C_4
    4  A    between atoms: C_3  and  N_29
    5  A    between atoms: C_4  and  C_22
    6  A    between atoms: N_6  and  C_33
    7  A    between atoms: C_7  and  C_24
    8  A    between atoms: C_7  and  C_34
    9  A    between atoms: C_11  and  C_23
   10  A    between atoms: C_11  and  C_39
   11  A    between atoms: C_12  and  C_39
   12  A    between atoms: C_15  and  C_27
   13  A    between atoms: C_33  and  C_37
   14  A    between atoms: C_34  and  C_37
                            x       y       z     vdW  Elec       q    Type
                         _______ _______ _______ _____ _____    ______ ____

>  <TORSDO>
F 14

$$$$
=
 OpenBabel11042421203D

 39 42  0  0  1  0  0  0  0  0999 V2000
  161.2670  208.6520  152.5200 C   0  0  1  0  0  3  0  0  0  0  0  0
  161.1100  205.5810  149.5470 C   0  0  0  0  0  0  0  0  0  0  0  0
  161.1350  206.2360  151.8760 C   0  0  0  0  0  3  0  0  0  0  0  0
  160.9870  203.8880  150.9710 C   0  0  0  0  0  0  0  0  0  0  0  0
  161.2250  207.5810  151.4700 C   0  0  0  0  0  0  0  0  0  0  0  0
  160.9180  203.0710  152.2170 C   0  0  0  0  0  1  0  0  0  0  0  0
  160.9660  203.4260  149.6590 C   0  0  0  0  0  0  0  0  0  0  0  0
  161.0410  204.4660  148.7920 N   0  0  0  0  0  0  0  0  0  0  0  0
  161.1930  206.9040  149.1120 C   0  0  0  0  0  3  0  0  0  0  0  0
  160.8640  201.9930  149.2490 C   0  0  0  0  0  1  0  0  0  0  0  0
  161.0790  205.2610  150.8820 C   0  0  0  0  0  0  0  0  0  0  0  0
  161.2480  207.9100  150.0920 C   0  0  0  0  0  3  0  0  0  0  0  0
  161.0700  204.3910  147.3340 C   0  0  0  0  0  2  0  0  0  0  0  0
  162.4220  204.8500  146.7970 C   0  0  0  0  0  2  0  0  0  0  0  0
  160.8250  205.9270  145.2090 C   0  0  0  0  0  1  0  0  0  0  0  0
  162.2780  205.5750  145.4680 C   0  0  0  0  0  2  0  0  0  0  0  0
  160.3850  209.7550  152.1630 N   0  0  0  0  0  2  0  0  0  0  0  0
  161.2230  210.8940  151.8200 C   0  0  0  0  0  2  0  0  0  0  0  0
  160.3700  212.1430  151.6330 C   0  0  0  0  0  2  0  0  0  0  0  0
  160.5260  212.7210  150.2310 C   0  0  0  0  0  2  0  0  0  0  0  0
  161.5180  211.9180  149.3970 C   0  0  0  0  0  2  0  0  0  0  0  0
  163.3850  212.5110  148.0530 O   0  0  0  0  0  0  0  0  0  0  0  0
  162.1930  212.7710  148.3670 C   0  0  0  0  0  0  0  0  0  0  0  0
  161.5730  213.9520  147.8360 N   0  0  0  0  0  0  0  0  0  0  0  0
  160.9430  214.0900  146.7040 C   0  0  0  0  0  3  0  0  0  0  0  0
  161.7600  212.9820  144.7550 O   0  0  0  0  0  0  0  0  0  0  0  0
  159.6390  212.2460  145.5210 C   0  0  0  0  0  1  0  0  0  0  0  0
  160.8620  213.0850  145.6310 C   0  0  0  0  0  0  0  0  0  0  0  0
  160.8760  208.1060  153.8900 C   0  0  0  0  0  2  0  0  0  0  0  0
  157.6530  212.2310  156.6630 C   0  0  0  0  0  3  0  0  0  0  0  0
  161.9930  209.5050  155.5230 N   0  0  0  0  0  0  0  0  0  0  0  0
  159.6010  209.7980  155.0640 N   0  0  0  0  0  2  0  0  0  0  0  0
  162.3260  210.4090  156.4380 N   0  0  0  0  0  2  0  0  0  0  0  0
  160.8160  209.2000  154.9020 C   0  0  0  0  0  0  0  0  0  0  0  0
  157.7680  211.1890  155.7540 C   0  0  0  0  0  3  0  0  0  0  0  0
  158.8380  212.4780  157.2600 N   0  0  0  0  0  2  0  0  0  0  0  0
  159.7010  211.5970  156.7330 C   0  0  0  0  0  0  0  0  0  0  0  0
  161.3180  211.5310  157.1570 S   0  0  0  0  0  0  0  0  0  0  0  0
  159.0880  210.8010  155.8170 C   0  0  0  0  0  0  0  0  0  0  0  0
  1 29  1  1  0  0  0
  2 11  1  0  0  0  0
  4  6  1  0  0  0  0
  5  3  1  0  0  0  0
  5  1  1  0  0  0  0
  7  4  2  0  0  0  0
  8  2  1  0  0  0  0
  8  7  1  0  0  0  0
  9  2  2  0  0  0  0
  9 12  1  0  0  0  0
 10  7  1  0  0  0  0
 11  4  1  0  0  0  0
 11  3  2  0  0  0  0
 12  5  2  0  0  0  0
 13  8  1  0  0  0  0
 14 13  1  0  0  0  0
 15 16  1  0  0  0  0
 16 14  1  0  0  0  0
 17  1  1  0  0  0  0
 18 17  1  0  0  0  0
 19 18  1  0  0  0  0
 20 19  1  0  0  0  0
 21 20  1  0  0  0  0
 22 23  2  0  0  0  0
 23 21  1  0  0  0  0
 24 23  1  0  0  0  0
 25 24  2  0  0  0  0
 26 28  2  0  0  0  0
 27 28  1  0  0  0  0
 28 25  1  0  0  0  0
 29 34  1  0  0  0  0
 30 36  1  0  0  0  0
 31 33  1  0  0  0  0
 32 39  1  0  0  0  0
 33 38  1  0  0  0  0
 34 32  1  0  0  0  0
 34 31  2  0  0  0  0
 35 39  1  0  0  0  0
 35 30  2  0  0  0  0
 37 38  1  0  0  0  0
 37 36  1  0  0  0  0
 39 37  2  0  0  0  0
M  END
>  <MODEL>
3

>  <REMARK>
 VINA RESULT:      -7.3      2.722      5.847
  Name = 
  14 active torsions:
  status: ('A' for Active; 'I' for Inactive)
    1  A    between atoms: N_1  and  C_11
    2  A    between atoms: N_1  and  C_24
    3  A    between atoms: C_3  and  C_4
    4  A    between atoms: C_3  and  N_29
    5  A    between atoms: C_4  and  C_22
    6  A    between atoms: N_6  and  C_33
    7  A    between atoms: C_7  and  C_24
    8  A    between atoms: C_7  and  C_34
    9  A    between atoms: C_11  and  C_23
   10  A    between atoms: C_11  and  C_39
   11  A    between atoms: C_12  and  C_39
   12  A    between atoms: C_15  and  C_27
   13  A    between atoms: C_33  and  C_37
   14  A    between atoms: C_34  and  C_37
                            x       y       z     vdW  Elec       q    Type
                         _______ _______ _______ _____ _____    ______ ____

>  <TORSDO>
F 14

$$$$
=
 OpenBabel11042421203D

 39 42  0  0  1  0  0  0  0  0999 V2000
  161.9660  209.3400  150.7750 C   0  0  1  0  0  3  0  0  0  0  0  0
  161.3030  205.6370  148.7380 C   0  0  0  0  0  0  0  0  0  0  0  0
  161.5460  206.8710  150.8040 C   0  0  0  0  0  3  0  0  0  0  0  0
  161.1000  204.4010  150.5660 C   0  0  0  0  0  0  0  0  0  0  0  0
  161.7470  208.0430  150.0500 C   0  0  0  0  0  0  0  0  0  0  0  0
  161.0310  203.9530  151.9860 C   0  0  0  0  0  1  0  0  0  0  0  0
  160.9480  203.6180  149.4260 C   0  0  0  0  0  0  0  0  0  0  0  0
  161.0720  204.3790  148.3110 N   0  0  0  0  0  0  0  0  0  0  0  0
  161.4920  206.7810  147.9620 C   0  0  0  0  0  3  0  0  0  0  0  0
  160.6730  202.1500  149.4190 C   0  0  0  0  0  1  0  0  0  0  0  0
  161.3270  205.6840  150.1100 C   0  0  0  0  0  0  0  0  0  0  0  0
  161.7130  207.9950  148.6360 C   0  0  0  0  0  3  0  0  0  0  0  0
  160.9970  203.9230  146.9260 C   0  0  0  0  0  2  0  0  0  0  0  0
  162.3780  203.9390  146.2780 C   0  0  0  0  0  2  0  0  0  0  0  0
  161.1180  205.2180  144.5440 C   0  0  0  0  0  1  0  0  0  0  0  0
  162.4720  204.9980  145.1910 C   0  0  0  0  0  2  0  0  0  0  0  0
  162.1880  210.4240  149.8270 N   0  0  0  0  0  2  0  0  0  0  0  0
  161.5650  211.6200  150.3750 C   0  0  0  0  0  2  0  0  0  0  0  0
  161.1700  212.5730  149.2540 C   0  0  0  0  0  2  0  0  0  0  0  0
  161.6900  212.0930  147.9030 C   0  0  0  0  0  2  0  0  0  0  0  0
  162.4830  213.1800  147.1860 C   0  0  0  0  0  2  0  0  0  0  0  0
  162.4740  213.9580  144.9410 O   0  0  0  0  0  0  0  0  0  0  0  0
  161.7820  213.6500  145.9480 C   0  0  0  0  0  0  0  0  0  0  0  0
  160.3680  213.8930  145.9230 N   0  0  0  0  0  0  0  0  0  0  0  0
  159.5000  213.5020  145.0340 C   0  0  0  0  0  3  0  0  0  0  0  0
  159.9900  211.6010  143.6770 O   0  0  0  0  0  0  0  0  0  0  0  0
  160.0190  213.6840  142.5440 C   0  0  0  0  0  1  0  0  0  0  0  0
  159.8100  212.8440  143.7540 C   0  0  0  0  0  0  0  0  0  0  0  0
  160.7840  209.6810  151.6780 C   0  0  0  0  0  2  0  0  0  0  0  0
  160.1630  206.8850  156.8640 C   0  0  0  0  0  3  0  0  0  0  0  0
  162.0330  210.5260  153.5750 N   0  0  0  0  0  0  0  0  0  0  0  0
  160.5780  208.5650  153.8180 N   0  0  0  0  0  2  0  0  0  0  0  0
  162.5680  210.7620  154.7680 N   0  0  0  0  0  2  0  0  0  0  0  0
  161.1670  209.5750  153.1160 C   0  0  0  0  0  0  0  0  0  0  0  0
  159.8670  207.0210  155.5150 C   0  0  0  0  0  3  0  0  0  0  0  0
  161.0350  207.8360  157.2600 N   0  0  0  0  0  2  0  0  0  0  0  0
  161.2920  208.5710  156.1680 C   0  0  0  0  0  0  0  0  0  0  0  0
  162.3170  209.8930  156.1730 S   0  0  0  0  0  0  0  0  0  0  0  0
  160.6010  208.1070  155.0930 C   0  0  0  0  0  0  0  0  0  0  0  0
  1 29  1  6  0  0  0
  2 11  1  0  0  0  0
  4  6  1  0  0  0  0
  5  1  1  0  0  0  0
  5  3  1  0  0  0  0
  7  4  2  0  0  0  0
  8  2  1  0  0  0  0
  8  7  1  0  0  0  0
  9 12  1  0  0  0  0
  9  2  2  0  0  0  0
 10  7  1  0  0  0  0
 11  4  1  0  0  0  0
 11  3  2  0  0  0  0
 12  5  2  0  0  0  0
 13  8  1  0  0  0  0
 14 13  1  0  0  0  0
 15 16  1  0  0  0  0
 16 14  1  0  0  0  0
 17 18  1  0  0  0  0
 17  1  1  0  0  0  0
 19 18  1  0  0  0  0
 20 19  1  0  0  0  0
 21 20  1  0  0  0  0
 22 23  2  0  0  0  0
 23 21  1  0  0  0  0
 24 23  1  0  0  0  0
 25 24  2  0  0  0  0
 26 28  2  0  0  0  0
 27 28  1  0  0  0  0
 28 25  1  0  0  0  0
 29 34  1  0  0  0  0
 30 36  1  0  0  0  0
 31 33  1  0  0  0  0
 32 39  1  0  0  0  0
 33 38  1  0  0  0  0
 34 31  2  0  0  0  0
 34 32  1  0  0  0  0
 35 30  2  0  0  0  0
 37 38  1  0  0  0  0
 37 36  1  0  0  0  0
 39 35  1  0  0  0  0
 39 37  2  0  0  0  0
M  END
>  <MODEL>
4

>  <REMARK>
 VINA RESULT:      -7.2      3.366      6.715
  Name = 
  14 active torsions:
  status: ('A' for Active; 'I' for Inactive)
    1  A    between atoms: N_1  and  C_11
    2  A    between atoms: N_1  and  C_24
    3  A    between atoms: C_3  and  C_4
    4  A    between atoms: C_3  and  N_29
    5  A    between atoms: C_4  and  C_22
    6  A    between atoms: N_6  and  C_33
    7  A    between atoms: C_7  and  C_24
    8  A    between atoms: C_7  and  C_34
    9  A    between atoms: C_11  and  C_23
   10  A    between atoms: C_11  and  C_39
   11  A    between atoms: C_12  and  C_39
   12  A    between atoms: C_15  and  C_27
   13  A    between atoms: C_33  and  C_37
   14  A    between atoms: C_34  and  C_37
                            x       y       z     vdW  Elec       q    Type
                         _______ _______ _______ _____ _____    ______ ____

>  <TORSDO>
F 14

$$$$
=
 OpenBabel11042421203D

 39 42  0  0  1  0  0  0  0  0999 V2000
  161.2200  207.7720  151.7110 C   0  0  1  0  0  3  0  0  0  0  0  0
  159.9960  210.8240  154.4470 C   0  0  0  0  0  0  0  0  0  0  0  0
  160.3590  210.0770  152.1750 C   0  0  0  0  0  3  0  0  0  0  0  0
  159.4850  212.3270  152.9010 C   0  0  0  0  0  0  0  0  0  0  0  0
  160.8050  208.8410  152.6790 C   0  0  0  0  0  0  0  0  0  0  0  0
  159.2670  213.0190  151.5980 C   0  0  0  0  0  1  0  0  0  0  0  0
  159.2480  212.8350  154.1740 C   0  0  0  0  0  0  0  0  0  0  0  0
  159.5610  211.9110  155.1160 N   0  0  0  0  0  0  0  0  0  0  0  0
  160.4260  209.6080  154.9790 C   0  0  0  0  0  3  0  0  0  0  0  0
  158.7120  214.1960  154.4750 C   0  0  0  0  0  1  0  0  0  0  0  0
  159.9620  211.0470  153.0920 C   0  0  0  0  0  0  0  0  0  0  0  0
  160.8310  208.6090  154.0760 C   0  0  0  0  0  3  0  0  0  0  0  0
  159.4720  212.0710  156.5650 C   0  0  0  0  0  2  0  0  0  0  0  0
  158.2040  211.4150  157.1020 C   0  0  0  0  0  2  0  0  0  0  0  0
  155.7790  211.6040  156.5370 C   0  0  0  0  0  1  0  0  0  0  0  0
  157.0100  212.3530  157.0110 C   0  0  0  0  0  2  0  0  0  0  0  0
  162.2010  208.2900  150.7670 N   0  0  0  0  0  2  0  0  0  0  0  0
  161.5430  208.4140  149.4750 C   0  0  0  0  0  2  0  0  0  0  0  0
  162.2140  209.4970  148.6390 C   0  0  0  0  0  2  0  0  0  0  0  0
  162.1380  210.8570  149.3230 C   0  0  0  0  0  2  0  0  0  0  0  0
  161.5590  211.9220  148.3970 C   0  0  0  0  0  2  0  0  0  0  0  0
  163.8330  212.4330  147.9330 O   0  0  0  0  0  0  0  0  0  0  0  0
  162.6310  212.7960  147.8220 C   0  0  0  0  0  0  0  0  0  0  0  0
  162.3420  214.0920  147.2770 N   0  0  0  0  0  0  0  0  0  0  0  0
  162.0140  214.3950  146.0530 C   0  0  0  0  0  3  0  0  0  0  0  0
  161.0120  212.7850  144.6050 O   0  0  0  0  0  0  0  0  0  0  0  0
  163.2830  213.2840  144.1410 C   0  0  0  0  0  1  0  0  0  0  0  0
  162.0200  213.4760  144.9030 C   0  0  0  0  0  0  0  0  0  0  0  0
  161.7950  206.5570  152.4340 C   0  0  0  0  0  2  0  0  0  0  0  0
  161.3060  203.8360  147.1940 C   0  0  0  0  0  3  0  0  0  0  0  0
  161.1550  204.2200  152.4280 N   0  0  0  0  0  0  0  0  0  0  0  0
  161.5950  205.3930  150.3190 N   0  0  0  0  0  2  0  0  0  0  0  0
  160.8160  202.9740  152.1160 N   0  0  0  0  0  2  0  0  0  0  0  0
  161.5090  205.3040  151.6770 C   0  0  0  0  0  0  0  0  0  0  0  0
  161.5850  204.9620  147.9550 C   0  0  0  0  0  3  0  0  0  0  0  0
  160.9810  202.7920  147.9850 N   0  0  0  0  0  2  0  0  0  0  0  0
  161.0540  203.2530  149.2420 C   0  0  0  0  0  0  0  0  0  0  0  0
  160.7140  202.3130  150.5840 S   0  0  0  0  0  0  0  0  0  0  0  0
  161.4150  204.5630  149.2630 C   0  0  0  0  0  0  0  0  0  0  0  0
  1 29  1  1  0  0  0
  1  5  1  0  0  0  0
  2  9  1  0  0  0  0
  2  8  1  0  0  0  0
  3  5  2  0  0  0  0
  3 11  1  0  0  0  0
  4 11  1  0  0  0  0
  4  7  2  0  0  0  0
  5 12  1  0  0  0  0
  6  4  1  0  0  0  0
  7 10  1  0  0  0  0
  7  8  1  0  0  0  0
  8 13  1  0  0  0  0
 11  2  2  0  0  0  0
 12  9  2  0  0  0  0
 13 14  1  0  0  0  0
 15 16  1  0  0  0  0
 16 14  1  0  0  0  0
 17  1  1  0  0  0  0
 18 17  1  0  0  0  0
 19 20  1  0  0  0  0
 19 18  1  0  0  0  0
 21 20  1  0  0  0  0
 23 22  2  0  0  0  0
 23 21  1  0  0  0  0
 24 23  1  0  0  0  0
 25 24  2  0  0  0  0
 26 28  2  0  0  0  0
 27 28  1  0  0  0  0
 28 25  1  0  0  0  0
 30 35  2  0  0  0  0
 30 36  1  0  0  0  0
 32 34  1  0  0  0  0
 33 31  1  0  0  0  0
 34 31  2  0  0  0  0
 34 29  1  0  0  0  0
 35 39  1  0  0  0  0
 36 37  1  0  0  0  0
 37 39  2  0  0  0  0
 37 38  1  0  0  0  0
 38 33  1  0  0  0  0
 39 32  1  0  0  0  0
M  END
>  <MODEL>
5

>  <REMARK>
 VINA RESULT:      -6.7      3.309      9.251
  Name = 
  14 active torsions:
  status: ('A' for Active; 'I' for Inactive)
    1  A    between atoms: N_1  and  C_11
    2  A    between atoms: N_1  and  C_24
    3  A    between atoms: C_3  and  C_4
    4  A    between atoms: C_3  and  N_29
    5  A    between atoms: C_4  and  C_22
    6  A    between atoms: N_6  and  C_33
    7  A    between atoms: C_7  and  C_24
    8  A    between atoms: C_7  and  C_34
    9  A    between atoms: C_11  and  C_23
   10  A    between atoms: C_11  and  C_39
   11  A    between atoms: C_12  and  C_39
   12  A    between atoms: C_15  and  C_27
   13  A    between atoms: C_33  and  C_37
   14  A    between atoms: C_34  and  C_37
                            x       y       z     vdW  Elec       q    Type
                         _______ _______ _______ _____ _____    ______ ____

>  <TORSDO>
F 14

$$$$
=
 OpenBabel11042421203D

 39 42  0  0  1  0  0  0  0  0999 V2000
  161.3710  206.9150  151.1130 C   0  0  1  0  0  3  0  0  0  0  0  0
  160.3660  209.4850  154.3820 C   0  0  0  0  0  0  0  0  0  0  0  0
  160.5390  209.1040  151.9990 C   0  0  0  0  0  3  0  0  0  0  0  0
  159.7160  211.1980  153.1370 C   0  0  0  0  0  0  0  0  0  0  0  0
  161.0330  207.8140  152.2670 C   0  0  0  0  0  0  0  0  0  0  0  0
  159.3830  212.0780  151.9800 C   0  0  0  0  0  1  0  0  0  0  0  0
  159.5850  211.4980  154.4890 C   0  0  0  0  0  0  0  0  0  0  0  0
  159.9840  210.4460  155.2460 N   0  0  0  0  0  0  0  0  0  0  0  0
  160.8480  208.2100  154.6810 C   0  0  0  0  0  3  0  0  0  0  0  0
  159.0690  212.7860  155.0410 C   0  0  0  0  0  1  0  0  0  0  0  0
  160.2150  209.9130  153.0860 C   0  0  0  0  0  0  0  0  0  0  0  0
  161.1810  207.3700  153.6030 C   0  0  0  0  0  3  0  0  0  0  0  0
  160.0180  210.3790  156.7040 C   0  0  0  0  0  2  0  0  0  0  0  0
  161.1160  211.2800  157.2600 C   0  0  0  0  0  2  0  0  0  0  0  0
  163.1510  210.7420  155.9170 C   0  0  0  0  0  1  0  0  0  0  0  0
  162.4660  210.5790  157.2610 C   0  0  0  0  0  2  0  0  0  0  0  0
  162.2750  207.5860  150.1890 N   0  0  0  0  0  2  0  0  0  0  0  0
  161.5760  207.7340  148.9210 C   0  0  0  0  0  2  0  0  0  0  0  0
  161.9270  209.0680  148.2740 C   0  0  0  0  0  2  0  0  0  0  0  0
  162.3340  210.1050  149.3150 C   0  0  0  0  0  2  0  0  0  0  0  0
  161.6270  211.4360  149.0910 C   0  0  0  0  0  2  0  0  0  0  0  0
  163.5960  212.0010  147.8870 O   0  0  0  0  0  0  0  0  0  0  0  0
  162.4290  212.3470  148.2120 C   0  0  0  0  0  0  0  0  0  0  0  0
  161.9620  213.6540  147.8480 N   0  0  0  0  0  0  0  0  0  0  0  0
  160.7900  213.9930  147.3920 C   0  0  0  0  0  3  0  0  0  0  0  0
  159.9010  212.1780  146.1210 O   0  0  0  0  0  0  0  0  0  0  0  0
  158.3550  213.2540  147.5620 C   0  0  0  0  0  1  0  0  0  0  0  0
  159.7170  213.0660  146.9940 C   0  0  0  0  0  0  0  0  0  0  0  0
  162.0000  205.6090  151.5880 C   0  0  0  0  0  2  0  0  0  0  0  0
  161.3640  203.3610  146.1440 C   0  0  0  0  0  3  0  0  0  0  0  0
  161.0250  203.4000  151.3830 N   0  0  0  0  0  0  0  0  0  0  0  0
  161.7310  204.6370  149.3860 N   0  0  0  0  0  2  0  0  0  0  0  0
  160.5220  202.2430  150.9650 N   0  0  0  0  0  2  0  0  0  0  0  0
  161.5690  204.4680  150.7290 C   0  0  0  0  0  0  0  0  0  0  0  0
  161.7690  204.3770  146.9970 C   0  0  0  0  0  2  0  0  0  0  0  0
  160.8530  202.3260  146.8410 N   0  0  0  0  0  0  0  0  0  0  0  0
  160.9330  202.6820  148.1320 C   0  0  0  0  0  0  0  0  0  0  0  0
  160.3970  201.7130  149.3860 S   0  0  0  0  0  0  0  0  0  0  0  0
  161.4820  203.9190  148.2640 C   0  0  0  0  0  0  0  0  0  0  0  0
  1 29  1  1  0  0  0
  1  5  1  0  0  0  0
  2  9  1  0  0  0  0
  2  8  1  0  0  0  0
  3  5  2  0  0  0  0
  3 11  1  0  0  0  0
  4  7  2  0  0  0  0
  5 12  1  0  0  0  0
  6  4  1  0  0  0  0
  7 10  1  0  0  0  0
  7  8  1  0  0  0  0
  8 13  1  0  0  0  0
 11  4  1  0  0  0  0
 11  2  2  0  0  0  0
 12  9  2  0  0  0  0
 13 14  1  0  0  0  0
 14 16  1  0  0  0  0
 15 16  1  0  0  0  0
 17  1  1  0  0  0  0
 18 17  1  0  0  0  0
 19 18  1  0  0  0  0
 19 20  1  0  0  0  0
 21 20  1  0  0  0  0
 22 23  2  0  0  0  0
 23 21  1  0  0  0  0
 24 23  1  0  0  0  0
 25 24  2  0  0  0  0
 26 28  2  0  0  0  0
 28 25  1  0  0  0  0
 28 27  1  0  0  0  0
 30 36  2  0  0  0  0
 30 35  1  0  0  0  0
 32 34  1  0  0  0  0
 33 31  1  0  0  0  0
 34 31  2  0  0  0  0
 34 29  1  0  0  0  0
 35 39  1  0  0  0  0
 36 37  1  0  0  0  0
 37 39  2  0  0  0  0
 37 38  1  0  0  0  0
 38 33  1  0  0  0  0
 39 32  1  0  0  0  0
M  END
>  <MODEL>
6

>  <REMARK>
 VINA RESULT:      -6.7      3.183      8.643
  Name = 
  14 active torsions:
  status: ('A' for Active; 'I' for Inactive)
    1  A    between atoms: N_1  and  C_11
    2  A    between atoms: N_1  and  C_24
    3  A    between atoms: C_3  and  C_4
    4  A    between atoms: C_3  and  N_29
    5  A    between atoms: C_4  and  C_22
    6  A    between atoms: N_6  and  C_33
    7  A    between atoms: C_7  and  C_24
    8  A    between atoms: C_7  and  C_34
    9  A    between atoms: C_11  and  C_23
   10  A    between atoms: C_11  and  C_39
   11  A    between atoms: C_12  and  C_39
   12  A    between atoms: C_15  and  C_27
   13  A    between atoms: C_33  and  C_37
   14  A    between atoms: C_34  and  C_37
                            x       y       z     vdW  Elec       q    Type
                         _______ _______ _______ _____ _____    ______ ____

>  <TORSDO>
F 14

$$$$
=
 OpenBabel11042421203D

 39 42  0  0  1  0  0  0  0  0999 V2000
  162.3320  210.0040  149.6210 C   0  0  1  0  0  3  0  0  0  0  0  0
  160.8920  209.5320  153.6220 C   0  0  0  0  0  0  0  0  0  0  0  0
  161.6850  208.5530  151.5570 C   0  0  0  0  0  3  0  0  0  0  0  0
  160.9960  207.3190  153.6450 C   0  0  0  0  0  0  0  0  0  0  0  0
  161.8140  209.8480  151.0220 C   0  0  0  0  0  0  0  0  0  0  0  0
  161.2120  205.8950  153.2580 C   0  0  0  0  0  1  0  0  0  0  0  0
  160.5330  207.7990  154.8650 C   0  0  0  0  0  0  0  0  0  0  0  0
  160.4720  209.1540  154.8460 N   0  0  0  0  0  0  0  0  0  0  0  0
  161.0150  210.8290  153.1230 C   0  0  0  0  0  3  0  0  0  0  0  0
  160.1640  206.9550  156.0410 C   0  0  0  0  0  1  0  0  0  0  0  0
  161.2200  208.4340  152.8640 C   0  0  0  0  0  0  0  0  0  0  0  0
  161.4840  210.9800  151.8070 C   0  0  0  0  0  3  0  0  0  0  0  0
  160.0170  210.0260  155.9250 C   0  0  0  0  0  2  0  0  0  0  0  0
  158.5290  210.3290  155.7810 C   0  0  0  0  0  2  0  0  0  0  0  0
  157.6260  211.8420  154.0120 C   0  0  0  0  0  1  0  0  0  0  0  0
  158.2910  211.7750  155.3740 C   0  0  0  0  0  2  0  0  0  0  0  0
  161.4090  209.4070  148.6650 N   0  0  0  0  0  2  0  0  0  0  0  0
  161.9670  208.1270  148.2580 C   0  0  0  0  0  2  0  0  0  0  0  0
  160.9590  207.0090  148.4960 C   0  0  0  0  0  2  0  0  0  0  0  0
  161.5820  205.8500  149.2660 C   0  0  0  0  0  2  0  0  0  0  0  0
  160.8270  204.5460  149.0310 C   0  0  0  0  0  2  0  0  0  0  0  0
  161.2080  202.4800  147.9230 O   0  0  0  0  0  0  0  0  0  0  0  0
  161.4850  203.7080  147.9790 C   0  0  0  0  0  0  0  0  0  0  0  0
  162.5200  204.2280  147.1310 N   0  0  0  0  0  0  0  0  0  0  0  0
  162.3950  204.7980  145.9670 C   0  0  0  0  0  3  0  0  0  0  0  0
  160.7190  203.9200  144.5110 O   0  0  0  0  0  0  0  0  0  0  0  0
  160.4570  206.2050  145.0900 C   0  0  0  0  0  1  0  0  0  0  0  0
  161.1540  204.8940  145.1800 C   0  0  0  0  0  0  0  0  0  0  0  0
  162.5580  211.4710  149.2700 C   0  0  0  0  0  2  0  0  0  0  0  0
  158.9580  212.5960  144.7020 C   0  0  0  0  0  3  0  0  0  0  0  0
  160.5670  212.7860  149.6960 N   0  0  0  0  0  0  0  0  0  0  0  0
  161.0440  211.9470  147.4400 N   0  0  0  0  0  2  0  0  0  0  0  0
  159.4330  213.4750  149.6220 N   0  0  0  0  0  2  0  0  0  0  0  0
  161.3000  212.0980  148.7710 C   0  0  0  0  0  0  0  0  0  0  0  0
  160.1000  212.0150  145.2310 C   0  0  0  0  0  3  0  0  0  0  0  0
  158.2630  213.2450  145.6590 N   0  0  0  0  0  2  0  0  0  0  0  0
  158.9610  213.0760  146.7920 C   0  0  0  0  0  0  0  0  0  0  0  0
  158.4950  213.7240  148.2620 S   0  0  0  0  0  0  0  0  0  0  0  0
  160.0800  212.3360  146.5710 C   0  0  0  0  0  0  0  0  0  0  0  0
  1 29  1  6  0  0  0
  1  5  1  0  0  0  0
  2  8  1  0  0  0  0
  3 11  1  0  0  0  0
  4  7  2  0  0  0  0
  5  3  2  0  0  0  0
  5 12  1  0  0  0  0
  6  4  1  0  0  0  0
  7 10  1  0  0  0  0
  8  7  1  0  0  0  0
  8 13  1  0  0  0  0
  9  2  1  0  0  0  0
 11  2  2  0  0  0  0
 11  4  1  0  0  0  0
 12  9  2  0  0  0  0
 14 13  1  0  0  0  0
 15 16  1  0  0  0  0
 16 14  1  0  0  0  0
 17  1  1  0  0  0  0
 18 19  1  0  0  0  0
 18 17  1  0  0  0  0
 19 20  1  0  0  0  0
 21 20  1  0  0  0  0
 22 23  2  0  0  0  0
 23 21  1  0  0  0  0
 24 23  1  0  0  0  0
 25 24  2  0  0  0  0
 26 28  2  0  0  0  0
 27 28  1  0  0  0  0
 28 25  1  0  0  0  0
 30 35  2  0  0  0  0
 30 36  1  0  0  0  0
 32 34  1  0  0  0  0
 33 31  1  0  0  0  0
 34 29  1  0  0  0  0
 34 31  2  0  0  0  0
 35 39  1  0  0  0  0
 36 37  1  0  0  0  0
 37 38  1  0  0  0  0
 38 33  1  0  0  0  0
 39 37  2  0  0  0  0
 39 32  1  0  0  0  0
M  END
>  <MODEL>
7

>  <REMARK>
 VINA RESULT:      -6.4      3.377      7.927
  Name = 
  14 active torsions:
  status: ('A' for Active; 'I' for Inactive)
    1  A    between atoms: N_1  and  C_11
    2  A    between atoms: N_1  and  C_24
    3  A    between atoms: C_3  and  C_4
    4  A    between atoms: C_3  and  N_29
    5  A    between atoms: C_4  and  C_22
    6  A    between atoms: N_6  and  C_33
    7  A    between atoms: C_7  and  C_24
    8  A    between atoms: C_7  and  C_34
    9  A    between atoms: C_11  and  C_23
   10  A    between atoms: C_11  and  C_39
   11  A    between atoms: C_12  and  C_39
   12  A    between atoms: C_15  and  C_27
   13  A    between atoms: C_33  and  C_37
   14  A    between atoms: C_34  and  C_37
                            x       y       z     vdW  Elec       q    Type
                         _______ _______ _______ _____ _____    ______ ____

>  <TORSDO>
F 14

$$$$
=
 OpenBabel11042421203D

 39 42  0  0  1  0  0  0  0  0999 V2000
  161.2700  207.2320  152.1570 C   0  0  1  0  0  3  0  0  0  0  0  0
  161.2500  204.1530  149.1870 C   0  0  0  0  0  0  0  0  0  0  0  0
  161.3250  206.5020  149.7620 C   0  0  0  0  0  3  0  0  0  0  0  0
  161.3880  205.5130  147.4440 C   0  0  0  0  0  0  0  0  0  0  0  0
  161.2490  206.1450  151.1220 C   0  0  0  0  0  0  0  0  0  0  0  0
  161.4840  206.7280  146.5830 C   0  0  0  0  0  1  0  0  0  0  0  0
  161.3500  204.1870  147.0270 C   0  0  0  0  0  0  0  0  0  0  0  0
  161.2660  203.3590  148.0980 N   0  0  0  0  0  0  0  0  0  0  0  0
  161.1800  203.7660  150.5260 C   0  0  0  0  0  3  0  0  0  0  0  0
  161.4060  203.7260  145.6070 C   0  0  0  0  0  1  0  0  0  0  0  0
  161.3230  205.4750  148.8210 C   0  0  0  0  0  0  0  0  0  0  0  0
  161.1830  204.7820  151.4980 C   0  0  0  0  0  3  0  0  0  0  0  0
  161.1820  201.9010  148.0740 C   0  0  0  0  0  2  0  0  0  0  0  0
  160.1240  201.4380  147.0780 C   0  0  0  0  0  2  0  0  0  0  0  0
  161.5810  199.4550  146.6570 C   0  0  0  0  0  1  0  0  0  0  0  0
  160.7190  200.5260  146.0160 C   0  0  0  0  0  2  0  0  0  0  0  0
  161.5430  206.6780  153.4760 N   0  0  0  0  0  2  0  0  0  0  0  0
  160.3150  206.7670  154.2520 C   0  0  0  0  0  2  0  0  0  0  0  0
  160.3260  208.0190  155.1200 C   0  0  0  0  0  2  0  0  0  0  0  0
  161.6370  208.1590  155.8850 C   0  0  0  0  0  2  0  0  0  0  0  0
  161.5350  209.1990  156.9940 C   0  0  0  0  0  2  0  0  0  0  0  0
  162.5290  210.6870  155.4310 O   0  0  0  0  0  0  0  0  0  0  0  0
  161.8640  210.5730  156.4950 C   0  0  0  0  0  0  0  0  0  0  0  0
  161.5680  211.7500  157.2610 N   0  0  0  0  0  0  0  0  0  0  0  0
  160.5470  212.5500  157.1440 C   0  0  0  0  0  3  0  0  0  0  0  0
  159.6160  213.2470  155.0600 O   0  0  0  0  0  0  0  0  0  0  0  0
  158.3320  211.6510  156.2550 C   0  0  0  0  0  1  0  0  0  0  0  0
  159.5340  212.5090  156.0760 C   0  0  0  0  0  0  0  0  0  0  0  0
  162.3070  208.3000  151.8230 C   0  0  0  0  0  2  0  0  0  0  0  0
  161.6290  212.7650  147.9890 C   0  0  0  0  0  3  0  0  0  0  0  0
  160.8140  210.1060  152.4420 N   0  0  0  0  0  0  0  0  0  0  0  0
  161.9820  210.1430  150.2850 N   0  0  0  0  0  2  0  0  0  0  0  0
  160.0880  211.2170  152.5090 N   0  0  0  0  0  2  0  0  0  0  0  0
  161.6480  209.5950  151.4880 C   0  0  0  0  0  0  0  0  0  0  0  0
  162.1900  211.5480  148.3470 C   0  0  0  0  0  3  0  0  0  0  0  0
  160.8020  213.2140  148.9560 N   0  0  0  0  0  2  0  0  0  0  0  0
  160.8370  212.2850  149.9230 C   0  0  0  0  0  0  0  0  0  0  0  0
  159.9740  212.4150  151.3510 S   0  0  0  0  0  0  0  0  0  0  0  0
  161.6680  211.2620  149.5900 C   0  0  0  0  0  0  0  0  0  0  0  0
  1 29  1  6  0  0  0
  1 17  1  0  0  0  0
  2  9  1  0  0  0  0
  3  5  2  0  0  0  0
  4 11  1  0  0  0  0
  5 12  1  0  0  0  0
  5  1  1  0  0  0  0
  6  4  1  0  0  0  0
  7  4  2  0  0  0  0
  7  8  1  0  0  0  0
  8  2  1  0  0  0  0
  9 12  2  0  0  0  0
 10  7  1  0  0  0  0
 11  2  2  0  0  0  0
 11  3  1  0  0  0  0
 13  8  1  0  0  0  0
 14 13  1  0  0  0  0
 16 15  1  0  0  0  0
 16 14  1  0  0  0  0
 17 18  1  0  0  0  0
 18 19  1  0  0  0  0
 19 20  1  0  0  0  0
 20 21  1  0  0  0  0
 22 23  2  0  0  0  0
 23 21  1  0  0  0  0
 23 24  1  0  0  0  0
 25 24  2  0  0  0  0
 26 28  2  0  0  0  0
 28 27  1  0  0  0  0
 28 25  1  0  0  0  0
 30 35  2  0  0  0  0
 30 36  1  0  0  0  0
 31 33  1  0  0  0  0
 32 34  1  0  0  0  0
 34 29  1  0  0  0  0
 34 31  2  0  0  0  0
 35 39  1  0  0  0  0
 36 37  1  0  0  0  0
 37 38  1  0  0  0  0
 38 33  1  0  0  0  0
 39 37  2  0  0  0  0
 39 32  1  0  0  0  0
M  END
>  <MODEL>
8

>  <REMARK>
 VINA RESULT:      -6.3      1.371      2.674
  Name = 
  14 active torsions:
  status: ('A' for Active; 'I' for Inactive)
    1  A    between atoms: N_1  and  C_11
    2  A    between atoms: N_1  and  C_24
    3  A    between atoms: C_3  and  C_4
    4  A    between atoms: C_3  and  N_29
    5  A    between atoms: C_4  and  C_22
    6  A    between atoms: N_6  and  C_33
    7  A    between atoms: C_7  and  C_24
    8  A    between atoms: C_7  and  C_34
    9  A    between atoms: C_11  and  C_23
   10  A    between atoms: C_11  and  C_39
   11  A    between atoms: C_12  and  C_39
   12  A    between atoms: C_15  and  C_27
   13  A    between atoms: C_33  and  C_37
   14  A    between atoms: C_34  and  C_37
                            x       y       z     vdW  Elec       q    Type
                         _______ _______ _______ _____ _____    ______ ____

>  <TORSDO>
F 14

$$$$
=
 OpenBabel11042421203D

 39 42  0  0  1  0  0  0  0  0999 V2000
  161.8510  209.1910  149.7890 C   0  0  1  0  0  3  0  0  0  0  0  0
  160.7700  209.4140  153.9220 C   0  0  0  0  0  0  0  0  0  0  0  0
  161.3420  208.0910  151.9800 C   0  0  0  0  0  3  0  0  0  0  0  0
  160.8110  207.2300  154.2900 C   0  0  0  0  0  0  0  0  0  0  0  0
  161.4590  209.2800  151.2360 C   0  0  0  0  0  0  0  0  0  0  0  0
  160.9480  205.7550  154.1180 C   0  0  0  0  0  1  0  0  0  0  0  0
  160.4750  207.9150  155.4520 C   0  0  0  0  0  0  0  0  0  0  0  0
  160.4530  209.2520  155.2230 N   0  0  0  0  0  0  0  0  0  0  0  0
  160.8840  210.6110  153.2140 C   0  0  0  0  0  3  0  0  0  0  0  0
  160.1910  207.2830  156.7760 C   0  0  0  0  0  1  0  0  0  0  0  0
  160.9940  208.1990  153.3240 C   0  0  0  0  0  0  0  0  0  0  0  0
  161.2360  210.5330  151.8550 C   0  0  0  0  0  3  0  0  0  0  0  0
  160.1240  210.3010  156.1830 C   0  0  0  0  0  2  0  0  0  0  0  0
  158.6580  210.7050  156.0590 C   0  0  0  0  0  2  0  0  0  0  0  0
  159.6590  212.9910  155.9910 C   0  0  0  0  0  1  0  0  0  0  0  0
  158.5130  212.1180  155.5150 C   0  0  0  0  0  2  0  0  0  0  0  0
  162.3450  210.4770  149.3140 N   0  0  0  0  0  2  0  0  0  0  0  0
  161.5490  210.8500  148.1540 C   0  0  0  0  0  2  0  0  0  0  0  0
  161.6110  212.3560  147.9300 C   0  0  0  0  0  2  0  0  0  0  0  0
  160.2470  212.9210  147.5510 C   0  0  0  0  0  2  0  0  0  0  0  0
  160.3560  213.9640  146.4440 C   0  0  0  0  0  2  0  0  0  0  0  0
  159.5550  212.2090  145.0570 O   0  0  0  0  0  0  0  0  0  0  0  0
  159.9580  213.4010  145.1140 C   0  0  0  0  0  0  0  0  0  0  0  0
  160.1540  214.1300  143.8930 N   0  0  0  0  0  0  0  0  0  0  0  0
  161.0760  213.9530  142.9900 C   0  0  0  0  0  3  0  0  0  0  0  0
  162.3260  212.0050  142.4060 O   0  0  0  0  0  0  0  0  0  0  0  0
  163.2670  213.3280  144.1360 C   0  0  0  0  0  1  0  0  0  0  0  0
  162.2350  213.0500  143.1020 C   0  0  0  0  0  0  0  0  0  0  0  0
  162.9120  208.1180  149.5640 C   0  0  0  0  0  2  0  0  0  0  0  0
  160.4590  202.7450  150.0250 C   0  0  0  0  0  3  0  0  0  0  0  0
  162.3290  206.9610  147.5160 N   0  0  0  0  0  0  0  0  0  0  0  0
  161.8930  205.9250  149.6960 N   0  0  0  0  0  2  0  0  0  0  0  0
  161.9250  206.0990  146.5890 N   0  0  0  0  0  2  0  0  0  0  0  0
  162.3270  206.9280  148.8810 C   0  0  0  0  0  0  0  0  0  0  0  0
  160.9910  203.8900  150.6010 C   0  0  0  0  0  2  0  0  0  0  0  0
  160.4690  202.8380  148.6790 N   0  0  0  0  0  0  0  0  0  0  0  0
  161.0030  204.0370  148.4010 C   0  0  0  0  0  0  0  0  0  0  0  0
  161.2380  204.5980  146.8430 S   0  0  0  0  0  0  0  0  0  0  0  0
  161.3320  204.7010  149.5410 C   0  0  0  0  0  0  0  0  0  0  0  0
  1 29  1  1  0  0  0
  1  5  1  0  0  0  0
  2  8  1  0  0  0  0
  3 11  2  0  0  0  0
  4  7  2  0  0  0  0
  5 12  2  0  0  0  0
  5  3  1  0  0  0  0
  6  4  1  0  0  0  0
  7 10  1  0  0  0  0
  8  7  1  0  0  0  0
  8 13  1  0  0  0  0
  9  2  2  0  0  0  0
 11  2  1  0  0  0  0
 11  4  1  0  0  0  0
 12  9  1  0  0  0  0
 14 13  1  0  0  0  0
 16 15  1  0  0  0  0
 16 14  1  0  0  0  0
 17  1  1  0  0  0  0
 18 17  1  0  0  0  0
 19 18  1  0  0  0  0
 20 19  1  0  0  0  0
 21 20  1  0  0  0  0
 22 23  2  0  0  0  0
 23 21  1  0  0  0  0
 24 23  1  0  0  0  0
 25 28  1  0  0  0  0
 25 24  2  0  0  0  0
 26 28  2  0  0  0  0
 28 27  1  0  0  0  0
 30 35  1  0  0  0  0
 31 34  2  0  0  0  0
 33 38  1  0  0  0  0
 33 31  1  0  0  0  0
 34 29  1  0  0  0  0
 34 32  1  0  0  0  0
 36 30  2  0  0  0  0
 37 36  1  0  0  0  0
 37 39  2  0  0  0  0
 38 37  1  0  0  0  0
 39 32  1  0  0  0  0
 39 35  1  0  0  0  0
M  END
>  <MODEL>
9

>  <REMARK>
 VINA RESULT:      -6.2      3.568      9.046
  Name = 
  14 active torsions:
  status: ('A' for Active; 'I' for Inactive)
    1  A    between atoms: N_1  and  C_11
    2  A    between atoms: N_1  and  C_24
    3  A    between atoms: C_3  and  C_4
    4  A    between atoms: C_3  and  N_29
    5  A    between atoms: C_4  and  C_22
    6  A    between atoms: N_6  and  C_33
    7  A    between atoms: C_7  and  C_24
    8  A    between atoms: C_7  and  C_34
    9  A    between atoms: C_11  and  C_23
   10  A    between atoms: C_11  and  C_39
   11  A    between atoms: C_12  and  C_39
   12  A    between atoms: C_15  and  C_27
   13  A    between atoms: C_33  and  C_37
   14  A    between atoms: C_34  and  C_37
                            x       y       z     vdW  Elec       q    Type
                         _______ _______ _______ _____ _____    ______ ____

>  <TORSDO>
F 14

$$$$
