=
 OpenBabel11042420033D

 42 49  0  0  1  0  0  0  0  0999 V2000
  160.4690  212.1550  141.8500 C   0  0  0  0  0  0  0  0  0  0  0  0
  161.5280  209.7170  150.3720 C   0  0  0  0  0  0  0  0  0  0  0  0
  162.5490  213.0480  146.5530 S   0  0  0  0  0  0  0  0  0  0  0  0
  162.1730  208.9970  149.4420 C   0  0  0  0  0  0  0  0  0  0  0  0
  161.5560  211.0880  149.9120 C   0  0  0  0  0  0  0  0  0  0  0  0
  161.8670  212.0350  142.3410 C   0  0  0  0  0  2  0  0  0  0  0  0
  162.2260  212.4400  148.2070 C   0  0  0  0  0  0  0  0  0  0  0  0
  159.6940  212.7030  142.8140 C   0  0  0  0  0  0  0  0  0  0  0  0
  157.4460  214.0430  140.2930 C   0  0  0  0  0  1  0  0  0  0  0  0
  160.5370  212.9110  143.9630 C   0  0  0  0  0  0  0  0  0  0  0  0
  162.2500  211.0890  148.6990 C   0  0  0  0  0  0  0  0  0  0  0  0
  160.9220  214.4530  148.7050 C   0  0  0  0  0  2  0  0  0  0  0  0
  160.2930  214.3140  147.3880 N   0  0  0  0  0  0  0  0  0  0  0  0
  161.5180  213.1380  149.0990 C   0  0  0  0  0  0  0  0  0  0  0  0
  162.6440  209.8800  148.3290 C   0  0  0  0  0  3  0  0  0  0  0  0
  161.7570  212.5440  143.7170 N   0  0  0  0  0  0  0  0  0  0  0  0
  160.8660  213.7160  146.3800 C   0  0  0  0  0  0  0  0  0  0  0  0
  160.1020  213.5270  145.1820 N   0  0  0  0  0  2  0  0  0  0  0  0
  159.8370  212.5560  140.3470 S   0  0  0  0  0  0  0  0  0  0  0  0
  158.5110  213.3460  141.0620 C   0  0  0  0  0  0  0  0  0  0  0  0
  158.6110  213.4110  142.4130 N   0  0  0  0  0  0  0  0  0  0  0  0
  161.0540  212.2770  150.2190 C   0  0  0  0  0  3  0  0  0  0  0  0
  161.3570  206.7650  148.7500 C   0  0  1  0  0  3  0  0  0  0  0  0
  161.2370  206.9390  150.1410 O   0  0  0  0  0  0  0  0  0  0  0  0
  162.3690  207.5140  149.5340 C   0  0  2  0  0  3  0  0  0  0  0  0
  161.8650  205.3670  148.4690 C   0  0  2  0  0  3  0  0  0  0  0  0
  160.9190  204.6850  147.5000 C   0  0  2  0  0  3  0  0  0  0  0  0
  160.8600  204.3580  148.9770 C   0  0  0  0  0  2  0  0  0  0  0  0
  161.6660  203.5840  146.7700 C   0  0  0  0  0  2  0  0  0  0  0  0
  161.2200  203.5100  145.3220 C   0  0  0  0  0  2  0  0  0  0  0  0
  161.2060  204.8930  144.6960 C   0  0  0  0  0  1  0  0  0  0  0  0
  160.9540  209.2090  151.5390 O   0  0  0  0  0  0  0  0  0  0  0  0
  159.0630  211.1370  156.7410 C   0  0  0  0  0  2  0  0  0  0  0  0
  159.9830  209.9140  152.2440 C   0  0  0  0  0  3  0  0  0  0  0  0
  159.1010  210.0310  155.6990 C   0  0  0  0  0  2  0  0  0  0  0  0
  160.2550  210.3070  154.8040 C   0  0  0  0  0  0  0  0  0  0  0  0
  159.8630  212.3140  156.2050 C   0  0  2  0  0  3  0  0  0  0  0  0
  160.1190  210.1080  153.5230 C   0  0  0  0  0  0  0  0  0  0  0  0
  161.3110  211.6280  155.3600 S   0  0  0  0  0  0  0  0  0  0  0  0
  160.2730  213.1300  157.2610 O   0  0  0  0  0  0  0  0  0  0  0  0
  158.8600  214.2910  155.7440 C   0  0  0  0  0  1  0  0  0  0  0  0
  159.7520  214.3890  156.9620 C   0  0  0  0  0  2  0  0  0  0  0  0
  1  6  1  0  0  0  0
  1  8  2  0  0  0  0
  2 32  1  0  0  0  0
  3  7  1  0  0  0  0
  4  2  2  0  0  0  0
  5 22  2  0  0  0  0
  5  2  1  0  0  0  0
  6 16  1  0  0  0  0
  7 11  1  0  0  0  0
  7 14  2  0  0  0  0
  8 10  1  0  0  0  0
  9 20  1  0  0  0  0
 10 18  1  0  0  0  0
 11  5  1  0  0  0  0
 12 14  1  0  0  0  0
 13 12  1  0  0  0  0
 14 22  1  0  0  0  0
 15 11  2  0  0  0  0
 15  4  1  0  0  0  0
 16 10  2  0  0  0  0
 17  3  1  0  0  0  0
 17 13  2  0  0  0  0
 18 17  1  0  0  0  0
 19 20  1  0  0  0  0
 19  1  1  0  0  0  0
 20 21  2  0  0  0  0
 21  8  1  0  0  0  0
 23 25  1  0  0  0  0
 23 24  1  1  0  0  0
 25  4  1  6  0  0  0
 25 24  1  0  0  0  0
 26 23  1  0  0  0  0
 26 28  1  1  0  0  0
 27 29  1  6  0  0  0
 27 26  1  0  0  0  0
 27 28  1  0  0  0  0
 30 29  1  0  0  0  0
 31 30  1  0  0  0  0
 32 34  1  0  0  0  0
 34 38  2  0  0  0  0
 35 33  1  0  0  0  0
 36 39  1  0  0  0  0
 36 35  1  0  0  0  0
 37 33  1  0  0  0  0
 37 40  1  1  0  0  0
 38 36  2  0  0  0  0
 39 37  1  0  0  0  0
 41 42  1  0  0  0  0
 42 40  1  0  0  0  0
M  END
>  <MODEL>
1

>  <REMARK>
 VINA RESULT:      -5.9      0.000      0.000
  Name = 
  8 active torsions:
  status: ('A' for Active; 'I' for Inactive)
    1  A    between atoms: C_2  and  O_13
    2  A    between atoms: C_5  and  C_6
    3  A    between atoms: C_7  and  O_13
    4  A    between atoms: C_10  and  O_12
    5  A    between atoms: C_11  and  C_30
    6  A    between atoms: O_12  and  C_41
    7  A    between atoms: C_20  and  C_24
    8  A    between atoms: C_20  and  C_31
                            x       y       z     vdW  Elec       q    Type
                         _______ _______ _______ _____ _____    ______ ____

>  <TORSDO>
F 8

$$$$
=
 OpenBabel11042420033D

 42 49  0  0  1  0  0  0  0  0999 V2000
  160.9550  202.8020  150.7920 C   0  0  0  0  0  0  0  0  0  0  0  0
  159.4370  211.4190  152.5640 C   0  0  0  0  0  0  0  0  0  0  0  0
  162.7520  207.6820  151.2340 S   0  0  0  0  0  0  0  0  0  0  0  0
  159.4420  210.5700  153.6020 C   0  0  0  0  0  0  0  0  0  0  0  0
  160.4530  210.9470  151.6500 C   0  0  0  0  0  0  0  0  0  0  0  0
  161.8250  203.4360  151.8180 C   0  0  0  0  0  2  0  0  0  0  0  0
  161.9890  209.3010  151.3020 C   0  0  0  0  0  0  0  0  0  0  0  0
  160.7330  203.6730  149.7820 C   0  0  0  0  0  0  0  0  0  0  0  0
  160.2530  200.9170  147.4630 C   0  0  0  0  0  1  0  0  0  0  0  0
  161.4010  204.9000  150.1310 C   0  0  0  0  0  0  0  0  0  0  0  0
  161.0210  209.8110  152.2360 C   0  0  0  0  0  0  0  0  0  0  0  0
  162.4580  209.6370  148.9220 C   0  0  0  0  0  2  0  0  0  0  0  0
  162.0000  208.2640  148.6860 N   0  0  0  0  0  0  0  0  0  0  0  0
  161.9260  210.1070  150.2380 C   0  0  0  0  0  0  0  0  0  0  0  0
  160.4690  209.5000  153.3980 C   0  0  0  0  0  3  0  0  0  0  0  0
  162.0190  204.7860  151.2670 N   0  0  0  0  0  0  0  0  0  0  0  0
  162.0470  207.3280  149.5940 C   0  0  0  0  0  0  0  0  0  0  0  0
  161.4520  206.0600  149.2910 N   0  0  0  0  0  2  0  0  0  0  0  0
  160.8880  201.2370  150.1880 S   0  0  0  0  0  0  0  0  0  0  0  0
  160.4650  201.8000  148.6410 C   0  0  0  0  0  0  0  0  0  0  0  0
  160.4950  203.1540  148.5540 N   0  0  0  0  0  0  0  0  0  0  0  0
  160.9190  211.1840  150.4310 C   0  0  0  0  0  3  0  0  0  0  0  0
  158.7680  211.9510  155.5420 C   0  0  1  0  0  3  0  0  0  0  0  0
  159.3000  210.7180  155.9590 O   0  0  0  0  0  0  0  0  0  0  0  0
  158.5280  210.7000  154.7830 C   0  0  2  0  0  3  0  0  0  0  0  0
  157.5520  212.2760  156.3830 C   0  0  2  0  0  3  0  0  0  0  0  0
  156.9440  213.5730  155.8890 C   0  0  2  0  0  3  0  0  0  0  0  0
  157.7960  213.5630  157.1390 C   0  0  0  0  0  2  0  0  0  0  0  0
  155.4780  213.6130  156.2790 C   0  0  0  0  0  2  0  0  0  0  0  0
  154.6700  214.3590  155.2330 C   0  0  0  0  0  2  0  0  0  0  0  0
  155.4320  214.4320  153.9230 C   0  0  0  0  0  1  0  0  0  0  0  0
  158.5990  212.5270  152.4260 O   0  0  0  0  0  0  0  0  0  0  0  0
  156.7760  214.0940  147.0800 C   0  0  0  0  0  2  0  0  0  0  0  0
  157.5570  212.5470  151.5030 C   0  0  0  0  0  3  0  0  0  0  0  0
  156.9750  214.4520  148.5430 C   0  0  0  0  0  2  0  0  0  0  0  0
  157.9530  213.4850  149.1060 C   0  0  0  0  0  0  0  0  0  0  0  0
  157.2360  212.6580  146.8820 C   0  0  2  0  0  3  0  0  0  0  0  0
  157.7560  213.0180  150.3070 C   0  0  0  0  0  0  0  0  0  0  0  0
  158.7240  212.4350  147.8930 S   0  0  0  0  0  0  0  0  0  0  0  0
  157.5400  212.4370  145.5380 O   0  0  0  0  0  0  0  0  0  0  0  0
  159.3810  212.4630  144.0360 C   0  0  0  0  0  1  0  0  0  0  0  0
  158.9340  212.4370  145.4820 C   0  0  0  0  0  2  0  0  0  0  0  0
  1  6  1  0  0  0  0
  2  4  1  0  0  0  0
  3  7  1  0  0  0  0
  5 11  1  0  0  0  0
  5  2  2  0  0  0  0
  7 11  2  0  0  0  0
  8 10  1  0  0  0  0
  8  1  2  0  0  0  0
  9 20  1  0  0  0  0
 10 16  2  0  0  0  0
 11 15  1  0  0  0  0
 12 14  1  0  0  0  0
 13 12  1  0  0  0  0
 13 17  2  0  0  0  0
 14 22  2  0  0  0  0
 14  7  1  0  0  0  0
 15  4  2  0  0  0  0
 16  6  1  0  0  0  0
 17  3  1  0  0  0  0
 18 17  1  0  0  0  0
 18 10  1  0  0  0  0
 19  1  1  0  0  0  0
 20 19  1  0  0  0  0
 21 20  2  0  0  0  0
 21  8  1  0  0  0  0
 22  5  1  0  0  0  0
 23 24  1  1  0  0  0
 23 26  1  0  0  0  0
 25  4  1  6  0  0  0
 25 23  1  0  0  0  0
 25 24  1  0  0  0  0
 26 28  1  1  0  0  0
 27 29  1  1  0  0  0
 27 26  1  0  0  0  0
 27 28  1  0  0  0  0
 30 29  1  0  0  0  0
 31 30  1  0  0  0  0
 32  2  1  0  0  0  0
 33 35  1  0  0  0  0
 34 32  1  0  0  0  0
 35 36  1  0  0  0  0
 36 38  2  0  0  0  0
 37 40  1  6  0  0  0
 37 33  1  0  0  0  0
 37 39  1  0  0  0  0
 38 34  2  0  0  0  0
 39 36  1  0  0  0  0
 41 42  1  0  0  0  0
 42 40  1  0  0  0  0
M  END
>  <MODEL>
2

>  <REMARK>
 VINA RESULT:      -5.1      4.364      9.818
  Name = 
  8 active torsions:
  status: ('A' for Active; 'I' for Inactive)
    1  A    between atoms: C_2  and  O_13
    2  A    between atoms: C_5  and  C_6
    3  A    between atoms: C_7  and  O_13
    4  A    between atoms: C_10  and  O_12
    5  A    between atoms: C_11  and  C_30
    6  A    between atoms: O_12  and  C_41
    7  A    between atoms: C_20  and  C_24
    8  A    between atoms: C_20  and  C_31
                            x       y       z     vdW  Elec       q    Type
                         _______ _______ _______ _____ _____    ______ ____

>  <TORSDO>
F 8

$$$$
=
 OpenBabel11042420033D

 42 49  0  0  1  0  0  0  0  0999 V2000
  156.7500  213.8880  155.4720 C   0  0  0  0  0  0  0  0  0  0  0  0
  161.8970  209.7810  149.4450 C   0  0  0  0  0  0  0  0  0  0  0  0
  161.1040  211.2430  154.3400 S   0  0  0  0  0  0  0  0  0  0  0  0
  161.8570  211.1210  149.4090 C   0  0  0  0  0  0  0  0  0  0  0  0
  161.8350  209.4130  150.8430 C   0  0  0  0  0  0  0  0  0  0  0  0
  158.1690  214.3250  155.3990 C   0  0  0  0  0  2  0  0  0  0  0  0
  161.6440  210.2450  152.9540 C   0  0  0  0  0  0  0  0  0  0  0  0
  156.6780  212.5470  155.3210 C   0  0  0  0  0  0  0  0  0  0  0  0
  153.6060  212.4570  157.2600 C   0  0  0  0  0  1  0  0  0  0  0  0
  158.0210  212.0760  155.1000 C   0  0  0  0  0  0  0  0  0  0  0  0
  161.7700  210.6060  151.5680 C   0  0  0  0  0  0  0  0  0  0  0  0
  161.0520  208.2070  154.1760 C   0  0  0  0  0  2  0  0  0  0  0  0
  159.8070  208.8660  154.5790 N   0  0  0  0  0  0  0  0  0  0  0  0
  161.6080  208.9100  152.9790 C   0  0  0  0  0  0  0  0  0  0  0  0
  161.7620  211.6800  150.7930 C   0  0  0  0  0  3  0  0  0  0  0  0
  158.8700  213.0570  155.1410 N   0  0  0  0  0  0  0  0  0  0  0  0
  159.6800  210.1610  154.6710 C   0  0  0  0  0  0  0  0  0  0  0  0
  158.3790  210.6970  154.9470 N   0  0  0  0  0  2  0  0  0  0  0  0
  155.4660  214.4000  156.4250 S   0  0  0  0  0  0  0  0  0  0  0  0
  154.8280  212.8250  156.4960 C   0  0  0  0  0  0  0  0  0  0  0  0
  155.6400  211.9090  155.9130 N   0  0  0  0  0  0  0  0  0  0  0  0
  161.7170  208.3380  151.6100 C   0  0  0  0  0  3  0  0  0  0  0  0
  160.7830  212.8880  148.0490 C   0  0  1  0  0  3  0  0  0  0  0  0
  160.7350  211.6450  147.3930 O   0  0  0  0  0  0  0  0  0  0  0  0
  161.8980  211.9150  148.1380 C   0  0  2  0  0  3  0  0  0  0  0  0
  161.1280  213.9660  147.0430 C   0  0  2  0  0  3  0  0  0  0  0  0
  162.2580  213.4730  146.1620 C   0  0  2  0  0  3  0  0  0  0  0  0
  162.5420  214.4440  147.2880 C   0  0  0  0  0  2  0  0  0  0  0  0
  162.2230  214.2260  144.8450 C   0  0  0  0  0  2  0  0  0  0  0  0
  163.4700  213.9310  144.0320 C   0  0  0  0  0  2  0  0  0  0  0  0
  163.1290  213.8150  142.5570 C   0  0  0  0  0  1  0  0  0  0  0  0
  161.9790  208.9390  148.3340 O   0  0  0  0  0  0  0  0  0  0  0  0
  161.1390  203.1710  147.7240 C   0  0  0  0  0  2  0  0  0  0  0  0
  162.5230  207.6620  148.4220 C   0  0  0  0  0  3  0  0  0  0  0  0
  161.0620  204.4120  148.5990 C   0  0  0  0  0  2  0  0  0  0  0  0
  161.1180  205.5920  147.6970 C   0  0  0  0  0  0  0  0  0  0  0  0
  161.7210  203.5800  146.3800 C   0  0  2  0  0  3  0  0  0  0  0  0
  161.8190  206.6280  148.0620 C   0  0  0  0  0  0  0  0  0  0  0  0
  161.0100  205.1950  145.9660 S   0  0  0  0  0  0  0  0  0  0  0  0
  161.3710  202.6450  145.4060 O   0  0  0  0  0  0  0  0  0  0  0  0
  160.5130  200.4300  145.3200 C   0  0  0  0  0  1  0  0  0  0  0  0
  160.5200  201.7520  146.0580 C   0  0  0  0  0  2  0  0  0  0  0  0
  1 19  1  0  0  0  0
  2  5  1  0  0  0  0
  3 17  1  0  0  0  0
  4  2  2  0  0  0  0
  4 15  1  0  0  0  0
  5 11  1  0  0  0  0
  5 22  2  0  0  0  0
  6  1  1  0  0  0  0
  7 14  2  0  0  0  0
  7  3  1  0  0  0  0
  8  1  2  0  0  0  0
  8 21  1  0  0  0  0
 10 16  2  0  0  0  0
 10  8  1  0  0  0  0
 11  7  1  0  0  0  0
 12 13  1  0  0  0  0
 13 17  2  0  0  0  0
 14 12  1  0  0  0  0
 15 11  2  0  0  0  0
 16  6  1  0  0  0  0
 17 18  1  0  0  0  0
 18 10  1  0  0  0  0
 19 20  1  0  0  0  0
 20  9  1  0  0  0  0
 21 20  2  0  0  0  0
 22 14  1  0  0  0  0
 23 24  1  6  0  0  0
 23 25  1  0  0  0  0
 24 25  1  0  0  0  0
 25  4  1  1  0  0  0
 26 28  1  1  0  0  0
 26 23  1  0  0  0  0
 27 29  1  6  0  0  0
 27 26  1  0  0  0  0
 27 28  1  0  0  0  0
 30 29  1  0  0  0  0
 31 30  1  0  0  0  0
 32 34  1  0  0  0  0
 32  2  1  0  0  0  0
 33 35  1  0  0  0  0
 36 38  2  0  0  0  0
 36 35  1  0  0  0  0
 37 40  1  6  0  0  0
 37 33  1  0  0  0  0
 38 34  2  0  0  0  0
 39 37  1  0  0  0  0
 39 36  1  0  0  0  0
 40 42  1  0  0  0  0
 41 42  1  0  0  0  0
M  END
>  <MODEL>
3

>  <REMARK>
 VINA RESULT:      -4.5      4.555     10.440
  Name = 
  8 active torsions:
  status: ('A' for Active; 'I' for Inactive)
    1  A    between atoms: C_2  and  O_13
    2  A    between atoms: C_5  and  C_6
    3  A    between atoms: C_7  and  O_13
    4  A    between atoms: C_10  and  O_12
    5  A    between atoms: C_11  and  C_30
    6  A    between atoms: O_12  and  C_41
    7  A    between atoms: C_20  and  C_24
    8  A    between atoms: C_20  and  C_31
                            x       y       z     vdW  Elec       q    Type
                         _______ _______ _______ _____ _____    ______ ____

>  <TORSDO>
F 8

$$$$
