=
 OpenBabel11042420203D

 51 54  0  0  1  0  0  0  0  0999 V2000
  160.9430  208.7100  152.7640 C   0  0  1  0  0  3  0  0  0  0  0  0
  162.5240  211.1180  155.7580 O   0  0  0  0  0  0  0  0  0  0  0  0
  161.8400  210.9430  153.5180 C   0  0  0  0  0  2  0  0  0  0  0  0
  160.7460  206.1300  153.9700 Cl  0  0  0  0  0  0  0  0  0  0  0  0
  160.5060  209.9290  155.5210 C   0  0  2  0  0  3  0  0  0  0  0  0
  161.6750  210.7040  154.9860 C   0  0  0  0  0  0  0  0  0  0  0  0
  160.7710  207.8870  154.0290 C   0  0  0  0  0  0  0  0  0  0  0  0
  162.1600  209.6480  152.7860 C   0  0  0  0  0  2  0  0  0  0  0  0
  160.5790  208.4520  155.2330 C   0  0  0  0  0  3  0  0  0  0  0  0
  159.1840  210.5340  155.1590 C   0  0  0  0  0  0  0  0  0  0  0  0
  159.0790  211.9320  154.8800 N   0  0  0  0  0  2  0  0  0  0  0  0
  158.1650  209.7960  155.1020 O   0  0  0  0  0  0  0  0  0  0  0  0
  157.8090  212.5830  154.5910 C   0  0  2  0  0  3  0  0  0  0  0  0
  158.0620  213.9020  153.8630 C   0  0  1  0  0  3  0  0  0  0  0  0
  159.3960  213.9070  153.2780 N   0  0  0  0  0  2  0  0  0  0  0  0
  157.1330  214.0390  152.7020 C   0  0  0  0  0  2  0  0  0  0  0  0
  158.0350  213.7370  151.5350 C   0  0  1  0  0  3  0  0  0  0  0  0
  159.3030  213.3750  152.0250 O   0  0  0  0  0  0  0  0  0  0  0  0
  157.4750  212.6720  150.7010 N   0  0  0  0  0  2  0  0  0  0  0  0
  157.0500  213.2240  149.4780 N   0  0  0  0  0  0  0  0  0  0  0  0
  155.9780  214.0080  149.7420 O   0  0  0  0  0  1  0  0  0  0  0  0
  158.1250  214.0730  148.9580 C   0  0  0  0  0  2  0  0  0  0  0  0
  159.0190  213.3290  148.0730 N   0  0  0  0  0  0  0  0  0  0  0  0
  158.6790  213.7180  146.7120 C   0  0  0  0  0  3  0  0  0  0  0  0
  158.9540  212.5620  145.7660 C   0  0  0  0  0  2  0  0  0  0  0  0
  157.5370  212.8570  146.2020 C   0  0  0  0  0  2  0  0  0  0  0  0
  160.3610  213.8330  148.3310 C   0  0  0  0  0  2  0  0  0  0  0  0
  161.2410  212.7290  148.8920 C   0  0  0  0  0  2  0  0  0  0  0  0
  163.1030  212.2530  147.9440 O   0  0  0  0  0  1  0  0  0  0  0  0
  161.8150  212.0010  147.8500 O   0  0  0  0  0  0  0  0  0  0  0  0
  157.0670  212.8450  155.8970 C   0  0  0  0  0  2  0  0  0  0  0  0
  155.8430  211.9560  156.0060 C   0  0  0  0  0  1  0  0  0  0  0  0
  160.8080  207.9620  151.5710 O   0  0  0  0  0  0  0  0  0  0  0  0
  161.9310  208.1820  150.7510 C   0  0  0  0  0  2  0  0  0  0  0  0
  161.5530  208.0180  149.2900 C   0  0  0  0  0  2  0  0  0  0  0  0
  162.5090  207.0630  148.6010 C   0  0  0  0  0  2  0  0  0  0  0  0
  160.1260  206.1510  147.7900 O   0  0  0  0  0  0  0  0  0  0  0  0
  161.5970  205.9300  147.5740 S   0  0  0  0  0  0  0  0  0  0  0  0
  161.9350  206.1730  146.1300 O   0  0  0  0  0  0  0  0  0  0  0  0
  162.0250  204.3080  148.0000 N   0  0  0  0  0  2  0  0  0  0  0  0
  161.1000  202.0050  148.1380 C   0  0  0  0  0  0  0  0  0  0  0  0
  160.1320  201.1020  147.3960 C   0  0  0  0  0  1  0  0  0  0  0  0
  160.5370  202.8190  149.2960 C   0  0  2  0  0  0  0  0  0  0  0  0
  159.1750  202.6440  149.5530 O   0  0  0  0  0  1  0  0  0  0  0  0
  162.5600  201.5720  148.2060 C   0  0  0  0  0  1  0  0  0  0  0  0
  160.8100  203.5020  147.9510 C   0  0  1  0  0  3  0  0  0  0  0  0
  161.4430  203.1410  150.4890 C   0  0  2  0  0  3  0  0  0  0  0  0
  162.5420  201.7120  152.0520 O   0  0  0  0  0  1  0  0  0  0  0  0
  161.2890  202.0840  151.5690 C   0  0  0  0  0  2  0  0  0  0  0  0
  162.2620  204.9710  151.5150 O   0  0  0  0  0  1  0  0  0  0  0  0
  161.1130  204.4510  151.0250 N   0  0  0  0  0  2  0  0  0  0  0  0
  1 33  1  6  0  0  0
  1  8  1  0  0  0  0
  1  7  1  0  0  0  0
  3  6  1  0  0  0  0
  4  7  1  0  0  0  0
  5 10  1  6  0  0  0
  6  5  1  0  0  0  0
  6  2  2  0  0  0  0
  7  9  2  0  0  0  0
  8  3  1  0  0  0  0
  9  5  1  0  0  0  0
 11 10  1  0  0  0  0
 12 10  2  0  0  0  0
 13 11  1  0  0  0  0
 13 31  1  1  0  0  0
 14 13  1  6  0  0  0
 15 14  1  0  0  0  0
 16 14  1  0  0  0  0
 17 19  1  1  0  0  0
 17 18  1  0  0  0  0
 17 16  1  0  0  0  0
 18 15  1  0  0  0  0
 20 21  1  0  0  0  0
 20 19  1  0  0  0  0
 22 20  1  0  0  0  0
 23 27  1  0  0  0  0
 23 22  1  0  0  0  0
 24 23  1  0  0  0  0
 25 26  1  0  0  0  0
 25 24  1  0  0  0  0
 26 24  1  0  0  0  0
 27 28  1  0  0  0  0
 30 29  1  0  0  0  0
 30 28  1  0  0  0  0
 31 32  1  0  0  0  0
 34 33  1  0  0  0  0
 35 34  1  0  0  0  0
 36 35  1  0  0  0  0
 38 37  2  0  0  0  0
 38 40  1  0  0  0  0
 38 36  1  0  0  0  0
 39 38  2  0  0  0  0
 41 45  1  0  0  0  0
 41 43  1  0  0  0  0
 42 41  1  0  0  0  0
 43 44  1  1  0  0  0
 43 47  1  0  0  0  0
 46 40  1  1  0  0  0
 46 41  1  0  0  0  0
 46 43  1  0  0  0  0
 47 51  1  0  0  0  0
 47 49  1  1  0  0  0
 49 48  1  0  0  0  0
 51 50  1  0  0  0  0
M  END
>  <MODEL>
1

>  <REMARK>
 VINA RESULT:      -3.6      0.000      0.000
  Name = 
  22 active torsions:
  status: ('A' for Active; 'I' for Inactive)
    1  A    between atoms: C_2  and  C_14
    2  A    between atoms: C_2  and  N_21
    3  A    between atoms: C_2  and  C_40
    4  A    between atoms: C_3  and  C_28
    5  A    between atoms: C_5  and  N_23
    6  A    between atoms: O_7  and  C_8
    7  A    between atoms: O_7  and  C_19
    8  A    between atoms: O_11  and  C_37
    9  A    between atoms: C_12  and  C_24
   10  A    between atoms: C_12  and  S_36
   11  A    between atoms: C_15  and  C_42
   12  A    between atoms: C_18  and  N_23
   13  A    between atoms: C_18  and  N_31
   14  A    between atoms: C_19  and  C_24
   15  A    between atoms: N_20  and  N_31
   16  A    between atoms: N_20  and  C_38
   17  A    between atoms: N_23  and  C_27
   18  A    between atoms: C_27  and  C_37
   19  A    between atoms: C_29  and  C_42
   20  A    between atoms: N_35  and  C_42
   21  A    between atoms: S_36  and  N_44
   22  A    between atoms: N_44  and  C_51
                            x       y       z     vdW  Elec       q    Type
                         _______ _______ _______ _____ _____    ______ ____

>  <TORSDO>
F 22

$$$$
=
 OpenBabel11042420203D

 51 54  0  0  1  0  0  0  0  0999 V2000
  160.6150  212.7380  146.1930 C   0  0  1  0  0  3  0  0  0  0  0  0
  160.8030  213.7140  150.2270 O   0  0  0  0  0  0  0  0  0  0  0  0
  159.6240  212.6300  148.5090 C   0  0  0  0  0  2  0  0  0  0  0  0
  162.8290  214.1170  145.0340 Cl  0  0  0  0  0  0  0  0  0  0  0  0
  162.2200  212.5220  148.7730 C   0  0  2  0  0  3  0  0  0  0  0  0
  160.8750  212.9930  149.2450 C   0  0  0  0  0  0  0  0  0  0  0  0
  162.0070  213.3190  146.3680 C   0  0  0  0  0  0  0  0  0  0  0  0
  159.5670  213.3200  147.1550 C   0  0  0  0  0  2  0  0  0  0  0  0
  162.6920  213.2090  147.5180 C   0  0  0  0  0  3  0  0  0  0  0  0
  162.3290  211.0300  148.7030 C   0  0  0  0  0  0  0  0  0  0  0  0
  161.9810  210.2240  149.8320 N   0  0  0  0  0  2  0  0  0  0  0  0
  162.7300  210.4920  147.6380 O   0  0  0  0  0  0  0  0  0  0  0  0
  162.1340  208.7770  149.8420 C   0  0  2  0  0  3  0  0  0  0  0  0
  160.8520  208.1210  149.3330 C   0  0  1  0  0  3  0  0  0  0  0  0
  160.7220  208.3160  147.8960 N   0  0  0  0  0  2  0  0  0  0  0  0
  160.9190  206.6400  149.5160 C   0  0  0  0  0  2  0  0  0  0  0  0
  161.1900  206.1590  148.1150 C   0  0  1  0  0  3  0  0  0  0  0  0
  161.3530  207.2770  147.2760 O   0  0  0  0  0  0  0  0  0  0  0  0
  162.3770  205.3020  148.0760 N   0  0  0  0  0  2  0  0  0  0  0  0
  162.3360  204.5200  146.9060 N   0  0  0  0  0  0  0  0  0  0  0  0
  163.4740  203.7850  146.8740 O   0  0  0  0  0  1  0  0  0  0  0  0
  161.1990  203.6020  147.0050 C   0  0  0  0  0  2  0  0  0  0  0  0
  161.4670  202.5100  147.9390 N   0  0  0  0  0  0  0  0  0  0  0  0
  160.4960  202.6320  149.0160 C   0  0  0  0  0  3  0  0  0  0  0  0
  160.7500  201.5580  150.0590 C   0  0  0  0  0  2  0  0  0  0  0  0
  161.2080  202.9750  150.3130 C   0  0  0  0  0  2  0  0  0  0  0  0
  161.1520  201.2780  147.2280 C   0  0  0  0  0  2  0  0  0  0  0  0
  160.6820  201.5900  145.8170 C   0  0  0  0  0  2  0  0  0  0  0  0
  161.1290  199.4980  145.6860 O   0  0  0  0  0  1  0  0  0  0  0  0
  160.3430  200.4090  145.1550 O   0  0  0  0  0  0  0  0  0  0  0  0
  162.4270  208.3090  151.2630 C   0  0  0  0  0  2  0  0  0  0  0  0
  161.8390  209.2720  152.2770 C   0  0  0  0  0  1  0  0  0  0  0  0
  160.1890  212.6640  144.8460 O   0  0  0  0  0  0  0  0  0  0  0  0
  158.9820  213.3710  144.6970 C   0  0  0  0  0  2  0  0  0  0  0  0
  158.7650  213.7390  143.2400 C   0  0  0  0  0  2  0  0  0  0  0  0
  159.9340  213.2660  142.3970 C   0  0  0  0  0  2  0  0  0  0  0  0
  157.9680  213.4030  140.5850 O   0  0  0  0  0  0  0  0  0  0  0  0
  159.4520  213.1880  140.6850 S   0  0  0  0  0  0  0  0  0  0  0  0
  160.1680  214.2580  139.9090 O   0  0  0  0  0  0  0  0  0  0  0  0
  159.8740  211.6350  140.0470 N   0  0  0  0  0  2  0  0  0  0  0  0
  162.2150  211.4090  139.2440 C   0  0  0  0  0  0  0  0  0  0  0  0
  163.2750  212.2240  138.5260 C   0  0  0  0  0  1  0  0  0  0  0  0
  161.3250  210.5210  138.3850 C   0  0  2  0  0  0  0  0  0  0  0  0
  161.5830  210.5530  137.0120 O   0  0  0  0  0  1  0  0  0  0  0  0
  162.5140  210.9620  140.6710 C   0  0  0  0  0  1  0  0  0  0  0  0
  160.7790  211.8490  138.9230 C   0  0  1  0  0  3  0  0  0  0  0  0
  160.7950  209.2080  138.9710 C   0  0  2  0  0  3  0  0  0  0  0  0
  161.5480  207.2580  140.1210 O   0  0  0  0  0  1  0  0  0  0  0  0
  161.9370  208.2350  139.2060 C   0  0  0  0  0  2  0  0  0  0  0  0
  158.6370  209.2290  138.3240 O   0  0  0  0  0  1  0  0  0  0  0  0
  159.8190  208.6200  138.0700 N   0  0  0  0  0  2  0  0  0  0  0  0
  1 33  1  6  0  0  0
  1  7  1  0  0  0  0
  1  8  1  0  0  0  0
  3  6  1  0  0  0  0
  4  7  1  0  0  0  0
  5 10  1  6  0  0  0
  5  6  1  0  0  0  0
  6  2  2  0  0  0  0
  7  9  2  0  0  0  0
  8  3  1  0  0  0  0
  9  5  1  0  0  0  0
 10 11  1  0  0  0  0
 11 13  1  0  0  0  0
 12 10  2  0  0  0  0
 13 31  1  1  0  0  0
 14 16  1  0  0  0  0
 14 13  1  6  0  0  0
 15 14  1  0  0  0  0
 17 19  1  1  0  0  0
 17 16  1  0  0  0  0
 18 15  1  0  0  0  0
 18 17  1  0  0  0  0
 20 22  1  0  0  0  0
 20 19  1  0  0  0  0
 21 20  1  0  0  0  0
 22 23  1  0  0  0  0
 23 24  1  0  0  0  0
 24 25  1  0  0  0  0
 24 26  1  0  0  0  0
 25 26  1  0  0  0  0
 27 23  1  0  0  0  0
 28 27  1  0  0  0  0
 30 29  1  0  0  0  0
 30 28  1  0  0  0  0
 31 32  1  0  0  0  0
 34 33  1  0  0  0  0
 35 34  1  0  0  0  0
 36 35  1  0  0  0  0
 37 38  2  0  0  0  0
 38 36  1  0  0  0  0
 39 38  2  0  0  0  0
 40 38  1  0  0  0  0
 41 45  1  0  0  0  0
 42 41  1  0  0  0  0
 43 44  1  6  0  0  0
 43 46  1  0  0  0  0
 43 47  1  0  0  0  0
 43 41  1  0  0  0  0
 46 41  1  0  0  0  0
 46 40  1  1  0  0  0
 47 49  1  6  0  0  0
 49 48  1  0  0  0  0
 51 50  1  0  0  0  0
 51 47  1  0  0  0  0
M  END
>  <MODEL>
2

>  <REMARK>
 VINA RESULT:      -3.2      5.258     10.546
  Name = 
  22 active torsions:
  status: ('A' for Active; 'I' for Inactive)
    1  A    between atoms: C_2  and  C_14
    2  A    between atoms: C_2  and  N_21
    3  A    between atoms: C_2  and  C_40
    4  A    between atoms: C_3  and  C_28
    5  A    between atoms: C_5  and  N_23
    6  A    between atoms: O_7  and  C_8
    7  A    between atoms: O_7  and  C_19
    8  A    between atoms: O_11  and  C_37
    9  A    between atoms: C_12  and  C_24
   10  A    between atoms: C_12  and  S_36
   11  A    between atoms: C_15  and  C_42
   12  A    between atoms: C_18  and  N_23
   13  A    between atoms: C_18  and  N_31
   14  A    between atoms: C_19  and  C_24
   15  A    between atoms: N_20  and  N_31
   16  A    between atoms: N_20  and  C_38
   17  A    between atoms: N_23  and  C_27
   18  A    between atoms: C_27  and  C_37
   19  A    between atoms: C_29  and  C_42
   20  A    between atoms: N_35  and  C_42
   21  A    between atoms: S_36  and  N_44
   22  A    between atoms: N_44  and  C_51
                            x       y       z     vdW  Elec       q    Type
                         _______ _______ _______ _____ _____    ______ ____

>  <TORSDO>
F 22

$$$$
=
 OpenBabel11042420203D

 51 54  0  0  1  0  0  0  0  0999 V2000
  161.1950  208.4240  153.2200 C   0  0  1  0  0  3  0  0  0  0  0  0
  162.1940  210.9970  156.3260 O   0  0  0  0  0  0  0  0  0  0  0  0
  162.0240  210.6720  154.0060 C   0  0  0  0  0  2  0  0  0  0  0  0
  160.5820  205.9590  154.5220 Cl  0  0  0  0  0  0  0  0  0  0  0  0
  160.2160  209.8750  155.7130 C   0  0  2  0  0  3  0  0  0  0  0  0
  161.5190  210.5580  155.4090 C   0  0  0  0  0  0  0  0  0  0  0  0
  160.6940  207.7130  154.4650 C   0  0  0  0  0  0  0  0  0  0  0  0
  162.4270  209.3110  153.4570 C   0  0  0  0  0  2  0  0  0  0  0  0
  160.2680  208.3790  155.5510 C   0  0  0  0  0  3  0  0  0  0  0  0
  159.0480  210.5030  155.0170 C   0  0  0  0  0  0  0  0  0  0  0  0
  158.1630  211.3730  155.7270 N   0  0  0  0  0  2  0  0  0  0  0  0
  158.8540  210.2550  153.7980 O   0  0  0  0  0  0  0  0  0  0  0  0
  156.9750  211.9530  155.1180 C   0  0  2  0  0  3  0  0  0  0  0  0
  157.0880  213.4760  155.1200 C   0  0  1  0  0  3  0  0  0  0  0  0
  158.4310  213.8820  154.7320 N   0  0  0  0  0  2  0  0  0  0  0  0
  156.1930  214.0640  154.0790 C   0  0  0  0  0  2  0  0  0  0  0  0
  157.1690  214.4390  152.9960 C   0  0  1  0  0  3  0  0  0  0  0  0
  158.4530  214.0060  153.3730 O   0  0  0  0  0  0  0  0  0  0  0  0
  156.7790  213.8540  151.7120 N   0  0  0  0  0  2  0  0  0  0  0  0
  157.9260  213.7090  150.9090 N   0  0  0  0  0  0  0  0  0  0  0  0
  158.1620  212.3820  150.7810 O   0  0  0  0  0  1  0  0  0  0  0  0
  157.6300  214.2540  149.5820 C   0  0  0  0  0  2  0  0  0  0  0  0
  158.8470  214.4530  148.7970 N   0  0  0  0  0  0  0  0  0  0  0  0
  159.7890  213.4270  149.2190 C   0  0  0  0  0  3  0  0  0  0  0  0
  161.0090  213.4480  148.3140 C   0  0  0  0  0  2  0  0  0  0  0  0
  161.0790  214.0760  149.6870 C   0  0  0  0  0  2  0  0  0  0  0  0
  158.4950  214.1570  147.4150 C   0  0  0  0  0  2  0  0  0  0  0  0
  157.0060  213.8800  147.2980 C   0  0  0  0  0  2  0  0  0  0  0  0
  157.4200  213.9730  145.1970 O   0  0  0  0  0  1  0  0  0  0  0  0
  156.7280  213.2760  146.0720 O   0  0  0  0  0  0  0  0  0  0  0  0
  155.7420  211.5230  155.9060 C   0  0  0  0  0  2  0  0  0  0  0  0
  155.2210  210.1900  155.4020 C   0  0  0  0  0  1  0  0  0  0  0  0
  161.2900  207.5900  152.0810 O   0  0  0  0  0  0  0  0  0  0  0  0
  162.4950  207.8570  151.4050 C   0  0  0  0  0  2  0  0  0  0  0  0
  162.2270  208.0870  149.9290 C   0  0  0  0  0  2  0  0  0  0  0  0
  162.4830  206.8160  149.1410 C   0  0  0  0  0  2  0  0  0  0  0  0
  159.9100  206.1110  149.3690 O   0  0  0  0  0  0  0  0  0  0  0  0
  160.9850  206.2920  148.3340 S   0  0  0  0  0  0  0  0  0  0  0  0
  160.5550  207.3350  147.3410 O   0  0  0  0  0  0  0  0  0  0  0  0
  161.2770  204.7980  147.5100 N   0  0  0  0  0  2  0  0  0  0  0  0
  161.9400  204.7040  145.1160 C   0  0  0  0  0  0  0  0  0  0  0  0
  161.8010  205.5200  143.8450 C   0  0  0  0  0  1  0  0  0  0  0  0
  160.8910  203.6290  145.3670 C   0  0  2  0  0  0  0  0  0  0  0  0
  159.9010  203.5100  144.3880 O   0  0  0  0  0  1  0  0  0  0  0  0
  163.3470  204.4750  145.6590 C   0  0  0  0  0  1  0  0  0  0  0  0
  160.8180  204.9540  146.1340 C   0  0  1  0  0  3  0  0  0  0  0  0
  161.2930  202.3560  146.1200 C   0  0  2  0  0  3  0  0  0  0  0  0
  161.1460  199.9780  145.9910 O   0  0  0  0  0  1  0  0  0  0  0  0
  160.5310  201.1590  145.5790 C   0  0  0  0  0  2  0  0  0  0  0  0
  161.3230  201.3290  148.1240 O   0  0  0  0  0  1  0  0  0  0  0  0
  161.0280  202.5140  147.5400 N   0  0  0  0  0  2  0  0  0  0  0  0
  1 33  1  6  0  0  0
  1  8  1  0  0  0  0
  1  7  1  0  0  0  0
  3  6  1  0  0  0  0
  5 10  1  6  0  0  0
  6  5  1  0  0  0  0
  6  2  2  0  0  0  0
  7  4  1  0  0  0  0
  7  9  2  0  0  0  0
  8  3  1  0  0  0  0
  9  5  1  0  0  0  0
 10 11  1  0  0  0  0
 12 10  2  0  0  0  0
 13 11  1  0  0  0  0
 13 31  1  1  0  0  0
 14 13  1  6  0  0  0
 15 14  1  0  0  0  0
 16 14  1  0  0  0  0
 17 19  1  6  0  0  0
 17 18  1  0  0  0  0
 17 16  1  0  0  0  0
 18 15  1  0  0  0  0
 20 19  1  0  0  0  0
 21 20  1  0  0  0  0
 22 20  1  0  0  0  0
 23 24  1  0  0  0  0
 23 22  1  0  0  0  0
 24 26  1  0  0  0  0
 25 24  1  0  0  0  0
 25 26  1  0  0  0  0
 27 23  1  0  0  0  0
 28 27  1  0  0  0  0
 29 30  1  0  0  0  0
 30 28  1  0  0  0  0
 32 31  1  0  0  0  0
 34 33  1  0  0  0  0
 35 34  1  0  0  0  0
 36 35  1  0  0  0  0
 38 36  1  0  0  0  0
 38 37  2  0  0  0  0
 39 38  2  0  0  0  0
 40 38  1  0  0  0  0
 41 43  1  0  0  0  0
 41 45  1  0  0  0  0
 41 46  1  0  0  0  0
 42 41  1  0  0  0  0
 43 44  1  6  0  0  0
 43 47  1  0  0  0  0
 43 46  1  0  0  0  0
 46 40  1  1  0  0  0
 47 49  1  6  0  0  0
 47 51  1  0  0  0  0
 49 48  1  0  0  0  0
 51 50  1  0  0  0  0
M  END
>  <MODEL>
3

>  <REMARK>
 VINA RESULT:      -2.6      2.139      3.011
  Name = 
  22 active torsions:
  status: ('A' for Active; 'I' for Inactive)
    1  A    between atoms: C_2  and  C_14
    2  A    between atoms: C_2  and  N_21
    3  A    between atoms: C_2  and  C_40
    4  A    between atoms: C_3  and  C_28
    5  A    between atoms: C_5  and  N_23
    6  A    between atoms: O_7  and  C_8
    7  A    between atoms: O_7  and  C_19
    8  A    between atoms: O_11  and  C_37
    9  A    between atoms: C_12  and  C_24
   10  A    between atoms: C_12  and  S_36
   11  A    between atoms: C_15  and  C_42
   12  A    between atoms: C_18  and  N_23
   13  A    between atoms: C_18  and  N_31
   14  A    between atoms: C_19  and  C_24
   15  A    between atoms: N_20  and  N_31
   16  A    between atoms: N_20  and  C_38
   17  A    between atoms: N_23  and  C_27
   18  A    between atoms: C_27  and  C_37
   19  A    between atoms: C_29  and  C_42
   20  A    between atoms: N_35  and  C_42
   21  A    between atoms: S_36  and  N_44
   22  A    between atoms: N_44  and  C_51
                            x       y       z     vdW  Elec       q    Type
                         _______ _______ _______ _____ _____    ______ ____

>  <TORSDO>
F 22

$$$$
=
 OpenBabel11042420203D

 51 54  0  0  1  0  0  0  0  0999 V2000
  161.2680  205.1220  145.6690 C   0  0  1  0  0  3  0  0  0  0  0  0
  161.8610  208.4780  148.0450 O   0  0  0  0  0  0  0  0  0  0  0  0
  160.3650  207.2140  146.7480 C   0  0  0  0  0  2  0  0  0  0  0  0
  163.8640  203.9570  145.4400 Cl  0  0  0  0  0  0  0  0  0  0  0  0
  162.0790  206.1630  148.4140 C   0  0  2  0  0  3  0  0  0  0  0  0
  161.4530  207.3630  147.7640 C   0  0  0  0  0  0  0  0  0  0  0  0
  162.6420  204.9050  146.2770 C   0  0  0  0  0  0  0  0  0  0  0  0
  160.8980  206.5990  145.4630 C   0  0  0  0  0  2  0  0  0  0  0  0
  162.9730  205.3760  147.4910 C   0  0  0  0  0  3  0  0  0  0  0  0
  161.0910  205.3070  149.1460 C   0  0  0  0  0  0  0  0  0  0  0  0
  161.4300  203.9710  149.5250 N   0  0  0  0  0  2  0  0  0  0  0  0
  159.9580  205.7790  149.4250 O   0  0  0  0  0  0  0  0  0  0  0  0
  160.4850  203.0750  150.1760 C   0  0  2  0  0  3  0  0  0  0  0  0
  160.8390  202.9410  151.6550 C   0  0  1  0  0  3  0  0  0  0  0  0
  162.2580  203.1990  151.8600 N   0  0  0  0  0  2  0  0  0  0  0  0
  160.1390  203.9930  152.4520 C   0  0  0  0  0  2  0  0  0  0  0  0
  161.2490  204.9700  152.7350 C   0  0  1  0  0  3  0  0  0  0  0  0
  162.4120  204.5380  152.0710 O   0  0  0  0  0  0  0  0  0  0  0  0
  160.8800  206.3210  152.3100 N   0  0  0  0  0  2  0  0  0  0  0  0
  160.7500  207.1380  153.4490 N   0  0  0  0  0  0  0  0  0  0  0  0
  161.3800  206.5090  154.4690 O   0  0  0  0  0  1  0  0  0  0  0  0
  161.4420  208.4030  153.1900 C   0  0  0  0  0  2  0  0  0  0  0  0
  160.6830  209.5460  153.6940 N   0  0  0  0  0  0  0  0  0  0  0  0
  161.6160  210.3640  154.4560 C   0  0  0  0  0  3  0  0  0  0  0  0
  160.9570  210.8280  155.7440 C   0  0  0  0  0  2  0  0  0  0  0  0
  161.9410  209.6820  155.7720 C   0  0  0  0  0  2  0  0  0  0  0  0
  160.2960  210.3260  152.5270 C   0  0  0  0  0  2  0  0  0  0  0  0
  158.9600  211.0070  152.7670 C   0  0  0  0  0  2  0  0  0  0  0  0
  159.4070  213.0870  153.0310 O   0  0  0  0  0  1  0  0  0  0  0  0
  158.9370  212.2490  152.1320 O   0  0  0  0  0  0  0  0  0  0  0  0
  160.5400  201.7080  149.5030 C   0  0  0  0  0  2  0  0  0  0  0  0
  161.1130  201.8210  148.1030 C   0  0  0  0  0  1  0  0  0  0  0  0
  160.9970  204.2940  144.5530 O   0  0  0  0  0  0  0  0  0  0  0  0
  160.4970  205.0800  143.4980 C   0  0  0  0  0  2  0  0  0  0  0  0
  161.6290  205.5110  142.5830 C   0  0  0  0  0  2  0  0  0  0  0  0
  161.2640  206.7930  141.8600 C   0  0  0  0  0  2  0  0  0  0  0  0
  163.6240  207.4170  140.7590 O   0  0  0  0  0  0  0  0  0  0  0  0
  162.2440  206.9540  140.3820 S   0  0  0  0  0  0  0  0  0  0  0  0
  162.3320  205.6260  139.6870 O   0  0  0  0  0  0  0  0  0  0  0  0
  161.4960  208.1070  139.3290 N   0  0  0  0  0  2  0  0  0  0  0  0
  162.1270  210.4500  138.7920 C   0  0  0  0  0  0  0  0  0  0  0  0
  163.0720  211.5340  139.2790 C   0  0  0  0  0  1  0  0  0  0  0  0
  160.7170  210.4520  139.3670 C   0  0  2  0  0  0  0  0  0  0  0  0
  160.4420  211.4630  140.2910 O   0  0  0  0  0  1  0  0  0  0  0  0
  162.3250  209.9250  137.3740 C   0  0  0  0  0  1  0  0  0  0  0  0
  161.7440  209.4350  139.8790 C   0  0  1  0  0  3  0  0  0  0  0  0
  159.5570  209.9610  138.4940 C   0  0  2  0  0  3  0  0  0  0  0  0
  159.1920  212.1590  137.6390 O   0  0  0  0  0  1  0  0  0  0  0  0
  159.4170  210.8360  137.2610 C   0  0  0  0  0  2  0  0  0  0  0  0
  157.3420  209.5590  138.4200 O   0  0  0  0  0  1  0  0  0  0  0  0
  158.3200  209.9770  139.2570 N   0  0  0  0  0  2  0  0  0  0  0  0
  1 33  1  6  0  0  0
  1  7  1  0  0  0  0
  3  6  1  0  0  0  0
  4  7  1  0  0  0  0
  5 10  1  6  0  0  0
  6  2  2  0  0  0  0
  6  5  1  0  0  0  0
  7  9  2  0  0  0  0
  8  1  1  0  0  0  0
  8  3  1  0  0  0  0
  9  5  1  0  0  0  0
 10 12  2  0  0  0  0
 10 11  1  0  0  0  0
 11 13  1  0  0  0  0
 13 31  1  6  0  0  0
 14 13  1  6  0  0  0
 14 15  1  0  0  0  0
 14 16  1  0  0  0  0
 15 18  1  0  0  0  0
 16 17  1  0  0  0  0
 17 19  1  6  0  0  0
 18 17  1  0  0  0  0
 19 20  1  0  0  0  0
 20 21  1  0  0  0  0
 22 20  1  0  0  0  0
 22 23  1  0  0  0  0
 23 24  1  0  0  0  0
 24 25  1  0  0  0  0
 24 26  1  0  0  0  0
 25 26  1  0  0  0  0
 27 28  1  0  0  0  0
 27 23  1  0  0  0  0
 30 28  1  0  0  0  0
 30 29  1  0  0  0  0
 32 31  1  0  0  0  0
 34 33  1  0  0  0  0
 35 34  1  0  0  0  0
 36 35  1  0  0  0  0
 38 37  2  0  0  0  0
 38 36  1  0  0  0  0
 39 38  2  0  0  0  0
 40 38  1  0  0  0  0
 41 42  1  0  0  0  0
 41 43  1  0  0  0  0
 41 46  1  0  0  0  0
 43 46  1  0  0  0  0
 43 44  1  1  0  0  0
 45 41  1  0  0  0  0
 46 40  1  6  0  0  0
 47 49  1  6  0  0  0
 47 51  1  0  0  0  0
 47 43  1  0  0  0  0
 49 48  1  0  0  0  0
 50 51  1  0  0  0  0
M  END
>  <MODEL>
4

>  <REMARK>
 VINA RESULT:      -2.2      5.153     10.158
  Name = 
  22 active torsions:
  status: ('A' for Active; 'I' for Inactive)
    1  A    between atoms: C_2  and  C_14
    2  A    between atoms: C_2  and  N_21
    3  A    between atoms: C_2  and  C_40
    4  A    between atoms: C_3  and  C_28
    5  A    between atoms: C_5  and  N_23
    6  A    between atoms: O_7  and  C_8
    7  A    between atoms: O_7  and  C_19
    8  A    between atoms: O_11  and  C_37
    9  A    between atoms: C_12  and  C_24
   10  A    between atoms: C_12  and  S_36
   11  A    between atoms: C_15  and  C_42
   12  A    between atoms: C_18  and  N_23
   13  A    between atoms: C_18  and  N_31
   14  A    between atoms: C_19  and  C_24
   15  A    between atoms: N_20  and  N_31
   16  A    between atoms: N_20  and  C_38
   17  A    between atoms: N_23  and  C_27
   18  A    between atoms: C_27  and  C_37
   19  A    between atoms: C_29  and  C_42
   20  A    between atoms: N_35  and  C_42
   21  A    between atoms: S_36  and  N_44
   22  A    between atoms: N_44  and  C_51
                            x       y       z     vdW  Elec       q    Type
                         _______ _______ _______ _____ _____    ______ ____

>  <TORSDO>
F 22

$$$$
=
 OpenBabel11042420203D

 51 54  0  0  1  0  0  0  0  0999 V2000
  161.4410  205.2630  144.5390 C   0  0  1  0  0  3  0  0  0  0  0  0
  163.7460  202.9370  147.0960 O   0  0  0  0  0  0  0  0  0  0  0  0
  163.5320  204.9550  145.9140 C   0  0  0  0  0  2  0  0  0  0  0  0
  159.2420  203.5780  143.8500 Cl  0  0  0  0  0  0  0  0  0  0  0  0
  161.5730  203.8340  147.2250 C   0  0  2  0  0  3  0  0  0  0  0  0
  163.0060  203.8540  146.7780 C   0  0  0  0  0  0  0  0  0  0  0  0
  160.5210  204.1190  144.9290 C   0  0  0  0  0  0  0  0  0  0  0  0
  162.9320  204.8890  144.5180 C   0  0  0  0  0  2  0  0  0  0  0  0
  160.6010  203.5060  146.1210 C   0  0  0  0  0  3  0  0  0  0  0  0
  161.1850  205.0500  148.0100 C   0  0  0  0  0  0  0  0  0  0  0  0
  161.6200  205.2080  149.3620 N   0  0  0  0  0  2  0  0  0  0  0  0
  160.4720  205.9310  147.4640 O   0  0  0  0  0  0  0  0  0  0  0  0
  161.2150  206.3350  150.1910 C   0  0  2  0  0  3  0  0  0  0  0  0
  162.3760  207.3190  150.3230 C   0  0  1  0  0  3  0  0  0  0  0  0
  162.2380  208.3950  149.3520 N   0  0  0  0  0  2  0  0  0  0  0  0
  162.3340  207.9950  151.6540 C   0  0  0  0  0  2  0  0  0  0  0  0
  161.8040  209.3590  151.3010 C   0  0  1  0  0  3  0  0  0  0  0  0
  161.4970  209.3840  149.9280 O   0  0  0  0  0  0  0  0  0  0  0  0
  160.6240  209.6880  152.1040 N   0  0  0  0  0  2  0  0  0  0  0  0
  160.8520  210.9060  152.7720 N   0  0  0  0  0  0  0  0  0  0  0  0
  159.6670  211.5590  152.8330 O   0  0  0  0  0  1  0  0  0  0  0  0
  161.2840  210.6070  154.1400 C   0  0  0  0  0  2  0  0  0  0  0  0
  160.1480  210.3080  155.0100 N   0  0  0  0  0  0  0  0  0  0  0  0
  160.5950  209.2860  155.9460 C   0  0  0  0  0  3  0  0  0  0  0  0
  159.7830  208.0180  155.7460 C   0  0  0  0  0  2  0  0  0  0  0  0
  161.1820  208.1130  155.1830 C   0  0  0  0  0  2  0  0  0  0  0  0
  159.9030  211.5130  155.7900 C   0  0  0  0  0  2  0  0  0  0  0  0
  158.5880  211.3970  156.5410 C   0  0  0  0  0  2  0  0  0  0  0  0
  157.3780  212.6140  155.2570 O   0  0  0  0  0  1  0  0  0  0  0  0
  157.8890  212.6020  156.4690 O   0  0  0  0  0  0  0  0  0  0  0  0
  160.8060  205.8270  151.5690 C   0  0  0  0  0  2  0  0  0  0  0  0
  161.2580  204.3930  151.7690 C   0  0  0  0  0  1  0  0  0  0  0  0
  161.0070  205.9870  143.4030 O   0  0  0  0  0  0  0  0  0  0  0  0
  162.0870  206.1610  142.5180 C   0  0  0  0  0  2  0  0  0  0  0  0
  161.5790  206.5090  141.1320 C   0  0  0  0  0  2  0  0  0  0  0  0
  162.6470  207.2450  140.3460 C   0  0  0  0  0  2  0  0  0  0  0  0
  162.3760  207.7800  137.7370 O   0  0  0  0  0  0  0  0  0  0  0  0
  161.8890  208.2430  139.0810 S   0  0  0  0  0  0  0  0  0  0  0  0
  160.3950  208.0990  139.1510 O   0  0  0  0  0  0  0  0  0  0  0  0
  162.3210  209.9000  139.3330 N   0  0  0  0  0  2  0  0  0  0  0  0
  160.5360  211.5360  139.8980 C   0  0  0  0  0  0  0  0  0  0  0  0
  159.0650  211.7840  139.6210 C   0  0  0  0  0  1  0  0  0  0  0  0
  161.5390  212.2180  138.9770 C   0  0  2  0  0  0  0  0  0  0  0  0
  160.9890  213.0070  137.9630 O   0  0  0  0  0  1  0  0  0  0  0  0
  160.9490  211.2760  141.3430 C   0  0  0  0  0  1  0  0  0  0  0  0
  161.2410  210.7250  138.8010 C   0  0  1  0  0  3  0  0  0  0  0  0
  162.8990  212.6420  139.5400 C   0  0  2  0  0  3  0  0  0  0  0  0
  163.1700  213.9980  141.4850 O   0  0  0  0  0  1  0  0  0  0  0  0
  162.8120  214.0360  140.1380 C   0  0  0  0  0  2  0  0  0  0  0  0
  164.9480  213.3530  138.9310 O   0  0  0  0  0  1  0  0  0  0  0  0
  163.9030  212.6150  138.4890 N   0  0  0  0  0  2  0  0  0  0  0  0
  1 33  1  6  0  0  0
  1  7  1  0  0  0  0
  3  6  1  0  0  0  0
  4  7  1  0  0  0  0
  5 10  1  6  0  0  0
  6  2  2  0  0  0  0
  6  5  1  0  0  0  0
  7  9  2  0  0  0  0
  8  1  1  0  0  0  0
  8  3  1  0  0  0  0
  9  5  1  0  0  0  0
 10 11  1  0  0  0  0
 11 13  1  0  0  0  0
 12 10  2  0  0  0  0
 13 31  1  1  0  0  0
 14 13  1  1  0  0  0
 14 16  1  0  0  0  0
 15 18  1  0  0  0  0
 15 14  1  0  0  0  0
 17 16  1  0  0  0  0
 17 19  1  1  0  0  0
 18 17  1  0  0  0  0
 19 20  1  0  0  0  0
 20 21  1  0  0  0  0
 20 22  1  0  0  0  0
 22 23  1  0  0  0  0
 23 27  1  0  0  0  0
 23 24  1  0  0  0  0
 25 24  1  0  0  0  0
 26 25  1  0  0  0  0
 26 24  1  0  0  0  0
 27 28  1  0  0  0  0
 29 30  1  0  0  0  0
 30 28  1  0  0  0  0
 31 32  1  0  0  0  0
 34 33  1  0  0  0  0
 35 34  1  0  0  0  0
 36 35  1  0  0  0  0
 37 38  2  0  0  0  0
 38 39  2  0  0  0  0
 38 40  1  0  0  0  0
 38 36  1  0  0  0  0
 41 45  1  0  0  0  0
 42 41  1  0  0  0  0
 43 44  1  6  0  0  0
 43 47  1  0  0  0  0
 43 41  1  0  0  0  0
 46 43  1  0  0  0  0
 46 40  1  1  0  0  0
 46 41  1  0  0  0  0
 47 49  1  6  0  0  0
 49 48  1  0  0  0  0
 51 50  1  0  0  0  0
 51 47  1  0  0  0  0
M  END
>  <MODEL>
5

>  <REMARK>
 VINA RESULT:      -2.2      5.303     10.332
  Name = 
  22 active torsions:
  status: ('A' for Active; 'I' for Inactive)
    1  A    between atoms: C_2  and  C_14
    2  A    between atoms: C_2  and  N_21
    3  A    between atoms: C_2  and  C_40
    4  A    between atoms: C_3  and  C_28
    5  A    between atoms: C_5  and  N_23
    6  A    between atoms: O_7  and  C_8
    7  A    between atoms: O_7  and  C_19
    8  A    between atoms: O_11  and  C_37
    9  A    between atoms: C_12  and  C_24
   10  A    between atoms: C_12  and  S_36
   11  A    between atoms: C_15  and  C_42
   12  A    between atoms: C_18  and  N_23
   13  A    between atoms: C_18  and  N_31
   14  A    between atoms: C_19  and  C_24
   15  A    between atoms: N_20  and  N_31
   16  A    between atoms: N_20  and  C_38
   17  A    between atoms: N_23  and  C_27
   18  A    between atoms: C_27  and  C_37
   19  A    between atoms: C_29  and  C_42
   20  A    between atoms: N_35  and  C_42
   21  A    between atoms: S_36  and  N_44
   22  A    between atoms: N_44  and  C_51
                            x       y       z     vdW  Elec       q    Type
                         _______ _______ _______ _____ _____    ______ ____

>  <TORSDO>
F 22

$$$$
=
 OpenBabel11042420203D

 51 54  0  0  1  0  0  0  0  0999 V2000
  160.9980  207.3410  152.6610 C   0  0  1  0  0  3  0  0  0  0  0  0
  163.3720  210.6900  152.0200 O   0  0  0  0  0  0  0  0  0  0  0  0
  161.9780  209.0470  151.0840 C   0  0  0  0  0  2  0  0  0  0  0  0
  161.3590  206.7460  155.4300 Cl  0  0  0  0  0  0  0  0  0  0  0  0
  161.4590  210.2770  153.3290 C   0  0  2  0  0  3  0  0  0  0  0  0
  162.3340  210.0580  152.1280 C   0  0  0  0  0  0  0  0  0  0  0  0
  161.3090  207.8470  154.0590 C   0  0  0  0  0  0  0  0  0  0  0  0
  162.0990  207.6320  151.6290 C   0  0  0  0  0  2  0  0  0  0  0  0
  161.5080  209.1480  154.3250 C   0  0  0  0  0  3  0  0  0  0  0  0
  160.0620  210.6860  152.9710 C   0  0  0  0  0  0  0  0  0  0  0  0
  159.8280  211.8680  152.2030 N   0  0  0  0  0  2  0  0  0  0  0  0
  159.0970  209.9750  153.3540 O   0  0  0  0  0  0  0  0  0  0  0  0
  158.4900  212.3480  151.8860 C   0  0  2  0  0  3  0  0  0  0  0  0
  158.5860  213.6620  151.1130 C   0  0  1  0  0  3  0  0  0  0  0  0
  159.7090  214.4520  151.5970 N   0  0  0  0  0  2  0  0  0  0  0  0
  158.8950  213.3960  149.6760 C   0  0  0  0  0  2  0  0  0  0  0  0
  160.3530  213.7580  149.5920 C   0  0  1  0  0  3  0  0  0  0  0  0
  160.8120  214.0930  150.8800 O   0  0  0  0  0  0  0  0  0  0  0  0
  161.1370  212.6560  149.0310 N   0  0  0  0  0  2  0  0  0  0  0  0
  162.1200  213.1850  148.1730 N   0  0  0  0  0  0  0  0  0  0  0  0
  162.6690  212.1440  147.5020 O   0  0  0  0  0  1  0  0  0  0  0  0
  161.4600  214.0610  147.2020 C   0  0  0  0  0  2  0  0  0  0  0  0
  161.4110  213.4540  145.8730 N   0  0  0  0  0  0  0  0  0  0  0  0
  160.0240  213.5170  145.4350 C   0  0  0  0  0  3  0  0  0  0  0  0
  159.6700  212.2520  144.6720 C   0  0  0  0  0  2  0  0  0  0  0  0
  159.2230  212.4150  146.1060 C   0  0  0  0  0  2  0  0  0  0  0  0
  162.1690  214.3330  144.9940 C   0  0  0  0  0  2  0  0  0  0  0  0
  163.2360  213.5460  144.2530 C   0  0  0  0  0  2  0  0  0  0  0  0
  162.6140  213.8690  142.2280 O   0  0  0  0  0  1  0  0  0  0  0  0
  163.5730  214.1970  143.0670 O   0  0  0  0  0  0  0  0  0  0  0  0
  157.7110  212.5620  153.1790 C   0  0  0  0  0  2  0  0  0  0  0  0
  156.9280  213.8600  153.1250 C   0  0  0  0  0  1  0  0  0  0  0  0
  160.5060  206.0150  152.6270 O   0  0  0  0  0  0  0  0  0  0  0  0
  160.8530  205.4190  151.4000 C   0  0  0  0  0  2  0  0  0  0  0  0
  161.7560  204.2220  151.6360 C   0  0  0  0  0  2  0  0  0  0  0  0
  160.9620  202.9340  151.5430 C   0  0  0  0  0  2  0  0  0  0  0  0
  161.9740  201.5280  149.5020 O   0  0  0  0  0  0  0  0  0  0  0  0
  160.8210  202.4300  149.8420 S   0  0  0  0  0  0  0  0  0  0  0  0
  159.5290  201.6910  149.6390 O   0  0  0  0  0  0  0  0  0  0  0  0
  160.8450  203.8350  148.8300 N   0  0  0  0  0  2  0  0  0  0  0  0
  161.2270  203.3590  146.4210 C   0  0  0  0  0  0  0  0  0  0  0  0
  162.0550  202.4410  145.5410 C   0  0  0  0  0  1  0  0  0  0  0  0
  161.8140  204.7280  146.7390 C   0  0  2  0  0  0  0  0  0  0  0  0
  163.0670  204.9940  146.1800 O   0  0  0  0  0  1  0  0  0  0  0  0
  159.7100  203.2270  146.3500 C   0  0  0  0  0  1  0  0  0  0  0  0
  161.8540  203.6200  147.7980 C   0  0  1  0  0  3  0  0  0  0  0  0
  160.8670  205.9150  146.9420 C   0  0  2  0  0  3  0  0  0  0  0  0
  160.3710  206.4150  144.6620 O   0  0  0  0  0  1  0  0  0  0  0  0
  159.8130  205.9430  145.8490 C   0  0  0  0  0  2  0  0  0  0  0  0
  162.5040  207.0820  147.9580 O   0  0  0  0  0  1  0  0  0  0  0  0
  161.6200  207.1580  146.9360 N   0  0  0  0  0  2  0  0  0  0  0  0
  1 33  1  1  0  0  0
  1  7  1  0  0  0  0
  2  6  2  0  0  0  0
  3  8  1  0  0  0  0
  3  6  1  0  0  0  0
  5 10  1  6  0  0  0
  5  9  1  0  0  0  0
  6  5  1  0  0  0  0
  7  9  2  0  0  0  0
  7  4  1  0  0  0  0
  8  1  1  0  0  0  0
 10 12  2  0  0  0  0
 11 10  1  0  0  0  0
 13 11  1  0  0  0  0
 13 31  1  1  0  0  0
 14 15  1  0  0  0  0
 14 13  1  1  0  0  0
 16 14  1  0  0  0  0
 17 19  1  1  0  0  0
 17 16  1  0  0  0  0
 17 18  1  0  0  0  0
 18 15  1  0  0  0  0
 20 19  1  0  0  0  0
 21 20  1  0  0  0  0
 22 20  1  0  0  0  0
 23 22  1  0  0  0  0
 24 23  1  0  0  0  0
 24 26  1  0  0  0  0
 25 24  1  0  0  0  0
 25 26  1  0  0  0  0
 27 23  1  0  0  0  0
 28 27  1  0  0  0  0
 29 30  1  0  0  0  0
 30 28  1  0  0  0  0
 32 31  1  0  0  0  0
 34 35  1  0  0  0  0
 34 33  1  0  0  0  0
 36 35  1  0  0  0  0
 37 38  2  0  0  0  0
 38 36  1  0  0  0  0
 39 38  2  0  0  0  0
 40 38  1  0  0  0  0
 41 43  1  0  0  0  0
 41 46  1  0  0  0  0
 42 41  1  0  0  0  0
 43 44  1  6  0  0  0
 43 47  1  0  0  0  0
 43 46  1  0  0  0  0
 45 41  1  0  0  0  0
 46 40  1  1  0  0  0
 47 49  1  6  0  0  0
 48 49  1  0  0  0  0
 51 47  1  0  0  0  0
 51 50  1  0  0  0  0
M  END
>  <MODEL>
6

>  <REMARK>
 VINA RESULT:      -2.1      2.372      3.928
  Name = 
  22 active torsions:
  status: ('A' for Active; 'I' for Inactive)
    1  A    between atoms: C_2  and  C_14
    2  A    between atoms: C_2  and  N_21
    3  A    between atoms: C_2  and  C_40
    4  A    between atoms: C_3  and  C_28
    5  A    between atoms: C_5  and  N_23
    6  A    between atoms: O_7  and  C_8
    7  A    between atoms: O_7  and  C_19
    8  A    between atoms: O_11  and  C_37
    9  A    between atoms: C_12  and  C_24
   10  A    between atoms: C_12  and  S_36
   11  A    between atoms: C_15  and  C_42
   12  A    between atoms: C_18  and  N_23
   13  A    between atoms: C_18  and  N_31
   14  A    between atoms: C_19  and  C_24
   15  A    between atoms: N_20  and  N_31
   16  A    between atoms: N_20  and  C_38
   17  A    between atoms: N_23  and  C_27
   18  A    between atoms: C_27  and  C_37
   19  A    between atoms: C_29  and  C_42
   20  A    between atoms: N_35  and  C_42
   21  A    between atoms: S_36  and  N_44
   22  A    between atoms: N_44  and  C_51
                            x       y       z     vdW  Elec       q    Type
                         _______ _______ _______ _____ _____    ______ ____

>  <TORSDO>
F 22

$$$$
=
 OpenBabel11042420203D

 51 54  0  0  1  0  0  0  0  0999 V2000
  161.3680  205.3540  144.5930 C   0  0  1  0  0  3  0  0  0  0  0  0
  163.5340  203.0070  147.2510 O   0  0  0  0  0  0  0  0  0  0  0  0
  163.4290  204.9920  145.9990 C   0  0  0  0  0  2  0  0  0  0  0  0
  159.0960  203.7540  143.9380 Cl  0  0  0  0  0  0  0  0  0  0  0  0
  161.4060  204.0110  147.3270 C   0  0  2  0  0  3  0  0  0  0  0  0
  162.8430  203.9470  146.8940 C   0  0  0  0  0  0  0  0  0  0  0  0
  160.3900  204.2700  145.0110 C   0  0  0  0  0  0  0  0  0  0  0  0
  162.8390  204.9080  144.6000 C   0  0  0  0  0  2  0  0  0  0  0  0
  160.4300  203.6940  146.2240 C   0  0  0  0  0  3  0  0  0  0  0  0
  161.0710  205.2710  148.0660 C   0  0  0  0  0  0  0  0  0  0  0  0
  161.5340  205.4710  149.4040 N   0  0  0  0  0  2  0  0  0  0  0  0
  160.3760  206.1520  147.4960 O   0  0  0  0  0  0  0  0  0  0  0  0
  161.1800  206.6420  150.1920 C   0  0  2  0  0  3  0  0  0  0  0  0
  162.3840  207.5760  150.2930 C   0  0  1  0  0  3  0  0  0  0  0  0
  162.2830  208.6390  149.3030 N   0  0  0  0  0  2  0  0  0  0  0  0
  162.3850  208.2790  151.6110 C   0  0  0  0  0  2  0  0  0  0  0  0
  161.9120  209.6580  151.2370 C   0  0  1  0  0  3  0  0  0  0  0  0
  161.5920  209.6710  149.8670 O   0  0  0  0  0  0  0  0  0  0  0  0
  160.7570  210.0540  152.0450 N   0  0  0  0  0  2  0  0  0  0  0  0
  160.8450  211.4310  152.3230 N   0  0  0  0  0  0  0  0  0  0  0  0
  159.9550  212.0610  151.5200 O   0  0  0  0  0  1  0  0  0  0  0  0
  160.4410  211.6460  153.7150 C   0  0  0  0  0  2  0  0  0  0  0  0
  159.1740  210.9830  154.0170 N   0  0  0  0  0  0  0  0  0  0  0  0
  159.2840  210.4700  155.3750 C   0  0  0  0  0  3  0  0  0  0  0  0
  159.7790  209.0350  155.3420 C   0  0  0  0  0  2  0  0  0  0  0  0
  160.7350  210.1530  155.6890 C   0  0  0  0  0  2  0  0  0  0  0  0
  158.1620  212.0300  154.0440 C   0  0  0  0  0  2  0  0  0  0  0  0
  157.3820  211.9760  155.3470 C   0  0  0  0  0  2  0  0  0  0  0  0
  155.7210  210.6600  155.6610 O   0  0  0  0  0  1  0  0  0  0  0  0
  156.0240  211.8020  155.0830 O   0  0  0  0  0  0  0  0  0  0  0  0
  160.7450  206.2030  151.5850 C   0  0  0  0  0  2  0  0  0  0  0  0
  161.2980  204.8280  151.9110 C   0  0  0  0  0  1  0  0  0  0  0  0
  160.9790  206.0590  143.4300 O   0  0  0  0  0  0  0  0  0  0  0  0
  162.0310  206.0350  142.4950 C   0  0  0  0  0  2  0  0  0  0  0  0
  161.5350  206.4900  141.1350 C   0  0  0  0  0  2  0  0  0  0  0  0
  162.5820  207.3470  140.4500 C   0  0  0  0  0  2  0  0  0  0  0  0
  162.5320  207.3600  137.7730 O   0  0  0  0  0  0  0  0  0  0  0  0
  161.9100  208.0450  138.9570 S   0  0  0  0  0  0  0  0  0  0  0  0
  160.4210  207.8430  138.9290 O   0  0  0  0  0  0  0  0  0  0  0  0
  162.2600  209.7400  138.9160 N   0  0  0  0  0  2  0  0  0  0  0  0
  162.1640  211.7970  140.3090 C   0  0  0  0  0  0  0  0  0  0  0  0
  162.3330  212.2220  141.7560 C   0  0  0  0  0  1  0  0  0  0  0  0
  160.7520  211.4650  139.8450 C   0  0  2  0  0  0  0  0  0  0  0  0
  159.7530  211.5880  140.8130 O   0  0  0  0  0  1  0  0  0  0  0  0
  163.1420  212.3670  139.2870 C   0  0  0  0  0  1  0  0  0  0  0  0
  161.7390  210.3300  140.1440 C   0  0  1  0  0  3  0  0  0  0  0  0
  160.3620  211.7440  138.3900 C   0  0  2  0  0  3  0  0  0  0  0  0
  160.6010  213.6830  137.0200 O   0  0  0  0  0  1  0  0  0  0  0  0
  160.0340  213.2160  138.2040 C   0  0  0  0  0  2  0  0  0  0  0  0
  158.1200  211.7050  138.1770 O   0  0  0  0  0  1  0  0  0  0  0  0
  159.2180  210.9290  138.0170 N   0  0  0  0  0  2  0  0  0  0  0  0
  1 33  1  6  0  0  0
  1  8  1  0  0  0  0
  1  7  1  0  0  0  0
  3  6  1  0  0  0  0
  4  7  1  0  0  0  0
  5 10  1  6  0  0  0
  6  2  2  0  0  0  0
  6  5  1  0  0  0  0
  7  9  2  0  0  0  0
  8  3  1  0  0  0  0
  9  5  1  0  0  0  0
 10 11  1  0  0  0  0
 11 13  1  0  0  0  0
 12 10  2  0  0  0  0
 13 31  1  1  0  0  0
 14 13  1  1  0  0  0
 14 16  1  0  0  0  0
 15 18  1  0  0  0  0
 15 14  1  0  0  0  0
 17 16  1  0  0  0  0
 17 19  1  1  0  0  0
 18 17  1  0  0  0  0
 19 20  1  0  0  0  0
 20 22  1  0  0  0  0
 21 20  1  0  0  0  0
 22 23  1  0  0  0  0
 23 27  1  0  0  0  0
 23 24  1  0  0  0  0
 24 26  1  0  0  0  0
 25 24  1  0  0  0  0
 25 26  1  0  0  0  0
 27 28  1  0  0  0  0
 30 28  1  0  0  0  0
 30 29  1  0  0  0  0
 31 32  1  0  0  0  0
 34 33  1  0  0  0  0
 35 34  1  0  0  0  0
 36 35  1  0  0  0  0
 37 38  2  0  0  0  0
 38 36  1  0  0  0  0
 39 38  2  0  0  0  0
 40 38  1  0  0  0  0
 41 42  1  0  0  0  0
 43 46  1  0  0  0  0
 43 41  1  0  0  0  0
 43 44  1  1  0  0  0
 45 41  1  0  0  0  0
 46 40  1  6  0  0  0
 46 41  1  0  0  0  0
 47 49  1  1  0  0  0
 47 43  1  0  0  0  0
 48 49  1  0  0  0  0
 51 50  1  0  0  0  0
 51 47  1  0  0  0  0
M  END
>  <MODEL>
7

>  <REMARK>
 VINA RESULT:      -2.0      5.399     10.207
  Name = 
  22 active torsions:
  status: ('A' for Active; 'I' for Inactive)
    1  A    between atoms: C_2  and  C_14
    2  A    between atoms: C_2  and  N_21
    3  A    between atoms: C_2  and  C_40
    4  A    between atoms: C_3  and  C_28
    5  A    between atoms: C_5  and  N_23
    6  A    between atoms: O_7  and  C_8
    7  A    between atoms: O_7  and  C_19
    8  A    between atoms: O_11  and  C_37
    9  A    between atoms: C_12  and  C_24
   10  A    between atoms: C_12  and  S_36
   11  A    between atoms: C_15  and  C_42
   12  A    between atoms: C_18  and  N_23
   13  A    between atoms: C_18  and  N_31
   14  A    between atoms: C_19  and  C_24
   15  A    between atoms: N_20  and  N_31
   16  A    between atoms: N_20  and  C_38
   17  A    between atoms: N_23  and  C_27
   18  A    between atoms: C_27  and  C_37
   19  A    between atoms: C_29  and  C_42
   20  A    between atoms: N_35  and  C_42
   21  A    between atoms: S_36  and  N_44
   22  A    between atoms: N_44  and  C_51
                            x       y       z     vdW  Elec       q    Type
                         _______ _______ _______ _____ _____    ______ ____

>  <TORSDO>
F 22

$$$$
=
 OpenBabel11042420203D

 51 54  0  0  1  0  0  0  0  0999 V2000
  161.3820  205.4780  144.4830 C   0  0  1  0  0  3  0  0  0  0  0  0
  163.5800  203.1890  147.1660 O   0  0  0  0  0  0  0  0  0  0  0  0
  163.4390  205.1680  145.9080 C   0  0  0  0  0  2  0  0  0  0  0  0
  159.1540  203.8240  143.8120 Cl  0  0  0  0  0  0  0  0  0  0  0  0
  161.4280  204.1440  147.2210 C   0  0  2  0  0  3  0  0  0  0  0  0
  162.8690  204.1120  146.8010 C   0  0  0  0  0  0  0  0  0  0  0  0
  160.4260  204.3720  144.8960 C   0  0  0  0  0  0  0  0  0  0  0  0
  162.8630  205.0670  144.5040 C   0  0  0  0  0  2  0  0  0  0  0  0
  160.4690  203.8010  146.1110 C   0  0  0  0  0  3  0  0  0  0  0  0
  161.0570  205.3970  147.9540 C   0  0  0  0  0  0  0  0  0  0  0  0
  161.5740  205.6510  149.2620 N   0  0  0  0  0  2  0  0  0  0  0  0
  160.2840  206.2240  147.4030 O   0  0  0  0  0  0  0  0  0  0  0  0
  161.1920  206.8170  150.0450 C   0  0  2  0  0  3  0  0  0  0  0  0
  162.3310  207.8350  150.0410 C   0  0  1  0  0  3  0  0  0  0  0  0
  162.0140  208.9430  149.1520 N   0  0  0  0  0  2  0  0  0  0  0  0
  162.4760  208.4550  151.3920 C   0  0  0  0  0  2  0  0  0  0  0  0
  161.8600  209.8130  151.1860 C   0  0  1  0  0  3  0  0  0  0  0  0
  161.3430  209.8830  149.8800 O   0  0  0  0  0  0  0  0  0  0  0  0
  160.8100  210.0680  152.1750 N   0  0  0  0  0  2  0  0  0  0  0  0
  160.8670  211.4210  152.5620 N   0  0  0  0  0  0  0  0  0  0  0  0
  160.0720  212.1150  151.7130 O   0  0  0  0  0  1  0  0  0  0  0  0
  160.3100  211.5360  153.9120 C   0  0  0  0  0  2  0  0  0  0  0  0
  160.7800  210.4600  154.7830 N   0  0  0  0  0  0  0  0  0  0  0  0
  161.5670  211.0860  155.8350 C   0  0  0  0  0  3  0  0  0  0  0  0
  162.1450  210.0170  156.7470 C   0  0  0  0  0  2  0  0  0  0  0  0
  163.0210  210.6710  155.7040 C   0  0  0  0  0  2  0  0  0  0  0  0
  159.5940  209.9040  155.4200 C   0  0  0  0  0  2  0  0  0  0  0  0
  158.5520  210.9880  155.6330 C   0  0  0  0  0  2  0  0  0  0  0  0
  156.4700  211.4930  155.6120 O   0  0  0  0  0  1  0  0  0  0  0  0
  157.2730  210.4660  155.4410 O   0  0  0  0  0  0  0  0  0  0  0  0
  160.8850  206.3870  151.4750 C   0  0  0  0  0  2  0  0  0  0  0  0
  161.2750  204.9370  151.6950 C   0  0  0  0  0  1  0  0  0  0  0  0
  160.9880  206.1700  143.3140 O   0  0  0  0  0  0  0  0  0  0  0  0
  162.0550  206.1840  142.3960 C   0  0  0  0  0  2  0  0  0  0  0  0
  161.5740  206.6690  141.0410 C   0  0  0  0  0  2  0  0  0  0  0  0
  162.4400  207.8140  140.5510 C   0  0  0  0  0  2  0  0  0  0  0  0
  162.4180  209.2910  138.3190 O   0  0  0  0  0  0  0  0  0  0  0  0
  161.5120  208.8390  139.4300 S   0  0  0  0  0  0  0  0  0  0  0  0
  160.3670  208.0530  138.8570 O   0  0  0  0  0  0  0  0  0  0  0  0
  160.8960  210.2090  140.2910 N   0  0  0  0  0  2  0  0  0  0  0  0
  161.8690  212.4850  140.0700 C   0  0  0  0  0  0  0  0  0  0  0  0
  163.1870  213.1500  139.7160 C   0  0  0  0  0  1  0  0  0  0  0  0
  161.6020  212.2180  141.5450 C   0  0  2  0  0  0  0  0  0  0  0  0
  162.6120  212.6180  142.4240 O   0  0  0  0  0  1  0  0  0  0  0  0
  160.6750  212.7560  139.1600 C   0  0  0  0  0  1  0  0  0  0  0  0
  162.0280  211.0640  140.6300 C   0  0  1  0  0  3  0  0  0  0  0  0
  160.1600  212.2630  142.0610 C   0  0  2  0  0  3  0  0  0  0  0  0
  158.5520  213.9860  141.6880 O   0  0  0  0  0  1  0  0  0  0  0  0
  159.7460  213.6960  142.3470 C   0  0  0  0  0  2  0  0  0  0  0  0
  159.6680  212.3040  144.2590 O   0  0  0  0  0  1  0  0  0  0  0  0
  160.0380  211.4610  143.2660 N   0  0  0  0  0  2  0  0  0  0  0  0
  1 33  1  6  0  0  0
  1  8  1  0  0  0  0
  1  7  1  0  0  0  0
  3  6  1  0  0  0  0
  4  7  1  0  0  0  0
  5 10  1  6  0  0  0
  6  2  2  0  0  0  0
  6  5  1  0  0  0  0
  7  9  2  0  0  0  0
  8  3  1  0  0  0  0
  9  5  1  0  0  0  0
 10 11  1  0  0  0  0
 11 13  1  0  0  0  0
 12 10  2  0  0  0  0
 13 31  1  1  0  0  0
 14 13  1  1  0  0  0
 14 16  1  0  0  0  0
 15 18  1  0  0  0  0
 15 14  1  0  0  0  0
 17 16  1  0  0  0  0
 17 19  1  1  0  0  0
 18 17  1  0  0  0  0
 19 20  1  0  0  0  0
 20 22  1  0  0  0  0
 21 20  1  0  0  0  0
 22 23  1  0  0  0  0
 23 27  1  0  0  0  0
 23 24  1  0  0  0  0
 24 25  1  0  0  0  0
 26 24  1  0  0  0  0
 26 25  1  0  0  0  0
 27 28  1  0  0  0  0
 30 29  1  0  0  0  0
 30 28  1  0  0  0  0
 31 32  1  0  0  0  0
 34 33  1  0  0  0  0
 35 34  1  0  0  0  0
 36 35  1  0  0  0  0
 37 38  2  0  0  0  0
 38 40  1  0  0  0  0
 38 36  1  0  0  0  0
 39 38  2  0  0  0  0
 41 46  1  0  0  0  0
 41 43  1  0  0  0  0
 42 41  1  0  0  0  0
 43 47  1  0  0  0  0
 43 44  1  1  0  0  0
 45 41  1  0  0  0  0
 46 40  1  6  0  0  0
 46 43  1  0  0  0  0
 47 49  1  1  0  0  0
 47 51  1  0  0  0  0
 48 49  1  0  0  0  0
 51 50  1  0  0  0  0
M  END
>  <MODEL>
8

>  <REMARK>
 VINA RESULT:      -1.9      4.649      9.879
  Name = 
  22 active torsions:
  status: ('A' for Active; 'I' for Inactive)
    1  A    between atoms: C_2  and  C_14
    2  A    between atoms: C_2  and  N_21
    3  A    between atoms: C_2  and  C_40
    4  A    between atoms: C_3  and  C_28
    5  A    between atoms: C_5  and  N_23
    6  A    between atoms: O_7  and  C_8
    7  A    between atoms: O_7  and  C_19
    8  A    between atoms: O_11  and  C_37
    9  A    between atoms: C_12  and  C_24
   10  A    between atoms: C_12  and  S_36
   11  A    between atoms: C_15  and  C_42
   12  A    between atoms: C_18  and  N_23
   13  A    between atoms: C_18  and  N_31
   14  A    between atoms: C_19  and  C_24
   15  A    between atoms: N_20  and  N_31
   16  A    between atoms: N_20  and  C_38
   17  A    between atoms: N_23  and  C_27
   18  A    between atoms: C_27  and  C_37
   19  A    between atoms: C_29  and  C_42
   20  A    between atoms: N_35  and  C_42
   21  A    between atoms: S_36  and  N_44
   22  A    between atoms: N_44  and  C_51
                            x       y       z     vdW  Elec       q    Type
                         _______ _______ _______ _____ _____    ______ ____

>  <TORSDO>
F 22

$$$$
=
 OpenBabel11042420203D

 51 54  0  0  1  0  0  0  0  0999 V2000
  160.7380  207.7250  153.2620 C   0  0  1  0  0  3  0  0  0  0  0  0
  162.9830  211.0780  154.2550 O   0  0  0  0  0  0  0  0  0  0  0  0
  161.4280  210.1040  152.7890 C   0  0  0  0  0  2  0  0  0  0  0  0
  161.5940  205.7340  155.1200 Cl  0  0  0  0  0  0  0  0  0  0  0  0
  161.3380  209.8270  155.3840 C   0  0  2  0  0  3  0  0  0  0  0  0
  161.9770  210.3950  154.1490 C   0  0  0  0  0  0  0  0  0  0  0  0
  161.3040  207.3990  154.6330 C   0  0  0  0  0  0  0  0  0  0  0  0
  161.6350  208.6440  152.4160 C   0  0  0  0  0  2  0  0  0  0  0  0
  161.5600  208.3460  155.5500 C   0  0  0  0  0  3  0  0  0  0  0  0
  159.9030  210.2290  155.5410 C   0  0  0  0  0  0  0  0  0  0  0  0
  159.4360  211.4690  155.0060 N   0  0  0  0  0  2  0  0  0  0  0  0
  159.1130  209.4610  156.1490 O   0  0  0  0  0  0  0  0  0  0  0  0
  158.0700  211.9400  155.1890 C   0  0  2  0  0  3  0  0  0  0  0  0
  157.3080  211.8340  153.8700 C   0  0  1  0  0  3  0  0  0  0  0  0
  156.6900  213.1110  153.5410 N   0  0  0  0  0  2  0  0  0  0  0  0
  158.2540  211.5640  152.7460 C   0  0  0  0  0  2  0  0  0  0  0  0
  158.3400  212.9080  152.0730 C   0  0  1  0  0  3  0  0  0  0  0  0
  157.5920  213.8370  152.8190 O   0  0  0  0  0  0  0  0  0  0  0  0
  159.7320  213.3430  151.9460 N   0  0  0  0  0  2  0  0  0  0  0  0
  159.8790  214.0610  150.7440 N   0  0  0  0  0  0  0  0  0  0  0  0
  161.1810  214.4210  150.6460 O   0  0  0  0  0  1  0  0  0  0  0  0
  159.5640  213.1630  149.6300 C   0  0  0  0  0  2  0  0  0  0  0  0
  160.0190  213.7090  148.3530 N   0  0  0  0  0  0  0  0  0  0  0  0
  160.3450  212.5720  147.5040 C   0  0  0  0  0  3  0  0  0  0  0  0
  161.6910  212.8000  146.8370 C   0  0  0  0  0  2  0  0  0  0  0  0
  161.5880  211.8780  148.0300 C   0  0  0  0  0  2  0  0  0  0  0  0
  158.8640  214.3630  147.7530 C   0  0  0  0  0  2  0  0  0  0  0  0
  157.7280  214.4520  148.7580 C   0  0  0  0  0  2  0  0  0  0  0  0
  155.8500  213.6500  149.4070 O   0  0  0  0  0  1  0  0  0  0  0  0
  156.7670  213.4810  148.4790 O   0  0  0  0  0  0  0  0  0  0  0  0
  158.0940  213.3900  155.6600 C   0  0  0  0  0  2  0  0  0  0  0  0
  159.4810  213.7760  156.1380 C   0  0  0  0  0  1  0  0  0  0  0  0
  160.2370  206.6000  152.5660 O   0  0  0  0  0  0  0  0  0  0  0  0
  161.0060  206.3870  151.4060 C   0  0  0  0  0  2  0  0  0  0  0  0
  161.9810  205.2460  151.6260 C   0  0  0  0  0  2  0  0  0  0  0  0
  161.2370  203.9310  151.7490 C   0  0  0  0  0  2  0  0  0  0  0  0
  161.0400  201.8320  150.1000 O   0  0  0  0  0  0  0  0  0  0  0  0
  160.8170  203.3180  150.1320 S   0  0  0  0  0  0  0  0  0  0  0  0
  159.3750  203.6160  149.8370 O   0  0  0  0  0  0  0  0  0  0  0  0
  161.8180  204.0960  148.9530 N   0  0  0  0  0  2  0  0  0  0  0  0
  161.9980  206.1990  147.6410 C   0  0  0  0  0  0  0  0  0  0  0  0
  161.6100  207.6630  147.7440 C   0  0  0  0  0  1  0  0  0  0  0  0
  161.0210  205.2720  146.9300 C   0  0  2  0  0  0  0  0  0  0  0  0
  159.8590  205.8760  146.4440 O   0  0  0  0  0  1  0  0  0  0  0  0
  163.4850  205.8660  147.5730 C   0  0  0  0  0  1  0  0  0  0  0  0
  161.0970  205.2650  148.4620 C   0  0  1  0  0  3  0  0  0  0  0  0
  161.5670  204.0690  146.1540 C   0  0  2  0  0  3  0  0  0  0  0  0
  161.6250  205.8200  144.5350 O   0  0  0  0  0  1  0  0  0  0  0  0
  161.9380  204.4770  144.7390 C   0  0  0  0  0  2  0  0  0  0  0  0
  161.2470  201.8420  146.2770 O   0  0  0  0  0  1  0  0  0  0  0  0
  160.5750  203.0070  146.1210 N   0  0  0  0  0  2  0  0  0  0  0  0
  1 33  1  6  0  0  0
  1  7  1  0  0  0  0
  3  6  1  0  0  0  0
  5 10  1  6  0  0  0
  5  9  1  0  0  0  0
  6  2  2  0  0  0  0
  6  5  1  0  0  0  0
  7  4  1  0  0  0  0
  7  9  2  0  0  0  0
  8  3  1  0  0  0  0
  8  1  1  0  0  0  0
 10 12  2  0  0  0  0
 11 13  1  0  0  0  0
 11 10  1  0  0  0  0
 13 31  1  6  0  0  0
 14 13  1  1  0  0  0
 15 14  1  0  0  0  0
 16 14  1  0  0  0  0
 17 19  1  1  0  0  0
 17 16  1  0  0  0  0
 17 18  1  0  0  0  0
 18 15  1  0  0  0  0
 20 19  1  0  0  0  0
 21 20  1  0  0  0  0
 22 20  1  0  0  0  0
 23 22  1  0  0  0  0
 24 26  1  0  0  0  0
 24 23  1  0  0  0  0
 25 24  1  0  0  0  0
 25 26  1  0  0  0  0
 27 23  1  0  0  0  0
 27 28  1  0  0  0  0
 30 28  1  0  0  0  0
 30 29  1  0  0  0  0
 31 32  1  0  0  0  0
 34 35  1  0  0  0  0
 34 33  1  0  0  0  0
 35 36  1  0  0  0  0
 37 38  2  0  0  0  0
 38 36  1  0  0  0  0
 39 38  2  0  0  0  0
 40 38  1  0  0  0  0
 41 42  1  0  0  0  0
 41 46  1  0  0  0  0
 43 44  1  6  0  0  0
 43 41  1  0  0  0  0
 43 46  1  0  0  0  0
 45 41  1  0  0  0  0
 46 40  1  6  0  0  0
 47 49  1  6  0  0  0
 47 43  1  0  0  0  0
 48 49  1  0  0  0  0
 51 47  1  0  0  0  0
 51 50  1  0  0  0  0
M  END
>  <MODEL>
9

>  <REMARK>
 VINA RESULT:      -1.8      1.975      3.669
  Name = 
  22 active torsions:
  status: ('A' for Active; 'I' for Inactive)
    1  A    between atoms: C_2  and  C_14
    2  A    between atoms: C_2  and  N_21
    3  A    between atoms: C_2  and  C_40
    4  A    between atoms: C_3  and  C_28
    5  A    between atoms: C_5  and  N_23
    6  A    between atoms: O_7  and  C_8
    7  A    between atoms: O_7  and  C_19
    8  A    between atoms: O_11  and  C_37
    9  A    between atoms: C_12  and  C_24
   10  A    between atoms: C_12  and  S_36
   11  A    between atoms: C_15  and  C_42
   12  A    between atoms: C_18  and  N_23
   13  A    between atoms: C_18  and  N_31
   14  A    between atoms: C_19  and  C_24
   15  A    between atoms: N_20  and  N_31
   16  A    between atoms: N_20  and  C_38
   17  A    between atoms: N_23  and  C_27
   18  A    between atoms: C_27  and  C_37
   19  A    between atoms: C_29  and  C_42
   20  A    between atoms: N_35  and  C_42
   21  A    between atoms: S_36  and  N_44
   22  A    between atoms: N_44  and  C_51
                            x       y       z     vdW  Elec       q    Type
                         _______ _______ _______ _____ _____    ______ ____

>  <TORSDO>
F 22

$$$$
