=
 OpenBabel11042422413D

 66 73  0  0  1  0  0  0  0  0999 V2000
  160.9210  211.6280  151.4010 C   0  0  2  0  0  3  0  0  0  0  0  0
  160.5730  212.8700  150.6000 C   0  0  0  0  0  0  0  0  0  0  0  0
  162.0270  210.8190  149.2980 C   0  0  0  0  0  3  0  0  0  0  0  0
  161.7760  210.6430  150.6050 C   0  0  0  0  0  0  0  0  0  0  0  0
  160.8480  212.9440  149.1470 C   0  0  0  0  0  0  0  0  0  0  0  0
  160.0850  213.8720  151.1930 O   0  0  0  0  0  0  0  0  0  0  0  0
  161.5300  211.9730  148.5560 C   0  0  0  0  0  3  0  0  0  0  0  0
  162.5750  208.3430  150.6140 C   0  0  0  0  0  3  0  0  0  0  0  0
  162.9780  209.6680  152.5270 O   0  0  0  0  0  1  0  0  0  0  0  0
  162.4270  209.5020  151.2580 C   0  0  0  0  0  0  0  0  0  0  0  0
  163.2760  207.1800  151.2250 C   0  0  0  0  0  2  0  0  0  0  0  0
  160.7560  206.1280  153.8610 C   0  0  0  0  0  3  0  0  0  0  0  0
  160.5020  204.8030  153.4880 C   0  0  0  0  0  3  0  0  0  0  0  0
  161.1520  204.2460  152.3680 C   0  0  0  0  0  0  0  0  0  0  0  0
  162.3260  206.3450  152.0170 C   0  0  0  0  0  0  0  0  0  0  0  0
  162.0670  205.0190  151.6340 C   0  0  0  0  0  3  0  0  0  0  0  0
  161.6630  206.9020  153.1250 C   0  0  0  0  0  3  0  0  0  0  0  0
  160.8250  202.8470  151.9140 C   0  0  0  0  0  2  0  0  0  0  0  0
  161.1600  202.3150  147.7170 C   0  0  0  0  0  0  0  0  0  0  0  0
  161.5130  204.4960  145.9930 C   0  0  0  0  0  0  0  0  0  0  0  0
  161.2170  202.5960  150.5180 N   0  0  0  0  0  0  0  0  0  0  0  0
  161.1600  203.8580  149.7300 C   0  0  1  0  0  3  0  0  0  0  0  0
  160.3160  201.6020  149.9170 C   0  0  0  0  0  2  0  0  0  0  0  0
  161.3450  203.6100  148.2510 C   0  0  0  0  0  0  0  0  0  0  0  0
  161.2170  202.1180  146.3370 C   0  0  0  0  0  3  0  0  0  0  0  0
  161.6240  205.6600  145.0810 C   0  0  0  0  0  1  0  0  0  0  0  0
  160.9310  201.1430  148.6080 C   0  0  0  0  0  2  0  0  0  0  0  0
  161.4990  204.6980  147.3810 C   0  0  0  0  0  3  0  0  0  0  0  0
  161.3800  203.2080  145.4720 C   0  0  0  0  0  3  0  0  0  0  0  0
  159.8940  205.9640  149.7640 C   0  0  0  0  0  2  0  0  0  0  0  0
  159.8840  204.6430  149.9490 C   0  0  0  0  0  3  0  0  0  0  0  0
  159.4210  210.7830  153.3830 C   0  0  1  0  0  3  0  0  0  0  0  0
  159.6470  210.9150  151.9080 C   0  0  2  0  0  3  0  0  0  0  0  0
  160.0450  209.7710  152.6350 O   0  0  0  0  0  0  0  0  0  0  0  0
  160.4220  211.5110  154.2860 C   0  0  1  0  0  3  0  0  0  0  0  0
  159.7520  212.8060  154.7300 C   0  0  0  0  0  2  0  0  0  0  0  0
  160.1560  209.5300  155.7110 O   0  0  0  0  0  1  0  0  0  0  0  0
  160.4220  211.6540  156.7390 C   0  0  0  0  0  2  0  0  0  0  0  0
  159.6610  212.7400  156.1740 N   0  0  0  0  0  0  0  0  0  0  0  0
  158.5510  213.2730  156.8830 C   0  0  0  0  0  3  0  0  0  0  0  0
  157.7700  214.0970  156.3360 O   0  0  0  0  0  0  0  0  0  0  0  0
  160.8120  210.7560  155.5730 C   0  0  2  0  0  3  0  0  0  0  0  0
  160.5460  214.1840  148.3680 C   0  0  0  0  0  2  0  0  0  0  0  0
  161.6960  214.4530  147.4130 C   0  0  0  0  0  2  0  0  0  0  0  0
  161.6270  213.5100  146.2310 C   0  0  0  0  0  2  0  0  0  0  0  0
  161.3220  214.3250  144.9830 C   0  0  0  0  0  2  0  0  0  0  0  0
  159.8340  214.2580  144.6700 C   0  0  0  0  0  2  0  0  0  0  0  0
  158.3800  213.9360  142.6330 C   0  0  0  0  0  1  0  0  0  0  0  0
  160.6980  213.0450  142.6690 C   0  0  0  0  0  0  0  0  0  0  0  0
  160.8290  211.7970  142.7130 O   0  0  0  0  0  0  0  0  0  0  0  0
  159.6150  213.6650  143.3560 N   0  0  0  0  0  0  0  0  0  0  0  0
  161.5840  213.8710  141.7880 C   0  0  1  0  0  3  0  0  0  0  0  0
  162.9070  213.8040  142.2320 O   0  0  0  0  0  1  0  0  0  0  0  0
  162.0520  212.2500  140.0280 O   0  0  0  0  0  1  0  0  0  0  0  0
  161.5100  213.5210  140.2900 C   0  0  1  0  0  3  0  0  0  0  0  0
  160.0670  213.6260  139.7960 C   0  0  0  0  0  2  0  0  0  0  0  0
  158.6570  212.6280  137.9800 C   0  0  0  0  0  0  0  0  0  0  0  0
  158.5980  211.8030  137.0210 O   0  0  0  0  0  0  0  0  0  0  0  0
  157.4550  213.0870  138.6120 N   0  0  0  0  0  2  0  0  0  0  0  0
  159.9320  213.0480  138.4660 N   0  0  0  0  0  2  0  0  0  0  0  0
  155.0780  213.5440  138.6560 C   0  0  1  0  0  3  0  0  0  0  0  0
  156.1430  212.5900  138.2320 C   0  0  1  0  0  0  0  0  0  0  0  0
  155.3530  213.3410  137.1770 C   0  0  0  0  0  2  0  0  0  0  0  0
  153.9850  212.6160  139.1350 C   0  0  0  0  0  2  0  0  0  0  0  0
  155.7170  211.2340  138.7380 C   0  0  0  0  0  2  0  0  0  0  0  0
  154.5540  211.3900  139.5190 O   0  0  0  0  0  0  0  0  0  0  0  0
  1  2  1  6  0  0  0
  1 33  1  0  0  0  0
  2  6  2  0  0  0  0
  3  4  2  0  0  0  0
  4 10  1  0  0  0  0
  4  1  1  0  0  0  0
  5  2  1  0  0  0  0
  7  5  2  0  0  0  0
  7  3  1  0  0  0  0
  8 11  1  0  0  0  0
  8 10  2  0  0  0  0
 10  9  1  0  0  0  0
 11 15  1  0  0  0  0
 13 12  1  0  0  0  0
 14 13  2  0  0  0  0
 15 17  1  0  0  0  0
 16 15  2  0  0  0  0
 16 14  1  0  0  0  0
 17 12  2  0  0  0  0
 18 14  1  0  0  0  0
 19 24  1  0  0  0  0
 19 27  1  0  0  0  0
 20 28  1  0  0  0  0
 21 18  1  0  0  0  0
 22 31  1  6  0  0  0
 22 21  1  0  0  0  0
 23 21  1  0  0  0  0
 24 22  1  0  0  0  0
 25 19  2  0  0  0  0
 26 20  1  0  0  0  0
 27 23  1  0  0  0  0
 28 24  2  0  0  0  0
 29 20  2  0  0  0  0
 29 25  1  0  0  0  0
 30 31  2  0  0  0  0
 32 34  1  1  0  0  0
 32 35  1  0  0  0  0
 33 34  1  6  0  0  0
 33 32  1  0  0  0  0
 35 36  1  1  0  0  0
 35 42  1  0  0  0  0
 36 39  1  0  0  0  0
 39 38  1  0  0  0  0
 39 40  1  0  0  0  0
 41 40  2  0  0  0  0
 42 37  1  1  0  0  0
 42 38  1  0  0  0  0
 43  5  1  0  0  0  0
 44 43  1  0  0  0  0
 45 44  1  0  0  0  0
 46 45  1  0  0  0  0
 47 46  1  0  0  0  0
 48 51  1  0  0  0  0
 49 50  2  0  0  0  0
 49 51  1  0  0  0  0
 51 47  1  0  0  0  0
 52 53  1  1  0  0  0
 52 49  1  0  0  0  0
 55 54  1  1  0  0  0
 55 52  1  0  0  0  0
 56 55  1  0  0  0  0
 57 60  1  0  0  0  0
 57 59  1  0  0  0  0
 58 57  2  0  0  0  0
 60 56  1  0  0  0  0
 61 63  1  6  0  0  0
 61 64  1  0  0  0  0
 62 59  1  1  0  0  0
 62 61  1  0  0  0  0
 62 65  1  0  0  0  0
 63 62  1  0  0  0  0
 64 66  1  0  0  0  0
 65 66  1  0  0  0  0
M  END
>  <MODEL>
1

>  <REMARK>
 VINA RESULT:      -6.1      0.000      0.000
  Name = 
  19 active torsions:
  status: ('A' for Active; 'I' for Inactive)
    1  A    between atoms: C_4  and  C_36
    2  A    between atoms: N_7  and  C_29
    3  A    between atoms: C_8  and  C_33
    4  A    between atoms: C_10  and  N_57
    5  A    between atoms: C_13  and  C_16
    6  A    between atoms: C_13  and  C_52
    7  A    between atoms: C_15  and  C_52
    8  A    between atoms: C_15  and  N_64
    9  A    between atoms: C_17  and  C_25
   10  A    between atoms: C_18  and  C_27
   11  A    between atoms: C_21  and  C_38
   12  A    between atoms: C_21  and  N_58
   13  A    between atoms: C_22  and  C_23
   14  A    between atoms: C_29  and  C_32
   15  A    between atoms: C_33  and  C_42
   16  A    between atoms: C_34  and  C_46
   17  A    between atoms: C_34  and  C_51
   18  A    between atoms: C_38  and  C_51
   19  A    between atoms: C_46  and  C_53
                            x       y       z     vdW  Elec       q    Type
                         _______ _______ _______ _____ _____    ______ ____

>  <TORSDO>
F 19

$$$$
=
 OpenBabel11042422413D

 66 73  0  0  1  0  0  0  0  0999 V2000
  160.6320  210.3750  151.6210 C   0  0  2  0  0  3  0  0  0  0  0  0
  160.5070  209.0320  152.3180 C   0  0  0  0  0  0  0  0  0  0  0  0
  162.3450  209.2470  150.1740 C   0  0  0  0  0  3  0  0  0  0  0  0
  161.5930  210.3280  150.4340 C   0  0  0  0  0  0  0  0  0  0  0  0
  161.4220  207.9140  151.9920 C   0  0  0  0  0  0  0  0  0  0  0  0
  159.5780  208.8520  153.1530 O   0  0  0  0  0  0  0  0  0  0  0  0
  162.2760  208.0350  150.9850 C   0  0  0  0  0  3  0  0  0  0  0  0
  160.5880  212.1480  149.1670 C   0  0  0  0  0  3  0  0  0  0  0  0
  162.9160  211.8060  148.9650 O   0  0  0  0  0  1  0  0  0  0  0  0
  161.6740  211.4370  149.4780 C   0  0  0  0  0  0  0  0  0  0  0  0
  160.6400  213.3130  148.2410 C   0  0  0  0  0  2  0  0  0  0  0  0
  157.0700  212.9520  147.0070 C   0  0  0  0  0  3  0  0  0  0  0  0
  157.1860  213.4010  145.6870 C   0  0  0  0  0  3  0  0  0  0  0  0
  158.4350  213.8300  145.1920 C   0  0  0  0  0  0  0  0  0  0  0  0
  159.4480  213.3310  147.3450 C   0  0  0  0  0  0  0  0  0  0  0  0
  159.5660  213.7900  146.0230 C   0  0  0  0  0  3  0  0  0  0  0  0
  158.1970  212.9200  147.8390 C   0  0  0  0  0  3  0  0  0  0  0  0
  158.5520  214.3870  143.7980 C   0  0  0  0  0  2  0  0  0  0  0  0
  161.3350  212.3910  141.2920 C   0  0  0  0  0  0  0  0  0  0  0  0
  161.7790  213.2210  138.6520 C   0  0  0  0  0  0  0  0  0  0  0  0
  159.7140  213.8540  143.0690 N   0  0  0  0  0  0  0  0  0  0  0  0
  159.6590  214.2630  141.6380 C   0  0  1  0  0  3  0  0  0  0  0  0
  159.7330  212.3870  143.1600 C   0  0  0  0  0  2  0  0  0  0  0  0
  160.7120  213.5630  140.8100 C   0  0  0  0  0  0  0  0  0  0  0  0
  162.2190  211.6870  140.4720 C   0  0  0  0  0  3  0  0  0  0  0  0
  161.9530  213.6180  137.2340 C   0  0  0  0  0  1  0  0  0  0  0  0
  161.0880  211.9040  142.6780 C   0  0  0  0  0  2  0  0  0  0  0  0
  160.9220  213.9590  139.4820 C   0  0  0  0  0  3  0  0  0  0  0  0
  162.4320  212.0920  139.1490 C   0  0  0  0  0  3  0  0  0  0  0  0
  158.0470  212.8880  140.3930 C   0  0  0  0  0  2  0  0  0  0  0  0
  158.3000  214.0450  141.0060 C   0  0  0  0  0  3  0  0  0  0  0  0
  160.0510  212.3730  153.2230 C   0  0  1  0  0  3  0  0  0  0  0  0
  161.0830  211.4760  152.6080 C   0  0  2  0  0  3  0  0  0  0  0  0
  160.7400  212.7290  152.0510 O   0  0  0  0  0  0  0  0  0  0  0  0
  158.5900  212.0200  152.9270 C   0  0  1  0  0  3  0  0  0  0  0  0
  158.0370  211.3510  154.1800 C   0  0  0  0  0  2  0  0  0  0  0  0
  158.3350  214.4530  152.7150 O   0  0  0  0  0  1  0  0  0  0  0  0
  156.5670  213.1950  153.6810 C   0  0  0  0  0  2  0  0  0  0  0  0
  156.9460  212.1860  154.6380 N   0  0  0  0  0  0  0  0  0  0  0  0
  156.6770  212.3810  156.0190 C   0  0  0  0  0  3  0  0  0  0  0  0
  157.1520  211.6010  156.8870 O   0  0  0  0  0  0  0  0  0  0  0  0
  157.6720  213.2250  152.6340 C   0  0  2  0  0  3  0  0  0  0  0  0
  161.2710  206.5790  152.6460 C   0  0  0  0  0  2  0  0  0  0  0  0
  162.0950  205.5610  151.8750 C   0  0  0  0  0  2  0  0  0  0  0  0
  161.1890  204.6700  151.0520 C   0  0  0  0  0  2  0  0  0  0  0  0
  160.9020  203.4070  151.8490 C   0  0  0  0  0  2  0  0  0  0  0  0
  161.5970  202.2170  151.2050 C   0  0  0  0  0  2  0  0  0  0  0  0
  159.2570  201.5640  150.5180 C   0  0  0  0  0  1  0  0  0  0  0  0
  161.1820  201.0750  149.0260 C   0  0  0  0  0  0  0  0  0  0  0  0
  161.5060  199.8700  148.8890 O   0  0  0  0  0  0  0  0  0  0  0  0
  160.6950  201.5360  150.2830 N   0  0  0  0  0  0  0  0  0  0  0  0
  161.1680  201.9970  147.8450 C   0  0  1  0  0  3  0  0  0  0  0  0
  162.2450  202.8850  147.9120 O   0  0  0  0  0  1  0  0  0  0  0  0
  161.6360  199.9750  146.5660 O   0  0  0  0  0  1  0  0  0  0  0  0
  161.1490  201.2910  146.4770 C   0  0  1  0  0  3  0  0  0  0  0  0
  159.7390  201.3250  145.8870 C   0  0  0  0  0  2  0  0  0  0  0  0
  160.1600  203.4790  144.6760 C   0  0  0  0  0  0  0  0  0  0  0  0
  159.7870  204.2650  143.7560 O   0  0  0  0  0  0  0  0  0  0  0  0
  160.9810  203.9620  145.7490 N   0  0  0  0  0  2  0  0  0  0  0  0
  159.7060  202.1260  144.6700 N   0  0  0  0  0  2  0  0  0  0  0  0
  162.5790  205.5040  146.7130 C   0  0  1  0  0  3  0  0  0  0  0  0
  161.3630  205.3600  145.8610 C   0  0  1  0  0  0  0  0  0  0  0  0
  162.6650  205.8160  145.2300 C   0  0  0  0  0  2  0  0  0  0  0  0
  162.2680  206.7500  147.5110 C   0  0  0  0  0  2  0  0  0  0  0  0
  160.3510  206.3370  146.4060 C   0  0  0  0  0  2  0  0  0  0  0  0
  160.8750  206.9240  147.5750 O   0  0  0  0  0  0  0  0  0  0  0  0
  1  4  1  6  0  0  0
  1  2  1  0  0  0  0
  1 33  1  0  0  0  0
  2  6  2  0  0  0  0
  3  4  2  0  0  0  0
  3  7  1  0  0  0  0
  5  2  1  0  0  0  0
  5 43  1  0  0  0  0
  7  5  2  0  0  0  0
  8 10  2  0  0  0  0
  9 10  1  0  0  0  0
 10  4  1  0  0  0  0
 11  8  1  0  0  0  0
 12 17  1  0  0  0  0
 13 12  2  0  0  0  0
 14 13  1  0  0  0  0
 14 16  2  0  0  0  0
 15 17  2  0  0  0  0
 15 11  1  0  0  0  0
 16 15  1  0  0  0  0
 18 14  1  0  0  0  0
 19 27  1  0  0  0  0
 20 29  2  0  0  0  0
 20 28  1  0  0  0  0
 21 23  1  0  0  0  0
 21 18  1  0  0  0  0
 22 31  1  6  0  0  0
 22 21  1  0  0  0  0
 24 19  1  0  0  0  0
 24 22  1  0  0  0  0
 25 19  2  0  0  0  0
 26 20  1  0  0  0  0
 27 23  1  0  0  0  0
 28 24  2  0  0  0  0
 29 25  1  0  0  0  0
 30 31  2  0  0  0  0
 32 34  1  6  0  0  0
 33 34  1  6  0  0  0
 33 32  1  0  0  0  0
 35 32  1  0  0  0  0
 35 36  1  1  0  0  0
 36 39  1  0  0  0  0
 38 39  1  0  0  0  0
 39 40  1  0  0  0  0
 40 41  2  0  0  0  0
 42 37  1  1  0  0  0
 42 35  1  0  0  0  0
 42 38  1  0  0  0  0
 44 43  1  0  0  0  0
 45 46  1  0  0  0  0
 45 44  1  0  0  0  0
 47 46  1  0  0  0  0
 49 51  1  0  0  0  0
 50 49  2  0  0  0  0
 51 48  1  0  0  0  0
 51 47  1  0  0  0  0
 52 53  1  6  0  0  0
 52 49  1  0  0  0  0
 55 54  1  1  0  0  0
 55 52  1  0  0  0  0
 56 55  1  0  0  0  0
 57 59  1  0  0  0  0
 58 57  2  0  0  0  0
 60 57  1  0  0  0  0
 60 56  1  0  0  0  0
 61 63  1  6  0  0  0
 61 64  1  0  0  0  0
 62 59  1  6  0  0  0
 62 65  1  0  0  0  0
 62 61  1  0  0  0  0
 63 62  1  0  0  0  0
 64 66  1  0  0  0  0
 65 66  1  0  0  0  0
M  END
>  <MODEL>
2

>  <REMARK>
 VINA RESULT:      -5.6      3.160     10.227
  Name = 
  19 active torsions:
  status: ('A' for Active; 'I' for Inactive)
    1  A    between atoms: C_4  and  C_36
    2  A    between atoms: N_7  and  C_29
    3  A    between atoms: C_8  and  C_33
    4  A    between atoms: C_10  and  N_57
    5  A    between atoms: C_13  and  C_16
    6  A    between atoms: C_13  and  C_52
    7  A    between atoms: C_15  and  C_52
    8  A    between atoms: C_15  and  N_64
    9  A    between atoms: C_17  and  C_25
   10  A    between atoms: C_18  and  C_27
   11  A    between atoms: C_21  and  C_38
   12  A    between atoms: C_21  and  N_58
   13  A    between atoms: C_22  and  C_23
   14  A    between atoms: C_29  and  C_32
   15  A    between atoms: C_33  and  C_42
   16  A    between atoms: C_34  and  C_46
   17  A    between atoms: C_34  and  C_51
   18  A    between atoms: C_38  and  C_51
   19  A    between atoms: C_46  and  C_53
                            x       y       z     vdW  Elec       q    Type
                         _______ _______ _______ _____ _____    ______ ____

>  <TORSDO>
F 19

$$$$
=
 OpenBabel11042422413D

 66 73  0  0  1  0  0  0  0  0999 V2000
  159.0290  212.4840  151.4170 C   0  0  2  0  0  3  0  0  0  0  0  0
  159.5380  211.5680  152.5170 C   0  0  0  0  0  0  0  0  0  0  0  0
  161.1100  211.8280  150.1750 C   0  0  0  0  0  3  0  0  0  0  0  0
  159.9290  212.4660  150.1830 C   0  0  0  0  0  0  0  0  0  0  0  0
  160.8820  210.9500  152.4350 C   0  0  0  0  0  0  0  0  0  0  0  0
  158.7840  211.2910  153.4900 O   0  0  0  0  0  0  0  0  0  0  0  0
  161.6020  211.0840  151.3300 C   0  0  0  0  0  3  0  0  0  0  0  0
  160.3680  213.7440  148.1580 C   0  0  0  0  0  3  0  0  0  0  0  0
  158.1930  212.8830  148.4790 O   0  0  0  0  0  1  0  0  0  0  0  0
  159.4990  213.0800  148.9210 C   0  0  0  0  0  0  0  0  0  0  0  0
  159.9810  214.3360  146.8470 C   0  0  0  0  0  2  0  0  0  0  0  0
  163.0250  212.8620  145.1260 C   0  0  0  0  0  3  0  0  0  0  0  0
  162.7490  213.1470  143.7840 C   0  0  0  0  0  3  0  0  0  0  0  0
  161.5620  213.8200  143.4320 C   0  0  0  0  0  0  0  0  0  0  0  0
  160.9460  213.9390  145.7810 C   0  0  0  0  0  0  0  0  0  0  0  0
  160.6620  214.2190  144.4340 C   0  0  0  0  0  3  0  0  0  0  0  0
  162.1240  213.2530  146.1260 C   0  0  0  0  0  3  0  0  0  0  0  0
  161.2210  214.0600  141.9850 C   0  0  0  0  0  2  0  0  0  0  0  0
  159.5250  211.1140  139.4430 C   0  0  0  0  0  0  0  0  0  0  0  0
  161.1290  209.2640  138.0800 C   0  0  0  0  0  0  0  0  0  0  0  0
  160.5840  212.8950  141.3500 N   0  0  0  0  0  0  0  0  0  0  0  0
  161.5730  212.1510  140.5220 C   0  0  1  0  0  3  0  0  0  0  0  0
  159.4670  213.3360  140.5020 C   0  0  0  0  0  2  0  0  0  0  0  0
  160.9160  211.0780  139.6850 C   0  0  0  0  0  0  0  0  0  0  0  0
  158.9460  210.1880  138.5740 C   0  0  0  0  0  3  0  0  0  0  0  0
  161.9870  208.3380  137.3040 C   0  0  0  0  0  1  0  0  0  0  0  0
  158.6530  212.1130  140.1240 C   0  0  0  0  0  2  0  0  0  0  0  0
  161.7130  210.1630  138.9830 C   0  0  0  0  0  3  0  0  0  0  0  0
  159.7470  209.2710  137.8820 C   0  0  0  0  0  3  0  0  0  0  0  0
  163.6900  212.7760  139.4440 C   0  0  0  0  0  2  0  0  0  0  0  0
  162.3980  213.0490  139.6240 C   0  0  0  0  0  3  0  0  0  0  0  0
  157.7280  214.2810  152.8220 C   0  0  1  0  0  3  0  0  0  0  0  0
  158.8790  213.9360  151.9270 C   0  0  2  0  0  3  0  0  0  0  0  0
  157.6610  214.4500  151.4290 O   0  0  0  0  0  0  0  0  0  0  0  0
  156.8600  213.1070  153.2850 C   0  0  1  0  0  3  0  0  0  0  0  0
  156.8900  213.1120  154.8090 C   0  0  0  0  0  2  0  0  0  0  0  0
  155.0640  214.3520  152.1660 O   0  0  0  0  0  1  0  0  0  0  0  0
  154.5670  213.1750  154.1670 C   0  0  0  0  0  2  0  0  0  0  0  0
  155.5210  213.3030  155.2400 N   0  0  0  0  0  0  0  0  0  0  0  0
  155.1960  214.0690  156.3920 C   0  0  0  0  0  3  0  0  0  0  0  0
  156.0700  214.3380  157.2580 O   0  0  0  0  0  0  0  0  0  0  0  0
  155.3750  213.1890  152.8770 C   0  0  2  0  0  3  0  0  0  0  0  0
  161.3640  210.0130  153.4950 C   0  0  0  0  0  2  0  0  0  0  0  0
  162.6010  209.2930  152.9850 C   0  0  0  0  0  2  0  0  0  0  0  0
  162.4010  207.7940  153.0560 C   0  0  0  0  0  2  0  0  0  0  0  0
  160.9460  207.4880  152.7370 C   0  0  0  0  0  2  0  0  0  0  0  0
  160.5400  206.1680  153.3770 C   0  0  0  0  0  2  0  0  0  0  0  0
  160.6850  203.6990  152.8770 C   0  0  0  0  0  1  0  0  0  0  0  0
  162.1540  205.3050  151.6810 C   0  0  0  0  0  0  0  0  0  0  0  0
  163.3790  205.2720  151.9550 O   0  0  0  0  0  0  0  0  0  0  0  0
  161.1950  205.0520  152.7040 N   0  0  0  0  0  0  0  0  0  0  0  0
  161.6960  205.4680  150.2630 C   0  0  1  0  0  3  0  0  0  0  0  0
  160.4080  204.9490  150.1090 O   0  0  0  0  0  1  0  0  0  0  0  0
  163.0030  207.2020  149.1530 O   0  0  0  0  0  1  0  0  0  0  0  0
  161.7540  206.9110  149.7300 C   0  0  1  0  0  3  0  0  0  0  0  0
  160.6120  207.1530  148.7420 C   0  0  0  0  0  2  0  0  0  0  0  0
  161.4830  206.1590  146.6120 C   0  0  0  0  0  0  0  0  0  0  0  0
  162.2600  206.2960  145.6220 O   0  0  0  0  0  0  0  0  0  0  0  0
  161.0160  204.8560  146.9880 N   0  0  0  0  0  2  0  0  0  0  0  0
  161.1250  207.3030  147.3870 N   0  0  0  0  0  2  0  0  0  0  0  0
  160.5070  203.2970  145.2070 C   0  0  1  0  0  3  0  0  0  0  0  0
  161.4540  203.6510  146.3030 C   0  0  1  0  0  0  0  0  0  0  0  0
  161.9130  203.7530  144.8610 C   0  0  0  0  0  2  0  0  0  0  0  0
  160.4370  201.7910  145.3130 C   0  0  0  0  0  2  0  0  0  0  0  0
  161.6410  202.3940  147.1160 C   0  0  0  0  0  2  0  0  0  0  0  0
  160.7700  201.4030  146.6220 O   0  0  0  0  0  0  0  0  0  0  0  0
  1  4  1  6  0  0  0
  1 33  1  0  0  0  0
  1  2  1  0  0  0  0
  2  6  2  0  0  0  0
  3  4  2  0  0  0  0
  3  7  1  0  0  0  0
  5  2  1  0  0  0  0
  5 43  1  0  0  0  0
  7  5  2  0  0  0  0
  8 10  2  0  0  0  0
  9 10  1  0  0  0  0
 10  4  1  0  0  0  0
 11  8  1  0  0  0  0
 12 17  1  0  0  0  0
 13 12  2  0  0  0  0
 14 13  1  0  0  0  0
 14 16  2  0  0  0  0
 15 17  2  0  0  0  0
 15 11  1  0  0  0  0
 16 15  1  0  0  0  0
 18 14  1  0  0  0  0
 19 24  1  0  0  0  0
 19 27  1  0  0  0  0
 20 28  1  0  0  0  0
 21 18  1  0  0  0  0
 22 31  1  6  0  0  0
 22 21  1  0  0  0  0
 23 21  1  0  0  0  0
 24 22  1  0  0  0  0
 25 19  2  0  0  0  0
 26 20  1  0  0  0  0
 27 23  1  0  0  0  0
 28 24  2  0  0  0  0
 29 20  2  0  0  0  0
 29 25  1  0  0  0  0
 30 31  2  0  0  0  0
 32 34  1  6  0  0  0
 32 35  1  0  0  0  0
 33 34  1  6  0  0  0
 33 32  1  0  0  0  0
 35 36  1  1  0  0  0
 36 39  1  0  0  0  0
 38 39  1  0  0  0  0
 39 40  1  0  0  0  0
 40 41  2  0  0  0  0
 42 37  1  1  0  0  0
 42 35  1  0  0  0  0
 42 38  1  0  0  0  0
 44 45  1  0  0  0  0
 44 43  1  0  0  0  0
 46 45  1  0  0  0  0
 46 47  1  0  0  0  0
 49 50  2  0  0  0  0
 49 51  1  0  0  0  0
 51 48  1  0  0  0  0
 51 47  1  0  0  0  0
 52 53  1  1  0  0  0
 52 49  1  0  0  0  0
 55 54  1  6  0  0  0
 55 52  1  0  0  0  0
 56 55  1  0  0  0  0
 57 59  1  0  0  0  0
 57 60  1  0  0  0  0
 58 57  2  0  0  0  0
 60 56  1  0  0  0  0
 61 63  1  6  0  0  0
 61 64  1  0  0  0  0
 61 62  1  0  0  0  0
 62 59  1  1  0  0  0
 62 65  1  0  0  0  0
 63 62  1  0  0  0  0
 64 66  1  0  0  0  0
 66 65  1  0  0  0  0
M  END
>  <MODEL>
3

>  <REMARK>
 VINA RESULT:      -3.9      3.234     10.132
  Name = 
  19 active torsions:
  status: ('A' for Active; 'I' for Inactive)
    1  A    between atoms: C_4  and  C_36
    2  A    between atoms: N_7  and  C_29
    3  A    between atoms: C_8  and  C_33
    4  A    between atoms: C_10  and  N_57
    5  A    between atoms: C_13  and  C_16
    6  A    between atoms: C_13  and  C_52
    7  A    between atoms: C_15  and  C_52
    8  A    between atoms: C_15  and  N_64
    9  A    between atoms: C_17  and  C_25
   10  A    between atoms: C_18  and  C_27
   11  A    between atoms: C_21  and  C_38
   12  A    between atoms: C_21  and  N_58
   13  A    between atoms: C_22  and  C_23
   14  A    between atoms: C_29  and  C_32
   15  A    between atoms: C_33  and  C_42
   16  A    between atoms: C_34  and  C_46
   17  A    between atoms: C_34  and  C_51
   18  A    between atoms: C_38  and  C_51
   19  A    between atoms: C_46  and  C_53
                            x       y       z     vdW  Elec       q    Type
                         _______ _______ _______ _____ _____    ______ ____

>  <TORSDO>
F 19

$$$$
=
 OpenBabel11042422413D

 66 73  0  0  1  0  0  0  0  0999 V2000
  160.9570  211.0400  151.9630 C   0  0  2  0  0  3  0  0  0  0  0  0
  160.6040  212.3010  151.1930 C   0  0  0  0  0  0  0  0  0  0  0  0
  161.8350  210.1840  149.7720 C   0  0  0  0  0  3  0  0  0  0  0  0
  161.6890  210.0160  151.0960 C   0  0  0  0  0  0  0  0  0  0  0  0
  160.7570  212.3660  149.7220 C   0  0  0  0  0  0  0  0  0  0  0  0
  160.2210  213.3240  151.8250 O   0  0  0  0  0  0  0  0  0  0  0  0
  161.3360  211.3640  149.0750 C   0  0  0  0  0  3  0  0  0  0  0  0
  162.6960  207.8060  150.9320 C   0  0  0  0  0  3  0  0  0  0  0  0
  162.6580  208.8560  153.0470 O   0  0  0  0  0  1  0  0  0  0  0  0
  162.3360  208.8420  151.6920 C   0  0  0  0  0  0  0  0  0  0  0  0
  163.4010  206.6190  151.4930 C   0  0  0  0  0  2  0  0  0  0  0  0
  160.5400  204.9950  153.3860 C   0  0  0  0  0  3  0  0  0  0  0  0
  160.5460  203.7050  152.8440 C   0  0  0  0  0  3  0  0  0  0  0  0
  161.4840  203.3590  151.8500 C   0  0  0  0  0  0  0  0  0  0  0  0
  162.4220  205.5990  151.9700 C   0  0  0  0  0  0  0  0  0  0  0  0
  162.4250  204.3080  151.4160 C   0  0  0  0  0  3  0  0  0  0  0  0
  161.4730  205.9440  152.9490 C   0  0  0  0  0  3  0  0  0  0  0  0
  161.4460  201.9980  151.2060 C   0  0  0  0  0  2  0  0  0  0  0  0
  161.1210  202.4180  146.9950 C   0  0  0  0  0  0  0  0  0  0  0  0
  161.3660  204.9190  145.7540 C   0  0  0  0  0  0  0  0  0  0  0  0
  161.6090  202.0570  149.7440 N   0  0  0  0  0  0  0  0  0  0  0  0
  161.5240  203.4650  149.2690 C   0  0  1  0  0  3  0  0  0  0  0  0
  160.5640  201.2550  149.0910 C   0  0  0  0  0  2  0  0  0  0  0  0
  161.4710  203.5510  147.7620 C   0  0  0  0  0  0  0  0  0  0  0  0
  160.9600  202.5370  145.6130 C   0  0  0  0  0  3  0  0  0  0  0  0
  161.4210  206.2540  145.1130 C   0  0  0  0  0  1  0  0  0  0  0  0
  160.9460  201.0830  147.6330 C   0  0  0  0  0  2  0  0  0  0  0  0
  161.5700  204.8020  147.1370 C   0  0  0  0  0  3  0  0  0  0  0  0
  161.0680  203.7880  144.9930 C   0  0  0  0  0  3  0  0  0  0  0  0
  160.0020  205.3930  149.3180 C   0  0  0  0  0  2  0  0  0  0  0  0
  160.3510  204.2240  149.8540 C   0  0  0  0  0  3  0  0  0  0  0  0
  159.3370  210.6950  154.0000 C   0  0  1  0  0  3  0  0  0  0  0  0
  159.6960  210.3910  152.5770 C   0  0  2  0  0  3  0  0  0  0  0  0
  160.1060  209.5720  153.6530 O   0  0  0  0  0  0  0  0  0  0  0  0
  160.1880  211.7630  154.6950 C   0  0  1  0  0  3  0  0  0  0  0  0
  159.2470  212.9070  155.0570 C   0  0  0  0  0  2  0  0  0  0  0  0
  160.5460  209.9970  156.3620 O   0  0  0  0  0  1  0  0  0  0  0  0
  160.3430  212.2450  157.1000 C   0  0  0  0  0  2  0  0  0  0  0  0
  159.2890  213.0240  156.5000 N   0  0  0  0  0  0  0  0  0  0  0  0
  158.1390  213.3670  157.2610 C   0  0  0  0  0  3  0  0  0  0  0  0
  157.1340  213.8920  156.7120 O   0  0  0  0  0  0  0  0  0  0  0  0
  160.8560  211.3140  156.0100 C   0  0  2  0  0  3  0  0  0  0  0  0
  160.4520  213.6220  148.9700 C   0  0  0  0  0  2  0  0  0  0  0  0
  161.5370  213.8460  147.9320 C   0  0  0  0  0  2  0  0  0  0  0  0
  161.2780  212.9900  146.7100 C   0  0  0  0  0  2  0  0  0  0  0  0
  161.0030  213.9080  145.5290 C   0  0  0  0  0  2  0  0  0  0  0  0
  159.5040  214.1170  145.3710 C   0  0  0  0  0  2  0  0  0  0  0  0
  157.8990  214.4270  143.4490 C   0  0  0  0  0  1  0  0  0  0  0  0
  159.9620  213.0750  143.1520 C   0  0  0  0  0  0  0  0  0  0  0  0
  159.8160  211.8360  143.0100 O   0  0  0  0  0  0  0  0  0  0  0  0
  159.0830  213.7940  144.0130 N   0  0  0  0  0  0  0  0  0  0  0  0
  160.9560  213.8240  142.3170 C   0  0  1  0  0  3  0  0  0  0  0  0
  162.2460  213.3460  142.5570 O   0  0  0  0  0  1  0  0  0  0  0  0
  161.7090  213.2320  140.0750 O   0  0  0  0  0  1  0  0  0  0  0  0
  160.6610  213.8190  140.8060 C   0  0  1  0  0  3  0  0  0  0  0  0
  159.3290  213.1210  140.5320 C   0  0  0  0  0  2  0  0  0  0  0  0
  159.5890  212.0130  138.2980 C   0  0  0  0  0  0  0  0  0  0  0  0
  159.6760  212.1690  137.0450 O   0  0  0  0  0  0  0  0  0  0  0  0
  160.0770  210.8120  138.9120 N   0  0  0  0  0  2  0  0  0  0  0  0
  159.0580  213.0670  139.1020 N   0  0  0  0  0  2  0  0  0  0  0  0
  160.1610  208.4310  138.4780 C   0  0  1  0  0  3  0  0  0  0  0  0
  160.7380  209.7670  138.1470 C   0  0  1  0  0  0  0  0  0  0  0  0
  159.9440  209.0170  137.0940 C   0  0  0  0  0  2  0  0  0  0  0  0
  161.3870  207.5480  138.5050 C   0  0  0  0  0  2  0  0  0  0  0  0
  162.2340  209.6210  138.2780 C   0  0  0  0  0  2  0  0  0  0  0  0
  162.5200  208.3350  138.7780 O   0  0  0  0  0  0  0  0  0  0  0  0
  1  4  1  6  0  0  0
  1 33  1  0  0  0  0
  2  6  2  0  0  0  0
  2  1  1  0  0  0  0
  3  4  2  0  0  0  0
  4 10  1  0  0  0  0
  5  2  1  0  0  0  0
  7  5  2  0  0  0  0
  7  3  1  0  0  0  0
  8 11  1  0  0  0  0
  8 10  2  0  0  0  0
 10  9  1  0  0  0  0
 11 15  1  0  0  0  0
 13 12  2  0  0  0  0
 14 13  1  0  0  0  0
 15 17  2  0  0  0  0
 16 14  2  0  0  0  0
 16 15  1  0  0  0  0
 17 12  1  0  0  0  0
 18 14  1  0  0  0  0
 19 27  1  0  0  0  0
 19 24  1  0  0  0  0
 20 28  1  0  0  0  0
 21 18  1  0  0  0  0
 22 21  1  0  0  0  0
 22 31  1  1  0  0  0
 23 21  1  0  0  0  0
 24 22  1  0  0  0  0
 25 19  2  0  0  0  0
 26 20  1  0  0  0  0
 27 23  1  0  0  0  0
 28 24  2  0  0  0  0
 29 25  1  0  0  0  0
 29 20  2  0  0  0  0
 30 31  2  0  0  0  0
 32 34  1  1  0  0  0
 32 35  1  0  0  0  0
 33 34  1  1  0  0  0
 33 32  1  0  0  0  0
 35 36  1  1  0  0  0
 35 42  1  0  0  0  0
 36 39  1  0  0  0  0
 39 38  1  0  0  0  0
 39 40  1  0  0  0  0
 41 40  2  0  0  0  0
 42 37  1  1  0  0  0
 42 38  1  0  0  0  0
 43  5  1  0  0  0  0
 44 43  1  0  0  0  0
 45 44  1  0  0  0  0
 46 45  1  0  0  0  0
 47 46  1  0  0  0  0
 48 51  1  0  0  0  0
 49 51  1  0  0  0  0
 50 49  2  0  0  0  0
 51 47  1  0  0  0  0
 52 53  1  6  0  0  0
 52 49  1  0  0  0  0
 55 54  1  6  0  0  0
 55 52  1  0  0  0  0
 56 55  1  0  0  0  0
 57 59  1  0  0  0  0
 57 60  1  0  0  0  0
 58 57  2  0  0  0  0
 60 56  1  0  0  0  0
 61 63  1  6  0  0  0
 61 64  1  0  0  0  0
 62 65  1  0  0  0  0
 62 61  1  0  0  0  0
 62 59  1  1  0  0  0
 63 62  1  0  0  0  0
 64 66  1  0  0  0  0
 65 66  1  0  0  0  0
M  END
>  <MODEL>
4

>  <REMARK>
 VINA RESULT:      -3.7      1.640      2.389
  Name = 
  19 active torsions:
  status: ('A' for Active; 'I' for Inactive)
    1  A    between atoms: C_4  and  C_36
    2  A    between atoms: N_7  and  C_29
    3  A    between atoms: C_8  and  C_33
    4  A    between atoms: C_10  and  N_57
    5  A    between atoms: C_13  and  C_16
    6  A    between atoms: C_13  and  C_52
    7  A    between atoms: C_15  and  C_52
    8  A    between atoms: C_15  and  N_64
    9  A    between atoms: C_17  and  C_25
   10  A    between atoms: C_18  and  C_27
   11  A    between atoms: C_21  and  C_38
   12  A    between atoms: C_21  and  N_58
   13  A    between atoms: C_22  and  C_23
   14  A    between atoms: C_29  and  C_32
   15  A    between atoms: C_33  and  C_42
   16  A    between atoms: C_34  and  C_46
   17  A    between atoms: C_34  and  C_51
   18  A    between atoms: C_38  and  C_51
   19  A    between atoms: C_46  and  C_53
                            x       y       z     vdW  Elec       q    Type
                         _______ _______ _______ _____ _____    ______ ____

>  <TORSDO>
F 19

$$$$
=
 OpenBabel11042422413D

 66 73  0  0  1  0  0  0  0  0999 V2000
  161.7780  208.3560  148.5240 C   0  0  2  0  0  3  0  0  0  0  0  0
  162.3410  207.3560  149.5190 C   0  0  0  0  0  0  0  0  0  0  0  0
  161.6220  209.9210  150.4810 C   0  0  0  0  0  3  0  0  0  0  0  0
  161.5130  209.7210  149.1580 C   0  0  0  0  0  0  0  0  0  0  0  0
  162.3710  207.6560  150.9690 C   0  0  0  0  0  0  0  0  0  0  0  0
  162.8340  206.2740  149.0970 O   0  0  0  0  0  0  0  0  0  0  0  0
  162.0300  208.8630  151.3990 C   0  0  0  0  0  3  0  0  0  0  0  0
  161.3920  212.1270  148.8080 C   0  0  0  0  0  3  0  0  0  0  0  0
  160.8030  210.7110  147.0120 O   0  0  0  0  0  1  0  0  0  0  0  0
  161.2050  210.8940  148.3330 C   0  0  0  0  0  0  0  0  0  0  0  0
  161.1400  213.3410  147.9820 C   0  0  0  0  0  2  0  0  0  0  0  0
  164.0960  212.7760  145.6690 C   0  0  0  0  0  3  0  0  0  0  0  0
  163.6020  213.2810  144.4610 C   0  0  0  0  0  3  0  0  0  0  0  0
  162.2960  213.8060  144.3930 C   0  0  0  0  0  0  0  0  0  0  0  0
  161.9960  213.3370  146.7600 C   0  0  0  0  0  0  0  0  0  0  0  0
  161.4950  213.8360  145.5470 C   0  0  0  0  0  3  0  0  0  0  0  0
  163.2940  212.7990  146.8180 C   0  0  0  0  0  3  0  0  0  0  0  0
  161.7300  214.2790  143.0800 C   0  0  0  0  0  2  0  0  0  0  0  0
  159.5270  211.7270  140.5020 C   0  0  0  0  0  0  0  0  0  0  0  0
  160.7370  209.5460  139.2240 C   0  0  0  0  0  0  0  0  0  0  0  0
  160.8780  213.2690  142.4320 N   0  0  0  0  0  0  0  0  0  0  0  0
  161.7100  212.3120  141.6530 C   0  0  1  0  0  3  0  0  0  0  0  0
  159.9170  213.9270  141.5350 C   0  0  0  0  0  2  0  0  0  0  0  0
  160.8660  211.3920  140.8010 C   0  0  0  0  0  0  0  0  0  0  0  0
  158.7930  210.9330  139.6200 C   0  0  0  0  0  3  0  0  0  0  0  0
  161.4010  208.4410  138.4920 C   0  0  0  0  0  1  0  0  0  0  0  0
  158.8700  212.9040  141.1370 C   0  0  0  0  0  2  0  0  0  0  0  0
  161.4700  210.3140  140.1410 C   0  0  0  0  0  3  0  0  0  0  0  0
  159.3990  209.8510  138.9700 C   0  0  0  0  0  3  0  0  0  0  0  0
  162.9300  212.5560  139.5330 C   0  0  0  0  0  2  0  0  0  0  0  0
  162.7450  212.9920  140.7790 C   0  0  0  0  0  3  0  0  0  0  0  0
  160.5330  206.5800  147.0440 C   0  0  1  0  0  3  0  0  0  0  0  0
  160.4790  207.8260  147.8750 C   0  0  2  0  0  3  0  0  0  0  0  0
  160.6460  207.8590  146.4720 O   0  0  0  0  0  0  0  0  0  0  0  0
  161.8740  205.8400  147.0280 C   0  0  1  0  0  3  0  0  0  0  0  0
  161.6500  204.5100  147.7400 C   0  0  0  0  0  2  0  0  0  0  0  0
  161.5670  205.9070  144.5930 O   0  0  0  0  0  1  0  0  0  0  0  0
  162.5610  203.9840  145.5710 C   0  0  0  0  0  2  0  0  0  0  0  0
  161.9360  203.4770  146.7660 N   0  0  0  0  0  0  0  0  0  0  0  0
  161.2010  202.2610  146.7230 C   0  0  0  0  0  3  0  0  0  0  0  0
  160.5050  201.8910  147.7050 O   0  0  0  0  0  0  0  0  0  0  0  0
  162.4170  205.4980  145.6260 C   0  0  2  0  0  3  0  0  0  0  0  0
  162.9660  206.6900  151.9430 C   0  0  0  0  0  2  0  0  0  0  0  0
  162.0130  205.5200  152.1150 C   0  0  0  0  0  2  0  0  0  0  0  0
  161.5660  205.4180  153.5580 C   0  0  0  0  0  2  0  0  0  0  0  0
  160.6410  206.5870  153.8590 C   0  0  0  0  0  2  0  0  0  0  0  0
  161.3200  207.5530  154.8180 C   0  0  0  0  0  2  0  0  0  0  0  0
  160.5720  206.6920  157.0690 C   0  0  0  0  0  1  0  0  0  0  0  0
  159.9170  208.9680  156.3190 C   0  0  0  0  0  0  0  0  0  0  0  0
  158.7060  209.1510  156.0410 O   0  0  0  0  0  0  0  0  0  0  0  0
  160.5250  207.7120  156.0300 N   0  0  0  0  0  0  0  0  0  0  0  0
  160.6880  210.0040  157.0790 C   0  0  1  0  0  3  0  0  0  0  0  0
  162.0100  209.5880  157.2590 O   0  0  0  0  0  1  0  0  0  0  0  0
  161.7620  212.1830  156.8610 O   0  0  0  0  0  1  0  0  0  0  0  0
  160.6560  211.4130  156.4580 C   0  0  1  0  0  3  0  0  0  0  0  0
  160.5700  211.3150  154.9350 C   0  0  0  0  0  2  0  0  0  0  0  0
  158.5330  212.7130  154.5100 C   0  0  0  0  0  0  0  0  0  0  0  0
  157.9440  213.5120  153.7240 O   0  0  0  0  0  0  0  0  0  0  0  0
  157.7820  211.9800  155.4880 N   0  0  0  0  0  2  0  0  0  0  0  0
  159.9380  212.5030  154.3750 N   0  0  0  0  0  2  0  0  0  0  0  0
  155.9280  212.6850  156.8750 C   0  0  1  0  0  3  0  0  0  0  0  0
  156.3350  212.0690  155.5780 C   0  0  1  0  0  0  0  0  0  0  0  0
  155.6850  213.4400  155.5810 C   0  0  0  0  0  2  0  0  0  0  0  0
  154.7180  211.8630  157.2570 C   0  0  0  0  0  2  0  0  0  0  0  0
  155.5290  210.8010  155.4460 C   0  0  0  0  0  2  0  0  0  0  0  0
  154.7960  210.6060  156.6340 O   0  0  0  0  0  0  0  0  0  0  0  0
  1  4  1  1  0  0  0
  1  2  1  0  0  0  0
  2  5  1  0  0  0  0
  3  7  1  0  0  0  0
  4  3  2  0  0  0  0
  5  7  2  0  0  0  0
  5 43  1  0  0  0  0
  6  2  2  0  0  0  0
  9 10  1  0  0  0  0
 10  8  2  0  0  0  0
 10  4  1  0  0  0  0
 11  8  1  0  0  0  0
 12 17  1  0  0  0  0
 13 12  2  0  0  0  0
 14 13  1  0  0  0  0
 14 16  2  0  0  0  0
 15 17  2  0  0  0  0
 15 11  1  0  0  0  0
 16 15  1  0  0  0  0
 18 14  1  0  0  0  0
 19 24  1  0  0  0  0
 19 27  1  0  0  0  0
 20 28  1  0  0  0  0
 21 18  1  0  0  0  0
 22 31  1  6  0  0  0
 22 21  1  0  0  0  0
 23 21  1  0  0  0  0
 24 22  1  0  0  0  0
 25 19  2  0  0  0  0
 26 20  1  0  0  0  0
 27 23  1  0  0  0  0
 28 24  2  0  0  0  0
 29 20  2  0  0  0  0
 29 25  1  0  0  0  0
 30 31  2  0  0  0  0
 32 34  1  6  0  0  0
 32 33  1  0  0  0  0
 33 34  1  6  0  0  0
 33  1  1  0  0  0  0
 35 32  1  0  0  0  0
 35 36  1  1  0  0  0
 38 42  1  0  0  0  0
 38 39  1  0  0  0  0
 39 36  1  0  0  0  0
 40 39  1  0  0  0  0
 40 41  2  0  0  0  0
 42 37  1  6  0  0  0
 42 35  1  0  0  0  0
 43 44  1  0  0  0  0
 44 45  1  0  0  0  0
 45 46  1  0  0  0  0
 46 47  1  0  0  0  0
 47 51  1  0  0  0  0
 49 52  1  0  0  0  0
 50 49  2  0  0  0  0
 51 49  1  0  0  0  0
 51 48  1  0  0  0  0
 52 53  1  6  0  0  0
 55 54  1  6  0  0  0
 55 52  1  0  0  0  0
 56 55  1  0  0  0  0
 57 59  1  0  0  0  0
 58 57  2  0  0  0  0
 60 57  1  0  0  0  0
 60 56  1  0  0  0  0
 61 63  1  6  0  0  0
 61 64  1  0  0  0  0
 62 59  1  6  0  0  0
 62 63  1  0  0  0  0
 62 61  1  0  0  0  0
 65 62  1  0  0  0  0
 65 66  1  0  0  0  0
 66 64  1  0  0  0  0
M  END
>  <MODEL>
5

>  <REMARK>
 VINA RESULT:      -3.1      3.113     12.363
  Name = 
  19 active torsions:
  status: ('A' for Active; 'I' for Inactive)
    1  A    between atoms: C_4  and  C_36
    2  A    between atoms: N_7  and  C_29
    3  A    between atoms: C_8  and  C_33
    4  A    between atoms: C_10  and  N_57
    5  A    between atoms: C_13  and  C_16
    6  A    between atoms: C_13  and  C_52
    7  A    between atoms: C_15  and  C_52
    8  A    between atoms: C_15  and  N_64
    9  A    between atoms: C_17  and  C_25
   10  A    between atoms: C_18  and  C_27
   11  A    between atoms: C_21  and  C_38
   12  A    between atoms: C_21  and  N_58
   13  A    between atoms: C_22  and  C_23
   14  A    between atoms: C_29  and  C_32
   15  A    between atoms: C_33  and  C_42
   16  A    between atoms: C_34  and  C_46
   17  A    between atoms: C_34  and  C_51
   18  A    between atoms: C_38  and  C_51
   19  A    between atoms: C_46  and  C_53
                            x       y       z     vdW  Elec       q    Type
                         _______ _______ _______ _____ _____    ______ ____

>  <TORSDO>
F 19

$$$$
