=
 OpenBabel11042421293D

 53 60  0  0  1  0  0  0  0  0999 V2000
  161.8490  207.7960  150.1000 C   0  0  1  0  0  3  0  0  0  0  0  0
  160.9340  208.3930  149.1290 N   0  0  0  0  0  2  0  0  0  0  0  0
  162.1970  208.8160  151.2010 C   0  0  1  0  0  3  0  0  0  0  0  0
  161.6890  209.3510  148.3120 C   0  0  0  0  0  2  0  0  0  0  0  0
  162.2360  210.2510  150.6380 C   0  0  0  0  0  2  0  0  0  0  0  0
  162.6010  210.2780  149.1570 C   0  0  2  0  0  3  0  0  0  0  0  0
  160.9510  205.5080  149.8010 C   0  0  2  0  0  3  0  0  0  0  0  0
  161.4040  203.9420  148.1720 C   0  0  1  0  0  3  0  0  0  0  0  0
  160.9800  203.8550  151.6840 C   0  0  0  0  0  0  0  0  0  0  0  0
  161.3760  206.2100  152.0310 N   0  0  0  0  0  2  0  0  0  0  0  0
  160.9630  203.2840  149.2110 C   0  0  1  0  0  3  0  0  0  0  0  0
  161.2950  204.8580  152.5130 C   0  0  0  0  0  3  0  0  0  0  0  0
  160.4630  204.1760  150.2980 C   0  0  2  0  0  3  0  0  0  0  0  0
  160.4410  202.0100  148.8670 N   0  0  0  0  0  2  0  0  0  0  0  0
  161.7300  200.4810  147.1130 Cl  0  0  0  0  0  0  0  0  0  0  0  0
  161.2570  203.1470  146.9090 C   0  0  0  0  0  2  0  0  0  0  0  0
  161.3300  205.4260  148.3450 C   0  0  0  0  0  2  0  0  0  0  0  0
  160.6220  201.8400  147.4250 C   0  0  2  0  0  3  0  0  0  0  0  0
  161.3050  206.4960  150.6260 C   0  0  1  0  0  3  0  0  0  0  0  0
  161.8970  201.6230  151.6330 N   0  0  0  0  0  1  0  0  0  0  0  0
  160.8760  202.4670  152.2290 C   0  0  0  0  0  2  0  0  0  0  0  0
  162.5120  211.6970  148.6320 C   0  0  0  0  0  2  0  0  0  0  0  0
  160.3610  213.5570  148.5110 O   0  0  0  0  0  0  0  0  0  0  0  0
  160.5060  212.7700  147.5420 C   0  0  0  0  0  0  0  0  0  0  0  0
  161.5200  211.7640  147.5710 N   0  0  0  0  0  2  0  0  0  0  0  0
  159.6010  212.8770  146.3530 C   0  0  0  0  0  2  0  0  0  0  0  0
  160.3390  212.7040  145.1660 O   0  0  0  0  0  0  0  0  0  0  0  0
  159.6150  211.8800  144.4300 O   0  0  0  0  0  0  0  0  0  0  0  0
  160.2250  211.8780  143.1760 C   0  0  0  0  0  2  0  0  0  0  0  0
  162.1970  212.6170  141.9340 C   0  0  0  0  0  2  0  0  0  0  0  0
  161.3770  213.7250  142.2080 O   0  0  0  0  0  0  0  0  0  0  0  0
  161.4710  212.7440  143.2150 C   0  0  1  0  0  3  0  0  0  0  0  0
  161.2530  208.7760  152.2350 O   0  0  0  0  0  0  0  0  0  0  0  0
  159.1350  209.8780  152.4210 C   0  0  0  0  0  1  0  0  0  0  0  0
  160.6360  210.0370  152.2350 C   0  0  1  0  0  3  0  0  0  0  0  0
  162.0380  210.4140  154.1180 O   0  0  0  0  0  0  0  0  0  0  0  0
  161.2000  210.9080  153.3230 C   0  0  0  0  0  0  0  0  0  0  0  0
  160.8650  212.2920  153.4510 N   0  0  0  0  0  2  0  0  0  0  0  0
  159.7820  212.9200  152.7190 C   0  0  0  0  0  2  0  0  0  0  0  0
  158.6870  213.3120  153.6880 C   0  0  2  0  0  3  0  0  0  0  0  0
  158.2180  213.4250  156.2460 C   0  0  2  0  0  3  0  0  0  0  0  0
  159.0570  212.7940  155.1030 C   0  0  1  0  0  3  0  0  0  0  0  0
  155.6600  211.0030  155.9880 C   0  0  0  0  0  1  0  0  0  0  0  0
  156.8660  213.8580  152.2190 O   0  0  0  0  0  1  0  0  0  0  0  0
  157.3200  212.8980  153.1190 C   0  0  2  0  0  3  0  0  0  0  0  0
  155.9420  213.8710  155.0480 C   0  0  0  0  0  2  0  0  0  0  0  0
  158.0280  211.9450  155.8580 C   0  0  2  0  0  0  0  0  0  0  0  0
  156.7690  211.5130  155.0740 C   0  0  2  0  0  3  0  0  0  0  0  0
  157.1790  214.4510  155.7430 C   0  0  0  0  0  2  0  0  0  0  0  0
  156.2640  212.6370  154.1920 C   0  0  2  0  0  3  0  0  0  0  0  0
  160.0830  211.4660  157.2560 C   0  0  0  0  0  1  0  0  0  0  0  0
  158.7390  210.9420  156.7760 C   0  0  0  0  0  3  0  0  0  0  0  0
  158.8970  209.5710  156.1260 C   0  0  0  0  0  1  0  0  0  0  0  0
  1  2  1  6  0  0  0
  1 19  1  0  0  0  0
  1  3  1  0  0  0  0
  3 33  1  1  0  0  0
  4  2  1  0  0  0  0
  4  6  1  0  0  0  0
  5  3  1  0  0  0  0
  6 22  1  6  0  0  0
  6  5  1  0  0  0  0
  7 17  1  1  0  0  0
  7 13  1  0  0  0  0
  7 19  1  0  0  0  0
  8 16  1  6  0  0  0
  8 17  1  0  0  0  0
  8 11  1  0  0  0  0
  9 21  1  0  0  0  0
  9 12  2  0  0  0  0
 10 12  1  0  0  0  0
 11 14  1  6  0  0  0
 11 13  1  0  0  0  0
 13  9  1  1  0  0  0
 16 18  1  0  0  0  0
 18 15  1  1  0  0  0
 18 14  1  0  0  0  0
 19 10  1  1  0  0  0
 20 21  1  0  0  0  0
 24 25  1  0  0  0  0
 24 23  2  0  0  0  0
 25 22  1  0  0  0  0
 26 24  1  0  0  0  0
 27 26  1  0  0  0  0
 28 27  1  0  0  0  0
 29 28  1  0  0  0  0
 30 31  1  0  0  0  0
 30 32  1  0  0  0  0
 31 32  1  0  0  0  0
 32 29  1  6  0  0  0
 33 35  1  0  0  0  0
 35 34  1  1  0  0  0
 35 37  1  0  0  0  0
 37 38  1  0  0  0  0
 37 36  2  0  0  0  0
 39 38  1  0  0  0  0
 40 39  1  6  0  0  0
 40 42  1  0  0  0  0
 41 49  1  6  0  0  0
 42 47  1  0  0  0  0
 42 41  1  0  0  0  0
 44 45  1  0  0  0  0
 45 40  1  0  0  0  0
 45 50  1  0  0  0  0
 46 49  1  0  0  0  0
 47 41  1  0  0  0  0
 47 52  1  0  0  0  0
 48 47  1  0  0  0  0
 48 43  1  0  0  0  0
 50 46  1  0  0  0  0
 50 48  1  0  0  0  0
 52 51  1  0  0  0  0
 53 52  1  0  0  0  0
M  END
>  <MODEL>
1

>  <REMARK>
 VINA RESULT:      -5.4      0.000      0.000
  Name = 
  15 active torsions:
  status: ('A' for Active; 'I' for Inactive)
    1  A    between atoms: C_2  and  C_32
    2  A    between atoms: C_3  and  C_53
    3  A    between atoms: C_7  and  C_13
    4  A    between atoms: C_7  and  O_40
    5  A    between atoms: C_12  and  C_23
    6  A    between atoms: C_18  and  O_35
    7  A    between atoms: C_21  and  C_38
    8  A    between atoms: C_32  and  N_44
    9  A    between atoms: C_34  and  N_47
   10  A    between atoms: C_34  and  C_51
   11  A    between atoms: O_35  and  C_37
   12  A    between atoms: C_36  and  C_37
   13  A    between atoms: O_39  and  O_40
   14  A    between atoms: O_39  and  C_41
   15  A    between atoms: C_41  and  C_43
                            x       y       z     vdW  Elec       q    Type
                         _______ _______ _______ _____ _____    ______ ____

>  <TORSDO>
F 15

$$$$
=
 OpenBabel11042421293D

 53 60  0  0  1  0  0  0  0  0999 V2000
  162.1520  211.3850  149.5630 C   0  0  1  0  0  3  0  0  0  0  0  0
  162.2470  211.0760  148.1360 N   0  0  0  0  0  2  0  0  0  0  0  0
  161.2650  212.6260  149.7800 C   0  0  1  0  0  3  0  0  0  0  0  0
  163.1120  212.0800  147.5040 C   0  0  0  0  0  2  0  0  0  0  0  0
  161.4100  213.6250  148.6150 C   0  0  0  0  0  2  0  0  0  0  0  0
  162.7750  213.5290  147.9400 C   0  0  2  0  0  3  0  0  0  0  0  0
  161.3360  209.0530  149.7360 C   0  0  2  0  0  3  0  0  0  0  0  0
  161.7200  207.2450  148.3600 C   0  0  1  0  0  3  0  0  0  0  0  0
  161.5980  207.7510  151.8600 C   0  0  2  0  0  3  0  0  0  0  0  0
  161.9150  210.1410  151.7680 N   0  0  0  0  0  0  0  0  0  0  0  0
  161.3980  206.7620  149.5310 C   0  0  1  0  0  3  0  0  0  0  0  0
  161.9360  208.8900  152.4760 C   0  0  0  0  0  3  0  0  0  0  0  0
  160.9520  207.8130  150.4930 C   0  0  2  0  0  3  0  0  0  0  0  0
  160.9070  205.4330  149.4540 N   0  0  0  0  0  2  0  0  0  0  0  0
  162.1120  203.6650  147.8740 Cl  0  0  0  0  0  0  0  0  0  0  0  0
  161.5030  206.2410  147.2680 C   0  0  0  0  0  2  0  0  0  0  0  0
  161.5940  208.7340  148.2870 C   0  0  0  0  0  2  0  0  0  0  0  0
  160.9730  205.0240  148.0520 C   0  0  2  0  0  3  0  0  0  0  0  0
  161.7130  210.1790  150.3470 C   0  0  1  0  0  3  0  0  0  0  0  0
  161.1240  206.7150  153.9880 N   0  0  0  0  0  1  0  0  0  0  0  0
  161.6030  206.4740  152.6380 C   0  0  0  0  0  2  0  0  0  0  0  0
  162.8180  214.4470  146.7360 C   0  0  0  0  0  2  0  0  0  0  0  0
  160.8140  213.8080  144.8180 O   0  0  0  0  0  0  0  0  0  0  0  0
  161.9910  213.4380  144.5770 C   0  0  0  0  0  0  0  0  0  0  0  0
  163.0310  213.6630  145.5300 N   0  0  0  0  0  2  0  0  0  0  0  0
  162.3050  212.7440  143.2870 C   0  0  0  0  0  2  0  0  0  0  0  0
  161.7250  213.4390  142.2090 O   0  0  0  0  0  0  0  0  0  0  0  0
  162.4620  213.1210  141.1590 O   0  0  0  0  0  0  0  0  0  0  0  0
  162.0950  211.8150  140.8360 C   0  0  0  0  0  2  0  0  0  0  0  0
  161.6710  210.5920  138.7620 C   0  0  0  0  0  2  0  0  0  0  0  0
  161.7700  211.9650  138.4810 O   0  0  0  0  0  0  0  0  0  0  0  0
  162.6400  211.4580  139.4650 C   0  0  1  0  0  3  0  0  0  0  0  0
  159.9170  212.2640  149.8840 O   0  0  0  0  0  0  0  0  0  0  0  0
  159.2270  213.4580  147.9260 C   0  0  0  0  0  1  0  0  0  0  0  0
  159.1890  213.3810  149.4450 C   0  0  1  0  0  3  0  0  0  0  0  0
  156.8780  212.9280  149.1190 O   0  0  0  0  0  0  0  0  0  0  0  0
  157.7640  213.3120  149.9220 C   0  0  0  0  0  0  0  0  0  0  0  0
  157.3890  213.6080  151.2690 N   0  0  0  0  0  2  0  0  0  0  0  0
  158.2830  214.2330  152.2250 C   0  0  0  0  0  2  0  0  0  0  0  0
  157.7910  213.9480  153.6280 C   0  0  2  0  0  3  0  0  0  0  0  0
  158.6520  213.0320  155.9070 C   0  0  2  0  0  3  0  0  0  0  0  0
  158.8530  213.0940  154.3700 C   0  0  1  0  0  3  0  0  0  0  0  0
  156.4860  210.2480  155.7240 C   0  0  0  0  0  1  0  0  0  0  0  0
  155.4470  214.4490  153.4680 O   0  0  0  0  0  1  0  0  0  0  0  0
  156.3560  213.4000  153.5720 C   0  0  2  0  0  3  0  0  0  0  0  0
  156.0570  213.2230  156.1110 C   0  0  0  0  0  2  0  0  0  0  0  0
  158.4000  211.7880  155.0330 C   0  0  2  0  0  0  0  0  0  0  0  0
  156.9530  211.3270  154.7520 C   0  0  2  0  0  3  0  0  0  0  0  0
  157.4310  213.8410  156.3950 C   0  0  0  0  0  2  0  0  0  0  0  0
  155.9970  212.5020  154.7560 C   0  0  2  0  0  3  0  0  0  0  0  0
  159.5380  209.8960  156.2720 C   0  0  0  0  0  1  0  0  0  0  0  0
  159.5440  210.7640  155.0240 C   0  0  0  0  0  3  0  0  0  0  0  0
  160.9080  211.4190  154.8300 C   0  0  0  0  0  1  0  0  0  0  0  0
  1  2  1  6  0  0  0
  1  3  1  0  0  0  0
  1 19  1  0  0  0  0
  3 33  1  6  0  0  0
  4  6  1  0  0  0  0
  4  2  1  0  0  0  0
  5  3  1  0  0  0  0
  6 22  1  6  0  0  0
  6  5  1  0  0  0  0
  7 17  1  6  0  0  0
  7 19  1  0  0  0  0
  7 13  1  0  0  0  0
  8 16  1  6  0  0  0
  8 11  1  0  0  0  0
  9 12  1  0  0  0  0
  9 21  1  1  0  0  0
 10 12  2  0  0  0  0
 11 14  1  6  0  0  0
 11 13  1  0  0  0  0
 13  9  1  0  0  0  0
 15 18  1  0  0  0  0
 16 18  1  0  0  0  0
 17  8  1  0  0  0  0
 18 14  1  0  0  0  0
 19 10  1  0  0  0  0
 21 20  1  0  0  0  0
 24 23  2  0  0  0  0
 24 25  1  0  0  0  0
 25 22  1  0  0  0  0
 26 24  1  0  0  0  0
 27 26  1  0  0  0  0
 28 27  1  0  0  0  0
 29 28  1  0  0  0  0
 30 32  1  0  0  0  0
 31 30  1  0  0  0  0
 31 32  1  0  0  0  0
 32 29  1  0  0  0  0
 34 35  1  0  0  0  0
 35 33  1  0  0  0  0
 35 37  1  0  0  0  0
 36 37  2  0  0  0  0
 37 38  1  0  0  0  0
 38 39  1  0  0  0  0
 39 40  1  0  0  0  0
 40 42  1  0  0  0  0
 41 49  1  0  0  0  0
 42 47  1  0  0  0  0
 42 41  1  0  0  0  0
 44 45  1  0  0  0  0
 45 40  1  0  0  0  0
 45 50  1  0  0  0  0
 46 49  1  0  0  0  0
 47 41  1  0  0  0  0
 48 50  1  0  0  0  0
 48 47  1  0  0  0  0
 48 43  1  0  0  0  0
 50 46  1  0  0  0  0
 52 47  1  0  0  0  0
 52 51  1  0  0  0  0
 53 52  1  0  0  0  0
M  END
>  <MODEL>
2

>  <REMARK>
 VINA RESULT:      -4.9      2.107      3.527
  Name = 
  15 active torsions:
  status: ('A' for Active; 'I' for Inactive)
    1  A    between atoms: C_2  and  C_32
    2  A    between atoms: C_3  and  C_53
    3  A    between atoms: C_7  and  C_13
    4  A    between atoms: C_7  and  O_40
    5  A    between atoms: C_12  and  C_23
    6  A    between atoms: C_18  and  O_35
    7  A    between atoms: C_21  and  C_38
    8  A    between atoms: C_32  and  N_44
    9  A    between atoms: C_34  and  N_47
   10  A    between atoms: C_34  and  C_51
   11  A    between atoms: O_35  and  C_37
   12  A    between atoms: C_36  and  C_37
   13  A    between atoms: O_39  and  O_40
   14  A    between atoms: O_39  and  C_41
   15  A    between atoms: C_41  and  C_43
                            x       y       z     vdW  Elec       q    Type
                         _______ _______ _______ _____ _____    ______ ____

>  <TORSDO>
F 15

$$$$
=
 OpenBabel11042421293D

 53 60  0  0  1  0  0  0  0  0999 V2000
  159.2190  213.2740  152.6500 C   0  0  1  0  0  3  0  0  0  0  0  0
  158.1140  212.9500  153.5520 N   0  0  0  0  0  2  0  0  0  0  0  0
  160.3190  212.1990  152.7490 C   0  0  1  0  0  3  0  0  0  0  0  0
  158.5520  213.2090  154.9290 C   0  0  0  0  0  2  0  0  0  0  0  0
  160.4150  211.6320  154.1790 C   0  0  0  0  0  2  0  0  0  0  0  0
  159.9620  212.6410  155.2310 C   0  0  2  0  0  3  0  0  0  0  0  0
  159.5420  213.9270  150.2830 C   0  0  2  0  0  3  0  0  0  0  0  0
  161.3880  213.7000  148.9240 C   0  0  1  0  0  3  0  0  0  0  0  0
  157.9050  213.2300  148.5190 C   0  0  0  0  0  0  0  0  0  0  0  0
  157.4110  213.0560  150.8740 N   0  0  0  0  0  2  0  0  0  0  0  0
  160.3510  213.7870  148.1340 C   0  0  1  0  0  3  0  0  0  0  0  0
  157.0710  212.8470  149.4930 C   0  0  0  0  0  3  0  0  0  0  0  0
  159.0890  214.1090  148.8610 C   0  0  2  0  0  3  0  0  0  0  0  0
  160.6980  214.2150  146.8260 N   0  0  0  0  0  2  0  0  0  0  0  0
  162.8580  213.2190  145.6360 Cl  0  0  0  0  0  0  0  0  0  0  0  0
  162.6590  214.0550  148.2110 C   0  0  0  0  0  2  0  0  0  0  0  0
  161.0450  213.9130  150.3650 C   0  0  0  0  0  2  0  0  0  0  0  0
  162.1510  214.3770  146.7920 C   0  0  2  0  0  3  0  0  0  0  0  0
  158.7210  213.5060  151.2500 C   0  0  1  0  0  3  0  0  0  0  0  0
  156.4720  213.9790  146.7270 N   0  0  0  0  0  1  0  0  0  0  0  0
  157.5020  213.0240  147.0940 C   0  0  0  0  0  2  0  0  0  0  0  0
  159.9680  211.9920  156.6000 C   0  0  0  0  0  2  0  0  0  0  0  0
  161.4740  209.5810  156.4620 O   0  0  0  0  0  0  0  0  0  0  0  0
  162.0550  210.6070  156.8960 C   0  0  0  0  0  0  0  0  0  0  0  0
  161.3380  211.8320  157.0600 N   0  0  0  0  0  2  0  0  0  0  0  0
  163.5070  210.5440  157.2600 C   0  0  0  0  0  2  0  0  0  0  0  0
  164.2580  211.3680  156.4000 O   0  0  0  0  0  0  0  0  0  0  0  0
  164.9390  212.1690  157.2000 O   0  0  0  0  0  0  0  0  0  0  0  0
  165.8710  212.8020  156.3780 C   0  0  0  0  0  2  0  0  0  0  0  0
  168.2430  212.7210  155.7900 C   0  0  0  0  0  2  0  0  0  0  0  0
  168.0430  213.6930  156.7850 O   0  0  0  0  0  0  0  0  0  0  0  0
  167.2730  212.5180  156.8860 C   0  0  1  0  0  3  0  0  0  0  0  0
  160.0610  211.1390  151.8720 O   0  0  0  0  0  0  0  0  0  0  0  0
  160.1440  208.8000  152.3780 C   0  0  0  0  0  1  0  0  0  0  0  0
  160.9220  210.1030  152.2660 C   0  0  1  0  0  3  0  0  0  0  0  0
  162.7540  210.9490  151.0090 O   0  0  0  0  0  0  0  0  0  0  0  0
  162.0530  209.9450  151.2880 C   0  0  0  0  0  0  0  0  0  0  0  0
  162.3990  208.6840  150.7100 N   0  0  0  0  0  2  0  0  0  0  0  0
  161.5590  207.5050  150.8090 C   0  0  0  0  0  2  0  0  0  0  0  0
  161.1640  207.0570  149.4190 C   0  0  2  0  0  3  0  0  0  0  0  0
  159.9720  205.0830  148.2110 C   0  0  2  0  0  3  0  0  0  0  0  0
  160.7360  205.5670  149.4730 C   0  0  1  0  0  3  0  0  0  0  0  0
  162.9350  204.2080  146.4980 C   0  0  0  0  0  1  0  0  0  0  0  0
  162.1190  208.7690  148.0290 O   0  0  0  0  0  1  0  0  0  0  0  0
  162.2660  207.4400  148.4180 C   0  0  2  0  0  3  0  0  0  0  0  0
  161.0370  206.5660  146.3460 C   0  0  0  0  0  2  0  0  0  0  0  0
  161.4020  204.5840  148.5030 C   0  0  2  0  0  0  0  0  0  0  0  0
  162.5870  205.1200  147.6700 C   0  0  2  0  0  3  0  0  0  0  0  0
  159.7870  206.1880  147.1490 C   0  0  0  0  0  2  0  0  0  0  0  0
  162.3200  206.5320  147.1900 C   0  0  2  0  0  3  0  0  0  0  0  0
  160.5190  202.2110  148.4760 C   0  0  0  0  0  1  0  0  0  0  0  0
  161.4810  203.1870  149.1340 C   0  0  0  0  0  3  0  0  0  0  0  0
  161.2650  203.2190  150.6440 C   0  0  0  0  0  1  0  0  0  0  0  0
  1  3  1  0  0  0  0
  1  2  1  1  0  0  0
  2  4  1  0  0  0  0
  3 33  1  6  0  0  0
  3  5  1  0  0  0  0
  4  6  1  0  0  0  0
  5  6  1  0  0  0  0
  6 22  1  1  0  0  0
  7 17  1  6  0  0  0
  7 19  1  0  0  0  0
  8 16  1  6  0  0  0
  8 17  1  0  0  0  0
  9 12  2  0  0  0  0
 11 14  1  6  0  0  0
 11 13  1  0  0  0  0
 11  8  1  0  0  0  0
 12 10  1  0  0  0  0
 13  9  1  6  0  0  0
 13  7  1  0  0  0  0
 18 15  1  6  0  0  0
 18 14  1  0  0  0  0
 18 16  1  0  0  0  0
 19 10  1  6  0  0  0
 19  1  1  0  0  0  0
 20 21  1  0  0  0  0
 21  9  1  0  0  0  0
 22 25  1  0  0  0  0
 23 24  2  0  0  0  0
 24 25  1  0  0  0  0
 24 26  1  0  0  0  0
 27 28  1  0  0  0  0
 27 26  1  0  0  0  0
 29 28  1  0  0  0  0
 30 31  1  0  0  0  0
 30 32  1  0  0  0  0
 31 32  1  0  0  0  0
 32 29  1  6  0  0  0
 33 35  1  0  0  0  0
 35 34  1  6  0  0  0
 36 37  2  0  0  0  0
 37 35  1  0  0  0  0
 38 39  1  0  0  0  0
 38 37  1  0  0  0  0
 40 42  1  0  0  0  0
 40 39  1  1  0  0  0
 41 49  1  6  0  0  0
 41 47  1  0  0  0  0
 41 42  1  0  0  0  0
 43 48  1  0  0  0  0
 44 45  1  0  0  0  0
 45 40  1  0  0  0  0
 46 49  1  0  0  0  0
 46 50  1  0  0  0  0
 47 52  1  0  0  0  0
 47 42  1  0  0  0  0
 48 47  1  0  0  0  0
 50 48  1  0  0  0  0
 50 45  1  0  0  0  0
 51 52  1  0  0  0  0
 52 53  1  0  0  0  0
M  END
>  <MODEL>
3

>  <REMARK>
 VINA RESULT:      -4.6      3.486     10.142
  Name = 
  15 active torsions:
  status: ('A' for Active; 'I' for Inactive)
    1  A    between atoms: C_2  and  C_32
    2  A    between atoms: C_3  and  C_53
    3  A    between atoms: C_7  and  C_13
    4  A    between atoms: C_7  and  O_40
    5  A    between atoms: C_12  and  C_23
    6  A    between atoms: C_18  and  O_35
    7  A    between atoms: C_21  and  C_38
    8  A    between atoms: C_32  and  N_44
    9  A    between atoms: C_34  and  N_47
   10  A    between atoms: C_34  and  C_51
   11  A    between atoms: O_35  and  C_37
   12  A    between atoms: C_36  and  C_37
   13  A    between atoms: O_39  and  O_40
   14  A    between atoms: O_39  and  C_41
   15  A    between atoms: C_41  and  C_43
                            x       y       z     vdW  Elec       q    Type
                         _______ _______ _______ _____ _____    ______ ____

>  <TORSDO>
F 15

$$$$
=
 OpenBabel11042421293D

 53 60  0  0  1  0  0  0  0  0999 V2000
  161.1040  210.4450  151.1330 C   0  0  1  0  0  3  0  0  0  0  0  0
  162.1130  211.4850  150.9300 N   0  0  0  0  0  2  0  0  0  0  0  0
  161.3230  209.2910  150.1360 C   0  0  1  0  0  3  0  0  0  0  0  0
  161.7940  212.2010  149.6880 C   0  0  0  0  0  2  0  0  0  0  0  0
  161.8730  209.8110  148.7930 C   0  0  0  0  0  2  0  0  0  0  0  0
  161.4470  211.2490  148.5150 C   0  0  2  0  0  3  0  0  0  0  0  0
  160.3600  210.6850  153.4820 C   0  0  2  0  0  3  0  0  0  0  0  0
  158.3950  211.5370  154.3330 C   0  0  1  0  0  3  0  0  0  0  0  0
  160.4400  208.7440  155.0640 C   0  0  2  0  0  3  0  0  0  0  0  0
  161.5850  208.7220  152.9400 N   0  0  0  0  0  0  0  0  0  0  0  0
  158.8830  210.7400  155.2460 C   0  0  1  0  0  3  0  0  0  0  0  0
  161.1780  208.0840  154.1620 C   0  0  0  0  0  3  0  0  0  0  0  0
  160.2480  210.2380  154.9130 C   0  0  2  0  0  3  0  0  0  0  0  0
  158.3920  211.0350  156.5440 N   0  0  0  0  0  2  0  0  0  0  0  0
  155.8140  211.5910  156.8900 Cl  0  0  0  0  0  0  0  0  0  0  0  0
  157.4300  212.5250  154.9180 C   0  0  0  0  0  2  0  0  0  0  0  0
  159.3130  211.7210  153.1650 C   0  0  0  0  0  2  0  0  0  0  0  0
  157.4410  212.1380  156.4100 C   0  0  2  0  0  3  0  0  0  0  0  0
  161.0620  210.0070  152.5710 C   0  0  1  0  0  3  0  0  0  0  0  0
  159.1580  206.9560  156.0560 N   0  0  0  0  0  1  0  0  0  0  0  0
  160.0630  208.0570  156.3370 C   0  0  0  0  0  2  0  0  0  0  0  0
  162.1090  211.7440  147.2450 C   0  0  0  0  0  2  0  0  0  0  0  0
  162.6180  213.9150  145.4760 O   0  0  0  0  0  0  0  0  0  0  0  0
  161.4600  213.4250  145.4790 C   0  0  0  0  0  0  0  0  0  0  0  0
  161.1170  212.3820  146.3940 N   0  0  0  0  0  2  0  0  0  0  0  0
  160.4270  213.9460  144.5280 C   0  0  0  0  0  2  0  0  0  0  0  0
  159.9050  212.8920  143.7550 O   0  0  0  0  0  0  0  0  0  0  0  0
  160.9100  212.4930  142.9960 O   0  0  0  0  0  0  0  0  0  0  0  0
  160.3610  211.5500  142.1280 C   0  0  0  0  0  2  0  0  0  0  0  0
  161.5130  210.3620  140.3270 C   0  0  0  0  0  2  0  0  0  0  0  0
  160.3000  210.8800  139.8420 O   0  0  0  0  0  0  0  0  0  0  0  0
  161.0070  211.6810  140.7600 C   0  0  1  0  0  3  0  0  0  0  0  0
  162.2280  208.3540  150.6490 O   0  0  0  0  0  0  0  0  0  0  0  0
  162.6380  206.8660  148.8180 C   0  0  0  0  0  1  0  0  0  0  0  0
  161.8520  207.1200  150.0960 C   0  0  1  0  0  3  0  0  0  0  0  0
  162.9710  206.1430  151.9520 O   0  0  0  0  0  0  0  0  0  0  0  0
  162.0850  206.0020  151.0740 C   0  0  0  0  0  0  0  0  0  0  0  0
  161.2940  204.8100  151.0810 N   0  0  0  0  0  2  0  0  0  0  0  0
  160.3780  204.4570  150.0130 C   0  0  0  0  0  2  0  0  0  0  0  0
  160.9370  203.2770  149.2470 C   0  0  2  0  0  3  0  0  0  0  0  0
  162.6270  202.7420  147.3410 C   0  0  2  0  0  3  0  0  0  0  0  0
  161.7100  203.8020  148.0080 C   0  0  1  0  0  3  0  0  0  0  0  0
  160.0500  201.5160  145.2600 C   0  0  0  0  0  1  0  0  0  0  0  0
  159.6630  201.4380  150.1240 O   0  0  0  0  0  1  0  0  0  0  0  0
  159.8240  202.2450  149.0010 C   0  0  2  0  0  3  0  0  0  0  0  0
  161.3260  200.5330  147.8270 C   0  0  0  0  0  2  0  0  0  0  0  0
  161.3490  203.2320  146.6320 C   0  0  2  0  0  0  0  0  0  0  0  0
  160.1110  202.3110  146.5600 C   0  0  2  0  0  3  0  0  0  0  0  0
  162.5900  201.3710  148.0500 C   0  0  0  0  0  2  0  0  0  0  0  0
  160.0500  201.3850  147.7580 C   0  0  2  0  0  3  0  0  0  0  0  0
  163.0390  204.7090  145.4610 C   0  0  0  0  0  1  0  0  0  0  0  0
  161.5800  204.2880  145.5430 C   0  0  0  0  0  3  0  0  0  0  0  0
  160.6780  205.5060  145.7150 C   0  0  0  0  0  1  0  0  0  0  0  0
  1  2  1  1  0  0  0
  1 19  1  0  0  0  0
  3 33  1  1  0  0  0
  3  1  1  0  0  0  0
  4  2  1  0  0  0  0
  5  3  1  0  0  0  0
  6 22  1  6  0  0  0
  6  5  1  0  0  0  0
  6  4  1  0  0  0  0
  7 17  1  6  0  0  0
  7 13  1  0  0  0  0
  8 17  1  1  0  0  0
  8 16  1  0  0  0  0
  8 11  1  0  0  0  0
  9 21  1  1  0  0  0
 10 12  2  0  0  0  0
 11 14  1  1  0  0  0
 12  9  1  0  0  0  0
 13  9  1  0  0  0  0
 13 11  1  0  0  0  0
 16 18  1  0  0  0  0
 18 14  1  0  0  0  0
 18 15  1  0  0  0  0
 19 10  1  0  0  0  0
 19  7  1  0  0  0  0
 20 21  1  0  0  0  0
 23 24  2  0  0  0  0
 24 25  1  0  0  0  0
 25 22  1  0  0  0  0
 26 24  1  0  0  0  0
 27 26  1  0  0  0  0
 28 27  1  0  0  0  0
 29 28  1  0  0  0  0
 30 32  1  0  0  0  0
 31 30  1  0  0  0  0
 31 32  1  0  0  0  0
 32 29  1  0  0  0  0
 34 35  1  0  0  0  0
 35 33  1  0  0  0  0
 35 37  1  0  0  0  0
 37 38  1  0  0  0  0
 37 36  2  0  0  0  0
 39 38  1  0  0  0  0
 40 39  1  0  0  0  0
 41 42  1  0  0  0  0
 41 49  1  0  0  0  0
 42 40  1  0  0  0  0
 43 48  1  0  0  0  0
 45 40  1  0  0  0  0
 45 44  1  0  0  0  0
 46 49  1  0  0  0  0
 47 41  1  0  0  0  0
 47 42  1  0  0  0  0
 48 47  1  0  0  0  0
 48 50  1  0  0  0  0
 50 46  1  0  0  0  0
 50 45  1  0  0  0  0
 51 52  1  0  0  0  0
 52 53  1  0  0  0  0
 52 47  1  0  0  0  0
M  END
>  <MODEL>
4

>  <REMARK>
 VINA RESULT:      -3.8      3.120      8.909
  Name = 
  15 active torsions:
  status: ('A' for Active; 'I' for Inactive)
    1  A    between atoms: C_2  and  C_32
    2  A    between atoms: C_3  and  C_53
    3  A    between atoms: C_7  and  C_13
    4  A    between atoms: C_7  and  O_40
    5  A    between atoms: C_12  and  C_23
    6  A    between atoms: C_18  and  O_35
    7  A    between atoms: C_21  and  C_38
    8  A    between atoms: C_32  and  N_44
    9  A    between atoms: C_34  and  N_47
   10  A    between atoms: C_34  and  C_51
   11  A    between atoms: O_35  and  C_37
   12  A    between atoms: C_36  and  C_37
   13  A    between atoms: O_39  and  O_40
   14  A    between atoms: O_39  and  C_41
   15  A    between atoms: C_41  and  C_43
                            x       y       z     vdW  Elec       q    Type
                         _______ _______ _______ _____ _____    ______ ____

>  <TORSDO>
F 15

$$$$
=
 OpenBabel11042421293D

 53 60  0  0  1  0  0  0  0  0999 V2000
  159.6420  212.6900  151.8830 C   0  0  1  0  0  3  0  0  0  0  0  0
  160.1600  214.0230  151.5770 N   0  0  0  0  0  2  0  0  0  0  0  0
  160.3230  211.6370  150.9870 C   0  0  1  0  0  3  0  0  0  0  0  0
  159.6100  214.4450  150.2820 C   0  0  0  0  0  2  0  0  0  0  0  0
  160.6500  212.2170  149.5970 C   0  0  0  0  0  2  0  0  0  0  0  0
  159.6940  213.3380  149.2010 C   0  0  2  0  0  3  0  0  0  0  0  0
  158.6850  212.4910  154.1580 C   0  0  2  0  0  3  0  0  0  0  0  0
  156.5620  211.8920  154.8220 C   0  0  1  0  0  3  0  0  0  0  0  0
  159.8390  211.1450  155.9290 C   0  0  2  0  0  3  0  0  0  0  0  0
  160.9350  211.7810  153.8750 N   0  0  0  0  0  0  0  0  0  0  0  0
  157.3530  211.6480  155.8330 C   0  0  1  0  0  3  0  0  0  0  0  0
  160.9150  211.0870  155.1340 C   0  0  0  0  0  3  0  0  0  0  0  0
  158.7440  212.1430  155.6190 C   0  0  2  0  0  3  0  0  0  0  0  0
  156.6580  211.6090  157.0700 N   0  0  0  0  0  2  0  0  0  0  0  0
  154.3140  210.3630  157.2340 Cl  0  0  0  0  0  0  0  0  0  0  0  0
  155.1340  212.0350  155.2580 C   0  0  0  0  0  2  0  0  0  0  0  0
  157.2570  212.5780  153.6880 C   0  0  0  0  0  2  0  0  0  0  0  0
  155.2390  211.8170  156.7800 C   0  0  2  0  0  3  0  0  0  0  0  0
  159.7470  212.3950  153.3540 C   0  0  1  0  0  3  0  0  0  0  0  0
  160.5130  209.1440  157.0960 N   0  0  0  0  0  1  0  0  0  0  0  0
  159.8670  210.4360  157.2440 C   0  0  0  0  0  2  0  0  0  0  0  0
  160.1320  213.9450  147.8830 C   0  0  0  0  0  2  0  0  0  0  0  0
  161.1670  214.0540  145.2340 O   0  0  0  0  0  0  0  0  0  0  0  0
  160.3350  213.1500  145.4980 C   0  0  0  0  0  0  0  0  0  0  0  0
  159.7220  213.0820  146.7870 N   0  0  0  0  0  2  0  0  0  0  0  0
  159.9700  212.1430  144.4510 C   0  0  0  0  0  2  0  0  0  0  0  0
  160.2910  212.6350  143.1720 O   0  0  0  0  0  0  0  0  0  0  0  0
  160.6230  211.5680  142.4670 O   0  0  0  0  0  0  0  0  0  0  0  0
  160.3870  211.9200  141.1380 C   0  0  0  0  0  2  0  0  0  0  0  0
  160.9070  211.3340  138.8210 C   0  0  0  0  0  2  0  0  0  0  0  0
  162.0980  211.3980  139.5640 O   0  0  0  0  0  0  0  0  0  0  0  0
  160.9720  210.8620  140.2200 C   0  0  1  0  0  3  0  0  0  0  0  0
  161.5150  211.1850  151.5660 O   0  0  0  0  0  0  0  0  0  0  0  0
  163.2150  209.5670  151.0890 C   0  0  0  0  0  1  0  0  0  0  0  0
  161.7320  209.9040  151.0360 C   0  0  1  0  0  3  0  0  0  0  0  0
  160.1170  209.2560  152.6550 O   0  0  0  0  0  0  0  0  0  0  0  0
  160.9430  208.8700  151.7910 C   0  0  0  0  0  0  0  0  0  0  0  0
  161.0520  207.4710  151.5200 N   0  0  0  0  0  2  0  0  0  0  0  0
  162.0930  206.9000  150.6880 C   0  0  0  0  0  2  0  0  0  0  0  0
  161.5420  206.6520  149.3000 C   0  0  2  0  0  3  0  0  0  0  0  0
  160.0620  204.9470  148.0050 C   0  0  2  0  0  3  0  0  0  0  0  0
  160.9700  205.2110  149.2350 C   0  0  1  0  0  3  0  0  0  0  0  0
  162.7710  204.0040  145.9440 C   0  0  0  0  0  1  0  0  0  0  0  0
  162.5520  208.4160  148.0190 O   0  0  0  0  0  1  0  0  0  0  0  0
  162.5930  207.0430  148.2490 C   0  0  2  0  0  3  0  0  0  0  0  0
  161.1170  206.5290  146.2170 C   0  0  0  0  0  2  0  0  0  0  0  0
  161.4520  204.2880  148.1100 C   0  0  2  0  0  0  0  0  0  0  0  0
  162.6140  204.8040  147.2330 C   0  0  2  0  0  3  0  0  0  0  0  0
  159.9050  206.1800  147.0880 C   0  0  0  0  0  2  0  0  0  0  0  0
  162.4550  206.2810  146.9320 C   0  0  2  0  0  3  0  0  0  0  0  0
  160.5050  201.9700  147.7410 C   0  0  0  0  0  1  0  0  0  0  0  0
  161.4390  202.8270  148.5800 C   0  0  0  0  0  3  0  0  0  0  0  0
  161.1030  202.6970  150.0610 C   0  0  0  0  0  1  0  0  0  0  0  0
  1  2  1  1  0  0  0
  1 19  1  0  0  0  0
  3 33  1  1  0  0  0
  3  1  1  0  0  0  0
  4  2  1  0  0  0  0
  5  3  1  0  0  0  0
  6 22  1  6  0  0  0
  6  5  1  0  0  0  0
  6  4  1  0  0  0  0
  7 17  1  6  0  0  0
  7 13  1  0  0  0  0
  8 17  1  1  0  0  0
  8 16  1  0  0  0  0
  8 11  1  0  0  0  0
  9 21  1  1  0  0  0
 10 12  2  0  0  0  0
 11 14  1  1  0  0  0
 12  9  1  0  0  0  0
 13 11  1  0  0  0  0
 13  9  1  0  0  0  0
 16 18  1  0  0  0  0
 18 14  1  0  0  0  0
 18 15  1  0  0  0  0
 19 10  1  0  0  0  0
 19  7  1  0  0  0  0
 20 21  1  0  0  0  0
 23 24  2  0  0  0  0
 24 25  1  0  0  0  0
 25 22  1  0  0  0  0
 26 24  1  0  0  0  0
 27 26  1  0  0  0  0
 28 27  1  0  0  0  0
 29 28  1  0  0  0  0
 30 31  1  0  0  0  0
 30 32  1  0  0  0  0
 31 32  1  0  0  0  0
 32 29  1  0  0  0  0
 35 34  1  0  0  0  0
 35 33  1  0  0  0  0
 35 37  1  0  0  0  0
 37 36  2  0  0  0  0
 38 37  1  0  0  0  0
 39 38  1  0  0  0  0
 40 39  1  0  0  0  0
 41 47  1  0  0  0  0
 41 42  1  0  0  0  0
 42 40  1  0  0  0  0
 43 48  1  0  0  0  0
 44 45  1  0  0  0  0
 45 40  1  0  0  0  0
 46 50  1  0  0  0  0
 46 49  1  0  0  0  0
 47 52  1  0  0  0  0
 47 42  1  0  0  0  0
 48 47  1  0  0  0  0
 49 41  1  0  0  0  0
 50 48  1  0  0  0  0
 50 45  1  0  0  0  0
 51 52  1  0  0  0  0
 52 53  1  0  0  0  0
M  END
>  <MODEL>
5

>  <REMARK>
 VINA RESULT:      -3.7      3.049      8.546
  Name = 
  15 active torsions:
  status: ('A' for Active; 'I' for Inactive)
    1  A    between atoms: C_2  and  C_32
    2  A    between atoms: C_3  and  C_53
    3  A    between atoms: C_7  and  C_13
    4  A    between atoms: C_7  and  O_40
    5  A    between atoms: C_12  and  C_23
    6  A    between atoms: C_18  and  O_35
    7  A    between atoms: C_21  and  C_38
    8  A    between atoms: C_32  and  N_44
    9  A    between atoms: C_34  and  N_47
   10  A    between atoms: C_34  and  C_51
   11  A    between atoms: O_35  and  C_37
   12  A    between atoms: C_36  and  C_37
   13  A    between atoms: O_39  and  O_40
   14  A    between atoms: O_39  and  C_41
   15  A    between atoms: C_41  and  C_43
                            x       y       z     vdW  Elec       q    Type
                         _______ _______ _______ _____ _____    ______ ____

>  <TORSDO>
F 15

$$$$
=
 OpenBabel11042421293D

 53 60  0  0  1  0  0  0  0  0999 V2000
  160.9800  210.3590  151.3490 C   0  0  1  0  0  3  0  0  0  0  0  0
  161.8840  211.4790  151.0900 N   0  0  0  0  0  2  0  0  0  0  0  0
  161.3280  209.1710  150.4310 C   0  0  1  0  0  3  0  0  0  0  0  0
  161.5160  212.0800  149.8010 C   0  0  0  0  0  2  0  0  0  0  0  0
  161.8460  209.6580  149.0630 C   0  0  0  0  0  2  0  0  0  0  0  0
  161.2840  211.0260  148.6880 C   0  0  2  0  0  3  0  0  0  0  0  0
  160.2320  210.7160  153.6820 C   0  0  2  0  0  3  0  0  0  0  0  0
  158.2360  211.5400  154.4860 C   0  0  1  0  0  3  0  0  0  0  0  0
  160.3940  208.8830  155.3830 C   0  0  2  0  0  3  0  0  0  0  0  0
  161.5340  208.7740  153.2590 N   0  0  0  0  0  0  0  0  0  0  0  0
  158.7570  210.8220  155.4460 C   0  0  1  0  0  3  0  0  0  0  0  0
  161.1560  208.1980  154.5200 C   0  0  0  0  0  3  0  0  0  0  0  0
  160.1410  210.3550  155.1390 C   0  0  2  0  0  3  0  0  0  0  0  0
  158.2580  211.1780  156.7250 N   0  0  0  0  0  2  0  0  0  0  0  0
  155.6600  211.6500  157.0470 Cl  0  0  0  0  0  0  0  0  0  0  0  0
  157.2320  212.5220  155.0130 C   0  0  0  0  0  2  0  0  0  0  0  0
  159.1430  211.6860  153.3060 C   0  0  0  0  0  2  0  0  0  0  0  0
  157.2620  212.2310  156.5260 C   0  0  2  0  0  3  0  0  0  0  0  0
  160.9590  210.0110  152.8120 C   0  0  1  0  0  3  0  0  0  0  0  0
  159.8820  206.8280  156.5400 N   0  0  0  0  0  1  0  0  0  0  0  0
  160.0470  208.2620  156.6970 C   0  0  0  0  0  2  0  0  0  0  0  0
  161.9130  211.5030  147.3950 C   0  0  0  0  0  2  0  0  0  0  0  0
  160.0760  212.0810  145.2990 O   0  0  0  0  0  0  0  0  0  0  0  0
  160.4340  213.0320  146.0390 C   0  0  0  0  0  0  0  0  0  0  0  0
  161.4090  212.8260  147.0640 N   0  0  0  0  0  2  0  0  0  0  0  0
  159.8470  214.3950  145.8390 C   0  0  0  0  0  2  0  0  0  0  0  0
  158.5550  214.4530  146.3950 O   0  0  0  0  0  0  0  0  0  0  0  0
  158.7250  214.1960  147.6810 O   0  0  0  0  0  0  0  0  0  0  0  0
  157.4370  214.0670  148.2000 C   0  0  0  0  0  2  0  0  0  0  0  0
  156.1950  213.9200  150.3010 C   0  0  0  0  0  2  0  0  0  0  0  0
  157.3880  213.1860  150.4140 O   0  0  0  0  0  0  0  0  0  0  0  0
  157.4520  214.3890  149.6840 C   0  0  1  0  0  3  0  0  0  0  0  0
  162.3140  208.3640  151.0120 O   0  0  0  0  0  0  0  0  0  0  0  0
  163.4710  206.8990  149.5120 C   0  0  0  0  0  1  0  0  0  0  0  0
  162.2260  207.1260  150.3560 C   0  0  1  0  0  3  0  0  0  0  0  0
  162.7670  206.0150  152.3870 O   0  0  0  0  0  0  0  0  0  0  0  0
  162.0640  206.0060  151.3460 C   0  0  0  0  0  0  0  0  0  0  0  0
  161.0980  204.9650  151.1770 N   0  0  0  0  0  2  0  0  0  0  0  0
  160.3690  204.7480  149.9430 C   0  0  0  0  0  2  0  0  0  0  0  0
  161.0240  203.6260  149.1670 C   0  0  2  0  0  3  0  0  0  0  0  0
  162.6240  203.2490  147.1490 C   0  0  2  0  0  3  0  0  0  0  0  0
  161.6240  204.2010  147.8570 C   0  0  1  0  0  3  0  0  0  0  0  0
  160.0900  201.6110  145.3140 C   0  0  0  0  0  1  0  0  0  0  0  0
  160.0830  201.6680  150.1930 O   0  0  0  0  0  1  0  0  0  0  0  0
  160.0480  202.4460  149.0390 C   0  0  2  0  0  3  0  0  0  0  0  0
  161.6770  200.9060  147.7980 C   0  0  0  0  0  2  0  0  0  0  0  0
  161.2410  203.5360  146.5300 C   0  0  2  0  0  0  0  0  0  0  0  0
  160.1390  202.4560  146.5830 C   0  0  2  0  0  3  0  0  0  0  0  0
  162.8280  201.9140  147.8960 C   0  0  0  0  0  2  0  0  0  0  0  0
  160.2950  201.5770  147.8070 C   0  0  2  0  0  3  0  0  0  0  0  0
  162.6220  205.1770  145.1850 C   0  0  0  0  0  1  0  0  0  0  0  0
  161.2440  204.5720  145.3970 C   0  0  0  0  0  3  0  0  0  0  0  0
  160.2030  205.6660  145.6090 C   0  0  0  0  0  1  0  0  0  0  0  0
  1  2  1  1  0  0  0
  1 19  1  0  0  0  0
  3 33  1  1  0  0  0
  3  1  1  0  0  0  0
  4  2  1  0  0  0  0
  5  3  1  0  0  0  0
  6 22  1  6  0  0  0
  6  5  1  0  0  0  0
  6  4  1  0  0  0  0
  7 17  1  6  0  0  0
  7 13  1  0  0  0  0
  8 17  1  1  0  0  0
  8 16  1  0  0  0  0
  8 11  1  0  0  0  0
  9 21  1  1  0  0  0
 10 12  2  0  0  0  0
 11 14  1  1  0  0  0
 12  9  1  0  0  0  0
 13  9  1  0  0  0  0
 13 11  1  0  0  0  0
 16 18  1  0  0  0  0
 18 14  1  0  0  0  0
 18 15  1  0  0  0  0
 19 10  1  0  0  0  0
 19  7  1  0  0  0  0
 20 21  1  0  0  0  0
 23 24  2  0  0  0  0
 24 25  1  0  0  0  0
 25 22  1  0  0  0  0
 26 24  1  0  0  0  0
 26 27  1  0  0  0  0
 27 28  1  0  0  0  0
 28 29  1  0  0  0  0
 29 32  1  0  0  0  0
 30 31  1  0  0  0  0
 32 30  1  0  0  0  0
 32 31  1  0  0  0  0
 34 35  1  0  0  0  0
 35 33  1  0  0  0  0
 35 37  1  0  0  0  0
 37 36  2  0  0  0  0
 38 37  1  0  0  0  0
 39 38  1  0  0  0  0
 40 39  1  0  0  0  0
 41 42  1  0  0  0  0
 41 49  1  0  0  0  0
 42 40  1  0  0  0  0
 43 48  1  0  0  0  0
 45 40  1  0  0  0  0
 45 44  1  0  0  0  0
 46 50  1  0  0  0  0
 46 49  1  0  0  0  0
 47 48  1  0  0  0  0
 47 41  1  0  0  0  0
 47 42  1  0  0  0  0
 48 50  1  0  0  0  0
 50 45  1  0  0  0  0
 51 52  1  0  0  0  0
 52 53  1  0  0  0  0
 52 47  1  0  0  0  0
M  END
>  <MODEL>
6

>  <REMARK>
 VINA RESULT:      -3.2      3.154      9.169
  Name = 
  15 active torsions:
  status: ('A' for Active; 'I' for Inactive)
    1  A    between atoms: C_2  and  C_32
    2  A    between atoms: C_3  and  C_53
    3  A    between atoms: C_7  and  C_13
    4  A    between atoms: C_7  and  O_40
    5  A    between atoms: C_12  and  C_23
    6  A    between atoms: C_18  and  O_35
    7  A    between atoms: C_21  and  C_38
    8  A    between atoms: C_32  and  N_44
    9  A    between atoms: C_34  and  N_47
   10  A    between atoms: C_34  and  C_51
   11  A    between atoms: O_35  and  C_37
   12  A    between atoms: C_36  and  C_37
   13  A    between atoms: O_39  and  O_40
   14  A    between atoms: O_39  and  C_41
   15  A    between atoms: C_41  and  C_43
                            x       y       z     vdW  Elec       q    Type
                         _______ _______ _______ _____ _____    ______ ____

>  <TORSDO>
F 15

$$$$
=
 OpenBabel11042421293D

 53 60  0  0  1  0  0  0  0  0999 V2000
  159.2550  213.3450  152.5910 C   0  0  1  0  0  3  0  0  0  0  0  0
  158.1530  213.0620  153.5090 N   0  0  0  0  0  2  0  0  0  0  0  0
  160.3170  212.2300  152.6760 C   0  0  1  0  0  3  0  0  0  0  0  0
  158.6200  213.3050  154.8800 C   0  0  0  0  0  2  0  0  0  0  0  0
  160.4120  211.6600  154.1050 C   0  0  0  0  0  2  0  0  0  0  0  0
  160.0120  212.6850  155.1620 C   0  0  2  0  0  3  0  0  0  0  0  0
  159.5680  213.9870  150.2200 C   0  0  2  0  0  3  0  0  0  0  0  0
  161.3860  213.6940  148.8350 C   0  0  1  0  0  3  0  0  0  0  0  0
  157.8830  213.3480  148.4790 C   0  0  0  0  0  0  0  0  0  0  0  0
  157.4170  213.1910  150.8410 N   0  0  0  0  0  2  0  0  0  0  0  0
  160.3420  213.8170  148.0600 C   0  0  1  0  0  3  0  0  0  0  0  0
  157.0490  212.9950  149.4650 C   0  0  0  0  0  3  0  0  0  0  0  0
  159.1020  214.1840  148.8050 C   0  0  2  0  0  3  0  0  0  0  0  0
  160.6850  214.2340  146.7470 N   0  0  0  0  0  2  0  0  0  0  0  0
  162.7910  213.1620  145.5260 Cl  0  0  0  0  0  0  0  0  0  0  0  0
  162.6590  214.0040  148.1050 C   0  0  0  0  0  2  0  0  0  0  0  0
  161.0710  213.9190  150.2810 C   0  0  0  0  0  2  0  0  0  0  0  0
  162.1430  214.3430  146.6920 C   0  0  2  0  0  3  0  0  0  0  0  0
  158.7470  213.5950  151.1980 C   0  0  1  0  0  3  0  0  0  0  0  0
  156.7140  214.3210  146.6050 N   0  0  0  0  0  1  0  0  0  0  0  0
  157.4530  213.1570  147.0600 C   0  0  0  0  0  2  0  0  0  0  0  0
  160.0140  212.0370  156.5320 C   0  0  0  0  0  2  0  0  0  0  0  0
  158.8190  209.4580  156.3780 O   0  0  0  0  0  0  0  0  0  0  0  0
  160.0740  209.5230  156.3320 C   0  0  0  0  0  0  0  0  0  0  0  0
  160.7400  210.7790  156.4770 N   0  0  0  0  0  2  0  0  0  0  0  0
  160.8790  208.2750  156.1390 C   0  0  0  0  0  2  0  0  0  0  0  0
  160.0330  207.1980  155.8120 O   0  0  0  0  0  0  0  0  0  0  0  0
  160.8140  206.3190  155.2110 O   0  0  0  0  0  0  0  0  0  0  0  0
  161.5090  207.0470  154.2450 C   0  0  0  0  0  2  0  0  0  0  0  0
  162.7910  205.8830  152.5180 C   0  0  0  0  0  2  0  0  0  0  0  0
  161.8660  204.9930  153.0900 O   0  0  0  0  0  0  0  0  0  0  0  0
  161.4370  206.3230  152.9130 C   0  0  1  0  0  3  0  0  0  0  0  0
  160.0080  211.1800  151.8030 O   0  0  0  0  0  0  0  0  0  0  0  0
  160.0670  208.8330  152.2750 C   0  0  0  0  0  1  0  0  0  0  0  0
  160.8620  210.1250  152.1610 C   0  0  1  0  0  3  0  0  0  0  0  0
  162.8420  210.8590  151.0690 O   0  0  0  0  0  0  0  0  0  0  0  0
  161.9650  209.9640  151.1520 C   0  0  0  0  0  0  0  0  0  0  0  0
  162.0880  208.8030  150.3270 N   0  0  0  0  0  2  0  0  0  0  0  0
  161.0460  207.8020  150.2010 C   0  0  0  0  0  2  0  0  0  0  0  0
  161.0390  207.2650  148.7860 C   0  0  2  0  0  3  0  0  0  0  0  0
  159.9720  205.3600  147.3690 C   0  0  2  0  0  3  0  0  0  0  0  0
  160.3690  205.8650  148.7810 C   0  0  1  0  0  3  0  0  0  0  0  0
  163.1300  203.8920  146.7780 C   0  0  0  0  0  1  0  0  0  0  0  0
  162.6590  208.6620  147.6920 O   0  0  0  0  0  1  0  0  0  0  0  0
  162.4480  207.3760  148.1820 C   0  0  2  0  0  3  0  0  0  0  0  0
  161.8050  206.4640  145.8750 C   0  0  0  0  0  2  0  0  0  0  0  0
  161.1300  204.6980  148.1420 C   0  0  2  0  0  0  0  0  0  0  0  0
  162.5900  204.9670  147.7160 C   0  0  2  0  0  3  0  0  0  0  0  0
  160.3210  206.3580  146.2440 C   0  0  0  0  0  2  0  0  0  0  0  0
  162.7320  206.3410  147.0940 C   0  0  2  0  0  3  0  0  0  0  0  0
  161.3040  203.3310  150.2660 C   0  0  0  0  0  1  0  0  0  0  0  0
  160.7680  203.3820  148.8440 C   0  0  0  0  0  3  0  0  0  0  0  0
  161.2230  202.1590  148.0540 C   0  0  0  0  0  1  0  0  0  0  0  0
  1  3  1  0  0  0  0
  1  2  1  1  0  0  0
  2  4  1  0  0  0  0
  3 33  1  6  0  0  0
  3  5  1  0  0  0  0
  4  6  1  0  0  0  0
  5  6  1  0  0  0  0
  6 22  1  1  0  0  0
  7 17  1  6  0  0  0
  7 19  1  0  0  0  0
  8 16  1  6  0  0  0
  8 17  1  0  0  0  0
  9 12  2  0  0  0  0
 11 14  1  6  0  0  0
 11 13  1  0  0  0  0
 11  8  1  0  0  0  0
 12 10  1  0  0  0  0
 13  9  1  6  0  0  0
 13  7  1  0  0  0  0
 18 15  1  6  0  0  0
 18 14  1  0  0  0  0
 18 16  1  0  0  0  0
 19 10  1  6  0  0  0
 19  1  1  0  0  0  0
 20 21  1  0  0  0  0
 21  9  1  0  0  0  0
 24 23  2  0  0  0  0
 24 25  1  0  0  0  0
 25 22  1  0  0  0  0
 26 24  1  0  0  0  0
 27 26  1  0  0  0  0
 28 27  1  0  0  0  0
 29 28  1  0  0  0  0
 30 32  1  0  0  0  0
 30 31  1  0  0  0  0
 32 31  1  0  0  0  0
 32 29  1  1  0  0  0
 33 35  1  0  0  0  0
 35 34  1  6  0  0  0
 36 37  2  0  0  0  0
 37 35  1  0  0  0  0
 38 37  1  0  0  0  0
 39 38  1  0  0  0  0
 40 39  1  1  0  0  0
 41 49  1  6  0  0  0
 41 47  1  0  0  0  0
 41 42  1  0  0  0  0
 42 40  1  0  0  0  0
 43 48  1  0  0  0  0
 44 45  1  0  0  0  0
 45 40  1  0  0  0  0
 46 49  1  0  0  0  0
 46 50  1  0  0  0  0
 47 42  1  0  0  0  0
 47 52  1  0  0  0  0
 48 47  1  0  0  0  0
 50 48  1  0  0  0  0
 50 45  1  0  0  0  0
 52 51  1  0  0  0  0
 53 52  1  0  0  0  0
M  END
>  <MODEL>
7

>  <REMARK>
 VINA RESULT:      -2.9      3.446      9.898
  Name = 
  15 active torsions:
  status: ('A' for Active; 'I' for Inactive)
    1  A    between atoms: C_2  and  C_32
    2  A    between atoms: C_3  and  C_53
    3  A    between atoms: C_7  and  C_13
    4  A    between atoms: C_7  and  O_40
    5  A    between atoms: C_12  and  C_23
    6  A    between atoms: C_18  and  O_35
    7  A    between atoms: C_21  and  C_38
    8  A    between atoms: C_32  and  N_44
    9  A    between atoms: C_34  and  N_47
   10  A    between atoms: C_34  and  C_51
   11  A    between atoms: O_35  and  C_37
   12  A    between atoms: C_36  and  C_37
   13  A    between atoms: O_39  and  O_40
   14  A    between atoms: O_39  and  C_41
   15  A    between atoms: C_41  and  C_43
                            x       y       z     vdW  Elec       q    Type
                         _______ _______ _______ _____ _____    ______ ____

>  <TORSDO>
F 15

$$$$
=
 OpenBabel11042421293D

 53 60  0  0  1  0  0  0  0  0999 V2000
  161.4520  208.2340  149.0090 C   0  0  1  0  0  3  0  0  0  0  0  0
  162.6140  207.3610  148.8480 N   0  0  0  0  0  2  0  0  0  0  0  0
  160.6670  207.8450  150.2770 C   0  0  1  0  0  3  0  0  0  0  0  0
  162.1410  206.0390  148.4180 C   0  0  0  0  0  2  0  0  0  0  0  0
  160.7380  206.3270  150.5320 C   0  0  0  0  0  2  0  0  0  0  0  0
  160.9280  205.5350  149.2420 C   0  0  2  0  0  3  0  0  0  0  0  0
  161.6300  210.4320  147.8830 C   0  0  2  0  0  3  0  0  0  0  0  0
  160.2430  211.4150  146.3280 C   0  0  1  0  0  3  0  0  0  0  0  0
  161.9720  212.5340  149.2040 C   0  0  0  0  0  0  0  0  0  0  0  0
  162.2760  210.3420  150.1680 N   0  0  0  0  0  2  0  0  0  0  0  0
  160.8970  212.3840  146.9110 C   0  0  1  0  0  3  0  0  0  0  0  0
  162.2370  211.7750  150.2760 C   0  0  0  0  0  3  0  0  0  0  0  0
  161.9650  211.8970  147.8310 C   0  0  2  0  0  3  0  0  0  0  0  0
  160.9460  213.5600  146.1180 N   0  0  0  0  0  2  0  0  0  0  0  0
  158.7700  214.3770  144.8240 Cl  0  0  0  0  0  0  0  0  0  0  0  0
  159.7060  211.8330  144.9910 C   0  0  0  0  0  2  0  0  0  0  0  0
  160.7060  210.0570  146.7550 C   0  0  0  0  0  2  0  0  0  0  0  0
  160.1840  213.2950  144.8970 C   0  0  2  0  0  3  0  0  0  0  0  0
  161.8550  209.6820  148.9650 C   0  0  1  0  0  3  0  0  0  0  0  0
  160.7460  214.4530  150.0020 N   0  0  0  0  0  1  0  0  0  0  0  0
  161.9700  214.0210  149.3490 C   0  0  0  0  0  2  0  0  0  0  0  0
  161.1070  204.0650  149.5630 C   0  0  0  0  0  2  0  0  0  0  0  0
  161.0660  201.2260  149.3570 O   0  0  0  0  0  0  0  0  0  0  0  0
  161.1730  201.8860  148.2930 C   0  0  0  0  0  0  0  0  0  0  0  0
  161.2720  203.3110  148.3310 N   0  0  0  0  0  2  0  0  0  0  0  0
  161.2110  201.1750  146.9750 C   0  0  0  0  0  2  0  0  0  0  0  0
  160.2880  201.7560  146.0850 O   0  0  0  0  0  0  0  0  0  0  0  0
  161.0260  202.4000  145.1980 O   0  0  0  0  0  0  0  0  0  0  0  0
  160.3160  203.5650  144.9080 C   0  0  0  0  0  2  0  0  0  0  0  0
  161.2530  205.5360  143.8070 C   0  0  0  0  0  2  0  0  0  0  0  0
  160.4660  205.9430  144.8980 O   0  0  0  0  0  0  0  0  0  0  0  0
  161.2260  204.7690  145.0690 C   0  0  1  0  0  3  0  0  0  0  0  0
  161.1780  208.5040  151.4020 O   0  0  0  0  0  0  0  0  0  0  0  0
  162.3000  206.6270  152.3780 C   0  0  0  0  0  1  0  0  0  0  0  0
  161.1100  207.5730  152.4500 C   0  0  1  0  0  3  0  0  0  0  0  0
  161.6360  207.7100  154.7650 O   0  0  0  0  0  0  0  0  0  0  0  0
  161.0850  208.2680  153.7830 C   0  0  0  0  0  0  0  0  0  0  0  0
  160.5130  209.5660  153.9630 N   0  0  0  0  0  2  0  0  0  0  0  0
  159.6940  210.2200  152.9610 C   0  0  0  0  0  2  0  0  0  0  0  0
  159.2440  211.5660  153.4860 C   0  0  2  0  0  3  0  0  0  0  0  0
  158.3410  212.6700  155.6640 C   0  0  2  0  0  3  0  0  0  0  0  0
  158.5310  211.3630  154.8490 C   0  0  1  0  0  3  0  0  0  0  0  0
  155.2550  213.4290  154.1210 C   0  0  0  0  0  1  0  0  0  0  0  0
  159.3610  212.9530  151.5270 O   0  0  0  0  0  1  0  0  0  0  0  0
  158.4710  212.3180  152.3900 C   0  0  2  0  0  3  0  0  0  0  0  0
  158.0880  214.4450  153.7670 C   0  0  0  0  0  2  0  0  0  0  0  0
  157.1290  211.9560  155.0310 C   0  0  2  0  0  0  0  0  0  0  0  0
  156.4550  212.5530  153.7770 C   0  0  2  0  0  3  0  0  0  0  0  0
  158.9050  213.9190  154.9520 C   0  0  0  0  0  2  0  0  0  0  0  0
  157.4540  213.3200  152.9350 C   0  0  2  0  0  3  0  0  0  0  0  0
  155.2540  210.2730  155.2790 C   0  0  0  0  0  1  0  0  0  0  0  0
  156.3110  211.0930  156.0020 C   0  0  0  0  0  3  0  0  0  0  0  0
  155.6800  211.9160  157.1200 C   0  0  0  0  0  1  0  0  0  0  0  0
  1  2  1  1  0  0  0
  1  3  1  0  0  0  0
  3  5  1  0  0  0  0
  3 33  1  1  0  0  0
  4  2  1  0  0  0  0
  4  6  1  0  0  0  0
  6 22  1  1  0  0  0
  6  5  1  0  0  0  0
  7 17  1  1  0  0  0
  7 19  1  0  0  0  0
  8 16  1  6  0  0  0
  8 17  1  0  0  0  0
  8 11  1  0  0  0  0
  9 21  1  0  0  0  0
  9 12  2  0  0  0  0
 10 12  1  0  0  0  0
 11 14  1  6  0  0  0
 11 13  1  0  0  0  0
 13  7  1  0  0  0  0
 13  9  1  1  0  0  0
 18 15  1  1  0  0  0
 18 16  1  0  0  0  0
 18 14  1  0  0  0  0
 19  1  1  0  0  0  0
 19 10  1  1  0  0  0
 21 20  1  0  0  0  0
 24 25  1  0  0  0  0
 24 23  2  0  0  0  0
 25 22  1  0  0  0  0
 26 24  1  0  0  0  0
 27 26  1  0  0  0  0
 28 27  1  0  0  0  0
 29 28  1  0  0  0  0
 30 31  1  0  0  0  0
 30 32  1  0  0  0  0
 31 32  1  0  0  0  0
 32 29  1  6  0  0  0
 33 35  1  0  0  0  0
 35 34  1  1  0  0  0
 35 37  1  0  0  0  0
 37 38  1  0  0  0  0
 37 36  2  0  0  0  0
 39 38  1  0  0  0  0
 40 39  1  6  0  0  0
 40 42  1  0  0  0  0
 41 49  1  6  0  0  0
 42 47  1  0  0  0  0
 42 41  1  0  0  0  0
 44 45  1  0  0  0  0
 45 50  1  0  0  0  0
 45 40  1  0  0  0  0
 46 49  1  0  0  0  0
 47 41  1  0  0  0  0
 47 52  1  0  0  0  0
 48 43  1  0  0  0  0
 48 47  1  0  0  0  0
 50 46  1  0  0  0  0
 50 48  1  0  0  0  0
 51 52  1  0  0  0  0
 52 53  1  0  0  0  0
M  END
>  <MODEL>
8

>  <REMARK>
 VINA RESULT:      -2.5      3.458      6.948
  Name = 
  15 active torsions:
  status: ('A' for Active; 'I' for Inactive)
    1  A    between atoms: C_2  and  C_32
    2  A    between atoms: C_3  and  C_53
    3  A    between atoms: C_7  and  C_13
    4  A    between atoms: C_7  and  O_40
    5  A    between atoms: C_12  and  C_23
    6  A    between atoms: C_18  and  O_35
    7  A    between atoms: C_21  and  C_38
    8  A    between atoms: C_32  and  N_44
    9  A    between atoms: C_34  and  N_47
   10  A    between atoms: C_34  and  C_51
   11  A    between atoms: O_35  and  C_37
   12  A    between atoms: C_36  and  C_37
   13  A    between atoms: O_39  and  O_40
   14  A    between atoms: O_39  and  C_41
   15  A    between atoms: C_41  and  C_43
                            x       y       z     vdW  Elec       q    Type
                         _______ _______ _______ _____ _____    ______ ____

>  <TORSDO>
F 15

$$$$
