=
 OpenBabel11042422243D

 58 66  0  0  1  0  0  0  0  0999 V2000
  160.9790  209.9860  153.6280 C   0  0  1  0  0  3  0  0  0  0  0  0
  159.4430  209.1430  155.2610 O   0  0  0  0  0  0  0  0  0  0  0  0
  159.4860  208.4930  156.5330 C   0  0  0  0  0  2  0  0  0  0  0  0
  160.2160  206.5380  155.2400 C   0  0  0  0  0  3  0  0  0  0  0  0
  160.4540  207.4670  154.0240 C   0  0  1  0  0  3  0  0  0  0  0  0
  159.7160  207.0320  156.3830 C   0  0  0  0  0  3  0  0  0  0  0  0
  160.6470  208.8800  154.6060 C   0  0  1  0  0  3  0  0  0  0  0  0
  161.4700  207.0310  153.0400 O   0  0  0  0  0  0  0  0  0  0  0  0
  161.4850  206.8100  149.9010 C   0  0  0  0  0  0  0  0  0  0  0  0
  161.3540  205.8200  152.3110 C   0  0  0  0  0  0  0  0  0  0  0  0
  161.0240  203.4060  152.4250 C   0  0  0  0  0  3  0  0  0  0  0  0
  161.2980  205.7360  150.8360 C   0  0  0  0  0  0  0  0  0  0  0  0
  161.4550  207.8000  147.7300 C   0  0  0  0  0  2  0  0  0  0  0  0
  160.8280  204.2860  148.9070 C   0  0  0  0  0  3  0  0  0  0  0  0
  161.2570  204.6370  153.0140 C   0  0  0  0  0  3  0  0  0  0  0  0
  162.8600  209.5140  148.3530 O   0  0  0  0  0  1  0  0  0  0  0  0
  160.9510  205.3390  148.0260 C   0  0  0  0  0  3  0  0  0  0  0  0
  161.2820  206.5830  148.5510 C   0  0  0  0  0  0  0  0  0  0  0  0
  161.8880  208.2150  150.1110 C   0  0  0  0  0  2  0  0  0  0  0  0
  161.0100  204.4680  150.2760 C   0  0  0  0  0  0  0  0  0  0  0  0
  161.7260  208.8900  148.7290 C   0  0  2  0  0  3  0  0  0  0  0  0
  160.8690  203.3170  151.0530 C   0  0  0  0  0  3  0  0  0  0  0  0
  159.9220  210.2530  152.5950 C   0  0  0  0  0  2  0  0  0  0  0  0
  159.7510  211.6750  152.2730 N   0  0  0  0  0  0  0  0  0  0  0  0
  158.0250  213.1990  152.1460 C   0  0  0  0  0  0  0  0  0  0  0  0
  158.6650  212.3040  153.0160 C   0  0  2  0  0  3  0  0  0  0  0  0
  158.8840  213.6040  153.3220 O   0  0  0  0  0  0  0  0  0  0  0  0
  157.3540  213.4050  151.0850 O   0  0  0  0  0  0  0  0  0  0  0  0
  161.3020  211.9130  150.4230 C   0  0  0  0  0  2  0  0  0  0  0  0
  160.6800  213.2480  150.2440 C   0  0  2  0  0  3  0  0  0  0  0  0
  159.8560  211.9900  150.7260 C   0  0  2  0  0  3  0  0  0  0  0  0
  160.9000  213.3580  148.6910 C   0  0  1  0  0  3  0  0  0  0  0  0
  161.0420  213.4980  145.6710 C   0  0  1  0  0  3  0  0  0  0  0  0
  159.8740  213.9000  147.8760 O   0  0  0  0  0  0  0  0  0  0  0  0
  163.7790  212.4950  147.7610 O   0  0  0  0  0  0  0  0  0  0  0  0
  159.4850  211.9130  142.5470 C   0  0  0  0  0  1  0  0  0  0  0  0
  160.8730  212.9520  144.2530 C   0  0  0  0  0  3  0  0  0  0  0  0
  158.6310  213.9810  145.6460 C   0  0  2  0  0  3  0  0  0  0  0  0
  158.4970  212.9270  144.6300 O   0  0  0  0  0  0  0  0  0  0  0  0
  159.9810  213.7860  146.4300 C   0  0  2  0  0  3  0  0  0  0  0  0
  162.1040  213.8960  148.4350 O   0  0  0  0  0  0  0  0  0  0  0  0
  163.5190  213.4340  145.1010 C   0  0  0  0  0  1  0  0  0  0  0  0
  162.8390  213.3180  147.4260 C   0  0  0  0  0  0  0  0  0  0  0  0
  162.4510  213.4620  146.1060 N   0  0  0  0  0  0  0  0  0  0  0  0
  159.6320  212.6350  143.8850 C   0  0  0  0  0  0  0  0  0  0  0  0
  157.3910  214.1920  146.4240 C   0  0  0  0  0  2  0  0  0  0  0  0
  156.2700  213.7280  145.7250 O   0  0  0  0  0  1  0  0  0  0  0  0
  161.8840  211.0910  154.2120 C   0  0  0  0  0  2  0  0  0  0  0  0
  161.6490  211.4240  155.6140 N   0  0  0  0  0  2  0  0  0  0  0  0
  160.3330  212.0420  155.7990 C   0  0  0  0  0  2  0  0  0  0  0  0
  160.4330  212.9830  157.0270 C   0  0  1  0  0  3  0  0  0  0  0  0
  160.4570  214.3190  156.7680 O   0  0  0  0  0  0  0  0  0  0  0  0
  159.2770  213.7340  157.2600 N   0  0  0  0  0  0  0  0  0  0  0  0
  158.2650  214.1820  156.2510 C   0  0  0  0  0  2  0  0  0  0  0  0
  156.8910  213.9680  156.6930 C   0  0  0  0  0  2  0  0  0  0  0  0
  155.8470  214.4530  155.6850 C   0  0  0  0  0  2  0  0  0  0  0  0
  154.7230  214.1220  153.8070 C   0  0  0  0  0  1  0  0  0  0  0  0
  155.6880  213.5530  154.6230 O   0  0  0  0  0  0  0  0  0  0  0  0
  1 23  1  1  0  0  0
  1 48  1  0  0  0  0
  2  3  1  0  0  0  0
  4  6  2  0  0  0  0
  5  8  1  1  0  0  0
  5  7  1  0  0  0  0
  5  4  1  0  0  0  0
  6  3  1  0  0  0  0
  7  1  1  6  0  0  0
  7  2  1  0  0  0  0
  9 19  1  0  0  0  0
  9 12  1  0  0  0  0
 10 15  1  0  0  0  0
 10  8  1  0  0  0  0
 11 15  2  0  0  0  0
 12 10  2  0  0  0  0
 13 18  1  0  0  0  0
 13 21  1  0  0  0  0
 14 20  1  0  0  0  0
 17 18  1  0  0  0  0
 17 14  2  0  0  0  0
 18  9  2  0  0  0  0
 20 12  1  0  0  0  0
 20 22  2  0  0  0  0
 21 16  1  6  0  0  0
 21 19  1  0  0  0  0
 22 11  1  0  0  0  0
 24 23  1  0  0  0  0
 25 26  1  0  0  0  0
 25 27  1  0  0  0  0
 26 24  1  6  0  0  0
 26 27  1  0  0  0  0
 28 25  2  0  0  0  0
 29 31  1  0  0  0  0
 30 29  1  1  0  0  0
 30 31  1  0  0  0  0
 31 24  1  1  0  0  0
 32 34  1  1  0  0  0
 32 30  1  0  0  0  0
 33 37  1  1  0  0  0
 33 44  1  0  0  0  0
 33 40  1  0  0  0  0
 36 45  1  0  0  0  0
 38 46  1  1  0  0  0
 38 40  1  0  0  0  0
 39 38  1  0  0  0  0
 40 34  1  1  0  0  0
 41 32  1  0  0  0  0
 42 44  1  0  0  0  0
 43 35  2  0  0  0  0
 43 41  1  0  0  0  0
 44 43  1  0  0  0  0
 45 37  2  0  0  0  0
 45 39  1  0  0  0  0
 47 46  1  0  0  0  0
 48 49  1  0  0  0  0
 49 50  1  0  0  0  0
 51 50  1  6  0  0  0
 51 53  1  0  0  0  0
 52 51  1  0  0  0  0
 52 53  1  0  0  0  0
 54 55  1  0  0  0  0
 54 53  1  0  0  0  0
 56 55  1  0  0  0  0
 57 58  1  0  0  0  0
 58 56  1  0  0  0  0
M  END
>  <MODEL>
1

>  <REMARK>
 VINA RESULT:      -6.0      0.000      0.000
  Name = 
  17 active torsions:
  status: ('A' for Active; 'I' for Inactive)
    1  A    between atoms: C_2  and  C_26
    2  A    between atoms: C_3  and  O_14
    3  A    between atoms: C_5  and  C_29
    4  A    between atoms: C_10  and  N_44
    5  A    between atoms: C_13  and  C_49
    6  A    between atoms: O_14  and  C_38
    7  A    between atoms: C_22  and  C_30
    8  A    between atoms: C_22  and  O_45
    9  A    between atoms: C_30  and  C_31
   10  A    between atoms: C_31  and  N_48
   11  A    between atoms: N_32  and  C_36
   12  A    between atoms: N_32  and  C_49
   13  A    between atoms: C_36  and  C_53
   14  A    between atoms: N_44  and  C_51
   15  A    between atoms: N_44  and  C_52
   16  A    between atoms: C_52  and  C_53
   17  A    between atoms: C_53  and  C_58
                            x       y       z     vdW  Elec       q    Type
                         _______ _______ _______ _____ _____    ______ ____

>  <TORSDO>
F 17

$$$$
=
 OpenBabel11042422243D

 58 66  0  0  1  0  0  0  0  0999 V2000
  161.3730  210.7720  150.6200 C   0  0  1  0  0  3  0  0  0  0  0  0
  162.7500  211.3240  148.7400 O   0  0  0  0  0  0  0  0  0  0  0  0
  163.5390  212.4240  148.2790 C   0  0  0  0  0  2  0  0  0  0  0  0
  161.3680  213.4860  147.8440 C   0  0  0  0  0  3  0  0  0  0  0  0
  160.6900  212.3790  148.6890 C   0  0  1  0  0  3  0  0  0  0  0  0
  162.6920  213.4550  147.6250 C   0  0  0  0  0  3  0  0  0  0  0  0
  161.7880  211.8260  149.6170 C   0  0  1  0  0  3  0  0  0  0  0  0
  159.4100  212.7300  149.3450 O   0  0  0  0  0  0  0  0  0  0  0  0
  156.7540  213.7840  150.6630 C   0  0  0  0  0  0  0  0  0  0  0  0
  158.3230  213.3020  148.6350 C   0  0  0  0  0  0  0  0  0  0  0  0
  157.4020  213.8760  146.4510 C   0  0  0  0  0  3  0  0  0  0  0  0
  157.0540  213.7340  149.2590 C   0  0  0  0  0  0  0  0  0  0  0  0
  155.3110  214.0500  152.5450 C   0  0  0  0  0  2  0  0  0  0  0  0
  154.7380  214.4510  148.8520 C   0  0  0  0  0  3  0  0  0  0  0  0
  158.4320  213.4430  147.2670 C   0  0  0  0  0  3  0  0  0  0  0  0
  157.0590  214.4530  153.9890 O   0  0  0  0  0  1  0  0  0  0  0  0
  154.4470  214.4350  150.2000 C   0  0  0  0  0  3  0  0  0  0  0  0
  155.4720  214.1010  151.0760 C   0  0  0  0  0  0  0  0  0  0  0  0
  157.6100  213.5500  151.8430 C   0  0  0  0  0  2  0  0  0  0  0  0
  156.0100  214.1250  148.3870 C   0  0  0  0  0  0  0  0  0  0  0  0
  156.6450  213.5770  153.0520 C   0  0  2  0  0  3  0  0  0  0  0  0
  156.1730  214.1930  147.0020 C   0  0  0  0  0  3  0  0  0  0  0  0
  162.2380  209.5440  150.6390 C   0  0  0  0  0  2  0  0  0  0  0  0
  161.7160  208.4620  151.4810 N   0  0  0  0  0  0  0  0  0  0  0  0
  161.6700  207.4280  153.5420 C   0  0  0  0  0  0  0  0  0  0  0  0
  162.1070  208.5850  152.8810 C   0  0  2  0  0  3  0  0  0  0  0  0
  161.0750  208.8060  153.7270 O   0  0  0  0  0  0  0  0  0  0  0  0
  161.7170  206.1650  153.6900 O   0  0  0  0  0  0  0  0  0  0  0  0
  161.5340  207.2580  149.3820 C   0  0  0  0  0  2  0  0  0  0  0  0
  160.5650  206.4010  150.1070 C   0  0  2  0  0  3  0  0  0  0  0  0
  161.8290  207.0310  150.8150 C   0  0  2  0  0  3  0  0  0  0  0  0
  160.8310  205.0790  149.2990 C   0  0  1  0  0  3  0  0  0  0  0  0
  161.2440  202.6760  147.5060 C   0  0  1  0  0  3  0  0  0  0  0  0
  161.3350  205.1580  147.9760 O   0  0  0  0  0  0  0  0  0  0  0  0
  160.3450  202.4590  150.9710 O   0  0  0  0  0  0  0  0  0  0  0  0
  159.7870  201.0230  144.3690 C   0  0  0  0  0  1  0  0  0  0  0  0
  160.8090  201.6140  146.4960 C   0  0  0  0  0  3  0  0  0  0  0  0
  161.4830  204.2180  145.6050 C   0  0  2  0  0  3  0  0  0  0  0  0
  160.5120  203.3790  144.8880 O   0  0  0  0  0  0  0  0  0  0  0  0
  161.3570  203.9600  147.1520 C   0  0  2  0  0  3  0  0  0  0  0  0
  161.5070  204.2030  150.0600 O   0  0  0  0  0  0  0  0  0  0  0  0
  161.4790  200.6880  149.0740 C   0  0  0  0  0  1  0  0  0  0  0  0
  161.0950  202.8910  150.0100 C   0  0  0  0  0  0  0  0  0  0  0  0
  161.3130  202.1320  148.8760 N   0  0  0  0  0  0  0  0  0  0  0  0
  160.4010  202.0600  145.3070 C   0  0  0  0  0  0  0  0  0  0  0  0
  161.5000  205.6170  145.1260 C   0  0  0  0  0  2  0  0  0  0  0  0
  160.2330  206.0160  144.6850 O   0  0  0  0  0  1  0  0  0  0  0  0
  160.6880  211.3380  151.8810 C   0  0  0  0  0  2  0  0  0  0  0  0
  159.8040  210.4150  152.5870 N   0  0  0  0  0  2  0  0  0  0  0  0
  159.2280  211.0390  153.7810 C   0  0  0  0  0  2  0  0  0  0  0  0
  160.1730  212.1940  154.2010 C   0  0  1  0  0  3  0  0  0  0  0  0
  159.9210  212.7760  155.4060 O   0  0  0  0  0  0  0  0  0  0  0  0
  161.0000  211.8820  155.2850 N   0  0  0  0  0  0  0  0  0  0  0  0
  160.7220  210.9110  156.3910 C   0  0  0  0  0  2  0  0  0  0  0  0
  161.9300  210.2660  156.8950 C   0  0  0  0  0  2  0  0  0  0  0  0
  161.7240  208.7950  157.2610 C   0  0  0  0  0  2  0  0  0  0  0  0
  160.2730  207.1260  157.1700 C   0  0  0  0  0  1  0  0  0  0  0  0
  160.7880  208.1730  156.4230 O   0  0  0  0  0  0  0  0  0  0  0  0
  1 23  1  1  0  0  0
  1 48  1  0  0  0  0
  2  7  1  0  0  0  0
  3  2  1  0  0  0  0
  4  5  1  0  0  0  0
  5  8  1  1  0  0  0
  5  7  1  0  0  0  0
  6  4  2  0  0  0  0
  6  3  1  0  0  0  0
  7  1  1  1  0  0  0
  9 18  1  0  0  0  0
  9 19  1  0  0  0  0
 10 12  1  0  0  0  0
 10  8  1  0  0  0  0
 11 22  2  0  0  0  0
 11 15  1  0  0  0  0
 12  9  2  0  0  0  0
 13 21  1  0  0  0  0
 14 17  1  0  0  0  0
 15 10  2  0  0  0  0
 17 18  2  0  0  0  0
 18 13  1  0  0  0  0
 19 21  1  0  0  0  0
 20 14  2  0  0  0  0
 20 12  1  0  0  0  0
 21 16  1  1  0  0  0
 22 20  1  0  0  0  0
 23 24  1  0  0  0  0
 25 28  2  0  0  0  0
 25 27  1  0  0  0  0
 26 24  1  6  0  0  0
 26 25  1  0  0  0  0
 26 27  1  0  0  0  0
 29 31  1  0  0  0  0
 30 29  1  6  0  0  0
 30 31  1  0  0  0  0
 31 24  1  1  0  0  0
 32 34  1  6  0  0  0
 32 41  1  0  0  0  0
 32 30  1  0  0  0  0
 33 37  1  1  0  0  0
 33 44  1  0  0  0  0
 36 45  1  0  0  0  0
 38 46  1  1  0  0  0
 38 40  1  0  0  0  0
 39 45  1  0  0  0  0
 39 38  1  0  0  0  0
 40 33  1  0  0  0  0
 40 34  1  6  0  0  0
 43 41  1  0  0  0  0
 43 35  2  0  0  0  0
 44 42  1  0  0  0  0
 44 43  1  0  0  0  0
 45 37  2  0  0  0  0
 47 46  1  0  0  0  0
 48 49  1  0  0  0  0
 49 50  1  0  0  0  0
 51 50  1  1  0  0  0
 51 53  1  0  0  0  0
 51 52  1  0  0  0  0
 53 52  1  0  0  0  0
 53 54  1  0  0  0  0
 54 55  1  0  0  0  0
 55 56  1  0  0  0  0
 58 57  1  0  0  0  0
 58 56  1  0  0  0  0
M  END
>  <MODEL>
2

>  <REMARK>
 VINA RESULT:      -5.2      2.956      8.700
  Name = 
  17 active torsions:
  status: ('A' for Active; 'I' for Inactive)
    1  A    between atoms: C_2  and  C_26
    2  A    between atoms: C_3  and  O_14
    3  A    between atoms: C_5  and  C_29
    4  A    between atoms: C_10  and  N_44
    5  A    between atoms: C_13  and  C_49
    6  A    between atoms: O_14  and  C_38
    7  A    between atoms: C_22  and  C_30
    8  A    between atoms: C_22  and  O_45
    9  A    between atoms: C_30  and  C_31
   10  A    between atoms: C_31  and  N_48
   11  A    between atoms: N_32  and  C_36
   12  A    between atoms: N_32  and  C_49
   13  A    between atoms: C_36  and  C_53
   14  A    between atoms: N_44  and  C_51
   15  A    between atoms: N_44  and  C_52
   16  A    between atoms: C_52  and  C_53
   17  A    between atoms: C_53  and  C_58
                            x       y       z     vdW  Elec       q    Type
                         _______ _______ _______ _____ _____    ______ ____

>  <TORSDO>
F 17

$$$$
=
 OpenBabel11042422243D

 58 66  0  0  1  0  0  0  0  0999 V2000
  160.8670  208.8930  151.7850 C   0  0  1  0  0  3  0  0  0  0  0  0
  161.8490  206.8940  152.6660 O   0  0  0  0  0  0  0  0  0  0  0  0
  161.4220  205.6380  153.1990 C   0  0  0  0  0  2  0  0  0  0  0  0
  160.7580  206.9670  155.1540 C   0  0  0  0  0  3  0  0  0  0  0  0
  160.9400  208.2510  154.3070 C   0  0  1  0  0  3  0  0  0  0  0  0
  161.0390  205.7640  154.6300 C   0  0  0  0  0  3  0  0  0  0  0  0
  160.8080  207.8070  152.8380 C   0  0  1  0  0  3  0  0  0  0  0  0
  160.1330  209.4280  154.6990 O   0  0  0  0  0  0  0  0  0  0  0  0
  158.4370  211.8480  155.7840 C   0  0  0  0  0  0  0  0  0  0  0  0
  160.6050  210.4040  155.6150 C   0  0  0  0  0  0  0  0  0  0  0  0
  162.5030  211.2270  156.9040 C   0  0  0  0  0  3  0  0  0  0  0  0
  159.8190  211.5720  156.0670 C   0  0  0  0  0  0  0  0  0  0  0  0
  156.4760  213.2050  155.7680 C   0  0  0  0  0  2  0  0  0  0  0  0
  159.8920  213.7300  157.2430 C   0  0  0  0  0  3  0  0  0  0  0  0
  161.8900  210.2830  156.1000 C   0  0  0  0  0  3  0  0  0  0  0  0
  155.0760  211.4030  155.4680 O   0  0  0  0  0  1  0  0  0  0  0  0
  158.5840  214.0080  156.9120 C   0  0  0  0  0  3  0  0  0  0  0  0
  157.8850  213.0500  156.1870 C   0  0  0  0  0  0  0  0  0  0  0  0
  157.4110  211.0360  155.1000 C   0  0  0  0  0  2  0  0  0  0  0  0
  160.4970  212.5380  156.8480 C   0  0  0  0  0  0  0  0  0  0  0  0
  156.1870  211.9720  154.9600 C   0  0  2  0  0  3  0  0  0  0  0  0
  161.8210  212.3770  157.2600 C   0  0  0  0  0  3  0  0  0  0  0  0
  159.9470  210.0550  152.0260 C   0  0  0  0  0  2  0  0  0  0  0  0
  160.5330  211.3570  151.6880 N   0  0  0  0  0  0  0  0  0  0  0  0
  158.8730  212.8710  152.2110 C   0  0  0  0  0  0  0  0  0  0  0  0
  160.1400  212.4190  152.6080 C   0  0  2  0  0  3  0  0  0  0  0  0
  160.1570  213.6570  152.0640 O   0  0  0  0  0  0  0  0  0  0  0  0
  157.6360  212.6410  152.0250 O   0  0  0  0  0  0  0  0  0  0  0  0
  161.9190  211.8300  149.7540 C   0  0  0  0  0  2  0  0  0  0  0  0
  161.0900  213.0530  149.6220 C   0  0  2  0  0  3  0  0  0  0  0  0
  160.4980  211.6840  150.1400 C   0  0  2  0  0  3  0  0  0  0  0  0
  161.2010  213.1950  148.0600 C   0  0  1  0  0  3  0  0  0  0  0  0
  161.1300  213.4010  145.0420 C   0  0  1  0  0  3  0  0  0  0  0  0
  160.1280  213.7710  147.3320 O   0  0  0  0  0  0  0  0  0  0  0  0
  163.9920  212.3110  146.9080 O   0  0  0  0  0  0  0  0  0  0  0  0
  159.3280  211.9100  142.0040 C   0  0  0  0  0  1  0  0  0  0  0  0
  160.8510  212.8900  143.6270 C   0  0  0  0  0  3  0  0  0  0  0  0
  158.7310  213.9200  145.1990 C   0  0  2  0  0  3  0  0  0  0  0  0
  158.5080  212.8910  144.1730 O   0  0  0  0  0  0  0  0  0  0  0  0
  160.1300  213.6870  145.8800 C   0  0  2  0  0  3  0  0  0  0  0  0
  162.3920  213.7210  147.7300 O   0  0  0  0  0  0  0  0  0  0  0  0
  163.5580  213.3130  144.2940 C   0  0  0  0  0  1  0  0  0  0  0  0
  163.0440  213.1550  146.6580 C   0  0  0  0  0  0  0  0  0  0  0  0
  162.5660  213.3350  145.3740 N   0  0  0  0  0  0  0  0  0  0  0  0
  159.5820  212.5990  143.3420 C   0  0  0  0  0  0  0  0  0  0  0  0
  157.5540  214.1320  146.0680 C   0  0  0  0  0  2  0  0  0  0  0  0
  156.7360  212.9950  146.0980 O   0  0  0  0  0  1  0  0  0  0  0  0
  162.2450  209.0360  151.1060 C   0  0  0  0  0  2  0  0  0  0  0  0
  162.3050  208.6190  149.7080 N   0  0  0  0  0  2  0  0  0  0  0  0
  161.1950  207.7240  149.3720 C   0  0  0  0  0  2  0  0  0  0  0  0
  161.7640  206.2830  149.3100 C   0  0  1  0  0  3  0  0  0  0  0  0
  160.8550  205.2750  149.2030 O   0  0  0  0  0  0  0  0  0  0  0  0
  161.5930  205.6610  148.0700 N   0  0  0  0  0  0  0  0  0  0  0  0
  160.5100  205.9140  147.0670 C   0  0  0  0  0  2  0  0  0  0  0  0
  161.0240  206.3770  145.7830 C   0  0  0  0  0  2  0  0  0  0  0  0
  162.0860  205.4520  145.1840 C   0  0  0  0  0  2  0  0  0  0  0  0
  160.6090  203.8280  144.9050 C   0  0  0  0  0  1  0  0  0  0  0  0
  161.5450  204.5880  144.2220 O   0  0  0  0  0  0  0  0  0  0  0  0
  1 48  1  1  0  0  0
  1 23  1  0  0  0  0
  2  7  1  0  0  0  0
  2  3  1  0  0  0  0
  3  6  1  0  0  0  0
  5  8  1  1  0  0  0
  5  4  1  0  0  0  0
  6  4  2  0  0  0  0
  7  1  1  6  0  0  0
  7  5  1  0  0  0  0
  8 10  1  0  0  0  0
  9 12  2  0  0  0  0
  9 18  1  0  0  0  0
 10 12  1  0  0  0  0
 10 15  2  0  0  0  0
 11 22  2  0  0  0  0
 12 20  1  0  0  0  0
 13 18  1  0  0  0  0
 15 11  1  0  0  0  0
 17 14  1  0  0  0  0
 18 17  2  0  0  0  0
 19  9  1  0  0  0  0
 20 14  2  0  0  0  0
 20 22  1  0  0  0  0
 21 19  1  0  0  0  0
 21 16  1  1  0  0  0
 21 13  1  0  0  0  0
 24 23  1  0  0  0  0
 25 26  1  0  0  0  0
 26 24  1  6  0  0  0
 27 25  1  0  0  0  0
 27 26  1  0  0  0  0
 28 25  2  0  0  0  0
 29 31  1  0  0  0  0
 30 29  1  1  0  0  0
 30 31  1  0  0  0  0
 31 24  1  1  0  0  0
 32 34  1  1  0  0  0
 32 30  1  0  0  0  0
 33 37  1  1  0  0  0
 33 44  1  0  0  0  0
 33 40  1  0  0  0  0
 36 45  1  0  0  0  0
 38 40  1  0  0  0  0
 38 46  1  1  0  0  0
 39 38  1  0  0  0  0
 40 34  1  1  0  0  0
 41 32  1  0  0  0  0
 42 44  1  0  0  0  0
 43 35  2  0  0  0  0
 43 41  1  0  0  0  0
 44 43  1  0  0  0  0
 45 37  2  0  0  0  0
 45 39  1  0  0  0  0
 46 47  1  0  0  0  0
 49 48  1  0  0  0  0
 50 49  1  0  0  0  0
 51 50  1  6  0  0  0
 52 51  1  0  0  0  0
 53 52  1  0  0  0  0
 53 51  1  0  0  0  0
 54 53  1  0  0  0  0
 55 54  1  0  0  0  0
 56 55  1  0  0  0  0
 58 57  1  0  0  0  0
 58 56  1  0  0  0  0
M  END
>  <MODEL>
3

>  <REMARK>
 VINA RESULT:      -3.7      2.065      7.127
  Name = 
  17 active torsions:
  status: ('A' for Active; 'I' for Inactive)
    1  A    between atoms: C_2  and  C_26
    2  A    between atoms: C_3  and  O_14
    3  A    between atoms: C_5  and  C_29
    4  A    between atoms: C_10  and  N_44
    5  A    between atoms: C_13  and  C_49
    6  A    between atoms: O_14  and  C_38
    7  A    between atoms: C_22  and  C_30
    8  A    between atoms: C_22  and  O_45
    9  A    between atoms: C_30  and  C_31
   10  A    between atoms: C_31  and  N_48
   11  A    between atoms: N_32  and  C_36
   12  A    between atoms: N_32  and  C_49
   13  A    between atoms: C_36  and  C_53
   14  A    between atoms: N_44  and  C_51
   15  A    between atoms: N_44  and  C_52
   16  A    between atoms: C_52  and  C_53
   17  A    between atoms: C_53  and  C_58
                            x       y       z     vdW  Elec       q    Type
                         _______ _______ _______ _____ _____    ______ ____

>  <TORSDO>
F 17

$$$$
