=
 OpenBabel11052411213D

 41 49  0  0  1  0  0  0  0  0999 V2000
  161.8710  209.3610  149.3550 C   0  0  0  0  0  0  0  0  0  0  0  0
  161.9270  208.0330  149.2330 C   0  0  0  0  0  3  0  0  0  0  0  0
  161.7130  208.4370  152.3120 C   0  0  0  0  0  0  0  0  0  0  0  0
  161.4560  211.5880  150.1820 C   0  0  1  0  0  3  0  0  0  0  0  0
  162.5410  212.8390  148.1270 C   0  0  0  0  0  2  0  0  0  0  0  0
  162.1730  209.7390  151.7650 C   0  0  1  0  0  3  0  0  0  0  0  0
  161.4960  208.4820  153.6110 C   0  0  0  0  0  2  0  0  0  0  0  0
  161.3380  210.1020  150.5440 C   0  0  2  0  0  3  0  0  0  0  0  0
  161.7730  209.8310  154.1610 C   0  0  0  0  0  2  0  0  0  0  0  0
  162.3610  210.2330  148.2610 C   0  0  0  0  0  2  0  0  0  0  0  0
  161.4640  207.2030  151.5520 C   0  0  0  0  0  3  0  0  0  0  0  0
  163.4420  212.2150  149.0110 O   0  0  0  0  0  0  0  0  0  0  0  0
  161.9570  210.7040  152.9310 C   0  0  0  0  0  2  0  0  0  0  0  0
  161.5440  206.9960  150.2230 C   0  0  2  0  0  3  0  0  0  0  0  0
  162.1870  211.6020  148.8550 C   0  0  2  0  0  0  0  0  0  0  0  0
  160.5800  203.0540  148.5420 C   0  0  2  0  0  3  0  0  0  0  0  0
  161.0460  201.0860  149.6940 C   0  0  0  0  0  2  0  0  0  0  0  0
  161.2850  205.6260  149.7000 C   0  0  0  0  0  0  0  0  0  0  0  0
  160.5670  203.3520  149.9630 N   0  0  0  0  0  0  0  0  0  0  0  0
  160.8170  204.6550  150.4930 C   0  0  0  0  0  3  0  0  0  0  0  0
  161.5820  205.3050  148.2840 C   0  0  0  0  0  3  0  0  0  0  0  0
  160.8280  202.1680  150.7340 C   0  0  0  0  0  2  0  0  0  0  0  0
  161.2070  201.7440  148.3980 N   0  0  0  0  0  2  0  0  0  0  0  0
  161.3060  204.1150  147.7380 C   0  0  0  0  0  0  0  0  0  0  0  0
  161.5590  203.9430  146.3410 N   0  0  0  0  0  2  0  0  0  0  0  0
  162.6440  204.6040  145.6360 C   0  0  0  0  0  1  0  0  0  0  0  0
  160.0620  212.1730  150.0060 C   0  0  0  0  0  2  0  0  0  0  0  0
  159.8320  213.3160  150.9840 C   0  0  0  0  0  2  0  0  0  0  0  0
  158.5780  213.0880  151.8160 C   0  0  0  0  0  2  0  0  0  0  0  0
  156.3800  213.0550  156.9730 C   0  0  0  0  0  2  0  0  0  0  0  0
  156.9120  213.5480  155.7650 O   0  0  0  0  0  0  0  0  0  0  0  0
  155.9280  211.0970  155.4280 C   0  0  0  0  0  2  0  0  0  0  0  0
  157.4260  211.2230  155.1500 C   0  0  1  0  0  3  0  0  0  0  0  0
  158.9360  212.5040  153.1680 C   0  0  1  0  0  3  0  0  0  0  0  0
  155.5250  211.8110  156.7230 C   0  0  0  0  0  2  0  0  0  0  0  0
  157.6380  212.0800  153.8870 C   0  0  2  0  0  0  0  0  0  0  0  0
  158.5830  211.0780  153.2020 C   0  0  0  0  0  2  0  0  0  0  0  0
  157.8920  212.6300  155.3220 C   0  0  1  0  0  0  0  0  0  0  0  0
  159.2600  212.7390  155.9520 C   0  0  0  0  0  0  0  0  0  0  0  0
  159.8100  213.8660  156.0690 O   0  0  0  0  0  0  0  0  0  0  0  0
  159.9000  211.6080  156.4440 O   0  0  0  0  0  1  0  0  0  0  0  0
  2  1  2  0  0  0  0
  2 14  1  0  0  0  0
  3  7  1  0  0  0  0
  4 27  1  6  0  0  0
  4  8  1  0  0  0  0
  5 12  1  0  0  0  0
  6  3  1  0  0  0  0
  6 13  1  1  0  0  0
  7  9  1  0  0  0  0
  8  1  1  6  0  0  0
  8  6  1  0  0  0  0
 10 15  1  0  0  0  0
 10  1  1  0  0  0  0
 11  3  2  0  0  0  0
 13  9  1  0  0  0  0
 14 18  1  1  0  0  0
 14 11  1  0  0  0  0
 15  5  1  6  0  0  0
 15 12  1  0  0  0  0
 15  4  1  0  0  0  0
 16 24  1  6  0  0  0
 16 19  1  0  0  0  0
 17 22  1  0  0  0  0
 18 20  2  0  0  0  0
 19 20  1  0  0  0  0
 19 22  1  0  0  0  0
 21 18  1  0  0  0  0
 23 16  1  0  0  0  0
 23 17  1  0  0  0  0
 24 21  2  0  0  0  0
 25 24  1  0  0  0  0
 26 25  1  0  0  0  0
 27 28  1  0  0  0  0
 28 29  1  0  0  0  0
 31 30  1  0  0  0  0
 32 35  1  0  0  0  0
 33 38  1  0  0  0  0
 33 32  1  1  0  0  0
 34 29  1  6  0  0  0
 34 37  1  0  0  0  0
 34 36  1  0  0  0  0
 35 30  1  0  0  0  0
 36 37  1  1  0  0  0
 36 33  1  0  0  0  0
 36 38  1  0  0  0  0
 38 31  1  0  0  0  0
 38 39  1  1  0  0  0
 39 40  2  0  0  0  0
 39 41  1  0  0  0  0
M  END
>  <MODEL>
1

>  <REMARK>
 VINA RESULT:      -6.4      0.000      0.000
  Name = 
  7 active torsions:
  status: ('A' for Active; 'I' for Inactive)
    1  A    between atoms: C_7  and  C_30
    2  A    between atoms: C_8  and  C_32
    3  A    between atoms: C_12  and  C_17
    4  A    between atoms: C_12  and  C_32
    5  A    between atoms: N_15  and  C_41
    6  A    between atoms: C_17  and  C_25
    7  A    between atoms: C_24  and  C_35
                            x       y       z     vdW  Elec       q    Type
                         _______ _______ _______ _____ _____    ______ ____

>  <TORSDO>
F 7

$$$$
=
 OpenBabel11052411213D

 41 49  0  0  1  0  0  0  0  0999 V2000
  161.9110  210.2100  148.8090 C   0  0  0  0  0  0  0  0  0  0  0  0
  162.1230  208.9290  148.5030 C   0  0  0  0  0  3  0  0  0  0  0  0
  161.7830  208.8540  151.5970 C   0  0  0  0  0  0  0  0  0  0  0  0
  161.2200  212.2330  149.9250 C   0  0  1  0  0  3  0  0  0  0  0  0
  162.2070  213.8820  148.1160 C   0  0  0  0  0  2  0  0  0  0  0  0
  162.1040  210.2640  151.2590 C   0  0  1  0  0  3  0  0  0  0  0  0
  161.5280  208.6860  152.8790 C   0  0  0  0  0  2  0  0  0  0  0  0
  161.2650  210.7070  150.0670 C   0  0  2  0  0  3  0  0  0  0  0  0
  161.6330  209.9630  153.6250 C   0  0  0  0  0  2  0  0  0  0  0  0
  162.3250  211.2810  147.8710 C   0  0  0  0  0  2  0  0  0  0  0  0
  161.6980  207.7240  150.6590 C   0  0  0  0  0  3  0  0  0  0  0  0
  163.1510  213.2400  148.9400 O   0  0  0  0  0  0  0  0  0  0  0  0
  161.7470  211.0200  152.5400 C   0  0  0  0  0  2  0  0  0  0  0  0
  161.8370  207.7230  149.3200 C   0  0  2  0  0  3  0  0  0  0  0  0
  161.9790  212.5210  148.6460 C   0  0  2  0  0  0  0  0  0  0  0  0
  161.7810  203.8030  147.3360 C   0  0  2  0  0  3  0  0  0  0  0  0
  161.0910  203.5600  145.1270 C   0  0  0  0  0  2  0  0  0  0  0  0
  161.7520  206.4240  148.5960 C   0  0  0  0  0  0  0  0  0  0  0  0
  162.0370  205.0550  146.6460 N   0  0  0  0  0  0  0  0  0  0  0  0
  162.1180  206.3160  147.3140 C   0  0  0  0  0  3  0  0  0  0  0  0
  161.2150  205.2260  149.2850 C   0  0  0  0  0  3  0  0  0  0  0  0
  161.6500  204.9630  145.2660 C   0  0  0  0  0  2  0  0  0  0  0  0
  160.8950  203.0270  146.4740 N   0  0  0  0  0  2  0  0  0  0  0  0
  161.1790  204.0170  148.7120 C   0  0  0  0  0  0  0  0  0  0  0  0
  160.7180  202.9160  149.4980 N   0  0  0  0  0  2  0  0  0  0  0  0
  160.8440  202.8550  150.9450 C   0  0  0  0  0  1  0  0  0  0  0  0
  159.7730  212.6800  149.7740 C   0  0  0  0  0  2  0  0  0  0  0  0
  159.4400  213.7730  150.7800 C   0  0  0  0  0  2  0  0  0  0  0  0
  158.2530  213.3820  151.6490 C   0  0  0  0  0  2  0  0  0  0  0  0
  156.3860  213.0810  156.9260 C   0  0  0  0  0  2  0  0  0  0  0  0
  156.8130  213.6360  155.7040 O   0  0  0  0  0  0  0  0  0  0  0  0
  155.9490  211.1430  155.3520 C   0  0  0  0  0  2  0  0  0  0  0  0
  157.4180  211.3630  154.9880 C   0  0  1  0  0  3  0  0  0  0  0  0
  158.7270  212.7830  152.9580 C   0  0  1  0  0  3  0  0  0  0  0  0
  155.5880  211.7970  156.6910 C   0  0  0  0  0  2  0  0  0  0  0  0
  157.5020  212.2650  153.7410 C   0  0  2  0  0  0  0  0  0  0  0  0
  158.4570  211.3380  152.9700 C   0  0  0  0  0  2  0  0  0  0  0  0
  157.8140  212.7890  155.1750 C   0  0  1  0  0  0  0  0  0  0  0  0
  159.2100  212.9600  155.7230 C   0  0  0  0  0  0  0  0  0  0  0  0
  159.7060  214.1130  155.8320 O   0  0  0  0  0  0  0  0  0  0  0  0
  159.9370  211.8560  156.1520 O   0  0  0  0  0  1  0  0  0  0  0  0
  2  1  2  0  0  0  0
  2 14  1  0  0  0  0
  3  7  1  0  0  0  0
  4 27  1  6  0  0  0
  4  8  1  0  0  0  0
  5 15  1  0  0  0  0
  5 12  1  0  0  0  0
  6  3  1  0  0  0  0
  6 13  1  1  0  0  0
  7  9  1  0  0  0  0
  8  1  1  6  0  0  0
  8  6  1  0  0  0  0
 10  1  1  0  0  0  0
 11  3  2  0  0  0  0
 13  9  1  0  0  0  0
 14 18  1  1  0  0  0
 14 11  1  0  0  0  0
 15 10  1  6  0  0  0
 15 12  1  0  0  0  0
 15  4  1  0  0  0  0
 16 23  1  6  0  0  0
 16 24  1  0  0  0  0
 17 22  1  0  0  0  0
 17 23  1  0  0  0  0
 18 21  1  0  0  0  0
 19 20  1  0  0  0  0
 19 16  1  0  0  0  0
 20 18  2  0  0  0  0
 22 19  1  0  0  0  0
 24 21  2  0  0  0  0
 24 25  1  0  0  0  0
 25 26  1  0  0  0  0
 27 28  1  0  0  0  0
 28 29  1  0  0  0  0
 31 30  1  0  0  0  0
 32 35  1  0  0  0  0
 33 38  1  0  0  0  0
 33 32  1  1  0  0  0
 34 29  1  6  0  0  0
 34 37  1  0  0  0  0
 34 36  1  0  0  0  0
 35 30  1  0  0  0  0
 36 37  1  1  0  0  0
 36 33  1  0  0  0  0
 36 38  1  0  0  0  0
 38 31  1  0  0  0  0
 38 39  1  1  0  0  0
 39 40  2  0  0  0  0
 39 41  1  0  0  0  0
M  END
>  <MODEL>
2

>  <REMARK>
 VINA RESULT:      -6.1      0.822      2.038
  Name = 
  7 active torsions:
  status: ('A' for Active; 'I' for Inactive)
    1  A    between atoms: C_7  and  C_30
    2  A    between atoms: C_8  and  C_32
    3  A    between atoms: C_12  and  C_17
    4  A    between atoms: C_12  and  C_32
    5  A    between atoms: N_15  and  C_41
    6  A    between atoms: C_17  and  C_25
    7  A    between atoms: C_24  and  C_35
                            x       y       z     vdW  Elec       q    Type
                         _______ _______ _______ _____ _____    ______ ____

>  <TORSDO>
F 7

$$$$
=
 OpenBabel11052411213D

 41 49  0  0  1  0  0  0  0  0999 V2000
  161.9520  210.4650  148.6870 C   0  0  0  0  0  0  0  0  0  0  0  0
  162.1810  209.1700  148.4610 C   0  0  0  0  0  3  0  0  0  0  0  0
  161.4880  209.2330  151.4960 C   0  0  0  0  0  0  0  0  0  0  0  0
  161.1630  212.5400  149.6280 C   0  0  1  0  0  3  0  0  0  0  0  0
  162.3720  214.1010  147.8770 C   0  0  0  0  0  2  0  0  0  0  0  0
  161.8630  210.6240  151.1380 C   0  0  1  0  0  3  0  0  0  0  0  0
  161.0860  209.1220  152.7460 C   0  0  0  0  0  2  0  0  0  0  0  0
  161.1720  211.0210  149.8390 C   0  0  2  0  0  3  0  0  0  0  0  0
  161.1210  210.4290  153.4450 C   0  0  0  0  0  2  0  0  0  0  0  0
  162.4840  211.4910  147.7580 C   0  0  0  0  0  2  0  0  0  0  0  0
  161.4970  208.0640  150.6030 C   0  0  0  0  0  3  0  0  0  0  0  0
  163.2070  213.4880  148.8300 O   0  0  0  0  0  0  0  0  0  0  0  0
  161.3710  211.4380  152.3360 C   0  0  0  0  0  2  0  0  0  0  0  0
  161.7880  208.0030  149.2900 C   0  0  2  0  0  3  0  0  0  0  0  0
  162.0670  212.7660  148.4340 C   0  0  2  0  0  0  0  0  0  0  0  0
  161.9180  204.0050  147.4730 C   0  0  2  0  0  3  0  0  0  0  0  0
  161.4000  203.6630  145.2310 C   0  0  0  0  0  2  0  0  0  0  0  0
  161.7690  206.6740  148.6170 C   0  0  0  0  0  0  0  0  0  0  0  0
  162.2140  205.2310  146.7530 N   0  0  0  0  0  0  0  0  0  0  0  0
  162.2330  206.5190  147.3710 C   0  0  0  0  0  3  0  0  0  0  0  0
  161.1940  205.4990  149.3130 C   0  0  0  0  0  3  0  0  0  0  0  0
  161.9340  205.0770  145.3520 C   0  0  0  0  0  2  0  0  0  0  0  0
  161.1070  203.1830  146.5810 N   0  0  0  0  0  2  0  0  0  0  0  0
  161.2120  204.2680  148.7900 C   0  0  0  0  0  0  0  0  0  0  0  0
  160.7030  203.1940  149.5850 N   0  0  0  0  0  2  0  0  0  0  0  0
  160.7730  203.1680  151.0360 C   0  0  0  0  0  1  0  0  0  0  0  0
  159.7490  212.9910  149.2930 C   0  0  0  0  0  2  0  0  0  0  0  0
  159.1200  213.7120  150.4770 C   0  0  0  0  0  2  0  0  0  0  0  0
  158.2000  212.7870  151.2620 C   0  0  0  0  0  2  0  0  0  0  0  0
  157.9040  211.5350  156.7190 C   0  0  0  0  0  2  0  0  0  0  0  0
  157.7050  211.4410  155.3280 O   0  0  0  0  0  0  0  0  0  0  0  0
  159.8740  212.8870  155.8690 C   0  0  0  0  0  2  0  0  0  0  0  0
  158.7790  213.6430  155.1160 C   0  0  1  0  0  3  0  0  0  0  0  0
  157.7190  213.4660  152.5290 C   0  0  1  0  0  3  0  0  0  0  0  0
  159.3050  212.0650  157.0320 C   0  0  0  0  0  2  0  0  0  0  0  0
  158.6500  213.0670  153.6930 C   0  0  2  0  0  0  0  0  0  0  0  0
  158.7260  214.4320  152.9890 C   0  0  0  0  0  2  0  0  0  0  0  0
  157.6170  212.7570  154.8170 C   0  0  1  0  0  0  0  0  0  0  0  0
  156.2810  213.4490  154.9470 C   0  0  0  0  0  0  0  0  0  0  0  0
  156.1560  214.4320  155.7250 O   0  0  0  0  0  1  0  0  0  0  0  0
  155.1990  213.0380  154.1790 O   0  0  0  0  0  0  0  0  0  0  0  0
  2  1  2  0  0  0  0
  2 14  1  0  0  0  0
  3  7  1  0  0  0  0
  4 27  1  6  0  0  0
  4  8  1  0  0  0  0
  5 15  1  0  0  0  0
  5 12  1  0  0  0  0
  6  3  1  0  0  0  0
  6 13  1  1  0  0  0
  7  9  1  0  0  0  0
  8  1  1  6  0  0  0
  8  6  1  0  0  0  0
 10  1  1  0  0  0  0
 11  3  2  0  0  0  0
 13  9  1  0  0  0  0
 14 18  1  1  0  0  0
 14 11  1  0  0  0  0
 15 10  1  6  0  0  0
 15 12  1  0  0  0  0
 15  4  1  0  0  0  0
 16 23  1  6  0  0  0
 16 24  1  0  0  0  0
 17 22  1  0  0  0  0
 17 23  1  0  0  0  0
 18 21  1  0  0  0  0
 19 20  1  0  0  0  0
 19 16  1  0  0  0  0
 20 18  2  0  0  0  0
 22 19  1  0  0  0  0
 24 21  2  0  0  0  0
 24 25  1  0  0  0  0
 25 26  1  0  0  0  0
 27 28  1  0  0  0  0
 28 29  1  0  0  0  0
 30 35  1  0  0  0  0
 31 30  1  0  0  0  0
 32 35  1  0  0  0  0
 33 32  1  1  0  0  0
 34 29  1  6  0  0  0
 34 37  1  0  0  0  0
 34 36  1  0  0  0  0
 36 37  1  1  0  0  0
 36 38  1  0  0  0  0
 36 33  1  0  0  0  0
 38 39  1  6  0  0  0
 38 33  1  0  0  0  0
 38 31  1  0  0  0  0
 39 40  1  0  0  0  0
 41 39  2  0  0  0  0
M  END
>  <MODEL>
3

>  <REMARK>
 VINA RESULT:      -5.9      1.395      2.726
  Name = 
  7 active torsions:
  status: ('A' for Active; 'I' for Inactive)
    1  A    between atoms: C_7  and  C_30
    2  A    between atoms: C_8  and  C_32
    3  A    between atoms: C_12  and  C_17
    4  A    between atoms: C_12  and  C_32
    5  A    between atoms: N_15  and  C_41
    6  A    between atoms: C_17  and  C_25
    7  A    between atoms: C_24  and  C_35
                            x       y       z     vdW  Elec       q    Type
                         _______ _______ _______ _____ _____    ______ ____

>  <TORSDO>
F 7

$$$$
=
 OpenBabel11052411213D

 41 49  0  0  1  0  0  0  0  0999 V2000
  161.5990  211.5090  149.3860 C   0  0  0  0  0  0  0  0  0  0  0  0
  161.8390  210.5050  150.2310 C   0  0  0  0  0  3  0  0  0  0  0  0
  159.9620  212.3650  151.8780 C   0  0  0  0  0  0  0  0  0  0  0  0
  160.5930  213.3890  148.2600 C   0  0  1  0  0  3  0  0  0  0  0  0
  162.4870  213.6550  146.4430 C   0  0  0  0  0  2  0  0  0  0  0  0
  160.5170  213.2110  150.7910 C   0  0  1  0  0  3  0  0  0  0  0  0
  159.0770  213.0050  152.6150 C   0  0  0  0  0  2  0  0  0  0  0  0
  160.4420  212.4570  149.4690 C   0  0  2  0  0  3  0  0  0  0  0  0
  158.8830  214.3970  152.1440 C   0  0  0  0  0  2  0  0  0  0  0  0
  162.5150  211.7610  148.2480 C   0  0  0  0  0  2  0  0  0  0  0  0
  160.2820  210.9540  152.1430 C   0  0  0  0  0  3  0  0  0  0  0  0
  162.8260  214.0670  147.7460 O   0  0  0  0  0  0  0  0  0  0  0  0
  159.6150  214.4460  150.8140 C   0  0  0  0  0  2  0  0  0  0  0  0
  161.0850  210.1230  151.4510 C   0  0  2  0  0  3  0  0  0  0  0  0
  161.9170  212.9990  147.6390 C   0  0  2  0  0  0  0  0  0  0  0  0
  161.8600  206.1250  153.0990 C   0  0  2  0  0  3  0  0  0  0  0  0
  161.4070  204.1930  151.8830 C   0  0  0  0  0  2  0  0  0  0  0  0
  161.2810  208.7370  151.9600 C   0  0  0  0  0  0  0  0  0  0  0  0
  161.9560  206.4510  151.6870 N   0  0  0  0  0  0  0  0  0  0  0  0
  161.7670  207.7700  151.1720 C   0  0  0  0  0  3  0  0  0  0  0  0
  160.9010  208.3960  153.3510 C   0  0  0  0  0  3  0  0  0  0  0  0
  161.7070  205.2890  150.8790 C   0  0  0  0  0  2  0  0  0  0  0  0
  161.1930  204.8290  153.1820 N   0  0  0  0  0  2  0  0  0  0  0  0
  161.1180  207.1890  153.8850 C   0  0  0  0  0  0  0  0  0  0  0  0
  160.7860  206.9960  155.2630 N   0  0  0  0  0  2  0  0  0  0  0  0
  160.2680  208.0510  156.1170 C   0  0  0  0  0  1  0  0  0  0  0  0
  159.4650  213.1190  147.2750 C   0  0  0  0  0  2  0  0  0  0  0  0
  159.6620  213.9240  145.9980 C   0  0  0  0  0  2  0  0  0  0  0  0
  159.2590  213.1210  144.7700 C   0  0  0  0  0  2  0  0  0  0  0  0
  161.2550  210.6100  140.1720 C   0  0  0  0  0  2  0  0  0  0  0  0
  161.0100  210.8740  141.5330 O   0  0  0  0  0  0  0  0  0  0  0  0
  159.1120  211.9550  140.0100 C   0  0  0  0  0  2  0  0  0  0  0  0
  159.9120  212.9620  140.8370 C   0  0  1  0  0  3  0  0  0  0  0  0
  160.1090  213.5100  143.5770 C   0  0  1  0  0  3  0  0  0  0  0  0
  160.0210  210.9270  139.3250 C   0  0  0  0  0  2  0  0  0  0  0  0
  159.5910  212.7620  142.3310 C   0  0  2  0  0  0  0  0  0  0  0  0
  159.2920  214.2460  142.6030 C   0  0  0  0  0  2  0  0  0  0  0  0
  160.9270  212.2780  141.6900 C   0  0  1  0  0  0  0  0  0  0  0  0
  162.2320  213.0290  141.7950 C   0  0  0  0  0  0  0  0  0  0  0  0
  162.5830  213.8110  140.8720 O   0  0  0  0  0  0  0  0  0  0  0  0
  163.0300  212.8980  142.9250 O   0  0  0  0  0  1  0  0  0  0  0  0
  1  2  2  0  0  0  0
  2 14  1  0  0  0  0
  3 11  2  0  0  0  0
  3  7  1  0  0  0  0
  4 27  1  6  0  0  0
  4  8  1  0  0  0  0
  5 12  1  0  0  0  0
  6 13  1  6  0  0  0
  6  3  1  0  0  0  0
  8  1  1  1  0  0  0
  8  6  1  0  0  0  0
  9  7  1  0  0  0  0
 10  1  1  0  0  0  0
 13  9  1  0  0  0  0
 14 18  1  1  0  0  0
 14 11  1  0  0  0  0
 15  5  1  6  0  0  0
 15 12  1  0  0  0  0
 15 10  1  0  0  0  0
 15  4  1  0  0  0  0
 16 23  1  6  0  0  0
 16 24  1  0  0  0  0
 17 23  1  0  0  0  0
 18 21  1  0  0  0  0
 19 16  1  0  0  0  0
 20 19  1  0  0  0  0
 20 18  2  0  0  0  0
 21 24  2  0  0  0  0
 22 19  1  0  0  0  0
 22 17  1  0  0  0  0
 24 25  1  0  0  0  0
 25 26  1  0  0  0  0
 28 27  1  0  0  0  0
 29 28  1  0  0  0  0
 30 31  1  0  0  0  0
 31 38  1  0  0  0  0
 33 32  1  6  0  0  0
 33 38  1  0  0  0  0
 33 36  1  0  0  0  0
 34 29  1  1  0  0  0
 35 32  1  0  0  0  0
 35 30  1  0  0  0  0
 36 37  1  6  0  0  0
 36 34  1  0  0  0  0
 37 34  1  0  0  0  0
 38 39  1  1  0  0  0
 38 36  1  0  0  0  0
 39 41  1  0  0  0  0
 40 39  2  0  0  0  0
M  END
>  <MODEL>
4

>  <REMARK>
 VINA RESULT:      -5.8      4.466      8.861
  Name = 
  7 active torsions:
  status: ('A' for Active; 'I' for Inactive)
    1  A    between atoms: C_7  and  C_30
    2  A    between atoms: C_8  and  C_32
    3  A    between atoms: C_12  and  C_17
    4  A    between atoms: C_12  and  C_32
    5  A    between atoms: N_15  and  C_41
    6  A    between atoms: C_17  and  C_25
    7  A    between atoms: C_24  and  C_35
                            x       y       z     vdW  Elec       q    Type
                         _______ _______ _______ _____ _____    ______ ____

>  <TORSDO>
F 7

$$$$
=
 OpenBabel11052411213D

 41 49  0  0  1  0  0  0  0  0999 V2000
  161.9540  209.3540  149.1790 C   0  0  0  0  0  0  0  0  0  0  0  0
  161.9930  208.0230  149.0870 C   0  0  0  0  0  3  0  0  0  0  0  0
  161.5300  208.4930  152.1290 C   0  0  0  0  0  0  0  0  0  0  0  0
  161.5150  211.6040  149.9270 C   0  0  1  0  0  3  0  0  0  0  0  0
  162.7930  212.7940  147.9480 C   0  0  0  0  0  2  0  0  0  0  0  0
  162.0600  209.7740  151.5990 C   0  0  1  0  0  3  0  0  0  0  0  0
  161.2060  208.5680  153.4040 C   0  0  0  0  0  2  0  0  0  0  0  0
  161.3380  210.1280  150.3050 C   0  0  2  0  0  3  0  0  0  0  0  0
  161.4630  209.9220  153.9510 C   0  0  0  0  0  2  0  0  0  0  0  0
  162.5510  210.1940  148.1140 C   0  0  0  0  0  2  0  0  0  0  0  0
  161.3210  207.2490  151.3740 C   0  0  0  0  0  3  0  0  0  0  0  0
  163.6050  212.1710  148.9160 O   0  0  0  0  0  0  0  0  0  0  0  0
  161.7670  210.7670  152.7240 C   0  0  0  0  0  2  0  0  0  0  0  0
  161.5080  207.0140  150.0610 C   0  0  2  0  0  3  0  0  0  0  0  0
  162.3550  211.5780  148.6670 C   0  0  2  0  0  0  0  0  0  0  0  0
  160.5950  203.0530  148.3930 C   0  0  2  0  0  3  0  0  0  0  0  0
  161.0640  201.0960  149.5610 C   0  0  0  0  0  2  0  0  0  0  0  0
  161.2660  205.6380  149.5420 C   0  0  0  0  0  0  0  0  0  0  0  0
  160.5640  203.3600  149.8120 N   0  0  0  0  0  0  0  0  0  0  0  0
  160.7980  204.6680  150.3360 C   0  0  0  0  0  3  0  0  0  0  0  0
  161.5810  205.3110  148.1320 C   0  0  0  0  0  3  0  0  0  0  0  0
  160.8260  202.1820  150.5920 C   0  0  0  0  0  2  0  0  0  0  0  0
  161.2350  201.7480  148.2640 N   0  0  0  0  0  2  0  0  0  0  0  0
  161.3210  204.1160  147.5900 C   0  0  0  0  0  0  0  0  0  0  0  0
  161.5910  203.9370  146.1980 N   0  0  0  0  0  2  0  0  0  0  0  0
  161.5880  205.0260  145.2350 C   0  0  0  0  0  1  0  0  0  0  0  0
  160.1540  212.2110  149.6230 C   0  0  0  0  0  2  0  0  0  0  0  0
  159.6950  213.1030  150.7690 C   0  0  0  0  0  2  0  0  0  0  0  0
  158.2020  212.9530  151.0230 C   0  0  0  0  0  2  0  0  0  0  0  0
  157.8110  211.3700  156.3860 C   0  0  0  0  0  2  0  0  0  0  0  0
  157.5870  211.3970  154.9960 O   0  0  0  0  0  0  0  0  0  0  0  0
  159.9210  212.5300  155.5940 C   0  0  0  0  0  2  0  0  0  0  0  0
  158.9190  213.4640  154.9140 C   0  0  1  0  0  3  0  0  0  0  0  0
  157.8190  213.5950  152.3410 C   0  0  1  0  0  3  0  0  0  0  0  0
  159.2680  211.7050  156.7090 C   0  0  0  0  0  2  0  0  0  0  0  0
  158.7070  213.0070  153.4580 C   0  0  2  0  0  0  0  0  0  0  0  0
  158.9410  214.3990  152.8460 C   0  0  0  0  0  2  0  0  0  0  0  0
  157.6550  212.7470  154.5770 C   0  0  1  0  0  0  0  0  0  0  0  0
  156.4140  213.5840  154.7780 C   0  0  0  0  0  0  0  0  0  0  0  0
  156.3840  214.4530  155.6890 O   0  0  0  0  0  1  0  0  0  0  0  0
  155.3200  213.4340  153.9350 O   0  0  0  0  0  0  0  0  0  0  0  0
  2  1  2  0  0  0  0
  2 14  1  0  0  0  0
  3  7  1  0  0  0  0
  4 27  1  6  0  0  0
  4  8  1  0  0  0  0
  5 12  1  0  0  0  0
  6  3  1  0  0  0  0
  6 13  1  1  0  0  0
  7  9  1  0  0  0  0
  8  1  1  6  0  0  0
  8  6  1  0  0  0  0
 10 15  1  0  0  0  0
 10  1  1  0  0  0  0
 11  3  2  0  0  0  0
 13  9  1  0  0  0  0
 14 18  1  1  0  0  0
 14 11  1  0  0  0  0
 15  5  1  6  0  0  0
 15 12  1  0  0  0  0
 15  4  1  0  0  0  0
 16 24  1  6  0  0  0
 16 19  1  0  0  0  0
 17 22  1  0  0  0  0
 18 20  2  0  0  0  0
 19 20  1  0  0  0  0
 19 22  1  0  0  0  0
 21 18  1  0  0  0  0
 23 16  1  0  0  0  0
 23 17  1  0  0  0  0
 24 21  2  0  0  0  0
 25 24  1  0  0  0  0
 26 25  1  0  0  0  0
 27 28  1  0  0  0  0
 28 29  1  0  0  0  0
 30 35  1  0  0  0  0
 31 30  1  0  0  0  0
 32 35  1  0  0  0  0
 33 32  1  1  0  0  0
 34 29  1  6  0  0  0
 34 37  1  0  0  0  0
 34 36  1  0  0  0  0
 36 37  1  1  0  0  0
 36 38  1  0  0  0  0
 36 33  1  0  0  0  0
 38 39  1  6  0  0  0
 38 33  1  0  0  0  0
 38 31  1  0  0  0  0
 39 40  1  0  0  0  0
 41 39  2  0  0  0  0
M  END
>  <MODEL>
5

>  <REMARK>
 VINA RESULT:      -5.3      1.079      1.741
  Name = 
  7 active torsions:
  status: ('A' for Active; 'I' for Inactive)
    1  A    between atoms: C_7  and  C_30
    2  A    between atoms: C_8  and  C_32
    3  A    between atoms: C_12  and  C_17
    4  A    between atoms: C_12  and  C_32
    5  A    between atoms: N_15  and  C_41
    6  A    between atoms: C_17  and  C_25
    7  A    between atoms: C_24  and  C_35
                            x       y       z     vdW  Elec       q    Type
                         _______ _______ _______ _____ _____    ______ ____

>  <TORSDO>
F 7

$$$$
=
 OpenBabel11052411213D

 41 49  0  0  1  0  0  0  0  0999 V2000
  161.6380  207.8050  150.4640 C   0  0  0  0  0  0  0  0  0  0  0  0
  161.7710  206.6500  149.8100 C   0  0  0  0  0  3  0  0  0  0  0  0
  161.2080  205.7320  152.7310 C   0  0  0  0  0  0  0  0  0  0  0  0
  161.0270  209.4840  152.0840 C   0  0  1  0  0  3  0  0  0  0  0  0
  162.2640  211.4780  150.8770 C   0  0  0  0  0  2  0  0  0  0  0  0
  161.6600  207.1430  152.8310 C   0  0  1  0  0  3  0  0  0  0  0  0
  160.8510  205.2310  153.8960 C   0  0  0  0  0  2  0  0  0  0  0  0
  160.9440  207.9830  151.7800 C   0  0  2  0  0  3  0  0  0  0  0  0
  161.0010  206.2270  154.9840 C   0  0  0  0  0  2  0  0  0  0  0  0
  162.1990  209.0540  149.8950 C   0  0  0  0  0  2  0  0  0  0  0  0
  161.1030  204.9280  151.5040 C   0  0  0  0  0  3  0  0  0  0  0  0
  163.0950  210.5420  151.5220 O   0  0  0  0  0  0  0  0  0  0  0  0
  161.2720  207.5330  154.2570 C   0  0  0  0  0  2  0  0  0  0  0  0
  161.3360  205.2940  150.2290 C   0  0  2  0  0  3  0  0  0  0  0  0
  161.8950  210.0500  150.9790 C   0  0  2  0  0  0  0  0  0  0  0  0
  160.7330  202.3980  146.9810 C   0  0  2  0  0  3  0  0  0  0  0  0
  161.3720  200.1700  147.1940 C   0  0  0  0  0  2  0  0  0  0  0  0
  161.2020  204.2680  149.1580 C   0  0  0  0  0  0  0  0  0  0  0  0
  160.6910  202.0530  148.3900 N   0  0  0  0  0  0  0  0  0  0  0  0
  160.8220  203.0150  149.4380 C   0  0  0  0  0  3  0  0  0  0  0  0
  161.5290  204.6130  147.7540 C   0  0  0  0  0  3  0  0  0  0  0  0
  161.0560  200.6770  148.5880 C   0  0  0  0  0  2  0  0  0  0  0  0
  161.4760  201.3330  146.3140 N   0  0  0  0  0  2  0  0  0  0  0  0
  161.3630  203.7570  146.7400 C   0  0  0  0  0  0  0  0  0  0  0  0
  161.6330  204.2240  145.4160 N   0  0  0  0  0  2  0  0  0  0  0  0
  161.0980  205.4650  144.8800 C   0  0  0  0  0  1  0  0  0  0  0  0
  159.6340  210.0890  152.0020 C   0  0  0  0  0  2  0  0  0  0  0  0
  159.6790  211.5840  152.2880 C   0  0  0  0  0  2  0  0  0  0  0  0
  158.5880  212.3260  151.5290 C   0  0  0  0  0  2  0  0  0  0  0  0
  157.6160  212.6590  146.0180 C   0  0  0  0  0  2  0  0  0  0  0  0
  157.9140  212.1020  147.2770 O   0  0  0  0  0  0  0  0  0  0  0  0
  156.6140  214.4090  147.5540 C   0  0  0  0  0  2  0  0  0  0  0  0
  158.0160  214.3930  148.1650 C   0  0  1  0  0  3  0  0  0  0  0  0
  159.1730  213.0690  150.3450 C   0  0  1  0  0  3  0  0  0  0  0  0
  156.5940  213.7900  146.1520 C   0  0  0  0  0  2  0  0  0  0  0  0
  158.0320  213.4410  149.3760 C   0  0  2  0  0  0  0  0  0  0  0  0
  158.6810  214.4530  150.3340 C   0  0  0  0  0  2  0  0  0  0  0  0
  158.6620  213.0590  148.0030 C   0  0  1  0  0  0  0  0  0  0  0  0
  160.1400  213.1360  147.7050 C   0  0  0  0  0  0  0  0  0  0  0  0
  160.6150  214.1600  147.1460 O   0  0  0  0  0  0  0  0  0  0  0  0
  160.9890  212.1040  148.0830 O   0  0  0  0  0  1  0  0  0  0  0  0
  2 14  1  0  0  0  0
  2  1  2  0  0  0  0
  3  6  1  0  0  0  0
  3  7  1  0  0  0  0
  4 27  1  6  0  0  0
  5 15  1  0  0  0  0
  5 12  1  0  0  0  0
  6 13  1  1  0  0  0
  7  9  1  0  0  0  0
  8  1  1  6  0  0  0
  8  4  1  0  0  0  0
  8  6  1  0  0  0  0
 10  1  1  0  0  0  0
 11  3  2  0  0  0  0
 13  9  1  0  0  0  0
 14 18  1  1  0  0  0
 14 11  1  0  0  0  0
 15 10  1  6  0  0  0
 15 12  1  0  0  0  0
 15  4  1  0  0  0  0
 16 23  1  6  0  0  0
 16 19  1  0  0  0  0
 17 22  1  0  0  0  0
 18 20  2  0  0  0  0
 19 22  1  0  0  0  0
 19 20  1  0  0  0  0
 21 18  1  0  0  0  0
 23 17  1  0  0  0  0
 24 16  1  0  0  0  0
 24 21  2  0  0  0  0
 25 24  1  0  0  0  0
 26 25  1  0  0  0  0
 27 28  1  0  0  0  0
 29 28  1  0  0  0  0
 30 35  1  0  0  0  0
 30 31  1  0  0  0  0
 31 38  1  0  0  0  0
 33 32  1  6  0  0  0
 33 36  1  0  0  0  0
 34 29  1  1  0  0  0
 35 32  1  0  0  0  0
 36 37  1  6  0  0  0
 36 34  1  0  0  0  0
 37 34  1  0  0  0  0
 38 39  1  6  0  0  0
 38 33  1  0  0  0  0
 38 36  1  0  0  0  0
 39 41  1  0  0  0  0
 40 39  2  0  0  0  0
M  END
>  <MODEL>
6

>  <REMARK>
 VINA RESULT:      -5.1      2.914      4.777
  Name = 
  7 active torsions:
  status: ('A' for Active; 'I' for Inactive)
    1  A    between atoms: C_7  and  C_30
    2  A    between atoms: C_8  and  C_32
    3  A    between atoms: C_12  and  C_17
    4  A    between atoms: C_12  and  C_32
    5  A    between atoms: N_15  and  C_41
    6  A    between atoms: C_17  and  C_25
    7  A    between atoms: C_24  and  C_35
                            x       y       z     vdW  Elec       q    Type
                         _______ _______ _______ _____ _____    ______ ____

>  <TORSDO>
F 7

$$$$
=
 OpenBabel11052411213D

 41 49  0  0  1  0  0  0  0  0999 V2000
  159.8320  209.7140  154.9800 C   0  0  0  0  0  0  0  0  0  0  0  0
  159.0650  210.8040  155.0220 C   0  0  0  0  0  3  0  0  0  0  0  0
  160.5860  211.1310  152.3250 C   0  0  0  0  0  0  0  0  0  0  0  0
  161.1900  207.8750  154.2120 C   0  0  1  0  0  3  0  0  0  0  0  0
  161.6750  206.8850  156.6100 C   0  0  0  0  0  2  0  0  0  0  0  0
  161.3770  210.1580  153.1200 C   0  0  1  0  0  3  0  0  0  0  0  0
  161.0700  211.3070  151.1130 C   0  0  0  0  0  2  0  0  0  0  0  0
  160.4420  209.1280  153.7420 C   0  0  2  0  0  3  0  0  0  0  0  0
  162.2760  210.4750  150.8840 C   0  0  0  0  0  2  0  0  0  0  0  0
  160.1460  208.9720  156.2250 C   0  0  0  0  0  2  0  0  0  0  0  0
  159.3650  211.8300  152.7550 C   0  0  0  0  0  3  0  0  0  0  0  0
  162.3510  208.0790  156.2920 O   0  0  0  0  0  0  0  0  0  0  0  0
  162.3180  209.5430  152.0830 C   0  0  0  0  0  2  0  0  0  0  0  0
  158.6830  211.7100  153.9100 C   0  0  2  0  0  3  0  0  0  0  0  0
  161.0770  207.9050  155.7220 C   0  0  2  0  0  0  0  0  0  0  0  0
  155.2890  214.4530  154.4170 C   0  0  2  0  0  3  0  0  0  0  0  0
  153.8400  214.2840  156.2300 C   0  0  0  0  0  2  0  0  0  0  0  0
  157.4900  212.5750  154.1250 C   0  0  0  0  0  0  0  0  0  0  0  0
  156.0200  213.8590  155.5210 N   0  0  0  0  0  0  0  0  0  0  0  0
  157.1640  213.0210  155.3440 C   0  0  0  0  0  3  0  0  0  0  0  0
  156.6130  212.9260  152.9830 C   0  0  0  0  0  3  0  0  0  0  0  0
  155.1830  213.7470  156.6840 C   0  0  0  0  0  2  0  0  0  0  0  0
  153.8740  214.3880  154.7720 N   0  0  0  0  0  2  0  0  0  0  0  0
  155.5690  213.7540  153.1000 C   0  0  0  0  0  0  0  0  0  0  0  0
  154.8420  214.0880  151.9150 N   0  0  0  0  0  2  0  0  0  0  0  0
  155.4780  214.4530  150.6600 C   0  0  0  0  0  1  0  0  0  0  0  0
  160.4880  206.6390  153.6700 C   0  0  0  0  0  2  0  0  0  0  0  0
  161.5030  205.5880  153.2400 C   0  0  0  0  0  2  0  0  0  0  0  0
  162.2820  206.0410  152.0130 C   0  0  0  0  0  2  0  0  0  0  0  0
  162.3010  204.2060  146.7160 C   0  0  0  0  0  2  0  0  0  0  0  0
  162.7150  204.8710  147.8870 O   0  0  0  0  0  0  0  0  0  0  0  0
  161.0540  202.8750  148.4770 C   0  0  0  0  0  2  0  0  0  0  0  0
  160.5540  204.2600  148.8890 C   0  0  1  0  0  3  0  0  0  0  0  0
  161.3690  206.1320  150.8080 C   0  0  1  0  0  3  0  0  0  0  0  0
  161.6290  202.8740  147.0560 C   0  0  0  0  0  2  0  0  0  0  0  0
  161.4400  204.8030  150.0270 C   0  0  2  0  0  0  0  0  0  0  0  0
  160.2650  205.1730  150.9470 C   0  0  0  0  0  2  0  0  0  0  0  0
  161.5540  205.3170  148.5610 C   0  0  1  0  0  0  0  0  0  0  0  0
  160.9340  206.6030  148.0690 C   0  0  0  0  0  0  0  0  0  0  0  0
  159.9650  206.5650  147.2640 O   0  0  0  0  0  0  0  0  0  0  0  0
  161.3960  207.8280  148.5320 O   0  0  0  0  0  1  0  0  0  0  0  0
  1  2  2  0  0  0  0
  1 10  1  0  0  0  0
  3 11  2  0  0  0  0
  3  6  1  0  0  0  0
  4 27  1  6  0  0  0
  4 15  1  0  0  0  0
  6 13  1  6  0  0  0
  6  8  1  0  0  0  0
  7  3  1  0  0  0  0
  8  4  1  0  0  0  0
  8  1  1  1  0  0  0
  9  7  1  0  0  0  0
  9 13  1  0  0  0  0
 11 14  1  0  0  0  0
 12  5  1  0  0  0  0
 14 18  1  1  0  0  0
 14  2  1  0  0  0  0
 15 10  1  1  0  0  0
 15 12  1  0  0  0  0
 15  5  1  0  0  0  0
 16 24  1  6  0  0  0
 16 23  1  0  0  0  0
 16 19  1  0  0  0  0
 17 22  1  0  0  0  0
 18 20  2  0  0  0  0
 19 22  1  0  0  0  0
 20 19  1  0  0  0  0
 21 24  2  0  0  0  0
 21 18  1  0  0  0  0
 23 17  1  0  0  0  0
 25 24  1  0  0  0  0
 26 25  1  0  0  0  0
 28 27  1  0  0  0  0
 29 28  1  0  0  0  0
 30 35  1  0  0  0  0
 30 31  1  0  0  0  0
 31 38  1  0  0  0  0
 33 32  1  6  0  0  0
 33 36  1  0  0  0  0
 34 37  1  0  0  0  0
 34 29  1  1  0  0  0
 35 32  1  0  0  0  0
 36 34  1  0  0  0  0
 36 37  1  6  0  0  0
 38 39  1  6  0  0  0
 38 33  1  0  0  0  0
 38 36  1  0  0  0  0
 39 41  1  0  0  0  0
 40 39  2  0  0  0  0
M  END
>  <MODEL>
7

>  <REMARK>
 VINA RESULT:      -4.9      4.334      9.935
  Name = 
  7 active torsions:
  status: ('A' for Active; 'I' for Inactive)
    1  A    between atoms: C_7  and  C_30
    2  A    between atoms: C_8  and  C_32
    3  A    between atoms: C_12  and  C_17
    4  A    between atoms: C_12  and  C_32
    5  A    between atoms: N_15  and  C_41
    6  A    between atoms: C_17  and  C_25
    7  A    between atoms: C_24  and  C_35
                            x       y       z     vdW  Elec       q    Type
                         _______ _______ _______ _____ _____    ______ ____

>  <TORSDO>
F 7

$$$$
=
 OpenBabel11052411213D

 41 49  0  0  1  0  0  0  0  0999 V2000
  161.5830  208.0700  150.2290 C   0  0  0  0  0  0  0  0  0  0  0  0
  161.7030  206.8520  149.6980 C   0  0  0  0  0  3  0  0  0  0  0  0
  161.3040  206.2530  152.7270 C   0  0  0  0  0  0  0  0  0  0  0  0
  161.0270  209.9090  151.6870 C   0  0  1  0  0  3  0  0  0  0  0  0
  162.1670  211.7730  150.2070 C   0  0  0  0  0  2  0  0  0  0  0  0
  161.7370  207.6710  152.6490 C   0  0  1  0  0  3  0  0  0  0  0  0
  161.0150  205.8780  153.9570 C   0  0  0  0  0  2  0  0  0  0  0  0
  160.9540  208.3830  151.5530 C   0  0  2  0  0  3  0  0  0  0  0  0
  161.2040  206.9890  154.9210 C   0  0  0  0  0  2  0  0  0  0  0  0
  162.0930  209.2560  149.5000 C   0  0  0  0  0  2  0  0  0  0  0  0
  161.1510  205.3180  151.6020 C   0  0  0  0  0  3  0  0  0  0  0  0
  163.0460  210.9240  150.9060 O   0  0  0  0  0  0  0  0  0  0  0  0
  161.4150  208.2110  154.0440 C   0  0  0  0  0  2  0  0  0  0  0  0
  161.3120  205.5460  150.2840 C   0  0  2  0  0  3  0  0  0  0  0  0
  161.8280  210.3610  150.4830 C   0  0  2  0  0  0  0  0  0  0  0  0
  160.5920  202.3030  147.4090 C   0  0  2  0  0  3  0  0  0  0  0  0
  161.3080  200.1260  147.8160 C   0  0  0  0  0  2  0  0  0  0  0  0
  161.1420  204.4070  149.3390 C   0  0  0  0  0  0  0  0  0  0  0  0
  160.6490  202.1110  148.8470 N   0  0  0  0  0  0  0  0  0  0  0  0
  160.8170  203.1840  149.7750 C   0  0  0  0  0  3  0  0  0  0  0  0
  161.3710  204.6060  147.8890 C   0  0  0  0  0  3  0  0  0  0  0  0
  161.0650  200.7730  149.1660 C   0  0  0  0  0  2  0  0  0  0  0  0
  161.3230  201.1890  146.8120 N   0  0  0  0  0  2  0  0  0  0  0  0
  161.1660  203.6410  146.9850 C   0  0  0  0  0  0  0  0  0  0  0  0
  161.3390  203.9690  145.6030 N   0  0  0  0  0  2  0  0  0  0  0  0
  161.8210  205.2590  145.1400 C   0  0  0  0  0  1  0  0  0  0  0  0
  159.6210  210.4860  151.6130 C   0  0  0  0  0  2  0  0  0  0  0  0
  159.6090  211.9340  152.0840 C   0  0  0  0  0  2  0  0  0  0  0  0
  158.1890  212.4250  152.3270 C   0  0  0  0  0  2  0  0  0  0  0  0
  159.6300  209.8420  157.0890 C   0  0  0  0  0  2  0  0  0  0  0  0
  159.0880  210.0420  155.8050 O   0  0  0  0  0  0  0  0  0  0  0  0
  160.9830  211.8410  156.3120 C   0  0  0  0  0  2  0  0  0  0  0  0
  159.5960  212.4340  156.0600 C   0  0  1  0  0  3  0  0  0  0  0  0
  157.9390  212.6170  153.8090 C   0  0  1  0  0  3  0  0  0  0  0  0
  160.9260  210.6380  157.2610 C   0  0  0  0  0  2  0  0  0  0  0  0
  159.2090  212.2120  154.5850 C   0  0  2  0  0  0  0  0  0  0  0  0
  158.8150  213.6760  154.3280 C   0  0  0  0  0  2  0  0  0  0  0  0
  158.6010  211.3690  155.7450 C   0  0  1  0  0  0  0  0  0  0  0  0
  157.2380  211.6210  156.3440 C   0  0  0  0  0  0  0  0  0  0  0  0
  157.1020  212.4760  157.2590 O   0  0  0  0  0  1  0  0  0  0  0  0
  156.1230  210.9470  155.8620 O   0  0  0  0  0  0  0  0  0  0  0  0
  2  1  2  0  0  0  0
  2 14  1  0  0  0  0
  3  7  1  0  0  0  0
  4 27  1  6  0  0  0
  5 15  1  0  0  0  0
  5 12  1  0  0  0  0
  6  3  1  0  0  0  0
  6 13  1  1  0  0  0
  7  9  1  0  0  0  0
  8  1  1  6  0  0  0
  8  4  1  0  0  0  0
  8  6  1  0  0  0  0
 10  1  1  0  0  0  0
 11  3  2  0  0  0  0
 13  9  1  0  0  0  0
 14 18  1  1  0  0  0
 14 11  1  0  0  0  0
 15 10  1  6  0  0  0
 15 12  1  0  0  0  0
 15  4  1  0  0  0  0
 16 23  1  6  0  0  0
 16 19  1  0  0  0  0
 17 22  1  0  0  0  0
 18 20  2  0  0  0  0
 19 22  1  0  0  0  0
 19 20  1  0  0  0  0
 21 18  1  0  0  0  0
 23 17  1  0  0  0  0
 24 16  1  0  0  0  0
 24 21  2  0  0  0  0
 25 24  1  0  0  0  0
 26 25  1  0  0  0  0
 27 28  1  0  0  0  0
 28 29  1  0  0  0  0
 30 35  1  0  0  0  0
 31 30  1  0  0  0  0
 32 35  1  0  0  0  0
 33 32  1  6  0  0  0
 34 29  1  6  0  0  0
 34 37  1  0  0  0  0
 34 36  1  0  0  0  0
 36 37  1  1  0  0  0
 36 38  1  0  0  0  0
 36 33  1  0  0  0  0
 38 31  1  0  0  0  0
 38 33  1  0  0  0  0
 38 39  1  1  0  0  0
 39 40  1  0  0  0  0
 41 39  2  0  0  0  0
M  END
>  <MODEL>
8

>  <REMARK>
 VINA RESULT:      -4.8      1.528      2.489
  Name = 
  7 active torsions:
  status: ('A' for Active; 'I' for Inactive)
    1  A    between atoms: C_7  and  C_30
    2  A    between atoms: C_8  and  C_32
    3  A    between atoms: C_12  and  C_17
    4  A    between atoms: C_12  and  C_32
    5  A    between atoms: N_15  and  C_41
    6  A    between atoms: C_17  and  C_25
    7  A    between atoms: C_24  and  C_35
                            x       y       z     vdW  Elec       q    Type
                         _______ _______ _______ _____ _____    ______ ____

>  <TORSDO>
F 7

$$$$
=
 OpenBabel11052411213D

 41 49  0  0  1  0  0  0  0  0999 V2000
  160.7130  208.8910  152.6800 C   0  0  0  0  0  0  0  0  0  0  0  0
  160.3650  210.0250  153.2910 C   0  0  0  0  0  3  0  0  0  0  0  0
  161.3650  211.0120  150.5130 C   0  0  0  0  0  0  0  0  0  0  0  0
  161.2270  207.2350  151.0050 C   0  0  1  0  0  3  0  0  0  0  0  0
  161.8120  205.3070  152.7100 C   0  0  0  0  0  2  0  0  0  0  0  0
  161.9330  209.6510  150.6870 C   0  0  1  0  0  3  0  0  0  0  0  0
  161.6400  211.5280  149.3320 C   0  0  0  0  0  2  0  0  0  0  0  0
  160.8510  208.7090  151.1990 C   0  0  2  0  0  3  0  0  0  0  0  0
  162.4430  210.5960  148.5050 C   0  0  0  0  0  2  0  0  0  0  0  0
  161.0000  207.6730  153.4750 C   0  0  0  0  0  2  0  0  0  0  0  0
  160.5430  211.7520  151.4830 C   0  0  0  0  0  3  0  0  0  0  0  0
  162.7650  206.3380  152.6000 O   0  0  0  0  0  0  0  0  0  0  0  0
  162.4080  209.2880  149.2790 C   0  0  0  0  0  2  0  0  0  0  0  0
  160.0920  211.3540  152.6880 C   0  0  2  0  0  3  0  0  0  0  0  0
  161.4200  206.7000  152.4090 C   0  0  2  0  0  0  0  0  0  0  0  0
  157.8620  214.3900  154.9490 C   0  0  2  0  0  3  0  0  0  0  0  0
  157.4360  214.1520  157.2240 C   0  0  0  0  0  2  0  0  0  0  0  0
  159.3090  212.3190  153.5090 C   0  0  0  0  0  0  0  0  0  0  0  0
  158.9150  213.5690  155.5190 N   0  0  0  0  0  0  0  0  0  0  0  0
  159.6790  212.6320  154.7560 C   0  0  0  0  0  3  0  0  0  0  0  0
  158.0710  212.9230  152.9620 C   0  0  0  0  0  3  0  0  0  0  0  0
  158.7210  213.4010  156.9330 C   0  0  0  0  0  2  0  0  0  0  0  0
  156.7950  214.4470  155.9430 N   0  0  0  0  0  2  0  0  0  0  0  0
  157.3640  213.8470  153.6230 C   0  0  0  0  0  0  0  0  0  0  0  0
  156.2330  214.4230  152.9650 N   0  0  0  0  0  2  0  0  0  0  0  0
  154.8770  213.9200  153.1130 C   0  0  0  0  0  1  0  0  0  0  0  0
  160.0720  206.5070  150.3330 C   0  0  0  0  0  2  0  0  0  0  0  0
  160.5480  205.7830  149.0820 C   0  0  0  0  0  2  0  0  0  0  0  0
  160.5270  206.7020  147.8690 C   0  0  0  0  0  2  0  0  0  0  0  0
  161.1440  201.5690  145.7000 C   0  0  0  0  0  2  0  0  0  0  0  0
  161.1670  202.6200  146.6380 O   0  0  0  0  0  0  0  0  0  0  0  0
  159.4230  203.1340  144.6930 C   0  0  0  0  0  2  0  0  0  0  0  0
  160.5640  204.1460  144.8050 C   0  0  1  0  0  3  0  0  0  0  0  0
  161.2750  206.0720  146.7110 C   0  0  1  0  0  3  0  0  0  0  0  0
  159.9290  201.6890  144.7780 C   0  0  0  0  0  2  0  0  0  0  0  0
  160.4130  204.9380  146.1180 C   0  0  2  0  0  0  0  0  0  0  0  0
  160.5500  206.3200  145.4570 C   0  0  0  0  0  2  0  0  0  0  0  0
  161.4740  203.8120  145.9390 C   0  0  1  0  0  0  0  0  0  0  0  0
  162.9310  204.0680  145.6390 C   0  0  0  0  0  0  0  0  0  0  0  0
  163.3270  204.1210  144.4440 O   0  0  0  0  0  0  0  0  0  0  0  0
  163.8330  204.2900  146.6720 O   0  0  0  0  0  1  0  0  0  0  0  0
  1  2  2  0  0  0  0
  1 10  1  0  0  0  0
  3  6  1  0  0  0  0
  3 11  2  0  0  0  0
  4 27  1  1  0  0  0
  4  8  1  0  0  0  0
  4 15  1  0  0  0  0
  6 13  1  6  0  0  0
  6  8  1  0  0  0  0
  7  3  1  0  0  0  0
  8  1  1  1  0  0  0
  9 13  1  0  0  0  0
  9  7  1  0  0  0  0
 11 14  1  0  0  0  0
 12  5  1  0  0  0  0
 14  2  1  0  0  0  0
 14 18  1  1  0  0  0
 15 12  1  0  0  0  0
 15  5  1  1  0  0  0
 15 10  1  0  0  0  0
 16 24  1  6  0  0  0
 16 19  1  0  0  0  0
 16 23  1  0  0  0  0
 18 20  2  0  0  0  0
 19 22  1  0  0  0  0
 20 19  1  0  0  0  0
 21 18  1  0  0  0  0
 21 24  2  0  0  0  0
 22 17  1  0  0  0  0
 23 17  1  0  0  0  0
 25 26  1  0  0  0  0
 25 24  1  0  0  0  0
 28 27  1  0  0  0  0
 29 28  1  0  0  0  0
 30 31  1  0  0  0  0
 32 35  1  0  0  0  0
 33 32  1  1  0  0  0
 33 38  1  0  0  0  0
 33 36  1  0  0  0  0
 34 29  1  1  0  0  0
 35 30  1  0  0  0  0
 36 37  1  6  0  0  0
 36 34  1  0  0  0  0
 37 34  1  0  0  0  0
 38 39  1  6  0  0  0
 38 36  1  0  0  0  0
 38 31  1  0  0  0  0
 39 41  1  0  0  0  0
 40 39  2  0  0  0  0
M  END
>  <MODEL>
9

>  <REMARK>
 VINA RESULT:      -4.4      4.694     10.449
  Name = 
  7 active torsions:
  status: ('A' for Active; 'I' for Inactive)
    1  A    between atoms: C_7  and  C_30
    2  A    between atoms: C_8  and  C_32
    3  A    between atoms: C_12  and  C_17
    4  A    between atoms: C_12  and  C_32
    5  A    between atoms: N_15  and  C_41
    6  A    between atoms: C_17  and  C_25
    7  A    between atoms: C_24  and  C_35
                            x       y       z     vdW  Elec       q    Type
                         _______ _______ _______ _____ _____    ______ ____

>  <TORSDO>
F 7

$$$$
