=
 OpenBabel11042420163D

 25 28  0  0  1  0  0  0  0  0999 V2000
  161.3710  202.8370  150.4830 C   0  0  1  0  0  3  0  0  0  0  0  0
  160.9200  204.6360  148.7010 N   0  0  0  0  0  0  0  0  0  0  0  0
  161.0720  204.2590  150.0770 C   0  0  0  0  0  0  0  0  0  0  0  0
  162.7780  204.1050  147.1950 C   0  0  0  0  0  1  0  0  0  0  0  0
  160.8810  201.7410  146.4810 O   0  0  0  0  0  1  0  0  0  0  0  0
  161.3180  203.8500  147.5280 C   0  0  1  0  0  3  0  0  0  0  0  0
  161.2710  206.9310  147.9290 C   0  0  0  0  0  2  0  0  0  0  0  0
  160.6770  206.5050  150.1070 N   0  0  0  0  0  0  0  0  0  0  0  0
  161.4940  208.1240  148.7470 C   0  0  0  0  0  0  0  0  0  0  0  0
  161.9010  209.2260  148.2990 O   0  0  0  0  0  0  0  0  0  0  0  0
  159.9210  202.0380  148.6490 C   0  0  0  0  0  2  0  0  0  0  0  0
  160.9680  205.3350  150.8730 C   0  0  0  0  0  0  0  0  0  0  0  0
  160.7680  206.0470  148.7780 C   0  0  2  0  0  3  0  0  0  0  0  0
  161.5810  202.7140  151.8570 O   0  0  0  0  0  1  0  0  0  0  0  0
  161.1010  202.3410  147.7210 C   0  0  1  0  0  3  0  0  0  0  0  0
  161.2460  207.8360  150.1920 C   0  0  0  0  0  2  0  0  0  0  0  0
  160.3150  201.9060  150.0630 N   0  0  0  0  0  2  0  0  0  0  0  0
  161.1190  205.3180  152.2600 O   0  0  0  0  0  0  0  0  0  0  0  0
  162.0290  206.1790  152.9260 C   0  0  0  0  0  2  0  0  0  0  0  0
  161.2100  208.4290  153.6430 C   0  0  0  0  0  3  0  0  0  0  0  0
  159.8760  208.6880  155.5600 N   0  0  0  0  0  0  0  0  0  0  0  0
  160.6240  206.5100  154.9670 C   0  0  0  0  0  3  0  0  0  0  0  0
  160.5040  209.2100  154.5030 N   0  0  0  0  0  0  0  0  0  0  0  0
  159.9140  207.3540  155.8190 C   0  0  0  0  0  3  0  0  0  0  0  0
  161.2870  207.0560  153.8700 C   0  0  0  0  0  0  0  0  0  0  0  0
  1 14  1  1  0  0  0
  2 13  1  0  0  0  0
  2  3  1  0  0  0  0
  3  1  1  0  0  0  0
  3 12  2  0  0  0  0
  6  4  1  1  0  0  0
  6 15  1  0  0  0  0
  6  2  1  0  0  0  0
  7  9  1  0  0  0  0
  8 16  1  0  0  0  0
  8 12  1  0  0  0  0
  9 16  1  0  0  0  0
 10  9  2  0  0  0  0
 11 17  1  0  0  0  0
 12 18  1  0  0  0  0
 13  7  1  1  0  0  0
 13  8  1  0  0  0  0
 15  5  1  6  0  0  0
 15 11  1  0  0  0  0
 17  1  1  0  0  0  0
 18 19  1  0  0  0  0
 19 25  1  0  0  0  0
 20 25  2  0  0  0  0
 20 23  1  0  0  0  0
 21 24  1  0  0  0  0
 22 24  2  0  0  0  0
 23 21  2  0  0  0  0
 25 22  1  0  0  0  0
M  END
>  <MODEL>
1

>  <REMARK>
 VINA RESULT:      -7.8      0.000      0.000
  Name = 
  3 active torsions:
  status: ('A' for Active; 'I' for Inactive)
    1  A    between atoms: O_6  and  C_17
    2  A    between atoms: O_6  and  C_19
    3  A    between atoms: C_19  and  C_24
                            x       y       z     vdW  Elec       q    Type
                         _______ _______ _______ _____ _____    ______ ____

>  <TORSDO>
F 3

$$$$
=
 OpenBabel11042420163D

 25 28  0  0  1  0  0  0  0  0999 V2000
  160.6910  206.1380  150.9200 C   0  0  1  0  0  3  0  0  0  0  0  0
  161.7340  208.4490  151.3520 N   0  0  0  0  0  0  0  0  0  0  0  0
  161.3390  207.4130  150.4410 C   0  0  0  0  0  0  0  0  0  0  0  0
  159.9990  209.3410  152.8350 C   0  0  0  0  0  1  0  0  0  0  0  0
  161.4050  207.4120  154.8340 O   0  0  0  0  0  1  0  0  0  0  0  0
  161.3170  208.5900  152.7520 C   0  0  1  0  0  3  0  0  0  0  0  0
  161.9880  210.7800  150.6510 C   0  0  0  0  0  2  0  0  0  0  0  0
  162.2090  209.0680  149.1340 N   0  0  0  0  0  0  0  0  0  0  0  0
  161.9350  211.3120  149.2890 C   0  0  0  0  0  0  0  0  0  0  0  0
  161.8350  212.5350  149.0080 O   0  0  0  0  0  0  0  0  0  0  0  0
  162.1400  206.1850  152.9200 C   0  0  0  0  0  2  0  0  0  0  0  0
  161.5800  207.7870  149.1740 C   0  0  0  0  0  0  0  0  0  0  0  0
  162.1800  209.4800  150.4800 C   0  0  2  0  0  3  0  0  0  0  0  0
  160.2950  205.3180  149.8620 O   0  0  0  0  0  1  0  0  0  0  0  0
  161.1740  207.2390  153.4700 C   0  0  1  0  0  3  0  0  0  0  0  0
  161.9380  210.2100  148.2820 C   0  0  0  0  0  2  0  0  0  0  0  0
  161.5600  205.3810  151.8300 N   0  0  0  0  0  2  0  0  0  0  0  0
  161.2630  207.0280  148.0460 O   0  0  0  0  0  0  0  0  0  0  0  0
  162.2650  206.4710  147.2110 C   0  0  0  0  0  2  0  0  0  0  0  0
  161.0820  205.5490  145.2110 C   0  0  0  0  0  3  0  0  0  0  0  0
  160.6980  203.2420  144.9770 N   0  0  0  0  0  0  0  0  0  0  0  0
  161.8150  204.0290  146.9240 C   0  0  0  0  0  3  0  0  0  0  0  0
  160.5950  204.4900  144.5120 N   0  0  0  0  0  0  0  0  0  0  0  0
  161.2980  202.9780  146.1680 C   0  0  0  0  0  3  0  0  0  0  0  0
  161.6980  205.3310  146.4420 C   0  0  0  0  0  0  0  0  0  0  0  0
  1 14  1  6  0  0  0
  1 17  1  0  0  0  0
  2  6  1  0  0  0  0
  3  1  1  0  0  0  0
  3  2  1  0  0  0  0
  6  4  1  6  0  0  0
  6 15  1  0  0  0  0
  8 12  1  0  0  0  0
  8 13  1  0  0  0  0
  9  7  1  0  0  0  0
 10  9  2  0  0  0  0
 11 15  1  0  0  0  0
 12  3  2  0  0  0  0
 13  7  1  6  0  0  0
 13  2  1  0  0  0  0
 15  5  1  1  0  0  0
 16  8  1  0  0  0  0
 16  9  1  0  0  0  0
 17 11  1  0  0  0  0
 18 12  1  0  0  0  0
 19 18  1  0  0  0  0
 20 25  1  0  0  0  0
 21 24  2  0  0  0  0
 23 21  1  0  0  0  0
 23 20  2  0  0  0  0
 24 22  1  0  0  0  0
 25 22  2  0  0  0  0
 25 19  1  0  0  0  0
M  END
>  <MODEL>
2

>  <REMARK>
 VINA RESULT:      -7.8      2.545      6.699
  Name = 
  3 active torsions:
  status: ('A' for Active; 'I' for Inactive)
    1  A    between atoms: O_6  and  C_17
    2  A    between atoms: O_6  and  C_19
    3  A    between atoms: C_19  and  C_24
                            x       y       z     vdW  Elec       q    Type
                         _______ _______ _______ _____ _____    ______ ____

>  <TORSDO>
F 3

$$$$
=
 OpenBabel11042420163D

 25 28  0  0  1  0  0  0  0  0999 V2000
  160.4630  207.9860  154.8370 C   0  0  1  0  0  3  0  0  0  0  0  0
  161.6320  209.6370  153.2500 N   0  0  0  0  0  0  0  0  0  0  0  0
  161.1800  208.3090  153.5500 C   0  0  0  0  0  0  0  0  0  0  0  0
  159.9510  211.4180  153.3030 C   0  0  0  0  0  1  0  0  0  0  0  0
  161.2500  211.8920  156.0920 O   0  0  0  0  0  1  0  0  0  0  0  0
  161.2250  210.8750  153.9250 C   0  0  1  0  0  3  0  0  0  0  0  0
  162.0140  210.4000  150.9570 C   0  0  0  0  0  2  0  0  0  0  0  0
  162.1380  208.1670  151.4850 N   0  0  0  0  0  0  0  0  0  0  0  0
  161.9880  209.5970  149.7330 C   0  0  0  0  0  0  0  0  0  0  0  0
  161.9560  210.0770  148.5700 O   0  0  0  0  0  0  0  0  0  0  0  0
  161.9140  209.5980  156.0190 C   0  0  0  0  0  2  0  0  0  0  0  0
  161.4400  207.4820  152.5250 C   0  0  0  0  0  0  0  0  0  0  0  0
  162.1330  209.5050  151.9260 C   0  0  2  0  0  3  0  0  0  0  0  0
  160.0220  206.6620  154.8770 O   0  0  0  0  0  1  0  0  0  0  0  0
  161.0090  210.6860  155.4350 C   0  0  1  0  0  3  0  0  0  0  0  0
  161.9300  208.1390  150.0500 C   0  0  0  0  0  2  0  0  0  0  0  0
  161.2900  208.2630  156.0190 N   0  0  0  0  0  2  0  0  0  0  0  0
  161.0800  206.1340  152.4770 O   0  0  0  0  0  0  0  0  0  0  0  0
  162.0320  205.1120  152.2270 C   0  0  0  0  0  2  0  0  0  0  0  0
  161.2530  204.6120  149.9050 C   0  0  0  0  0  3  0  0  0  0  0  0
  160.5730  202.4490  149.2860 N   0  0  0  0  0  0  0  0  0  0  0  0
  161.2800  202.8340  151.5240 C   0  0  0  0  0  3  0  0  0  0  0  0
  160.7920  203.7300  148.9790 N   0  0  0  0  0  0  0  0  0  0  0  0
  160.8060  201.9720  150.5370 C   0  0  0  0  0  3  0  0  0  0  0  0
  161.4980  204.1730  151.2050 C   0  0  0  0  0  0  0  0  0  0  0  0
  1 14  1  6  0  0  0
  1 17  1  0  0  0  0
  2  3  1  0  0  0  0
  2  6  1  0  0  0  0
  3  1  1  0  0  0  0
  6  4  1  6  0  0  0
  6 15  1  0  0  0  0
  8 13  1  0  0  0  0
  8 12  1  0  0  0  0
  9 16  1  0  0  0  0
  9  7  1  0  0  0  0
 10  9  2  0  0  0  0
 12  3  2  0  0  0  0
 13  7  1  6  0  0  0
 13  2  1  0  0  0  0
 15 11  1  0  0  0  0
 15  5  1  1  0  0  0
 16  8  1  0  0  0  0
 17 11  1  0  0  0  0
 18 12  1  0  0  0  0
 19 18  1  0  0  0  0
 20 25  1  0  0  0  0
 21 24  2  0  0  0  0
 23 21  1  0  0  0  0
 23 20  2  0  0  0  0
 24 22  1  0  0  0  0
 25 22  2  0  0  0  0
 25 19  1  0  0  0  0
M  END
>  <MODEL>
3

>  <REMARK>
 VINA RESULT:      -7.8      2.381      6.893
  Name = 
  3 active torsions:
  status: ('A' for Active; 'I' for Inactive)
    1  A    between atoms: O_6  and  C_17
    2  A    between atoms: O_6  and  C_19
    3  A    between atoms: C_19  and  C_24
                            x       y       z     vdW  Elec       q    Type
                         _______ _______ _______ _____ _____    ______ ____

>  <TORSDO>
F 3

$$$$
=
 OpenBabel11042420163D

 25 28  0  0  1  0  0  0  0  0999 V2000
  161.8800  208.8200  150.9470 C   0  0  1  0  0  3  0  0  0  0  0  0
  160.8390  206.6230  151.7860 N   0  0  0  0  0  0  0  0  0  0  0  0
  161.2740  207.4590  150.7050 C   0  0  0  0  0  0  0  0  0  0  0  0
  162.4960  206.0910  153.5110 C   0  0  0  0  0  1  0  0  0  0  0  0
  160.9560  208.3540  154.9950 O   0  0  0  0  0  1  0  0  0  0  0  0
  161.1770  206.7780  153.2060 C   0  0  1  0  0  3  0  0  0  0  0  0
  160.6510  204.1930  151.5630 C   0  0  0  0  0  2  0  0  0  0  0  0
  160.4990  205.5550  149.7190 N   0  0  0  0  0  0  0  0  0  0  0  0
  160.7890  203.3950  150.3440 C   0  0  0  0  0  0  0  0  0  0  0  0
  160.9180  202.1440  150.3250 O   0  0  0  0  0  0  0  0  0  0  0  0
  160.3190  209.1480  152.8340 C   0  0  0  0  0  2  0  0  0  0  0  0
  161.1110  206.8310  149.5300 C   0  0  0  0  0  0  0  0  0  0  0  0
  160.4560  205.4260  151.1200 C   0  0  2  0  0  3  0  0  0  0  0  0
  162.3270  209.4160  149.7670 O   0  0  0  0  0  1  0  0  0  0  0  0
  161.2630  208.2500  153.6380 C   0  0  1  0  0  3  0  0  0  0  0  0
  160.8310  204.2690  149.1340 C   0  0  0  0  0  2  0  0  0  0  0  0
  160.9520  209.7270  151.6350 N   0  0  0  0  0  2  0  0  0  0  0  0
  161.4840  207.3510  148.2900 O   0  0  0  0  0  0  0  0  0  0  0  0
  162.5160  206.7680  147.5110 C   0  0  0  0  0  2  0  0  0  0  0  0
  160.7010  206.2180  145.8830 C   0  0  0  0  0  3  0  0  0  0  0  0
  160.8310  204.3150  144.5100 N   0  0  0  0  0  0  0  0  0  0  0  0
  162.5980  204.7470  146.0430 C   0  0  0  0  0  3  0  0  0  0  0  0
  160.1890  205.4130  144.9140 N   0  0  0  0  0  0  0  0  0  0  0  0
  162.0270  203.9560  145.0470 C   0  0  0  0  0  3  0  0  0  0  0  0
  161.9210  205.8870  146.4710 C   0  0  0  0  0  0  0  0  0  0  0  0
  1 14  1  6  0  0  0
  1 17  1  0  0  0  0
  2  6  1  0  0  0  0
  3  1  1  0  0  0  0
  3  2  1  0  0  0  0
  6  4  1  6  0  0  0
  6 15  1  0  0  0  0
  8 13  1  0  0  0  0
  9  7  1  0  0  0  0
 10  9  2  0  0  0  0
 11 15  1  0  0  0  0
 12  8  1  0  0  0  0
 12  3  2  0  0  0  0
 13  7  1  1  0  0  0
 13  2  1  0  0  0  0
 15  5  1  1  0  0  0
 16  8  1  0  0  0  0
 16  9  1  0  0  0  0
 17 11  1  0  0  0  0
 18 12  1  0  0  0  0
 19 18  1  0  0  0  0
 20 25  1  0  0  0  0
 21 23  1  0  0  0  0
 21 24  2  0  0  0  0
 22 25  2  0  0  0  0
 23 20  2  0  0  0  0
 24 22  1  0  0  0  0
 25 19  1  0  0  0  0
M  END
>  <MODEL>
4

>  <REMARK>
 VINA RESULT:      -7.6      2.126      7.154
  Name = 
  3 active torsions:
  status: ('A' for Active; 'I' for Inactive)
    1  A    between atoms: O_6  and  C_17
    2  A    between atoms: O_6  and  C_19
    3  A    between atoms: C_19  and  C_24
                            x       y       z     vdW  Elec       q    Type
                         _______ _______ _______ _____ _____    ______ ____

>  <TORSDO>
F 3

$$$$
=
 OpenBabel11042420163D

 25 28  0  0  1  0  0  0  0  0999 V2000
  160.6420  207.4910  153.9620 C   0  0  1  0  0  3  0  0  0  0  0  0
  161.5140  209.5810  152.7430 N   0  0  0  0  0  0  0  0  0  0  0  0
  161.3160  208.1610  152.7910 C   0  0  0  0  0  0  0  0  0  0  0  0
  159.5230  210.9860  152.9970 C   0  0  0  0  0  1  0  0  0  0  0  0
  160.6390  211.1940  155.8960 O   0  0  0  0  0  1  0  0  0  0  0  0
  160.8610  210.5850  153.5910 C   0  0  1  0  0  3  0  0  0  0  0  0
  161.8000  210.7910  150.6360 C   0  0  0  0  0  2  0  0  0  0  0  0
  162.3350  208.5610  150.7900 N   0  0  0  0  0  0  0  0  0  0  0  0
  161.9580  210.2240  149.2960 C   0  0  0  0  0  0  0  0  0  0  0  0
  161.8640  210.8850  148.2300 O   0  0  0  0  0  0  0  0  0  0  0  0
  161.7300  209.1100  155.4780 C   0  0  0  0  0  2  0  0  0  0  0  0
  161.7540  207.5880  151.6580 C   0  0  0  0  0  0  0  0  0  0  0  0
  162.0640  209.7770  151.4470 C   0  0  2  0  0  3  0  0  0  0  0  0
  160.4610  206.1230  153.7540 O   0  0  0  0  0  1  0  0  0  0  0  0
  160.6480  210.0990  155.0330 C   0  0  1  0  0  3  0  0  0  0  0  0
  162.1710  208.7470  149.3600 C   0  0  0  0  0  2  0  0  0  0  0  0
  161.3720  207.7050  155.2190 N   0  0  0  0  0  2  0  0  0  0  0  0
  161.6600  206.2270  151.3660 O   0  0  0  0  0  0  0  0  0  0  0  0
  160.8900  205.7450  150.2760 C   0  0  0  0  0  2  0  0  0  0  0  0
  161.1470  203.5240  151.3940 C   0  0  0  0  0  3  0  0  0  0  0  0
  161.0660  201.5230  150.1640 N   0  0  0  0  0  0  0  0  0  0  0  0
  160.8310  203.5900  149.0110 C   0  0  0  0  0  3  0  0  0  0  0  0
  161.1920  202.1670  151.3270 N   0  0  0  0  0  0  0  0  0  0  0  0
  160.8850  202.1970  148.9970 C   0  0  0  0  0  3  0  0  0  0  0  0
  160.9720  204.2610  150.2230 C   0  0  0  0  0  0  0  0  0  0  0  0
  1 14  1  6  0  0  0
  1 17  1  0  0  0  0
  2  3  1  0  0  0  0
  2  6  1  0  0  0  0
  3  1  1  0  0  0  0
  6  4  1  6  0  0  0
  6 15  1  0  0  0  0
  8 13  1  0  0  0  0
  8 12  1  0  0  0  0
  9 16  1  0  0  0  0
  9  7  1  0  0  0  0
 10  9  2  0  0  0  0
 12  3  2  0  0  0  0
 13  7  1  6  0  0  0
 13  2  1  0  0  0  0
 15 11  1  0  0  0  0
 15  5  1  1  0  0  0
 16  8  1  0  0  0  0
 17 11  1  0  0  0  0
 18 12  1  0  0  0  0
 19 18  1  0  0  0  0
 21 23  2  0  0  0  0
 22 25  1  0  0  0  0
 23 20  1  0  0  0  0
 24 22  2  0  0  0  0
 24 21  1  0  0  0  0
 25 19  1  0  0  0  0
 25 20  2  0  0  0  0
M  END
>  <MODEL>
5

>  <REMARK>
 VINA RESULT:      -7.6      2.261      6.728
  Name = 
  3 active torsions:
  status: ('A' for Active; 'I' for Inactive)
    1  A    between atoms: O_6  and  C_17
    2  A    between atoms: O_6  and  C_19
    3  A    between atoms: C_19  and  C_24
                            x       y       z     vdW  Elec       q    Type
                         _______ _______ _______ _____ _____    ______ ____

>  <TORSDO>
F 3

$$$$
=
 OpenBabel11042420163D

 25 28  0  0  1  0  0  0  0  0999 V2000
  160.6540  207.3050  153.2880 C   0  0  1  0  0  3  0  0  0  0  0  0
  161.4770  209.5710  152.3930 N   0  0  0  0  0  0  0  0  0  0  0  0
  161.3230  208.1540  152.2360 C   0  0  0  0  0  0  0  0  0  0  0  0
  159.4380  210.8670  152.8060 C   0  0  0  0  0  1  0  0  0  0  0  0
  160.5050  210.6950  155.7250 O   0  0  0  0  0  1  0  0  0  0  0  0
  160.7800  210.4260  153.3630 C   0  0  1  0  0  3  0  0  0  0  0  0
  161.7540  211.0760  150.4840 C   0  0  0  0  0  2  0  0  0  0  0  0
  162.3570  208.8640  150.3310 N   0  0  0  0  0  0  0  0  0  0  0  0
  161.9490  210.7100  149.0800 C   0  0  0  0  0  0  0  0  0  0  0  0
  161.8490  211.5130  148.1170 O   0  0  0  0  0  0  0  0  0  0  0  0
  161.6680  208.7240  155.0380 C   0  0  0  0  0  2  0  0  0  0  0  0
  161.7960  207.7610  151.0420 C   0  0  0  0  0  0  0  0  0  0  0  0
  162.0380  209.9660  151.1480 C   0  0  2  0  0  3  0  0  0  0  0  0
  160.5200  205.9750  152.8860 O   0  0  0  0  0  1  0  0  0  0  0  0
  160.5620  209.7330  154.7170 C   0  0  1  0  0  3  0  0  0  0  0  0
  162.2090  209.2460  148.9400 C   0  0  0  0  0  2  0  0  0  0  0  0
  161.3580  207.3590  154.5760 N   0  0  0  0  0  2  0  0  0  0  0  0
  161.7490  206.4520  150.5580 O   0  0  0  0  0  0  0  0  0  0  0  0
  160.6600  205.9770  149.7830 C   0  0  0  0  0  2  0  0  0  0  0  0
  161.6650  206.1870  147.5040 C   0  0  0  0  0  3  0  0  0  0  0  0
  162.1700  204.2880  146.2150 N   0  0  0  0  0  0  0  0  0  0  0  0
  161.1980  203.9910  148.3650 C   0  0  0  0  0  3  0  0  0  0  0  0
  162.1520  205.6140  146.3710 N   0  0  0  0  0  0  0  0  0  0  0  0
  161.7070  203.4540  147.1830 C   0  0  0  0  0  3  0  0  0  0  0  0
  161.1700  205.3740  148.5230 C   0  0  0  0  0  0  0  0  0  0  0  0
  1 14  1  6  0  0  0
  1 17  1  0  0  0  0
  2  6  1  0  0  0  0
  3  2  1  0  0  0  0
  3  1  1  0  0  0  0
  6  4  1  6  0  0  0
  6 15  1  0  0  0  0
  8 12  1  0  0  0  0
  8 13  1  0  0  0  0
  9  7  1  0  0  0  0
 10  9  2  0  0  0  0
 12  3  2  0  0  0  0
 13  7  1  6  0  0  0
 13  2  1  0  0  0  0
 15 11  1  0  0  0  0
 15  5  1  1  0  0  0
 16  9  1  0  0  0  0
 16  8  1  0  0  0  0
 17 11  1  0  0  0  0
 18 12  1  0  0  0  0
 19 18  1  0  0  0  0
 20 25  1  0  0  0  0
 21 23  1  0  0  0  0
 21 24  2  0  0  0  0
 22 25  2  0  0  0  0
 23 20  2  0  0  0  0
 24 22  1  0  0  0  0
 25 19  1  0  0  0  0
M  END
>  <MODEL>
6

>  <REMARK>
 VINA RESULT:      -7.1      2.428      6.872
  Name = 
  3 active torsions:
  status: ('A' for Active; 'I' for Inactive)
    1  A    between atoms: O_6  and  C_17
    2  A    between atoms: O_6  and  C_19
    3  A    between atoms: C_19  and  C_24
                            x       y       z     vdW  Elec       q    Type
                         _______ _______ _______ _____ _____    ______ ____

>  <TORSDO>
F 3

$$$$
=
 OpenBabel11042420163D

 25 28  0  0  1  0  0  0  0  0999 V2000
  162.1900  209.2650  151.6910 C   0  0  1  0  0  3  0  0  0  0  0  0
  161.1510  207.0160  151.0000 N   0  0  0  0  0  0  0  0  0  0  0  0
  161.6760  208.3030  150.6480 C   0  0  0  0  0  0  0  0  0  0  0  0
  162.6120  205.5440  152.3070 C   0  0  0  0  0  1  0  0  0  0  0  0
  160.8110  206.6140  154.6100 O   0  0  0  0  0  1  0  0  0  0  0  0
  161.3100  206.3270  152.2860 C   0  0  1  0  0  3  0  0  0  0  0  0
  161.0960  205.1500  149.4180 C   0  0  0  0  0  2  0  0  0  0  0  0
  161.1070  207.3220  148.6690 N   0  0  0  0  0  0  0  0  0  0  0  0
  161.4120  205.1820  147.9890 C   0  0  0  0  0  0  0  0  0  0  0  0
  161.5960  204.1590  147.2800 O   0  0  0  0  0  0  0  0  0  0  0  0
  160.4030  208.5150  153.2220 C   0  0  0  0  0  2  0  0  0  0  0  0
  161.6810  208.4590  149.3140 C   0  0  0  0  0  0  0  0  0  0  0  0
  160.9020  206.4220  149.7330 C   0  0  2  0  0  3  0  0  0  0  0  0
  162.7480  210.4110  151.1220 O   0  0  0  0  0  1  0  0  0  0  0  0
  161.2810  207.2890  153.4840 C   0  0  1  0  0  3  0  0  0  0  0  0
  161.5610  206.5860  147.5040 C   0  0  0  0  0  2  0  0  0  0  0  0
  161.1480  209.6510  152.6510 N   0  0  0  0  0  2  0  0  0  0  0  0
  162.1770  209.5790  148.6450 O   0  0  0  0  0  0  0  0  0  0  0  0
  161.3380  210.4260  147.8760 C   0  0  0  0  0  2  0  0  0  0  0  0
  163.0600  212.2320  147.7440 C   0  0  0  0  0  3  0  0  0  0  0  0
  162.5450  214.4530  148.3140 N   0  0  0  0  0  0  0  0  0  0  0  0
  160.8450  212.7980  148.4890 C   0  0  0  0  0  3  0  0  0  0  0  0
  163.4170  213.5360  147.8870 N   0  0  0  0  0  0  0  0  0  0  0  0
  161.2620  214.1220  148.6200 C   0  0  0  0  0  3  0  0  0  0  0  0
  161.7590  211.8410  148.0540 C   0  0  0  0  0  0  0  0  0  0  0  0
  1 14  1  6  0  0  0
  1 17  1  0  0  0  0
  2  6  1  0  0  0  0
  3  2  1  0  0  0  0
  3  1  1  0  0  0  0
  6  4  1  6  0  0  0
  6 15  1  0  0  0  0
  8 12  1  0  0  0  0
  8 13  1  0  0  0  0
  9  7  1  0  0  0  0
 10  9  2  0  0  0  0
 11 15  1  0  0  0  0
 12  3  2  0  0  0  0
 13  7  1  6  0  0  0
 13  2  1  0  0  0  0
 15  5  1  1  0  0  0
 16  9  1  0  0  0  0
 16  8  1  0  0  0  0
 17 11  1  0  0  0  0
 18 12  1  0  0  0  0
 19 25  1  0  0  0  0
 19 18  1  0  0  0  0
 20 23  2  0  0  0  0
 20 25  1  0  0  0  0
 21 24  2  0  0  0  0
 22 24  1  0  0  0  0
 23 21  1  0  0  0  0
 25 22  2  0  0  0  0
M  END
>  <MODEL>
7

>  <REMARK>
 VINA RESULT:      -6.7      3.333      6.528
  Name = 
  3 active torsions:
  status: ('A' for Active; 'I' for Inactive)
    1  A    between atoms: O_6  and  C_17
    2  A    between atoms: O_6  and  C_19
    3  A    between atoms: C_19  and  C_24
                            x       y       z     vdW  Elec       q    Type
                         _______ _______ _______ _____ _____    ______ ____

>  <TORSDO>
F 3

$$$$
=
 OpenBabel11042420163D

 25 28  0  0  1  0  0  0  0  0999 V2000
  161.0330  206.4050  147.4870 C   0  0  1  0  0  3  0  0  0  0  0  0
  161.6660  205.6440  149.8600 N   0  0  0  0  0  0  0  0  0  0  0  0
  161.4900  206.6910  148.8960 C   0  0  0  0  0  0  0  0  0  0  0  0
  159.7380  204.1910  150.2830 C   0  0  0  0  0  1  0  0  0  0  0  0
  161.3380  202.3320  148.3650 O   0  0  0  0  0  1  0  0  0  0  0  0
  161.1630  204.2680  149.7620 C   0  0  1  0  0  3  0  0  0  0  0  0
  161.5730  206.0570  152.2700 C   0  0  0  0  0  2  0  0  0  0  0  0
  162.1430  207.7400  150.8130 N   0  0  0  0  0  0  0  0  0  0  0  0
  161.5010  207.3500  152.9520 C   0  0  0  0  0  0  0  0  0  0  0  0
  161.2180  207.4970  154.1690 O   0  0  0  0  0  0  0  0  0  0  0  0
  162.3550  204.3180  147.5120 C   0  0  0  0  0  2  0  0  0  0  0  0
  161.7290  207.8880  149.4550 C   0  0  0  0  0  0  0  0  0  0  0  0
  161.9810  206.3600  151.0470 C   0  0  2  0  0  3  0  0  0  0  0  0
  160.8290  207.5740  146.7520 O   0  0  0  0  0  1  0  0  0  0  0  0
  161.2060  203.7200  148.3270 C   0  0  1  0  0  3  0  0  0  0  0  0
  161.7330  208.4740  151.9950 C   0  0  0  0  0  2  0  0  0  0  0  0
  161.9680  205.5290  146.7680 N   0  0  0  0  0  2  0  0  0  0  0  0
  161.5950  209.1140  148.8000 O   0  0  0  0  0  0  0  0  0  0  0  0
  162.3230  210.2630  149.2030 C   0  0  0  0  0  2  0  0  0  0  0  0
  160.8310  211.4600  147.5940 C   0  0  0  0  0  3  0  0  0  0  0  0
  161.5050  213.4630  146.5660 N   0  0  0  0  0  0  0  0  0  0  0  0
  162.9990  212.3850  148.0690 C   0  0  0  0  0  3  0  0  0  0  0  0
  160.5940  212.5050  146.7580 N   0  0  0  0  0  0  0  0  0  0  0  0
  162.7060  213.4350  147.2010 C   0  0  0  0  0  3  0  0  0  0  0  0
  162.0530  211.3810  148.2610 C   0  0  0  0  0  0  0  0  0  0  0  0
  1 14  1  6  0  0  0
  1  3  1  0  0  0  0
  2 13  1  0  0  0  0
  3 12  2  0  0  0  0
  3  2  1  0  0  0  0
  6  2  1  0  0  0  0
  6  4  1  6  0  0  0
  7  9  1  0  0  0  0
  8 13  1  0  0  0  0
  8 16  1  0  0  0  0
  9 10  2  0  0  0  0
 11 15  1  0  0  0  0
 12  8  1  0  0  0  0
 13  7  1  1  0  0  0
 15  5  1  1  0  0  0
 15  6  1  0  0  0  0
 16  9  1  0  0  0  0
 17  1  1  0  0  0  0
 17 11  1  0  0  0  0
 18 19  1  0  0  0  0
 18 12  1  0  0  0  0
 20 25  1  0  0  0  0
 21 23  1  0  0  0  0
 21 24  2  0  0  0  0
 22 25  2  0  0  0  0
 23 20  2  0  0  0  0
 24 22  1  0  0  0  0
 25 19  1  0  0  0  0
M  END
>  <MODEL>
8

>  <REMARK>
 VINA RESULT:      -6.0      3.058      5.620
  Name = 
  3 active torsions:
  status: ('A' for Active; 'I' for Inactive)
    1  A    between atoms: O_6  and  C_17
    2  A    between atoms: O_6  and  C_19
    3  A    between atoms: C_19  and  C_24
                            x       y       z     vdW  Elec       q    Type
                         _______ _______ _______ _____ _____    ______ ____

>  <TORSDO>
F 3

$$$$
=
 OpenBabel11042420163D

 25 28  0  0  1  0  0  0  0  0999 V2000
  162.5930  207.6530  149.2920 C   0  0  1  0  0  3  0  0  0  0  0  0
  161.4310  208.7980  151.2800 N   0  0  0  0  0  0  0  0  0  0  0  0
  161.8250  207.6040  150.5900 C   0  0  0  0  0  0  0  0  0  0  0  0
  163.2080  210.3850  151.8520 C   0  0  0  0  0  1  0  0  0  0  0  0
  162.0900  211.8000  149.3140 O   0  0  0  0  0  1  0  0  0  0  0  0
  161.9410  210.1540  151.0470 C   0  0  1  0  0  3  0  0  0  0  0  0
  160.9670  208.8270  153.6820 C   0  0  0  0  0  2  0  0  0  0  0  0
  160.7500  206.8870  152.4690 N   0  0  0  0  0  0  0  0  0  0  0  0
  160.8830  207.6800  154.5880 C   0  0  0  0  0  0  0  0  0  0  0  0
  160.8780  207.7660  155.8430 O   0  0  0  0  0  0  0  0  0  0  0  0
  161.2980  209.6510  148.6330 C   0  0  0  0  0  2  0  0  0  0  0  0
  161.4660  206.5170  151.2900 C   0  0  0  0  0  0  0  0  0  0  0  0
  160.8520  208.2920  152.4760 C   0  0  2  0  0  3  0  0  0  0  0  0
  162.9630  206.3820  148.8500 O   0  0  0  0  0  1  0  0  0  0  0  0
  162.2290  210.4350  149.5630 C   0  0  1  0  0  3  0  0  0  0  0  0
  160.8780  206.3950  153.8280 C   0  0  0  0  0  2  0  0  0  0  0  0
  161.8480  208.3440  148.2320 N   0  0  0  0  0  2  0  0  0  0  0  0
  161.7480  205.2010  150.9200 O   0  0  0  0  0  0  0  0  0  0  0  0
  160.7960  204.1590  151.0680 C   0  0  0  0  0  2  0  0  0  0  0  0
  161.1260  203.7340  148.6270 C   0  0  0  0  0  3  0  0  0  0  0  0
  161.1040  201.5510  147.7560 N   0  0  0  0  0  0  0  0  0  0  0  0
  160.7620  201.8600  150.0890 C   0  0  0  0  0  3  0  0  0  0  0  0
  161.2280  202.8690  147.5830 N   0  0  0  0  0  0  0  0  0  0  0  0
  160.8740  201.0170  148.9850 C   0  0  0  0  0  3  0  0  0  0  0  0
  160.8820  203.2350  149.9060 C   0  0  0  0  0  0  0  0  0  0  0  0
  1 14  1  6  0  0  0
  1  3  1  0  0  0  0
  2 13  1  0  0  0  0
  3  2  1  0  0  0  0
  3 12  2  0  0  0  0
  6  2  1  0  0  0  0
  6  4  1  1  0  0  0
  7  9  1  0  0  0  0
  8 13  1  0  0  0  0
  8 16  1  0  0  0  0
  9 10  2  0  0  0  0
 11 15  1  0  0  0  0
 12  8  1  0  0  0  0
 13  7  1  1  0  0  0
 15  5  1  1  0  0  0
 15  6  1  0  0  0  0
 16  9  1  0  0  0  0
 17 11  1  0  0  0  0
 17  1  1  0  0  0  0
 18 19  1  0  0  0  0
 18 12  1  0  0  0  0
 20 25  1  0  0  0  0
 21 24  2  0  0  0  0
 23 21  1  0  0  0  0
 23 20  2  0  0  0  0
 24 22  1  0  0  0  0
 25 22  2  0  0  0  0
 25 19  1  0  0  0  0
M  END
>  <MODEL>
9

>  <REMARK>
 VINA RESULT:      -6.0      2.200      6.590
  Name = 
  3 active torsions:
  status: ('A' for Active; 'I' for Inactive)
    1  A    between atoms: O_6  and  C_17
    2  A    between atoms: O_6  and  C_19
    3  A    between atoms: C_19  and  C_24
                            x       y       z     vdW  Elec       q    Type
                         _______ _______ _______ _____ _____    ______ ____

>  <TORSDO>
F 3

$$$$
