=
 OpenBabel11052412033D

 40 42  0  0  1  0  0  0  0  0999 V2000
  160.0370  211.0360  152.7640 C   0  0  0  0  0  3  0  0  0  0  0  0
  160.6740  211.2320  151.6100 C   0  0  0  0  0  3  0  0  0  0  0  0
  160.3980  209.9070  153.7080 C   0  0  1  0  0  3  0  0  0  0  0  0
  161.6830  210.2690  151.1590 C   0  0  0  0  0  0  0  0  0  0  0  0
  161.1400  208.7860  152.9990 C   0  0  0  0  0  3  0  0  0  0  0  0
  162.3860  210.5240  150.1450 O   0  0  0  0  0  0  0  0  0  0  0  0
  161.7980  208.9710  151.8450 C   0  0  0  0  0  0  0  0  0  0  0  0
  162.4390  207.8860  151.1580 N   0  0  0  0  0  2  0  0  0  0  0  0
  161.1480  204.4540  151.4490 C   0  0  0  0  0  0  0  0  0  0  0  0
  160.8740  203.2510  152.2810 C   0  0  0  0  0  1  0  0  0  0  0  0
  161.7930  205.6080  151.8660 C   0  0  0  0  0  0  0  0  0  0  0  0
  161.3030  206.2150  149.6630 C   0  0  0  0  0  0  0  0  0  0  0  0
  160.6570  204.6650  149.8600 S   0  0  0  0  0  0  0  0  0  0  0  0
  162.2870  205.7780  153.1540 O   0  0  0  0  0  1  0  0  0  0  0  0
  161.8930  206.5910  150.8730 C   0  0  0  0  0  0  0  0  0  0  0  0
  161.0350  207.1110  148.4960 C   0  0  0  0  0  2  0  0  0  0  0  0
  160.8260  206.3160  147.2160 C   0  0  0  0  0  2  0  0  0  0  0  0
  162.0260  205.7200  146.8220 O   0  0  0  0  0  0  0  0  0  0  0  0
  160.7100  206.0560  144.8570 C   0  0  0  0  0  1  0  0  0  0  0  0
  161.7730  205.2180  145.5430 C   0  0  2  0  0  3  0  0  0  0  0  0
  161.3340  203.7620  145.6270 C   0  0  0  0  0  2  0  0  0  0  0  0
  161.7220  203.1990  146.8440 O   0  0  0  0  0  0  0  0  0  0  0  0
  160.8470  202.1270  147.0320 C   0  0  0  0  0  2  0  0  0  0  0  0
  161.5700  199.9000  147.5260 O   0  0  0  0  0  1  0  0  0  0  0  0
  161.3900  201.1670  148.0810 C   0  0  2  0  0  3  0  0  0  0  0  0
  160.4540  201.0820  149.2700 C   0  0  0  0  0  1  0  0  0  0  0  0
  161.2060  210.4600  154.8980 C   0  0  2  0  0  3  0  0  0  0  0  0
  162.0500  209.4190  156.8930 O   0  0  0  0  0  0  0  0  0  0  0  0
  161.0650  209.6210  156.1340 C   0  0  0  0  0  0  0  0  0  0  0  0
  159.8240  208.9800  156.4050 N   0  0  0  0  0  1  0  0  0  0  0  0
  160.7910  211.8930  155.2210 C   0  0  0  0  0  2  0  0  0  0  0  0
  160.3930  212.0130  156.6800 C   0  0  0  0  0  2  0  0  0  0  0  0
  159.5330  213.1720  156.8540 N   0  0  0  0  0  2  0  0  0  0  0  0
  157.4210  214.1260  156.9710 O   0  0  0  0  0  0  0  0  0  0  0  0
  158.1080  213.0810  156.8110 C   0  0  0  0  0  0  0  0  0  0  0  0
  155.7880  211.0550  154.9280 C   0  0  0  0  0  2  0  0  0  0  0  0
  155.2280  210.8540  156.3200 C   0  0  0  0  0  2  0  0  0  0  0  0
  157.2310  211.4940  155.1010 C   0  0  0  0  0  2  0  0  0  0  0  0
  156.0580  211.7400  157.2180 C   0  0  0  0  0  2  0  0  0  0  0  0
  157.4300  211.7650  156.5830 C   0  0  0  0  0  3  0  0  0  0  0  0
  1  3  1  0  0  0  0
  2  1  2  0  0  0  0
  3 27  1  1  0  0  0
  4  2  1  0  0  0  0
  4  7  1  0  0  0  0
  5  3  1  0  0  0  0
  6  4  2  0  0  0  0
  7  5  2  0  0  0  0
  8  7  1  0  0  0  0
  9 11  2  0  0  0  0
  9 10  1  0  0  0  0
 11 14  1  0  0  0  0
 12 13  1  0  0  0  0
 12 15  2  0  0  0  0
 13  9  1  0  0  0  0
 15  8  1  0  0  0  0
 15 11  1  0  0  0  0
 16 12  1  0  0  0  0
 17 16  1  0  0  0  0
 18 17  1  0  0  0  0
 20 19  1  1  0  0  0
 20 21  1  0  0  0  0
 20 18  1  0  0  0  0
 21 22  1  0  0  0  0
 22 23  1  0  0  0  0
 23 25  1  0  0  0  0
 24 25  1  0  0  0  0
 25 26  1  1  0  0  0
 27 31  1  1  0  0  0
 27 29  1  0  0  0  0
 29 30  1  0  0  0  0
 29 28  2  0  0  0  0
 31 32  1  0  0  0  0
 32 33  1  0  0  0  0
 35 33  1  0  0  0  0
 35 34  2  0  0  0  0
 36 38  1  0  0  0  0
 36 37  1  0  0  0  0
 37 39  1  0  0  0  0
 38 40  1  0  0  0  0
 40 35  1  0  0  0  0
 40 39  1  0  0  0  0
M  END
>  <MODEL>
1

>  <REMARK>
 VINA RESULT:      -6.6      0.000      0.000
  Name = 
  16 active torsions:
  status: ('A' for Active; 'I' for Inactive)
    1  A    between atoms: C_3  and  C_19
    2  A    between atoms: O_4  and  C_8
    3  A    between atoms: O_4  and  C_35
    4  A    between atoms: C_7  and  C_8
    5  A    between atoms: C_7  and  C_33
    6  A    between atoms: N_9  and  C_27
    7  A    between atoms: C_10  and  O_16
    8  A    between atoms: C_10  and  C_35
    9  A    between atoms: C_12  and  C_19
   10  A    between atoms: C_12  and  C_27
   11  A    between atoms: O_16  and  C_38
   12  A    between atoms: C_18  and  C_19
   13  A    between atoms: C_21  and  C_38
   14  A    between atoms: C_29  and  C_30
   15  A    between atoms: C_32  and  N_34
   16  A    between atoms: N_34  and  C_40
                            x       y       z     vdW  Elec       q    Type
                         _______ _______ _______ _____ _____    ______ ____

>  <TORSDO>
F 16

$$$$
=
 OpenBabel11052412033D

 40 42  0  0  1  0  0  0  0  0999 V2000
  160.5120  205.2680  150.7990 C   0  0  0  0  0  3  0  0  0  0  0  0
  161.1200  205.1110  151.9740 C   0  0  0  0  0  3  0  0  0  0  0  0
  160.6080  206.5530  150.0020 C   0  0  1  0  0  3  0  0  0  0  0  0
  161.8150  206.2430  152.5950 C   0  0  0  0  0  0  0  0  0  0  0  0
  160.9900  207.7390  150.8730 C   0  0  0  0  0  3  0  0  0  0  0  0
  162.5090  206.0620  153.6310 O   0  0  0  0  0  0  0  0  0  0  0  0
  161.6160  207.5970  152.0510 C   0  0  0  0  0  0  0  0  0  0  0  0
  161.9120  208.7230  152.8890 N   0  0  0  0  0  2  0  0  0  0  0  0
  159.9390  210.1440  155.6500 C   0  0  0  0  0  0  0  0  0  0  0  0
  159.5490  210.1390  157.0860 C   0  0  0  0  0  1  0  0  0  0  0  0
  160.7810  209.2370  155.0270 C   0  0  0  0  0  0  0  0  0  0  0  0
  160.3150  210.6370  153.2150 C   0  0  0  0  0  0  0  0  0  0  0  0
  159.4810  211.3020  154.5270 S   0  0  0  0  0  0  0  0  0  0  0  0
  161.3750  208.1720  155.6930 O   0  0  0  0  0  1  0  0  0  0  0  0
  160.9890  209.4990  153.6660 C   0  0  0  0  0  0  0  0  0  0  0  0
  160.5100  211.3120  151.8940 C   0  0  0  0  0  2  0  0  0  0  0  0
  159.7700  212.6390  151.8290 C   0  0  0  0  0  2  0  0  0  0  0  0
  158.5000  212.4520  151.2810 O   0  0  0  0  0  0  0  0  0  0  0  0
  157.0870  213.4390  149.6270 C   0  0  0  0  0  1  0  0  0  0  0  0
  158.2130  213.6500  150.6230 C   0  0  2  0  0  3  0  0  0  0  0  0
  159.4570  214.1740  149.9180 C   0  0  0  0  0  2  0  0  0  0  0  0
  159.5220  213.6920  148.6090 O   0  0  0  0  0  0  0  0  0  0  0  0
  160.8110  214.0140  148.1770 C   0  0  0  0  0  2  0  0  0  0  0  0
  160.4930  211.9600  146.9910 O   0  0  0  0  0  1  0  0  0  0  0  0
  161.4660  212.8160  147.5060 C   0  0  2  0  0  3  0  0  0  0  0  0
  162.3480  212.0660  148.4840 C   0  0  0  0  0  1  0  0  0  0  0  0
  161.5900  206.3690  148.8300 C   0  0  2  0  0  3  0  0  0  0  0  0
  163.4560  207.8440  148.4890 O   0  0  0  0  0  0  0  0  0  0  0  0
  162.2150  207.6590  148.3870 C   0  0  0  0  0  0  0  0  0  0  0  0
  161.3810  208.7150  147.9240 N   0  0  0  0  0  1  0  0  0  0  0  0
  160.8990  205.7170  147.6350 C   0  0  0  0  0  2  0  0  0  0  0  0
  161.9110  204.9930  146.7670 C   0  0  0  0  0  2  0  0  0  0  0  0
  161.2410  203.9500  146.0080 N   0  0  0  0  0  2  0  0  0  0  0  0
  160.4380  201.7810  145.8210 O   0  0  0  0  0  0  0  0  0  0  0  0
  161.0280  202.6390  146.5320 C   0  0  0  0  0  0  0  0  0  0  0  0
  160.9970  200.3670  149.3380 C   0  0  0  0  0  2  0  0  0  0  0  0
  160.5980  201.6460  150.0430 C   0  0  0  0  0  2  0  0  0  0  0  0
  161.6930  200.7800  148.0540 C   0  0  0  0  0  2  0  0  0  0  0  0
  160.4730  202.6830  148.9530 C   0  0  0  0  0  2  0  0  0  0  0  0
  161.4920  202.2790  147.9100 C   0  0  0  0  0  3  0  0  0  0  0  0
  1  2  2  0  0  0  0
  2  4  1  0  0  0  0
  3 27  1  6  0  0  0
  3  1  1  0  0  0  0
  3  5  1  0  0  0  0
  4  6  2  0  0  0  0
  5  7  2  0  0  0  0
  7  4  1  0  0  0  0
  7  8  1  0  0  0  0
  8 15  1  0  0  0  0
  9 10  1  0  0  0  0
 11  9  2  0  0  0  0
 11 14  1  0  0  0  0
 12 15  2  0  0  0  0
 12 13  1  0  0  0  0
 13  9  1  0  0  0  0
 15 11  1  0  0  0  0
 16 12  1  0  0  0  0
 17 16  1  0  0  0  0
 18 17  1  0  0  0  0
 20 19  1  6  0  0  0
 20 18  1  0  0  0  0
 21 20  1  0  0  0  0
 22 21  1  0  0  0  0
 23 22  1  0  0  0  0
 24 25  1  0  0  0  0
 25 23  1  0  0  0  0
 25 26  1  1  0  0  0
 27 31  1  6  0  0  0
 29 28  2  0  0  0  0
 29 27  1  0  0  0  0
 30 29  1  0  0  0  0
 32 31  1  0  0  0  0
 33 35  1  0  0  0  0
 33 32  1  0  0  0  0
 34 35  2  0  0  0  0
 35 40  1  0  0  0  0
 36 37  1  0  0  0  0
 38 36  1  0  0  0  0
 39 37  1  0  0  0  0
 40 38  1  0  0  0  0
 40 39  1  0  0  0  0
M  END
>  <MODEL>
2

>  <REMARK>
 VINA RESULT:      -6.4      2.866      9.616
  Name = 
  16 active torsions:
  status: ('A' for Active; 'I' for Inactive)
    1  A    between atoms: C_3  and  C_19
    2  A    between atoms: O_4  and  C_8
    3  A    between atoms: O_4  and  C_35
    4  A    between atoms: C_7  and  C_8
    5  A    between atoms: C_7  and  C_33
    6  A    between atoms: N_9  and  C_27
    7  A    between atoms: C_10  and  O_16
    8  A    between atoms: C_10  and  C_35
    9  A    between atoms: C_12  and  C_19
   10  A    between atoms: C_12  and  C_27
   11  A    between atoms: O_16  and  C_38
   12  A    between atoms: C_18  and  C_19
   13  A    between atoms: C_21  and  C_38
   14  A    between atoms: C_29  and  C_30
   15  A    between atoms: C_32  and  N_34
   16  A    between atoms: N_34  and  C_40
                            x       y       z     vdW  Elec       q    Type
                         _______ _______ _______ _____ _____    ______ ____

>  <TORSDO>
F 16

$$$$
=
 OpenBabel11052412033D

 40 42  0  0  1  0  0  0  0  0999 V2000
  160.5320  205.0030  149.3500 C   0  0  0  0  0  3  0  0  0  0  0  0
  161.0660  204.9880  150.5700 C   0  0  0  0  0  3  0  0  0  0  0  0
  160.8780  206.0680  148.3280 C   0  0  1  0  0  3  0  0  0  0  0  0
  161.9300  206.0890  151.0050 C   0  0  0  0  0  0  0  0  0  0  0  0
  161.4360  207.3230  148.9770 C   0  0  0  0  0  3  0  0  0  0  0  0
  162.5490  206.0070  152.1000 O   0  0  0  0  0  0  0  0  0  0  0  0
  161.9900  207.3200  150.1990 C   0  0  0  0  0  0  0  0  0  0  0  0
  162.4540  208.5260  150.8210 N   0  0  0  0  0  2  0  0  0  0  0  0
  160.4600  210.9850  152.6930 C   0  0  0  0  0  0  0  0  0  0  0  0
  159.7700  211.3930  153.9470 C   0  0  0  0  0  1  0  0  0  0  0  0
  161.0880  209.7720  152.4610 C   0  0  0  0  0  0  0  0  0  0  0  0
  161.5220  210.8260  150.4220 C   0  0  0  0  0  0  0  0  0  0  0  0
  160.6660  211.9570  151.3420 S   0  0  0  0  0  0  0  0  0  0  0  0
  161.1410  208.7530  153.4050 O   0  0  0  0  0  1  0  0  0  0  0  0
  161.6750  209.6710  151.1930 C   0  0  0  0  0  0  0  0  0  0  0  0
  162.2210  211.1250  149.1330 C   0  0  0  0  0  2  0  0  0  0  0  0
  161.7530  212.4430  148.5350 C   0  0  0  0  0  2  0  0  0  0  0  0
  162.2920  212.6060  147.2570 O   0  0  0  0  0  0  0  0  0  0  0  0
  160.1000  212.3440  146.3460 C   0  0  0  0  0  1  0  0  0  0  0  0
  161.2960  213.2600  146.5280 C   0  0  2  0  0  3  0  0  0  0  0  0
  161.8390  213.7040  145.1760 C   0  0  0  0  0  2  0  0  0  0  0  0
  161.4130  212.8380  144.1660 O   0  0  0  0  0  0  0  0  0  0  0  0
  162.4890  212.7740  143.2780 C   0  0  0  0  0  2  0  0  0  0  0  0
  162.3150  212.8650  140.8930 O   0  0  0  0  0  1  0  0  0  0  0  0
  162.0900  212.0490  142.0020 C   0  0  2  0  0  3  0  0  0  0  0  0
  160.6330  211.6360  142.0500 C   0  0  0  0  0  1  0  0  0  0  0  0
  161.8480  205.4890  147.2800 C   0  0  2  0  0  3  0  0  0  0  0  0
  162.5190  206.1140  145.0590 O   0  0  0  0  0  0  0  0  0  0  0  0
  161.5850  206.0060  145.8970 C   0  0  0  0  0  0  0  0  0  0  0  0
  160.2780  206.4550  145.5570 N   0  0  0  0  0  1  0  0  0  0  0  0
  161.7850  203.9640  147.2600 C   0  0  0  0  0  2  0  0  0  0  0  0
  161.2070  203.4750  145.9450 C   0  0  0  0  0  2  0  0  0  0  0  0
  161.2910  202.0250  145.8890 N   0  0  0  0  0  2  0  0  0  0  0  0
  161.2130  199.9500  146.9250 O   0  0  0  0  0  0  0  0  0  0  0  0
  161.1290  201.2020  147.0450 C   0  0  0  0  0  0  0  0  0  0  0  0
  160.9970  200.8920  150.6400 C   0  0  0  0  0  2  0  0  0  0  0  0
  159.5900  201.3840  150.3760 C   0  0  0  0  0  2  0  0  0  0  0  0
  161.8290  201.2960  149.4350 C   0  0  0  0  0  2  0  0  0  0  0  0
  159.4680  201.4650  148.8730 C   0  0  0  0  0  2  0  0  0  0  0  0
  160.8580  201.8110  148.3870 C   0  0  0  0  0  3  0  0  0  0  0  0
  1  2  2  0  0  0  0
  2  4  1  0  0  0  0
  3 27  1  6  0  0  0
  3  5  1  0  0  0  0
  3  1  1  0  0  0  0
  4  6  2  0  0  0  0
  5  7  2  0  0  0  0
  7  8  1  0  0  0  0
  7  4  1  0  0  0  0
  8 15  1  0  0  0  0
  9 10  1  0  0  0  0
 11  9  2  0  0  0  0
 11 14  1  0  0  0  0
 12 15  2  0  0  0  0
 12 13  1  0  0  0  0
 13  9  1  0  0  0  0
 15 11  1  0  0  0  0
 16 12  1  0  0  0  0
 17 16  1  0  0  0  0
 18 17  1  0  0  0  0
 20 19  1  6  0  0  0
 20 18  1  0  0  0  0
 21 20  1  0  0  0  0
 22 21  1  0  0  0  0
 23 22  1  0  0  0  0
 24 25  1  0  0  0  0
 25 26  1  1  0  0  0
 25 23  1  0  0  0  0
 27 31  1  6  0  0  0
 28 29  2  0  0  0  0
 29 27  1  0  0  0  0
 30 29  1  0  0  0  0
 32 31  1  0  0  0  0
 33 32  1  0  0  0  0
 33 35  1  0  0  0  0
 34 35  2  0  0  0  0
 35 40  1  0  0  0  0
 37 36  1  0  0  0  0
 38 36  1  0  0  0  0
 39 37  1  0  0  0  0
 40 39  1  0  0  0  0
 40 38  1  0  0  0  0
M  END
>  <MODEL>
3

>  <REMARK>
 VINA RESULT:      -6.4      3.869      9.901
  Name = 
  16 active torsions:
  status: ('A' for Active; 'I' for Inactive)
    1  A    between atoms: C_3  and  C_19
    2  A    between atoms: O_4  and  C_8
    3  A    between atoms: O_4  and  C_35
    4  A    between atoms: C_7  and  C_8
    5  A    between atoms: C_7  and  C_33
    6  A    between atoms: N_9  and  C_27
    7  A    between atoms: C_10  and  O_16
    8  A    between atoms: C_10  and  C_35
    9  A    between atoms: C_12  and  C_19
   10  A    between atoms: C_12  and  C_27
   11  A    between atoms: O_16  and  C_38
   12  A    between atoms: C_18  and  C_19
   13  A    between atoms: C_21  and  C_38
   14  A    between atoms: C_29  and  C_30
   15  A    between atoms: C_32  and  N_34
   16  A    between atoms: N_34  and  C_40
                            x       y       z     vdW  Elec       q    Type
                         _______ _______ _______ _____ _____    ______ ____

>  <TORSDO>
F 16

$$$$
=
 OpenBabel11052412033D

 40 42  0  0  1  0  0  0  0  0999 V2000
  159.9440  210.5610  153.2330 C   0  0  0  0  0  3  0  0  0  0  0  0
  160.5260  210.9780  152.1080 C   0  0  0  0  0  3  0  0  0  0  0  0
  160.4030  209.3180  153.9680 C   0  0  1  0  0  3  0  0  0  0  0  0
  161.5670  210.1640  151.4770 C   0  0  0  0  0  0  0  0  0  0  0  0
  161.1770  208.3720  153.0640 C   0  0  0  0  0  3  0  0  0  0  0  0
  162.2150  210.6210  150.4980 O   0  0  0  0  0  0  0  0  0  0  0  0
  161.7790  208.7810  151.9370 C   0  0  0  0  0  0  0  0  0  0  0  0
  162.4510  207.8620  151.0640 N   0  0  0  0  0  2  0  0  0  0  0  0
  161.6070  206.4220  147.7860 C   0  0  0  0  0  0  0  0  0  0  0  0
  161.7560  206.4220  146.3050 C   0  0  0  0  0  1  0  0  0  0  0  0
  162.1640  207.3360  148.6650 C   0  0  0  0  0  0  0  0  0  0  0  0
  161.0900  205.9350  150.1960 C   0  0  0  0  0  0  0  0  0  0  0  0
  160.7860  205.2610  148.6750 S   0  0  0  0  0  0  0  0  0  0  0  0
  162.9490  208.4060  148.2510 O   0  0  0  0  0  1  0  0  0  0  0  0
  161.8720  207.0780  150.0110 C   0  0  0  0  0  0  0  0  0  0  0  0
  160.8050  205.2620  151.5020 C   0  0  0  0  0  2  0  0  0  0  0  0
  161.1880  203.7910  151.4690 C   0  0  0  0  0  2  0  0  0  0  0  0
  160.4690  203.1330  150.4690 O   0  0  0  0  0  0  0  0  0  0  0  0
  162.1460  201.6440  151.2940 C   0  0  0  0  0  1  0  0  0  0  0  0
  160.7890  201.7820  150.6270 C   0  0  2  0  0  3  0  0  0  0  0  0
  160.7840  201.0780  149.2760 C   0  0  0  0  0  2  0  0  0  0  0  0
  161.1550  201.9600  148.2590 O   0  0  0  0  0  0  0  0  0  0  0  0
  161.1470  201.1850  147.0980 C   0  0  0  0  0  2  0  0  0  0  0  0
  160.0390  200.9680  144.9880 O   0  0  0  0  0  1  0  0  0  0  0  0
  160.3640  201.8790  145.9940 C   0  0  2  0  0  3  0  0  0  0  0  0
  161.1610  203.0290  145.4100 C   0  0  0  0  0  1  0  0  0  0  0  0
  161.2240  209.7180  155.2080 C   0  0  2  0  0  3  0  0  0  0  0  0
  162.0540  208.6430  157.1910 O   0  0  0  0  0  0  0  0  0  0  0  0
  161.1640  208.6910  156.3010 C   0  0  0  0  0  0  0  0  0  0  0  0
  160.1340  207.7100  156.2800 N   0  0  0  0  0  1  0  0  0  0  0  0
  160.7560  211.0610  155.7640 C   0  0  0  0  0  2  0  0  0  0  0  0
  159.5710  210.8660  156.6910 C   0  0  0  0  0  2  0  0  0  0  0  0
  159.1860  212.1470  157.2610 N   0  0  0  0  0  2  0  0  0  0  0  0
  157.9910  214.1330  157.1540 O   0  0  0  0  0  0  0  0  0  0  0  0
  158.2840  213.0380  156.6030 C   0  0  0  0  0  0  0  0  0  0  0  0
  156.5830  214.0400  153.5810 C   0  0  0  0  0  2  0  0  0  0  0  0
  155.6420  212.9510  154.0520 C   0  0  0  0  0  2  0  0  0  0  0  0
  157.9190  213.7760  154.2510 C   0  0  0  0  0  2  0  0  0  0  0  0
  156.1870  212.4990  155.3850 C   0  0  0  0  0  2  0  0  0  0  0  0
  157.6850  212.6810  155.2770 C   0  0  0  0  0  3  0  0  0  0  0  0
  1  3  1  0  0  0  0
  2  1  2  0  0  0  0
  3 27  1  1  0  0  0
  4  7  1  0  0  0  0
  4  2  1  0  0  0  0
  5  3  1  0  0  0  0
  6  4  2  0  0  0  0
  7  5  2  0  0  0  0
  8  7  1  0  0  0  0
  9 11  2  0  0  0  0
  9 13  1  0  0  0  0
 10  9  1  0  0  0  0
 11 15  1  0  0  0  0
 12 16  1  0  0  0  0
 13 12  1  0  0  0  0
 14 11  1  0  0  0  0
 15 12  2  0  0  0  0
 15  8  1  0  0  0  0
 17 16  1  0  0  0  0
 18 20  1  0  0  0  0
 18 17  1  0  0  0  0
 20 19  1  6  0  0  0
 21 20  1  0  0  0  0
 22 21  1  0  0  0  0
 23 22  1  0  0  0  0
 24 25  1  0  0  0  0
 25 26  1  6  0  0  0
 25 23  1  0  0  0  0
 27 31  1  1  0  0  0
 27 29  1  0  0  0  0
 29 28  2  0  0  0  0
 30 29  1  0  0  0  0
 31 32  1  0  0  0  0
 32 33  1  0  0  0  0
 35 34  2  0  0  0  0
 35 33  1  0  0  0  0
 36 37  1  0  0  0  0
 36 38  1  0  0  0  0
 37 39  1  0  0  0  0
 38 40  1  0  0  0  0
 40 39  1  0  0  0  0
 40 35  1  0  0  0  0
M  END
>  <MODEL>
4

>  <REMARK>
 VINA RESULT:      -6.0      1.502      3.075
  Name = 
  16 active torsions:
  status: ('A' for Active; 'I' for Inactive)
    1  A    between atoms: C_3  and  C_19
    2  A    between atoms: O_4  and  C_8
    3  A    between atoms: O_4  and  C_35
    4  A    between atoms: C_7  and  C_8
    5  A    between atoms: C_7  and  C_33
    6  A    between atoms: N_9  and  C_27
    7  A    between atoms: C_10  and  O_16
    8  A    between atoms: C_10  and  C_35
    9  A    between atoms: C_12  and  C_19
   10  A    between atoms: C_12  and  C_27
   11  A    between atoms: O_16  and  C_38
   12  A    between atoms: C_18  and  C_19
   13  A    between atoms: C_21  and  C_38
   14  A    between atoms: C_29  and  C_30
   15  A    between atoms: C_32  and  N_34
   16  A    between atoms: N_34  and  C_40
                            x       y       z     vdW  Elec       q    Type
                         _______ _______ _______ _____ _____    ______ ____

>  <TORSDO>
F 16

$$$$
=
 OpenBabel11052412033D

 40 42  0  0  1  0  0  0  0  0999 V2000
  160.1250  210.8340  156.4120 C   0  0  0  0  0  3  0  0  0  0  0  0
  159.9090  209.5230  156.5200 C   0  0  0  0  0  3  0  0  0  0  0  0
  160.6030  211.4720  155.1230 C   0  0  1  0  0  3  0  0  0  0  0  0
  160.2490  208.6310  155.4070 C   0  0  0  0  0  0  0  0  0  0  0  0
  161.2790  210.4680  154.2040 C   0  0  0  0  0  3  0  0  0  0  0  0
  159.9150  207.4170  155.4510 O   0  0  0  0  0  0  0  0  0  0  0  0
  161.0610  209.1470  154.2920 C   0  0  0  0  0  0  0  0  0  0  0  0
  161.7560  208.2090  153.4580 N   0  0  0  0  0  2  0  0  0  0  0  0
  161.8590  208.4440  149.7890 C   0  0  0  0  0  0  0  0  0  0  0  0
  162.2820  209.1670  148.5590 C   0  0  0  0  0  1  0  0  0  0  0  0
  162.0410  208.8720  151.0940 C   0  0  0  0  0  0  0  0  0  0  0  0
  161.0080  206.8170  151.5040 C   0  0  0  0  0  0  0  0  0  0  0  0
  161.1420  206.9290  149.8220 S   0  0  0  0  0  0  0  0  0  0  0  0
  162.6540  210.0770  151.4190 O   0  0  0  0  0  1  0  0  0  0  0  0
  161.5600  207.9750  152.0570 C   0  0  0  0  0  0  0  0  0  0  0  0
  160.6260  205.5780  152.2510 C   0  0  0  0  0  2  0  0  0  0  0  0
  161.6560  204.4740  152.0670 C   0  0  0  0  0  2  0  0  0  0  0  0
  161.7700  204.1480  150.7140 O   0  0  0  0  0  0  0  0  0  0  0  0
  161.2830  201.8640  151.2180 C   0  0  0  0  0  1  0  0  0  0  0  0
  160.8350  203.1300  150.5100 C   0  0  2  0  0  3  0  0  0  0  0  0
  160.6550  202.8720  149.0190 C   0  0  0  0  0  2  0  0  0  0  0  0
  161.6280  203.5490  148.2810 O   0  0  0  0  0  0  0  0  0  0  0  0
  161.3780  203.1890  146.9550 C   0  0  0  0  0  2  0  0  0  0  0  0
  162.3580  204.0050  144.9300 O   0  0  0  0  0  1  0  0  0  0  0  0
  161.5830  204.3780  146.0280 C   0  0  2  0  0  3  0  0  0  0  0  0
  162.2480  205.5250  146.7620 C   0  0  0  0  0  1  0  0  0  0  0  0
  159.4280  212.1810  154.4240 C   0  0  2  0  0  3  0  0  0  0  0  0
  157.2960  211.0940  154.6460 O   0  0  0  0  0  0  0  0  0  0  0  0
  158.1140  211.9350  155.1050 C   0  0  0  0  0  0  0  0  0  0  0  0
  157.7560  212.7200  156.2370 N   0  0  0  0  0  1  0  0  0  0  0  0
  159.3180  211.7470  152.9640 C   0  0  0  0  0  2  0  0  0  0  0  0
  159.6620  212.9010  152.0410 C   0  0  0  0  0  2  0  0  0  0  0  0
  158.6210  213.0460  151.0380 N   0  0  0  0  0  2  0  0  0  0  0  0
  157.9440  213.5910  148.8860 O   0  0  0  0  0  0  0  0  0  0  0  0
  158.8950  213.4890  149.7080 C   0  0  0  0  0  0  0  0  0  0  0  0
  161.3930  213.7300  147.1130 C   0  0  0  0  0  2  0  0  0  0  0  0
  162.1370  212.8560  148.1000 C   0  0  0  0  0  2  0  0  0  0  0  0
  160.3160  214.4530  147.9020 C   0  0  0  0  0  2  0  0  0  0  0  0
  161.1560  212.5860  149.2150 C   0  0  0  0  0  2  0  0  0  0  0  0
  160.2920  213.8260  149.2850 C   0  0  0  0  0  3  0  0  0  0  0  0
  1  2  2  0  0  0  0
  3 27  1  6  0  0  0
  3  1  1  0  0  0  0
  4  6  2  0  0  0  0
  4  2  1  0  0  0  0
  5  7  2  0  0  0  0
  5  3  1  0  0  0  0
  7  4  1  0  0  0  0
  8  7  1  0  0  0  0
  9 13  1  0  0  0  0
  9 11  2  0  0  0  0
 10  9  1  0  0  0  0
 11 14  1  0  0  0  0
 11 15  1  0  0  0  0
 12 15  2  0  0  0  0
 12 16  1  0  0  0  0
 13 12  1  0  0  0  0
 15  8  1  0  0  0  0
 17 16  1  0  0  0  0
 18 17  1  0  0  0  0
 20 18  1  0  0  0  0
 20 19  1  1  0  0  0
 21 20  1  0  0  0  0
 22 21  1  0  0  0  0
 23 22  1  0  0  0  0
 24 25  1  0  0  0  0
 25 26  1  1  0  0  0
 25 23  1  0  0  0  0
 27 31  1  6  0  0  0
 27 29  1  0  0  0  0
 28 29  2  0  0  0  0
 29 30  1  0  0  0  0
 32 31  1  0  0  0  0
 33 32  1  0  0  0  0
 34 35  2  0  0  0  0
 35 33  1  0  0  0  0
 36 38  1  0  0  0  0
 36 37  1  0  0  0  0
 37 39  1  0  0  0  0
 38 40  1  0  0  0  0
 39 40  1  0  0  0  0
 40 35  1  0  0  0  0
M  END
>  <MODEL>
5

>  <REMARK>
 VINA RESULT:      -5.8      2.582      5.424
  Name = 
  16 active torsions:
  status: ('A' for Active; 'I' for Inactive)
    1  A    between atoms: C_3  and  C_19
    2  A    between atoms: O_4  and  C_8
    3  A    between atoms: O_4  and  C_35
    4  A    between atoms: C_7  and  C_8
    5  A    between atoms: C_7  and  C_33
    6  A    between atoms: N_9  and  C_27
    7  A    between atoms: C_10  and  O_16
    8  A    between atoms: C_10  and  C_35
    9  A    between atoms: C_12  and  C_19
   10  A    between atoms: C_12  and  C_27
   11  A    between atoms: O_16  and  C_38
   12  A    between atoms: C_18  and  C_19
   13  A    between atoms: C_21  and  C_38
   14  A    between atoms: C_29  and  C_30
   15  A    between atoms: C_32  and  N_34
   16  A    between atoms: N_34  and  C_40
                            x       y       z     vdW  Elec       q    Type
                         _______ _______ _______ _____ _____    ______ ____

>  <TORSDO>
F 16

$$$$
=
 OpenBabel11052412033D

 40 42  0  0  1  0  0  0  0  0999 V2000
  162.6850  207.1050  151.3210 C   0  0  0  0  0  3  0  0  0  0  0  0
  162.4290  208.4110  151.2590 C   0  0  0  0  0  3  0  0  0  0  0  0
  161.7470  206.1280  152.0020 C   0  0  1  0  0  3  0  0  0  0  0  0
  161.2700  208.9650  151.9650 C   0  0  0  0  0  0  0  0  0  0  0  0
  160.8310  206.8160  153.0010 C   0  0  0  0  0  3  0  0  0  0  0  0
  160.9460  210.1700  151.7920 O   0  0  0  0  0  0  0  0  0  0  0  0
  160.5540  208.1270  152.9420 C   0  0  0  0  0  0  0  0  0  0  0  0
  159.7380  208.7720  153.9310 N   0  0  0  0  0  2  0  0  0  0  0  0
  161.5860  210.8180  156.3660 C   0  0  0  0  0  0  0  0  0  0  0  0
  162.7640  211.0050  157.2560 C   0  0  0  0  0  1  0  0  0  0  0  0
  161.3000  209.6910  155.6120 C   0  0  0  0  0  0  0  0  0  0  0  0
  159.4960  211.0390  154.9880 C   0  0  0  0  0  0  0  0  0  0  0  0
  160.4140  211.9760  156.0560 S   0  0  0  0  0  0  0  0  0  0  0  0
  162.1050  208.5580  155.6050 O   0  0  0  0  0  1  0  0  0  0  0  0
  160.1310  209.8020  154.8480 C   0  0  0  0  0  0  0  0  0  0  0  0
  158.3740  211.5560  154.1450 C   0  0  0  0  0  2  0  0  0  0  0  0
  158.8360  211.8710  152.7310 C   0  0  0  0  0  2  0  0  0  0  0  0
  159.6940  212.9720  152.7420 O   0  0  0  0  0  0  0  0  0  0  0  0
  157.8730  213.2840  151.2290 C   0  0  0  0  0  1  0  0  0  0  0  0
  159.1270  213.8780  151.8420 C   0  0  2  0  0  3  0  0  0  0  0  0
  160.1330  214.2400  150.7560 C   0  0  0  0  0  2  0  0  0  0  0  0
  160.3580  213.1520  149.9110 O   0  0  0  0  0  0  0  0  0  0  0  0
  160.5650  213.7200  148.6520 C   0  0  0  0  0  2  0  0  0  0  0  0
  161.5330  212.8420  146.6470 O   0  0  0  0  0  1  0  0  0  0  0  0
  161.7960  213.1200  147.9890 C   0  0  2  0  0  3  0  0  0  0  0  0
  162.2310  211.8560  148.7020 C   0  0  0  0  0  1  0  0  0  0  0  0
  160.9480  205.3470  150.9420 C   0  0  2  0  0  3  0  0  0  0  0  0
  160.4560  203.6680  152.5910 O   0  0  0  0  0  0  0  0  0  0  0  0
  160.6250  203.9460  151.3740 C   0  0  0  0  0  0  0  0  0  0  0  0
  160.5900  202.9070  150.4020 N   0  0  0  0  0  1  0  0  0  0  0  0
  161.7030  205.2950  149.6160 C   0  0  0  0  0  2  0  0  0  0  0  0
  161.0770  206.2430  148.6120 C   0  0  0  0  0  2  0  0  0  0  0  0
  161.9780  206.4190  147.4850 N   0  0  0  0  0  2  0  0  0  0  0  0
  162.6930  205.8410  145.3540 O   0  0  0  0  0  0  0  0  0  0  0  0
  161.8800  205.6350  146.2950 C   0  0  0  0  0  0  0  0  0  0  0  0
  160.9680  202.2040  145.6360 C   0  0  0  0  0  2  0  0  0  0  0  0
  160.0980  202.8990  144.6090 C   0  0  0  0  0  2  0  0  0  0  0  0
  161.3040  203.2420  146.6920 C   0  0  0  0  0  2  0  0  0  0  0  0
  160.4560  204.3630  144.7060 C   0  0  0  0  0  2  0  0  0  0  0  0
  160.8240  204.5810  146.1570 C   0  0  0  0  0  3  0  0  0  0  0  0
  1  3  1  0  0  0  0
  2  1  2  0  0  0  0
  2  4  1  0  0  0  0
  3 27  1  6  0  0  0
  3  5  1  0  0  0  0
  4  7  1  0  0  0  0
  6  4  2  0  0  0  0
  7  5  2  0  0  0  0
  7  8  1  0  0  0  0
  8 15  1  0  0  0  0
  9 10  1  0  0  0  0
 11  9  2  0  0  0  0
 12 13  1  0  0  0  0
 13  9  1  0  0  0  0
 14 11  1  0  0  0  0
 15 12  2  0  0  0  0
 15 11  1  0  0  0  0
 16 12  1  0  0  0  0
 17 18  1  0  0  0  0
 17 16  1  0  0  0  0
 20 19  1  6  0  0  0
 20 18  1  0  0  0  0
 21 20  1  0  0  0  0
 22 21  1  0  0  0  0
 23 22  1  0  0  0  0
 24 25  1  0  0  0  0
 25 23  1  0  0  0  0
 25 26  1  1  0  0  0
 27 31  1  6  0  0  0
 27 29  1  0  0  0  0
 29 28  2  0  0  0  0
 30 29  1  0  0  0  0
 32 31  1  0  0  0  0
 33 32  1  0  0  0  0
 34 35  2  0  0  0  0
 35 33  1  0  0  0  0
 36 38  1  0  0  0  0
 37 39  1  0  0  0  0
 37 36  1  0  0  0  0
 39 40  1  0  0  0  0
 40 35  1  0  0  0  0
 40 38  1  0  0  0  0
M  END
>  <MODEL>
6

>  <REMARK>
 VINA RESULT:      -5.8      2.926      9.537
  Name = 
  16 active torsions:
  status: ('A' for Active; 'I' for Inactive)
    1  A    between atoms: C_3  and  C_19
    2  A    between atoms: O_4  and  C_8
    3  A    between atoms: O_4  and  C_35
    4  A    between atoms: C_7  and  C_8
    5  A    between atoms: C_7  and  C_33
    6  A    between atoms: N_9  and  C_27
    7  A    between atoms: C_10  and  O_16
    8  A    between atoms: C_10  and  C_35
    9  A    between atoms: C_12  and  C_19
   10  A    between atoms: C_12  and  C_27
   11  A    between atoms: O_16  and  C_38
   12  A    between atoms: C_18  and  C_19
   13  A    between atoms: C_21  and  C_38
   14  A    between atoms: C_29  and  C_30
   15  A    between atoms: C_32  and  N_34
   16  A    between atoms: N_34  and  C_40
                            x       y       z     vdW  Elec       q    Type
                         _______ _______ _______ _____ _____    ______ ____

>  <TORSDO>
F 16

$$$$
=
 OpenBabel11052412033D

 40 42  0  0  1  0  0  0  0  0999 V2000
  160.1330  209.4740  157.0380 C   0  0  0  0  0  3  0  0  0  0  0  0
  159.8080  208.2270  156.7000 C   0  0  0  0  0  3  0  0  0  0  0  0
  160.8160  210.4220  156.0720 C   0  0  1  0  0  3  0  0  0  0  0  0
  160.2170  207.6900  155.3990 C   0  0  0  0  0  0  0  0  0  0  0  0
  161.5250  209.6830  154.9500 C   0  0  0  0  0  3  0  0  0  0  0  0
  159.7910  206.5660  155.0210 O   0  0  0  0  0  0  0  0  0  0  0  0
  161.1990  208.4320  154.5900 C   0  0  0  0  0  0  0  0  0  0  0  0
  161.9220  207.7270  153.5710 N   0  0  0  0  0  2  0  0  0  0  0  0
  161.7330  208.5820  149.9990 C   0  0  0  0  0  0  0  0  0  0  0  0
  161.9850  209.5460  148.8930 C   0  0  0  0  0  1  0  0  0  0  0  0
  161.9620  208.8050  151.3470 C   0  0  0  0  0  0  0  0  0  0  0  0
  161.1890  206.6020  151.4460 C   0  0  0  0  0  0  0  0  0  0  0  0
  161.1860  207.0090  149.8050 S   0  0  0  0  0  0  0  0  0  0  0  0
  162.4630  210.0020  151.8440 O   0  0  0  0  0  1  0  0  0  0  0  0
  161.6510  207.7090  152.1630 C   0  0  0  0  0  0  0  0  0  0  0  0
  160.9970  205.2190  151.9850 C   0  0  0  0  0  2  0  0  0  0  0  0
  161.6730  204.1780  151.1060 C   0  0  0  0  0  2  0  0  0  0  0  0
  161.0440  202.9410  151.2620 O   0  0  0  0  0  0  0  0  0  0  0  0
  160.8380  201.2990  149.5400 C   0  0  0  0  0  1  0  0  0  0  0  0
  160.4480  202.6830  150.0250 C   0  0  2  0  0  3  0  0  0  0  0  0
  160.8620  203.7410  149.0110 C   0  0  0  0  0  2  0  0  0  0  0  0
  161.0090  203.1760  147.7420 O   0  0  0  0  0  0  0  0  0  0  0  0
  162.1050  203.8390  147.1850 C   0  0  0  0  0  2  0  0  0  0  0  0
  161.7070  204.4140  144.8960 O   0  0  0  0  0  1  0  0  0  0  0  0
  161.6440  204.9040  146.2010 C   0  0  2  0  0  3  0  0  0  0  0  0
  162.4940  206.1540  146.3230 C   0  0  0  0  0  1  0  0  0  0  0  0
  159.7940  211.4380  155.5270 C   0  0  2  0  0  3  0  0  0  0  0  0
  158.1140  212.2510  157.0410 O   0  0  0  0  0  0  0  0  0  0  0  0
  159.2820  212.3710  156.5850 C   0  0  0  0  0  0  0  0  0  0  0  0
  160.0990  213.4530  157.0160 N   0  0  0  0  0  1  0  0  0  0  0  0
  158.6090  210.7260  154.8780 C   0  0  0  0  0  2  0  0  0  0  0  0
  157.9950  211.5970  153.7980 C   0  0  0  0  0  2  0  0  0  0  0  0
  159.0170  212.4610  153.2330 N   0  0  0  0  0  2  0  0  0  0  0  0
  159.7520  213.9140  151.5790 O   0  0  0  0  0  0  0  0  0  0  0  0
  158.8240  213.1790  152.0130 C   0  0  0  0  0  0  0  0  0  0  0  0
  156.6860  214.2900  149.3240 C   0  0  0  0  0  2  0  0  0  0  0  0
  155.7320  214.4500  150.4890 C   0  0  0  0  0  2  0  0  0  0  0  0
  157.7480  213.3000  149.7680 C   0  0  0  0  0  2  0  0  0  0  0  0
  156.5390  214.1080  151.7180 C   0  0  0  0  0  2  0  0  0  0  0  0
  157.5370  213.0690  151.2540 C   0  0  0  0  0  3  0  0  0  0  0  0
  2  1  2  0  0  0  0
  3 27  1  6  0  0  0
  3  1  1  0  0  0  0
  4  2  1  0  0  0  0
  5  3  1  0  0  0  0
  6  4  2  0  0  0  0
  7  5  2  0  0  0  0
  7  4  1  0  0  0  0
  8  7  1  0  0  0  0
  9 11  2  0  0  0  0
 10  9  1  0  0  0  0
 11 14  1  0  0  0  0
 11 15  1  0  0  0  0
 12 16  1  0  0  0  0
 12 15  2  0  0  0  0
 13  9  1  0  0  0  0
 13 12  1  0  0  0  0
 15  8  1  0  0  0  0
 17 18  1  0  0  0  0
 17 16  1  0  0  0  0
 20 19  1  6  0  0  0
 20 18  1  0  0  0  0
 21 20  1  0  0  0  0
 22 21  1  0  0  0  0
 23 22  1  0  0  0  0
 24 25  1  0  0  0  0
 25 26  1  6  0  0  0
 25 23  1  0  0  0  0
 27 31  1  1  0  0  0
 27 29  1  0  0  0  0
 29 30  1  0  0  0  0
 29 28  2  0  0  0  0
 32 31  1  0  0  0  0
 33 32  1  0  0  0  0
 34 35  2  0  0  0  0
 35 33  1  0  0  0  0
 36 38  1  0  0  0  0
 36 37  1  0  0  0  0
 37 39  1  0  0  0  0
 38 40  1  0  0  0  0
 40 39  1  0  0  0  0
 40 35  1  0  0  0  0
M  END
>  <MODEL>
7

>  <REMARK>
 VINA RESULT:      -5.7      2.505      4.598
  Name = 
  16 active torsions:
  status: ('A' for Active; 'I' for Inactive)
    1  A    between atoms: C_3  and  C_19
    2  A    between atoms: O_4  and  C_8
    3  A    between atoms: O_4  and  C_35
    4  A    between atoms: C_7  and  C_8
    5  A    between atoms: C_7  and  C_33
    6  A    between atoms: N_9  and  C_27
    7  A    between atoms: C_10  and  O_16
    8  A    between atoms: C_10  and  C_35
    9  A    between atoms: C_12  and  C_19
   10  A    between atoms: C_12  and  C_27
   11  A    between atoms: O_16  and  C_38
   12  A    between atoms: C_18  and  C_19
   13  A    between atoms: C_21  and  C_38
   14  A    between atoms: C_29  and  C_30
   15  A    between atoms: C_32  and  N_34
   16  A    between atoms: N_34  and  C_40
                            x       y       z     vdW  Elec       q    Type
                         _______ _______ _______ _____ _____    ______ ____

>  <TORSDO>
F 16

$$$$
=
 OpenBabel11052412033D

 40 42  0  0  1  0  0  0  0  0999 V2000
  162.1240  210.5140  152.8250 C   0  0  0  0  0  3  0  0  0  0  0  0
  162.6880  209.9100  151.7790 C   0  0  0  0  0  3  0  0  0  0  0  0
  161.0460  209.8500  153.6590 C   0  0  1  0  0  3  0  0  0  0  0  0
  162.1880  208.6090  151.3280 C   0  0  0  0  0  0  0  0  0  0  0  0
  160.3490  208.7300  152.9050 C   0  0  0  0  0  3  0  0  0  0  0  0
  162.8080  207.9730  150.4340 O   0  0  0  0  0  0  0  0  0  0  0  0
  160.9100  208.1030  151.8590 C   0  0  0  0  0  0  0  0  0  0  0  0
  160.2110  207.0920  151.1200 N   0  0  0  0  0  2  0  0  0  0  0  0
  161.4120  203.6150  151.0890 C   0  0  0  0  0  0  0  0  0  0  0  0
  161.8060  202.3850  151.8280 C   0  0  0  0  0  1  0  0  0  0  0  0
  161.0510  204.8290  151.6520 C   0  0  0  0  0  0  0  0  0  0  0  0
  160.7810  205.3580  149.3920 C   0  0  0  0  0  0  0  0  0  0  0  0
  161.2640  203.7380  149.4230 S   0  0  0  0  0  0  0  0  0  0  0  0
  161.0230  205.0500  153.0240 O   0  0  0  0  0  1  0  0  0  0  0  0
  160.7080  205.8100  150.7120 C   0  0  0  0  0  0  0  0  0  0  0  0
  160.2620  206.0720  148.1850 C   0  0  0  0  0  2  0  0  0  0  0  0
  161.3610  206.3130  147.1610 C   0  0  0  0  0  2  0  0  0  0  0  0
  160.8180  206.3390  145.8750 O   0  0  0  0  0  0  0  0  0  0  0  0
  161.2150  205.4930  143.6760 C   0  0  0  0  0  1  0  0  0  0  0  0
  161.7740  205.7140  145.0700 C   0  0  2  0  0  3  0  0  0  0  0  0
  162.2010  204.3900  145.6900 C   0  0  0  0  0  2  0  0  0  0  0  0
  161.2370  203.4060  145.4610 O   0  0  0  0  0  0  0  0  0  0  0  0
  161.5600  202.3820  146.3540 C   0  0  0  0  0  2  0  0  0  0  0  0
  161.0070  200.1150  146.8860 O   0  0  0  0  0  1  0  0  0  0  0  0
  160.5040  201.2870  146.3200 C   0  0  2  0  0  3  0  0  0  0  0  0
  160.0510  201.0190  144.8980 C   0  0  0  0  0  1  0  0  0  0  0  0
  161.6470  209.3530  154.9870 C   0  0  2  0  0  3  0  0  0  0  0  0
  161.4350  206.9810  155.3120 O   0  0  0  0  0  0  0  0  0  0  0  0
  160.9570  208.1280  155.5140 C   0  0  0  0  0  0  0  0  0  0  0  0
  159.7060  208.2630  156.1780 N   0  0  0  0  0  1  0  0  0  0  0  0
  161.5970  210.4460  156.0520 C   0  0  0  0  0  2  0  0  0  0  0  0
  160.7990  211.6360  155.5550 C   0  0  0  0  0  2  0  0  0  0  0  0
  159.4280  211.5310  156.0260 N   0  0  0  0  0  2  0  0  0  0  0  0
  157.1780  212.0700  155.8450 O   0  0  0  0  0  0  0  0  0  0  0  0
  158.3440  212.2060  155.3860 C   0  0  0  0  0  0  0  0  0  0  0  0
  157.0360  214.1470  152.6370 C   0  0  0  0  0  2  0  0  0  0  0  0
  157.9420  213.2040  151.8730 C   0  0  0  0  0  2  0  0  0  0  0  0
  157.5390  214.1630  154.0700 C   0  0  0  0  0  2  0  0  0  0  0  0
  158.4920  212.2510  152.9070 C   0  0  0  0  0  2  0  0  0  0  0  0
  158.5800  213.0630  154.1800 C   0  0  0  0  0  3  0  0  0  0  0  0
  1  3  1  0  0  0  0
  2  1  2  0  0  0  0
  3 27  1  1  0  0  0
  4  2  1  0  0  0  0
  4  7  1  0  0  0  0
  5  3  1  0  0  0  0
  6  4  2  0  0  0  0
  7  5  2  0  0  0  0
  8  7  1  0  0  0  0
  9 11  2  0  0  0  0
  9 10  1  0  0  0  0
 11 14  1  0  0  0  0
 12 13  1  0  0  0  0
 12 15  2  0  0  0  0
 13  9  1  0  0  0  0
 15  8  1  0  0  0  0
 15 11  1  0  0  0  0
 16 12  1  0  0  0  0
 17 16  1  0  0  0  0
 18 17  1  0  0  0  0
 20 19  1  6  0  0  0
 20 21  1  0  0  0  0
 20 18  1  0  0  0  0
 22 21  1  0  0  0  0
 22 23  1  0  0  0  0
 25 26  1  6  0  0  0
 25 23  1  0  0  0  0
 25 24  1  0  0  0  0
 27 29  1  0  0  0  0
 27 31  1  1  0  0  0
 28 29  2  0  0  0  0
 29 30  1  0  0  0  0
 32 33  1  0  0  0  0
 32 31  1  0  0  0  0
 35 34  2  0  0  0  0
 35 33  1  0  0  0  0
 36 38  1  0  0  0  0
 37 36  1  0  0  0  0
 37 39  1  0  0  0  0
 38 40  1  0  0  0  0
 39 40  1  0  0  0  0
 40 35  1  0  0  0  0
M  END
>  <MODEL>
8

>  <REMARK>
 VINA RESULT:      -5.3      1.703      2.212
  Name = 
  16 active torsions:
  status: ('A' for Active; 'I' for Inactive)
    1  A    between atoms: C_3  and  C_19
    2  A    between atoms: O_4  and  C_8
    3  A    between atoms: O_4  and  C_35
    4  A    between atoms: C_7  and  C_8
    5  A    between atoms: C_7  and  C_33
    6  A    between atoms: N_9  and  C_27
    7  A    between atoms: C_10  and  O_16
    8  A    between atoms: C_10  and  C_35
    9  A    between atoms: C_12  and  C_19
   10  A    between atoms: C_12  and  C_27
   11  A    between atoms: O_16  and  C_38
   12  A    between atoms: C_18  and  C_19
   13  A    between atoms: C_21  and  C_38
   14  A    between atoms: C_29  and  C_30
   15  A    between atoms: C_32  and  N_34
   16  A    between atoms: N_34  and  C_40
                            x       y       z     vdW  Elec       q    Type
                         _______ _______ _______ _____ _____    ______ ____

>  <TORSDO>
F 16

$$$$
=
 OpenBabel11052412033D

 40 42  0  0  1  0  0  0  0  0999 V2000
  160.8050  211.3930  152.6520 C   0  0  0  0  0  3  0  0  0  0  0  0
  160.4610  210.1900  153.1100 C   0  0  0  0  0  3  0  0  0  0  0  0
  161.4730  211.5860  151.3050 C   0  0  1  0  0  3  0  0  0  0  0  0
  160.8360  208.9870  152.3610 C   0  0  0  0  0  0  0  0  0  0  0  0
  162.1500  210.3170  150.8160 C   0  0  0  0  0  3  0  0  0  0  0  0
  160.3910  207.8630  152.7160 O   0  0  0  0  0  0  0  0  0  0  0  0
  161.8050  209.0970  151.2580 C   0  0  0  0  0  0  0  0  0  0  0  0
  162.4980  207.9160  150.8320 N   0  0  0  0  0  2  0  0  0  0  0  0
  161.3290  204.4480  151.2070 C   0  0  0  0  0  0  0  0  0  0  0  0
  161.2040  203.2160  152.0330 C   0  0  0  0  0  1  0  0  0  0  0  0
  162.0070  205.6040  151.5590 C   0  0  0  0  0  0  0  0  0  0  0  0
  161.1830  206.2600  149.4720 C   0  0  0  0  0  0  0  0  0  0  0  0
  160.6040  204.6900  149.7150 S   0  0  0  0  0  0  0  0  0  0  0  0
  162.6830  205.7510  152.7640 O   0  0  0  0  0  1  0  0  0  0  0  0
  161.9400  206.6170  150.5920 C   0  0  0  0  0  0  0  0  0  0  0  0
  160.7290  207.1810  148.3850 C   0  0  0  0  0  2  0  0  0  0  0  0
  160.8290  206.5250  147.0170 C   0  0  0  0  0  2  0  0  0  0  0  0
  162.1680  206.4040  146.6420 O   0  0  0  0  0  0  0  0  0  0  0  0
  160.7220  205.6520  144.8960 C   0  0  0  0  0  1  0  0  0  0  0  0
  162.1410  205.7040  145.4330 C   0  0  2  0  0  3  0  0  0  0  0  0
  162.6890  204.2960  145.6280 C   0  0  0  0  0  2  0  0  0  0  0  0
  161.6480  203.3720  145.7320 O   0  0  0  0  0  0  0  0  0  0  0  0
  161.6540  202.9820  147.0730 C   0  0  0  0  0  2  0  0  0  0  0  0
  160.6890  201.0610  146.0220 O   0  0  0  0  0  1  0  0  0  0  0  0
  161.2640  201.5170  147.2080 C   0  0  2  0  0  3  0  0  0  0  0  0
  160.2960  201.3220  148.3580 C   0  0  0  0  0  1  0  0  0  0  0  0
  160.4470  212.1130  150.2840 C   0  0  2  0  0  3  0  0  0  0  0  0
  161.1380  211.5360  148.0560 O   0  0  0  0  0  0  0  0  0  0  0  0
  161.0610  212.4200  148.9500 C   0  0  0  0  0  0  0  0  0  0  0  0
  161.6370  213.7020  148.7250 N   0  0  0  0  0  1  0  0  0  0  0  0
  159.7490  213.3660  150.8080 C   0  0  0  0  0  2  0  0  0  0  0  0
  158.3690  213.0220  151.3360 C   0  0  0  0  0  2  0  0  0  0  0  0
  157.9920  213.9770  152.3650 N   0  0  0  0  0  2  0  0  0  0  0  0
  157.2330  214.4530  154.5060 O   0  0  0  0  0  0  0  0  0  0  0  0
  157.5430  213.5720  153.6590 C   0  0  0  0  0  0  0  0  0  0  0  0
  156.0040  210.9340  155.5850 C   0  0  0  0  0  2  0  0  0  0  0  0
  157.4550  210.6980  155.9470 C   0  0  0  0  0  2  0  0  0  0  0  0
  156.0040  211.7120  154.2810 C   0  0  0  0  0  2  0  0  0  0  0  0
  158.2220  211.8130  155.2770 C   0  0  0  0  0  2  0  0  0  0  0  0
  157.4430  212.1200  154.0160 C   0  0  0  0  0  3  0  0  0  0  0  0
  1  2  2  0  0  0  0
  3 27  1  6  0  0  0
  3  1  1  0  0  0  0
  4  6  2  0  0  0  0
  4  2  1  0  0  0  0
  5  7  2  0  0  0  0
  5  3  1  0  0  0  0
  7  4  1  0  0  0  0
  8  7  1  0  0  0  0
  9 11  2  0  0  0  0
  9 10  1  0  0  0  0
 11 14  1  0  0  0  0
 12 13  1  0  0  0  0
 12 15  2  0  0  0  0
 13  9  1  0  0  0  0
 15  8  1  0  0  0  0
 15 11  1  0  0  0  0
 16 12  1  0  0  0  0
 17 16  1  0  0  0  0
 18 17  1  0  0  0  0
 20 19  1  1  0  0  0
 20 21  1  0  0  0  0
 20 18  1  0  0  0  0
 21 22  1  0  0  0  0
 22 23  1  0  0  0  0
 23 25  1  0  0  0  0
 24 25  1  0  0  0  0
 25 26  1  1  0  0  0
 27 31  1  1  0  0  0
 28 29  2  0  0  0  0
 29 27  1  0  0  0  0
 30 29  1  0  0  0  0
 31 32  1  0  0  0  0
 32 33  1  0  0  0  0
 33 35  1  0  0  0  0
 35 40  1  0  0  0  0
 35 34  2  0  0  0  0
 36 37  1  0  0  0  0
 38 36  1  0  0  0  0
 39 37  1  0  0  0  0
 40 38  1  0  0  0  0
 40 39  1  0  0  0  0
M  END
>  <MODEL>
9

>  <REMARK>
 VINA RESULT:      -5.3      1.953      3.273
  Name = 
  16 active torsions:
  status: ('A' for Active; 'I' for Inactive)
    1  A    between atoms: C_3  and  C_19
    2  A    between atoms: O_4  and  C_8
    3  A    between atoms: O_4  and  C_35
    4  A    between atoms: C_7  and  C_8
    5  A    between atoms: C_7  and  C_33
    6  A    between atoms: N_9  and  C_27
    7  A    between atoms: C_10  and  O_16
    8  A    between atoms: C_10  and  C_35
    9  A    between atoms: C_12  and  C_19
   10  A    between atoms: C_12  and  C_27
   11  A    between atoms: O_16  and  C_38
   12  A    between atoms: C_18  and  C_19
   13  A    between atoms: C_21  and  C_38
   14  A    between atoms: C_29  and  C_30
   15  A    between atoms: C_32  and  N_34
   16  A    between atoms: N_34  and  C_40
                            x       y       z     vdW  Elec       q    Type
                         _______ _______ _______ _____ _____    ______ ____

>  <TORSDO>
F 16

$$$$
