=
 OpenBabel11052410373D

 25 26  0  0  1  0  0  0  0  0999 V2000
  161.8910  208.2540  149.8360 C   0  0  0  0  0  0  0  0  0  0  0  0
  161.9780  206.9560  151.7140 C   0  0  0  0  0  0  0  0  0  0  0  0
  162.3210  208.3420  151.2640 C   0  0  2  0  0  3  0  0  0  0  0  0
  161.4530  206.2310  150.7810 N   0  0  0  0  0  0  0  0  0  0  0  0
  161.4010  207.0360  149.6100 C   0  0  0  0  0  0  0  0  0  0  0  0
  160.9850  211.0260  153.1780 C   0  0  0  0  0  3  0  0  0  0  0  0
  161.5140  209.3640  152.0070 C   0  0  0  0  0  0  0  0  0  0  0  0
  159.8420  210.4140  152.8100 N   0  0  0  0  0  0  0  0  0  0  0  0
  160.1720  209.3690  152.0740 N   0  0  0  0  0  0  0  0  0  0  0  0
  162.0650  210.3860  152.6850 N   0  0  0  0  0  2  0  0  0  0  0  0
  162.0350  209.3610  148.8730 C   0  0  0  0  0  3  0  0  0  0  0  0
  161.9200  210.6000  149.2260 N   0  0  0  0  0  0  0  0  0  0  0  0
  163.5330  212.0480  148.1140 C   0  0  0  0  0  1  0  0  0  0  0  0
  162.0690  211.6720  148.2570 C   0  0  0  0  0  3  0  0  0  0  0  0
  161.2890  212.8820  148.7240 C   0  0  0  0  0  1  0  0  0  0  0  0
  161.6400  205.8730  147.4740 C   0  0  0  0  0  3  0  0  0  0  0  0
  160.8770  206.5500  148.3270 C   0  0  0  0  0  3  0  0  0  0  0  0
  161.5250  204.0720  145.7720 C   0  0  0  0  0  1  0  0  0  0  0  0
  160.2570  206.1940  145.3830 C   0  0  0  0  0  1  0  0  0  0  0  0
  161.1400  205.3950  146.2210 N   0  0  0  0  0  0  0  0  0  0  0  0
  162.1970  206.4460  153.0980 C   0  0  0  0  0  2  0  0  0  0  0  0
  160.8670  206.2410  153.7990 C   0  0  0  0  0  2  0  0  0  0  0  0
  160.7550  207.1720  154.9530 C   0  0  0  0  0  0  0  0  0  0  0  0
  159.6580  207.0650  155.8510 N   0  0  0  0  0  1  0  0  0  0  0  0
  161.6480  208.0370  155.1530 O   0  0  0  0  0  0  0  0  0  0  0  0
  1  3  1  0  0  0  0
  2 21  1  0  0  0  0
  3  2  1  0  0  0  0
  3  7  1  1  0  0  0
  4  2  2  0  0  0  0
  5  1  2  0  0  0  0
  5  4  1  0  0  0  0
  7  9  2  0  0  0  0
  7 10  1  0  0  0  0
  8  6  2  0  0  0  0
  9  8  1  0  0  0  0
 10  6  1  0  0  0  0
 11 12  2  0  0  0  0
 11  1  1  0  0  0  0
 13 14  1  0  0  0  0
 14 15  1  0  0  0  0
 14 12  1  0  0  0  0
 16 17  2  0  0  0  0
 17  5  1  0  0  0  0
 18 20  1  0  0  0  0
 19 20  1  0  0  0  0
 20 16  1  0  0  0  0
 21 22  1  0  0  0  0
 22 23  1  0  0  0  0
 23 25  2  0  0  0  0
 23 24  1  0  0  0  0
M  END
>  <MODEL>
1

>  <REMARK>
 VINA RESULT:      -6.3      0.000      0.000
  Name = 
  8 active torsions:
  status: ('A' for Active; 'I' for Inactive)
    1  A    between atoms: C_2  and  C_5
    2  A    between atoms: C_3  and  N_23
    3  A    between atoms: C_4  and  C_21
    4  A    between atoms: C_6  and  C_11
    5  A    between atoms: C_7  and  C_24
    6  A    between atoms: C_8  and  C_9
    7  A    between atoms: C_8  and  C_21
    8  A    between atoms: C_18  and  N_25
                            x       y       z     vdW  Elec       q    Type
                         _______ _______ _______ _____ _____    ______ ____

>  <TORSDO>
F 8

$$$$
=
 OpenBabel11052410373D

 25 26  0  0  1  0  0  0  0  0999 V2000
  161.4870  207.4930  152.3970 C   0  0  0  0  0  0  0  0  0  0  0  0
  162.1400  207.5150  150.2080 C   0  0  0  0  0  0  0  0  0  0  0  0
  162.2490  206.6510  151.4260 C   0  0  2  0  0  3  0  0  0  0  0  0
  161.4610  208.5960  150.4080 N   0  0  0  0  0  0  0  0  0  0  0  0
  161.0550  208.5870  151.7700 C   0  0  0  0  0  0  0  0  0  0  0  0
  161.1380  203.2760  151.2620 C   0  0  0  0  0  3  0  0  0  0  0  0
  161.5720  205.3310  151.2110 C   0  0  0  0  0  0  0  0  0  0  0  0
  160.1570  203.8750  150.5600 N   0  0  0  0  0  2  0  0  0  0  0  0
  160.4270  205.1670  150.5260 N   0  0  0  0  0  0  0  0  0  0  0  0
  162.0520  204.1700  151.6910 N   0  0  0  0  0  0  0  0  0  0  0  0
  161.2980  207.1310  153.8140 C   0  0  0  0  0  3  0  0  0  0  0  0
  161.4500  207.9880  154.7700 N   0  0  0  0  0  0  0  0  0  0  0  0
  159.7910  207.2990  156.4160 C   0  0  0  0  0  1  0  0  0  0  0  0
  161.2560  207.6050  156.1580 C   0  0  0  0  0  3  0  0  0  0  0  0
  161.6900  208.7410  157.0580 C   0  0  0  0  0  1  0  0  0  0  0  0
  160.8240  210.8300  152.7120 C   0  0  0  0  0  3  0  0  0  0  0  0
  160.2700  209.6670  152.3800 C   0  0  0  0  0  3  0  0  0  0  0  0
  160.0720  212.0270  154.7500 C   0  0  0  0  0  1  0  0  0  0  0  0
  159.2980  212.8340  152.5110 C   0  0  0  0  0  1  0  0  0  0  0  0
  160.0690  211.8890  153.3070 N   0  0  0  0  0  0  0  0  0  0  0  0
  162.7360  207.1750  148.8850 C   0  0  0  0  0  2  0  0  0  0  0  0
  161.6410  206.9600  147.8550 C   0  0  0  0  0  2  0  0  0  0  0  0
  161.9330  205.7410  147.0540 C   0  0  0  0  0  0  0  0  0  0  0  0
  162.3140  205.8610  145.6900 N   0  0  0  0  0  1  0  0  0  0  0  0
  161.8730  204.6040  147.5920 O   0  0  0  0  0  0  0  0  0  0  0  0
  1 11  1  0  0  0  0
  2  4  2  0  0  0  0
  2  3  1  0  0  0  0
  3  7  1  6  0  0  0
  3  1  1  0  0  0  0
  4  5  1  0  0  0  0
  5 17  1  0  0  0  0
  5  1  2  0  0  0  0
  6 10  2  0  0  0  0
  7 10  1  0  0  0  0
  8  6  1  0  0  0  0
  9  8  1  0  0  0  0
  9  7  2  0  0  0  0
 11 12  2  0  0  0  0
 12 14  1  0  0  0  0
 14 13  1  0  0  0  0
 14 15  1  0  0  0  0
 16 20  1  0  0  0  0
 17 16  2  0  0  0  0
 19 20  1  0  0  0  0
 20 18  1  0  0  0  0
 21  2  1  0  0  0  0
 22 21  1  0  0  0  0
 23 25  2  0  0  0  0
 23 22  1  0  0  0  0
 24 23  1  0  0  0  0
M  END
>  <MODEL>
2

>  <REMARK>
 VINA RESULT:      -6.2      2.748      7.127
  Name = 
  8 active torsions:
  status: ('A' for Active; 'I' for Inactive)
    1  A    between atoms: C_2  and  C_5
    2  A    between atoms: C_3  and  N_23
    3  A    between atoms: C_4  and  C_21
    4  A    between atoms: C_6  and  C_11
    5  A    between atoms: C_7  and  C_24
    6  A    between atoms: C_8  and  C_9
    7  A    between atoms: C_8  and  C_21
    8  A    between atoms: C_18  and  N_25
                            x       y       z     vdW  Elec       q    Type
                         _______ _______ _______ _____ _____    ______ ____

>  <TORSDO>
F 8

$$$$
=
 OpenBabel11052410373D

 25 26  0  0  1  0  0  0  0  0999 V2000
  161.1040  206.6110  149.6020 C   0  0  0  0  0  0  0  0  0  0  0  0
  161.7470  208.7030  150.2580 C   0  0  0  0  0  0  0  0  0  0  0  0
  160.8840  207.5720  150.7250 C   0  0  2  0  0  3  0  0  0  0  0  0
  162.3460  208.4600  149.1400 N   0  0  0  0  0  0  0  0  0  0  0  0
  161.9460  207.1600  148.7270 C   0  0  0  0  0  0  0  0  0  0  0  0
  161.5520  206.5200  154.0570 C   0  0  0  0  0  3  0  0  0  0  0  0
  161.3880  207.0100  152.0200 C   0  0  0  0  0  0  0  0  0  0  0  0
  162.6110  205.9750  153.4270 N   0  0  0  0  0  0  0  0  0  0  0  0
  162.5110  206.2810  152.1460 N   0  0  0  0  0  0  0  0  0  0  0  0
  160.7560  207.1840  153.1940 N   0  0  0  0  0  2  0  0  0  0  0  0
  160.4470  205.2940  149.5180 C   0  0  0  0  0  3  0  0  0  0  0  0
  161.1050  204.1870  149.6390 N   0  0  0  0  0  0  0  0  0  0  0  0
  160.8680  202.0060  150.7010 C   0  0  0  0  0  1  0  0  0  0  0  0
  160.4320  202.9020  149.5550 C   0  0  0  0  0  3  0  0  0  0  0  0
  160.7860  202.2360  148.2430 C   0  0  0  0  0  1  0  0  0  0  0  0
  161.5600  206.0220  146.5990 C   0  0  0  0  0  3  0  0  0  0  0  0
  162.4120  206.5350  147.4830 C   0  0  0  0  0  3  0  0  0  0  0  0
  163.1750  204.5590  145.4140 C   0  0  0  0  0  1  0  0  0  0  0  0
  161.3150  205.6160  144.1170 C   0  0  0  0  0  1  0  0  0  0  0  0
  162.0030  205.4110  145.3830 N   0  0  0  0  0  0  0  0  0  0  0  0
  161.9220  209.9840  151.0010 C   0  0  0  0  0  2  0  0  0  0  0  0
  160.6570  210.3220  151.7690 C   0  0  0  0  0  2  0  0  0  0  0  0
  161.0090  210.8500  153.1140 C   0  0  0  0  0  0  0  0  0  0  0  0
  160.2110  211.8640  153.7120 N   0  0  0  0  0  1  0  0  0  0  0  0
  161.9950  210.3770  153.7380 O   0  0  0  0  0  0  0  0  0  0  0  0
  1  3  1  0  0  0  0
  2  3  1  0  0  0  0
  2 21  1  0  0  0  0
  3  7  1  1  0  0  0
  4  2  2  0  0  0  0
  5  4  1  0  0  0  0
  5  1  2  0  0  0  0
  7  9  2  0  0  0  0
  7 10  1  0  0  0  0
  8  6  2  0  0  0  0
  9  8  1  0  0  0  0
 10  6  1  0  0  0  0
 11  1  1  0  0  0  0
 11 12  2  0  0  0  0
 14 12  1  0  0  0  0
 14 13  1  0  0  0  0
 15 14  1  0  0  0  0
 16 17  2  0  0  0  0
 17  5  1  0  0  0  0
 19 20  1  0  0  0  0
 20 18  1  0  0  0  0
 20 16  1  0  0  0  0
 21 22  1  0  0  0  0
 22 23  1  0  0  0  0
 23 24  1  0  0  0  0
 23 25  2  0  0  0  0
M  END
>  <MODEL>
3

>  <REMARK>
 VINA RESULT:      -6.1      2.097      4.800
  Name = 
  8 active torsions:
  status: ('A' for Active; 'I' for Inactive)
    1  A    between atoms: C_2  and  C_5
    2  A    between atoms: C_3  and  N_23
    3  A    between atoms: C_4  and  C_21
    4  A    between atoms: C_6  and  C_11
    5  A    between atoms: C_7  and  C_24
    6  A    between atoms: C_8  and  C_9
    7  A    between atoms: C_8  and  C_21
    8  A    between atoms: C_18  and  N_25
                            x       y       z     vdW  Elec       q    Type
                         _______ _______ _______ _____ _____    ______ ____

>  <TORSDO>
F 8

$$$$
=
 OpenBabel11052410373D

 25 26  0  0  1  0  0  0  0  0999 V2000
  161.0830  206.5840  149.3980 C   0  0  0  0  0  0  0  0  0  0  0  0
  161.6950  208.7340  149.8680 C   0  0  0  0  0  0  0  0  0  0  0  0
  160.8410  207.6390  150.4280 C   0  0  2  0  0  3  0  0  0  0  0  0
  162.3090  208.3980  148.7810 N   0  0  0  0  0  0  0  0  0  0  0  0
  161.9280  207.0610  148.4850 C   0  0  0  0  0  0  0  0  0  0  0  0
  161.5150  206.9420  153.8500 C   0  0  0  0  0  3  0  0  0  0  0  0
  161.3380  207.2020  151.7730 C   0  0  0  0  0  0  0  0  0  0  0  0
  162.5310  206.2700  153.2740 N   0  0  0  0  0  0  0  0  0  0  0  0
  162.4220  206.4320  151.9680 N   0  0  0  0  0  0  0  0  0  0  0  0
  160.7390  207.5450  152.9260 N   0  0  0  0  0  2  0  0  0  0  0  0
  160.4420  205.2560  149.4280 C   0  0  0  0  0  3  0  0  0  0  0  0
  161.1250  204.1640  149.5380 N   0  0  0  0  0  0  0  0  0  0  0  0
  160.9280  202.0750  150.7780 C   0  0  0  0  0  1  0  0  0  0  0  0
  160.4680  202.8690  149.5670 C   0  0  0  0  0  3  0  0  0  0  0  0
  160.8160  202.1010  148.3100 C   0  0  0  0  0  1  0  0  0  0  0  0
  161.5860  205.9390  146.3410 C   0  0  0  0  0  3  0  0  0  0  0  0
  162.4120  206.3330  147.3060 C   0  0  0  0  0  3  0  0  0  0  0  0
  161.3740  205.4350  143.9210 C   0  0  0  0  0  1  0  0  0  0  0  0
  163.1710  204.3040  145.2450 C   0  0  0  0  0  1  0  0  0  0  0  0
  162.0480  205.2280  145.1880 N   0  0  0  0  0  0  0  0  0  0  0  0
  161.8480  210.0790  150.4930 C   0  0  0  0  0  2  0  0  0  0  0  0
  162.4950  211.0420  149.5150 C   0  0  0  0  0  2  0  0  0  0  0  0
  161.4680  211.9650  148.9610 C   0  0  0  0  0  0  0  0  0  0  0  0
  161.1710  211.9480  147.5700 N   0  0  0  0  0  1  0  0  0  0  0  0
  160.8380  212.7400  149.7280 O   0  0  0  0  0  0  0  0  0  0  0  0
  1 11  1  0  0  0  0
  1  3  1  0  0  0  0
  2  3  1  0  0  0  0
  2 21  1  0  0  0  0
  3  7  1  1  0  0  0
  4  2  2  0  0  0  0
  5  4  1  0  0  0  0
  5  1  2  0  0  0  0
  7  9  2  0  0  0  0
  7 10  1  0  0  0  0
  8  6  2  0  0  0  0
  9  8  1  0  0  0  0
 10  6  1  0  0  0  0
 11 12  2  0  0  0  0
 12 14  1  0  0  0  0
 14 13  1  0  0  0  0
 15 14  1  0  0  0  0
 16 17  2  0  0  0  0
 17  5  1  0  0  0  0
 18 20  1  0  0  0  0
 20 19  1  0  0  0  0
 20 16  1  0  0  0  0
 22 21  1  0  0  0  0
 23 22  1  0  0  0  0
 23 25  2  0  0  0  0
 24 23  1  0  0  0  0
M  END
>  <MODEL>
4

>  <REMARK>
 VINA RESULT:      -6.0      2.521      5.525
  Name = 
  8 active torsions:
  status: ('A' for Active; 'I' for Inactive)
    1  A    between atoms: C_2  and  C_5
    2  A    between atoms: C_3  and  N_23
    3  A    between atoms: C_4  and  C_21
    4  A    between atoms: C_6  and  C_11
    5  A    between atoms: C_7  and  C_24
    6  A    between atoms: C_8  and  C_9
    7  A    between atoms: C_8  and  C_21
    8  A    between atoms: C_18  and  N_25
                            x       y       z     vdW  Elec       q    Type
                         _______ _______ _______ _____ _____    ______ ____

>  <TORSDO>
F 8

$$$$
=
 OpenBabel11052410373D

 25 26  0  0  1  0  0  0  0  0999 V2000
  161.8650  206.9910  150.8760 C   0  0  0  0  0  0  0  0  0  0  0  0
  162.0430  208.9790  149.7640 C   0  0  0  0  0  0  0  0  0  0  0  0
  162.4120  207.5370  149.5970 C   0  0  2  0  0  3  0  0  0  0  0  0
  161.4120  209.2200  150.8650 N   0  0  0  0  0  0  0  0  0  0  0  0
  161.3020  207.9850  151.5610 C   0  0  0  0  0  0  0  0  0  0  0  0
  161.3570  206.0810  146.5290 C   0  0  0  0  0  3  0  0  0  0  0  0
  161.7160  206.9370  148.4140 C   0  0  0  0  0  0  0  0  0  0  0  0
  160.1680  206.1890  147.1530 N   0  0  0  0  0  2  0  0  0  0  0  0
  160.3900  206.7260  148.3380 N   0  0  0  0  0  0  0  0  0  0  0  0
  162.3610  206.5460  147.3000 N   0  0  0  0  0  0  0  0  0  0  0  0
  161.9820  205.5750  151.2710 C   0  0  0  0  0  3  0  0  0  0  0  0
  161.3120  204.6380  150.6830 N   0  0  0  0  0  0  0  0  0  0  0  0
  160.7410  202.3420  150.1020 C   0  0  0  0  0  1  0  0  0  0  0  0
  161.4480  203.2510  151.0920 C   0  0  0  0  0  3  0  0  0  0  0  0
  160.8300  203.0690  152.4610 C   0  0  0  0  0  1  0  0  0  0  0  0
  160.9540  208.6760  153.8790 C   0  0  0  0  0  3  0  0  0  0  0  0
  160.6550  207.8590  152.8730 C   0  0  0  0  0  3  0  0  0  0  0  0
  159.8410  209.7620  155.8110 C   0  0  0  0  0  1  0  0  0  0  0  0
  160.1680  207.2820  155.8350 C   0  0  0  0  0  1  0  0  0  0  0  0
  160.3290  208.5620  155.1620 N   0  0  0  0  0  0  0  0  0  0  0  0
  162.3500  210.0420  148.7650 C   0  0  0  0  0  2  0  0  0  0  0  0
  161.9570  211.4030  149.3100 C   0  0  0  0  0  2  0  0  0  0  0  0
  162.3070  212.4620  148.3250 C   0  0  0  0  0  0  0  0  0  0  0  0
  161.3190  213.3910  147.8980 N   0  0  0  0  0  1  0  0  0  0  0  0
  163.4860  212.5560  147.8930 O   0  0  0  0  0  0  0  0  0  0  0  0
  1 11  1  0  0  0  0
  1  5  2  0  0  0  0
  2  4  2  0  0  0  0
  3  7  1  6  0  0  0
  3  2  1  0  0  0  0
  3  1  1  0  0  0  0
  4  5  1  0  0  0  0
  5 17  1  0  0  0  0
  6  8  1  0  0  0  0
  6 10  2  0  0  0  0
  8  9  1  0  0  0  0
  9  7  2  0  0  0  0
 10  7  1  0  0  0  0
 12 14  1  0  0  0  0
 12 11  2  0  0  0  0
 13 14  1  0  0  0  0
 14 15  1  0  0  0  0
 16 20  1  0  0  0  0
 17 16  2  0  0  0  0
 20 18  1  0  0  0  0
 20 19  1  0  0  0  0
 21 22  1  0  0  0  0
 21  2  1  0  0  0  0
 23 22  1  0  0  0  0
 24 23  1  0  0  0  0
 25 23  2  0  0  0  0
M  END
>  <MODEL>
5

>  <REMARK>
 VINA RESULT:      -6.0      2.691      7.292
  Name = 
  8 active torsions:
  status: ('A' for Active; 'I' for Inactive)
    1  A    between atoms: C_2  and  C_5
    2  A    between atoms: C_3  and  N_23
    3  A    between atoms: C_4  and  C_21
    4  A    between atoms: C_6  and  C_11
    5  A    between atoms: C_7  and  C_24
    6  A    between atoms: C_8  and  C_9
    7  A    between atoms: C_8  and  C_21
    8  A    between atoms: C_18  and  N_25
                            x       y       z     vdW  Elec       q    Type
                         _______ _______ _______ _____ _____    ______ ____

>  <TORSDO>
F 8

$$$$
=
 OpenBabel11052410373D

 25 26  0  0  1  0  0  0  0  0999 V2000
  161.7370  206.2480  150.5390 C   0  0  0  0  0  0  0  0  0  0  0  0
  161.7340  206.2220  152.8230 C   0  0  0  0  0  0  0  0  0  0  0  0
  162.2640  207.0430  151.6890 C   0  0  2  0  0  3  0  0  0  0  0  0
  161.0440  205.2000  152.4360 N   0  0  0  0  0  0  0  0  0  0  0  0
  161.0470  205.2120  151.0140 C   0  0  0  0  0  0  0  0  0  0  0  0
  161.4370  210.4950  151.4550 C   0  0  0  0  0  3  0  0  0  0  0  0
  161.6770  208.4220  151.7030 C   0  0  0  0  0  0  0  0  0  0  0  0
  160.3030  210.0240  152.0100 N   0  0  0  0  0  0  0  0  0  0  0  0
  160.4510  208.7210  152.1670 N   0  0  0  0  0  0  0  0  0  0  0  0
  162.3300  209.5050  151.2470 N   0  0  0  0  0  2  0  0  0  0  0  0
  161.9940  206.5900  149.1280 C   0  0  0  0  0  3  0  0  0  0  0  0
  161.6480  205.8110  148.1560 N   0  0  0  0  0  0  0  0  0  0  0  0
  160.6150  206.2040  145.9850 C   0  0  0  0  0  1  0  0  0  0  0  0
  161.9120  206.1740  146.7750 C   0  0  0  0  0  3  0  0  0  0  0  0
  162.8450  205.1540  146.1570 C   0  0  0  0  0  1  0  0  0  0  0  0
  160.9920  203.0700  149.8400 C   0  0  0  0  0  3  0  0  0  0  0  0
  160.3740  204.1900  150.2040 C   0  0  0  0  0  3  0  0  0  0  0  0
  160.8250  201.8180  147.7050 C   0  0  0  0  0  1  0  0  0  0  0  0
  159.2230  201.2880  149.5520 C   0  0  0  0  0  1  0  0  0  0  0  0
  160.3460  202.0670  149.0500 N   0  0  0  0  0  0  0  0  0  0  0  0
  161.9560  206.5410  154.2630 C   0  0  0  0  0  2  0  0  0  0  0  0
  160.6460  206.9320  154.9220 C   0  0  0  0  0  2  0  0  0  0  0  0
  160.8430  208.1480  155.7570 C   0  0  0  0  0  0  0  0  0  0  0  0
  159.8560  209.1710  155.7680 N   0  0  0  0  0  1  0  0  0  0  0  0
  161.8690  208.2570  156.4770 O   0  0  0  0  0  0  0  0  0  0  0  0
  1  5  2  0  0  0  0
  1  3  1  0  0  0  0
  2 21  1  0  0  0  0
  3  7  1  1  0  0  0
  3  2  1  0  0  0  0
  4  2  2  0  0  0  0
  5  4  1  0  0  0  0
  6  8  2  0  0  0  0
  7  9  2  0  0  0  0
  8  9  1  0  0  0  0
 10  6  1  0  0  0  0
 10  7  1  0  0  0  0
 11  1  1  0  0  0  0
 12 11  2  0  0  0  0
 13 14  1  0  0  0  0
 14 12  1  0  0  0  0
 15 14  1  0  0  0  0
 16 17  2  0  0  0  0
 17  5  1  0  0  0  0
 18 20  1  0  0  0  0
 20 19  1  0  0  0  0
 20 16  1  0  0  0  0
 21 22  1  0  0  0  0
 22 23  1  0  0  0  0
 23 24  1  0  0  0  0
 23 25  2  0  0  0  0
M  END
>  <MODEL>
6

>  <REMARK>
 VINA RESULT:      -5.7      2.141      3.537
  Name = 
  8 active torsions:
  status: ('A' for Active; 'I' for Inactive)
    1  A    between atoms: C_2  and  C_5
    2  A    between atoms: C_3  and  N_23
    3  A    between atoms: C_4  and  C_21
    4  A    between atoms: C_6  and  C_11
    5  A    between atoms: C_7  and  C_24
    6  A    between atoms: C_8  and  C_9
    7  A    between atoms: C_8  and  C_21
    8  A    between atoms: C_18  and  N_25
                            x       y       z     vdW  Elec       q    Type
                         _______ _______ _______ _____ _____    ______ ____

>  <TORSDO>
F 8

$$$$
=
 OpenBabel11052410373D

 25 26  0  0  1  0  0  0  0  0999 V2000
  161.3360  208.0710  152.3330 C   0  0  0  0  0  0  0  0  0  0  0  0
  161.3280  208.1940  154.6140 C   0  0  0  0  0  0  0  0  0  0  0  0
  161.5930  209.0600  153.4230 C   0  0  2  0  0  3  0  0  0  0  0  0
  160.9790  206.9890  154.3030 N   0  0  0  0  0  0  0  0  0  0  0  0
  160.9860  206.9080  152.8830 C   0  0  0  0  0  0  0  0  0  0  0  0
  159.7770  212.1180  153.4920 C   0  0  0  0  0  3  0  0  0  0  0  0
  160.6190  210.1980  153.3570 C   0  0  0  0  0  0  0  0  0  0  0  0
  158.8180  211.2910  153.0300 N   0  0  0  0  0  2  0  0  0  0  0  0
  159.3440  210.0840  152.9440 N   0  0  0  0  0  0  0  0  0  0  0  0
  160.9320  211.4570  153.7110 N   0  0  0  0  0  0  0  0  0  0  0  0
  161.4860  208.3810  150.9000 C   0  0  0  0  0  3  0  0  0  0  0  0
  162.3280  207.7570  150.1440 N   0  0  0  0  0  0  0  0  0  0  0  0
  161.9520  209.4920  148.4750 C   0  0  0  0  0  1  0  0  0  0  0  0
  162.4540  208.0820  148.7330 C   0  0  0  0  0  3  0  0  0  0  0  0
  161.6320  207.1060  147.9190 C   0  0  0  0  0  1  0  0  0  0  0  0
  161.6000  204.9080  151.6210 C   0  0  0  0  0  3  0  0  0  0  0  0
  160.6550  205.6810  152.1490 C   0  0  0  0  0  3  0  0  0  0  0  0
  161.2060  202.4590  151.6320 C   0  0  0  0  0  1  0  0  0  0  0  0
  161.0540  203.7050  149.4670 C   0  0  0  0  0  1  0  0  0  0  0  0
  161.2890  203.7100  150.9040 N   0  0  0  0  0  0  0  0  0  0  0  0
  161.4370  208.6580  156.0270 C   0  0  0  0  0  2  0  0  0  0  0  0
  160.0640  209.0100  156.5710 C   0  0  0  0  0  2  0  0  0  0  0  0
  160.0120  210.4570  156.9140 C   0  0  0  0  0  0  0  0  0  0  0  0
  158.7610  211.1280  156.9820 N   0  0  0  0  0  1  0  0  0  0  0  0
  161.0750  211.0800  157.1750 O   0  0  0  0  0  0  0  0  0  0  0  0
  1  5  2  0  0  0  0
  1  3  1  0  0  0  0
  2 21  1  0  0  0  0
  3  7  1  6  0  0  0
  3  2  1  0  0  0  0
  4  2  2  0  0  0  0
  5  4  1  0  0  0  0
  6 10  2  0  0  0  0
  7 10  1  0  0  0  0
  8  6  1  0  0  0  0
  9  8  1  0  0  0  0
  9  7  2  0  0  0  0
 11  1  1  0  0  0  0
 12 11  2  0  0  0  0
 13 14  1  0  0  0  0
 14 12  1  0  0  0  0
 15 14  1  0  0  0  0
 16 17  2  0  0  0  0
 17  5  1  0  0  0  0
 19 20  1  0  0  0  0
 20 16  1  0  0  0  0
 20 18  1  0  0  0  0
 21 22  1  0  0  0  0
 22 23  1  0  0  0  0
 23 24  1  0  0  0  0
 23 25  2  0  0  0  0
M  END
>  <MODEL>
7

>  <REMARK>
 VINA RESULT:      -5.2      2.250      3.620
  Name = 
  8 active torsions:
  status: ('A' for Active; 'I' for Inactive)
    1  A    between atoms: C_2  and  C_5
    2  A    between atoms: C_3  and  N_23
    3  A    between atoms: C_4  and  C_21
    4  A    between atoms: C_6  and  C_11
    5  A    between atoms: C_7  and  C_24
    6  A    between atoms: C_8  and  C_9
    7  A    between atoms: C_8  and  C_21
    8  A    between atoms: C_18  and  N_25
                            x       y       z     vdW  Elec       q    Type
                         _______ _______ _______ _____ _____    ______ ____

>  <TORSDO>
F 8

$$$$
=
 OpenBabel11052410373D

 25 26  0  0  1  0  0  0  0  0999 V2000
  161.2050  207.8270  149.7470 C   0  0  0  0  0  0  0  0  0  0  0  0
  161.0690  208.3430  151.9680 C   0  0  0  0  0  0  0  0  0  0  0  0
  160.7090  207.2370  151.0260 C   0  0  2  0  0  3  0  0  0  0  0  0
  161.6540  209.3380  151.3880 N   0  0  0  0  0  0  0  0  0  0  0  0
  161.7380  209.0220  150.0040 C   0  0  0  0  0  0  0  0  0  0  0  0
  161.9340  203.9520  151.6300 C   0  0  0  0  0  3  0  0  0  0  0  0
  161.4550  205.9800  151.3630 C   0  0  0  0  0  0  0  0  0  0  0  0
  163.0090  204.6720  152.0100 N   0  0  0  0  0  0  0  0  0  0  0  0
  162.7100  205.9470  151.8430 N   0  0  0  0  0  0  0  0  0  0  0  0
  160.9300  204.7510  151.2140 N   0  0  0  0  0  2  0  0  0  0  0  0
  161.0750  207.1600  148.4380 C   0  0  0  0  0  3  0  0  0  0  0  0
  162.0440  206.4870  147.9090 N   0  0  0  0  0  0  0  0  0  0  0  0
  160.5470  206.2040  146.0080 C   0  0  0  0  0  1  0  0  0  0  0  0
  161.8880  205.8380  146.6190 C   0  0  0  0  0  3  0  0  0  0  0  0
  161.9560  204.3370  146.8020 C   0  0  0  0  0  1  0  0  0  0  0  0
  161.8740  211.1600  148.8300 C   0  0  0  0  0  3  0  0  0  0  0  0
  162.3320  209.9240  149.0100 C   0  0  0  0  0  3  0  0  0  0  0  0
  163.8850  212.2180  147.8330 C   0  0  0  0  0  1  0  0  0  0  0  0
  161.6290  212.7870  146.9110 C   0  0  0  0  0  1  0  0  0  0  0  0
  162.4450  212.0480  147.8640 N   0  0  0  0  0  0  0  0  0  0  0  0
  160.8010  208.3140  153.4350 C   0  0  0  0  0  2  0  0  0  0  0  0
  160.7340  209.7280  153.9840 C   0  0  0  0  0  2  0  0  0  0  0  0
  161.4450  209.7970  155.2890 C   0  0  0  0  0  0  0  0  0  0  0  0
  162.5280  210.7010  155.4620 N   0  0  0  0  0  1  0  0  0  0  0  0
  161.0670  209.0770  156.2510 O   0  0  0  0  0  0  0  0  0  0  0  0
  1  5  2  0  0  0  0
  1  3  1  0  0  0  0
  2 21  1  0  0  0  0
  3  7  1  1  0  0  0
  3  2  1  0  0  0  0
  4  2  2  0  0  0  0
  5  4  1  0  0  0  0
  6  8  2  0  0  0  0
  7  9  2  0  0  0  0
  9  8  1  0  0  0  0
 10  7  1  0  0  0  0
 10  6  1  0  0  0  0
 11  1  1  0  0  0  0
 12 11  2  0  0  0  0
 13 14  1  0  0  0  0
 14 15  1  0  0  0  0
 14 12  1  0  0  0  0
 16 17  2  0  0  0  0
 17  5  1  0  0  0  0
 18 20  1  0  0  0  0
 19 20  1  0  0  0  0
 20 16  1  0  0  0  0
 21 22  1  0  0  0  0
 22 23  1  0  0  0  0
 23 24  1  0  0  0  0
 23 25  2  0  0  0  0
M  END
>  <MODEL>
8

>  <REMARK>
 VINA RESULT:      -5.2      1.742      5.043
  Name = 
  8 active torsions:
  status: ('A' for Active; 'I' for Inactive)
    1  A    between atoms: C_2  and  C_5
    2  A    between atoms: C_3  and  N_23
    3  A    between atoms: C_4  and  C_21
    4  A    between atoms: C_6  and  C_11
    5  A    between atoms: C_7  and  C_24
    6  A    between atoms: C_8  and  C_9
    7  A    between atoms: C_8  and  C_21
    8  A    between atoms: C_18  and  N_25
                            x       y       z     vdW  Elec       q    Type
                         _______ _______ _______ _____ _____    ______ ____

>  <TORSDO>
F 8

$$$$
=
 OpenBabel11052410373D

 25 26  0  0  1  0  0  0  0  0999 V2000
  162.0700  208.3270  149.3960 C   0  0  0  0  0  0  0  0  0  0  0  0
  161.9950  206.7160  151.0140 C   0  0  0  0  0  0  0  0  0  0  0  0
  162.4420  208.1330  150.8300 C   0  0  2  0  0  3  0  0  0  0  0  0
  161.4680  206.2040  149.9520 N   0  0  0  0  0  0  0  0  0  0  0  0
  161.5150  207.2030  148.9410 C   0  0  0  0  0  0  0  0  0  0  0  0
  161.1690  210.6590  152.9870 C   0  0  0  0  0  3  0  0  0  0  0  0
  161.6680  209.0620  151.7170 C   0  0  0  0  0  0  0  0  0  0  0  0
  160.0550  209.9200  152.8150 N   0  0  0  0  0  0  0  0  0  0  0  0
  160.3660  208.9150  152.0170 N   0  0  0  0  0  0  0  0  0  0  0  0
  162.2110  210.1430  152.3040 N   0  0  0  0  0  2  0  0  0  0  0  0
  162.3220  209.5740  148.6510 C   0  0  0  0  0  3  0  0  0  0  0  0
  161.6270  210.6470  148.8480 N   0  0  0  0  0  0  0  0  0  0  0  0
  163.3960  212.1160  148.0410 C   0  0  0  0  0  1  0  0  0  0  0  0
  161.9000  211.8630  148.1010 C   0  0  0  0  0  3  0  0  0  0  0  0
  161.2260  213.0330  148.7850 C   0  0  0  0  0  1  0  0  0  0  0  0
  161.4780  205.9980  146.8160 C   0  0  0  0  0  3  0  0  0  0  0  0
  161.0180  206.9870  147.5770 C   0  0  0  0  0  3  0  0  0  0  0  0
  159.5840  205.9220  145.2160 C   0  0  0  0  0  1  0  0  0  0  0  0
  161.8910  205.4140  144.3920 C   0  0  0  0  0  1  0  0  0  0  0  0
  161.0010  205.7780  145.4850 N   0  0  0  0  0  0  0  0  0  0  0  0
  162.1240  205.9580  152.2920 C   0  0  0  0  0  2  0  0  0  0  0  0
  162.4710  204.5080  152.0090 C   0  0  0  0  0  2  0  0  0  0  0  0
  161.2270  203.6950  151.9380 C   0  0  0  0  0  0  0  0  0  0  0  0
  160.9930  202.8480  150.8200 N   0  0  0  0  0  1  0  0  0  0  0  0
  160.3960  203.7320  152.8830 O   0  0  0  0  0  0  0  0  0  0  0  0
  1  3  1  0  0  0  0
  2 21  1  0  0  0  0
  3  2  1  0  0  0  0
  3  7  1  1  0  0  0
  4  2  2  0  0  0  0
  5  1  2  0  0  0  0
  5  4  1  0  0  0  0
  7  9  2  0  0  0  0
  7 10  1  0  0  0  0
  8  6  2  0  0  0  0
  9  8  1  0  0  0  0
 10  6  1  0  0  0  0
 11 12  2  0  0  0  0
 11  1  1  0  0  0  0
 13 14  1  0  0  0  0
 14 15  1  0  0  0  0
 14 12  1  0  0  0  0
 16 17  2  0  0  0  0
 17  5  1  0  0  0  0
 18 20  1  0  0  0  0
 19 20  1  0  0  0  0
 20 16  1  0  0  0  0
 22 21  1  0  0  0  0
 23 22  1  0  0  0  0
 23 25  2  0  0  0  0
 24 23  1  0  0  0  0
M  END
>  <MODEL>
9

>  <REMARK>
 VINA RESULT:      -5.1      1.653      2.180
  Name = 
  8 active torsions:
  status: ('A' for Active; 'I' for Inactive)
    1  A    between atoms: C_2  and  C_5
    2  A    between atoms: C_3  and  N_23
    3  A    between atoms: C_4  and  C_21
    4  A    between atoms: C_6  and  C_11
    5  A    between atoms: C_7  and  C_24
    6  A    between atoms: C_8  and  C_9
    7  A    between atoms: C_8  and  C_21
    8  A    between atoms: C_18  and  N_25
                            x       y       z     vdW  Elec       q    Type
                         _______ _______ _______ _____ _____    ______ ____

>  <TORSDO>
F 8

$$$$
