=
 OpenBabel11042421013D

 28 30  0  0  0  0  0  0  0  0999 V2000
  161.9230  210.1930  153.2330 C   0  0  0  0  0  2  0  0  0  0  0  0
  160.8320  209.2080  153.5240 C   0  0  0  0  0  0  0  0  0  0  0  0
  161.7400  207.6100  151.8380 C   0  0  0  0  0  0  0  0  0  0  0  0
  161.8510  210.6560  151.8540 N   0  0  0  0  0  0  0  0  0  0  0  0
  162.2300  208.4350  150.9040 C   0  0  0  0  0  3  0  0  0  0  0  0
  162.0200  209.8960  150.8070 C   0  0  0  0  0  0  0  0  0  0  0  0
  160.8010  208.0310  152.9020 C   0  0  0  0  0  3  0  0  0  0  0  0
  162.0550  210.4780  149.4990 N   0  0  0  0  0  0  0  0  0  0  0  0
  161.8860  211.7430  149.2870 C   0  0  0  0  0  3  0  0  0  0  0  0
  161.9340  212.2560  147.9470 C   0  0  0  0  0  0  0  0  0  0  0  0
  161.9710  212.6700  146.8670 N   0  0  0  0  0  0  0  0  0  0  0  0
  162.0210  206.1520  151.6770 C   0  0  0  0  0  2  0  0  0  0  0  0
  161.5310  205.6520  150.3600 C   0  0  0  0  0  0  0  0  0  0  0  0
  161.1980  204.7000  147.4810 C   0  0  0  0  0  0  0  0  0  0  0  0
  161.2830  202.3540  147.3610 C   0  0  0  0  0  3  0  0  0  0  0  0
  161.2070  203.4870  148.2790 C   0  0  0  0  0  0  0  0  0  0  0  0
  161.2660  202.7630  146.1280 N   0  0  0  0  0  0  0  0  0  0  0  0
  161.8730  206.3160  149.2500 C   0  0  0  0  0  3  0  0  0  0  0  0
  161.5420  205.9330  147.8630 C   0  0  0  0  0  3  0  0  0  0  0  0
  160.5420  204.5260  150.3670 C   0  0  0  0  0  2  0  0  0  0  0  0
  161.1730  204.1900  146.1190 C   0  0  0  0  0  0  0  0  0  0  0  0
  161.3900  205.0830  144.7650 S   0  0  0  0  0  0  0  0  0  0  0  0
  160.9530  203.3910  149.5460 N   0  0  0  0  0  0  0  0  0  0  0  0
  159.8520  209.4840  154.4870 O   0  0  0  0  0  0  0  0  0  0  0  0
  160.1460  209.6170  155.8740 C   0  0  0  0  0  2  0  0  0  0  0  0
  160.2690  208.2440  156.5180 C   0  0  0  0  0  2  0  0  0  0  0  0
  162.3210  209.1670  156.7390 O   0  0  0  0  0  1  0  0  0  0  0  0
  161.6460  208.0050  156.9260 N   0  0  0  0  0  2  0  0  0  0  0  0
  1  2  1  0  0  0  0
  2 24  1  0  0  0  0
  3  7  1  0  0  0  0
  4  1  1  0  0  0  0
  5  3  2  0  0  0  0
  6  5  1  0  0  0  0
  6  4  2  0  0  0  0
  7  2  2  0  0  0  0
  8  6  1  0  0  0  0
  9  8  2  0  0  0  0
 10  9  1  0  0  0  0
 11 10  3  0  0  0  0
 12  3  1  0  0  0  0
 13 20  1  0  0  0  0
 13 12  1  0  0  0  0
 14 19  2  0  0  0  0
 14 16  1  0  0  0  0
 15 16  1  0  0  0  0
 16 23  2  0  0  0  0
 17 15  2  0  0  0  0
 18 13  2  0  0  0  0
 19 18  1  0  0  0  0
 21 17  1  0  0  0  0
 21 14  1  0  0  0  0
 22 21  2  0  0  0  0
 23 20  1  0  0  0  0
 24 25  1  0  0  0  0
 25 26  1  0  0  0  0
 26 28  1  0  0  0  0
 27 28  1  0  0  0  0
M  END
>  <MODEL>
1

>  <REMARK>
 VINA RESULT:      -7.1      0.000      0.000
  Name = 
  8 active torsions:
  status: ('A' for Active; 'I' for Inactive)
    1  A    between atoms: C_1  and  C_3
    2  A    between atoms: C_3  and  C_11
    3  A    between atoms: C_7  and  O_9
    4  A    between atoms: C_8  and  O_9
    5  A    between atoms: C_8  and  C_22
    6  A    between atoms: N_15  and  C_19
    7  A    between atoms: C_16  and  C_20
    8  A    between atoms: C_22  and  N_25
                            x       y       z     vdW  Elec       q    Type
                         _______ _______ _______ _____ _____    ______ ____

>  <TORSDO>
F 8

$$$$
=
 OpenBabel11042421013D

 28 30  0  0  0  0  0  0  0  0999 V2000
  160.3980  206.2360  149.2150 C   0  0  0  0  0  2  0  0  0  0  0  0
  161.1660  205.4690  150.2480 C   0  0  0  0  0  0  0  0  0  0  0  0
  161.2900  207.4710  151.7310 C   0  0  0  0  0  0  0  0  0  0  0  0
  161.1930  207.3370  148.6880 N   0  0  0  0  0  0  0  0  0  0  0  0
  161.3730  208.4720  150.8450 C   0  0  0  0  0  3  0  0  0  0  0  0
  161.6040  208.3570  149.3890 C   0  0  0  0  0  0  0  0  0  0  0  0
  161.5200  206.0480  151.3940 C   0  0  0  0  0  3  0  0  0  0  0  0
  162.2710  209.4470  148.7430 N   0  0  0  0  0  0  0  0  0  0  0  0
  161.9170  210.6810  148.9000 C   0  0  0  0  0  3  0  0  0  0  0  0
  162.6330  211.7230  148.2200 C   0  0  0  0  0  0  0  0  0  0  0  0
  163.2110  212.5630  147.6720 N   0  0  0  0  0  0  0  0  0  0  0  0
  161.1340  207.8420  153.1700 C   0  0  0  0  0  2  0  0  0  0  0  0
  160.8530  209.2990  153.3220 C   0  0  0  0  0  0  0  0  0  0  0  0
  159.6370  212.0560  153.7990 C   0  0  0  0  0  0  0  0  0  0  0  0
  160.0790  212.7970  155.9850 C   0  0  0  0  0  3  0  0  0  0  0  0
  160.4020  211.7700  155.0000 C   0  0  0  0  0  0  0  0  0  0  0  0
  159.2610  213.6720  155.4820 N   0  0  0  0  0  0  0  0  0  0  0  0
  159.7700  209.8120  152.7280 C   0  0  0  0  0  3  0  0  0  0  0  0
  159.2960  211.2070  152.8250 C   0  0  0  0  0  3  0  0  0  0  0  0
  161.8930  210.1420  153.9950 C   0  0  0  0  0  2  0  0  0  0  0  0
  158.9750  213.3090  154.1290 C   0  0  0  0  0  0  0  0  0  0  0  0
  157.7870  214.0150  153.2540 S   0  0  0  0  0  0  0  0  0  0  0  0
  161.3710  210.9170  155.1160 N   0  0  0  0  0  0  0  0  0  0  0  0
  161.4840  204.1190  150.0520 O   0  0  0  0  0  0  0  0  0  0  0  0
  161.0040  203.3630  148.9460 C   0  0  0  0  0  2  0  0  0  0  0  0
  160.2140  202.1590  149.4360 C   0  0  0  0  0  2  0  0  0  0  0  0
  161.3950  200.5760  148.3360 O   0  0  0  0  0  1  0  0  0  0  0  0
  161.0950  201.0090  149.5860 N   0  0  0  0  0  2  0  0  0  0  0  0
  1  2  1  0  0  0  0
  2  7  2  0  0  0  0
  3 12  1  0  0  0  0
  4  1  1  0  0  0  0
  4  6  2  0  0  0  0
  5  3  2  0  0  0  0
  6  5  1  0  0  0  0
  7  3  1  0  0  0  0
  8  9  2  0  0  0  0
  8  6  1  0  0  0  0
 10  9  1  0  0  0  0
 11 10  3  0  0  0  0
 12 13  1  0  0  0  0
 13 20  1  0  0  0  0
 14 21  1  0  0  0  0
 14 16  1  0  0  0  0
 16 23  2  0  0  0  0
 16 15  1  0  0  0  0
 17 15  2  0  0  0  0
 18 19  1  0  0  0  0
 18 13  2  0  0  0  0
 19 14  2  0  0  0  0
 20 23  1  0  0  0  0
 21 17  1  0  0  0  0
 22 21  2  0  0  0  0
 24  2  1  0  0  0  0
 25 26  1  0  0  0  0
 25 24  1  0  0  0  0
 26 28  1  0  0  0  0
 27 28  1  0  0  0  0
M  END
>  <MODEL>
2

>  <REMARK>
 VINA RESULT:      -7.1      4.061      7.895
  Name = 
  8 active torsions:
  status: ('A' for Active; 'I' for Inactive)
    1  A    between atoms: C_1  and  C_3
    2  A    between atoms: C_3  and  C_11
    3  A    between atoms: C_7  and  O_9
    4  A    between atoms: C_8  and  O_9
    5  A    between atoms: C_8  and  C_22
    6  A    between atoms: N_15  and  C_19
    7  A    between atoms: C_16  and  C_20
    8  A    between atoms: C_22  and  N_25
                            x       y       z     vdW  Elec       q    Type
                         _______ _______ _______ _____ _____    ______ ____

>  <TORSDO>
F 8

$$$$
=
 OpenBabel11042421013D

 28 30  0  0  0  0  0  0  0  0999 V2000
  160.7630  208.0510  150.8600 C   0  0  0  0  0  2  0  0  0  0  0  0
  161.9150  207.2520  150.3300 C   0  0  0  0  0  0  0  0  0  0  0  0
  161.5700  205.4920  152.0640 C   0  0  0  0  0  0  0  0  0  0  0  0
  161.0170  208.4840  152.2270 N   0  0  0  0  0  0  0  0  0  0  0  0
  161.1440  206.2080  153.1110 C   0  0  0  0  0  3  0  0  0  0  0  0
  161.1530  207.6810  153.2460 C   0  0  0  0  0  0  0  0  0  0  0  0
  162.2290  206.0780  150.8740 C   0  0  0  0  0  3  0  0  0  0  0  0
  161.2720  208.2180  154.5680 N   0  0  0  0  0  0  0  0  0  0  0  0
  161.2540  209.4870  154.8180 C   0  0  0  0  0  3  0  0  0  0  0  0
  161.3790  209.9530  156.1700 C   0  0  0  0  0  0  0  0  0  0  0  0
  161.4800  210.3260  157.2600 N   0  0  0  0  0  0  0  0  0  0  0  0
  161.5390  204.0040  152.1940 C   0  0  0  0  0  2  0  0  0  0  0  0
  161.1050  203.3620  150.9200 C   0  0  0  0  0  0  0  0  0  0  0  0
  160.8240  202.2990  148.0740 C   0  0  0  0  0  0  0  0  0  0  0  0
  161.5460  200.0660  147.9410 C   0  0  0  0  0  3  0  0  0  0  0  0
  161.2310  201.1510  148.8650 C   0  0  0  0  0  0  0  0  0  0  0  0
  161.3200  200.4300  146.7150 N   0  0  0  0  0  0  0  0  0  0  0  0
  161.1610  204.0730  149.7880 C   0  0  0  0  0  3  0  0  0  0  0  0
  160.8420  203.5860  148.4310 C   0  0  0  0  0  3  0  0  0  0  0  0
  160.4700  202.0070  151.0030 C   0  0  0  0  0  2  0  0  0  0  0  0
  160.8350  201.7740  146.7170 C   0  0  0  0  0  0  0  0  0  0  0  0
  160.6890  202.6660  145.3530 S   0  0  0  0  0  0  0  0  0  0  0  0
  161.1140  201.0140  150.1490 N   0  0  0  0  0  0  0  0  0  0  0  0
  162.6530  207.6980  149.2260 O   0  0  0  0  0  0  0  0  0  0  0  0
  162.6130  207.0530  147.9570 C   0  0  0  0  0  2  0  0  0  0  0  0
  161.2170  207.1570  147.3590 C   0  0  0  0  0  2  0  0  0  0  0  0
  162.3690  205.8860  145.8860 O   0  0  0  0  0  1  0  0  0  0  0  0
  161.1130  206.3060  146.1820 N   0  0  0  0  0  2  0  0  0  0  0  0
  1  4  1  0  0  0  0
  2  1  1  0  0  0  0
  2  7  2  0  0  0  0
  3 12  1  0  0  0  0
  3  5  2  0  0  0  0
  4  6  2  0  0  0  0
  5  6  1  0  0  0  0
  6  8  1  0  0  0  0
  7  3  1  0  0  0  0
  8  9  2  0  0  0  0
  9 10  1  0  0  0  0
 10 11  3  0  0  0  0
 13 20  1  0  0  0  0
 13 12  1  0  0  0  0
 14 19  2  0  0  0  0
 14 16  1  0  0  0  0
 15 16  1  0  0  0  0
 16 23  2  0  0  0  0
 17 21  1  0  0  0  0
 17 15  2  0  0  0  0
 18 13  2  0  0  0  0
 19 18  1  0  0  0  0
 21 14  1  0  0  0  0
 22 21  2  0  0  0  0
 23 20  1  0  0  0  0
 24  2  1  0  0  0  0
 25 24  1  0  0  0  0
 26 25  1  0  0  0  0
 27 28  1  0  0  0  0
 28 26  1  0  0  0  0
M  END
>  <MODEL>
3

>  <REMARK>
 VINA RESULT:      -7.0      3.056      5.488
  Name = 
  8 active torsions:
  status: ('A' for Active; 'I' for Inactive)
    1  A    between atoms: C_1  and  C_3
    2  A    between atoms: C_3  and  C_11
    3  A    between atoms: C_7  and  O_9
    4  A    between atoms: C_8  and  O_9
    5  A    between atoms: C_8  and  C_22
    6  A    between atoms: N_15  and  C_19
    7  A    between atoms: C_16  and  C_20
    8  A    between atoms: C_22  and  N_25
                            x       y       z     vdW  Elec       q    Type
                         _______ _______ _______ _____ _____    ______ ____

>  <TORSDO>
F 8

$$$$
=
 OpenBabel11042421013D

 28 30  0  0  0  0  0  0  0  0999 V2000
  162.0360  210.1560  153.3250 C   0  0  0  0  0  2  0  0  0  0  0  0
  160.9430  209.1910  153.6720 C   0  0  0  0  0  0  0  0  0  0  0  0
  161.7470  207.5710  151.9530 C   0  0  0  0  0  0  0  0  0  0  0  0
  161.9070  210.6140  151.9490 N   0  0  0  0  0  0  0  0  0  0  0  0
  162.2070  208.3840  150.9930 C   0  0  0  0  0  3  0  0  0  0  0  0
  162.0160  209.8480  150.8990 C   0  0  0  0  0  0  0  0  0  0  0  0
  160.8650  208.0120  153.0580 C   0  0  0  0  0  3  0  0  0  0  0  0
  162.0000  210.4240  149.5890 N   0  0  0  0  0  0  0  0  0  0  0  0
  161.9840  211.7010  149.3800 C   0  0  0  0  0  3  0  0  0  0  0  0
  161.9680  212.2060  148.0370 C   0  0  0  0  0  0  0  0  0  0  0  0
  161.9550  212.6160  146.9540 N   0  0  0  0  0  0  0  0  0  0  0  0
  161.9970  206.1080  151.7870 C   0  0  0  0  0  2  0  0  0  0  0  0
  161.5120  205.6270  150.4610 C   0  0  0  0  0  0  0  0  0  0  0  0
  161.1890  204.7170  147.5670 C   0  0  0  0  0  0  0  0  0  0  0  0
  161.2760  202.3730  147.4130 C   0  0  0  0  0  3  0  0  0  0  0  0
  161.1960  203.4920  148.3470 C   0  0  0  0  0  0  0  0  0  0  0  0
  161.2630  202.8000  146.1860 N   0  0  0  0  0  0  0  0  0  0  0  0
  161.8570  206.3070  149.3620 C   0  0  0  0  0  3  0  0  0  0  0  0
  161.5310  205.9440  147.9690 C   0  0  0  0  0  3  0  0  0  0  0  0
  160.5230  204.5010  150.4480 C   0  0  0  0  0  2  0  0  0  0  0  0
  161.1690  204.2260  146.1970 C   0  0  0  0  0  0  0  0  0  0  0  0
  161.3900  205.1390  144.8580 S   0  0  0  0  0  0  0  0  0  0  0  0
  160.9380  203.3780  149.6120 N   0  0  0  0  0  0  0  0  0  0  0  0
  160.0140  209.4860  154.6770 O   0  0  0  0  0  0  0  0  0  0  0  0
  159.7330  210.8140  155.1060 C   0  0  0  0  0  2  0  0  0  0  0  0
  158.2950  211.1820  154.7700 C   0  0  0  0  0  2  0  0  0  0  0  0
  159.4810  212.5920  153.4600 O   0  0  0  0  0  1  0  0  0  0  0  0
  158.2590  212.0160  153.5770 N   0  0  0  0  0  2  0  0  0  0  0  0
  1  2  1  0  0  0  0
  2 24  1  0  0  0  0
  3  7  1  0  0  0  0
  4  1  1  0  0  0  0
  5  3  2  0  0  0  0
  6  5  1  0  0  0  0
  6  4  2  0  0  0  0
  7  2  2  0  0  0  0
  8  6  1  0  0  0  0
  9  8  2  0  0  0  0
 10  9  1  0  0  0  0
 11 10  3  0  0  0  0
 12  3  1  0  0  0  0
 13 12  1  0  0  0  0
 14 19  2  0  0  0  0
 14 16  1  0  0  0  0
 15 16  1  0  0  0  0
 16 23  2  0  0  0  0
 17 21  1  0  0  0  0
 17 15  2  0  0  0  0
 18 13  2  0  0  0  0
 19 18  1  0  0  0  0
 20 13  1  0  0  0  0
 21 14  1  0  0  0  0
 22 21  2  0  0  0  0
 23 20  1  0  0  0  0
 24 25  1  0  0  0  0
 26 25  1  0  0  0  0
 27 28  1  0  0  0  0
 28 26  1  0  0  0  0
M  END
>  <MODEL>
4

>  <REMARK>
 VINA RESULT:      -6.9      1.373      1.767
  Name = 
  8 active torsions:
  status: ('A' for Active; 'I' for Inactive)
    1  A    between atoms: C_1  and  C_3
    2  A    between atoms: C_3  and  C_11
    3  A    between atoms: C_7  and  O_9
    4  A    between atoms: C_8  and  O_9
    5  A    between atoms: C_8  and  C_22
    6  A    between atoms: N_15  and  C_19
    7  A    between atoms: C_16  and  C_20
    8  A    between atoms: C_22  and  N_25
                            x       y       z     vdW  Elec       q    Type
                         _______ _______ _______ _____ _____    ______ ____

>  <TORSDO>
F 8

$$$$
=
 OpenBabel11042421013D

 28 30  0  0  0  0  0  0  0  0999 V2000
  162.7920  206.9350  147.5450 C   0  0  0  0  0  2  0  0  0  0  0  0
  161.7530  207.6710  148.3350 C   0  0  0  0  0  0  0  0  0  0  0  0
  161.1140  205.5880  149.5500 C   0  0  0  0  0  0  0  0  0  0  0  0
  162.1800  205.9080  146.7130 N   0  0  0  0  0  0  0  0  0  0  0  0
  161.2940  204.6490  148.6120 C   0  0  0  0  0  3  0  0  0  0  0  0
  161.5420  204.8670  147.1700 C   0  0  0  0  0  0  0  0  0  0  0  0
  161.0370  207.0390  149.2630 C   0  0  0  0  0  3  0  0  0  0  0  0
  161.0910  203.8510  146.2670 N   0  0  0  0  0  0  0  0  0  0  0  0
  160.9100  202.6210  146.6240 C   0  0  0  0  0  3  0  0  0  0  0  0
  160.4550  201.6560  145.6630 C   0  0  0  0  0  0  0  0  0  0  0  0
  160.0880  200.8800  144.8880 N   0  0  0  0  0  0  0  0  0  0  0  0
  160.7920  205.1210  150.9320 C   0  0  0  0  0  2  0  0  0  0  0  0
  161.1010  206.1760  151.9400 C   0  0  0  0  0  0  0  0  0  0  0  0
  161.0820  208.5420  153.8660 C   0  0  0  0  0  0  0  0  0  0  0  0
  160.5360  207.8430  156.0430 C   0  0  0  0  0  3  0  0  0  0  0  0
  160.8820  207.3730  154.7050 C   0  0  0  0  0  0  0  0  0  0  0  0
  160.5630  209.1410  156.0930 N   0  0  0  0  0  0  0  0  0  0  0  0
  160.8340  207.4520  151.6420 C   0  0  0  0  0  3  0  0  0  0  0  0
  161.0060  208.6150  152.5350 C   0  0  0  0  0  3  0  0  0  0  0  0
  161.8520  205.7650  153.1710 C   0  0  0  0  0  2  0  0  0  0  0  0
  160.9310  209.6430  154.8060 C   0  0  0  0  0  0  0  0  0  0  0  0
  160.8170  211.2250  154.4050 S   0  0  0  0  0  0  0  0  0  0  0  0
  161.1820  206.1480  154.4100 N   0  0  0  0  0  0  0  0  0  0  0  0
  161.5460  209.0440  148.1500 O   0  0  0  0  0  0  0  0  0  0  0  0
  162.3430  210.0400  148.7830 C   0  0  0  0  0  2  0  0  0  0  0  0
  161.9380  211.4240  148.2950 C   0  0  0  0  0  2  0  0  0  0  0  0
  162.8050  213.5050  148.1210 O   0  0  0  0  0  1  0  0  0  0  0  0
  163.1220  212.1970  147.9470 N   0  0  0  0  0  2  0  0  0  0  0  0
  1  2  1  0  0  0  0
  2  7  2  0  0  0  0
  3 12  1  0  0  0  0
  4  6  2  0  0  0  0
  4  1  1  0  0  0  0
  5  3  2  0  0  0  0
  6  5  1  0  0  0  0
  7  3  1  0  0  0  0
  8  9  2  0  0  0  0
  8  6  1  0  0  0  0
 10  9  1  0  0  0  0
 11 10  3  0  0  0  0
 12 13  1  0  0  0  0
 13 20  1  0  0  0  0
 14 16  1  0  0  0  0
 14 21  1  0  0  0  0
 15 17  2  0  0  0  0
 16 15  1  0  0  0  0
 18 13  2  0  0  0  0
 18 19  1  0  0  0  0
 19 14  2  0  0  0  0
 20 23  1  0  0  0  0
 21 17  1  0  0  0  0
 22 21  2  0  0  0  0
 23 16  2  0  0  0  0
 24  2  1  0  0  0  0
 24 25  1  0  0  0  0
 26 25  1  0  0  0  0
 28 27  1  0  0  0  0
 28 26  1  0  0  0  0
M  END
>  <MODEL>
5

>  <REMARK>
 VINA RESULT:      -6.8      3.378      7.728
  Name = 
  8 active torsions:
  status: ('A' for Active; 'I' for Inactive)
    1  A    between atoms: C_1  and  C_3
    2  A    between atoms: C_3  and  C_11
    3  A    between atoms: C_7  and  O_9
    4  A    between atoms: C_8  and  O_9
    5  A    between atoms: C_8  and  C_22
    6  A    between atoms: N_15  and  C_19
    7  A    between atoms: C_16  and  C_20
    8  A    between atoms: C_22  and  N_25
                            x       y       z     vdW  Elec       q    Type
                         _______ _______ _______ _____ _____    ______ ____

>  <TORSDO>
F 8

$$$$
=
 OpenBabel11042421013D

 28 30  0  0  0  0  0  0  0  0999 V2000
  162.2950  209.2790  151.7250 C   0  0  0  0  0  2  0  0  0  0  0  0
  161.3800  208.1360  151.4060 C   0  0  0  0  0  0  0  0  0  0  0  0
  162.0170  208.2170  148.9950 C   0  0  0  0  0  0  0  0  0  0  0  0
  161.8800  210.4870  151.0250 N   0  0  0  0  0  0  0  0  0  0  0  0
  162.2170  209.5270  148.8020 C   0  0  0  0  0  3  0  0  0  0  0  0
  161.8730  210.6280  149.7290 C   0  0  0  0  0  0  0  0  0  0  0  0
  161.3070  207.6540  150.1670 C   0  0  0  0  0  3  0  0  0  0  0  0
  161.5690  211.9010  149.1490 N   0  0  0  0  0  0  0  0  0  0  0  0
  161.5030  212.0960  147.8720 C   0  0  0  0  0  3  0  0  0  0  0  0
  161.1930  213.4010  147.3620 C   0  0  0  0  0  0  0  0  0  0  0  0
  160.9410  214.4530  146.9500 N   0  0  0  0  0  0  0  0  0  0  0  0
  162.3720  207.2980  147.8740 C   0  0  0  0  0  2  0  0  0  0  0  0
  161.7240  205.9650  148.0460 C   0  0  0  0  0  0  0  0  0  0  0  0
  161.0590  203.0140  148.4370 C   0  0  0  0  0  0  0  0  0  0  0  0
  160.6350  202.5450  150.7020 C   0  0  0  0  0  3  0  0  0  0  0  0
  160.8470  203.6220  149.7390 C   0  0  0  0  0  0  0  0  0  0  0  0
  160.6470  201.3910  150.1060 N   0  0  0  0  0  0  0  0  0  0  0  0
  162.1470  204.9400  147.2970 C   0  0  0  0  0  3  0  0  0  0  0  0
  161.6760  203.5430  147.3780 C   0  0  0  0  0  3  0  0  0  0  0  0
  160.5190  205.8860  148.9330 C   0  0  0  0  0  2  0  0  0  0  0  0
  160.8600  201.5980  148.7080 C   0  0  0  0  0  0  0  0  0  0  0  0
  161.1980  200.3760  147.6730 S   0  0  0  0  0  0  0  0  0  0  0  0
  160.6400  204.8780  149.9820 N   0  0  0  0  0  0  0  0  0  0  0  0
  160.6200  207.5210  152.4100 O   0  0  0  0  0  0  0  0  0  0  0  0
  161.2020  206.7750  153.4740 C   0  0  0  0  0  2  0  0  0  0  0  0
  160.5810  207.1850  154.8020 C   0  0  0  0  0  2  0  0  0  0  0  0
  160.4450  209.4320  155.0100 O   0  0  0  0  0  1  0  0  0  0  0  0
  161.2410  208.3760  155.3160 N   0  0  0  0  0  2  0  0  0  0  0  0
  2  1  1  0  0  0  0
  2 24  1  0  0  0  0
  3  7  1  0  0  0  0
  4  1  1  0  0  0  0
  5  3  2  0  0  0  0
  5  6  1  0  0  0  0
  6  4  2  0  0  0  0
  7  2  2  0  0  0  0
  8  6  1  0  0  0  0
  9  8  2  0  0  0  0
 10  9  1  0  0  0  0
 11 10  3  0  0  0  0
 12 13  1  0  0  0  0
 12  3  1  0  0  0  0
 13 20  1  0  0  0  0
 14 21  1  0  0  0  0
 14 16  1  0  0  0  0
 16 23  2  0  0  0  0
 16 15  1  0  0  0  0
 17 15  2  0  0  0  0
 18 19  1  0  0  0  0
 18 13  2  0  0  0  0
 19 14  2  0  0  0  0
 20 23  1  0  0  0  0
 21 17  1  0  0  0  0
 22 21  2  0  0  0  0
 24 25  1  0  0  0  0
 25 26  1  0  0  0  0
 26 28  1  0  0  0  0
 27 28  1  0  0  0  0
M  END
>  <MODEL>
6

>  <REMARK>
 VINA RESULT:      -6.6      1.990      2.683
  Name = 
  8 active torsions:
  status: ('A' for Active; 'I' for Inactive)
    1  A    between atoms: C_1  and  C_3
    2  A    between atoms: C_3  and  C_11
    3  A    between atoms: C_7  and  O_9
    4  A    between atoms: C_8  and  O_9
    5  A    between atoms: C_8  and  C_22
    6  A    between atoms: N_15  and  C_19
    7  A    between atoms: C_16  and  C_20
    8  A    between atoms: C_22  and  N_25
                            x       y       z     vdW  Elec       q    Type
                         _______ _______ _______ _____ _____    ______ ____

>  <TORSDO>
F 8

$$$$
=
 OpenBabel11042421013D

 28 30  0  0  0  0  0  0  0  0999 V2000
  160.4040  211.9110  155.3960 C   0  0  0  0  0  2  0  0  0  0  0  0
  160.5150  210.4190  155.3150 C   0  0  0  0  0  0  0  0  0  0  0  0
  161.2910  210.5440  152.9470 C   0  0  0  0  0  0  0  0  0  0  0  0
  159.4110  212.4100  154.4550 N   0  0  0  0  0  0  0  0  0  0  0  0
  160.6150  211.6040  152.4850 C   0  0  0  0  0  3  0  0  0  0  0  0
  159.5050  212.3140  153.1570 C   0  0  0  0  0  0  0  0  0  0  0  0
  160.9580  209.8340  154.2030 C   0  0  0  0  0  3  0  0  0  0  0  0
  158.5340  212.9520  152.3210 N   0  0  0  0  0  0  0  0  0  0  0  0
  158.5800  212.9080  151.0280 C   0  0  0  0  0  3  0  0  0  0  0  0
  157.5700  213.5720  150.2530 C   0  0  0  0  0  0  0  0  0  0  0  0
  156.7560  214.1090  149.6300 N   0  0  0  0  0  0  0  0  0  0  0  0
  162.3210  209.9440  152.0460 C   0  0  0  0  0  2  0  0  0  0  0  0
  161.7170  208.9140  151.1520 C   0  0  0  0  0  0  0  0  0  0  0  0
  161.1340  206.7490  149.0830 C   0  0  0  0  0  0  0  0  0  0  0  0
  161.1780  204.6160  150.0690 C   0  0  0  0  0  3  0  0  0  0  0  0
  161.1930  206.0470  150.3530 C   0  0  0  0  0  0  0  0  0  0  0  0
  161.0650  204.4040  148.7930 N   0  0  0  0  0  0  0  0  0  0  0  0
  161.9740  208.9660  149.8410 C   0  0  0  0  0  3  0  0  0  0  0  0
  161.5240  207.9990  148.8200 C   0  0  0  0  0  3  0  0  0  0  0  0
  160.7170  207.9720  151.7510 C   0  0  0  0  0  2  0  0  0  0  0  0
  160.9890  205.6650  148.1230 C   0  0  0  0  0  0  0  0  0  0  0  0
  161.1050  205.8140  146.4980 S   0  0  0  0  0  0  0  0  0  0  0  0
  161.0440  206.5660  151.5320 N   0  0  0  0  0  0  0  0  0  0  0  0
  160.2030  209.6130  156.4170 O   0  0  0  0  0  0  0  0  0  0  0  0
  161.1130  208.6660  156.9660 C   0  0  0  0  0  2  0  0  0  0  0  0
  160.3950  207.3570  157.2600 C   0  0  0  0  0  2  0  0  0  0  0  0
  160.4800  206.7320  155.0890 O   0  0  0  0  0  1  0  0  0  0  0  0
  159.6080  206.9480  156.1060 N   0  0  0  0  0  2  0  0  0  0  0  0
  2  1  1  0  0  0  0
  2 24  1  0  0  0  0
  3  7  1  0  0  0  0
  4  1  1  0  0  0  0
  5  3  2  0  0  0  0
  5  6  1  0  0  0  0
  6  4  2  0  0  0  0
  7  2  2  0  0  0  0
  8  6  1  0  0  0  0
  9  8  2  0  0  0  0
 10  9  1  0  0  0  0
 11 10  3  0  0  0  0
 12  3  1  0  0  0  0
 13 20  1  0  0  0  0
 13 12  1  0  0  0  0
 14 16  1  0  0  0  0
 15 16  1  0  0  0  0
 16 23  2  0  0  0  0
 17 15  2  0  0  0  0
 18 13  2  0  0  0  0
 19 14  2  0  0  0  0
 19 18  1  0  0  0  0
 21 17  1  0  0  0  0
 21 14  1  0  0  0  0
 22 21  2  0  0  0  0
 23 20  1  0  0  0  0
 24 25  1  0  0  0  0
 25 26  1  0  0  0  0
 27 28  1  0  0  0  0
 28 26  1  0  0  0  0
M  END
>  <MODEL>
7

>  <REMARK>
 VINA RESULT:      -6.6      2.535      3.409
  Name = 
  8 active torsions:
  status: ('A' for Active; 'I' for Inactive)
    1  A    between atoms: C_1  and  C_3
    2  A    between atoms: C_3  and  C_11
    3  A    between atoms: C_7  and  O_9
    4  A    between atoms: C_8  and  O_9
    5  A    between atoms: C_8  and  C_22
    6  A    between atoms: N_15  and  C_19
    7  A    between atoms: C_16  and  C_20
    8  A    between atoms: C_22  and  N_25
                            x       y       z     vdW  Elec       q    Type
                         _______ _______ _______ _____ _____    ______ ____

>  <TORSDO>
F 8

$$$$
=
 OpenBabel11042421013D

 28 30  0  0  0  0  0  0  0  0999 V2000
  162.1520  206.0960  153.5930 C   0  0  0  0  0  2  0  0  0  0  0  0
  161.2350  205.4350  152.6100 C   0  0  0  0  0  0  0  0  0  0  0  0
  161.1470  207.4990  151.2110 C   0  0  0  0  0  0  0  0  0  0  0  0
  161.5020  207.2350  154.2260 N   0  0  0  0  0  0  0  0  0  0  0  0
  161.2270  208.4670  152.1330 C   0  0  0  0  0  3  0  0  0  0  0  0
  161.1170  208.3120  153.6000 C   0  0  0  0  0  0  0  0  0  0  0  0
  160.8300  206.0870  151.5210 C   0  0  0  0  0  3  0  0  0  0  0  0
  160.6030  209.4250  154.3390 N   0  0  0  0  0  0  0  0  0  0  0  0
  160.9850  210.6440  154.1330 C   0  0  0  0  0  3  0  0  0  0  0  0
  160.4260  211.7100  154.9150 C   0  0  0  0  0  0  0  0  0  0  0  0
  159.9740  212.5710  155.5440 N   0  0  0  0  0  0  0  0  0  0  0  0
  161.2050  207.9140  149.7770 C   0  0  0  0  0  2  0  0  0  0  0  0
  161.5050  206.7500  148.8930 C   0  0  0  0  0  0  0  0  0  0  0  0
  161.4280  204.2720  147.1150 C   0  0  0  0  0  0  0  0  0  0  0  0
  161.3720  204.8750  144.8430 C   0  0  0  0  0  3  0  0  0  0  0  0
  161.5600  205.3900  146.1960 C   0  0  0  0  0  0  0  0  0  0  0  0
  161.1980  203.5880  144.8640 N   0  0  0  0  0  0  0  0  0  0  0  0
  160.9900  205.5550  149.2030 C   0  0  0  0  0  3  0  0  0  0  0  0
  161.1200  204.3140  148.4140 C   0  0  0  0  0  3  0  0  0  0  0  0
  162.5060  206.9490  147.7960 C   0  0  0  0  0  2  0  0  0  0  0  0
  161.2610  203.1380  146.2190 C   0  0  0  0  0  0  0  0  0  0  0  0
  160.8290  201.6260  146.6720 S   0  0  0  0  0  0  0  0  0  0  0  0
  162.0000  206.5760  146.4780 N   0  0  0  0  0  0  0  0  0  0  0  0
  160.8230  204.1080  152.7890 O   0  0  0  0  0  0  0  0  0  0  0  0
  160.4790  203.2520  151.7050 C   0  0  0  0  0  2  0  0  0  0  0  0
  161.6230  202.2930  151.4100 C   0  0  0  0  0  2  0  0  0  0  0  0
  159.9080  201.5660  150.1270 O   0  0  0  0  0  1  0  0  0  0  0  0
  161.2100  201.3120  150.4160 N   0  0  0  0  0  2  0  0  0  0  0  0
  1  4  1  0  0  0  0
  2 24  1  0  0  0  0
  2  1  1  0  0  0  0
  3  7  1  0  0  0  0
  3  5  2  0  0  0  0
  5  6  1  0  0  0  0
  6  4  2  0  0  0  0
  6  8  1  0  0  0  0
  7  2  2  0  0  0  0
  9  8  2  0  0  0  0
  9 10  1  0  0  0  0
 10 11  3  0  0  0  0
 12  3  1  0  0  0  0
 13 18  2  0  0  0  0
 13 12  1  0  0  0  0
 14 19  2  0  0  0  0
 15 17  2  0  0  0  0
 15 16  1  0  0  0  0
 16 23  2  0  0  0  0
 16 14  1  0  0  0  0
 17 21  1  0  0  0  0
 19 18  1  0  0  0  0
 20 13  1  0  0  0  0
 21 22  2  0  0  0  0
 21 14  1  0  0  0  0
 23 20  1  0  0  0  0
 25 24  1  0  0  0  0
 26 25  1  0  0  0  0
 27 28  1  0  0  0  0
 28 26  1  0  0  0  0
M  END
>  <MODEL>
8

>  <REMARK>
 VINA RESULT:      -6.6      3.007      4.977
  Name = 
  8 active torsions:
  status: ('A' for Active; 'I' for Inactive)
    1  A    between atoms: C_1  and  C_3
    2  A    between atoms: C_3  and  C_11
    3  A    between atoms: C_7  and  O_9
    4  A    between atoms: C_8  and  O_9
    5  A    between atoms: C_8  and  C_22
    6  A    between atoms: N_15  and  C_19
    7  A    between atoms: C_16  and  C_20
    8  A    between atoms: C_22  and  N_25
                            x       y       z     vdW  Elec       q    Type
                         _______ _______ _______ _____ _____    ______ ____

>  <TORSDO>
F 8

$$$$
=
 OpenBabel11042421013D

 28 30  0  0  0  0  0  0  0  0999 V2000
  160.2490  204.8940  149.8160 C   0  0  0  0  0  2  0  0  0  0  0  0
  161.3440  205.1080  150.8150 C   0  0  0  0  0  0  0  0  0  0  0  0
  161.6980  207.4450  150.0170 C   0  0  0  0  0  0  0  0  0  0  0  0
  160.7570  205.0030  148.4560 N   0  0  0  0  0  0  0  0  0  0  0  0
  161.4340  207.3380  148.7090 C   0  0  0  0  0  3  0  0  0  0  0  0
  161.2540  206.0900  147.9350 C   0  0  0  0  0  0  0  0  0  0  0  0
  161.9530  206.2890  150.9060 C   0  0  0  0  0  3  0  0  0  0  0  0
  161.6070  206.1230  146.5480 N   0  0  0  0  0  0  0  0  0  0  0  0
  160.8160  205.7120  145.6100 C   0  0  0  0  0  3  0  0  0  0  0  0
  161.2390  205.7740  144.2400 C   0  0  0  0  0  0  0  0  0  0  0  0
  161.5800  205.8260  143.1350 N   0  0  0  0  0  0  0  0  0  0  0  0
  161.9220  208.8190  150.5600 C   0  0  0  0  0  2  0  0  0  0  0  0
  161.4180  208.9320  151.9600 C   0  0  0  0  0  0  0  0  0  0  0  0
  160.9330  208.7520  154.9660 C   0  0  0  0  0  0  0  0  0  0  0  0
  161.8750  210.5980  156.0770 C   0  0  0  0  0  3  0  0  0  0  0  0
  161.5510  210.0510  154.7630 C   0  0  0  0  0  0  0  0  0  0  0  0
  161.4720  209.7970  157.0170 N   0  0  0  0  0  0  0  0  0  0  0  0
  161.2680  207.8170  152.6830 C   0  0  0  0  0  3  0  0  0  0  0  0
  160.8510  207.7410  154.0980 C   0  0  0  0  0  3  0  0  0  0  0  0
  160.9490  210.2770  152.4240 C   0  0  0  0  0  2  0  0  0  0  0  0
  160.8460  208.6610  156.4160 C   0  0  0  0  0  0  0  0  0  0  0  0
  160.4500  207.3170  157.2610 S   0  0  0  0  0  0  0  0  0  0  0  0
  161.5960  210.7220  153.6540 N   0  0  0  0  0  0  0  0  0  0  0  0
  161.7180  204.0910  151.7040 O   0  0  0  0  0  0  0  0  0  0  0  0
  160.9470  202.9100  151.8960 C   0  0  0  0  0  2  0  0  0  0  0  0
  161.4700  201.7910  151.0060 C   0  0  0  0  0  2  0  0  0  0  0  0
  160.7070  201.6000  148.8870 O   0  0  0  0  0  1  0  0  0  0  0  0
  160.3970  201.2770  150.1670 N   0  0  0  0  0  2  0  0  0  0  0  0
  1  2  1  0  0  0  0
  2  7  2  0  0  0  0
  2 24  1  0  0  0  0
  3 12  1  0  0  0  0
  3  7  1  0  0  0  0
  4  1  1  0  0  0  0
  5  3  2  0  0  0  0
  6  4  2  0  0  0  0
  6  5  1  0  0  0  0
  8  6  1  0  0  0  0
  9  8  2  0  0  0  0
 10  9  1  0  0  0  0
 11 10  3  0  0  0  0
 12 13  1  0  0  0  0
 13 20  1  0  0  0  0
 13 18  2  0  0  0  0
 14 21  1  0  0  0  0
 15 17  2  0  0  0  0
 16 14  1  0  0  0  0
 16 15  1  0  0  0  0
 18 19  1  0  0  0  0
 19 14  2  0  0  0  0
 20 23  1  0  0  0  0
 21 17  1  0  0  0  0
 21 22  2  0  0  0  0
 23 16  2  0  0  0  0
 24 25  1  0  0  0  0
 26 25  1  0  0  0  0
 27 28  1  0  0  0  0
 28 26  1  0  0  0  0
M  END
>  <MODEL>
9

>  <REMARK>
 VINA RESULT:      -6.5      3.781      7.755
  Name = 
  8 active torsions:
  status: ('A' for Active; 'I' for Inactive)
    1  A    between atoms: C_1  and  C_3
    2  A    between atoms: C_3  and  C_11
    3  A    between atoms: C_7  and  O_9
    4  A    between atoms: C_8  and  O_9
    5  A    between atoms: C_8  and  C_22
    6  A    between atoms: N_15  and  C_19
    7  A    between atoms: C_16  and  C_20
    8  A    between atoms: C_22  and  N_25
                            x       y       z     vdW  Elec       q    Type
                         _______ _______ _______ _____ _____    ______ ____

>  <TORSDO>
F 8

$$$$
