=
 OpenBabel11042421233D

 33 37  0  0  1  0  0  0  0  0999 V2000
  162.1950  208.0230  149.9360 C   0  0  2  0  0  3  0  0  0  0  0  0
  160.9440  202.8280  147.9520 C   0  0  0  0  0  3  0  0  0  0  0  0
  161.7180  205.1020  147.5730 C   0  0  0  0  0  0  0  0  0  0  0  0
  161.1040  202.5440  146.5910 C   0  0  0  0  0  0  0  0  0  0  0  0
  161.5730  203.5470  145.7250 C   0  0  0  0  0  3  0  0  0  0  0  0
  161.2480  204.0980  148.4490 C   0  0  0  0  0  0  0  0  0  0  0  0
  161.0880  204.3790  149.8080 C   0  0  0  0  0  3  0  0  0  0  0  0
  161.8790  204.8210  146.2150 C   0  0  0  0  0  3  0  0  0  0  0  0
  162.0210  206.3730  148.0690 C   0  0  0  0  0  3  0  0  0  0  0  0
  161.8600  206.6530  149.4310 C   0  0  0  0  0  0  0  0  0  0  0  0
  161.3930  205.6520  150.2980 C   0  0  0  0  0  3  0  0  0  0  0  0
  160.7920  201.2640  146.1270 O   0  0  0  0  0  0  0  0  0  0  0  0
  159.9710  201.0380  144.9890 C   0  0  0  0  0  1  0  0  0  0  0  0
  162.0500  209.4870  152.1230 C   0  0  0  0  0  2  0  0  0  0  0  0
  162.4220  207.0860  152.2600 O   0  0  0  0  0  1  0  0  0  0  0  0
  160.7010  208.7870  151.9580 C   0  0  0  0  0  2  0  0  0  0  0  0
  161.9690  208.1320  151.4580 C   0  0  0  0  0  0  0  0  0  0  0  0
  161.5070  209.0720  149.1120 C   0  0  0  0  0  2  0  0  0  0  0  0
  162.1570  210.1560  148.7070 C   0  0  0  0  0  3  0  0  0  0  0  0
  161.5380  211.1860  147.9240 N   0  0  0  0  0  0  0  0  0  0  0  0
  163.1660  212.8630  148.1500 O   0  0  0  0  0  0  0  0  0  0  0  0
  162.0630  212.4980  147.6660 C   0  0  0  0  0  0  0  0  0  0  0  0
  162.6080  212.8080  143.2360 C   0  0  0  0  0  3  0  0  0  0  0  0
  159.2650  212.9090  145.7530 C   0  0  0  0  0  0  0  0  0  0  0  0
  159.8560  213.2750  146.9940 N   0  0  0  0  0  0  0  0  0  0  0  0
  162.6730  213.1350  144.6020 C   0  0  0  0  0  3  0  0  0  0  0  0
  159.1200  213.7340  148.1590 C   0  0  0  0  0  1  0  0  0  0  0  0
  158.0310  212.7280  145.5770 O   0  0  0  0  0  0  0  0  0  0  0  0
  160.2860  212.8070  144.7440 C   0  0  0  0  0  0  0  0  0  0  0  0
  161.2990  213.4500  146.8010 C   0  0  2  0  0  3  0  0  0  0  0  0
  161.4890  213.1220  145.3420 C   0  0  0  0  0  0  0  0  0  0  0  0
  160.1920  212.4820  143.3930 C   0  0  0  0  0  3  0  0  0  0  0  0
  161.3750  212.4820  142.6360 C   0  0  0  0  0  3  0  0  0  0  0  0
  1 18  1  6  0  0  0
  1 17  1  0  0  0  0
  2  6  1  0  0  0  0
  3  9  2  0  0  0  0
  3  6  1  0  0  0  0
  4  2  2  0  0  0  0
  5  8  2  0  0  0  0
  5  4  1  0  0  0  0
  6  7  2  0  0  0  0
  7 11  1  0  0  0  0
  8  3  1  0  0  0  0
  9 10  1  0  0  0  0
 10  1  1  0  0  0  0
 10 11  2  0  0  0  0
 12  4  1  0  0  0  0
 13 12  1  0  0  0  0
 16 14  1  0  0  0  0
 17 16  1  0  0  0  0
 17 14  1  0  0  0  0
 17 15  1  0  0  0  0
 19 18  1  0  0  0  0
 20 19  2  0  0  0  0
 22 20  1  0  0  0  0
 22 21  2  0  0  0  0
 23 26  1  0  0  0  0
 24 25  1  0  0  0  0
 25 27  1  0  0  0  0
 26 31  2  0  0  0  0
 28 24  2  0  0  0  0
 29 31  1  0  0  0  0
 29 24  1  0  0  0  0
 30 25  1  0  0  0  0
 30 22  1  1  0  0  0
 31 30  1  0  0  0  0
 32 29  2  0  0  0  0
 33 23  2  0  0  0  0
 33 32  1  0  0  0  0
M  END
>  <MODEL>
1

>  <REMARK>
 VINA RESULT:      -9.5      0.000      0.000
  Name = 
  6 active torsions:
  status: ('A' for Active; 'I' for Inactive)
    1  A    between atoms: C_1  and  C_11
    2  A    between atoms: C_6  and  O_7
    3  A    between atoms: C_11  and  C_25
    4  A    between atoms: C_11  and  C_33
    5  A    between atoms: N_12  and  C_16
    6  A    between atoms: C_23  and  C_28
                            x       y       z     vdW  Elec       q    Type
                         _______ _______ _______ _____ _____    ______ ____

>  <TORSDO>
F 6

$$$$
=
 OpenBabel11042421233D

 33 37  0  0  1  0  0  0  0  0999 V2000
  161.0880  208.5170  153.6090 C   0  0  2  0  0  3  0  0  0  0  0  0
  161.1280  203.7430  150.4940 C   0  0  0  0  0  3  0  0  0  0  0  0
  160.9890  206.1670  150.6400 C   0  0  0  0  0  0  0  0  0  0  0  0
  161.0090  203.8190  149.1010 C   0  0  0  0  0  0  0  0  0  0  0  0
  160.8820  205.0740  148.4840 C   0  0  0  0  0  3  0  0  0  0  0  0
  161.1190  204.9070  151.2670 C   0  0  0  0  0  0  0  0  0  0  0  0
  161.2370  204.8300  152.6560 C   0  0  0  0  0  3  0  0  0  0  0  0
  160.8720  206.2440  149.2510 C   0  0  0  0  0  3  0  0  0  0  0  0
  160.9790  207.3320  151.4130 C   0  0  0  0  0  3  0  0  0  0  0  0
  161.0980  207.2520  152.8050 C   0  0  0  0  0  0  0  0  0  0  0  0
  161.2270  205.9990  153.4240 C   0  0  0  0  0  3  0  0  0  0  0  0
  161.0230  202.6350  148.3580 O   0  0  0  0  0  0  0  0  0  0  0  0
  160.9210  201.3510  148.9590 C   0  0  0  0  0  1  0  0  0  0  0  0
  161.5780  208.3620  156.1930 C   0  0  0  0  0  2  0  0  0  0  0  0
  159.6070  207.3010  155.2390 O   0  0  0  0  0  1  0  0  0  0  0  0
  160.5070  209.4350  156.0010 C   0  0  0  0  0  2  0  0  0  0  0  0
  160.5960  208.2640  155.0480 C   0  0  0  0  0  0  0  0  0  0  0  0
  160.3650  209.6050  152.8700 C   0  0  0  0  0  3  0  0  0  0  0  0
  160.9570  210.7660  152.6160 C   0  0  0  0  0  3  0  0  0  0  0  0
  160.3030  211.8350  151.9180 N   0  0  0  0  0  2  0  0  0  0  0  0
  159.4330  213.0110  153.7560 O   0  0  0  0  0  0  0  0  0  0  0  0
  159.5710  212.9220  152.5070 C   0  0  0  0  0  0  0  0  0  0  0  0
  160.9900  213.8180  148.3600 C   0  0  0  0  0  3  0  0  0  0  0  0
  157.2060  213.5690  150.1320 C   0  0  0  0  0  0  0  0  0  0  0  0
  157.5220  213.7700  151.5040 N   0  0  0  0  0  0  0  0  0  0  0  0
  160.7670  213.9620  149.7410 C   0  0  0  0  0  3  0  0  0  0  0  0
  156.5510  214.0670  152.5430 C   0  0  0  0  0  1  0  0  0  0  0  0
  156.0390  213.4070  149.6850 O   0  0  0  0  0  0  0  0  0  0  0  0
  158.4130  213.6060  149.3480 C   0  0  0  0  0  0  0  0  0  0  0  0
  158.9680  213.9770  151.6340 C   0  0  2  0  0  3  0  0  0  0  0  0
  159.4600  213.8450  150.2150 C   0  0  0  0  0  0  0  0  0  0  0  0
  158.6040  213.4630  147.9760 C   0  0  0  0  0  3  0  0  0  0  0  0
  159.9160  213.5690  147.4830 C   0  0  0  0  0  3  0  0  0  0  0  0
  1 18  1  6  0  0  0
  1 17  1  0  0  0  0
  2  6  1  0  0  0  0
  3  6  2  0  0  0  0
  3  9  1  0  0  0  0
  4  2  2  0  0  0  0
  5  4  1  0  0  0  0
  5  8  2  0  0  0  0
  6  7  1  0  0  0  0
  7 11  2  0  0  0  0
  8  3  1  0  0  0  0
  9 10  2  0  0  0  0
 10 11  1  0  0  0  0
 10  1  1  0  0  0  0
 12 13  1  0  0  0  0
 12  4  1  0  0  0  0
 16 14  1  0  0  0  0
 17 15  1  0  0  0  0
 17 16  1  0  0  0  0
 17 14  1  0  0  0  0
 19 18  2  0  0  0  0
 20 22  1  0  0  0  0
 20 19  1  0  0  0  0
 22 21  2  0  0  0  0
 23 26  1  0  0  0  0
 24 25  1  0  0  0  0
 25 30  1  0  0  0  0
 25 27  1  0  0  0  0
 26 31  2  0  0  0  0
 28 24  2  0  0  0  0
 29 24  1  0  0  0  0
 29 31  1  0  0  0  0
 30 22  1  1  0  0  0
 31 30  1  0  0  0  0
 32 29  2  0  0  0  0
 33 32  1  0  0  0  0
 33 23  2  0  0  0  0
M  END
>  <MODEL>
2

>  <REMARK>
 VINA RESULT:      -9.1      3.165      4.349
  Name = 
  6 active torsions:
  status: ('A' for Active; 'I' for Inactive)
    1  A    between atoms: C_1  and  C_11
    2  A    between atoms: C_6  and  O_7
    3  A    between atoms: C_11  and  C_25
    4  A    between atoms: C_11  and  C_33
    5  A    between atoms: N_12  and  C_16
    6  A    between atoms: C_23  and  C_28
                            x       y       z     vdW  Elec       q    Type
                         _______ _______ _______ _____ _____    ______ ____

>  <TORSDO>
F 6

$$$$
=
 OpenBabel11042421233D

 33 37  0  0  1  0  0  0  0  0999 V2000
  161.3150  208.6640  153.9610 C   0  0  2  0  0  3  0  0  0  0  0  0
  161.0340  204.1820  150.4500 C   0  0  0  0  0  3  0  0  0  0  0  0
  161.0660  206.5880  150.8030 C   0  0  0  0  0  0  0  0  0  0  0  0
  160.9290  204.3840  149.0690 C   0  0  0  0  0  0  0  0  0  0  0  0
  160.8940  205.6940  148.5610 C   0  0  0  0  0  3  0  0  0  0  0  0
  161.1030  205.2730  151.3200 C   0  0  0  0  0  0  0  0  0  0  0  0
  161.2080  205.0710  152.6980 C   0  0  0  0  0  3  0  0  0  0  0  0
  160.9620  206.7920  149.4250 C   0  0  0  0  0  3  0  0  0  0  0  0
  161.1350  207.6810  151.6720 C   0  0  0  0  0  3  0  0  0  0  0  0
  161.2400  207.4750  153.0520 C   0  0  0  0  0  0  0  0  0  0  0  0
  161.2770  206.1670  153.5620 C   0  0  0  0  0  3  0  0  0  0  0  0
  160.8630  203.2710  148.2280 O   0  0  0  0  0  0  0  0  0  0  0  0
  160.8350  201.9370  148.7200 C   0  0  0  0  0  1  0  0  0  0  0  0
  159.6240  208.8850  155.9700 C   0  0  0  0  0  2  0  0  0  0  0  0
  161.9020  208.1170  156.3460 O   0  0  0  0  0  1  0  0  0  0  0  0
  159.6930  207.4040  155.6000 C   0  0  0  0  0  2  0  0  0  0  0  0
  160.8950  208.2990  155.4000 C   0  0  0  0  0  0  0  0  0  0  0  0
  160.5880  209.8320  153.3610 C   0  0  0  0  0  3  0  0  0  0  0  0
  160.9110  211.0770  153.6890 C   0  0  0  0  0  3  0  0  0  0  0  0
  160.2410  212.2230  153.1460 N   0  0  0  0  0  2  0  0  0  0  0  0
  158.0250  211.6530  153.6770 O   0  0  0  0  0  0  0  0  0  0  0  0
  158.8270  212.4770  153.1620 C   0  0  0  0  0  0  0  0  0  0  0  0
  158.7270  213.3170  148.7690 C   0  0  0  0  0  3  0  0  0  0  0  0
  156.0490  214.0150  151.9090 C   0  0  0  0  0  0  0  0  0  0  0  0
  156.9170  213.9800  153.0350 N   0  0  0  0  0  0  0  0  0  0  0  0
  159.1130  213.3850  150.1190 C   0  0  0  0  0  3  0  0  0  0  0  0
  156.5680  214.4470  154.3660 C   0  0  0  0  0  1  0  0  0  0  0  0
  154.8120  214.2460  151.9700 O   0  0  0  0  0  0  0  0  0  0  0  0
  156.8050  213.7740  150.7090 C   0  0  0  0  0  0  0  0  0  0  0  0
  158.2880  213.7410  152.5710 C   0  0  2  0  0  3  0  0  0  0  0  0
  158.1240  213.6100  151.0790 C   0  0  0  0  0  0  0  0  0  0  0  0
  156.3950  213.7150  149.3790 C   0  0  0  0  0  3  0  0  0  0  0  0
  157.3760  213.4800  148.4010 C   0  0  0  0  0  3  0  0  0  0  0  0
  1 18  1  6  0  0  0
  1 17  1  0  0  0  0
  2  6  1  0  0  0  0
  3  6  2  0  0  0  0
  3  9  1  0  0  0  0
  4  2  2  0  0  0  0
  5  4  1  0  0  0  0
  5  8  2  0  0  0  0
  6  7  1  0  0  0  0
  7 11  2  0  0  0  0
  8  3  1  0  0  0  0
  9 10  2  0  0  0  0
 10 11  1  0  0  0  0
 10  1  1  0  0  0  0
 12 13  1  0  0  0  0
 12  4  1  0  0  0  0
 16 14  1  0  0  0  0
 17 16  1  0  0  0  0
 17 14  1  0  0  0  0
 17 15  1  0  0  0  0
 18 19  2  0  0  0  0
 20 22  1  0  0  0  0
 20 19  1  0  0  0  0
 22 21  2  0  0  0  0
 23 26  1  0  0  0  0
 24 28  2  0  0  0  0
 24 25  1  0  0  0  0
 25 27  1  0  0  0  0
 26 31  2  0  0  0  0
 29 31  1  0  0  0  0
 29 24  1  0  0  0  0
 30 25  1  0  0  0  0
 30 22  1  1  0  0  0
 31 30  1  0  0  0  0
 32 29  2  0  0  0  0
 33 23  2  0  0  0  0
 33 32  1  0  0  0  0
M  END
>  <MODEL>
3

>  <REMARK>
 VINA RESULT:      -9.0      3.940      5.303
  Name = 
  6 active torsions:
  status: ('A' for Active; 'I' for Inactive)
    1  A    between atoms: C_1  and  C_11
    2  A    between atoms: C_6  and  O_7
    3  A    between atoms: C_11  and  C_25
    4  A    between atoms: C_11  and  C_33
    5  A    between atoms: N_12  and  C_16
    6  A    between atoms: C_23  and  C_28
                            x       y       z     vdW  Elec       q    Type
                         _______ _______ _______ _____ _____    ______ ____

>  <TORSDO>
F 6

$$$$
=
 OpenBabel11042421233D

 33 37  0  0  1  0  0  0  0  0999 V2000
  161.9570  209.7900  151.0430 C   0  0  2  0  0  3  0  0  0  0  0  0
  161.1960  204.1860  150.3240 C   0  0  0  0  0  3  0  0  0  0  0  0
  161.4800  206.4150  149.3920 C   0  0  0  0  0  0  0  0  0  0  0  0
  161.1070  203.6550  149.0320 C   0  0  0  0  0  0  0  0  0  0  0  0
  161.2060  204.5120  147.9230 C   0  0  0  0  0  3  0  0  0  0  0  0
  161.3820  205.5580  150.5120 C   0  0  0  0  0  0  0  0  0  0  0  0
  161.4710  206.0870  151.8010 C   0  0  0  0  0  3  0  0  0  0  0  0
  161.3930  205.8870  148.1020 C   0  0  0  0  0  3  0  0  0  0  0  0
  161.6660  207.7870  149.5790 C   0  0  0  0  0  3  0  0  0  0  0  0
  161.7550  208.3150  150.8720 C   0  0  0  0  0  0  0  0  0  0  0  0
  161.6580  207.4610  151.9820 C   0  0  0  0  0  3  0  0  0  0  0  0
  160.9210  202.2790  148.8800 O   0  0  0  0  0  0  0  0  0  0  0  0
  160.7350  201.4030  149.9840 C   0  0  0  0  0  1  0  0  0  0  0  0
  160.4530  211.3090  152.5840 C   0  0  0  0  0  2  0  0  0  0  0  0
  162.5090  210.3260  153.4390 O   0  0  0  0  0  1  0  0  0  0  0  0
  160.1640  209.8570  152.9630 C   0  0  0  0  0  2  0  0  0  0  0  0
  161.5290  210.2560  152.4500 C   0  0  0  0  0  0  0  0  0  0  0  0
  161.3340  210.5430  149.9050 C   0  0  0  0  0  3  0  0  0  0  0  0
  162.0480  211.3930  149.1770 C   0  0  0  0  0  3  0  0  0  0  0  0
  161.4930  212.1380  148.0840 N   0  0  0  0  0  2  0  0  0  0  0  0
  161.5910  214.2950  149.0070 O   0  0  0  0  0  0  0  0  0  0  0  0
  161.2890  213.5590  148.0310 C   0  0  0  0  0  0  0  0  0  0  0  0
  163.2290  213.3240  144.0060 C   0  0  0  0  0  3  0  0  0  0  0  0
  159.2650  213.0700  145.3260 C   0  0  0  0  0  0  0  0  0  0  0  0
  159.3420  213.7330  146.5820 N   0  0  0  0  0  0  0  0  0  0  0  0
  162.7810  213.8550  145.2290 C   0  0  0  0  0  3  0  0  0  0  0  0
  158.1950  214.1890  147.3500 C   0  0  0  0  0  1  0  0  0  0  0  0
  158.2050  212.6030  144.8300 O   0  0  0  0  0  0  0  0  0  0  0  0
  160.5680  213.0440  144.7140 C   0  0  0  0  0  0  0  0  0  0  0  0
  160.7200  214.1860  146.7980 C   0  0  2  0  0  3  0  0  0  0  0  0
  161.4360  213.6950  145.5660 C   0  0  0  0  0  0  0  0  0  0  0  0
  160.9830  212.5110  143.4960 C   0  0  0  0  0  3  0  0  0  0  0  0
  162.3360  212.6550  143.1460 C   0  0  0  0  0  3  0  0  0  0  0  0
  1 18  1  6  0  0  0
  1 17  1  0  0  0  0
  2  6  1  0  0  0  0
  3  9  2  0  0  0  0
  3  6  1  0  0  0  0
  4  2  2  0  0  0  0
  5  8  2  0  0  0  0
  5  4  1  0  0  0  0
  6  7  2  0  0  0  0
  7 11  1  0  0  0  0
  8  3  1  0  0  0  0
  9 10  1  0  0  0  0
 10  1  1  0  0  0  0
 10 11  2  0  0  0  0
 12  4  1  0  0  0  0
 12 13  1  0  0  0  0
 14 16  1  0  0  0  0
 17 14  1  0  0  0  0
 17 16  1  0  0  0  0
 17 15  1  0  0  0  0
 19 18  2  0  0  0  0
 20 19  1  0  0  0  0
 22 20  1  0  0  0  0
 22 21  2  0  0  0  0
 23 26  1  0  0  0  0
 24 25  1  0  0  0  0
 25 30  1  0  0  0  0
 25 27  1  0  0  0  0
 26 31  2  0  0  0  0
 28 24  2  0  0  0  0
 29 24  1  0  0  0  0
 29 31  1  0  0  0  0
 30 22  1  1  0  0  0
 31 30  1  0  0  0  0
 32 29  2  0  0  0  0
 33 32  1  0  0  0  0
 33 23  2  0  0  0  0
M  END
>  <MODEL>
4

>  <REMARK>
 VINA RESULT:      -8.9      1.604      2.100
  Name = 
  6 active torsions:
  status: ('A' for Active; 'I' for Inactive)
    1  A    between atoms: C_1  and  C_11
    2  A    between atoms: C_6  and  O_7
    3  A    between atoms: C_11  and  C_25
    4  A    between atoms: C_11  and  C_33
    5  A    between atoms: N_12  and  C_16
    6  A    between atoms: C_23  and  C_28
                            x       y       z     vdW  Elec       q    Type
                         _______ _______ _______ _____ _____    ______ ____

>  <TORSDO>
F 6

$$$$
=
 OpenBabel11042421233D

 33 37  0  0  1  0  0  0  0  0999 V2000
  161.2490  208.9410  153.7870 C   0  0  2  0  0  3  0  0  0  0  0  0
  161.1610  205.0210  149.6500 C   0  0  0  0  0  3  0  0  0  0  0  0
  161.2280  205.5950  152.0120 C   0  0  0  0  0  0  0  0  0  0  0  0
  161.1840  203.6600  149.9780 C   0  0  0  0  0  0  0  0  0  0  0  0
  161.2280  203.2740  151.3290 C   0  0  0  0  0  3  0  0  0  0  0  0
  161.1820  205.9900  150.6560 C   0  0  0  0  0  0  0  0  0  0  0  0
  161.1600  207.3470  150.3280 C   0  0  0  0  0  3  0  0  0  0  0  0
  161.2500  204.2380  152.3420 C   0  0  0  0  0  3  0  0  0  0  0  0
  161.2510  206.5640  153.0200 C   0  0  0  0  0  3  0  0  0  0  0  0
  161.2280  207.9230  152.6880 C   0  0  0  0  0  0  0  0  0  0  0  0
  161.1810  208.3110  151.3390 C   0  0  0  0  0  3  0  0  0  0  0  0
  161.1600  202.7170  148.9480 O   0  0  0  0  0  0  0  0  0  0  0  0
  160.9770  201.3270  149.1830 C   0  0  0  0  0  1  0  0  0  0  0  0
  159.5810  208.5260  155.7850 C   0  0  0  0  0  2  0  0  0  0  0  0
  161.9740  208.1920  156.0780 O   0  0  0  0  0  1  0  0  0  0  0  0
  159.9430  207.1580  155.2090 C   0  0  0  0  0  2  0  0  0  0  0  0
  160.9350  208.2980  155.1540 C   0  0  0  0  0  0  0  0  0  0  0  0
  160.3980  210.1230  153.4280 C   0  0  0  0  0  3  0  0  0  0  0  0
  160.7000  211.3400  153.8650 C   0  0  0  0  0  3  0  0  0  0  0  0
  159.9130  212.4960  153.5510 N   0  0  0  0  0  2  0  0  0  0  0  0
  157.7730  211.6230  153.9680 O   0  0  0  0  0  0  0  0  0  0  0  0
  158.4820  212.6030  153.6190 C   0  0  0  0  0  0  0  0  0  0  0  0
  157.3990  213.8250  149.4530 C   0  0  0  0  0  3  0  0  0  0  0  0
  155.4800  214.1620  153.1580 C   0  0  0  0  0  0  0  0  0  0  0  0
  156.5770  214.0540  154.0560 N   0  0  0  0  0  0  0  0  0  0  0  0
  158.0750  213.7850  150.6850 C   0  0  0  0  0  3  0  0  0  0  0  0
  156.5280  214.3900  155.4690 C   0  0  0  0  0  1  0  0  0  0  0  0
  154.2850  214.3490  153.5110 O   0  0  0  0  0  0  0  0  0  0  0  0
  155.9530  214.0500  151.8020 C   0  0  0  0  0  0  0  0  0  0  0  0
  157.8130  213.8980  153.2810 C   0  0  2  0  0  3  0  0  0  0  0  0
  157.3220  213.8950  151.8560 C   0  0  0  0  0  0  0  0  0  0  0  0
  155.2570  214.0970  150.5960 C   0  0  0  0  0  3  0  0  0  0  0  0
  155.9990  213.9790  149.4090 C   0  0  0  0  0  3  0  0  0  0  0  0
  1 18  1  6  0  0  0
  1 17  1  0  0  0  0
  2  4  2  0  0  0  0
  2  6  1  0  0  0  0
  3  8  1  0  0  0  0
  3  9  1  0  0  0  0
  4  5  1  0  0  0  0
  5  8  2  0  0  0  0
  6  3  2  0  0  0  0
  7  6  1  0  0  0  0
  7 11  2  0  0  0  0
 10  9  2  0  0  0  0
 10  1  1  0  0  0  0
 11 10  1  0  0  0  0
 12 13  1  0  0  0  0
 12  4  1  0  0  0  0
 16 14  1  0  0  0  0
 17 16  1  0  0  0  0
 17 14  1  0  0  0  0
 17 15  1  0  0  0  0
 18 19  2  0  0  0  0
 20 22  1  0  0  0  0
 20 19  1  0  0  0  0
 22 21  2  0  0  0  0
 23 26  1  0  0  0  0
 24 28  2  0  0  0  0
 24 25  1  0  0  0  0
 25 27  1  0  0  0  0
 26 31  2  0  0  0  0
 29 31  1  0  0  0  0
 29 24  1  0  0  0  0
 30 22  1  1  0  0  0
 30 25  1  0  0  0  0
 31 30  1  0  0  0  0
 32 29  2  0  0  0  0
 33 23  2  0  0  0  0
 33 32  1  0  0  0  0
M  END
>  <MODEL>
5

>  <REMARK>
 VINA RESULT:      -8.6      4.622      6.087
  Name = 
  6 active torsions:
  status: ('A' for Active; 'I' for Inactive)
    1  A    between atoms: C_1  and  C_11
    2  A    between atoms: C_6  and  O_7
    3  A    between atoms: C_11  and  C_25
    4  A    between atoms: C_11  and  C_33
    5  A    between atoms: N_12  and  C_16
    6  A    between atoms: C_23  and  C_28
                            x       y       z     vdW  Elec       q    Type
                         _______ _______ _______ _____ _____    ______ ____

>  <TORSDO>
F 6

$$$$
=
 OpenBabel11042421233D

 33 37  0  0  1  0  0  0  0  0999 V2000
  161.6140  208.0940  152.3250 C   0  0  2  0  0  3  0  0  0  0  0  0
  160.8370  203.5850  148.9260 C   0  0  0  0  0  3  0  0  0  0  0  0
  161.2350  204.5180  151.1360 C   0  0  0  0  0  0  0  0  0  0  0  0
  160.8510  202.2940  149.4660 C   0  0  0  0  0  0  0  0  0  0  0  0
  161.0580  202.1230  150.8460 C   0  0  0  0  0  3  0  0  0  0  0  0
  161.0270  204.6970  149.7490 C   0  0  0  0  0  0  0  0  0  0  0  0
  161.0120  205.9850  149.2090 C   0  0  0  0  0  3  0  0  0  0  0  0
  161.2490  203.2310  151.6770 C   0  0  0  0  0  3  0  0  0  0  0  0
  161.4250  205.6300  151.9610 C   0  0  0  0  0  3  0  0  0  0  0  0
  161.4110  206.9200  151.4170 C   0  0  0  0  0  0  0  0  0  0  0  0
  161.2030  207.0930  150.0400 C   0  0  0  0  0  3  0  0  0  0  0  0
  160.6580  201.2040  148.6140 O   0  0  0  0  0  0  0  0  0  0  0  0
  160.8310  201.2900  147.2050 C   0  0  0  0  0  1  0  0  0  0  0  0
  161.5700  208.5430  154.9210 C   0  0  0  0  0  2  0  0  0  0  0  0
  160.4880  206.5750  153.9840 O   0  0  0  0  0  1  0  0  0  0  0  0
  160.2100  208.9670  154.3670 C   0  0  0  0  0  2  0  0  0  0  0  0
  160.9870  207.8470  153.7120 C   0  0  0  0  0  0  0  0  0  0  0  0
  161.1860  209.3630  151.6480 C   0  0  0  0  0  3  0  0  0  0  0  0
  162.0790  210.2720  151.2730 C   0  0  0  0  0  3  0  0  0  0  0  0
  161.7150  211.5000  150.6300 N   0  0  0  0  0  2  0  0  0  0  0  0
  161.9020  210.8230  148.3880 O   0  0  0  0  0  0  0  0  0  0  0  0
  161.6330  211.7350  149.2150 C   0  0  0  0  0  0  0  0  0  0  0  0
  162.7170  213.3020  145.1670 C   0  0  0  0  0  3  0  0  0  0  0  0
  159.2320  213.4350  147.4820 C   0  0  0  0  0  0  0  0  0  0  0  0
  159.7520  213.2200  148.7880 N   0  0  0  0  0  0  0  0  0  0  0  0
  162.7060  213.1460  146.5640 C   0  0  0  0  0  3  0  0  0  0  0  0
  159.0190  213.4520  150.0210 C   0  0  0  0  0  1  0  0  0  0  0  0
  158.0170  213.6410  147.2230 O   0  0  0  0  0  0  0  0  0  0  0  0
  160.3070  213.4070  146.5240 C   0  0  0  0  0  0  0  0  0  0  0  0
  161.2090  213.0750  148.7030 C   0  0  2  0  0  3  0  0  0  0  0  0
  161.4770  213.1960  147.2250 C   0  0  0  0  0  0  0  0  0  0  0  0
  160.2890  213.5690  145.1410 C   0  0  0  0  0  3  0  0  0  0  0  0
  161.5160  213.5110  144.4600 C   0  0  0  0  0  3  0  0  0  0  0  0
  1 18  1  6  0  0  0
  1 17  1  0  0  0  0
  2  4  2  0  0  0  0
  2  6  1  0  0  0  0
  3  8  1  0  0  0  0
  3  9  1  0  0  0  0
  4  5  1  0  0  0  0
  5  8  2  0  0  0  0
  6  3  2  0  0  0  0
  7  6  1  0  0  0  0
  7 11  2  0  0  0  0
 10  9  2  0  0  0  0
 10  1  1  0  0  0  0
 11 10  1  0  0  0  0
 12  4  1  0  0  0  0
 13 12  1  0  0  0  0
 16 14  1  0  0  0  0
 17 15  1  0  0  0  0
 17 16  1  0  0  0  0
 17 14  1  0  0  0  0
 19 18  2  0  0  0  0
 20 19  1  0  0  0  0
 21 22  2  0  0  0  0
 22 20  1  0  0  0  0
 23 26  1  0  0  0  0
 24 25  1  0  0  0  0
 25 27  1  0  0  0  0
 26 31  2  0  0  0  0
 28 24  2  0  0  0  0
 29 31  1  0  0  0  0
 29 24  1  0  0  0  0
 30 25  1  0  0  0  0
 30 22  1  6  0  0  0
 31 30  1  0  0  0  0
 32 29  2  0  0  0  0
 33 32  1  0  0  0  0
 33 23  2  0  0  0  0
M  END
>  <MODEL>
6

>  <REMARK>
 VINA RESULT:      -8.3      1.735      2.632
  Name = 
  6 active torsions:
  status: ('A' for Active; 'I' for Inactive)
    1  A    between atoms: C_1  and  C_11
    2  A    between atoms: C_6  and  O_7
    3  A    between atoms: C_11  and  C_25
    4  A    between atoms: C_11  and  C_33
    5  A    between atoms: N_12  and  C_16
    6  A    between atoms: C_23  and  C_28
                            x       y       z     vdW  Elec       q    Type
                         _______ _______ _______ _____ _____    ______ ____

>  <TORSDO>
F 6

$$$$
=
 OpenBabel11042421233D

 33 37  0  0  1  0  0  0  0  0999 V2000
  161.7170  207.5430  151.5810 C   0  0  2  0  0  3  0  0  0  0  0  0
  161.3280  204.6990  146.6560 C   0  0  0  0  0  3  0  0  0  0  0  0
  161.3770  204.7120  149.0870 C   0  0  0  0  0  0  0  0  0  0  0  0
  161.1840  203.3070  146.6640 C   0  0  0  0  0  0  0  0  0  0  0  0
  161.1360  202.6230  147.8910 C   0  0  0  0  0  3  0  0  0  0  0  0
  161.4240  205.4060  147.8570 C   0  0  0  0  0  0  0  0  0  0  0  0
  161.5680  206.7950  147.8470 C   0  0  0  0  0  3  0  0  0  0  0  0
  161.2320  203.3230  149.0980 C   0  0  0  0  0  3  0  0  0  0  0  0
  161.4740  205.4180  150.2900 C   0  0  0  0  0  3  0  0  0  0  0  0
  161.6180  206.8100  150.2770 C   0  0  0  0  0  0  0  0  0  0  0  0
  161.6640  207.4960  149.0530 C   0  0  0  0  0  3  0  0  0  0  0  0
  161.0890  202.6310  145.4450 O   0  0  0  0  0  0  0  0  0  0  0  0
  160.0990  201.6430  145.1890 C   0  0  0  0  0  1  0  0  0  0  0  0
  161.9890  206.4790  153.9770 C   0  0  0  0  0  2  0  0  0  0  0  0
  160.3230  205.6240  152.4220 O   0  0  0  0  0  1  0  0  0  0  0  0
  160.7730  207.4030  154.0290 C   0  0  0  0  0  2  0  0  0  0  0  0
  161.1460  206.7030  152.7420 C   0  0  0  0  0  0  0  0  0  0  0  0
  161.1470  208.9250  151.4530 C   0  0  0  0  0  3  0  0  0  0  0  0
  161.5050  209.8910  152.2900 C   0  0  0  0  0  3  0  0  0  0  0  0
  160.9820  211.2240  152.2090 N   0  0  0  0  0  2  0  0  0  0  0  0
  158.7440  210.7870  152.7680 O   0  0  0  0  0  0  0  0  0  0  0  0
  159.6260  211.6290  152.4550 C   0  0  0  0  0  0  0  0  0  0  0  0
  157.4830  213.3900  148.9450 C   0  0  0  0  0  3  0  0  0  0  0  0
  157.1840  213.9300  153.0850 C   0  0  0  0  0  0  0  0  0  0  0  0
  158.4610  213.4810  153.5220 N   0  0  0  0  0  0  0  0  0  0  0  0
  158.5200  213.0890  149.8450 C   0  0  0  0  0  3  0  0  0  0  0  0
  159.0140  213.7130  154.8460 C   0  0  0  0  0  1  0  0  0  0  0  0
  156.2920  214.3890  153.8460 O   0  0  0  0  0  0  0  0  0  0  0  0
  157.0920  213.8020  151.6540 C   0  0  0  0  0  0  0  0  0  0  0  0
  159.2480  213.0730  152.3530 C   0  0  2  0  0  3  0  0  0  0  0  0
  158.2960  213.3000  151.2070 C   0  0  0  0  0  0  0  0  0  0  0  0
  156.0480  214.1130  150.7850 C   0  0  0  0  0  3  0  0  0  0  0  0
  156.2540  213.8980  149.4120 C   0  0  0  0  0  3  0  0  0  0  0  0
  1 18  1  6  0  0  0
  1 17  1  0  0  0  0
  2  4  2  0  0  0  0
  2  6  1  0  0  0  0
  3  8  1  0  0  0  0
  3  9  1  0  0  0  0
  4  5  1  0  0  0  0
  5  8  2  0  0  0  0
  6  3  2  0  0  0  0
  7  6  1  0  0  0  0
  7 11  2  0  0  0  0
 10  9  2  0  0  0  0
 10  1  1  0  0  0  0
 11 10  1  0  0  0  0
 12  4  1  0  0  0  0
 13 12  1  0  0  0  0
 14 16  1  0  0  0  0
 15 17  1  0  0  0  0
 17 14  1  0  0  0  0
 17 16  1  0  0  0  0
 18 19  2  0  0  0  0
 20 19  1  0  0  0  0
 20 22  1  0  0  0  0
 22 21  2  0  0  0  0
 23 33  2  0  0  0  0
 23 26  1  0  0  0  0
 24 25  1  0  0  0  0
 24 28  2  0  0  0  0
 25 27  1  0  0  0  0
 26 31  2  0  0  0  0
 29 24  1  0  0  0  0
 30 22  1  1  0  0  0
 30 25  1  0  0  0  0
 31 29  1  0  0  0  0
 31 30  1  0  0  0  0
 32 29  2  0  0  0  0
 33 32  1  0  0  0  0
M  END
>  <MODEL>
7

>  <REMARK>
 VINA RESULT:      -7.7      3.832      4.958
  Name = 
  6 active torsions:
  status: ('A' for Active; 'I' for Inactive)
    1  A    between atoms: C_1  and  C_11
    2  A    between atoms: C_6  and  O_7
    3  A    between atoms: C_11  and  C_25
    4  A    between atoms: C_11  and  C_33
    5  A    between atoms: N_12  and  C_16
    6  A    between atoms: C_23  and  C_28
                            x       y       z     vdW  Elec       q    Type
                         _______ _______ _______ _____ _____    ______ ____

>  <TORSDO>
F 6

$$$$
=
 OpenBabel11042421233D

 33 37  0  0  1  0  0  0  0  0999 V2000
  161.4880  205.2910  150.8940 C   0  0  2  0  0  3  0  0  0  0  0  0
  160.9410  206.2060  145.2940 C   0  0  0  0  0  3  0  0  0  0  0  0
  161.4460  204.7180  147.1500 C   0  0  0  0  0  0  0  0  0  0  0  0
  161.1770  205.1630  144.3910 C   0  0  0  0  0  0  0  0  0  0  0  0
  161.5470  203.8970  144.8760 C   0  0  0  0  0  3  0  0  0  0  0  0
  161.0720  205.9930  146.6690 C   0  0  0  0  0  0  0  0  0  0  0  0
  160.8370  207.0340  147.5690 C   0  0  0  0  0  3  0  0  0  0  0  0
  161.6810  203.6750  146.2510 C   0  0  0  0  0  3  0  0  0  0  0  0
  161.5790  204.5030  148.5250 C   0  0  0  0  0  3  0  0  0  0  0  0
  161.3420  205.5490  149.4250 C   0  0  0  0  0  0  0  0  0  0  0  0
  160.9700  206.8130  148.9430 C   0  0  0  0  0  3  0  0  0  0  0  0
  161.0360  205.4100  143.0230 O   0  0  0  0  0  0  0  0  0  0  0  0
  161.9570  206.2040  142.2880 C   0  0  0  0  0  1  0  0  0  0  0  0
  161.6410  202.7930  151.7200 C   0  0  0  0  0  2  0  0  0  0  0  0
  159.6240  203.6200  150.6390 O   0  0  0  0  0  1  0  0  0  0  0  0
  160.8260  203.5620  152.7590 C   0  0  0  0  0  2  0  0  0  0  0  0
  160.7960  203.9750  151.3050 C   0  0  0  0  0  0  0  0  0  0  0  0
  161.0810  206.5000  151.6840 C   0  0  0  0  0  3  0  0  0  0  0  0
  161.9550  207.1390  152.4520 C   0  0  0  0  0  3  0  0  0  0  0  0
  161.6100  208.2940  153.2280 N   0  0  0  0  0  2  0  0  0  0  0  0
  162.6110  209.9550  151.9030 O   0  0  0  0  0  0  0  0  0  0  0  0
  161.9410  209.6590  152.9280 C   0  0  0  0  0  0  0  0  0  0  0  0
  158.8250  212.6640  151.7960 C   0  0  0  0  0  3  0  0  0  0  0  0
  159.6590  210.5440  155.3070 C   0  0  0  0  0  0  0  0  0  0  0  0
  161.0270  210.2070  155.1160 N   0  0  0  0  0  0  0  0  0  0  0  0
  160.0850  212.1130  152.0910 C   0  0  0  0  0  3  0  0  0  0  0  0
  161.9130  209.7130  156.1570 C   0  0  0  0  0  1  0  0  0  0  0  0
  158.9900  210.2550  156.3350 O   0  0  0  0  0  0  0  0  0  0  0  0
  159.1800  211.2810  154.1670 C   0  0  0  0  0  0  0  0  0  0  0  0
  161.4790  210.7570  153.8330 C   0  0  2  0  0  3  0  0  0  0  0  0
  160.2360  211.4150  153.2900 C   0  0  0  0  0  0  0  0  0  0  0  0
  157.9230  211.8190  153.9020 C   0  0  0  0  0  3  0  0  0  0  0  0
  157.7500  212.5170  152.6950 C   0  0  0  0  0  3  0  0  0  0  0  0
  1 17  1  0  0  0  0
  1 18  1  1  0  0  0
  2  6  1  0  0  0  0
  3  9  1  0  0  0  0
  4  5  1  0  0  0  0
  4  2  2  0  0  0  0
  5  8  2  0  0  0  0
  6  3  2  0  0  0  0
  6  7  1  0  0  0  0
  7 11  2  0  0  0  0
  8  3  1  0  0  0  0
  9 10  2  0  0  0  0
 10  1  1  0  0  0  0
 11 10  1  0  0  0  0
 12  4  1  0  0  0  0
 13 12  1  0  0  0  0
 14 16  1  0  0  0  0
 15 17  1  0  0  0  0
 17 14  1  0  0  0  0
 17 16  1  0  0  0  0
 18 19  2  0  0  0  0
 19 20  1  0  0  0  0
 21 22  2  0  0  0  0
 22 20  1  0  0  0  0
 23 26  2  0  0  0  0
 23 33  1  0  0  0  0
 24 28  2  0  0  0  0
 25 24  1  0  0  0  0
 25 27  1  0  0  0  0
 26 31  1  0  0  0  0
 29 24  1  0  0  0  0
 30 22  1  6  0  0  0
 30 25  1  0  0  0  0
 31 30  1  0  0  0  0
 31 29  2  0  0  0  0
 32 29  1  0  0  0  0
 33 32  2  0  0  0  0
M  END
>  <MODEL>
8

>  <REMARK>
 VINA RESULT:      -7.6      4.435      6.427
  Name = 
  6 active torsions:
  status: ('A' for Active; 'I' for Inactive)
    1  A    between atoms: C_1  and  C_11
    2  A    between atoms: C_6  and  O_7
    3  A    between atoms: C_11  and  C_25
    4  A    between atoms: C_11  and  C_33
    5  A    between atoms: N_12  and  C_16
    6  A    between atoms: C_23  and  C_28
                            x       y       z     vdW  Elec       q    Type
                         _______ _______ _______ _____ _____    ______ ____

>  <TORSDO>
F 6

$$$$
=
 OpenBabel11042421233D

 33 37  0  0  1  0  0  0  0  0999 V2000
  161.7760  207.5760  151.7620 C   0  0  2  0  0  3  0  0  0  0  0  0
  161.2050  203.5570  147.7590 C   0  0  0  0  0  3  0  0  0  0  0  0
  161.7350  205.8450  148.3930 C   0  0  0  0  0  0  0  0  0  0  0  0
  161.4560  203.8690  146.4180 C   0  0  0  0  0  0  0  0  0  0  0  0
  161.8480  205.1730  146.0710 C   0  0  0  0  0  3  0  0  0  0  0  0
  161.3420  204.5350  148.7480 C   0  0  0  0  0  0  0  0  0  0  0  0
  161.0910  204.2230  150.0860 C   0  0  0  0  0  3  0  0  0  0  0  0
  161.9870  206.1570  147.0560 C   0  0  0  0  0  3  0  0  0  0  0  0
  161.8710  206.8240  149.3820 C   0  0  0  0  0  3  0  0  0  0  0  0
  161.6190  206.5080  150.7220 C   0  0  0  0  0  0  0  0  0  0  0  0
  161.2300  205.2060  151.0710 C   0  0  0  0  0  3  0  0  0  0  0  0
  161.3100  202.8680  145.4550 O   0  0  0  0  0  0  0  0  0  0  0  0
  160.4440  201.7540  145.6290 C   0  0  0  0  0  1  0  0  0  0  0  0
  161.3230  208.0160  154.3200 C   0  0  0  0  0  2  0  0  0  0  0  0
  161.9620  205.8020  153.5360 O   0  0  0  0  0  1  0  0  0  0  0  0
  160.0780  207.3360  153.7520 C   0  0  0  0  0  2  0  0  0  0  0  0
  161.4430  207.0430  153.1700 C   0  0  0  0  0  0  0  0  0  0  0  0
  161.0360  208.8180  151.3580 C   0  0  0  0  0  3  0  0  0  0  0  0
  161.4790  210.0200  151.7080 C   0  0  0  0  0  3  0  0  0  0  0  0
  160.8020  211.2320  151.3500 N   0  0  0  0  0  2  0  0  0  0  0  0
  160.1530  211.9500  153.4900 O   0  0  0  0  0  0  0  0  0  0  0  0
  160.1690  212.1580  152.2480 C   0  0  0  0  0  0  0  0  0  0  0  0
  161.0220  213.8380  148.1900 C   0  0  0  0  0  3  0  0  0  0  0  0
  157.5340  213.3890  150.4600 C   0  0  0  0  0  0  0  0  0  0  0  0
  158.0640  213.2850  151.7760 N   0  0  0  0  0  0  0  0  0  0  0  0
  161.0170  213.7000  149.5890 C   0  0  0  0  0  3  0  0  0  0  0  0
  157.2830  213.4020  152.9960 C   0  0  0  0  0  1  0  0  0  0  0  0
  156.3050  213.3760  150.1840 O   0  0  0  0  0  0  0  0  0  0  0  0
  158.6110  213.5370  149.5160 C   0  0  0  0  0  0  0  0  0  0  0  0
  159.5250  213.3970  151.7110 C   0  0  2  0  0  3  0  0  0  0  0  0
  159.7890  213.5430  150.2340 C   0  0  0  0  0  0  0  0  0  0  0  0
  158.5850  213.6750  148.1300 C   0  0  0  0  0  3  0  0  0  0  0  0
  159.8130  213.8240  147.4650 C   0  0  0  0  0  3  0  0  0  0  0  0
  1 18  1  6  0  0  0
  1 17  1  0  0  0  0
  2  6  1  0  0  0  0
  3  6  2  0  0  0  0
  3  9  1  0  0  0  0
  4  2  2  0  0  0  0
  5  4  1  0  0  0  0
  5  8  2  0  0  0  0
  6  7  1  0  0  0  0
  7 11  2  0  0  0  0
  8  3  1  0  0  0  0
  9 10  2  0  0  0  0
 10 11  1  0  0  0  0
 10  1  1  0  0  0  0
 12 13  1  0  0  0  0
 12  4  1  0  0  0  0
 16 14  1  0  0  0  0
 17 15  1  0  0  0  0
 17 16  1  0  0  0  0
 17 14  1  0  0  0  0
 18 19  2  0  0  0  0
 20 19  1  0  0  0  0
 20 22  1  0  0  0  0
 22 21  2  0  0  0  0
 23 26  1  0  0  0  0
 24 25  1  0  0  0  0
 25 27  1  0  0  0  0
 26 31  2  0  0  0  0
 28 24  2  0  0  0  0
 29 31  1  0  0  0  0
 29 24  1  0  0  0  0
 30 25  1  0  0  0  0
 30 22  1  6  0  0  0
 31 30  1  0  0  0  0
 32 29  2  0  0  0  0
 33 32  1  0  0  0  0
 33 23  2  0  0  0  0
M  END
>  <MODEL>
9

>  <REMARK>
 VINA RESULT:      -7.5      2.735      3.597
  Name = 
  6 active torsions:
  status: ('A' for Active; 'I' for Inactive)
    1  A    between atoms: C_1  and  C_11
    2  A    between atoms: C_6  and  O_7
    3  A    between atoms: C_11  and  C_25
    4  A    between atoms: C_11  and  C_33
    5  A    between atoms: N_12  and  C_16
    6  A    between atoms: C_23  and  C_28
                            x       y       z     vdW  Elec       q    Type
                         _______ _______ _______ _____ _____    ______ ____

>  <TORSDO>
F 6

$$$$
