=
 OpenBabel11042422383D

 33 36  0  0  1  0  0  0  0  0999 V2000
  160.1340  209.6030  154.2080 C   0  0  2  0  0  3  0  0  0  0  0  0
  156.5450  213.1390  153.7810 C   0  0  0  0  0  3  0  0  0  0  0  0
  159.3190  210.7830  154.5140 N   0  0  0  0  0  0  0  0  0  0  0  0
  156.4970  212.2360  156.4360 C   0  0  0  0  0  3  0  0  0  0  0  0
  158.8470  210.2680  156.7840 O   0  0  0  0  0  0  0  0  0  0  0  0
  155.5500  213.5560  154.6810 C   0  0  0  0  0  0  0  0  0  0  0  0
  158.6720  211.6470  153.5070 C   0  0  1  0  0  3  0  0  0  0  0  0
  155.5480  213.1010  155.9730 N   0  0  0  0  0  0  0  0  0  0  0  0
  157.4920  211.8240  155.5560 C   0  0  0  0  0  0  0  0  0  0  0  0
  154.5360  214.4530  154.2460 N   0  0  0  0  0  1  0  0  0  0  0  0
  157.5210  212.2630  154.2560 C   0  0  0  0  0  0  0  0  0  0  0  0
  158.5850  210.9070  155.7300 C   0  0  0  0  0  0  0  0  0  0  0  0
  159.7320  212.9790  151.6900 C   0  0  0  0  0  2  0  0  0  0  0  0
  159.6210  212.6930  152.9890 C   0  0  0  0  0  3  0  0  0  0  0  0
  161.5120  209.6520  154.8870 C   0  0  1  0  0  3  0  0  0  0  0  0
  161.8050  211.0540  155.3920 C   0  0  0  0  0  1  0  0  0  0  0  0
  161.5990  208.7010  156.0390 C   0  0  0  0  0  0  0  0  0  0  0  0
  160.8820  207.6650  156.0490 O   0  0  0  0  0  0  0  0  0  0  0  0
  162.4780  208.9420  157.0890 O   0  0  0  0  0  1  0  0  0  0  0  0
  160.1850  209.3330  152.6960 C   0  0  0  0  0  2  0  0  0  0  0  0
  161.0230  208.1460  152.3460 C   0  0  0  0  0  0  0  0  0  0  0  0
  162.0950  206.6240  151.9320 C   0  0  1  0  0  3  0  0  0  0  0  0
  162.1680  207.9950  151.6620 N   0  0  0  0  0  0  0  0  0  0  0  0
  160.8990  206.6980  152.6140 N   0  0  0  0  0  2  0  0  0  0  0  0
  161.9200  205.8450  150.6650 C   0  0  0  0  0  3  0  0  0  0  0  0
  161.4300  204.6100  150.6960 C   0  0  0  0  0  3  0  0  0  0  0  0
  160.6860  201.8600  150.8400 O   0  0  0  0  0  1  0  0  0  0  0  0
  160.6960  201.6780  148.4410 C   0  0  0  0  0  3  0  0  0  0  0  0
  160.8730  202.4460  149.5930 C   0  0  0  0  0  0  0  0  0  0  0  0
  161.2390  203.5740  147.0950 N   0  0  0  0  0  0  0  0  0  0  0  0
  161.2370  203.7970  149.4830 C   0  0  0  0  0  0  0  0  0  0  0  0
  160.8860  202.2630  147.1890 C   0  0  0  0  0  3  0  0  0  0  0  0
  161.4160  204.3430  148.2020 C   0  0  0  0  0  3  0  0  0  0  0  0
  1 20  1  6  0  0  0
  1  3  1  0  0  0  0
  1 15  1  0  0  0  0
  2 11  2  0  0  0  0
  2  6  1  0  0  0  0
  3 12  1  0  0  0  0
  6  8  2  0  0  0  0
  7 14  1  1  0  0  0
  7 11  1  0  0  0  0
  7  3  1  0  0  0  0
  8  4  1  0  0  0  0
  9 12  1  0  0  0  0
  9  4  2  0  0  0  0
 10  6  1  0  0  0  0
 11  9  1  0  0  0  0
 12  5  2  0  0  0  0
 13 14  2  0  0  0  0
 15 16  1  1  0  0  0
 15 17  1  0  0  0  0
 17 18  2  0  0  0  0
 17 19  1  0  0  0  0
 21 24  1  0  0  0  0
 21 20  1  0  0  0  0
 22 25  1  6  0  0  0
 22 24  1  0  0  0  0
 23 22  1  0  0  0  0
 23 21  2  0  0  0  0
 25 26  2  0  0  0  0
 28 29  1  0  0  0  0
 29 27  1  0  0  0  0
 30 32  1  0  0  0  0
 30 33  2  0  0  0  0
 31 29  2  0  0  0  0
 31 26  1  0  0  0  0
 32 28  2  0  0  0  0
 33 31  1  0  0  0  0
M  END
>  <MODEL>
1

>  <REMARK>
 VINA RESULT:      -7.0      0.000      0.000
  Name = 
  8 active torsions:
  status: ('A' for Active; 'I' for Inactive)
    1  A    between atoms: N_5  and  C_21
    2  A    between atoms: C_7  and  C_20
    3  A    between atoms: C_10  and  C_13
    4  A    between atoms: C_11  and  C_26
    5  A    between atoms: C_13  and  C_21
    6  A    between atoms: C_14  and  C_19
    7  A    between atoms: C_16  and  C_17
    8  A    between atoms: C_16  and  C_21
                            x       y       z     vdW  Elec       q    Type
                         _______ _______ _______ _____ _____    ______ ____

>  <TORSDO>
F 8

$$$$
=
 OpenBabel11042422383D

 33 36  0  0  1  0  0  0  0  0999 V2000
  161.1450  209.1270  152.1990 C   0  0  2  0  0  3  0  0  0  0  0  0
  158.2580  211.9800  155.2140 C   0  0  0  0  0  3  0  0  0  0  0  0
  160.7230  210.2480  153.0440 N   0  0  0  0  0  0  0  0  0  0  0  0
  160.8050  211.8680  156.3820 C   0  0  0  0  0  3  0  0  0  0  0  0
  162.6490  210.3500  154.4300 O   0  0  0  0  0  0  0  0  0  0  0  0
  158.5080  212.5230  156.4850 C   0  0  0  0  0  0  0  0  0  0  0  0
  159.3300  210.7150  153.1960 C   0  0  1  0  0  3  0  0  0  0  0  0
  159.7600  212.4560  157.0340 N   0  0  0  0  0  0  0  0  0  0  0  0
  160.5710  211.3350  155.1190 C   0  0  0  0  0  0  0  0  0  0  0  0
  157.4510  213.1430  157.2080 N   0  0  0  0  0  1  0  0  0  0  0  0
  159.3260  211.3880  154.5420 C   0  0  0  0  0  0  0  0  0  0  0  0
  161.4400  210.6300  154.2160 C   0  0  0  0  0  0  0  0  0  0  0  0
  159.7390  212.6720  151.7110 C   0  0  0  0  0  2  0  0  0  0  0  0
  158.9470  211.6680  152.0970 C   0  0  0  0  0  3  0  0  0  0  0  0
  161.5250  207.8850  153.0220 C   0  0  1  0  0  3  0  0  0  0  0  0
  160.4540  207.5870  154.0560 C   0  0  0  0  0  1  0  0  0  0  0  0
  161.7020  206.6770  152.1560 C   0  0  0  0  0  0  0  0  0  0  0  0
  162.8330  206.1300  152.0740 O   0  0  0  0  0  1  0  0  0  0  0  0
  160.6240  206.1430  151.4590 O   0  0  0  0  0  0  0  0  0  0  0  0
  162.2120  209.5610  151.1820 C   0  0  0  0  0  2  0  0  0  0  0  0
  162.1540  208.7800  149.9100 C   0  0  0  0  0  0  0  0  0  0  0  0
  162.1070  207.8010  148.2730 C   0  0  1  0  0  3  0  0  0  0  0  0
  161.1910  208.5680  149.0010 N   0  0  0  0  0  0  0  0  0  0  0  0
  163.1330  207.9440  149.1840 N   0  0  0  0  0  2  0  0  0  0  0  0
  161.6680  206.3720  148.2110 C   0  0  0  0  0  3  0  0  0  0  0  0
  161.9530  205.6250  147.1490 C   0  0  0  0  0  3  0  0  0  0  0  0
  161.4300  204.4220  144.6150 O   0  0  0  0  0  1  0  0  0  0  0  0
  160.9040  202.3210  145.6620 C   0  0  0  0  0  3  0  0  0  0  0  0
  161.2940  203.6570  145.7690 C   0  0  0  0  0  0  0  0  0  0  0  0
  161.0090  202.1040  148.0380 N   0  0  0  0  0  0  0  0  0  0  0  0
  161.5450  204.2140  147.0320 C   0  0  0  0  0  0  0  0  0  0  0  0
  160.7640  201.5530  146.8190 C   0  0  0  0  0  3  0  0  0  0  0  0
  161.3920  203.4030  148.1670 C   0  0  0  0  0  3  0  0  0  0  0  0
  1 20  1  1  0  0  0
  1 15  1  0  0  0  0
  1  3  1  0  0  0  0
  2  6  1  0  0  0  0
  3  7  1  0  0  0  0
  3 12  1  0  0  0  0
  4  8  1  0  0  0  0
  6  8  2  0  0  0  0
  6 10  1  0  0  0  0
  7 14  1  6  0  0  0
  7 11  1  0  0  0  0
  9  4  2  0  0  0  0
 11  9  1  0  0  0  0
 11  2  2  0  0  0  0
 12  5  2  0  0  0  0
 12  9  1  0  0  0  0
 13 14  2  0  0  0  0
 15 16  1  1  0  0  0
 17 15  1  0  0  0  0
 18 17  1  0  0  0  0
 19 17  2  0  0  0  0
 21 20  1  0  0  0  0
 22 25  1  1  0  0  0
 22 23  1  0  0  0  0
 22 24  1  0  0  0  0
 23 21  2  0  0  0  0
 24 21  1  0  0  0  0
 26 25  2  0  0  0  0
 27 29  1  0  0  0  0
 28 29  2  0  0  0  0
 28 32  1  0  0  0  0
 29 31  1  0  0  0  0
 30 33  1  0  0  0  0
 31 26  1  0  0  0  0
 31 33  2  0  0  0  0
 32 30  2  0  0  0  0
M  END
>  <MODEL>
2

>  <REMARK>
 VINA RESULT:      -6.9      2.407      3.472
  Name = 
  8 active torsions:
  status: ('A' for Active; 'I' for Inactive)
    1  A    between atoms: N_5  and  C_21
    2  A    between atoms: C_7  and  C_20
    3  A    between atoms: C_10  and  C_13
    4  A    between atoms: C_11  and  C_26
    5  A    between atoms: C_13  and  C_21
    6  A    between atoms: C_14  and  C_19
    7  A    between atoms: C_16  and  C_17
    8  A    between atoms: C_16  and  C_21
                            x       y       z     vdW  Elec       q    Type
                         _______ _______ _______ _____ _____    ______ ____

>  <TORSDO>
F 8

$$$$
=
 OpenBabel11042422383D

 33 36  0  0  1  0  0  0  0  0999 V2000
  160.8970  209.1760  153.2470 C   0  0  2  0  0  3  0  0  0  0  0  0
  158.1870  212.7620  155.5620 C   0  0  0  0  0  3  0  0  0  0  0  0
  160.5430  210.4720  153.8330 N   0  0  0  0  0  0  0  0  0  0  0  0
  160.7240  212.7500  156.7570 C   0  0  0  0  0  3  0  0  0  0  0  0
  162.4730  210.7500  155.1890 O   0  0  0  0  0  0  0  0  0  0  0  0
  158.4700  213.5440  156.6940 C   0  0  0  0  0  0  0  0  0  0  0  0
  159.1810  211.0400  153.8670 C   0  0  1  0  0  3  0  0  0  0  0  0
  159.7160  213.5210  157.2600 N   0  0  0  0  0  0  0  0  0  0  0  0
  160.4580  211.9780  155.6320 C   0  0  0  0  0  0  0  0  0  0  0  0
  157.4520  214.3630  157.2580 N   0  0  0  0  0  1  0  0  0  0  0  0
  159.2180  211.9800  155.0420 C   0  0  0  0  0  0  0  0  0  0  0  0
  161.2830  211.0500  154.9070 C   0  0  0  0  0  0  0  0  0  0  0  0
  159.6300  212.7300  152.0940 C   0  0  0  0  0  2  0  0  0  0  0  0
  158.8550  211.7620  152.5880 C   0  0  0  0  0  3  0  0  0  0  0  0
  161.2210  208.1190  154.3160 C   0  0  1  0  0  3  0  0  0  0  0  0
  160.1530  208.1140  155.3960 C   0  0  0  0  0  1  0  0  0  0  0  0
  161.3150  206.7450  153.7300 C   0  0  0  0  0  0  0  0  0  0  0  0
  160.2690  206.0630  153.5680 O   0  0  0  0  0  1  0  0  0  0  0  0
  162.5460  206.2260  153.3450 O   0  0  0  0  0  0  0  0  0  0  0  0
  161.9750  209.3250  152.1620 C   0  0  0  0  0  2  0  0  0  0  0  0
  161.7890  208.3770  151.0230 C   0  0  0  0  0  0  0  0  0  0  0  0
  161.5660  207.1890  149.5470 C   0  0  1  0  0  3  0  0  0  0  0  0
  160.7150  207.7770  150.4880 N   0  0  0  0  0  0  0  0  0  0  0  0
  162.7190  207.7400  150.0670 N   0  0  0  0  0  2  0  0  0  0  0  0
  161.5870  205.7010  149.7110 C   0  0  0  0  0  3  0  0  0  0  0  0
  160.9780  204.9170  148.8270 C   0  0  0  0  0  3  0  0  0  0  0  0
  161.4200  203.2390  146.5620 O   0  0  0  0  0  1  0  0  0  0  0  0
  161.1650  201.2630  147.9110 C   0  0  0  0  0  3  0  0  0  0  0  0
  161.1840  202.6550  147.8020 C   0  0  0  0  0  0  0  0  0  0  0  0
  160.7150  201.4540  150.2480 N   0  0  0  0  0  0  0  0  0  0  0  0
  160.9640  203.4480  148.9390 C   0  0  0  0  0  0  0  0  0  0  0  0
  160.9260  200.6750  149.1530 C   0  0  0  0  0  3  0  0  0  0  0  0
  160.7290  202.8120  150.1680 C   0  0  0  0  0  3  0  0  0  0  0  0
  1 20  1  6  0  0  0
  1  3  1  0  0  0  0
  1 15  1  0  0  0  0
  2  6  1  0  0  0  0
  3  7  1  0  0  0  0
  3 12  1  0  0  0  0
  4  8  1  0  0  0  0
  6 10  1  0  0  0  0
  6  8  2  0  0  0  0
  7 14  1  6  0  0  0
  7 11  1  0  0  0  0
  9  4  2  0  0  0  0
 11  2  2  0  0  0  0
 11  9  1  0  0  0  0
 12  5  2  0  0  0  0
 12  9  1  0  0  0  0
 13 14  2  0  0  0  0
 15 16  1  1  0  0  0
 17 15  1  0  0  0  0
 18 17  1  0  0  0  0
 19 17  2  0  0  0  0
 21 20  1  0  0  0  0
 22 25  1  1  0  0  0
 22 24  1  0  0  0  0
 22 23  1  0  0  0  0
 23 21  2  0  0  0  0
 24 21  1  0  0  0  0
 26 31  1  0  0  0  0
 26 25  2  0  0  0  0
 27 29  1  0  0  0  0
 28 32  1  0  0  0  0
 29 28  2  0  0  0  0
 29 31  1  0  0  0  0
 31 33  2  0  0  0  0
 32 30  2  0  0  0  0
 33 30  1  0  0  0  0
M  END
>  <MODEL>
3

>  <REMARK>
 VINA RESULT:      -6.8      2.120      2.778
  Name = 
  8 active torsions:
  status: ('A' for Active; 'I' for Inactive)
    1  A    between atoms: N_5  and  C_21
    2  A    between atoms: C_7  and  C_20
    3  A    between atoms: C_10  and  C_13
    4  A    between atoms: C_11  and  C_26
    5  A    between atoms: C_13  and  C_21
    6  A    between atoms: C_14  and  C_19
    7  A    between atoms: C_16  and  C_17
    8  A    between atoms: C_16  and  C_21
                            x       y       z     vdW  Elec       q    Type
                         _______ _______ _______ _____ _____    ______ ____

>  <TORSDO>
F 8

$$$$
=
 OpenBabel11042422383D

 33 36  0  0  1  0  0  0  0  0999 V2000
  160.2430  209.9240  154.9340 C   0  0  2  0  0  3  0  0  0  0  0  0
  156.2020  212.9530  154.6880 C   0  0  0  0  0  3  0  0  0  0  0  0
  159.4300  211.1430  154.9840 N   0  0  0  0  0  0  0  0  0  0  0  0
  157.5580  213.5850  157.0590 C   0  0  0  0  0  3  0  0  0  0  0  0
  160.1630  211.9320  157.1020 O   0  0  0  0  0  0  0  0  0  0  0  0
  155.6630  213.8490  155.6260 C   0  0  0  0  0  0  0  0  0  0  0  0
  158.2300  211.3930  154.1610 C   0  0  1  0  0  3  0  0  0  0  0  0
  156.3450  214.1420  156.7760 N   0  0  0  0  0  0  0  0  0  0  0  0
  158.1050  212.7030  156.1340 C   0  0  0  0  0  0  0  0  0  0  0  0
  154.3990  214.4530  155.3790 N   0  0  0  0  0  1  0  0  0  0  0  0
  157.4460  212.3900  154.9710 C   0  0  0  0  0  0  0  0  0  0  0  0
  159.3230  211.9380  156.1630 C   0  0  0  0  0  0  0  0  0  0  0  0
  159.3640  213.0220  152.6570 C   0  0  0  0  0  2  0  0  0  0  0  0
  158.5960  211.9400  152.8090 C   0  0  0  0  0  3  0  0  0  0  0  0
  160.4470  209.2990  156.3240 C   0  0  1  0  0  3  0  0  0  0  0  0
  159.6710  207.9980  156.4390 C   0  0  0  0  0  1  0  0  0  0  0  0
  161.8900  209.0210  156.6040 C   0  0  0  0  0  0  0  0  0  0  0  0
  162.3300  207.8450  156.5060 O   0  0  0  0  0  0  0  0  0  0  0  0
  162.7540  210.0550  156.9500 O   0  0  0  0  0  1  0  0  0  0  0  0
  161.5430  210.1480  154.1470 C   0  0  0  0  0  2  0  0  0  0  0  0
  161.4930  209.5790  152.7660 C   0  0  0  0  0  0  0  0  0  0  0  0
  161.4450  208.8800  150.9920 C   0  0  1  0  0  3  0  0  0  0  0  0
  160.4890  209.1920  151.9650 N   0  0  0  0  0  0  0  0  0  0  0  0
  162.5290  209.2240  151.7740 N   0  0  0  0  0  2  0  0  0  0  0  0
  161.4560  207.4090  150.7140 C   0  0  0  0  0  3  0  0  0  0  0  0
  161.2820  206.9560  149.4770 C   0  0  0  0  0  3  0  0  0  0  0  0
  161.7480  206.0350  146.8170 O   0  0  0  0  0  1  0  0  0  0  0  0
  161.5060  203.7450  147.5120 C   0  0  0  0  0  3  0  0  0  0  0  0
  161.5120  205.1050  147.8240 C   0  0  0  0  0  0  0  0  0  0  0  0
  161.0450  203.2260  149.7970 N   0  0  0  0  0  0  0  0  0  0  0  0
  161.2810  205.5210  149.1450 C   0  0  0  0  0  0  0  0  0  0  0  0
  161.2680  202.8100  148.5210 C   0  0  0  0  0  3  0  0  0  0  0  0
  161.0460  204.5450  150.1260 C   0  0  0  0  0  3  0  0  0  0  0  0
  1 20  1  1  0  0  0
  1  3  1  0  0  0  0
  1 15  1  0  0  0  0
  2 11  2  0  0  0  0
  2  6  1  0  0  0  0
  3 12  1  0  0  0  0
  6  8  2  0  0  0  0
  7 14  1  6  0  0  0
  7 11  1  0  0  0  0
  7  3  1  0  0  0  0
  8  4  1  0  0  0  0
  9 12  1  0  0  0  0
  9  4  2  0  0  0  0
 10  6  1  0  0  0  0
 11  9  1  0  0  0  0
 12  5  2  0  0  0  0
 13 14  2  0  0  0  0
 15 16  1  6  0  0  0
 15 17  1  0  0  0  0
 17 19  1  0  0  0  0
 18 17  2  0  0  0  0
 21 20  1  0  0  0  0
 22 25  1  1  0  0  0
 22 24  1  0  0  0  0
 22 23  1  0  0  0  0
 23 21  2  0  0  0  0
 24 21  1  0  0  0  0
 26 25  2  0  0  0  0
 27 29  1  0  0  0  0
 28 29  2  0  0  0  0
 28 32  1  0  0  0  0
 29 31  1  0  0  0  0
 30 33  1  0  0  0  0
 31 26  1  0  0  0  0
 31 33  2  0  0  0  0
 32 30  2  0  0  0  0
M  END
>  <MODEL>
4

>  <REMARK>
 VINA RESULT:      -6.5      1.687      2.127
  Name = 
  8 active torsions:
  status: ('A' for Active; 'I' for Inactive)
    1  A    between atoms: N_5  and  C_21
    2  A    between atoms: C_7  and  C_20
    3  A    between atoms: C_10  and  C_13
    4  A    between atoms: C_11  and  C_26
    5  A    between atoms: C_13  and  C_21
    6  A    between atoms: C_14  and  C_19
    7  A    between atoms: C_16  and  C_17
    8  A    between atoms: C_16  and  C_21
                            x       y       z     vdW  Elec       q    Type
                         _______ _______ _______ _____ _____    ______ ____

>  <TORSDO>
F 8

$$$$
=
 OpenBabel11042422383D

 33 36  0  0  1  0  0  0  0  0999 V2000
  161.5040  208.1950  153.7420 C   0  0  2  0  0  3  0  0  0  0  0  0
  160.4670  212.5590  156.0770 C   0  0  0  0  0  3  0  0  0  0  0  0
  161.1680  209.1390  154.8130 N   0  0  0  0  0  0  0  0  0  0  0  0
  158.5320  210.7040  156.9040 C   0  0  0  0  0  3  0  0  0  0  0  0
  159.2960  207.9710  155.6940 O   0  0  0  0  0  0  0  0  0  0  0  0
  159.3710  212.9430  156.8670 C   0  0  0  0  0  0  0  0  0  0  0  0
  161.6130  210.5450  154.8710 C   0  0  1  0  0  3  0  0  0  0  0  0
  158.4390  212.0190  157.2590 N   0  0  0  0  0  0  0  0  0  0  0  0
  159.6170  210.3110  156.1290 C   0  0  0  0  0  0  0  0  0  0  0  0
  159.2270  214.3030  157.2610 N   0  0  0  0  0  1  0  0  0  0  0  0
  160.5680  211.2140  155.7220 C   0  0  0  0  0  0  0  0  0  0  0  0
  159.9650  209.0320  155.5720 C   0  0  0  0  0  0  0  0  0  0  0  0
  163.1910  210.5930  156.7970 C   0  0  0  0  0  2  0  0  0  0  0  0
  162.9840  210.6620  155.4800 C   0  0  0  0  0  3  0  0  0  0  0  0
  160.9430  208.6320  152.3790 C   0  0  1  0  0  3  0  0  0  0  0  0
  160.0500  209.8510  152.5400 C   0  0  0  0  0  1  0  0  0  0  0  0
  162.0330  208.9630  151.4090 C   0  0  0  0  0  0  0  0  0  0  0  0
  162.7130  210.0100  151.5670 O   0  0  0  0  0  1  0  0  0  0  0  0
  162.3120  208.1110  150.3450 O   0  0  0  0  0  0  0  0  0  0  0  0
  161.1530  206.7520  154.1350 C   0  0  0  0  0  2  0  0  0  0  0  0
  161.3130  205.7870  153.0060 C   0  0  0  0  0  0  0  0  0  0  0  0
  161.5010  204.5300  151.5830 C   0  0  1  0  0  3  0  0  0  0  0  0
  162.3740  205.3420  152.3160 N   0  0  0  0  0  0  0  0  0  0  0  0
  160.3610  204.9700  152.2240 N   0  0  0  0  0  2  0  0  0  0  0  0
  161.4760  204.9440  150.1450 C   0  0  0  0  0  3  0  0  0  0  0  0
  161.4190  204.0300  149.1810 C   0  0  0  0  0  3  0  0  0  0  0  0
  161.0280  202.0510  147.1640 O   0  0  0  0  0  1  0  0  0  0  0  0
  161.1820  203.7110  145.4310 C   0  0  0  0  0  3  0  0  0  0  0  0
  161.2010  203.3780  146.7860 C   0  0  0  0  0  0  0  0  0  0  0  0
  161.5450  206.0030  145.9930 N   0  0  0  0  0  0  0  0  0  0  0  0
  161.3940  204.3790  147.7510 C   0  0  0  0  0  0  0  0  0  0  0  0
  161.3590  205.0420  145.0490 C   0  0  0  0  0  3  0  0  0  0  0  0
  161.5660  205.7040  147.3190 C   0  0  0  0  0  3  0  0  0  0  0  0
  1 20  1  1  0  0  0
  1  3  1  0  0  0  0
  2  6  1  0  0  0  0
  3  7  1  0  0  0  0
  3 12  1  0  0  0  0
  4  8  1  0  0  0  0
  6  8  2  0  0  0  0
  6 10  1  0  0  0  0
  7 14  1  1  0  0  0
  7 11  1  0  0  0  0
  9  4  2  0  0  0  0
 11  2  2  0  0  0  0
 11  9  1  0  0  0  0
 12  5  2  0  0  0  0
 12  9  1  0  0  0  0
 14 13  2  0  0  0  0
 15 16  1  1  0  0  0
 15  1  1  0  0  0  0
 17 18  1  0  0  0  0
 17 15  1  0  0  0  0
 19 17  2  0  0  0  0
 21 20  1  0  0  0  0
 22 25  1  6  0  0  0
 22 24  1  0  0  0  0
 22 23  1  0  0  0  0
 23 21  2  0  0  0  0
 24 21  1  0  0  0  0
 26 25  2  0  0  0  0
 28 29  1  0  0  0  0
 29 27  1  0  0  0  0
 29 31  2  0  0  0  0
 30 33  2  0  0  0  0
 31 26  1  0  0  0  0
 32 28  2  0  0  0  0
 32 30  1  0  0  0  0
 33 31  1  0  0  0  0
M  END
>  <MODEL>
5

>  <REMARK>
 VINA RESULT:      -6.5      2.517      3.581
  Name = 
  8 active torsions:
  status: ('A' for Active; 'I' for Inactive)
    1  A    between atoms: N_5  and  C_21
    2  A    between atoms: C_7  and  C_20
    3  A    between atoms: C_10  and  C_13
    4  A    between atoms: C_11  and  C_26
    5  A    between atoms: C_13  and  C_21
    6  A    between atoms: C_14  and  C_19
    7  A    between atoms: C_16  and  C_17
    8  A    between atoms: C_16  and  C_21
                            x       y       z     vdW  Elec       q    Type
                         _______ _______ _______ _____ _____    ______ ____

>  <TORSDO>
F 8

$$$$
=
 OpenBabel11042422383D

 33 36  0  0  1  0  0  0  0  0999 V2000
  160.3750  208.7030  154.5040 C   0  0  2  0  0  3  0  0  0  0  0  0
  158.6150  212.4140  151.5550 C   0  0  0  0  0  3  0  0  0  0  0  0
  160.0490  210.0540  154.0360 N   0  0  0  0  0  0  0  0  0  0  0  0
  157.7220  212.9420  154.1600 C   0  0  0  0  0  3  0  0  0  0  0  0
  158.9970  210.8350  156.0180 O   0  0  0  0  0  0  0  0  0  0  0  0
  157.7160  213.4590  151.8260 C   0  0  0  0  0  0  0  0  0  0  0  0
  159.9940  210.4680  152.6210 C   0  0  1  0  0  3  0  0  0  0  0  0
  157.2940  213.6970  153.1060 N   0  0  0  0  0  0  0  0  0  0  0  0
  158.6190  211.9110  153.9050 C   0  0  0  0  0  0  0  0  0  0  0  0
  157.2370  214.2720  150.7610 N   0  0  0  0  0  1  0  0  0  0  0  0
  159.0610  211.6490  152.6320 C   0  0  0  0  0  0  0  0  0  0  0  0
  159.2100  210.9350  154.7800 C   0  0  0  0  0  0  0  0  0  0  0  0
  161.8330  210.3860  150.9440 C   0  0  0  0  0  2  0  0  0  0  0  0
  161.3570  210.8420  152.1040 C   0  0  0  0  0  3  0  0  0  0  0  0
  160.2490  208.5660  156.0300 C   0  0  1  0  0  3  0  0  0  0  0  0
  159.7930  207.1660  156.4000 C   0  0  0  0  0  1  0  0  0  0  0  0
  161.5460  208.8450  156.7230 C   0  0  0  0  0  0  0  0  0  0  0  0
  162.1820  207.9010  157.2610 O   0  0  0  0  0  1  0  0  0  0  0  0
  162.0640  210.1350  156.7590 O   0  0  0  0  0  0  0  0  0  0  0  0
  161.7190  208.2220  153.9360 C   0  0  0  0  0  2  0  0  0  0  0  0
  161.5740  207.0680  152.9980 C   0  0  0  0  0  0  0  0  0  0  0  0
  161.3660  205.5800  151.8220 C   0  0  1  0  0  3  0  0  0  0  0  0
  162.4420  206.1880  152.4770 N   0  0  0  0  0  0  0  0  0  0  0  0
  160.4220  206.4710  152.2900 N   0  0  0  0  0  2  0  0  0  0  0  0
  161.5080  205.7110  150.3380 C   0  0  0  0  0  3  0  0  0  0  0  0
  161.0560  204.7570  149.5310 C   0  0  0  0  0  3  0  0  0  0  0  0
  161.4600  202.4230  147.9400 O   0  0  0  0  0  1  0  0  0  0  0  0
  161.4830  203.7360  145.9250 C   0  0  0  0  0  3  0  0  0  0  0  0
  161.3710  203.6610  147.3150 C   0  0  0  0  0  0  0  0  0  0  0  0
  161.2020  206.1050  146.0330 N   0  0  0  0  0  0  0  0  0  0  0  0
  161.1700  204.8310  148.0640 C   0  0  0  0  0  0  0  0  0  0  0  0
  161.3960  204.9780  145.2950 C   0  0  0  0  0  3  0  0  0  0  0  0
  161.0880  206.0580  147.3870 C   0  0  0  0  0  3  0  0  0  0  0  0
  1 20  1  1  0  0  0
  1 15  1  0  0  0  0
  2  6  2  0  0  0  0
  2 11  1  0  0  0  0
  3  1  1  0  0  0  0
  3 12  1  0  0  0  0
  6  8  1  0  0  0  0
  7 14  1  1  0  0  0
  7 11  1  0  0  0  0
  7  3  1  0  0  0  0
  8  4  2  0  0  0  0
  9  4  1  0  0  0  0
  9 12  1  0  0  0  0
 10  6  1  0  0  0  0
 11  9  2  0  0  0  0
 12  5  2  0  0  0  0
 13 14  2  0  0  0  0
 15 16  1  6  0  0  0
 15 17  1  0  0  0  0
 17 19  2  0  0  0  0
 17 18  1  0  0  0  0
 21 20  1  0  0  0  0
 22 25  1  6  0  0  0
 22 24  1  0  0  0  0
 22 23  1  0  0  0  0
 23 21  2  0  0  0  0
 24 21  1  0  0  0  0
 26 25  2  0  0  0  0
 28 29  1  0  0  0  0
 29 27  1  0  0  0  0
 29 31  2  0  0  0  0
 30 33  2  0  0  0  0
 31 26  1  0  0  0  0
 32 28  2  0  0  0  0
 32 30  1  0  0  0  0
 33 31  1  0  0  0  0
M  END
>  <MODEL>
6

>  <REMARK>
 VINA RESULT:      -6.2      1.824      2.431
  Name = 
  8 active torsions:
  status: ('A' for Active; 'I' for Inactive)
    1  A    between atoms: N_5  and  C_21
    2  A    between atoms: C_7  and  C_20
    3  A    between atoms: C_10  and  C_13
    4  A    between atoms: C_11  and  C_26
    5  A    between atoms: C_13  and  C_21
    6  A    between atoms: C_14  and  C_19
    7  A    between atoms: C_16  and  C_17
    8  A    between atoms: C_16  and  C_21
                            x       y       z     vdW  Elec       q    Type
                         _______ _______ _______ _____ _____    ______ ____

>  <TORSDO>
F 8

$$$$
=
 OpenBabel11042422383D

 33 36  0  0  1  0  0  0  0  0999 V2000
  161.3230  206.6620  151.7140 C   0  0  2  0  0  3  0  0  0  0  0  0
  161.2280  203.2310  148.0010 C   0  0  0  0  0  3  0  0  0  0  0  0
  160.8650  205.5460  150.8810 N   0  0  0  0  0  0  0  0  0  0  0  0
  160.6610  201.8730  150.3890 C   0  0  0  0  0  3  0  0  0  0  0  0
  160.4590  203.9870  152.6270 O   0  0  0  0  0  0  0  0  0  0  0  0
  161.1200  201.8310  148.0430 C   0  0  0  0  0  0  0  0  0  0  0  0
  161.1170  205.4130  149.4330 C   0  0  1  0  0  3  0  0  0  0  0  0
  160.8420  201.1910  149.2210 N   0  0  0  0  0  0  0  0  0  0  0  0
  160.7570  203.2600  150.3580 C   0  0  0  0  0  0  0  0  0  0  0  0
  161.3040  201.0730  146.8530 N   0  0  0  0  0  1  0  0  0  0  0  0
  161.0330  203.9300  149.1920 C   0  0  0  0  0  0  0  0  0  0  0  0
  160.6590  204.2370  151.4090 C   0  0  0  0  0  0  0  0  0  0  0  0
  160.3230  206.5710  147.3760 C   0  0  0  0  0  2  0  0  0  0  0  0
  160.0930  206.1650  148.6260 C   0  0  0  0  0  3  0  0  0  0  0  0
  162.4530  207.4640  151.0480 C   0  0  1  0  0  3  0  0  0  0  0  0
  163.0840  206.6580  149.9260 C   0  0  0  0  0  1  0  0  0  0  0  0
  161.9590  208.7600  150.4860 C   0  0  0  0  0  0  0  0  0  0  0  0
  161.9730  208.9470  149.2410 O   0  0  0  0  0  0  0  0  0  0  0  0
  161.4660  209.7510  151.3280 O   0  0  0  0  0  1  0  0  0  0  0  0
  161.6360  206.2020  153.1460 C   0  0  0  0  0  2  0  0  0  0  0  0
  161.2050  207.1900  154.1820 C   0  0  0  0  0  0  0  0  0  0  0  0
  160.6870  208.4560  155.5100 C   0  0  1  0  0  3  0  0  0  0  0  0
  160.4280  207.1030  155.2710 N   0  0  0  0  0  0  0  0  0  0  0  0
  161.4670  208.6290  154.3850 N   0  0  0  0  0  2  0  0  0  0  0  0
  159.4320  209.2630  155.3960 C   0  0  0  0  0  3  0  0  0  0  0  0
  159.4350  210.5600  155.6890 C   0  0  0  0  0  3  0  0  0  0  0  0
  158.4240  211.4580  153.1770 O   0  0  0  0  0  1  0  0  0  0  0  0
  156.6240  212.6290  154.2600 C   0  0  0  0  0  3  0  0  0  0  0  0
  157.7630  211.8270  154.3430 C   0  0  0  0  0  0  0  0  0  0  0  0
  156.4220  212.5840  156.6390 N   0  0  0  0  0  0  0  0  0  0  0  0
  158.2300  211.4020  155.5970 C   0  0  0  0  0  0  0  0  0  0  0  0
  155.9600  213.0020  155.4300 C   0  0  0  0  0  3  0  0  0  0  0  0
  157.5300  211.8020  156.7460 C   0  0  0  0  0  3  0  0  0  0  0  0
  1 20  1  1  0  0  0
  2  6  2  0  0  0  0
  2 11  1  0  0  0  0
  3 12  1  0  0  0  0
  3  1  1  0  0  0  0
  6  8  1  0  0  0  0
  7 14  1  6  0  0  0
  7  3  1  0  0  0  0
  8  4  2  0  0  0  0
  9  4  1  0  0  0  0
  9 12  1  0  0  0  0
 10  6  1  0  0  0  0
 11  7  1  0  0  0  0
 11  9  2  0  0  0  0
 12  5  2  0  0  0  0
 13 14  2  0  0  0  0
 15 16  1  6  0  0  0
 15  1  1  0  0  0  0
 17 15  1  0  0  0  0
 17 19  1  0  0  0  0
 18 17  2  0  0  0  0
 20 21  1  0  0  0  0
 21 24  1  0  0  0  0
 21 23  2  0  0  0  0
 22 25  1  6  0  0  0
 23 22  1  0  0  0  0
 24 22  1  0  0  0  0
 25 26  2  0  0  0  0
 27 29  1  0  0  0  0
 28 29  2  0  0  0  0
 28 32  1  0  0  0  0
 29 31  1  0  0  0  0
 30 33  1  0  0  0  0
 31 26  1  0  0  0  0
 31 33  2  0  0  0  0
 32 30  2  0  0  0  0
M  END
>  <MODEL>
7

>  <REMARK>
 VINA RESULT:      -6.1      2.330      9.541
  Name = 
  8 active torsions:
  status: ('A' for Active; 'I' for Inactive)
    1  A    between atoms: N_5  and  C_21
    2  A    between atoms: C_7  and  C_20
    3  A    between atoms: C_10  and  C_13
    4  A    between atoms: C_11  and  C_26
    5  A    between atoms: C_13  and  C_21
    6  A    between atoms: C_14  and  C_19
    7  A    between atoms: C_16  and  C_17
    8  A    between atoms: C_16  and  C_21
                            x       y       z     vdW  Elec       q    Type
                         _______ _______ _______ _____ _____    ______ ____

>  <TORSDO>
F 8

$$$$
=
 OpenBabel11042422383D

 33 36  0  0  1  0  0  0  0  0999 V2000
  160.9890  206.8450  151.1410 C   0  0  2  0  0  3  0  0  0  0  0  0
  160.3720  210.3210  154.7610 C   0  0  0  0  0  3  0  0  0  0  0  0
  161.1520  207.5500  152.4160 N   0  0  0  0  0  0  0  0  0  0  0  0
  160.2220  207.8100  156.0000 C   0  0  0  0  0  3  0  0  0  0  0  0
  160.8530  205.6830  153.8550 O   0  0  0  0  0  0  0  0  0  0  0  0
  160.0220  210.1900  156.1150 C   0  0  0  0  0  0  0  0  0  0  0  0
  161.0240  209.0090  152.5980 C   0  0  1  0  0  3  0  0  0  0  0  0
  159.9560  208.9520  156.6970 N   0  0  0  0  0  0  0  0  0  0  0  0
  160.5780  207.9290  154.6610 C   0  0  0  0  0  0  0  0  0  0  0  0
  159.7310  211.3500  156.8850 N   0  0  0  0  0  1  0  0  0  0  0  0
  160.6540  209.1550  154.0490 C   0  0  0  0  0  0  0  0  0  0  0  0
  160.8730  206.9290  153.6690 C   0  0  0  0  0  0  0  0  0  0  0  0
  162.5060  210.3710  151.1320 C   0  0  0  0  0  2  0  0  0  0  0  0
  162.3130  209.7170  152.2790 C   0  0  0  0  0  3  0  0  0  0  0  0
  161.9740  205.6750  150.9890 C   0  0  1  0  0  3  0  0  0  0  0  0
  163.0860  205.7820  152.0180 C   0  0  0  0  0  1  0  0  0  0  0  0
  161.2960  204.3510  151.1540 C   0  0  0  0  0  0  0  0  0  0  0  0
  160.0830  204.2280  150.8390 O   0  0  0  0  0  0  0  0  0  0  0  0
  162.0010  203.2520  151.6320 O   0  0  0  0  0  1  0  0  0  0  0  0
  160.9840  207.8230  149.9560 C   0  0  0  0  0  2  0  0  0  0  0  0
  161.2170  207.1470  148.6430 C   0  0  0  0  0  0  0  0  0  0  0  0
  161.5290  206.3130  146.9570 C   0  0  1  0  0  3  0  0  0  0  0  0
  160.4020  206.5810  147.7400 N   0  0  0  0  0  0  0  0  0  0  0  0
  162.4300  206.8440  147.8570 N   0  0  0  0  0  2  0  0  0  0  0  0
  161.7420  204.8370  146.8240 C   0  0  0  0  0  3  0  0  0  0  0  0
  160.9060  203.9810  147.4020 C   0  0  0  0  0  3  0  0  0  0  0  0
  160.4520  202.5810  144.9580 O   0  0  0  0  0  1  0  0  0  0  0  0
  160.9820  200.4800  146.0030 C   0  0  0  0  0  3  0  0  0  0  0  0
  160.8330  201.8650  146.0880 C   0  0  0  0  0  0  0  0  0  0  0  0
  161.5850  200.4050  148.3120 N   0  0  0  0  0  0  0  0  0  0  0  0
  161.0670  202.5200  147.3070 C   0  0  0  0  0  0  0  0  0  0  0  0
  161.3620  199.7590  147.1360 C   0  0  0  0  0  3  0  0  0  0  0  0
  161.4470  201.7540  148.4200 C   0  0  0  0  0  3  0  0  0  0  0  0
  1 20  1  6  0  0  0
  1  3  1  0  0  0  0
  2  6  1  0  0  0  0
  3  7  1  0  0  0  0
  3 12  1  0  0  0  0
  4  8  1  0  0  0  0
  6  8  2  0  0  0  0
  6 10  1  0  0  0  0
  7 14  1  1  0  0  0
  7 11  1  0  0  0  0
  9  4  2  0  0  0  0
 11  9  1  0  0  0  0
 11  2  2  0  0  0  0
 12  5  2  0  0  0  0
 12  9  1  0  0  0  0
 13 14  2  0  0  0  0
 15  1  1  0  0  0  0
 15 17  1  0  0  0  0
 15 16  1  1  0  0  0
 17 19  1  0  0  0  0
 18 17  2  0  0  0  0
 21 20  1  0  0  0  0
 22 25  1  1  0  0  0
 22 23  1  0  0  0  0
 22 24  1  0  0  0  0
 23 21  2  0  0  0  0
 24 21  1  0  0  0  0
 25 26  2  0  0  0  0
 27 29  1  0  0  0  0
 28 29  2  0  0  0  0
 28 32  1  0  0  0  0
 29 31  1  0  0  0  0
 30 33  1  0  0  0  0
 31 26  1  0  0  0  0
 31 33  2  0  0  0  0
 32 30  2  0  0  0  0
M  END
>  <MODEL>
8

>  <REMARK>
 VINA RESULT:      -5.9      3.021      4.870
  Name = 
  8 active torsions:
  status: ('A' for Active; 'I' for Inactive)
    1  A    between atoms: N_5  and  C_21
    2  A    between atoms: C_7  and  C_20
    3  A    between atoms: C_10  and  C_13
    4  A    between atoms: C_11  and  C_26
    5  A    between atoms: C_13  and  C_21
    6  A    between atoms: C_14  and  C_19
    7  A    between atoms: C_16  and  C_17
    8  A    between atoms: C_16  and  C_21
                            x       y       z     vdW  Elec       q    Type
                         _______ _______ _______ _____ _____    ______ ____

>  <TORSDO>
F 8

$$$$
=
 OpenBabel11042422383D

 33 36  0  0  1  0  0  0  0  0999 V2000
  160.1470  209.5330  154.9080 C   0  0  2  0  0  3  0  0  0  0  0  0
  158.3110  212.6350  151.3620 C   0  0  0  0  0  3  0  0  0  0  0  0
  159.8290  210.7730  154.1930 N   0  0  0  0  0  0  0  0  0  0  0  0
  157.5890  213.7120  153.8490 C   0  0  0  0  0  3  0  0  0  0  0  0
  158.9180  211.9770  156.0260 O   0  0  0  0  0  0  0  0  0  0  0  0
  157.4560  213.7450  151.4610 C   0  0  0  0  0  0  0  0  0  0  0  0
  159.7000  210.8940  152.7270 C   0  0  1  0  0  3  0  0  0  0  0  0
  157.1180  214.2530  152.6870 N   0  0  0  0  0  0  0  0  0  0  0  0
  158.4420  212.6180  153.7620 C   0  0  0  0  0  0  0  0  0  0  0  0
  156.9360  214.3440  150.2800 N   0  0  0  0  0  1  0  0  0  0  0  0
  158.8000  212.0860  152.5470 C   0  0  0  0  0  0  0  0  0  0  0  0
  159.0590  211.8170  154.7850 C   0  0  0  0  0  0  0  0  0  0  0  0
  161.5720  210.2160  151.2310 C   0  0  0  0  0  2  0  0  0  0  0  0
  161.0380  211.1040  152.0730 C   0  0  0  0  0  3  0  0  0  0  0  0
  161.6450  209.4150  155.2340 C   0  0  1  0  0  3  0  0  0  0  0  0
  162.3310  210.7600  155.0720 C   0  0  0  0  0  1  0  0  0  0  0  0
  161.8730  208.9260  156.6300 C   0  0  0  0  0  0  0  0  0  0  0  0
  160.9590  208.3030  157.2310 O   0  0  0  0  0  0  0  0  0  0  0  0
  163.0950  209.1380  157.2610 O   0  0  0  0  0  1  0  0  0  0  0  0
  159.5580  208.3070  154.1960 C   0  0  0  0  0  2  0  0  0  0  0  0
  160.6030  207.4320  153.5830 C   0  0  0  0  0  0  0  0  0  0  0  0
  161.9590  206.3250  152.8250 C   0  0  1  0  0  3  0  0  0  0  0  0
  161.1180  207.3370  152.3490 N   0  0  0  0  0  0  0  0  0  0  0  0
  161.4500  206.3400  154.1070 N   0  0  0  0  0  2  0  0  0  0  0  0
  161.6460  205.0210  152.1610 C   0  0  0  0  0  3  0  0  0  0  0  0
  161.4840  204.9570  150.8430 C   0  0  0  0  0  3  0  0  0  0  0  0
  161.5360  204.7900  147.9960 O   0  0  0  0  0  1  0  0  0  0  0  0
  160.9060  202.4700  148.0680 C   0  0  0  0  0  3  0  0  0  0  0  0
  161.2060  203.6590  148.7350 C   0  0  0  0  0  0  0  0  0  0  0  0
  160.5430  201.3890  150.1660 N   0  0  0  0  0  0  0  0  0  0  0  0
  161.1720  203.7030  150.1370 C   0  0  0  0  0  0  0  0  0  0  0  0
  160.5730  201.3340  148.8070 C   0  0  0  0  0  3  0  0  0  0  0  0
  160.8320  202.5350  150.8380 C   0  0  0  0  0  3  0  0  0  0  0  0
  1 20  1  6  0  0  0
  1 15  1  0  0  0  0
  2  6  2  0  0  0  0
  2 11  1  0  0  0  0
  3 12  1  0  0  0  0
  3  1  1  0  0  0  0
  6  8  1  0  0  0  0
  7 14  1  6  0  0  0
  7  3  1  0  0  0  0
  8  4  2  0  0  0  0
  9  4  1  0  0  0  0
  9 12  1  0  0  0  0
 10  6  1  0  0  0  0
 11  7  1  0  0  0  0
 11  9  2  0  0  0  0
 12  5  2  0  0  0  0
 13 14  2  0  0  0  0
 15 16  1  1  0  0  0
 15 17  1  0  0  0  0
 17 18  2  0  0  0  0
 17 19  1  0  0  0  0
 21 24  1  0  0  0  0
 21 20  1  0  0  0  0
 22 25  1  6  0  0  0
 22 24  1  0  0  0  0
 23 22  1  0  0  0  0
 23 21  2  0  0  0  0
 26 25  2  0  0  0  0
 27 29  1  0  0  0  0
 28 29  2  0  0  0  0
 28 32  1  0  0  0  0
 29 31  1  0  0  0  0
 30 33  1  0  0  0  0
 31 33  2  0  0  0  0
 31 26  1  0  0  0  0
 32 30  2  0  0  0  0
M  END
>  <MODEL>
9

>  <REMARK>
 VINA RESULT:      -5.9      1.824      2.281
  Name = 
  8 active torsions:
  status: ('A' for Active; 'I' for Inactive)
    1  A    between atoms: N_5  and  C_21
    2  A    between atoms: C_7  and  C_20
    3  A    between atoms: C_10  and  C_13
    4  A    between atoms: C_11  and  C_26
    5  A    between atoms: C_13  and  C_21
    6  A    between atoms: C_14  and  C_19
    7  A    between atoms: C_16  and  C_17
    8  A    between atoms: C_16  and  C_21
                            x       y       z     vdW  Elec       q    Type
                         _______ _______ _______ _____ _____    ______ ____

>  <TORSDO>
F 8

$$$$
