=
 OpenBabel11042420003D

 42 48  0  0  1  0  0  0  0  0999 V2000
  161.8580  209.4380  149.5380 N   0  0  0  0  0  0  0  0  0  0  0  0
  161.0800  208.4800  153.6230 C   0  0  0  0  0  0  0  0  0  0  0  0
  160.9650  207.5030  152.6300 C   0  0  0  0  0  3  0  0  0  0  0  0
  161.7500  210.0880  151.9210 C   0  0  0  0  0  3  0  0  0  0  0  0
  160.4290  209.0330  155.9750 C   0  0  0  0  0  2  0  0  0  0  0  0
  162.9050  210.0450  156.4960 O   0  0  0  0  0  0  0  0  0  0  0  0
  161.2260  207.8150  151.2950 C   0  0  0  0  0  3  0  0  0  0  0  0
  160.9240  211.7540  156.7920 O   0  0  0  0  0  1  0  0  0  0  0  0
  160.7950  208.1120  154.9500 O   0  0  0  0  0  0  0  0  0  0  0  0
  161.6110  209.1110  150.9230 C   0  0  0  0  0  0  0  0  0  0  0  0
  161.4970  209.7880  153.2630 C   0  0  0  0  0  0  0  0  0  0  0  0
  161.5560  210.4410  155.9380 P   0  0  2  0  0  0  0  0  0  0  0  0
  161.6990  210.8150  154.2390 N   0  0  0  0  0  2  0  0  0  0  0  0
  161.5870  208.4750  148.4770 C   0  0  0  0  0  2  0  0  0  0  0  0
  162.5580  207.4400  148.4990 O   0  0  0  0  0  0  0  0  0  0  0  0
  161.7480  205.1190  145.1490 N   0  0  0  0  0  0  0  0  0  0  0  0
  161.5300  204.1240  147.2320 C   0  0  0  0  0  0  0  0  0  0  0  0
  162.0350  206.0430  146.0210 C   0  0  0  0  0  3  0  0  0  0  0  0
  160.8310  201.6390  146.2490 C   0  0  0  0  0  0  0  0  0  0  0  0
  162.1690  206.1190  148.4930 N   0  0  0  0  0  0  0  0  0  0  0  0
  160.4870  200.3860  145.7630 O   0  0  0  0  0  1  0  0  0  0  0  0
  160.9330  201.8470  147.6430 C   0  0  0  0  0  3  0  0  0  0  0  0
  161.2890  203.1070  148.1540 C   0  0  0  0  0  3  0  0  0  0  0  0
  161.4380  203.9310  145.8770 C   0  0  0  0  0  0  0  0  0  0  0  0
  161.0860  202.6910  145.3490 C   0  0  0  0  0  3  0  0  0  0  0  0
  161.9250  205.5020  147.3830 C   0  0  0  0  0  0  0  0  0  0  0  0
  162.3920  210.7340  149.1360 C   0  0  0  0  0  2  0  0  0  0  0  0
  159.9710  213.6710  149.0000 C   0  0  0  0  0  2  0  0  0  0  0  0
  161.2890  211.5920  148.5280 C   0  0  1  0  0  3  0  0  0  0  0  0
  160.9140  213.4720  146.7580 C   0  0  1  0  0  3  0  0  0  0  0  0
  163.3380  213.0310  147.6270 C   0  0  0  0  0  1  0  0  0  0  0  0
  161.3250  212.9910  149.1360 C   0  0  1  0  0  3  0  0  0  0  0  0
  159.6520  213.8280  147.5230 C   0  0  0  0  0  2  0  0  0  0  0  0
  161.8410  212.7750  147.7340 C   0  0  2  0  0  0  0  0  0  0  0  0
  160.5990  212.5750  145.6490 N   0  0  0  0  0  2  0  0  0  0  0  0
  162.2860  213.3340  144.1120 C   0  0  0  0  0  3  0  0  0  0  0  0
  162.5210  212.4890  141.8960 O   0  0  0  0  0  0  0  0  0  0  0  0
  160.1550  211.9880  142.9710 S   0  0  0  0  0  0  0  0  0  0  0  0
  162.8320  213.5640  142.7360 C   0  0  0  0  0  2  0  0  0  0  0  0
  161.1640  212.6470  141.5990 C   0  0  2  0  0  3  0  0  0  0  0  0
  160.7790  211.7640  140.1040 Cl  0  0  0  0  0  0  0  0  0  0  0  0
  161.1090  212.7290  144.3200 C   0  0  0  0  0  0  0  0  0  0  0  0
  1 10  1  0  0  0  0
  2  9  1  0  0  0  0
  3  2  2  0  0  0  0
  4 11  2  0  0  0  0
  7  3  1  0  0  0  0
  9  5  1  0  0  0  0
 10  7  2  0  0  0  0
 10  4  1  0  0  0  0
 11  2  1  0  0  0  0
 11 13  1  0  0  0  0
 12  5  1  0  0  0  0
 12  6  2  1  0  0  0
 12  8  1  0  0  0  0
 13 12  1  0  0  0  0
 14 15  1  0  0  0  0
 14  1  1  0  0  0  0
 16 24  1  0  0  0  0
 16 18  2  0  0  0  0
 17 26  1  0  0  0  0
 17 23  1  0  0  0  0
 18 26  1  0  0  0  0
 19 22  1  0  0  0  0
 20 15  1  0  0  0  0
 21 19  1  0  0  0  0
 22 23  2  0  0  0  0
 24 17  2  0  0  0  0
 25 24  1  0  0  0  0
 25 19  2  0  0  0  0
 26 20  2  0  0  0  0
 27  1  1  0  0  0  0
 29 27  1  1  0  0  0
 29 32  1  0  0  0  0
 30 35  1  6  0  0  0
 30 33  1  0  0  0  0
 30 34  1  0  0  0  0
 32 28  1  6  0  0  0
 33 28  1  0  0  0  0
 34 31  1  6  0  0  0
 34 29  1  0  0  0  0
 34 32  1  0  0  0  0
 36 42  2  0  0  0  0
 37 39  1  0  0  0  0
 38 42  1  0  0  0  0
 39 36  1  0  0  0  0
 40 41  1  6  0  0  0
 40 37  1  0  0  0  0
 40 38  1  0  0  0  0
 42 35  1  0  0  0  0
M  END
>  <MODEL>
1

>  <REMARK>
 VINA RESULT:      -9.3      0.000      0.000
  Name = 
  8 active torsions:
  status: ('A' for Active; 'I' for Inactive)
    1  A    between atoms: C_10  and  C_29
    2  A    between atoms: N_13  and  C_14
    3  A    between atoms: N_13  and  C_38
    4  A    between atoms: N_18  and  O_30
    5  A    between atoms: C_23  and  O_30
    6  A    between atoms: C_23  and  N_35
    7  A    between atoms: C_27  and  N_35
    8  A    between atoms: C_29  and  N_35
                            x       y       z     vdW  Elec       q    Type
                         _______ _______ _______ _____ _____    ______ ____

>  <TORSDO>
F 8

$$$$
=
 OpenBabel11042420003D

 42 48  0  0  1  0  0  0  0  0999 V2000
  161.9930  210.6170  149.7500 N   0  0  0  0  0  0  0  0  0  0  0  0
  160.8510  210.8520  153.8540 C   0  0  0  0  0  0  0  0  0  0  0  0
  161.9570  210.0900  153.4680 C   0  0  0  0  0  3  0  0  0  0  0  0
  160.5190  211.4960  151.5300 C   0  0  0  0  0  3  0  0  0  0  0  0
  159.2150  211.2080  155.7140 C   0  0  0  0  0  2  0  0  0  0  0  0
  159.3530  213.9130  155.4120 O   0  0  0  0  0  1  0  0  0  0  0  0
  162.3340  210.0190  152.1260 C   0  0  0  0  0  3  0  0  0  0  0  0
  156.9540  212.8800  155.0750 O   0  0  0  0  0  0  0  0  0  0  0  0
  160.5110  210.8790  155.2190 O   0  0  0  0  0  0  0  0  0  0  0  0
  161.6150  210.7100  151.1400 C   0  0  0  0  0  0  0  0  0  0  0  0
  160.1320  211.5800  152.8710 C   0  0  0  0  0  0  0  0  0  0  0  0
  158.6230  212.6970  154.8860 P   0  0  2  0  0  0  0  0  0  0  0  0
  159.0330  212.4310  153.2110 N   0  0  0  0  0  2  0  0  0  0  0  0
  161.9550  209.3430  149.0420 C   0  0  0  0  0  2  0  0  0  0  0  0
  161.3550  208.3510  149.8600 O   0  0  0  0  0  0  0  0  0  0  0  0
  161.2450  204.9400  152.2320 N   0  0  0  0  0  0  0  0  0  0  0  0
  161.1390  204.6620  149.9330 C   0  0  0  0  0  0  0  0  0  0  0  0
  161.3140  206.1370  151.7210 C   0  0  0  0  0  3  0  0  0  0  0  0
  160.9110  201.9100  150.0250 C   0  0  0  0  0  0  0  0  0  0  0  0
  161.2590  207.0490  149.4200 N   0  0  0  0  0  0  0  0  0  0  0  0
  160.7870  200.5290  150.0640 O   0  0  0  0  0  1  0  0  0  0  0  0
  160.9120  202.5800  148.7810 C   0  0  0  0  0  3  0  0  0  0  0  0
  161.0270  203.9790  148.7230 C   0  0  0  0  0  3  0  0  0  0  0  0
  161.1340  204.0210  151.1450 C   0  0  0  0  0  0  0  0  0  0  0  0
  161.0230  202.6350  151.2270 C   0  0  0  0  0  3  0  0  0  0  0  0
  161.2520  206.0620  150.2540 C   0  0  0  0  0  0  0  0  0  0  0  0
  162.4320  211.7830  148.9920 C   0  0  0  0  0  2  0  0  0  0  0  0
  159.2880  212.9610  147.1930 C   0  0  0  0  0  2  0  0  0  0  0  0
  161.5270  212.0000  147.7860 C   0  0  1  0  0  3  0  0  0  0  0  0
  161.1620  213.6260  145.7780 C   0  0  1  0  0  3  0  0  0  0  0  0
  162.6250  214.4240  147.7910 C   0  0  0  0  0  1  0  0  0  0  0  0
  160.5100  213.0960  148.0910 C   0  0  1  0  0  3  0  0  0  0  0  0
  159.7250  213.1380  145.7490 C   0  0  0  0  0  2  0  0  0  0  0  0
  161.6780  213.3970  147.1850 C   0  0  2  0  0  0  0  0  0  0  0  0
  161.9730  212.8740  144.8250 N   0  0  0  0  0  2  0  0  0  0  0  0
  162.6100  213.6350  142.6350 C   0  0  0  0  0  3  0  0  0  0  0  0
  161.9670  212.5340  140.6220 O   0  0  0  0  0  0  0  0  0  0  0  0
  160.4810  211.8700  142.7090 S   0  0  0  0  0  0  0  0  0  0  0  0
  162.4210  213.7460  141.1530 C   0  0  0  0  0  2  0  0  0  0  0  0
  160.6190  212.4650  140.9880 C   0  0  2  0  0  3  0  0  0  0  0  0
  159.7680  211.3410  139.9030 Cl  0  0  0  0  0  0  0  0  0  0  0  0
  161.7870  212.9110  143.4060 C   0  0  0  0  0  0  0  0  0  0  0  0
  1 10  1  0  0  0  0
  2  9  1  0  0  0  0
  3  2  1  0  0  0  0
  4 11  1  0  0  0  0
  7  3  2  0  0  0  0
  9  5  1  0  0  0  0
 10  4  2  0  0  0  0
 10  7  1  0  0  0  0
 11 13  1  0  0  0  0
 11  2  2  0  0  0  0
 12  8  2  1  0  0  0
 12  6  1  0  0  0  0
 12  5  1  0  0  0  0
 13 12  1  0  0  0  0
 14  1  1  0  0  0  0
 14 15  1  0  0  0  0
 17 26  1  0  0  0  0
 17 24  1  0  0  0  0
 18 16  2  0  0  0  0
 19 21  1  0  0  0  0
 19 25  1  0  0  0  0
 20 15  1  0  0  0  0
 20 26  2  0  0  0  0
 22 19  2  0  0  0  0
 23 22  1  0  0  0  0
 23 17  2  0  0  0  0
 24 25  2  0  0  0  0
 24 16  1  0  0  0  0
 26 18  1  0  0  0  0
 27  1  1  0  0  0  0
 29 32  1  0  0  0  0
 29 27  1  1  0  0  0
 30 35  1  6  0  0  0
 30 34  1  0  0  0  0
 32 28  1  6  0  0  0
 33 30  1  0  0  0  0
 33 28  1  0  0  0  0
 34 29  1  0  0  0  0
 34 31  1  1  0  0  0
 34 32  1  0  0  0  0
 36 42  2  0  0  0  0
 37 40  1  0  0  0  0
 37 39  1  0  0  0  0
 38 42  1  0  0  0  0
 39 36  1  0  0  0  0
 40 41  1  6  0  0  0
 40 38  1  0  0  0  0
 42 35  1  0  0  0  0
M  END
>  <MODEL>
2

>  <REMARK>
 VINA RESULT:      -8.4      2.087      2.918
  Name = 
  8 active torsions:
  status: ('A' for Active; 'I' for Inactive)
    1  A    between atoms: C_10  and  C_29
    2  A    between atoms: N_13  and  C_14
    3  A    between atoms: N_13  and  C_38
    4  A    between atoms: N_18  and  O_30
    5  A    between atoms: C_23  and  O_30
    6  A    between atoms: C_23  and  N_35
    7  A    between atoms: C_27  and  N_35
    8  A    between atoms: C_29  and  N_35
                            x       y       z     vdW  Elec       q    Type
                         _______ _______ _______ _____ _____    ______ ____

>  <TORSDO>
F 8

$$$$
=
 OpenBabel11042420003D

 42 48  0  0  1  0  0  0  0  0999 V2000
  161.9710  209.8970  150.2010 N   0  0  0  0  0  0  0  0  0  0  0  0
  161.2490  205.8690  148.9920 C   0  0  0  0  0  0  0  0  0  0  0  0
  160.8090  206.3260  150.2370 C   0  0  0  0  0  3  0  0  0  0  0  0
  162.1360  208.0880  148.5240 C   0  0  0  0  0  3  0  0  0  0  0  0
  161.7380  203.7960  147.6780 C   0  0  0  0  0  2  0  0  0  0  0  0
  160.5970  204.8610  145.4440 O   0  0  0  0  0  1  0  0  0  0  0  0
  161.0380  207.6460  150.6300 C   0  0  0  0  0  3  0  0  0  0  0  0
  163.1350  204.2070  145.1890 O   0  0  0  0  0  0  0  0  0  0  0  0
  160.9990  204.5270  148.6540 O   0  0  0  0  0  0  0  0  0  0  0  0
  161.7130  208.5390  149.7840 C   0  0  0  0  0  0  0  0  0  0  0  0
  161.9070  206.7700  148.1160 C   0  0  0  0  0  0  0  0  0  0  0  0
  161.9110  204.8020  146.1900 P   0  0  2  0  0  0  0  0  0  0  0  0
  162.3230  206.3830  146.8020 N   0  0  0  0  0  2  0  0  0  0  0  0
  161.7420  210.3190  151.5780 C   0  0  0  0  0  2  0  0  0  0  0  0
  160.5040  211.0050  151.6770 O   0  0  0  0  0  0  0  0  0  0  0  0
  157.3640  213.5180  152.7230 N   0  0  0  0  0  0  0  0  0  0  0  0
  157.9800  211.8720  154.2340 C   0  0  0  0  0  0  0  0  0  0  0  0
  158.3650  212.8860  152.1790 C   0  0  0  0  0  3  0  0  0  0  0  0
  156.0380  212.5020  156.0950 C   0  0  0  0  0  0  0  0  0  0  0  0
  159.7750  210.9640  152.8460 N   0  0  0  0  0  0  0  0  0  0  0  0
  155.0600  212.8070  157.0310 O   0  0  0  0  0  1  0  0  0  0  0  0
  156.9340  211.4370  156.3390 C   0  0  0  0  0  3  0  0  0  0  0  0
  157.9250  211.1080  155.3990 C   0  0  0  0  0  3  0  0  0  0  0  0
  157.1120  212.9040  153.9870 C   0  0  0  0  0  0  0  0  0  0  0  0
  156.1230  213.2500  154.9040 C   0  0  0  0  0  3  0  0  0  0  0  0
  158.8280  211.8140  153.0700 C   0  0  0  0  0  0  0  0  0  0  0  0
  162.4640  210.9070  149.2720 C   0  0  0  0  0  2  0  0  0  0  0  0
  159.7810  213.5960  148.9950 C   0  0  0  0  0  2  0  0  0  0  0  0
  161.2960  211.6350  148.6170 C   0  0  1  0  0  3  0  0  0  0  0  0
  160.7780  213.4090  146.7750 C   0  0  1  0  0  3  0  0  0  0  0  0
  163.2170  213.2300  147.6940 C   0  0  0  0  0  1  0  0  0  0  0  0
  161.1910  213.0520  149.1740 C   0  0  1  0  0  3  0  0  0  0  0  0
  159.4740  213.6710  147.5090 C   0  0  0  0  0  2  0  0  0  0  0  0
  161.7490  212.8370  147.7890 C   0  0  2  0  0  0  0  0  0  0  0  0
  160.5670  212.4490  145.6960 N   0  0  0  0  0  2  0  0  0  0  0  0
  162.2440  213.2170  144.1530 C   0  0  0  0  0  3  0  0  0  0  0  0
  162.4630  212.3900  141.9290 O   0  0  0  0  0  0  0  0  0  0  0  0
  160.1040  211.8830  143.0160 S   0  0  0  0  0  0  0  0  0  0  0  0
  162.7810  213.4580  142.7750 C   0  0  0  0  0  2  0  0  0  0  0  0
  161.1040  212.5520  141.6430 C   0  0  2  0  0  3  0  0  0  0  0  0
  160.7070  211.6810  140.1430 Cl  0  0  0  0  0  0  0  0  0  0  0  0
  161.0680  212.6120  144.3640 C   0  0  0  0  0  0  0  0  0  0  0  0
  1 14  1  0  0  0  0
  2  3  1  0  0  0  0
  3  7  2  0  0  0  0
  4 10  2  0  0  0  0
  5  9  1  0  0  0  0
  6 12  1  0  0  0  0
  9  2  1  0  0  0  0
 10  1  1  0  0  0  0
 10  7  1  0  0  0  0
 11  4  1  0  0  0  0
 11  2  2  0  0  0  0
 12  8  2  6  0  0  0
 12 13  1  0  0  0  0
 12  5  1  0  0  0  0
 13 11  1  0  0  0  0
 14 15  1  0  0  0  0
 15 20  1  0  0  0  0
 16 24  1  0  0  0  0
 17 23  1  0  0  0  0
 18 16  2  0  0  0  0
 18 26  1  0  0  0  0
 19 22  1  0  0  0  0
 19 21  1  0  0  0  0
 20 26  2  0  0  0  0
 23 22  2  0  0  0  0
 24 17  2  0  0  0  0
 24 25  1  0  0  0  0
 25 19  2  0  0  0  0
 26 17  1  0  0  0  0
 27  1  1  0  0  0  0
 29 32  1  0  0  0  0
 29 27  1  1  0  0  0
 30 35  1  6  0  0  0
 30 33  1  0  0  0  0
 30 34  1  0  0  0  0
 32 28  1  6  0  0  0
 33 28  1  0  0  0  0
 34 31  1  6  0  0  0
 34 29  1  0  0  0  0
 34 32  1  0  0  0  0
 36 42  2  0  0  0  0
 37 39  1  0  0  0  0
 38 42  1  0  0  0  0
 39 36  1  0  0  0  0
 40 41  1  6  0  0  0
 40 37  1  0  0  0  0
 40 38  1  0  0  0  0
 42 35  1  0  0  0  0
M  END
>  <MODEL>
3

>  <REMARK>
 VINA RESULT:      -8.1      3.285      7.842
  Name = 
  8 active torsions:
  status: ('A' for Active; 'I' for Inactive)
    1  A    between atoms: C_10  and  C_29
    2  A    between atoms: N_13  and  C_14
    3  A    between atoms: N_13  and  C_38
    4  A    between atoms: N_18  and  O_30
    5  A    between atoms: C_23  and  O_30
    6  A    between atoms: C_23  and  N_35
    7  A    between atoms: C_27  and  N_35
    8  A    between atoms: C_29  and  N_35
                            x       y       z     vdW  Elec       q    Type
                         _______ _______ _______ _____ _____    ______ ____

>  <TORSDO>
F 8

$$$$
=
 OpenBabel11042420003D

 42 48  0  0  1  0  0  0  0  0999 V2000
  162.2670  209.8690  150.2700 N   0  0  0  0  0  0  0  0  0  0  0  0
  161.2490  205.9060  149.0580 C   0  0  0  0  0  0  0  0  0  0  0  0
  160.8570  206.3880  150.3090 C   0  0  0  0  0  3  0  0  0  0  0  0
  162.2840  208.0590  148.5850 C   0  0  0  0  0  3  0  0  0  0  0  0
  161.5740  203.8090  147.7310 C   0  0  0  0  0  2  0  0  0  0  0  0
  160.4850  204.9600  145.5140 O   0  0  0  0  0  1  0  0  0  0  0  0
  161.1830  207.6870  150.7030 C   0  0  0  0  0  3  0  0  0  0  0  0
  162.9670  204.1290  145.2260 O   0  0  0  0  0  0  0  0  0  0  0  0
  160.9000  204.5860  148.7190 O   0  0  0  0  0  0  0  0  0  0  0  0
  161.9090  208.5330  149.8520 C   0  0  0  0  0  0  0  0  0  0  0  0
  161.9580  206.7620  148.1760 C   0  0  0  0  0  0  0  0  0  0  0  0
  161.8000  204.8050  146.2450 P   0  0  2  0  0  0  0  0  0  0  0  0
  162.3300  206.3520  146.8560 N   0  0  0  0  0  2  0  0  0  0  0  0
  162.3420  210.2210  151.6830 C   0  0  0  0  0  2  0  0  0  0  0  0
  161.1050  209.9450  152.3190 O   0  0  0  0  0  0  0  0  0  0  0  0
  158.6720  210.7950  155.5800 N   0  0  0  0  0  0  0  0  0  0  0  0
  158.3690  212.0440  153.6500 C   0  0  0  0  0  0  0  0  0  0  0  0
  159.5270  210.3320  154.7130 C   0  0  0  0  0  3  0  0  0  0  0  0
  156.3740  213.6420  154.6980 C   0  0  0  0  0  0  0  0  0  0  0  0
  160.1210  210.9080  152.3790 N   0  0  0  0  0  0  0  0  0  0  0  0
  155.3760  214.4530  155.2190 O   0  0  0  0  0  1  0  0  0  0  0  0
  156.8120  213.8360  153.3690 C   0  0  0  0  0  3  0  0  0  0  0  0
  157.8270  213.0290  152.8260 C   0  0  0  0  0  3  0  0  0  0  0  0
  157.9530  211.8510  154.9420 C   0  0  0  0  0  0  0  0  0  0  0  0
  156.9480  212.6370  155.5010 C   0  0  0  0  0  3  0  0  0  0  0  0
  159.4110  211.0690  153.4470 C   0  0  0  0  0  0  0  0  0  0  0  0
  162.5630  210.9230  149.3070 C   0  0  0  0  0  2  0  0  0  0  0  0
  159.6230  213.3430  149.3890 C   0  0  0  0  0  2  0  0  0  0  0  0
  161.2710  211.5490  148.7970 C   0  0  1  0  0  3  0  0  0  0  0  0
  160.4000  213.3060  147.0750 C   0  0  1  0  0  3  0  0  0  0  0  0
  162.9270  213.3440  147.7400 C   0  0  0  0  0  1  0  0  0  0  0  0
  161.0890  212.9350  149.4080 C   0  0  1  0  0  3  0  0  0  0  0  0
  159.1600  213.4220  147.9440 C   0  0  0  0  0  2  0  0  0  0  0  0
  161.5200  212.8080  147.9680 C   0  0  2  0  0  0  0  0  0  0  0  0
  160.1720  212.3560  145.9910 N   0  0  0  0  0  2  0  0  0  0  0  0
  159.3820  212.6050  143.7340 C   0  0  0  0  0  3  0  0  0  0  0  0
  160.5510  213.8320  142.0590 O   0  0  0  0  0  0  0  0  0  0  0  0
  162.0640  213.1570  144.1220 S   0  0  0  0  0  0  0  0  0  0  0  0
  159.5800  212.8470  142.2690 C   0  0  0  0  0  2  0  0  0  0  0  0
  161.7690  213.1960  142.3210 C   0  0  2  0  0  3  0  0  0  0  0  0
  163.0850  214.0890  141.5250 Cl  0  0  0  0  0  0  0  0  0  0  0  0
  160.3970  212.6440  144.6070 C   0  0  0  0  0  0  0  0  0  0  0  0
  1 14  1  0  0  0  0
  2  3  1  0  0  0  0
  3  7  2  0  0  0  0
  4 10  2  0  0  0  0
  5  9  1  0  0  0  0
  6 12  1  0  0  0  0
  9  2  1  0  0  0  0
 10  1  1  0  0  0  0
 10  7  1  0  0  0  0
 11  4  1  0  0  0  0
 11  2  2  0  0  0  0
 12  8  2  6  0  0  0
 12 13  1  0  0  0  0
 12  5  1  0  0  0  0
 13 11  1  0  0  0  0
 14 15  1  0  0  0  0
 15 20  1  0  0  0  0
 17 24  1  0  0  0  0
 18 16  2  0  0  0  0
 19 21  1  0  0  0  0
 19 25  1  0  0  0  0
 20 26  2  0  0  0  0
 22 19  2  0  0  0  0
 23 22  1  0  0  0  0
 23 17  2  0  0  0  0
 24 25  2  0  0  0  0
 24 16  1  0  0  0  0
 26 17  1  0  0  0  0
 26 18  1  0  0  0  0
 27  1  1  0  0  0  0
 29 27  1  1  0  0  0
 29 32  1  0  0  0  0
 30 35  1  6  0  0  0
 30 33  1  0  0  0  0
 30 34  1  0  0  0  0
 32 28  1  6  0  0  0
 33 28  1  0  0  0  0
 34 31  1  6  0  0  0
 34 29  1  0  0  0  0
 34 32  1  0  0  0  0
 36 42  2  0  0  0  0
 37 39  1  0  0  0  0
 37 40  1  0  0  0  0
 38 42  1  0  0  0  0
 39 36  1  0  0  0  0
 40 41  1  6  0  0  0
 40 38  1  0  0  0  0
 42 35  1  0  0  0  0
M  END
>  <MODEL>
4

>  <REMARK>
 VINA RESULT:      -7.8      3.270      7.872
  Name = 
  8 active torsions:
  status: ('A' for Active; 'I' for Inactive)
    1  A    between atoms: C_10  and  C_29
    2  A    between atoms: N_13  and  C_14
    3  A    between atoms: N_13  and  C_38
    4  A    between atoms: N_18  and  O_30
    5  A    between atoms: C_23  and  O_30
    6  A    between atoms: C_23  and  N_35
    7  A    between atoms: C_27  and  N_35
    8  A    between atoms: C_29  and  N_35
                            x       y       z     vdW  Elec       q    Type
                         _______ _______ _______ _____ _____    ______ ____

>  <TORSDO>
F 8

$$$$
=
 OpenBabel11042420003D

 42 48  0  0  1  0  0  0  0  0999 V2000
  161.8970  209.5720  151.0580 N   0  0  0  0  0  0  0  0  0  0  0  0
  160.1430  211.2370  154.5730 C   0  0  0  0  0  0  0  0  0  0  0  0
  161.4900  210.8670  154.5590 C   0  0  0  0  0  3  0  0  0  0  0  0
  159.9590  210.5440  152.2460 C   0  0  0  0  0  3  0  0  0  0  0  0
  158.2260  211.7670  156.0930 C   0  0  0  0  0  2  0  0  0  0  0  0
  157.4500  213.8410  154.5040 O   0  0  0  0  0  0  0  0  0  0  0  0
  162.0660  210.3290  153.4080 C   0  0  0  0  0  3  0  0  0  0  0  0
  155.6460  211.9490  154.8180 O   0  0  0  0  0  1  0  0  0  0  0  0
  159.6140  211.7650  155.7650 O   0  0  0  0  0  0  0  0  0  0  0  0
  161.3060  210.1500  152.2420 C   0  0  0  0  0  0  0  0  0  0  0  0
  159.3700  211.0890  153.3920 C   0  0  0  0  0  0  0  0  0  0  0  0
  157.2810  212.3470  154.6700 P   0  0  2  0  0  0  0  0  0  0  0  0
  158.0050  211.5110  153.3200 N   0  0  0  0  0  2  0  0  0  0  0  0
  162.0940  208.1320  150.9410 C   0  0  0  0  0  2  0  0  0  0  0  0
  160.8920  207.5090  150.5170 O   0  0  0  0  0  0  0  0  0  0  0  0
  161.6500  205.0510  147.2540 N   0  0  0  0  0  0  0  0  0  0  0  0
  160.9870  204.0440  149.2350 C   0  0  0  0  0  0  0  0  0  0  0  0
  161.4610  206.0190  148.1040 C   0  0  0  0  0  3  0  0  0  0  0  0
  161.1340  201.4620  148.2640 C   0  0  0  0  0  0  0  0  0  0  0  0
  160.7910  206.1360  150.4850 N   0  0  0  0  0  0  0  0  0  0  0  0
  161.2140  200.1620  147.7860 O   0  0  0  0  0  1  0  0  0  0  0  0
  160.7490  201.6950  149.6030 C   0  0  0  0  0  3  0  0  0  0  0  0
  160.6720  203.0050  150.1080 C   0  0  0  0  0  3  0  0  0  0  0  0
  161.3660  203.8280  147.9350 C   0  0  0  0  0  0  0  0  0  0  0  0
  161.4480  202.5390  147.4130 C   0  0  0  0  0  3  0  0  0  0  0  0
  161.0350  205.4750  149.4010 C   0  0  0  0  0  0  0  0  0  0  0  0
  162.3270  210.3930  149.9330 C   0  0  0  0  0  2  0  0  0  0  0  0
  160.0080  213.4060  150.1690 C   0  0  0  0  0  2  0  0  0  0  0  0
  161.1920  211.3050  149.4830 C   0  0  1  0  0  3  0  0  0  0  0  0
  160.6830  213.2580  147.8280 C   0  0  1  0  0  3  0  0  0  0  0  0
  163.1740  212.7130  148.4000 C   0  0  0  0  0  1  0  0  0  0  0  0
  161.3450  212.6800  150.1270 C   0  0  1  0  0  3  0  0  0  0  0  0
  159.5290  213.6250  148.7440 C   0  0  0  0  0  2  0  0  0  0  0  0
  161.6910  212.4990  148.6690 C   0  0  2  0  0  0  0  0  0  0  0  0
  160.2140  212.4120  146.7350 N   0  0  0  0  0  2  0  0  0  0  0  0
  161.8370  212.9560  145.0470 C   0  0  0  0  0  3  0  0  0  0  0  0
  161.6340  212.2970  142.7660 O   0  0  0  0  0  0  0  0  0  0  0  0
  159.3530  212.1850  144.1040 S   0  0  0  0  0  0  0  0  0  0  0  0
  162.2590  213.2020  143.6300 C   0  0  0  0  0  2  0  0  0  0  0  0
  160.3170  212.7540  142.6610 C   0  0  2  0  0  3  0  0  0  0  0  0
  159.5850  212.1140  141.1720 Cl  0  0  0  0  0  0  0  0  0  0  0  0
  160.5900  212.5850  145.3650 C   0  0  0  0  0  0  0  0  0  0  0  0
  1 10  1  0  0  0  0
  2  9  1  0  0  0  0
  3  2  1  0  0  0  0
  4 11  1  0  0  0  0
  7  3  2  0  0  0  0
  9  5  1  0  0  0  0
 10  4  2  0  0  0  0
 10  7  1  0  0  0  0
 11  2  2  0  0  0  0
 12  6  2  6  0  0  0
 12  8  1  0  0  0  0
 12  5  1  0  0  0  0
 13 11  1  0  0  0  0
 13 12  1  0  0  0  0
 14  1  1  0  0  0  0
 15 14  1  0  0  0  0
 16 24  1  0  0  0  0
 16 18  2  0  0  0  0
 17 26  1  0  0  0  0
 17 23  1  0  0  0  0
 18 26  1  0  0  0  0
 19 22  1  0  0  0  0
 20 15  1  0  0  0  0
 21 19  1  0  0  0  0
 22 23  2  0  0  0  0
 24 17  2  0  0  0  0
 25 24  1  0  0  0  0
 25 19  2  0  0  0  0
 26 20  2  0  0  0  0
 27  1  1  0  0  0  0
 29 27  1  1  0  0  0
 29 32  1  0  0  0  0
 30 35  1  6  0  0  0
 30 34  1  0  0  0  0
 30 33  1  0  0  0  0
 32 28  1  6  0  0  0
 33 28  1  0  0  0  0
 34 31  1  6  0  0  0
 34 29  1  0  0  0  0
 34 32  1  0  0  0  0
 36 42  2  0  0  0  0
 37 39  1  0  0  0  0
 38 42  1  0  0  0  0
 39 36  1  0  0  0  0
 40 41  1  6  0  0  0
 40 37  1  0  0  0  0
 40 38  1  0  0  0  0
 42 35  1  0  0  0  0
M  END
>  <MODEL>
5

>  <REMARK>
 VINA RESULT:      -7.6      2.111      2.594
  Name = 
  8 active torsions:
  status: ('A' for Active; 'I' for Inactive)
    1  A    between atoms: C_10  and  C_29
    2  A    between atoms: N_13  and  C_14
    3  A    between atoms: N_13  and  C_38
    4  A    between atoms: N_18  and  O_30
    5  A    between atoms: C_23  and  O_30
    6  A    between atoms: C_23  and  N_35
    7  A    between atoms: C_27  and  N_35
    8  A    between atoms: C_29  and  N_35
                            x       y       z     vdW  Elec       q    Type
                         _______ _______ _______ _____ _____    ______ ____

>  <TORSDO>
F 8

$$$$
=
 OpenBabel11042420003D

 42 48  0  0  1  0  0  0  0  0999 V2000
  161.6340  209.7050  151.5870 N   0  0  0  0  0  0  0  0  0  0  0  0
  161.2440  205.9480  149.6030 C   0  0  0  0  0  0  0  0  0  0  0  0
  160.8260  206.0980  150.9280 C   0  0  0  0  0  3  0  0  0  0  0  0
  161.8870  208.2960  149.5710 C   0  0  0  0  0  3  0  0  0  0  0  0
  161.8630  204.2430  147.8790 C   0  0  0  0  0  2  0  0  0  0  0  0
  160.5120  205.6080  145.9450 O   0  0  0  0  0  1  0  0  0  0  0  0
  160.9470  207.3280  151.5750 C   0  0  0  0  0  3  0  0  0  0  0  0
  163.0840  205.2880  145.4840 O   0  0  0  0  0  0  0  0  0  0  0  0
  161.1080  204.6820  149.0060 O   0  0  0  0  0  0  0  0  0  0  0  0
  161.4880  208.4390  150.9090 C   0  0  0  0  0  0  0  0  0  0  0  0
  161.7660  207.0700  148.9090 C   0  0  0  0  0  0  0  0  0  0  0  0
  161.8620  205.5380  146.6230 P   0  0  2  0  0  0  0  0  0  0  0  0
  162.1500  207.0000  147.5330 N   0  0  0  0  0  2  0  0  0  0  0  0
  161.2720  210.9570  150.9320 C   0  0  0  0  0  2  0  0  0  0  0  0
  161.9490  211.0690  149.6900 O   0  0  0  0  0  0  0  0  0  0  0  0
  162.8600  214.0030  146.8920 N   0  0  0  0  0  0  0  0  0  0  0  0
  160.9920  212.6840  146.5070 C   0  0  0  0  0  0  0  0  0  0  0  0
  162.7810  213.1850  147.9030 C   0  0  0  0  0  3  0  0  0  0  0  0
  160.3430  213.8690  144.0970 C   0  0  0  0  0  0  0  0  0  0  0  0
  161.2490  211.3470  148.5370 N   0  0  0  0  0  0  0  0  0  0  0  0
  160.0160  214.4530  142.8810 O   0  0  0  0  0  1  0  0  0  0  0  0
  159.5530  212.8130  144.6030 C   0  0  0  0  0  3  0  0  0  0  0  0
  159.8740  212.2030  145.8280 C   0  0  0  0  0  3  0  0  0  0  0  0
  161.7680  213.7050  146.0210 C   0  0  0  0  0  0  0  0  0  0  0  0
  161.4680  214.3260  144.8110 C   0  0  0  0  0  3  0  0  0  0  0  0
  161.6180  212.3010  147.7470 C   0  0  0  0  0  0  0  0  0  0  0  0
  162.1510  209.7950  152.9480 C   0  0  0  0  0  2  0  0  0  0  0  0
  159.7590  208.9580  155.7910 C   0  0  0  0  0  2  0  0  0  0  0  0
  161.0150  210.0670  153.9260 C   0  0  1  0  0  3  0  0  0  0  0  0
  160.5270  211.2370  156.2070 C   0  0  1  0  0  3  0  0  0  0  0  0
  163.0050  210.7030  155.5740 C   0  0  0  0  0  1  0  0  0  0  0  0
  161.1120  209.1120  155.1120 C   0  0  1  0  0  3  0  0  0  0  0  0
  159.3300  210.3100  156.3340 C   0  0  0  0  0  2  0  0  0  0  0  0
  161.5180  210.5550  155.2840 C   0  0  2  0  0  0  0  0  0  0  0  0
  160.1190  212.5170  155.6360 N   0  0  0  0  0  2  0  0  0  0  0  0
  158.2750  212.5410  154.0930 C   0  0  0  0  0  3  0  0  0  0  0  0
  156.0060  212.8310  154.7590 O   0  0  0  0  0  0  0  0  0  0  0  0
  157.7520  213.6140  156.5880 S   0  0  0  0  0  0  0  0  0  0  0  0
  156.8870  212.9220  153.6760 C   0  0  0  0  0  2  0  0  0  0  0  0
  156.2900  213.9520  155.5460 C   0  0  2  0  0  3  0  0  0  0  0  0
  154.8940  214.3140  156.5860 Cl  0  0  0  0  0  0  0  0  0  0  0  0
  158.7690  212.8540  155.2980 C   0  0  0  0  0  0  0  0  0  0  0  0
  1 27  1  0  0  0  0
  2  3  1  0  0  0  0
  3  7  2  0  0  0  0
  4 10  2  0  0  0  0
  5  9  1  0  0  0  0
  6 12  1  0  0  0  0
  9  2  1  0  0  0  0
 10  7  1  0  0  0  0
 10  1  1  0  0  0  0
 11  4  1  0  0  0  0
 11  2  2  0  0  0  0
 12  8  2  6  0  0  0
 12 13  1  0  0  0  0
 12  5  1  0  0  0  0
 13 11  1  0  0  0  0
 14  1  1  0  0  0  0
 15 14  1  0  0  0  0
 16 18  2  0  0  0  0
 17 26  1  0  0  0  0
 19 22  2  0  0  0  0
 19 25  1  0  0  0  0
 20 15  1  0  0  0  0
 21 19  1  0  0  0  0
 22 23  1  0  0  0  0
 23 17  2  0  0  0  0
 24 17  1  0  0  0  0
 24 16  1  0  0  0  0
 25 24  2  0  0  0  0
 26 18  1  0  0  0  0
 26 20  2  0  0  0  0
 28 33  1  0  0  0  0
 29 27  1  6  0  0  0
 29 32  1  0  0  0  0
 29 34  1  0  0  0  0
 30 35  1  6  0  0  0
 30 33  1  0  0  0  0
 32 34  1  0  0  0  0
 32 28  1  1  0  0  0
 34 31  1  1  0  0  0
 34 30  1  0  0  0  0
 36 42  2  0  0  0  0
 37 40  1  0  0  0  0
 39 36  1  0  0  0  0
 39 37  1  0  0  0  0
 40 41  1  1  0  0  0
 40 38  1  0  0  0  0
 42 35  1  0  0  0  0
 42 38  1  0  0  0  0
M  END
>  <MODEL>
6

>  <REMARK>
 VINA RESULT:      -7.4      4.634      9.423
  Name = 
  8 active torsions:
  status: ('A' for Active; 'I' for Inactive)
    1  A    between atoms: C_10  and  C_29
    2  A    between atoms: N_13  and  C_14
    3  A    between atoms: N_13  and  C_38
    4  A    between atoms: N_18  and  O_30
    5  A    between atoms: C_23  and  O_30
    6  A    between atoms: C_23  and  N_35
    7  A    between atoms: C_27  and  N_35
    8  A    between atoms: C_29  and  N_35
                            x       y       z     vdW  Elec       q    Type
                         _______ _______ _______ _____ _____    ______ ____

>  <TORSDO>
F 8

$$$$
=
 OpenBabel11042420003D

 42 48  0  0  1  0  0  0  0  0999 V2000
  161.3640  208.4550  151.2580 N   0  0  0  0  0  0  0  0  0  0  0  0
  161.1740  204.2280  151.8040 C   0  0  0  0  0  0  0  0  0  0  0  0
  161.2070  205.0850  152.9070 C   0  0  0  0  0  3  0  0  0  0  0  0
  161.2270  206.1670  150.3330 C   0  0  0  0  0  3  0  0  0  0  0  0
  161.5350  201.8530  151.1020 C   0  0  0  0  0  2  0  0  0  0  0  0
  159.3400  201.9250  149.4870 O   0  0  0  0  0  1  0  0  0  0  0  0
  161.2620  206.4680  152.7290 C   0  0  0  0  0  3  0  0  0  0  0  0
  161.6070  201.3990  148.2550 O   0  0  0  0  0  0  0  0  0  0  0  0
  161.1280  202.8430  152.0450 O   0  0  0  0  0  0  0  0  0  0  0  0
  161.2840  207.0250  151.4410 C   0  0  0  0  0  0  0  0  0  0  0  0
  161.1660  204.7790  150.4970 C   0  0  0  0  0  0  0  0  0  0  0  0
  160.8200  202.2390  149.4910 P   0  0  2  0  0  0  0  0  0  0  0  0
  161.0650  203.9590  149.3290 N   0  0  0  0  0  2  0  0  0  0  0  0
  162.3850  209.0490  150.4020 C   0  0  0  0  0  2  0  0  0  0  0  0
  162.1080  210.4260  150.1980 O   0  0  0  0  0  0  0  0  0  0  0  0
  163.1150  213.1300  147.2070 N   0  0  0  0  0  0  0  0  0  0  0  0
  160.9970  212.1860  147.1440 C   0  0  0  0  0  0  0  0  0  0  0  0
  163.0390  212.3440  148.2440 C   0  0  0  0  0  3  0  0  0  0  0  0
  160.2230  213.4670  144.8220 C   0  0  0  0  0  0  0  0  0  0  0  0
  161.3050  210.8280  149.1530 N   0  0  0  0  0  0  0  0  0  0  0  0
  159.8300  214.1000  143.6510 O   0  0  0  0  0  1  0  0  0  0  0  0
  159.3360  212.5800  145.4720 C   0  0  0  0  0  3  0  0  0  0  0  0
  159.7200  211.9230  146.6540 C   0  0  0  0  0  3  0  0  0  0  0  0
  161.8680  213.0420  146.5180 C   0  0  0  0  0  0  0  0  0  0  0  0
  161.5080  213.7050  145.3470 C   0  0  0  0  0  3  0  0  0  0  0  0
  161.7220  211.6940  148.2890 C   0  0  0  0  0  0  0  0  0  0  0  0
  160.4400  209.3690  151.9180 C   0  0  0  0  0  2  0  0  0  0  0  0
  162.7540  210.2900  154.8000 C   0  0  0  0  0  2  0  0  0  0  0  0
  160.8260  209.5430  153.3820 C   0  0  1  0  0  3  0  0  0  0  0  0
  160.5670  211.2090  155.3730 C   0  0  1  0  0  3  0  0  0  0  0  0
  160.0980  212.0660  152.9500 C   0  0  0  0  0  1  0  0  0  0  0  0
  161.9990  210.5120  153.4980 C   0  0  1  0  0  3  0  0  0  0  0  0
  161.8160  210.5750  155.9610 C   0  0  0  0  0  2  0  0  0  0  0  0
  160.6130  210.9730  153.8770 C   0  0  2  0  0  0  0  0  0  0  0  0
  159.3710  210.5880  155.9350 N   0  0  0  0  0  2  0  0  0  0  0  0
  157.0510  210.3010  155.3710 C   0  0  0  0  0  3  0  0  0  0  0  0
  155.3320  211.7930  156.0750 O   0  0  0  0  0  0  0  0  0  0  0  0
  157.7610  212.8320  156.2330 S   0  0  0  0  0  0  0  0  0  0  0  0
  155.6610  210.8080  155.1370 C   0  0  0  0  0  2  0  0  0  0  0  0
  156.0300  212.9310  155.6590 C   0  0  2  0  0  3  0  0  0  0  0  0
  155.2610  214.3810  156.3460 Cl  0  0  0  0  0  0  0  0  0  0  0  0
  158.0450  211.1040  155.7740 C   0  0  0  0  0  0  0  0  0  0  0  0
  1 10  1  0  0  0  0
  1 27  1  0  0  0  0
  2  9  1  0  0  0  0
  2  3  1  0  0  0  0
  4 11  1  0  0  0  0
  4 10  2  0  0  0  0
  5  9  1  0  0  0  0
  6 12  1  0  0  0  0
  7  3  2  0  0  0  0
 10  7  1  0  0  0  0
 11  2  2  0  0  0  0
 12  8  2  6  0  0  0
 12  5  1  0  0  0  0
 13 12  1  0  0  0  0
 13 11  1  0  0  0  0
 14  1  1  0  0  0  0
 15 14  1  0  0  0  0
 16 18  2  0  0  0  0
 17 26  1  0  0  0  0
 18 26  1  0  0  0  0
 19 25  2  0  0  0  0
 19 22  1  0  0  0  0
 20 15  1  0  0  0  0
 21 19  1  0  0  0  0
 22 23  2  0  0  0  0
 23 17  1  0  0  0  0
 24 17  2  0  0  0  0
 24 16  1  0  0  0  0
 25 24  1  0  0  0  0
 26 20  2  0  0  0  0
 28 33  1  0  0  0  0
 29 27  1  6  0  0  0
 29 32  1  0  0  0  0
 29 34  1  0  0  0  0
 30 35  1  1  0  0  0
 30 33  1  0  0  0  0
 32 34  1  0  0  0  0
 32 28  1  1  0  0  0
 34 31  1  6  0  0  0
 34 30  1  0  0  0  0
 36 42  2  0  0  0  0
 39 36  1  0  0  0  0
 39 37  1  0  0  0  0
 40 37  1  0  0  0  0
 40 38  1  0  0  0  0
 40 41  1  1  0  0  0
 42 35  1  0  0  0  0
 42 38  1  0  0  0  0
M  END
>  <MODEL>
7

>  <REMARK>
 VINA RESULT:      -7.0      4.808      9.333
  Name = 
  8 active torsions:
  status: ('A' for Active; 'I' for Inactive)
    1  A    between atoms: C_10  and  C_29
    2  A    between atoms: N_13  and  C_14
    3  A    between atoms: N_13  and  C_38
    4  A    between atoms: N_18  and  O_30
    5  A    between atoms: C_23  and  O_30
    6  A    between atoms: C_23  and  N_35
    7  A    between atoms: C_27  and  N_35
    8  A    between atoms: C_29  and  N_35
                            x       y       z     vdW  Elec       q    Type
                         _______ _______ _______ _____ _____    ______ ____

>  <TORSDO>
F 8

$$$$
=
 OpenBabel11042420003D

 42 48  0  0  1  0  0  0  0  0999 V2000
  162.0530  209.8330  150.0700 N   0  0  0  0  0  0  0  0  0  0  0  0
  161.3640  205.6870  149.3350 C   0  0  0  0  0  0  0  0  0  0  0  0
  161.5860  206.5680  148.2740 C   0  0  0  0  0  3  0  0  0  0  0  0
  161.6360  207.5390  150.8920 C   0  0  0  0  0  3  0  0  0  0  0  0
  160.4560  203.4250  149.9030 C   0  0  0  0  0  2  0  0  0  0  0  0
  162.5070  202.9610  151.6360 O   0  0  0  0  0  0  0  0  0  0  0  0
  161.8180  207.9230  148.5150 C   0  0  0  0  0  3  0  0  0  0  0  0
  160.1070  202.8990  152.7170 O   0  0  0  0  0  1  0  0  0  0  0  0
  161.1250  204.3340  149.0310 O   0  0  0  0  0  0  0  0  0  0  0  0
  161.8350  208.4270  149.8240 C   0  0  0  0  0  0  0  0  0  0  0  0
  161.4070  206.1780  150.6650 C   0  0  0  0  0  0  0  0  0  0  0  0
  161.1340  203.5900  151.5670 P   0  0  2  0  0  0  0  0  0  0  0  0
  161.2540  205.3150  151.7970 N   0  0  0  0  0  2  0  0  0  0  0  0
  161.8550  210.4050  151.3970 C   0  0  0  0  0  2  0  0  0  0  0  0
  160.6950  209.8510  151.9970 O   0  0  0  0  0  0  0  0  0  0  0  0
  159.5480  210.2660  155.9700 N   0  0  0  0  0  0  0  0  0  0  0  0
  158.4220  211.5270  154.3820 C   0  0  0  0  0  0  0  0  0  0  0  0
  160.0720  209.9490  154.8200 C   0  0  0  0  0  3  0  0  0  0  0  0
  156.7860  212.8120  156.1990 C   0  0  0  0  0  0  0  0  0  0  0  0
  159.7010  210.6730  152.4820 N   0  0  0  0  0  0  0  0  0  0  0  0
  155.9650  213.4670  157.1070 O   0  0  0  0  0  1  0  0  0  0  0  0
  156.6820  213.1050  154.8210 C   0  0  0  0  0  3  0  0  0  0  0  0
  157.5100  212.4570  153.8880 C   0  0  0  0  0  3  0  0  0  0  0  0
  158.5340  211.2390  155.7180 C   0  0  0  0  0  0  0  0  0  0  0  0
  157.7220  211.8670  156.6610 C   0  0  0  0  0  3  0  0  0  0  0  0
  159.4190  210.7050  153.7430 C   0  0  0  0  0  0  0  0  0  0  0  0
  162.4730  210.7440  149.0120 C   0  0  0  0  0  2  0  0  0  0  0  0
  159.7520  213.4090  149.0380 C   0  0  0  0  0  2  0  0  0  0  0  0
  161.2710  211.5000  148.4600 C   0  0  1  0  0  3  0  0  0  0  0  0
  160.6540  213.3910  146.7710 C   0  0  1  0  0  3  0  0  0  0  0  0
  163.1320  213.1810  147.5710 C   0  0  0  0  0  1  0  0  0  0  0  0
  161.1740  212.8720  149.1200 C   0  0  1  0  0  3  0  0  0  0  0  0
  159.3810  213.5830  147.5750 C   0  0  0  0  0  2  0  0  0  0  0  0
  161.6740  212.7630  147.7000 C   0  0  2  0  0  0  0  0  0  0  0  0
  160.4080  212.5060  145.6360 N   0  0  0  0  0  2  0  0  0  0  0  0
  162.1820  212.9530  144.0760 C   0  0  0  0  0  3  0  0  0  0  0  0
  162.0020  212.5610  141.7320 O   0  0  0  0  0  0  0  0  0  0  0  0
  159.6630  212.6760  142.9660 S   0  0  0  0  0  0  0  0  0  0  0  0
  162.7110  213.2670  142.7100 C   0  0  0  0  0  2  0  0  0  0  0  0
  160.7770  213.2270  141.6280 C   0  0  2  0  0  3  0  0  0  0  0  0
  160.0360  212.8590  140.0530 Cl  0  0  0  0  0  0  0  0  0  0  0  0
  160.8780  212.7520  144.3060 C   0  0  0  0  0  0  0  0  0  0  0  0
  1 14  1  0  0  0  0
  2 11  1  0  0  0  0
  3  7  1  0  0  0  0
  3  2  2  0  0  0  0
  5 12  1  0  0  0  0
  7 10  2  0  0  0  0
  9  2  1  0  0  0  0
  9  5  1  0  0  0  0
 10  1  1  0  0  0  0
 10  4  1  0  0  0  0
 11  4  2  0  0  0  0
 11 13  1  0  0  0  0
 12  6  2  1  0  0  0
 12 13  1  0  0  0  0
 12  8  1  0  0  0  0
 14 15  1  0  0  0  0
 15 20  1  0  0  0  0
 17 24  1  0  0  0  0
 18 16  2  0  0  0  0
 19 25  1  0  0  0  0
 19 21  1  0  0  0  0
 20 26  2  0  0  0  0
 22 19  2  0  0  0  0
 23 17  2  0  0  0  0
 23 22  1  0  0  0  0
 24 16  1  0  0  0  0
 24 25  2  0  0  0  0
 26 17  1  0  0  0  0
 26 18  1  0  0  0  0
 27  1  1  0  0  0  0
 29 27  1  1  0  0  0
 29 32  1  0  0  0  0
 30 35  1  6  0  0  0
 30 33  1  0  0  0  0
 30 34  1  0  0  0  0
 32 28  1  6  0  0  0
 33 28  1  0  0  0  0
 34 31  1  6  0  0  0
 34 29  1  0  0  0  0
 34 32  1  0  0  0  0
 36 42  2  0  0  0  0
 37 39  1  0  0  0  0
 38 42  1  0  0  0  0
 39 36  1  0  0  0  0
 40 41  1  6  0  0  0
 40 37  1  0  0  0  0
 40 38  1  0  0  0  0
 42 35  1  0  0  0  0
M  END
>  <MODEL>
8

>  <REMARK>
 VINA RESULT:      -6.8      2.911      7.340
  Name = 
  8 active torsions:
  status: ('A' for Active; 'I' for Inactive)
    1  A    between atoms: C_10  and  C_29
    2  A    between atoms: N_13  and  C_14
    3  A    between atoms: N_13  and  C_38
    4  A    between atoms: N_18  and  O_30
    5  A    between atoms: C_23  and  O_30
    6  A    between atoms: C_23  and  N_35
    7  A    between atoms: C_27  and  N_35
    8  A    between atoms: C_29  and  N_35
                            x       y       z     vdW  Elec       q    Type
                         _______ _______ _______ _____ _____    ______ ____

>  <TORSDO>
F 8

$$$$
=
 OpenBabel11042420003D

 42 48  0  0  1  0  0  0  0  0999 V2000
  161.2310  209.5980  152.1030 N   0  0  0  0  0  0  0  0  0  0  0  0
  159.6920  211.8250  155.4010 C   0  0  0  0  0  0  0  0  0  0  0  0
  161.0300  211.4240  155.3780 C   0  0  0  0  0  3  0  0  0  0  0  0
  159.3750  210.7880  153.2210 C   0  0  0  0  0  3  0  0  0  0  0  0
  157.8670  212.6280  156.9130 C   0  0  0  0  0  2  0  0  0  0  0  0
  157.0430  214.4530  155.0640 O   0  0  0  0  0  0  0  0  0  0  0  0
  161.5360  210.7010  154.2960 C   0  0  0  0  0  3  0  0  0  0  0  0
  155.2260  212.6760  155.7540 O   0  0  0  0  0  1  0  0  0  0  0  0
  159.2350  212.5420  156.5220 O   0  0  0  0  0  0  0  0  0  0  0  0
  160.7130  210.3650  153.2110 C   0  0  0  0  0  0  0  0  0  0  0  0
  158.8560  211.5160  154.2960 C   0  0  0  0  0  0  0  0  0  0  0  0
  156.8580  213.0070  155.4660 P   0  0  2  0  0  0  0  0  0  0  0  0
  157.4960  211.9560  154.2280 N   0  0  0  0  0  2  0  0  0  0  0  0
  162.0030  210.2340  151.0410 C   0  0  0  0  0  2  0  0  0  0  0  0
  161.5380  211.5570  150.8280 O   0  0  0  0  0  0  0  0  0  0  0  0
  163.0430  212.8580  147.1790 N   0  0  0  0  0  0  0  0  0  0  0  0
  160.7450  212.6200  147.3780 C   0  0  0  0  0  0  0  0  0  0  0  0
  162.8260  212.4630  148.4020 C   0  0  0  0  0  3  0  0  0  0  0  0
  160.1920  213.3530  144.7730 C   0  0  0  0  0  0  0  0  0  0  0  0
  160.8060  211.8660  149.7030 N   0  0  0  0  0  0  0  0  0  0  0  0
  159.9070  213.7130  143.4630 O   0  0  0  0  0  1  0  0  0  0  0  0
  159.1410  213.0000  145.6480 C   0  0  0  0  0  3  0  0  0  0  0  0
  159.4110  212.6240  146.9750 C   0  0  0  0  0  3  0  0  0  0  0  0
  161.7730  212.9570  146.5350 C   0  0  0  0  0  0  0  0  0  0  0  0
  161.5280  213.3330  145.2160 C   0  0  0  0  0  3  0  0  0  0  0  0
  161.3840  212.2810  148.6250 C   0  0  0  0  0  0  0  0  0  0  0  0
  161.0060  208.1620  151.9890 C   0  0  0  0  0  2  0  0  0  0  0  0
  162.1650  208.2630  148.3620 C   0  0  0  0  0  2  0  0  0  0  0  0
  161.0080  207.7420  150.5240 C   0  0  1  0  0  3  0  0  0  0  0  0
  161.9500  205.9010  148.9340 C   0  0  1  0  0  3  0  0  0  0  0  0
  163.0300  206.1930  151.2950 C   0  0  0  0  0  1  0  0  0  0  0  0
  162.3270  208.1440  149.8710 C   0  0  1  0  0  3  0  0  0  0  0  0
  161.7810  206.9030  147.8060 C   0  0  0  0  0  2  0  0  0  0  0  0
  162.0790  206.6970  150.2170 C   0  0  2  0  0  0  0  0  0  0  0  0
  160.7850  205.0240  149.0110 N   0  0  0  0  0  2  0  0  0  0  0  0
  160.5840  202.9040  150.1290 C   0  0  0  0  0  3  0  0  0  0  0  0
  160.2830  200.8370  148.9840 O   0  0  0  0  0  0  0  0  0  0  0  0
  161.2080  202.7750  147.4370 S   0  0  0  0  0  0  0  0  0  0  0  0
  160.6950  201.4110  150.1910 C   0  0  0  0  0  2  0  0  0  0  0  0
  161.3350  201.0760  148.0950 C   0  0  2  0  0  3  0  0  0  0  0  0
  161.2510  199.9140  146.7510 Cl  0  0  0  0  0  0  0  0  0  0  0  0
  160.8520  203.5930  149.0120 C   0  0  0  0  0  0  0  0  0  0  0  0
  1 10  1  0  0  0  0
  2  9  1  0  0  0  0
  3  2  1  0  0  0  0
  4 11  1  0  0  0  0
  7  3  2  0  0  0  0
  9  5  1  0  0  0  0
 10  4  2  0  0  0  0
 10  7  1  0  0  0  0
 11  2  2  0  0  0  0
 12  6  2  6  0  0  0
 12  8  1  0  0  0  0
 12  5  1  0  0  0  0
 13 11  1  0  0  0  0
 13 12  1  0  0  0  0
 14  1  1  0  0  0  0
 15 14  1  0  0  0  0
 16 18  2  0  0  0  0
 17 26  1  0  0  0  0
 18 26  1  0  0  0  0
 19 25  2  0  0  0  0
 19 22  1  0  0  0  0
 20 15  1  0  0  0  0
 21 19  1  0  0  0  0
 22 23  2  0  0  0  0
 23 17  1  0  0  0  0
 24 16  1  0  0  0  0
 24 17  2  0  0  0  0
 25 24  1  0  0  0  0
 26 20  2  0  0  0  0
 27  1  1  0  0  0  0
 29 27  1  1  0  0  0
 30 35  1  1  0  0  0
 30 34  1  0  0  0  0
 32 28  1  6  0  0  0
 32 34  1  0  0  0  0
 32 29  1  0  0  0  0
 33 28  1  0  0  0  0
 33 30  1  0  0  0  0
 34 29  1  0  0  0  0
 34 31  1  1  0  0  0
 35 42  1  0  0  0  0
 36 39  1  0  0  0  0
 37 39  1  0  0  0  0
 38 40  1  0  0  0  0
 38 42  1  0  0  0  0
 40 41  1  6  0  0  0
 40 37  1  0  0  0  0
 42 36  2  0  0  0  0
M  END
>  <MODEL>
9

>  <REMARK>
 VINA RESULT:      -6.6      3.689      8.200
  Name = 
  8 active torsions:
  status: ('A' for Active; 'I' for Inactive)
    1  A    between atoms: C_10  and  C_29
    2  A    between atoms: N_13  and  C_14
    3  A    between atoms: N_13  and  C_38
    4  A    between atoms: N_18  and  O_30
    5  A    between atoms: C_23  and  O_30
    6  A    between atoms: C_23  and  N_35
    7  A    between atoms: C_27  and  N_35
    8  A    between atoms: C_29  and  N_35
                            x       y       z     vdW  Elec       q    Type
                         _______ _______ _______ _____ _____    ______ ____

>  <TORSDO>
F 8

$$$$
