=
 OpenBabel11052409283D

 35 39  0  0  1  0  0  0  0  0999 V2000
  161.0730  205.9960  151.6260 C   0  0  1  0  0  3  0  0  0  0  0  0
  160.4260  203.0300  149.3890 C   0  0  0  0  0  2  0  0  0  0  0  0
  161.3000  204.9380  152.6420 C   0  0  0  0  0  0  0  0  0  0  0  0
  161.2900  203.2620  152.0260 S   0  0  0  0  0  0  0  0  0  0  0  0
  163.0350  207.3830  148.3680 C   0  0  0  0  0  2  0  0  0  0  0  0
  160.6820  205.8400  149.1470 C   0  0  1  0  0  3  0  0  0  0  0  0
  161.7920  205.7040  146.9570 C   0  0  0  0  0  0  0  0  0  0  0  0
  160.2450  203.8660  150.6660 C   0  0  1  0  0  3  0  0  0  0  0  0
  161.4750  203.6240  148.4470 C   0  0  0  0  0  2  0  0  0  0  0  0
  162.4120  206.6840  151.3170 C   0  0  0  0  0  2  0  0  0  0  0  0
  162.2270  208.0640  150.6680 C   0  0  0  0  0  2  0  0  0  0  0  0
  161.3870  205.1880  153.8320 O   0  0  0  0  0  0  0  0  0  0  0  0
  161.2030  205.0790  148.1720 C   0  0  1  0  0  3  0  0  0  0  0  0
  160.5440  205.2880  150.4600 N   0  0  1  0  0  0  0  0  0  0  0  0
  162.6080  206.7710  147.0540 C   0  0  0  0  0  3  0  0  0  0  0  0
  161.8770  208.0220  149.1680 C   0  0  2  0  0  0  0  0  0  0  0  0
  160.6500  207.2580  148.9960 N   0  0  0  0  0  2  0  0  0  0  0  0
  161.4950  205.1430  145.6220 C   0  0  0  0  0  0  0  0  0  0  0  0
  162.2690  204.2950  145.1030 O   0  0  0  0  0  0  0  0  0  0  0  0
  160.3280  205.5450  144.9090 N   0  0  0  0  0  1  0  0  0  0  0  0
  161.6190  209.4400  148.6560 C   0  0  0  0  0  2  0  0  0  0  0  0
  162.0850  210.5310  149.6160 C   0  0  0  0  0  2  0  0  0  0  0  0
  161.8600  211.9120  149.0160 C   0  0  0  0  0  2  0  0  0  0  0  0
  161.5860  211.8140  147.5880 N   0  0  0  0  0  2  0  0  0  0  0  0
  162.2660  212.9180  146.9240 C   0  0  2  0  0  3  0  0  0  0  0  0
  162.8470  213.8540  147.9650 C   0  0  0  0  0  1  0  0  0  0  0  0
  161.2810  213.6870  146.0520 C   0  0  0  0  0  2  0  0  0  0  0  0
  162.1060  212.9310  143.8560 C   0  0  0  0  0  3  0  0  0  0  0  0
  162.5070  211.9910  141.7170 O   0  0  0  0  0  0  0  0  0  0  0  0
  161.1140  213.0350  144.7200 C   0  0  0  0  0  0  0  0  0  0  0  0
  159.5380  212.3620  144.1940 S   0  0  0  0  0  0  0  0  0  0  0  0
  161.6960  212.2590  142.6420 C   0  0  0  0  0  0  0  0  0  0  0  0
  160.2590  211.8670  142.5900 C   0  0  2  0  0  3  0  0  0  0  0  0
  159.4040  211.7770  140.3580 O   0  0  0  0  0  1  0  0  0  0  0  0
  159.5360  212.6040  141.4740 C   0  0  0  0  0  2  0  0  0  0  0  0
  1 10  1  6  0  0  0
  1  3  1  0  0  0  0
  3 12  2  0  0  0  0
  4  3  1  0  0  0  0
  5 16  1  0  0  0  0
  6 17  1  1  0  0  0
  6 14  1  0  0  0  0
  7 15  2  0  0  0  0
  7 13  1  0  0  0  0
  8  2  1  6  0  0  0
  8  4  1  0  0  0  0
  9  2  1  0  0  0  0
 11 10  1  0  0  0  0
 13  9  1  1  0  0  0
 13  6  1  0  0  0  0
 14  8  1  0  0  0  0
 14  1  1  0  0  0  0
 15  5  1  0  0  0  0
 16 11  1  0  0  0  0
 17 16  1  0  0  0  0
 18  7  1  0  0  0  0
 19 18  2  0  0  0  0
 20 18  1  0  0  0  0
 21 16  1  0  0  0  0
 21 22  1  0  0  0  0
 23 22  1  0  0  0  0
 24 23  1  0  0  0  0
 25 24  1  0  0  0  0
 25 26  1  0  0  0  0
 27 25  1  0  0  0  0
 28 30  2  0  0  0  0
 29 32  2  0  0  0  0
 30 27  1  0  0  0  0
 31 30  1  0  0  0  0
 32 28  1  0  0  0  0
 33 32  1  0  0  0  0
 33 31  1  0  0  0  0
 34 35  1  0  0  0  0
 35 33  1  0  0  0  0
M  END
>  <MODEL>
1

>  <REMARK>
 VINA RESULT:      -7.9      0.000      0.000
  Name = 
  9 active torsions:
  status: ('A' for Active; 'I' for Inactive)
    1  A    between atoms: C_2  and  C_4
    2  A    between atoms: C_2  and  N_32
    3  A    between atoms: C_4  and  C_11
    4  A    between atoms: C_12  and  C_13
    5  A    between atoms: C_21  and  C_24
    6  A    between atoms: C_22  and  C_33
    7  A    between atoms: C_22  and  C_34
    8  A    between atoms: C_27  and  N_32
    9  A    between atoms: C_27  and  C_33
                            x       y       z     vdW  Elec       q    Type
                         _______ _______ _______ _____ _____    ______ ____

>  <TORSDO>
F 9

$$$$
=
 OpenBabel11052409283D

 35 39  0  0  1  0  0  0  0  0999 V2000
  161.0450  205.9010  151.5560 C   0  0  1  0  0  3  0  0  0  0  0  0
  160.3770  202.8130  149.4990 C   0  0  0  0  0  2  0  0  0  0  0  0
  161.2800  204.9030  152.6290 C   0  0  0  0  0  0  0  0  0  0  0  0
  161.2640  203.1950  152.1110 S   0  0  0  0  0  0  0  0  0  0  0  0
  162.9800  207.0970  148.2080 C   0  0  0  0  0  2  0  0  0  0  0  0
  160.6330  205.6050  149.0940 C   0  0  1  0  0  3  0  0  0  0  0  0
  161.7240  205.3410  146.9060 C   0  0  0  0  0  0  0  0  0  0  0  0
  160.2080  203.7210  150.7270 C   0  0  1  0  0  3  0  0  0  0  0  0
  161.4180  203.3510  148.5160 C   0  0  0  0  0  2  0  0  0  0  0  0
  162.3820  206.5690  151.1970 C   0  0  0  0  0  2  0  0  0  0  0  0
  162.1920  207.9100  150.4720 C   0  0  0  0  0  2  0  0  0  0  0  0
  161.3770  205.2210  153.8020 O   0  0  0  0  0  0  0  0  0  0  0  0
  161.1450  204.7870  148.1600 C   0  0  1  0  0  3  0  0  0  0  0  0
  160.5050  205.1280  150.4370 N   0  0  1  0  0  0  0  0  0  0  0  0
  162.5410  206.4110  146.9350 C   0  0  0  0  0  3  0  0  0  0  0  0
  161.8300  207.7820  148.9800 C   0  0  2  0  0  0  0  0  0  0  0  0
  160.6010  207.0110  148.8620 N   0  0  0  0  0  2  0  0  0  0  0  0
  161.4150  204.7050  145.6080 C   0  0  0  0  0  0  0  0  0  0  0  0
  161.5020  203.4550  145.4760 O   0  0  0  0  0  0  0  0  0  0  0  0
  161.0070  205.4930  144.4920 N   0  0  0  0  0  1  0  0  0  0  0  0
  161.5690  209.1690  148.3900 C   0  0  0  0  0  2  0  0  0  0  0  0
  162.1430  210.3080  149.2270 C   0  0  0  0  0  2  0  0  0  0  0  0
  162.3110  211.5660  148.3860 C   0  0  0  0  0  2  0  0  0  0  0  0
  161.1570  211.7630  147.5180 N   0  0  0  0  0  2  0  0  0  0  0  0
  160.9680  213.1960  147.3410 C   0  0  2  0  0  3  0  0  0  0  0  0
  162.0790  213.7490  146.4700 C   0  0  0  0  0  1  0  0  0  0  0  0
  160.9960  213.8960  148.6950 C   0  0  0  0  0  2  0  0  0  0  0  0
  158.5370  213.8000  148.8270 C   0  0  0  0  0  3  0  0  0  0  0  0
  156.2430  213.5490  149.3660 O   0  0  0  0  0  0  0  0  0  0  0  0
  159.7090  213.7110  149.4270 C   0  0  0  0  0  0  0  0  0  0  0  0
  159.6690  213.3700  151.1860 S   0  0  0  0  0  0  0  0  0  0  0  0
  157.4420  213.5790  149.7470 C   0  0  0  0  0  0  0  0  0  0  0  0
  157.8420  213.3450  151.1630 C   0  0  2  0  0  3  0  0  0  0  0  0
  157.1090  213.9640  153.3540 O   0  0  0  0  0  1  0  0  0  0  0  0
  157.3200  214.4530  152.0640 C   0  0  0  0  0  2  0  0  0  0  0  0
  1 10  1  6  0  0  0
  1  3  1  0  0  0  0
  3 12  2  0  0  0  0
  4  3  1  0  0  0  0
  5 16  1  0  0  0  0
  6 17  1  1  0  0  0
  6 14  1  0  0  0  0
  7 15  2  0  0  0  0
  7 13  1  0  0  0  0
  8  2  1  6  0  0  0
  8  4  1  0  0  0  0
  9  2  1  0  0  0  0
 11 10  1  0  0  0  0
 13  9  1  1  0  0  0
 13  6  1  0  0  0  0
 14  8  1  0  0  0  0
 14  1  1  0  0  0  0
 15  5  1  0  0  0  0
 16 11  1  0  0  0  0
 17 16  1  0  0  0  0
 18  7  1  0  0  0  0
 19 18  2  0  0  0  0
 20 18  1  0  0  0  0
 21 16  1  0  0  0  0
 21 22  1  0  0  0  0
 23 22  1  0  0  0  0
 24 23  1  0  0  0  0
 25 24  1  0  0  0  0
 25 27  1  0  0  0  0
 26 25  1  0  0  0  0
 27 30  1  0  0  0  0
 28 30  2  0  0  0  0
 28 32  1  0  0  0  0
 29 32  2  0  0  0  0
 30 31  1  0  0  0  0
 32 33  1  0  0  0  0
 33 31  1  0  0  0  0
 33 35  1  0  0  0  0
 35 34  1  0  0  0  0
M  END
>  <MODEL>
2

>  <REMARK>
 VINA RESULT:      -7.5      3.188      4.410
  Name = 
  9 active torsions:
  status: ('A' for Active; 'I' for Inactive)
    1  A    between atoms: C_2  and  C_4
    2  A    between atoms: C_2  and  N_32
    3  A    between atoms: C_4  and  C_11
    4  A    between atoms: C_12  and  C_13
    5  A    between atoms: C_21  and  C_24
    6  A    between atoms: C_22  and  C_33
    7  A    between atoms: C_22  and  C_34
    8  A    between atoms: C_27  and  N_32
    9  A    between atoms: C_27  and  C_33
                            x       y       z     vdW  Elec       q    Type
                         _______ _______ _______ _____ _____    ______ ____

>  <TORSDO>
F 9

$$$$
=
 OpenBabel11052409283D

 35 39  0  0  1  0  0  0  0  0999 V2000
  161.3770  204.9130  145.6360 C   0  0  1  0  0  3  0  0  0  0  0  0
  160.8510  201.5510  147.2600 C   0  0  0  0  0  2  0  0  0  0  0  0
  160.6510  204.2700  144.5120 C   0  0  0  0  0  0  0  0  0  0  0  0
  159.9880  202.6470  144.8500 S   0  0  0  0  0  0  0  0  0  0  0  0
  160.4230  206.2790  149.3250 C   0  0  0  0  0  2  0  0  0  0  0  0
  161.8340  204.1100  147.9730 C   0  0  1  0  0  3  0  0  0  0  0  0
  160.9260  203.9900  150.2560 C   0  0  0  0  0  0  0  0  0  0  0  0
  161.2820  202.4830  146.1170 C   0  0  1  0  0  3  0  0  0  0  0  0
  160.2230  202.3140  148.4290 C   0  0  0  0  0  2  0  0  0  0  0  0
  160.4840  206.0060  146.2440 C   0  0  0  0  0  2  0  0  0  0  0  0
  161.2830  207.0280  147.0650 C   0  0  0  0  0  2  0  0  0  0  0  0
  160.5970  204.7710  143.4020 O   0  0  0  0  0  0  0  0  0  0  0  0
  161.1070  203.4430  148.8850 C   0  0  1  0  0  3  0  0  0  0  0  0
  161.6330  203.8290  146.5850 N   0  0  1  0  0  0  0  0  0  0  0  0
  160.6380  205.2920  150.4490 C   0  0  0  0  0  3  0  0  0  0  0  0
  161.6840  206.5430  148.4710 C   0  0  2  0  0  0  0  0  0  0  0  0
  162.4780  205.3290  148.3380 N   0  0  0  0  0  2  0  0  0  0  0  0
  161.0470  203.0980  151.4280 C   0  0  0  0  0  0  0  0  0  0  0  0
  161.4560  201.9150  151.2870 O   0  0  0  0  0  0  0  0  0  0  0  0
  160.7120  203.5640  152.7330 N   0  0  0  0  0  1  0  0  0  0  0  0
  162.5570  207.5970  149.1550 C   0  0  0  0  0  2  0  0  0  0  0  0
  161.9330  208.9890  149.1720 C   0  0  0  0  0  2  0  0  0  0  0  0
  161.9070  209.5540  150.5860 C   0  0  0  0  0  2  0  0  0  0  0  0
  162.2560  208.5240  151.5570 N   0  0  0  0  0  2  0  0  0  0  0  0
  161.4740  208.7620  152.7630 C   0  0  2  0  0  3  0  0  0  0  0  0
  160.9950  207.4370  153.3240 C   0  0  0  0  0  1  0  0  0  0  0  0
  160.2680  209.6340  152.4370 C   0  0  0  0  0  2  0  0  0  0  0  0
  160.7340  210.7120  154.6030 C   0  0  0  0  0  3  0  0  0  0  0  0
  160.9530  212.0940  156.5160 O   0  0  0  0  0  0  0  0  0  0  0  0
  160.0900  210.7140  153.4510 C   0  0  0  0  0  0  0  0  0  0  0  0
  158.9690  212.0860  153.1770 S   0  0  0  0  0  0  0  0  0  0  0  0
  160.3960  211.8640  155.4110 C   0  0  0  0  0  0  0  0  0  0  0  0
  159.3800  212.7780  154.8170 C   0  0  2  0  0  3  0  0  0  0  0  0
  157.5490  211.5440  155.7360 O   0  0  0  0  0  1  0  0  0  0  0  0
  158.1210  212.8150  155.6690 C   0  0  0  0  0  2  0  0  0  0  0  0
  1 10  1  1  0  0  0
  1 14  1  0  0  0  0
  2  9  1  0  0  0  0
  3  4  1  0  0  0  0
  3  1  1  0  0  0  0
  4  8  1  0  0  0  0
  5 15  1  0  0  0  0
  6 17  1  6  0  0  0
  6 13  1  0  0  0  0
  7 15  2  0  0  0  0
  7 18  1  0  0  0  0
  8 14  1  0  0  0  0
  8  2  1  1  0  0  0
 10 11  1  0  0  0  0
 11 16  1  0  0  0  0
 12  3  2  0  0  0  0
 13  9  1  6  0  0  0
 13  7  1  0  0  0  0
 14  6  1  0  0  0  0
 16 21  1  0  0  0  0
 16  5  1  0  0  0  0
 17 16  1  0  0  0  0
 18 20  1  0  0  0  0
 19 18  2  0  0  0  0
 21 22  1  0  0  0  0
 22 23  1  0  0  0  0
 23 24  1  0  0  0  0
 24 25  1  0  0  0  0
 25 26  1  0  0  0  0
 27 25  1  0  0  0  0
 27 30  1  0  0  0  0
 28 32  1  0  0  0  0
 30 28  2  0  0  0  0
 31 30  1  0  0  0  0
 31 33  1  0  0  0  0
 32 29  2  0  0  0  0
 33 32  1  0  0  0  0
 33 35  1  0  0  0  0
 35 34  1  0  0  0  0
M  END
>  <MODEL>
3

>  <REMARK>
 VINA RESULT:      -7.5      4.399      7.682
  Name = 
  9 active torsions:
  status: ('A' for Active; 'I' for Inactive)
    1  A    between atoms: C_2  and  C_4
    2  A    between atoms: C_2  and  N_32
    3  A    between atoms: C_4  and  C_11
    4  A    between atoms: C_12  and  C_13
    5  A    between atoms: C_21  and  C_24
    6  A    between atoms: C_22  and  C_33
    7  A    between atoms: C_22  and  C_34
    8  A    between atoms: C_27  and  N_32
    9  A    between atoms: C_27  and  C_33
                            x       y       z     vdW  Elec       q    Type
                         _______ _______ _______ _____ _____    ______ ____

>  <TORSDO>
F 9

$$$$
=
 OpenBabel11052409283D

 35 39  0  0  1  0  0  0  0  0999 V2000
  161.0460  206.0180  151.5210 C   0  0  1  0  0  3  0  0  0  0  0  0
  160.3910  202.8330  149.6130 C   0  0  0  0  0  2  0  0  0  0  0  0
  161.2930  205.0720  152.6390 C   0  0  0  0  0  0  0  0  0  0  0  0
  161.2870  203.3420  152.2010 S   0  0  0  0  0  0  0  0  0  0  0  0
  162.9590  207.0690  148.1120 C   0  0  0  0  0  2  0  0  0  0  0  0
  160.6260  205.6040  149.0780 C   0  0  1  0  0  3  0  0  0  0  0  0
  161.7100  205.2460  146.8990 C   0  0  0  0  0  0  0  0  0  0  0  0
  160.2210  203.7950  150.7980 C   0  0  1  0  0  3  0  0  0  0  0  0
  161.4250  203.3310  148.6010 C   0  0  0  0  0  2  0  0  0  0  0  0
  162.3770  206.6770  151.1250 C   0  0  0  0  0  2  0  0  0  0  0  0
  162.1750  207.9820  150.3390 C   0  0  0  0  0  2  0  0  0  0  0  0
  161.3930  205.4460  153.7950 O   0  0  0  0  0  0  0  0  0  0  0  0
  161.1400  204.7470  148.1800 C   0  0  1  0  0  3  0  0  0  0  0  0
  160.5080  205.1900  150.4420 N   0  0  1  0  0  0  0  0  0  0  0  0
  162.5200  206.3210  146.8740 C   0  0  0  0  0  3  0  0  0  0  0  0
  161.8080  207.7820  148.8570 C   0  0  2  0  0  0  0  0  0  0  0  0
  160.5830  206.9980  148.7810 N   0  0  0  0  0  2  0  0  0  0  0  0
  161.4000  204.5480  145.6340 C   0  0  0  0  0  0  0  0  0  0  0  0
  161.5640  203.3020  145.5380 O   0  0  0  0  0  0  0  0  0  0  0  0
  160.9050  205.2700  144.5090 N   0  0  0  0  0  1  0  0  0  0  0  0
  161.5340  209.1380  148.2030 C   0  0  0  0  0  2  0  0  0  0  0  0
  162.0700  210.3210  149.0030 C   0  0  0  0  0  2  0  0  0  0  0  0
  162.0290  211.5980  148.1750 C   0  0  0  0  0  2  0  0  0  0  0  0
  161.8660  212.7640  149.0340 N   0  0  0  0  0  2  0  0  0  0  0  0
  160.4390  212.9920  149.2150 C   0  0  2  0  0  3  0  0  0  0  0  0
  159.8630  213.6180  147.9600 C   0  0  0  0  0  1  0  0  0  0  0  0
  160.2070  213.9280  150.3950 C   0  0  0  0  0  2  0  0  0  0  0  0
  158.4050  213.7310  152.0650 C   0  0  0  0  0  3  0  0  0  0  0  0
  156.8270  213.1270  153.7260 O   0  0  0  0  0  0  0  0  0  0  0  0
  159.4920  213.2330  151.5050 C   0  0  0  0  0  0  0  0  0  0  0  0
  160.0750  211.6740  152.1690 S   0  0  0  0  0  0  0  0  0  0  0  0
  157.8960  212.8740  153.1130 C   0  0  0  0  0  0  0  0  0  0  0  0
  158.7050  211.6500  153.3780 C   0  0  2  0  0  3  0  0  0  0  0  0
  160.6760  211.7670  154.7280 O   0  0  0  0  0  1  0  0  0  0  0  0
  159.2840  211.6770  154.7840 C   0  0  0  0  0  2  0  0  0  0  0  0
  1 10  1  6  0  0  0
  1  3  1  0  0  0  0
  3 12  2  0  0  0  0
  4  3  1  0  0  0  0
  5 16  1  0  0  0  0
  6 17  1  1  0  0  0
  6 14  1  0  0  0  0
  7 13  1  0  0  0  0
  8  2  1  6  0  0  0
  8  4  1  0  0  0  0
  9  2  1  0  0  0  0
 11 10  1  0  0  0  0
 13  9  1  1  0  0  0
 13  6  1  0  0  0  0
 14  8  1  0  0  0  0
 14  1  1  0  0  0  0
 15  7  2  0  0  0  0
 15  5  1  0  0  0  0
 16 11  1  0  0  0  0
 17 16  1  0  0  0  0
 18  7  1  0  0  0  0
 19 18  2  0  0  0  0
 20 18  1  0  0  0  0
 21 16  1  0  0  0  0
 21 22  1  0  0  0  0
 23 22  1  0  0  0  0
 23 24  1  0  0  0  0
 24 25  1  0  0  0  0
 25 27  1  0  0  0  0
 26 25  1  0  0  0  0
 27 30  1  0  0  0  0
 28 32  1  0  0  0  0
 30 28  2  0  0  0  0
 30 31  1  0  0  0  0
 31 33  1  0  0  0  0
 32 33  1  0  0  0  0
 32 29  2  0  0  0  0
 33 35  1  0  0  0  0
 34 35  1  0  0  0  0
M  END
>  <MODEL>
4

>  <REMARK>
 VINA RESULT:      -7.4      3.471      5.473
  Name = 
  9 active torsions:
  status: ('A' for Active; 'I' for Inactive)
    1  A    between atoms: C_2  and  C_4
    2  A    between atoms: C_2  and  N_32
    3  A    between atoms: C_4  and  C_11
    4  A    between atoms: C_12  and  C_13
    5  A    between atoms: C_21  and  C_24
    6  A    between atoms: C_22  and  C_33
    7  A    between atoms: C_22  and  C_34
    8  A    between atoms: C_27  and  N_32
    9  A    between atoms: C_27  and  C_33
                            x       y       z     vdW  Elec       q    Type
                         _______ _______ _______ _____ _____    ______ ____

>  <TORSDO>
F 9

$$$$
=
 OpenBabel11052409283D

 35 39  0  0  1  0  0  0  0  0999 V2000
  161.5570  205.4510  145.8270 C   0  0  1  0  0  3  0  0  0  0  0  0
  160.9880  201.8240  146.6880 C   0  0  0  0  0  2  0  0  0  0  0  0
  160.9220  205.0480  144.5470 C   0  0  0  0  0  0  0  0  0  0  0  0
  160.2710  203.3870  144.4970 S   0  0  0  0  0  0  0  0  0  0  0  0
  160.3250  206.0240  149.6400 C   0  0  0  0  0  2  0  0  0  0  0  0
  161.8690  204.1870  147.9770 C   0  0  1  0  0  3  0  0  0  0  0  0
  160.8090  203.5960  150.1160 C   0  0  0  0  0  0  0  0  0  0  0  0
  161.4770  202.9740  145.7930 C   0  0  1  0  0  3  0  0  0  0  0  0
  160.2660  202.3270  147.9400 C   0  0  0  0  0  2  0  0  0  0  0  0
  160.6020  206.3900  146.5810 C   0  0  0  0  0  2  0  0  0  0  0  0
  161.3230  207.2270  147.6480 C   0  0  0  0  0  2  0  0  0  0  0  0
  160.9350  205.7670  143.5620 O   0  0  0  0  0  0  0  0  0  0  0  0
  161.0940  203.3430  148.6790 C   0  0  1  0  0  3  0  0  0  0  0  0
  161.7680  204.1970  146.5500 N   0  0  1  0  0  0  0  0  0  0  0  0
  160.4820  204.8290  150.5510 C   0  0  0  0  0  3  0  0  0  0  0  0
  161.6360  206.4650  148.9500 C   0  0  2  0  0  0  0  0  0  0  0  0
  162.4610  205.3090  148.6280 N   0  0  0  0  0  2  0  0  0  0  0  0
  160.8670  202.4830  151.0870 C   0  0  0  0  0  0  0  0  0  0  0  0
  160.7600  202.7090  152.3210 O   0  0  0  0  0  0  0  0  0  0  0  0
  161.0340  201.1390  150.6400 N   0  0  0  0  0  1  0  0  0  0  0  0
  162.4380  207.3610  149.8950 C   0  0  0  0  0  2  0  0  0  0  0  0
  161.7280  208.6640  150.2520 C   0  0  0  0  0  2  0  0  0  0  0  0
  161.5520  208.7890  151.7590 C   0  0  0  0  0  2  0  0  0  0  0  0
  160.7720  207.6740  152.2800 N   0  0  0  0  0  2  0  0  0  0  0  0
  161.2330  207.3970  153.6340 C   0  0  2  0  0  3  0  0  0  0  0  0
  161.5810  205.9270  153.7600 C   0  0  0  0  0  1  0  0  0  0  0  0
  160.1380  207.7420  154.6370 C   0  0  0  0  0  2  0  0  0  0  0  0
  160.1300  210.1290  155.2500 C   0  0  0  0  0  3  0  0  0  0  0  0
  160.3210  212.2840  156.2150 O   0  0  0  0  0  0  0  0  0  0  0  0
  160.5330  208.8960  155.4950 C   0  0  0  0  0  0  0  0  0  0  0  0
  161.6030  208.6860  156.9180 S   0  0  0  0  0  0  0  0  0  0  0  0
  160.6430  211.0680  156.2240 C   0  0  0  0  0  0  0  0  0  0  0  0
  161.5380  210.4800  157.2600 C   0  0  2  0  0  3  0  0  0  0  0  0
  163.5010  210.7300  155.9160 O   0  0  0  0  0  1  0  0  0  0  0  0
  162.9420  211.0550  157.1520 C   0  0  0  0  0  2  0  0  0  0  0  0
  1 14  1  0  0  0  0
  1 10  1  1  0  0  0
  2  9  1  0  0  0  0
  3  1  1  0  0  0  0
  4  3  1  0  0  0  0
  4  8  1  0  0  0  0
  5 15  1  0  0  0  0
  6 17  1  1  0  0  0
  6 13  1  0  0  0  0
  7 15  2  0  0  0  0
  7 18  1  0  0  0  0
  8 14  1  0  0  0  0
  8  2  1  1  0  0  0
 10 11  1  0  0  0  0
 11 16  1  0  0  0  0
 12  3  2  0  0  0  0
 13  9  1  6  0  0  0
 13  7  1  0  0  0  0
 14  6  1  0  0  0  0
 16  5  1  0  0  0  0
 16 21  1  0  0  0  0
 17 16  1  0  0  0  0
 18 19  2  0  0  0  0
 20 18  1  0  0  0  0
 21 22  1  0  0  0  0
 22 23  1  0  0  0  0
 23 24  1  0  0  0  0
 24 25  1  0  0  0  0
 25 26  1  0  0  0  0
 25 27  1  0  0  0  0
 27 30  1  0  0  0  0
 28 30  2  0  0  0  0
 28 32  1  0  0  0  0
 29 32  2  0  0  0  0
 30 31  1  0  0  0  0
 31 33  1  0  0  0  0
 32 33  1  0  0  0  0
 34 35  1  0  0  0  0
 35 33  1  0  0  0  0
M  END
>  <MODEL>
5

>  <REMARK>
 VINA RESULT:      -7.1      4.476      8.480
  Name = 
  9 active torsions:
  status: ('A' for Active; 'I' for Inactive)
    1  A    between atoms: C_2  and  C_4
    2  A    between atoms: C_2  and  N_32
    3  A    between atoms: C_4  and  C_11
    4  A    between atoms: C_12  and  C_13
    5  A    between atoms: C_21  and  C_24
    6  A    between atoms: C_22  and  C_33
    7  A    between atoms: C_22  and  C_34
    8  A    between atoms: C_27  and  N_32
    9  A    between atoms: C_27  and  C_33
                            x       y       z     vdW  Elec       q    Type
                         _______ _______ _______ _____ _____    ______ ____

>  <TORSDO>
F 9

$$$$
=
 OpenBabel11052409283D

 35 39  0  0  1  0  0  0  0  0999 V2000
  160.8340  203.5000  149.2570 C   0  0  1  0  0  3  0  0  0  0  0  0
  161.3460  206.3300  146.8190 C   0  0  0  0  0  2  0  0  0  0  0  0
  161.2040  202.6740  148.0810 C   0  0  0  0  0  0  0  0  0  0  0  0
  161.7430  203.5800  146.6400 S   0  0  0  0  0  0  0  0  0  0  0  0
  162.7630  206.0040  151.7870 C   0  0  0  0  0  2  0  0  0  0  0  0
  160.8450  205.9920  149.5860 C   0  0  1  0  0  3  0  0  0  0  0  0
  162.2380  207.9140  150.2280 C   0  0  0  0  0  0  0  0  0  0  0  0
  160.7680  204.9800  147.2700 C   0  0  1  0  0  3  0  0  0  0  0  0
  162.3090  206.9250  147.8490 C   0  0  0  0  0  2  0  0  0  0  0  0
  161.9600  203.4120  150.3000 C   0  0  0  0  0  2  0  0  0  0  0  0
  161.4900  203.8170  151.7060 C   0  0  0  0  0  2  0  0  0  0  0  0
  161.0540  201.4640  148.0650 O   0  0  0  0  0  0  0  0  0  0  0  0
  161.6850  206.9740  149.2170 C   0  0  1  0  0  3  0  0  0  0  0  0
  160.6870  204.8570  148.7300 N   0  0  1  0  0  0  0  0  0  0  0  0
  162.7060  207.4660  151.4090 C   0  0  0  0  0  3  0  0  0  0  0  0
  161.3750  205.3370  151.9260 C   0  0  2  0  0  0  0  0  0  0  0  0
  160.4430  205.8810  150.9490 N   0  0  0  0  0  2  0  0  0  0  0  0
  162.2940  209.3620  149.9340 C   0  0  0  0  0  0  0  0  0  0  0  0
  162.6440  210.1790  150.8270 O   0  0  0  0  0  0  0  0  0  0  0  0
  161.9630  209.8530  148.6370 N   0  0  0  0  0  1  0  0  0  0  0  0
  160.8070  205.6170  153.3180 C   0  0  0  0  0  2  0  0  0  0  0  0
  160.8230  207.0950  153.6990 C   0  0  0  0  0  2  0  0  0  0  0  0
  160.4730  207.2790  155.1690 C   0  0  0  0  0  2  0  0  0  0  0  0
  161.5730  207.9150  155.8840 N   0  0  0  0  0  2  0  0  0  0  0  0
  161.4330  209.3570  155.7310 C   0  0  2  0  0  3  0  0  0  0  0  0
  162.3080  210.0610  156.7500 C   0  0  0  0  0  1  0  0  0  0  0  0
  159.9810  209.7640  155.9500 C   0  0  0  0  0  2  0  0  0  0  0  0
  160.2430  210.9590  153.8100 C   0  0  0  0  0  3  0  0  0  0  0  0
  160.0590  212.1980  151.7980 O   0  0  0  0  0  0  0  0  0  0  0  0
  159.5040  210.6710  154.8660 C   0  0  0  0  0  0  0  0  0  0  0  0
  157.8910  211.4500  154.9330 S   0  0  0  0  0  0  0  0  0  0  0  0
  159.5610  211.8550  152.9020 C   0  0  0  0  0  0  0  0  0  0  0  0
  158.2100  212.3000  153.3470 C   0  0  2  0  0  3  0  0  0  0  0  0
  159.0120  214.1400  154.6480 O   0  0  0  0  0  1  0  0  0  0  0  0
  158.1840  213.8030  153.5770 C   0  0  0  0  0  2  0  0  0  0  0  0
  1 10  1  1  0  0  0
  2  9  1  0  0  0  0
  3  1  1  0  0  0  0
  4  8  1  0  0  0  0
  4  3  1  0  0  0  0
  5 16  1  0  0  0  0
  6 17  1  1  0  0  0
  7 15  2  0  0  0  0
  8  2  1  1  0  0  0
  8 14  1  0  0  0  0
 10 11  1  0  0  0  0
 11 16  1  0  0  0  0
 12  3  2  0  0  0  0
 13  9  1  1  0  0  0
 13  6  1  0  0  0  0
 13  7  1  0  0  0  0
 14  1  1  0  0  0  0
 14  6  1  0  0  0  0
 15  5  1  0  0  0  0
 16 21  1  0  0  0  0
 17 16  1  0  0  0  0
 18  7  1  0  0  0  0
 18 19  2  0  0  0  0
 20 18  1  0  0  0  0
 21 22  1  0  0  0  0
 22 23  1  0  0  0  0
 23 24  1  0  0  0  0
 25 24  1  0  0  0  0
 25 27  1  0  0  0  0
 25 26  1  0  0  0  0
 28 30  2  0  0  0  0
 29 32  2  0  0  0  0
 30 31  1  0  0  0  0
 30 27  1  0  0  0  0
 32 33  1  0  0  0  0
 32 28  1  0  0  0  0
 33 35  1  0  0  0  0
 33 31  1  0  0  0  0
 35 34  1  0  0  0  0
M  END
>  <MODEL>
6

>  <REMARK>
 VINA RESULT:      -6.8      4.714      7.466
  Name = 
  9 active torsions:
  status: ('A' for Active; 'I' for Inactive)
    1  A    between atoms: C_2  and  C_4
    2  A    between atoms: C_2  and  N_32
    3  A    between atoms: C_4  and  C_11
    4  A    between atoms: C_12  and  C_13
    5  A    between atoms: C_21  and  C_24
    6  A    between atoms: C_22  and  C_33
    7  A    between atoms: C_22  and  C_34
    8  A    between atoms: C_27  and  N_32
    9  A    between atoms: C_27  and  C_33
                            x       y       z     vdW  Elec       q    Type
                         _______ _______ _______ _____ _____    ______ ____

>  <TORSDO>
F 9

$$$$
=
 OpenBabel11052409283D

 35 39  0  0  1  0  0  0  0  0999 V2000
  160.9730  205.6360  151.6540 C   0  0  1  0  0  3  0  0  0  0  0  0
  160.4640  202.8950  149.1160 C   0  0  0  0  0  2  0  0  0  0  0  0
  161.1700  204.4870  152.5730 C   0  0  0  0  0  0  0  0  0  0  0  0
  161.2090  202.8790  151.7990 S   0  0  0  0  0  0  0  0  0  0  0  0
  163.0570  207.3500  148.6360 C   0  0  0  0  0  2  0  0  0  0  0  0
  160.6930  205.7180  149.1570 C   0  0  1  0  0  3  0  0  0  0  0  0
  161.8990  205.8030  147.0160 C   0  0  0  0  0  0  0  0  0  0  0  0
  160.2170  203.6020  150.4570 C   0  0  1  0  0  3  0  0  0  0  0  0
  161.5460  203.5870  148.2840 C   0  0  0  0  0  2  0  0  0  0  0  0
  162.3150  206.3630  151.4730 C   0  0  0  0  0  2  0  0  0  0  0  0
  162.1400  207.7980  150.9530 C   0  0  0  0  0  2  0  0  0  0  0  0
  161.2000  204.6220  153.7840 O   0  0  0  0  0  0  0  0  0  0  0  0
  161.2660  205.0590  148.1370 C   0  0  1  0  0  3  0  0  0  0  0  0
  160.5050  205.0390  150.4030 N   0  0  1  0  0  0  0  0  0  0  0  0
  162.6960  206.8630  147.2520 C   0  0  0  0  0  3  0  0  0  0  0  0
  161.8570  207.8980  149.4410 C   0  0  2  0  0  0  0  0  0  0  0  0
  160.6490  207.1430  149.1420 N   0  0  0  0  0  2  0  0  0  0  0  0
  161.6690  205.3720  145.6210 C   0  0  0  0  0  0  0  0  0  0  0  0
  162.4770  204.5860  145.0570 O   0  0  0  0  0  0  0  0  0  0  0  0
  160.5280  205.8290  144.8990 N   0  0  0  0  0  1  0  0  0  0  0  0
  161.6020  209.3560  149.0570 C   0  0  0  0  0  2  0  0  0  0  0  0
  162.3070  210.3600  149.9650 C   0  0  0  0  0  2  0  0  0  0  0  0
  161.2990  211.2670  150.6550 C   0  0  0  0  0  2  0  0  0  0  0  0
  161.0210  210.7940  152.0050 N   0  0  0  0  0  2  0  0  0  0  0  0
  159.8450  211.5000  152.4950 C   0  0  2  0  0  3  0  0  0  0  0  0
  159.4530  212.5790  151.5050 C   0  0  0  0  0  1  0  0  0  0  0  0
  160.1480  212.1420  153.8440 C   0  0  0  0  0  2  0  0  0  0  0  0
  161.6970  211.0520  155.4200 C   0  0  0  0  0  3  0  0  0  0  0  0
  162.8220  209.7840  157.0760 O   0  0  0  0  0  0  0  0  0  0  0  0
  160.5000  211.1150  154.8660 C   0  0  0  0  0  0  0  0  0  0  0  0
  159.3190  209.8770  155.4010 S   0  0  0  0  0  0  0  0  0  0  0  0
  161.7910  209.9750  156.3820 C   0  0  0  0  0  0  0  0  0  0  0  0
  160.5630  209.1410  156.5200 C   0  0  2  0  0  3  0  0  0  0  0  0
  160.7470  207.6000  154.7000 O   0  0  0  0  0  1  0  0  0  0  0  0
  160.8300  207.7080  156.0890 C   0  0  0  0  0  2  0  0  0  0  0  0
  1 10  1  6  0  0  0
  1  3  1  0  0  0  0
  3 12  2  0  0  0  0
  4  3  1  0  0  0  0
  5 16  1  0  0  0  0
  6 17  1  1  0  0  0
  6 14  1  0  0  0  0
  7 15  2  0  0  0  0
  7 13  1  0  0  0  0
  8  2  1  6  0  0  0
  8  4  1  0  0  0  0
  9  2  1  0  0  0  0
 11 10  1  0  0  0  0
 13  9  1  1  0  0  0
 13  6  1  0  0  0  0
 14  8  1  0  0  0  0
 14  1  1  0  0  0  0
 15  5  1  0  0  0  0
 16 11  1  0  0  0  0
 17 16  1  0  0  0  0
 18  7  1  0  0  0  0
 19 18  2  0  0  0  0
 20 18  1  0  0  0  0
 21 16  1  0  0  0  0
 21 22  1  0  0  0  0
 22 23  1  0  0  0  0
 23 24  1  0  0  0  0
 24 25  1  0  0  0  0
 25 27  1  0  0  0  0
 26 25  1  0  0  0  0
 27 30  1  0  0  0  0
 28 32  1  0  0  0  0
 30 31  1  0  0  0  0
 30 28  2  0  0  0  0
 31 33  1  0  0  0  0
 32 33  1  0  0  0  0
 32 29  2  0  0  0  0
 34 35  1  0  0  0  0
 35 33  1  0  0  0  0
M  END
>  <MODEL>
7

>  <REMARK>
 VINA RESULT:      -6.8      4.180      6.830
  Name = 
  9 active torsions:
  status: ('A' for Active; 'I' for Inactive)
    1  A    between atoms: C_2  and  C_4
    2  A    between atoms: C_2  and  N_32
    3  A    between atoms: C_4  and  C_11
    4  A    between atoms: C_12  and  C_13
    5  A    between atoms: C_21  and  C_24
    6  A    between atoms: C_22  and  C_33
    7  A    between atoms: C_22  and  C_34
    8  A    between atoms: C_27  and  N_32
    9  A    between atoms: C_27  and  C_33
                            x       y       z     vdW  Elec       q    Type
                         _______ _______ _______ _____ _____    ______ ____

>  <TORSDO>
F 9

$$$$
=
 OpenBabel11052409283D

 35 39  0  0  1  0  0  0  0  0999 V2000
  161.1990  207.3220  154.6550 C   0  0  1  0  0  3  0  0  0  0  0  0
  161.5480  210.5010  152.6580 C   0  0  0  0  0  2  0  0  0  0  0  0
  160.4790  208.2180  155.5940 C   0  0  0  0  0  0  0  0  0  0  0  0
  160.1940  209.8810  155.0110 S   0  0  0  0  0  0  0  0  0  0  0  0
  160.4640  205.7140  151.0140 C   0  0  0  0  0  2  0  0  0  0  0  0
  162.0930  207.7400  152.3430 C   0  0  1  0  0  3  0  0  0  0  0  0
  161.5170  207.7440  149.9520 C   0  0  0  0  0  0  0  0  0  0  0  0
  161.6430  209.6520  153.9350 C   0  0  1  0  0  3  0  0  0  0  0  0
  160.9340  209.7290  151.4890 C   0  0  0  0  0  2  0  0  0  0  0  0
  160.1920  206.3430  154.0310 C   0  0  0  0  0  2  0  0  0  0  0  0
  160.8730  205.1010  153.4360 C   0  0  0  0  0  2  0  0  0  0  0  0
  160.1910  207.8730  156.7270 O   0  0  0  0  0  0  0  0  0  0  0  0
  161.6300  208.4120  151.2760 C   0  0  1  0  0  3  0  0  0  0  0  0
  161.7790  208.2190  153.6540 N   0  0  1  0  0  0  0  0  0  0  0  0
  161.0060  206.5020  149.8440 C   0  0  0  0  0  3  0  0  0  0  0  0
  161.5330  205.3320  152.0630 C   0  0  2  0  0  0  0  0  0  0  0  0
  162.5250  206.3890  152.1940 N   0  0  0  0  0  2  0  0  0  0  0  0
  161.9550  208.4510  148.7300 C   0  0  0  0  0  0  0  0  0  0  0  0
  162.3280  207.8000  147.7180 O   0  0  0  0  0  0  0  0  0  0  0  0
  161.9540  209.8750  148.6760 N   0  0  0  0  0  1  0  0  0  0  0  0
  162.2600  204.0620  151.6180 C   0  0  0  0  0  2  0  0  0  0  0  0
  161.5400  202.7760  152.0110 C   0  0  0  0  0  2  0  0  0  0  0  0
  160.7310  202.2290  150.8420 C   0  0  0  0  0  2  0  0  0  0  0  0
  161.4790  201.1950  150.1380 N   0  0  0  0  0  2  0  0  0  0  0  0
  160.8180  200.9530  148.8630 C   0  0  2  0  0  3  0  0  0  0  0  0
  161.8500  200.5570  147.8250 C   0  0  0  0  0  1  0  0  0  0  0  0
  160.1020  202.2170  148.4010 C   0  0  0  0  0  2  0  0  0  0  0  0
  161.8540  203.7620  147.6160 C   0  0  0  0  0  3  0  0  0  0  0  0
  163.4470  205.0780  146.4560 O   0  0  0  0  0  0  0  0  0  0  0  0
  160.8760  202.9200  147.3370 C   0  0  0  0  0  0  0  0  0  0  0  0
  160.5140  202.6820  145.5980 S   0  0  0  0  0  0  0  0  0  0  0  0
  162.4510  204.3110  146.4170 C   0  0  0  0  0  0  0  0  0  0  0  0
  161.8290  203.8640  145.1390 C   0  0  2  0  0  3  0  0  0  0  0  0
  160.4790  205.8330  145.2900 O   0  0  0  0  0  1  0  0  0  0  0  0
  161.2040  205.0380  144.4010 C   0  0  0  0  0  2  0  0  0  0  0  0
  1 10  1  6  0  0  0
  1  3  1  0  0  0  0
  3 12  2  0  0  0  0
  4  3  1  0  0  0  0
  5 16  1  0  0  0  0
  6 17  1  1  0  0  0
  6 14  1  0  0  0  0
  7 13  1  0  0  0  0
  8  2  1  6  0  0  0
  8  4  1  0  0  0  0
  9  2  1  0  0  0  0
 11 10  1  0  0  0  0
 13  9  1  1  0  0  0
 13  6  1  0  0  0  0
 14  8  1  0  0  0  0
 14  1  1  0  0  0  0
 15  7  2  0  0  0  0
 15  5  1  0  0  0  0
 16 17  1  0  0  0  0
 16 11  1  0  0  0  0
 18  7  1  0  0  0  0
 19 18  2  0  0  0  0
 20 18  1  0  0  0  0
 21 22  1  0  0  0  0
 21 16  1  0  0  0  0
 23 22  1  0  0  0  0
 24 23  1  0  0  0  0
 25 24  1  0  0  0  0
 26 25  1  0  0  0  0
 27 25  1  0  0  0  0
 30 28  2  0  0  0  0
 30 27  1  0  0  0  0
 31 30  1  0  0  0  0
 32 29  2  0  0  0  0
 32 28  1  0  0  0  0
 33 31  1  0  0  0  0
 33 32  1  0  0  0  0
 35 33  1  0  0  0  0
 35 34  1  0  0  0  0
M  END
>  <MODEL>
8

>  <REMARK>
 VINA RESULT:      -6.7      4.529      7.443
  Name = 
  9 active torsions:
  status: ('A' for Active; 'I' for Inactive)
    1  A    between atoms: C_2  and  C_4
    2  A    between atoms: C_2  and  N_32
    3  A    between atoms: C_4  and  C_11
    4  A    between atoms: C_12  and  C_13
    5  A    between atoms: C_21  and  C_24
    6  A    between atoms: C_22  and  C_33
    7  A    between atoms: C_22  and  C_34
    8  A    between atoms: C_27  and  N_32
    9  A    between atoms: C_27  and  C_33
                            x       y       z     vdW  Elec       q    Type
                         _______ _______ _______ _____ _____    ______ ____

>  <TORSDO>
F 9

$$$$
=
 OpenBabel11052409283D

 35 39  0  0  1  0  0  0  0  0999 V2000
  161.6640  205.7350  145.9340 C   0  0  1  0  0  3  0  0  0  0  0  0
  161.1150  202.0750  146.6530 C   0  0  0  0  0  2  0  0  0  0  0  0
  161.0510  205.3740  144.6310 C   0  0  0  0  0  0  0  0  0  0  0  0
  160.4150  203.7110  144.5110 S   0  0  0  0  0  0  0  0  0  0  0  0
  160.3720  206.1580  149.7480 C   0  0  0  0  0  2  0  0  0  0  0  0
  161.9560  204.3960  148.0410 C   0  0  1  0  0  3  0  0  0  0  0  0
  160.8710  203.7180  150.1410 C   0  0  0  0  0  0  0  0  0  0  0  0
  161.6070  203.2600  145.8090 C   0  0  1  0  0  3  0  0  0  0  0  0
  160.3710  202.5250  147.9120 C   0  0  0  0  0  2  0  0  0  0  0  0
  160.6900  206.6380  146.7080 C   0  0  0  0  0  2  0  0  0  0  0  0
  161.3880  207.4410  147.8160 C   0  0  0  0  0  2  0  0  0  0  0  0
  161.0720  206.1290  143.6730 O   0  0  0  0  0  0  0  0  0  0  0  0
  161.1790  203.5200  148.7000 C   0  0  1  0  0  3  0  0  0  0  0  0
  161.8760  204.4570  146.6140 N   0  0  1  0  0  0  0  0  0  0  0  0
  160.5270  204.9300  150.6160 C   0  0  0  0  0  3  0  0  0  0  0  0
  161.6890  206.6340  149.0940 C   0  0  2  0  0  0  0  0  0  0  0  0
  162.5290  205.4980  148.7410 N   0  0  0  0  0  2  0  0  0  0  0  0
  160.9250  202.5700  151.0710 C   0  0  0  0  0  0  0  0  0  0  0  0
  160.8050  202.7500  152.3120 O   0  0  0  0  0  0  0  0  0  0  0  0
  161.1030  201.2440  150.5770 N   0  0  0  0  0  1  0  0  0  0  0  0
  162.4700  207.5020  150.0820 C   0  0  0  0  0  2  0  0  0  0  0  0
  161.9470  208.9310  150.1860 C   0  0  0  0  0  2  0  0  0  0  0  0
  161.5220  209.2500  151.6130 C   0  0  0  0  0  2  0  0  0  0  0  0
  161.5180  210.6900  151.8390 N   0  0  0  0  0  2  0  0  0  0  0  0
  160.8070  210.9470  153.0840 C   0  0  2  0  0  3  0  0  0  0  0  0
  161.3040  209.9980  154.1560 C   0  0  0  0  0  1  0  0  0  0  0  0
  159.3110  210.7370  152.8810 C   0  0  0  0  0  2  0  0  0  0  0  0
  157.9430  212.0890  154.4220 C   0  0  0  0  0  3  0  0  0  0  0  0
  156.6910  213.7170  155.6050 O   0  0  0  0  0  0  0  0  0  0  0  0
  158.5380  211.9580  153.2500 C   0  0  0  0  0  0  0  0  0  0  0  0
  158.3480  213.3300  152.1130 S   0  0  0  0  0  0  0  0  0  0  0  0
  157.2610  213.3600  154.5410 C   0  0  0  0  0  0  0  0  0  0  0  0
  157.3260  214.2290  153.3320 C   0  0  2  0  0  3  0  0  0  0  0  0
  155.9840  214.3610  151.3570 O   0  0  0  0  0  1  0  0  0  0  0  0
  155.9390  214.4500  152.7490 C   0  0  0  0  0  2  0  0  0  0  0  0
  1 14  1  0  0  0  0
  1 10  1  1  0  0  0
  2  9  1  0  0  0  0
  3  1  1  0  0  0  0
  4  3  1  0  0  0  0
  4  8  1  0  0  0  0
  5 15  1  0  0  0  0
  6 13  1  0  0  0  0
  6 17  1  1  0  0  0
  7 15  2  0  0  0  0
  7 18  1  0  0  0  0
  8 14  1  0  0  0  0
  8  2  1  1  0  0  0
 10 11  1  0  0  0  0
 11 16  1  0  0  0  0
 12  3  2  0  0  0  0
 13  9  1  6  0  0  0
 13  7  1  0  0  0  0
 14  6  1  0  0  0  0
 16  5  1  0  0  0  0
 16 21  1  0  0  0  0
 17 16  1  0  0  0  0
 18 19  2  0  0  0  0
 20 18  1  0  0  0  0
 21 22  1  0  0  0  0
 22 23  1  0  0  0  0
 23 24  1  0  0  0  0
 24 25  1  0  0  0  0
 25 26  1  0  0  0  0
 27 25  1  0  0  0  0
 27 30  1  0  0  0  0
 28 32  1  0  0  0  0
 30 28  2  0  0  0  0
 31 30  1  0  0  0  0
 31 33  1  0  0  0  0
 32 29  2  0  0  0  0
 33 32  1  0  0  0  0
 34 35  1  0  0  0  0
 35 33  1  0  0  0  0
M  END
>  <MODEL>
9

>  <REMARK>
 VINA RESULT:      -6.5      4.497      7.240
  Name = 
  9 active torsions:
  status: ('A' for Active; 'I' for Inactive)
    1  A    between atoms: C_2  and  C_4
    2  A    between atoms: C_2  and  N_32
    3  A    between atoms: C_4  and  C_11
    4  A    between atoms: C_12  and  C_13
    5  A    between atoms: C_21  and  C_24
    6  A    between atoms: C_22  and  C_33
    7  A    between atoms: C_22  and  C_34
    8  A    between atoms: C_27  and  N_32
    9  A    between atoms: C_27  and  C_33
                            x       y       z     vdW  Elec       q    Type
                         _______ _______ _______ _____ _____    ______ ____

>  <TORSDO>
F 9

$$$$
