=
 OpenBabel11052409413D

 38 43  0  0  1  0  0  0  0  0999 V2000
  162.2220  210.5840  150.8420 C   0  0  1  0  0  3  0  0  0  0  0  0
  161.1920  210.8590  149.8460 N   0  0  0  0  0  0  0  0  0  0  0  0
  161.9900  207.1370  150.8730 C   0  0  2  0  0  3  0  0  0  0  0  0
  161.1740  209.5650  152.8870 N   0  0  0  0  0  2  0  0  0  0  0  0
  161.8780  208.1840  148.6370 C   0  0  0  0  0  2  0  0  0  0  0  0
  160.5770  206.8100  154.0840 C   0  0  0  0  0  2  0  0  0  0  0  0
  160.7740  205.5630  149.5120 N   0  0  0  0  0  0  0  0  0  0  0  0
  162.0910  208.7330  156.9160 N   0  0  0  0  0  0  0  0  0  0  0  0
  161.1300  206.5350  152.7210 C   0  0  0  0  0  0  0  0  0  0  0  0
  162.9470  211.0190  157.2610 C   0  0  0  0  0  1  0  0  0  0  0  0
  162.1090  207.2860  152.1960 N   0  0  0  0  0  0  0  0  0  0  0  0
  162.3410  209.9650  156.4040 C   0  0  0  0  0  0  0  0  0  0  0  0
  160.3640  211.8890  150.4620 C   0  0  0  0  0  2  0  0  0  0  0  0
  160.4350  211.7420  151.9720 C   0  0  2  0  0  3  0  0  0  0  0  0
  160.4600  205.8060  151.8040 N   0  0  0  0  0  2  0  0  0  0  0  0
  162.3810  208.1120  150.0420 C   0  0  1  0  0  3  0  0  0  0  0  0
  161.6090  210.7980  152.2310 C   0  0  2  0  0  3  0  0  0  0  0  0
  161.4650  209.2600  154.2620 C   0  0  0  0  0  0  0  0  0  0  0  0
  161.4430  205.7620  148.2530 C   0  0  0  0  0  3  0  0  0  0  0  0
  162.0370  210.2460  155.0730 C   0  0  0  0  0  3  0  0  0  0  0  0
  161.5470  207.7430  156.1570 C   0  0  0  0  0  3  0  0  0  0  0  0
  161.0420  206.1560  150.6400 C   0  0  0  0  0  0  0  0  0  0  0  0
  162.0030  206.9080  147.8720 C   0  0  0  0  0  3  0  0  0  0  0  0
  161.2280  207.9650  154.8140 C   0  0  0  0  0  0  0  0  0  0  0  0
  162.9320  209.3070  150.6240 N   0  0  0  0  0  2  0  0  0  0  0  0
  159.1590  211.2310  152.4600 N   0  0  0  0  0  2  0  0  0  0  0  0
  158.5230  212.2840  153.2320 C   0  0  2  0  0  3  0  0  0  0  0  0
  159.2130  212.3840  154.5810 C   0  0  0  0  0  2  0  0  0  0  0  0
  157.8740  211.6830  154.4670 C   0  0  1  0  0  3  0  0  0  0  0  0
  157.2650  214.1620  155.7560 O   0  0  0  0  0  1  0  0  0  0  0  0
  155.7290  212.0770  156.1110 O   0  0  0  0  0  1  0  0  0  0  0  0
  155.5460  213.2690  153.7880 O   0  0  0  0  0  0  0  0  0  0  0  0
  156.5550  212.7880  155.0620 P   0  0  0  0  0  0  0  0  0  0  0  0
  161.8520  211.4690  148.6910 C   0  0  0  0  0  2  0  0  0  0  0  0
  162.2830  213.8200  148.2630 N   0  0  0  0  0  1  0  0  0  0  0  0
  161.2340  212.8240  148.3290 C   0  0  1  0  0  3  0  0  0  0  0  0
  159.1300  212.5820  147.2000 O   0  0  0  0  0  1  0  0  0  0  0  0
  160.5000  212.7910  146.9950 C   0  0  0  0  0  2  0  0  0  0  0  0
  1 25  1  1  0  0  0
  1 17  1  0  0  0  0
  2 13  1  0  0  0  0
  2  1  1  0  0  0  0
  3 22  1  1  0  0  0
  3 11  1  0  0  0  0
  4 18  1  0  0  0  0
  6 24  1  0  0  0  0
  7 22  2  0  0  0  0
  9  6  1  0  0  0  0
 11  9  2  0  0  0  0
 12  8  1  0  0  0  0
 12 10  1  0  0  0  0
 13 14  1  0  0  0  0
 14 17  1  0  0  0  0
 14 26  1  6  0  0  0
 15  9  1  0  0  0  0
 16  5  1  1  0  0  0
 16 25  1  0  0  0  0
 16  3  1  0  0  0  0
 17  4  1  6  0  0  0
 18 24  2  0  0  0  0
 18 20  1  0  0  0  0
 19  7  1  0  0  0  0
 20 12  2  0  0  0  0
 21  8  2  0  0  0  0
 22 15  1  0  0  0  0
 23 19  2  0  0  0  0
 23  5  1  0  0  0  0
 24 21  1  0  0  0  0
 27 26  1  6  0  0  0
 27 29  1  0  0  0  0
 27 28  1  0  0  0  0
 29 28  1  0  0  0  0
 29 33  1  1  0  0  0
 32 33  2  0  0  0  0
 33 30  1  0  0  0  0
 33 31  1  0  0  0  0
 34  2  1  0  0  0  0
 36 35  1  6  0  0  0
 36 34  1  0  0  0  0
 38 37  1  0  0  0  0
 38 36  1  0  0  0  0
M  END
>  <MODEL>
1

>  <REMARK>
 VINA RESULT:      -5.5      0.000      0.000
  Name = 
  6 active torsions:
  status: ('A' for Active; 'I' for Inactive)
    1  A    between atoms: N_2  and  C_38
    2  A    between atoms: C_8  and  N_29
    3  A    between atoms: CA_13  and  C_17
    4  A    between atoms: CA_13  and  C_38
    5  A    between atoms: C_23  and  N_29
    6  A    between atoms: P_24  and  C_37
                            x       y       z     vdW  Elec       q    Type
                         _______ _______ _______ _____ _____    ______ ____

>  <TORSDO>
F 6

$$$$
=
 OpenBabel11052409413D

 38 43  0  0  1  0  0  0  0  0999 V2000
  160.6420  212.0320  154.4750 C   0  0  1  0  0  3  0  0  0  0  0  0
  160.3080  210.7590  155.1030 N   0  0  0  0  0  0  0  0  0  0  0  0
  157.4750  213.4090  154.3990 C   0  0  2  0  0  3  0  0  0  0  0  0
  159.5530  212.1750  152.2140 N   0  0  0  0  0  2  0  0  0  0  0  0
  158.0600  212.2180  156.4850 C   0  0  0  0  0  2  0  0  0  0  0  0
  156.9990  213.2530  150.9110 C   0  0  0  0  0  2  0  0  0  0  0  0
  155.3620  212.7170  155.3320 N   0  0  0  0  0  0  0  0  0  0  0  0
  159.7480  214.4480  148.6690 N   0  0  0  0  0  0  0  0  0  0  0  0
  156.8110  213.4670  152.3810 C   0  0  0  0  0  0  0  0  0  0  0  0
  162.2020  214.2300  148.5880 C   0  0  0  0  0  1  0  0  0  0  0  0
  157.8350  213.8100  153.1760 N   0  0  0  0  0  0  0  0  0  0  0  0
  160.8860  213.9570  149.2250 C   0  0  0  0  0  0  0  0  0  0  0  0
  160.9480  209.7610  154.2550 C   0  0  0  0  0  2  0  0  0  0  0  0
  161.0490  210.3070  152.8410 C   0  0  2  0  0  3  0  0  0  0  0  0
  155.7480  212.9760  153.0520 N   0  0  0  0  0  2  0  0  0  0  0  0
  158.4020  213.0670  155.3030 C   0  0  1  0  0  3  0  0  0  0  0  0
  160.7530  211.8020  152.9630 C   0  0  2  0  0  3  0  0  0  0  0  0
  159.5910  212.9420  150.9980 C   0  0  0  0  0  0  0  0  0  0  0  0
  155.6620  212.8440  156.7340 C   0  0  0  0  0  3  0  0  0  0  0  0
  160.8260  213.2040  150.3950 C   0  0  0  0  0  3  0  0  0  0  0  0
  158.5280  214.2250  149.2320 C   0  0  0  0  0  3  0  0  0  0  0  0
  156.1580  212.9870  154.3370 C   0  0  0  0  0  0  0  0  0  0  0  0
  156.8750  212.6910  157.2600 C   0  0  0  0  0  3  0  0  0  0  0  0
  158.4080  213.4820  150.4090 C   0  0  0  0  0  0  0  0  0  0  0  0
  159.7830  213.1530  154.9100 N   0  0  0  0  0  2  0  0  0  0  0  0
  160.1060  209.5950  151.9880 N   0  0  0  0  0  2  0  0  0  0  0  0
  160.7320  208.3540  151.5690 C   0  0  2  0  0  3  0  0  0  0  0  0
  162.2100  208.6080  151.3350 C   0  0  0  0  0  2  0  0  0  0  0  0
  161.2640  208.5080  150.1550 C   0  0  1  0  0  3  0  0  0  0  0  0
  162.5700  206.9630  148.1330 O   0  0  0  0  0  0  0  0  0  0  0  0
  160.0970  206.4440  148.7990 O   0  0  0  0  0  1  0  0  0  0  0  0
  161.9360  205.7120  150.5110 O   0  0  0  0  0  1  0  0  0  0  0  0
  161.4270  206.8680  149.3810 P   0  0  0  0  0  0  0  0  0  0  0  0
  160.9830  210.7210  156.4010 C   0  0  0  0  0  2  0  0  0  0  0  0
  163.3880  210.8100  156.7230 N   0  0  0  0  0  1  0  0  0  0  0  0
  162.2990  209.9370  156.3370 C   0  0  1  0  0  3  0  0  0  0  0  0
  161.0330  208.1130  157.2450 O   0  0  0  0  0  1  0  0  0  0  0  0
  162.2960  208.7190  157.2510 C   0  0  0  0  0  2  0  0  0  0  0  0
  1 25  1  6  0  0  0
  1  2  1  0  0  0  0
  2 34  1  0  0  0  0
  3 11  1  6  0  0  0
  3 16  1  0  0  0  0
  5 23  1  0  0  0  0
  6  9  1  0  0  0  0
  7 19  1  0  0  0  0
  8 12  2  0  0  0  0
  8 21  1  0  0  0  0
  9 15  1  0  0  0  0
  9 11  2  0  0  0  0
 10 12  1  0  0  0  0
 12 20  1  0  0  0  0
 13  2  1  0  0  0  0
 14 26  1  6  0  0  0
 14 17  1  0  0  0  0
 14 13  1  0  0  0  0
 15 22  1  0  0  0  0
 16  5  1  6  0  0  0
 17  4  1  6  0  0  0
 17  1  1  0  0  0  0
 18  4  1  0  0  0  0
 19 23  2  0  0  0  0
 20 18  2  0  0  0  0
 21 24  2  0  0  0  0
 22  3  1  0  0  0  0
 22  7  2  0  0  0  0
 24  6  1  0  0  0  0
 24 18  1  0  0  0  0
 25 16  1  0  0  0  0
 27 26  1  1  0  0  0
 28 27  1  0  0  0  0
 29 33  1  6  0  0  0
 29 28  1  0  0  0  0
 29 27  1  0  0  0  0
 30 33  2  0  0  0  0
 31 33  1  0  0  0  0
 33 32  1  0  0  0  0
 36 34  1  0  0  0  0
 36 35  1  1  0  0  0
 36 38  1  0  0  0  0
 37 38  1  0  0  0  0
M  END
>  <MODEL>
2

>  <REMARK>
 VINA RESULT:      -3.6      3.508      8.294
  Name = 
  6 active torsions:
  status: ('A' for Active; 'I' for Inactive)
    1  A    between atoms: N_2  and  C_38
    2  A    between atoms: C_8  and  N_29
    3  A    between atoms: CA_13  and  C_17
    4  A    between atoms: CA_13  and  C_38
    5  A    between atoms: C_23  and  N_29
    6  A    between atoms: P_24  and  C_37
                            x       y       z     vdW  Elec       q    Type
                         _______ _______ _______ _____ _____    ______ ____

>  <TORSDO>
F 6

$$$$
=
 OpenBabel11052409413D

 38 43  0  0  1  0  0  0  0  0999 V2000
  161.9260  209.9520  153.0750 C   0  0  1  0  0  3  0  0  0  0  0  0
  161.1600  208.7870  153.5030 N   0  0  0  0  0  0  0  0  0  0  0  0
  159.4120  212.3130  153.2680 C   0  0  2  0  0  3  0  0  0  0  0  0
  161.0340  210.7970  150.8830 N   0  0  0  0  0  2  0  0  0  0  0  0
  159.4840  210.6910  155.1320 C   0  0  0  0  0  2  0  0  0  0  0  0
  159.0410  212.8600  149.8070 C   0  0  0  0  0  2  0  0  0  0  0  0
  157.1560  212.2420  154.1160 N   0  0  0  0  0  0  0  0  0  0  0  0
  162.1130  213.3820  147.7330 N   0  0  0  0  0  0  0  0  0  0  0  0
  158.8820  212.8990  151.2950 C   0  0  0  0  0  0  0  0  0  0  0  0
  164.3530  212.3630  147.5780 C   0  0  0  0  0  1  0  0  0  0  0  0
  159.9310  212.7500  152.1170 N   0  0  0  0  0  0  0  0  0  0  0  0
  162.9990  212.4580  148.1860 C   0  0  0  0  0  0  0  0  0  0  0  0
  161.4580  207.7730  152.4980 C   0  0  0  0  0  2  0  0  0  0  0  0
  161.7900  208.4610  151.1860 C   0  0  2  0  0  3  0  0  0  0  0  0
  157.6920  212.6990  151.8990 N   0  0  0  0  0  2  0  0  0  0  0  0
  160.1350  211.5440  154.0910 C   0  0  1  0  0  3  0  0  0  0  0  0
  162.0090  209.9310  151.5440 C   0  0  2  0  0  3  0  0  0  0  0  0
  161.3720  211.6820  149.8010 C   0  0  0  0  0  0  0  0  0  0  0  0
  157.4280  212.0450  155.5150 C   0  0  0  0  0  3  0  0  0  0  0  0
  162.6450  211.6000  149.2250 C   0  0  0  0  0  3  0  0  0  0  0  0
  160.8700  213.5020  148.2740 C   0  0  0  0  0  3  0  0  0  0  0  0
  158.0330  212.3760  153.1620 C   0  0  0  0  0  0  0  0  0  0  0  0
  158.4990  211.4130  155.9910 C   0  0  0  0  0  3  0  0  0  0  0  0
  160.4630  212.6730  149.3230 C   0  0  0  0  0  0  0  0  0  0  0  0
  161.4790  211.2170  153.6940 N   0  0  0  0  0  2  0  0  0  0  0  0
  160.6950  208.2480  150.2470 N   0  0  0  0  0  2  0  0  0  0  0  0
  161.0070  207.0710  149.4570 C   0  0  2  0  0  3  0  0  0  0  0  0
  162.4780  207.1100  149.0850 C   0  0  0  0  0  2  0  0  0  0  0  0
  161.4290  207.4980  148.0610 C   0  0  1  0  0  3  0  0  0  0  0  0
  162.5080  206.0290  145.8570 O   0  0  0  0  0  0  0  0  0  0  0  0
  159.9260  206.3680  146.0800 O   0  0  0  0  0  1  0  0  0  0  0  0
  161.0160  204.6490  147.7270 O   0  0  0  0  0  1  0  0  0  0  0  0
  161.1740  206.1200  146.8990 P   0  0  0  0  0  0  0  0  0  0  0  0
  161.7340  208.3250  154.7670 C   0  0  0  0  0  2  0  0  0  0  0  0
  160.0190  206.8880  155.7080 N   0  0  0  0  0  1  0  0  0  0  0  0
  160.6680  208.1740  155.8580 C   0  0  1  0  0  3  0  0  0  0  0  0
  162.3810  209.1000  157.2580 O   0  0  0  0  0  1  0  0  0  0  0  0
  161.2520  208.2710  157.2610 C   0  0  0  0  0  2  0  0  0  0  0  0
  1  2  1  0  0  0  0
  1 25  1  6  0  0  0
  2 34  1  0  0  0  0
  3 11  1  6  0  0  0
  3 16  1  0  0  0  0
  5 23  1  0  0  0  0
  6  9  1  0  0  0  0
  7 19  1  0  0  0  0
  8 12  2  0  0  0  0
  8 21  1  0  0  0  0
  9 15  1  0  0  0  0
  9 11  2  0  0  0  0
 10 12  1  0  0  0  0
 12 20  1  0  0  0  0
 13  2  1  0  0  0  0
 14 26  1  6  0  0  0
 14 17  1  0  0  0  0
 14 13  1  0  0  0  0
 15 22  1  0  0  0  0
 16  5  1  6  0  0  0
 17  4  1  6  0  0  0
 17  1  1  0  0  0  0
 18  4  1  0  0  0  0
 19 23  2  0  0  0  0
 20 18  2  0  0  0  0
 21 24  2  0  0  0  0
 22  3  1  0  0  0  0
 22  7  2  0  0  0  0
 24 18  1  0  0  0  0
 24  6  1  0  0  0  0
 25 16  1  0  0  0  0
 27 26  1  1  0  0  0
 28 27  1  0  0  0  0
 29 33  1  6  0  0  0
 29 28  1  0  0  0  0
 29 27  1  0  0  0  0
 30 33  2  0  0  0  0
 31 33  1  0  0  0  0
 33 32  1  0  0  0  0
 34 36  1  0  0  0  0
 36 35  1  1  0  0  0
 36 38  1  0  0  0  0
 37 38  1  0  0  0  0
M  END
>  <MODEL>
3

>  <REMARK>
 VINA RESULT:      -3.4      3.448      8.166
  Name = 
  6 active torsions:
  status: ('A' for Active; 'I' for Inactive)
    1  A    between atoms: N_2  and  C_38
    2  A    between atoms: C_8  and  N_29
    3  A    between atoms: CA_13  and  C_17
    4  A    between atoms: CA_13  and  C_38
    5  A    between atoms: C_23  and  N_29
    6  A    between atoms: P_24  and  C_37
                            x       y       z     vdW  Elec       q    Type
                         _______ _______ _______ _____ _____    ______ ____

>  <TORSDO>
F 6

$$$$
=
 OpenBabel11052409413D

 38 43  0  0  1  0  0  0  0  0999 V2000
  159.8950  213.3310  153.7430 C   0  0  1  0  0  3  0  0  0  0  0  0
  159.4420  212.2520  154.6140 N   0  0  0  0  0  0  0  0  0  0  0  0
  156.8140  214.3690  152.5750 C   0  0  2  0  0  3  0  0  0  0  0  0
  159.3730  212.7670  151.3500 N   0  0  0  0  0  2  0  0  0  0  0  0
  156.9060  213.8380  154.9880 C   0  0  0  0  0  2  0  0  0  0  0  0
  157.1850  213.2370  149.2590 C   0  0  0  0  0  2  0  0  0  0  0  0
  154.5520  213.7810  153.1680 N   0  0  0  0  0  0  0  0  0  0  0  0
  160.3680  214.0050  147.4460 N   0  0  0  0  0  0  0  0  0  0  0  0
  156.6490  213.8240  150.5280 C   0  0  0  0  0  0  0  0  0  0  0  0
  162.7740  213.9780  147.9810 C   0  0  0  0  0  1  0  0  0  0  0  0
  157.4490  214.4530  151.4020 N   0  0  0  0  0  0  0  0  0  0  0  0
  161.3490  213.7790  148.3570 C   0  0  0  0  0  0  0  0  0  0  0  0
  160.2830  211.1180  154.2470 C   0  0  0  0  0  2  0  0  0  0  0  0
  160.7090  211.2680  152.7970 C   0  0  2  0  0  3  0  0  0  0  0  0
  155.4660  213.4460  151.0550 N   0  0  0  0  0  2  0  0  0  0  0  0
  157.5050  214.3620  153.7220 C   0  0  1  0  0  3  0  0  0  0  0  0
  160.3660  212.7100  152.4230 C   0  0  2  0  0  3  0  0  0  0  0  0
  159.6870  213.1770  150.0080 C   0  0  0  0  0  0  0  0  0  0  0  0
  154.5070  214.3070  154.5070 C   0  0  0  0  0  3  0  0  0  0  0  0
  161.0250  213.3670  149.6470 C   0  0  0  0  0  3  0  0  0  0  0  0
  159.0530  213.8430  147.7600 C   0  0  0  0  0  3  0  0  0  0  0  0
  155.5580  213.8380  152.3410 C   0  0  0  0  0  0  0  0  0  0  0  0
  155.5630  214.4030  155.3130 C   0  0  0  0  0  3  0  0  0  0  0  0
  158.6690  213.4380  149.0410 C   0  0  0  0  0  0  0  0  0  0  0  0
  158.9390  214.4520  153.6410 N   0  0  0  0  0  2  0  0  0  0  0  0
  160.0080  210.2760  151.9900 N   0  0  0  0  0  2  0  0  0  0  0  0
  160.8490  209.0960  151.9050 C   0  0  2  0  0  3  0  0  0  0  0  0
  162.2070  209.5030  151.3650 C   0  0  0  0  0  2  0  0  0  0  0  0
  161.2020  208.8300  150.4520 C   0  0  1  0  0  3  0  0  0  0  0  0
  160.2620  206.1290  150.4860 O   0  0  0  0  0  1  0  0  0  0  0  0
  162.6940  206.6910  151.2610 O   0  0  0  0  0  1  0  0  0  0  0  0
  162.2480  206.7870  148.6840 O   0  0  0  0  0  0  0  0  0  0  0  0
  161.6460  207.0780  150.2410 P   0  0  0  0  0  0  0  0  0  0  0  0
  159.7900  212.6210  155.9860 C   0  0  0  0  0  2  0  0  0  0  0  0
  158.0640  211.0000  156.5210 N   0  0  0  0  0  1  0  0  0  0  0  0
  159.3010  211.5800  157.0000 C   0  0  1  0  0  3  0  0  0  0  0  0
  159.7680  209.2320  156.8490 O   0  0  0  0  0  1  0  0  0  0  0  0
  160.3140  210.4660  157.2240 C   0  0  0  0  0  2  0  0  0  0  0  0
  1 25  1  6  0  0  0
  1  2  1  0  0  0  0
  2 34  1  0  0  0  0
  3 11  1  6  0  0  0
  3 16  1  0  0  0  0
  5 23  1  0  0  0  0
  6  9  1  0  0  0  0
  7 19  1  0  0  0  0
  8 21  2  0  0  0  0
  8 12  1  0  0  0  0
  9 15  1  0  0  0  0
  9 11  2  0  0  0  0
 10 12  1  0  0  0  0
 12 20  2  0  0  0  0
 13  2  1  0  0  0  0
 14 26  1  6  0  0  0
 14 13  1  0  0  0  0
 15 22  1  0  0  0  0
 16  5  1  6  0  0  0
 17  4  1  6  0  0  0
 17 14  1  0  0  0  0
 17  1  1  0  0  0  0
 18  4  1  0  0  0  0
 19 23  2  0  0  0  0
 20 18  1  0  0  0  0
 21 24  1  0  0  0  0
 22  3  1  0  0  0  0
 22  7  2  0  0  0  0
 24  6  1  0  0  0  0
 24 18  2  0  0  0  0
 25 16  1  0  0  0  0
 27 26  1  6  0  0  0
 28 27  1  0  0  0  0
 29 33  1  1  0  0  0
 29 28  1  0  0  0  0
 29 27  1  0  0  0  0
 32 33  2  0  0  0  0
 33 30  1  0  0  0  0
 33 31  1  0  0  0  0
 34 36  1  0  0  0  0
 36 35  1  6  0  0  0
 36 38  1  0  0  0  0
 37 38  1  0  0  0  0
M  END
>  <MODEL>
4

>  <REMARK>
 VINA RESULT:      -2.6      3.684      8.449
  Name = 
  6 active torsions:
  status: ('A' for Active; 'I' for Inactive)
    1  A    between atoms: N_2  and  C_38
    2  A    between atoms: C_8  and  N_29
    3  A    between atoms: CA_13  and  C_17
    4  A    between atoms: CA_13  and  C_38
    5  A    between atoms: C_23  and  N_29
    6  A    between atoms: P_24  and  C_37
                            x       y       z     vdW  Elec       q    Type
                         _______ _______ _______ _____ _____    ______ ____

>  <TORSDO>
F 6

$$$$
=
 OpenBabel11052409413D

 38 43  0  0  1  0  0  0  0  0999 V2000
  161.0300  213.2740  149.8150 C   0  0  1  0  0  3  0  0  0  0  0  0
  160.5840  212.2040  150.7000 N   0  0  0  0  0  0  0  0  0  0  0  0
  157.9730  214.1020  148.4350 C   0  0  2  0  0  3  0  0  0  0  0  0
  160.6800  212.5980  147.4200 N   0  0  0  0  0  2  0  0  0  0  0  0
  157.9510  213.6630  150.8680 C   0  0  0  0  0  2  0  0  0  0  0  0
  158.5970  212.8750  145.1920 C   0  0  0  0  0  2  0  0  0  0  0  0
  155.7140  213.4140  148.9200 N   0  0  0  0  0  0  0  0  0  0  0  0
  161.8370  213.7490  143.5340 N   0  0  0  0  0  0  0  0  0  0  0  0
  157.9580  213.4770  146.4040 C   0  0  0  0  0  0  0  0  0  0  0  0
  164.2060  213.8720  144.2050 C   0  0  0  0  0  1  0  0  0  0  0  0
  158.6710  214.1780  147.2980 N   0  0  0  0  0  0  0  0  0  0  0  0
  162.7730  213.6090  144.5070 C   0  0  0  0  0  0  0  0  0  0  0  0
  161.5020  211.1060  150.4250 C   0  0  0  0  0  2  0  0  0  0  0  0
  162.0040  211.2270  148.9980 C   0  0  2  0  0  3  0  0  0  0  0  0
  156.7660  213.0540  146.8770 N   0  0  0  0  0  2  0  0  0  0  0  0
  158.5950  214.1730  149.6190 C   0  0  1  0  0  3  0  0  0  0  0  0
  161.6100  212.6340  148.5490 C   0  0  2  0  0  3  0  0  0  0  0  0
  161.0500  212.9770  146.0830 C   0  0  0  0  0  0  0  0  0  0  0  0
  155.5630  213.9840  150.2330 C   0  0  0  0  0  3  0  0  0  0  0  0
  162.3960  213.2270  145.7920 C   0  0  0  0  0  3  0  0  0  0  0  0
  160.5160  213.5270  143.7790 C   0  0  0  0  0  3  0  0  0  0  0  0
  156.7620  213.4960  148.1510 C   0  0  0  0  0  0  0  0  0  0  0  0
  156.5630  214.1660  151.0940 C   0  0  0  0  0  3  0  0  0  0  0  0
  160.0790  213.1480  145.0510 C   0  0  0  0  0  0  0  0  0  0  0  0
  160.0250  214.3380  149.6160 N   0  0  0  0  0  2  0  0  0  0  0  0
  161.4050  210.1700  148.1910 N   0  0  0  0  0  2  0  0  0  0  0  0
  161.5990  208.9120  148.8890 C   0  0  2  0  0  3  0  0  0  0  0  0
  162.9040  208.2930  148.4230 C   0  0  0  0  0  2  0  0  0  0  0  0
  161.5860  207.7710  147.8860 C   0  0  1  0  0  3  0  0  0  0  0  0
  161.6110  204.9150  147.7500 O   0  0  0  0  0  0  0  0  0  0  0  0
  159.6620  206.1610  148.9650 O   0  0  0  0  0  1  0  0  0  0  0  0
  161.9570  206.0970  150.2220 O   0  0  0  0  0  1  0  0  0  0  0  0
  161.1550  206.2180  148.7330 P   0  0  0  0  0  0  0  0  0  0  0  0
  160.8300  212.6410  152.0750 C   0  0  0  0  0  2  0  0  0  0  0  0
  161.2060  211.0770  153.8940 N   0  0  0  0  0  1  0  0  0  0  0  0
  160.1730  211.7070  153.0970 C   0  0  1  0  0  3  0  0  0  0  0  0
  158.1810  211.5870  154.4290 O   0  0  0  0  0  1  0  0  0  0  0  0
  159.2140  212.4420  154.0250 C   0  0  0  0  0  2  0  0  0  0  0  0
  1 25  1  6  0  0  0
  1  2  1  0  0  0  0
  2 34  1  0  0  0  0
  3 11  1  6  0  0  0
  3 16  1  0  0  0  0
  5 23  1  0  0  0  0
  6  9  1  0  0  0  0
  7 19  1  0  0  0  0
  8 21  2  0  0  0  0
  8 12  1  0  0  0  0
  9 15  1  0  0  0  0
  9 11  2  0  0  0  0
 10 12  1  0  0  0  0
 12 20  2  0  0  0  0
 13  2  1  0  0  0  0
 14 26  1  6  0  0  0
 14 13  1  0  0  0  0
 15 22  1  0  0  0  0
 16  5  1  6  0  0  0
 17  4  1  6  0  0  0
 17 14  1  0  0  0  0
 17  1  1  0  0  0  0
 18  4  1  0  0  0  0
 19 23  2  0  0  0  0
 20 18  1  0  0  0  0
 21 24  1  0  0  0  0
 22  3  1  0  0  0  0
 22  7  2  0  0  0  0
 24  6  1  0  0  0  0
 24 18  2  0  0  0  0
 25 16  1  0  0  0  0
 27 26  1  6  0  0  0
 28 27  1  0  0  0  0
 29 28  1  0  0  0  0
 29 33  1  1  0  0  0
 29 27  1  0  0  0  0
 30 33  2  0  0  0  0
 33 31  1  0  0  0  0
 33 32  1  0  0  0  0
 34 36  1  0  0  0  0
 36 35  1  1  0  0  0
 36 38  1  0  0  0  0
 38 37  1  0  0  0  0
M  END
>  <MODEL>
5

>  <REMARK>
 VINA RESULT:      -2.6      3.830      8.798
  Name = 
  6 active torsions:
  status: ('A' for Active; 'I' for Inactive)
    1  A    between atoms: N_2  and  C_38
    2  A    between atoms: C_8  and  N_29
    3  A    between atoms: CA_13  and  C_17
    4  A    between atoms: CA_13  and  C_38
    5  A    between atoms: C_23  and  N_29
    6  A    between atoms: P_24  and  C_37
                            x       y       z     vdW  Elec       q    Type
                         _______ _______ _______ _____ _____    ______ ____

>  <TORSDO>
F 6

$$$$
