=
 OpenBabel11042423133D

 29 31  0  0  1  0  0  0  0  0999 V2000
  161.9800  208.1280  151.1530 N   0  0  0  0  0  0  0  0  0  0  0  0
  162.3090  207.9680  148.2940 C   0  0  0  0  0  2  0  0  0  0  0  0
  161.9840  205.7350  151.3670 O   0  0  0  0  0  0  0  0  0  0  0  0
  161.8350  209.2670  150.3290 N   0  0  0  0  0  0  0  0  0  0  0  0
  162.3910  206.8460  150.5770 C   0  0  1  0  0  3  0  0  0  0  0  0
  160.4870  204.8890  149.6700 C   0  0  2  0  0  3  0  0  0  0  0  0
  161.0190  205.9260  148.7280 C   0  0  0  0  0  3  0  0  0  0  0  0
  161.9650  209.2390  149.0280 C   0  0  0  0  0  0  0  0  0  0  0  0
  160.6350  205.4160  151.1010 C   0  0  0  0  0  2  0  0  0  0  0  0
  161.9570  206.7900  149.1330 C   0  0  0  0  0  0  0  0  0  0  0  0
  160.7050  207.4760  153.1390 C   0  0  0  0  0  2  0  0  0  0  0  0
  162.9500  210.4270  152.6500 O   0  0  0  0  0  1  0  0  0  0  0  0
  160.5480  207.7290  154.6350 C   0  0  0  0  0  2  0  0  0  0  0  0
  161.5470  209.8730  154.4970 C   0  0  0  0  0  2  0  0  0  0  0  0
  160.3320  209.1550  154.8770 N   0  0  0  0  0  0  0  0  0  0  0  0
  161.8900  208.2770  152.6030 C   0  0  2  0  0  3  0  0  0  0  0  0
  161.7760  209.7550  152.9920 C   0  0  2  0  0  3  0  0  0  0  0  0
  160.1780  209.3260  156.3130 C   0  0  0  0  0  2  0  0  0  0  0  0
  159.6980  210.7320  156.6310 C   0  0  0  0  0  2  0  0  0  0  0  0
  158.3630  210.9970  155.9620 C   0  0  0  0  0  2  0  0  0  0  0  0
  158.4660  212.1770  155.1240 N   0  0  0  0  0  2  0  0  0  0  0  0
  158.1260  211.7610  153.7750 C   0  0  0  0  0  1  0  0  0  0  0  0
  161.2470  203.5800  149.4790 C   0  0  0  0  0  2  0  0  0  0  0  0
  161.4290  203.2520  148.0030 C   0  0  0  0  0  2  0  0  0  0  0  0
  161.1890  200.8810  148.7430 C   0  0  0  0  0  1  0  0  0  0  0  0
  160.8590  201.8860  147.6560 C   0  0  0  0  0  2  0  0  0  0  0  0
  161.8120  210.4090  148.2780 O   0  0  0  0  0  0  0  0  0  0  0  0
  163.0530  212.4480  147.9180 C   0  0  0  0  0  1  0  0  0  0  0  0
  162.0730  211.7050  148.8070 C   0  0  0  0  0  2  0  0  0  0  0  0
  2  8  1  0  0  0  0
  2 10  1  0  0  0  0
  4  1  1  0  0  0  0
  5 10  1  6  0  0  0
  5  1  1  0  0  0  0
  5  3  1  0  0  0  0
  6 23  1  1  0  0  0
  6  9  1  0  0  0  0
  7 10  2  0  0  0  0
  7  6  1  0  0  0  0
  8  4  2  0  0  0  0
  9  3  1  0  0  0  0
 11 13  1  0  0  0  0
 13 15  1  0  0  0  0
 14 15  1  0  0  0  0
 15 18  1  0  0  0  0
 16  1  1  6  0  0  0
 16 17  1  0  0  0  0
 16 11  1  0  0  0  0
 17 12  1  1  0  0  0
 17 14  1  0  0  0  0
 18 19  1  0  0  0  0
 20 19  1  0  0  0  0
 21 20  1  0  0  0  0
 22 21  1  0  0  0  0
 24 23  1  0  0  0  0
 26 24  1  0  0  0  0
 26 25  1  0  0  0  0
 27 29  1  0  0  0  0
 27  8  1  0  0  0  0
 28 29  1  0  0  0  0
M  END
>  <MODEL>
1

>  <REMARK>
 VINA RESULT:      -6.8      0.000      0.000
  Name = 
  10 active torsions:
  status: ('A' for Active; 'I' for Inactive)
    1  A    between atoms: N_1  and  C_15
    2  A    between atoms: C_6  and  C_18
    3  A    between atoms: C_6  and  N_22
    4  A    between atoms: C_9  and  C_11
    5  A    between atoms: C_11  and  C_23
    6  A    between atoms: N_14  and  C_29
    7  A    between atoms: C_17  and  C_23
    8  A    between atoms: C_18  and  C_29
    9  A    between atoms: C_20  and  O_27
   10  A    between atoms: O_27  and  C_28
                            x       y       z     vdW  Elec       q    Type
                         _______ _______ _______ _____ _____    ______ ____

>  <TORSDO>
F 10

$$$$
=
 OpenBabel11042423133D

 29 31  0  0  1  0  0  0  0  0999 V2000
  161.5610  208.1210  151.1840 N   0  0  0  0  0  0  0  0  0  0  0  0
  161.3420  210.6730  152.5060 C   0  0  0  0  0  2  0  0  0  0  0  0
  162.8000  209.0810  149.3640 O   0  0  0  0  0  0  0  0  0  0  0  0
  160.7040  208.3060  152.2930 N   0  0  0  0  0  0  0  0  0  0  0  0
  162.4300  209.2090  150.7320 C   0  0  1  0  0  3  0  0  0  0  0  0
  161.6190  211.0830  148.7050 C   0  0  2  0  0  3  0  0  0  0  0  0
  161.3610  211.3690  150.1530 C   0  0  0  0  0  3  0  0  0  0  0  0
  160.5660  209.4480  152.9170 C   0  0  0  0  0  0  0  0  0  0  0  0
  161.7680  209.5670  148.5320 C   0  0  0  0  0  2  0  0  0  0  0  0
  161.8020  210.5310  151.0980 C   0  0  0  0  0  0  0  0  0  0  0  0
  160.6130  206.5550  149.5580 C   0  0  0  0  0  2  0  0  0  0  0  0
  162.7650  205.8410  152.5320 O   0  0  0  0  0  1  0  0  0  0  0  0
  160.6970  205.1220  149.0410 C   0  0  0  0  0  2  0  0  0  0  0  0
  161.6710  204.3280  151.0500 C   0  0  0  0  0  2  0  0  0  0  0  0
  160.5290  204.1840  150.1510 N   0  0  0  0  0  0  0  0  0  0  0  0
  161.7030  206.7890  150.6050 C   0  0  2  0  0  3  0  0  0  0  0  0
  161.6580  205.7120  151.6940 C   0  0  2  0  0  3  0  0  0  0  0  0
  160.6040  202.8430  149.5910 C   0  0  0  0  0  2  0  0  0  0  0  0
  161.1760  202.8890  148.1840 C   0  0  0  0  0  2  0  0  0  0  0  0
  160.8570  201.6040  147.4430 C   0  0  0  0  0  2  0  0  0  0  0  0
  160.8020  201.8680  146.0180 N   0  0  0  0  0  2  0  0  0  0  0  0
  161.3380  203.2030  145.8210 C   0  0  0  0  0  1  0  0  0  0  0  0
  162.8740  211.8190  148.2490 C   0  0  0  0  0  2  0  0  0  0  0  0
  162.5930  213.2970  148.0030 C   0  0  0  0  0  2  0  0  0  0  0  0
  162.4600  213.3120  145.5110 C   0  0  0  0  0  1  0  0  0  0  0  0
  161.6850  213.5040  146.8000 C   0  0  0  0  0  2  0  0  0  0  0  0
  159.7020  209.5540  154.0110 O   0  0  0  0  0  0  0  0  0  0  0  0
  159.9860  207.9740  155.8140 C   0  0  0  0  0  1  0  0  0  0  0  0
  160.1420  209.4130  155.3580 C   0  0  0  0  0  2  0  0  0  0  0  0
  1  4  1  0  0  0  0
  2  8  1  0  0  0  0
  4  8  2  0  0  0  0
  5  3  1  6  0  0  0
  5 10  1  0  0  0  0
  5  1  1  0  0  0  0
  6 23  1  1  0  0  0
  6  7  1  0  0  0  0
  7 10  2  0  0  0  0
  8 27  1  0  0  0  0
  9  6  1  0  0  0  0
  9  3  1  0  0  0  0
 10  2  1  0  0  0  0
 13 11  1  0  0  0  0
 13 15  1  0  0  0  0
 14 17  1  0  0  0  0
 15 14  1  0  0  0  0
 16 11  1  6  0  0  0
 16  1  1  0  0  0  0
 16 17  1  0  0  0  0
 17 12  1  1  0  0  0
 18 15  1  0  0  0  0
 19 18  1  0  0  0  0
 20 19  1  0  0  0  0
 21 20  1  0  0  0  0
 22 21  1  0  0  0  0
 24 23  1  0  0  0  0
 25 26  1  0  0  0  0
 26 24  1  0  0  0  0
 27 29  1  0  0  0  0
 29 28  1  0  0  0  0
M  END
>  <MODEL>
2

>  <REMARK>
 VINA RESULT:      -6.4      2.265      7.797
  Name = 
  10 active torsions:
  status: ('A' for Active; 'I' for Inactive)
    1  A    between atoms: N_1  and  C_15
    2  A    between atoms: C_6  and  C_18
    3  A    between atoms: C_6  and  N_22
    4  A    between atoms: C_9  and  C_11
    5  A    between atoms: C_11  and  C_23
    6  A    between atoms: N_14  and  C_29
    7  A    between atoms: C_17  and  C_23
    8  A    between atoms: C_18  and  C_29
    9  A    between atoms: C_20  and  O_27
   10  A    between atoms: O_27  and  C_28
                            x       y       z     vdW  Elec       q    Type
                         _______ _______ _______ _____ _____    ______ ____

>  <TORSDO>
F 10

$$$$
=
 OpenBabel11042423133D

 29 31  0  0  1  0  0  0  0  0999 V2000
  161.0600  209.8800  152.5370 N   0  0  0  0  0  0  0  0  0  0  0  0
  161.2740  208.7320  155.1720 C   0  0  0  0  0  2  0  0  0  0  0  0
  160.4460  207.7640  151.5790 O   0  0  0  0  0  0  0  0  0  0  0  0
  161.6310  210.5990  153.6110 N   0  0  0  0  0  0  0  0  0  0  0  0
  160.4790  208.5540  152.7620 C   0  0  1  0  0  3  0  0  0  0  0  0
  162.0040  206.1350  152.4490 C   0  0  2  0  0  3  0  0  0  0  0  0
  161.9300  206.8210  153.7790 C   0  0  0  0  0  3  0  0  0  0  0  0
  161.7580  210.1150  154.8190 C   0  0  0  0  0  0  0  0  0  0  0  0
  161.7060  207.1670  151.3570 C   0  0  0  0  0  2  0  0  0  0  0  0
  161.1630  207.9060  153.9390 C   0  0  0  0  0  0  0  0  0  0  0  0
  162.1980  210.4610  150.4480 C   0  0  0  0  0  2  0  0  0  0  0  0
  159.1700  212.0230  151.9900 O   0  0  0  0  0  1  0  0  0  0  0  0
  162.0520  211.2480  149.1490 C   0  0  0  0  0  2  0  0  0  0  0  0
  160.4110  212.6890  150.0670 C   0  0  0  0  0  2  0  0  0  0  0  0
  161.7340  212.6440  149.4470 N   0  0  0  0  0  0  0  0  0  0  0  0
  160.8950  210.5360  151.2440 C   0  0  2  0  0  3  0  0  0  0  0  0
  160.4440  211.9890  151.4230 C   0  0  2  0  0  3  0  0  0  0  0  0
  161.6230  213.3370  148.1740 C   0  0  0  0  0  2  0  0  0  0  0  0
  160.8950  212.4700  147.1600 C   0  0  0  0  0  2  0  0  0  0  0  0
  161.1110  213.0060  145.7580 C   0  0  0  0  0  2  0  0  0  0  0  0
  162.3800  213.7060  145.6970 N   0  0  0  0  0  2  0  0  0  0  0  0
  163.0330  213.2770  144.4730 C   0  0  0  0  0  1  0  0  0  0  0  0
  161.0080  204.9810  152.4080 C   0  0  0  0  0  2  0  0  0  0  0  0
  161.5580  203.7990  151.6180 C   0  0  0  0  0  2  0  0  0  0  0  0
  161.0310  204.1900  149.2110 C   0  0  0  0  0  1  0  0  0  0  0  0
  160.6460  203.4230  150.4610 C   0  0  0  0  0  2  0  0  0  0  0  0
  162.3300  210.8890  155.8340 O   0  0  0  0  0  0  0  0  0  0  0  0
  160.5380  212.2650  156.6840 C   0  0  0  0  0  1  0  0  0  0  0  0
  161.6240  211.2580  157.0140 C   0  0  0  0  0  2  0  0  0  0  0  0
  1  5  1  0  0  0  0
  1  4  1  0  0  0  0
  4  8  2  0  0  0  0
  5  3  1  6  0  0  0
  5 10  1  0  0  0  0
  6 23  1  1  0  0  0
  6  7  1  0  0  0  0
  7 10  2  0  0  0  0
  8  2  1  0  0  0  0
  8 27  1  0  0  0  0
  9  3  1  0  0  0  0
  9  6  1  0  0  0  0
 10  2  1  0  0  0  0
 13 15  1  0  0  0  0
 13 11  1  0  0  0  0
 14 17  1  0  0  0  0
 15 14  1  0  0  0  0
 16 11  1  1  0  0  0
 16 17  1  0  0  0  0
 16  1  1  0  0  0  0
 17 12  1  6  0  0  0
 18 15  1  0  0  0  0
 19 18  1  0  0  0  0
 20 19  1  0  0  0  0
 21 20  1  0  0  0  0
 22 21  1  0  0  0  0
 24 23  1  0  0  0  0
 25 26  1  0  0  0  0
 26 24  1  0  0  0  0
 27 29  1  0  0  0  0
 28 29  1  0  0  0  0
M  END
>  <MODEL>
3

>  <REMARK>
 VINA RESULT:      -6.1      2.475      6.229
  Name = 
  10 active torsions:
  status: ('A' for Active; 'I' for Inactive)
    1  A    between atoms: N_1  and  C_15
    2  A    between atoms: C_6  and  C_18
    3  A    between atoms: C_6  and  N_22
    4  A    between atoms: C_9  and  C_11
    5  A    between atoms: C_11  and  C_23
    6  A    between atoms: N_14  and  C_29
    7  A    between atoms: C_17  and  C_23
    8  A    between atoms: C_18  and  C_29
    9  A    between atoms: C_20  and  O_27
   10  A    between atoms: O_27  and  C_28
                            x       y       z     vdW  Elec       q    Type
                         _______ _______ _______ _____ _____    ______ ____

>  <TORSDO>
F 10

$$$$
=
 OpenBabel11042423133D

 29 31  0  0  1  0  0  0  0  0999 V2000
  161.6420  206.7040  149.7330 N   0  0  0  0  0  0  0  0  0  0  0  0
  161.3370  204.9110  147.4970 C   0  0  0  0  0  2  0  0  0  0  0  0
  162.0220  204.8770  151.2470 O   0  0  0  0  0  0  0  0  0  0  0  0
  161.1600  207.1580  148.4840 N   0  0  0  0  0  0  0  0  0  0  0  0
  162.0840  205.3170  149.8950 C   0  0  1  0  0  3  0  0  0  0  0  0
  160.3120  203.2330  150.7880 C   0  0  2  0  0  3  0  0  0  0  0  0
  160.4710  203.5230  149.3260 C   0  0  0  0  0  3  0  0  0  0  0  0
  160.9950  206.3790  147.4460 C   0  0  0  0  0  0  0  0  0  0  0  0
  160.7040  204.4890  151.5730 C   0  0  0  0  0  2  0  0  0  0  0  0
  161.3480  204.4440  148.9100 C   0  0  0  0  0  0  0  0  0  0  0  0
  160.9470  207.3480  151.9910 C   0  0  0  0  0  2  0  0  0  0  0  0
  162.6010  209.4240  149.3570 O   0  0  0  0  0  1  0  0  0  0  0  0
  161.0990  208.4240  153.0610 C   0  0  0  0  0  2  0  0  0  0  0  0
  161.7390  210.0710  151.4840 C   0  0  0  0  0  2  0  0  0  0  0  0
  160.7510  209.7310  152.5040 N   0  0  0  0  0  0  0  0  0  0  0  0
  161.8610  207.6670  150.8080 C   0  0  2  0  0  3  0  0  0  0  0  0
  161.6380  209.0990  150.3120 C   0  0  2  0  0  3  0  0  0  0  0  0
  160.9020  210.7050  153.5740 C   0  0  0  0  0  2  0  0  0  0  0  0
  161.1630  210.0020  154.8960 C   0  0  0  0  0  2  0  0  0  0  0  0
  162.2230  210.7460  155.6870 C   0  0  0  0  0  2  0  0  0  0  0  0
  162.7220  209.8920  156.7480 N   0  0  0  0  0  2  0  0  0  0  0  0
  161.9190  208.6830  156.7220 C   0  0  0  0  0  1  0  0  0  0  0  0
  161.1820  202.0420  151.1750 C   0  0  0  0  0  2  0  0  0  0  0  0
  160.9060  200.8380  150.2830 C   0  0  0  0  0  2  0  0  0  0  0  0
  161.1030  200.5850  147.8080 C   0  0  0  0  0  1  0  0  0  0  0  0
  161.8650  200.7800  149.1050 C   0  0  0  0  0  2  0  0  0  0  0  0
  160.5180  206.9010  146.2400 O   0  0  0  0  0  0  0  0  0  0  0  0
  161.3630  205.6950  144.3280 C   0  0  0  0  0  1  0  0  0  0  0  0
  160.1400  206.0810  145.1400 C   0  0  0  0  0  2  0  0  0  0  0  0
  1  5  1  0  0  0  0
  2 10  1  0  0  0  0
  3  9  1  0  0  0  0
  4  1  1  0  0  0  0
  5 10  1  6  0  0  0
  5  3  1  0  0  0  0
  6 23  1  1  0  0  0
  6  9  1  0  0  0  0
  7  6  1  0  0  0  0
  8  2  1  0  0  0  0
  8  4  2  0  0  0  0
 10  7  2  0  0  0  0
 11 13  1  0  0  0  0
 14 15  1  0  0  0  0
 15 13  1  0  0  0  0
 15 18  1  0  0  0  0
 16  1  1  6  0  0  0
 16 11  1  0  0  0  0
 17 12  1  6  0  0  0
 17 16  1  0  0  0  0
 17 14  1  0  0  0  0
 18 19  1  0  0  0  0
 19 20  1  0  0  0  0
 20 21  1  0  0  0  0
 22 21  1  0  0  0  0
 24 23  1  0  0  0  0
 25 26  1  0  0  0  0
 26 24  1  0  0  0  0
 27  8  1  0  0  0  0
 28 29  1  0  0  0  0
 29 27  1  0  0  0  0
M  END
>  <MODEL>
4

>  <REMARK>
 VINA RESULT:      -6.0      2.148      3.417
  Name = 
  10 active torsions:
  status: ('A' for Active; 'I' for Inactive)
    1  A    between atoms: N_1  and  C_15
    2  A    between atoms: C_6  and  C_18
    3  A    between atoms: C_6  and  N_22
    4  A    between atoms: C_9  and  C_11
    5  A    between atoms: C_11  and  C_23
    6  A    between atoms: N_14  and  C_29
    7  A    between atoms: C_17  and  C_23
    8  A    between atoms: C_18  and  C_29
    9  A    between atoms: C_20  and  O_27
   10  A    between atoms: O_27  and  C_28
                            x       y       z     vdW  Elec       q    Type
                         _______ _______ _______ _____ _____    ______ ____

>  <TORSDO>
F 10

$$$$
=
 OpenBabel11042423133D

 29 31  0  0  1  0  0  0  0  0999 V2000
  161.6350  207.0320  149.8170 N   0  0  0  0  0  0  0  0  0  0  0  0
  161.4290  205.0060  147.7770 C   0  0  0  0  0  2  0  0  0  0  0  0
  162.0310  205.3870  151.5220 O   0  0  0  0  0  0  0  0  0  0  0  0
  161.1690  207.3370  148.5180 N   0  0  0  0  0  0  0  0  0  0  0  0
  162.1110  205.6830  150.1330 C   0  0  1  0  0  3  0  0  0  0  0  0
  160.3770  203.6540  151.2070 C   0  0  2  0  0  3  0  0  0  0  0  0
  160.5610  203.7920  149.7260 C   0  0  0  0  0  3  0  0  0  0  0  0
  161.0490  206.4490  147.5650 C   0  0  0  0  0  0  0  0  0  0  0  0
  160.7170  204.9960  151.8620 C   0  0  0  0  0  2  0  0  0  0  0  0
  161.4220  204.6900  149.2320 C   0  0  0  0  0  0  0  0  0  0  0  0
  160.8510  207.9050  151.9660 C   0  0  0  0  0  2  0  0  0  0  0  0
  162.5740  209.7110  149.1820 O   0  0  0  0  0  1  0  0  0  0  0  0
  160.9510  209.0930  152.9180 C   0  0  0  0  0  2  0  0  0  0  0  0
  161.6290  210.5700  151.1940 C   0  0  0  0  0  2  0  0  0  0  0  0
  160.6080  210.3260  152.2110 N   0  0  0  0  0  0  0  0  0  0  0  0
  161.8040  208.1080  150.7880 C   0  0  2  0  0  3  0  0  0  0  0  0
  161.5810  209.4750  150.1320 C   0  0  2  0  0  3  0  0  0  0  0  0
  160.7080  211.4120  153.1740 C   0  0  0  0  0  2  0  0  0  0  0  0
  161.0550  210.8690  154.5500 C   0  0  0  0  0  2  0  0  0  0  0  0
  160.2670  211.6020  155.6190 C   0  0  0  0  0  2  0  0  0  0  0  0
  159.3130  210.6930  156.2250 N   0  0  0  0  0  2  0  0  0  0  0  0
  158.0060  211.0550  155.7050 C   0  0  0  0  0  1  0  0  0  0  0  0
  161.2710  202.5360  151.7350 C   0  0  0  0  0  2  0  0  0  0  0  0
  161.8520  201.7040  150.5980 C   0  0  0  0  0  2  0  0  0  0  0  0
  161.2530  200.6770  148.4050 C   0  0  0  0  0  1  0  0  0  0  0  0
  160.7630  201.0000  149.8030 C   0  0  0  0  0  2  0  0  0  0  0  0
  160.5850  206.8270  146.3020 O   0  0  0  0  0  0  0  0  0  0  0  0
  161.3110  205.5900  144.3610 C   0  0  0  0  0  1  0  0  0  0  0  0
  160.1710  205.8850  145.3180 C   0  0  0  0  0  2  0  0  0  0  0  0
  1  5  1  0  0  0  0
  2 10  1  0  0  0  0
  3  9  1  0  0  0  0
  4  1  1  0  0  0  0
  5 10  1  6  0  0  0
  5  3  1  0  0  0  0
  6 23  1  1  0  0  0
  6  9  1  0  0  0  0
  7  6  1  0  0  0  0
  8  2  1  0  0  0  0
  8  4  2  0  0  0  0
 10  7  2  0  0  0  0
 11 13  1  0  0  0  0
 14 15  1  0  0  0  0
 15 13  1  0  0  0  0
 15 18  1  0  0  0  0
 16  1  1  6  0  0  0
 16 11  1  0  0  0  0
 17 12  1  6  0  0  0
 17 16  1  0  0  0  0
 17 14  1  0  0  0  0
 18 19  1  0  0  0  0
 19 20  1  0  0  0  0
 20 21  1  0  0  0  0
 22 21  1  0  0  0  0
 24 23  1  0  0  0  0
 25 26  1  0  0  0  0
 26 24  1  0  0  0  0
 27  8  1  0  0  0  0
 28 29  1  0  0  0  0
 29 27  1  0  0  0  0
M  END
>  <MODEL>
5

>  <REMARK>
 VINA RESULT:      -5.8      1.972      3.128
  Name = 
  10 active torsions:
  status: ('A' for Active; 'I' for Inactive)
    1  A    between atoms: N_1  and  C_15
    2  A    between atoms: C_6  and  C_18
    3  A    between atoms: C_6  and  N_22
    4  A    between atoms: C_9  and  C_11
    5  A    between atoms: C_11  and  C_23
    6  A    between atoms: N_14  and  C_29
    7  A    between atoms: C_17  and  C_23
    8  A    between atoms: C_18  and  C_29
    9  A    between atoms: C_20  and  O_27
   10  A    between atoms: O_27  and  C_28
                            x       y       z     vdW  Elec       q    Type
                         _______ _______ _______ _____ _____    ______ ____

>  <TORSDO>
F 10

$$$$
=
 OpenBabel11042423133D

 29 31  0  0  1  0  0  0  0  0999 V2000
  161.3780  208.1160  151.0560 N   0  0  0  0  0  0  0  0  0  0  0  0
  162.7310  207.8980  148.5200 C   0  0  0  0  0  2  0  0  0  0  0  0
  161.3410  205.7300  151.3310 O   0  0  0  0  0  0  0  0  0  0  0  0
  161.5260  209.2320  150.2000 N   0  0  0  0  0  0  0  0  0  0  0  0
  161.9910  206.8320  150.7090 C   0  0  1  0  0  3  0  0  0  0  0  0
  160.5810  204.8050  149.2330 C   0  0  2  0  0  3  0  0  0  0  0  0
  161.4040  205.8340  148.5180 C   0  0  0  0  0  3  0  0  0  0  0  0
  162.1220  209.1770  149.0370 C   0  0  0  0  0  0  0  0  0  0  0  0
  160.1870  205.3700  150.6020 C   0  0  0  0  0  2  0  0  0  0  0  0
  162.1150  206.7310  149.2090 C   0  0  0  0  0  0  0  0  0  0  0  0
  160.2270  209.7220  152.5020 C   0  0  0  0  0  2  0  0  0  0  0  0
  162.0960  206.6250  153.4480 O   0  0  0  0  0  1  0  0  0  0  0  0
  159.6900  209.9380  153.9130 C   0  0  0  0  0  2  0  0  0  0  0  0
  161.1360  208.3050  154.8400 C   0  0  0  0  0  2  0  0  0  0  0  0
  160.7570  209.7160  154.8890 N   0  0  0  0  0  0  0  0  0  0  0  0
  160.7630  208.2970  152.3670 C   0  0  2  0  0  3  0  0  0  0  0  0
  161.7600  207.9780  153.4860 C   0  0  2  0  0  3  0  0  0  0  0  0
  160.1860  209.9500  156.2060 C   0  0  0  0  0  2  0  0  0  0  0  0
  161.2800  209.9740  157.2610 C   0  0  0  0  0  2  0  0  0  0  0  0
  162.3060  211.0410  156.9310 C   0  0  0  0  0  2  0  0  0  0  0  0
  163.6340  210.5490  157.2460 N   0  0  0  0  0  2  0  0  0  0  0  0
  164.5130  211.7040  157.2610 C   0  0  0  0  0  1  0  0  0  0  0  0
  161.3780  203.5130  149.3740 C   0  0  0  0  0  2  0  0  0  0  0  0
  160.6060  202.4660  150.1660 C   0  0  0  0  0  2  0  0  0  0  0  0
  161.2690  201.0220  148.2430 C   0  0  0  0  0  1  0  0  0  0  0  0
  160.9590  201.0540  149.7270 C   0  0  0  0  0  2  0  0  0  0  0  0
  162.2350  210.3240  148.2470 O   0  0  0  0  0  0  0  0  0  0  0  0
  163.1600  212.5470  148.0770 C   0  0  0  0  0  1  0  0  0  0  0  0
  162.1690  211.6410  148.7840 C   0  0  0  0  0  2  0  0  0  0  0  0
  2  8  1  0  0  0  0
  2 10  1  0  0  0  0
  4  1  1  0  0  0  0
  5 10  1  6  0  0  0
  5  1  1  0  0  0  0
  5  3  1  0  0  0  0
  6 23  1  1  0  0  0
  6  9  1  0  0  0  0
  7 10  2  0  0  0  0
  7  6  1  0  0  0  0
  8  4  2  0  0  0  0
  9  3  1  0  0  0  0
 11 13  1  0  0  0  0
 13 15  1  0  0  0  0
 14 15  1  0  0  0  0
 15 18  1  0  0  0  0
 16  1  1  6  0  0  0
 16 11  1  0  0  0  0
 16 17  1  0  0  0  0
 17 12  1  1  0  0  0
 17 14  1  0  0  0  0
 18 19  1  0  0  0  0
 20 21  1  0  0  0  0
 20 19  1  0  0  0  0
 21 22  1  0  0  0  0
 23 24  1  0  0  0  0
 25 26  1  0  0  0  0
 26 24  1  0  0  0  0
 27 29  1  0  0  0  0
 27  8  1  0  0  0  0
 28 29  1  0  0  0  0
M  END
>  <MODEL>
6

>  <REMARK>
 VINA RESULT:      -5.8      1.543      2.323
  Name = 
  10 active torsions:
  status: ('A' for Active; 'I' for Inactive)
    1  A    between atoms: N_1  and  C_15
    2  A    between atoms: C_6  and  C_18
    3  A    between atoms: C_6  and  N_22
    4  A    between atoms: C_9  and  C_11
    5  A    between atoms: C_11  and  C_23
    6  A    between atoms: N_14  and  C_29
    7  A    between atoms: C_17  and  C_23
    8  A    between atoms: C_18  and  C_29
    9  A    between atoms: C_20  and  O_27
   10  A    between atoms: O_27  and  C_28
                            x       y       z     vdW  Elec       q    Type
                         _______ _______ _______ _____ _____    ______ ____

>  <TORSDO>
F 10

$$$$
=
 OpenBabel11042423133D

 29 31  0  0  1  0  0  0  0  0999 V2000
  161.3600  206.7040  150.7850 N   0  0  0  0  0  0  0  0  0  0  0  0
  161.7850  206.0440  153.5580 C   0  0  0  0  0  2  0  0  0  0  0  0
  161.7310  209.0410  151.2020 O   0  0  0  0  0  0  0  0  0  0  0  0
  161.0610  205.4190  151.2920 N   0  0  0  0  0  0  0  0  0  0  0  0
  161.9810  207.7130  151.6470 C   0  0  1  0  0  3  0  0  0  0  0  0
  160.4300  209.6080  153.1570 C   0  0  2  0  0  3  0  0  0  0  0  0
  160.8190  208.2910  153.7580 C   0  0  0  0  0  3  0  0  0  0  0  0
  161.2280  205.0790  152.5440 C   0  0  0  0  0  0  0  0  0  0  0  0
  160.4560  209.4670  151.6320 C   0  0  0  0  0  2  0  0  0  0  0  0
  161.5990  207.4420  153.0810 C   0  0  0  0  0  0  0  0  0  0  0  0
  160.1130  206.0710  148.7760 C   0  0  0  0  0  2  0  0  0  0  0  0
  163.4700  207.6950  149.0440 O   0  0  0  0  0  1  0  0  0  0  0  0
  160.0410  206.2630  147.2640 C   0  0  0  0  0  2  0  0  0  0  0  0
  162.3210  206.8920  147.1170 C   0  0  0  0  0  2  0  0  0  0  0  0
  161.3280  205.9220  146.6590 N   0  0  0  0  0  0  0  0  0  0  0  0
  161.2100  206.9630  149.3560 C   0  0  2  0  0  3  0  0  0  0  0  0
  162.5370  206.7490  148.6210 C   0  0  2  0  0  3  0  0  0  0  0  0
  161.1880  206.1120  145.2230 C   0  0  0  0  0  2  0  0  0  0  0  0
  160.7860  204.8090  144.5540 C   0  0  0  0  0  2  0  0  0  0  0  0
  161.4170  203.6310  145.2720 C   0  0  0  0  0  2  0  0  0  0  0  0
  160.5440  202.4770  145.1690 N   0  0  0  0  0  2  0  0  0  0  0  0
  160.7750  201.6740  146.3570 C   0  0  0  0  0  1  0  0  0  0  0  0
  161.3900  210.6950  153.6300 C   0  0  0  0  0  2  0  0  0  0  0  0
  161.2340  210.9630  155.1220 C   0  0  0  0  0  2  0  0  0  0  0  0
  162.3290  209.5210  156.8390 C   0  0  0  0  0  1  0  0  0  0  0  0
  162.5210  210.6810  155.8820 C   0  0  0  0  0  2  0  0  0  0  0  0
  160.9140  203.7850  152.9710 O   0  0  0  0  0  0  0  0  0  0  0  0
  161.2130  202.1570  151.2150 C   0  0  0  0  0  1  0  0  0  0  0  0
  160.2330  202.8440  152.1480 C   0  0  0  0  0  2  0  0  0  0  0  0
  1  4  1  0  0  0  0
  1  5  1  0  0  0  0
  3  9  1  0  0  0  0
  4  8  2  0  0  0  0
  5  3  1  6  0  0  0
  5 10  1  0  0  0  0
  6 23  1  6  0  0  0
  6  7  1  0  0  0  0
  8 27  1  0  0  0  0
  8  2  1  0  0  0  0
  9  6  1  0  0  0  0
 10  2  1  0  0  0  0
 10  7  2  0  0  0  0
 13 11  1  0  0  0  0
 14 17  1  0  0  0  0
 15 14  1  0  0  0  0
 15 13  1  0  0  0  0
 16 11  1  6  0  0  0
 16  1  1  0  0  0  0
 17 12  1  1  0  0  0
 17 16  1  0  0  0  0
 18 15  1  0  0  0  0
 19 18  1  0  0  0  0
 19 20  1  0  0  0  0
 21 20  1  0  0  0  0
 21 22  1  0  0  0  0
 23 24  1  0  0  0  0
 24 26  1  0  0  0  0
 26 25  1  0  0  0  0
 28 29  1  0  0  0  0
 29 27  1  0  0  0  0
M  END
>  <MODEL>
7

>  <REMARK>
 VINA RESULT:      -5.5      2.807      8.465
  Name = 
  10 active torsions:
  status: ('A' for Active; 'I' for Inactive)
    1  A    between atoms: N_1  and  C_15
    2  A    between atoms: C_6  and  C_18
    3  A    between atoms: C_6  and  N_22
    4  A    between atoms: C_9  and  C_11
    5  A    between atoms: C_11  and  C_23
    6  A    between atoms: N_14  and  C_29
    7  A    between atoms: C_17  and  C_23
    8  A    between atoms: C_18  and  C_29
    9  A    between atoms: C_20  and  O_27
   10  A    between atoms: O_27  and  C_28
                            x       y       z     vdW  Elec       q    Type
                         _______ _______ _______ _____ _____    ______ ____

>  <TORSDO>
F 10

$$$$
=
 OpenBabel11042423133D

 29 31  0  0  1  0  0  0  0  0999 V2000
  161.6800  205.5180  148.4020 N   0  0  0  0  0  0  0  0  0  0  0  0
  161.6820  204.6790  151.1590 C   0  0  0  0  0  2  0  0  0  0  0  0
  162.5270  207.6900  148.9790 O   0  0  0  0  0  0  0  0  0  0  0  0
  161.0520  204.3180  148.8080 N   0  0  0  0  0  0  0  0  0  0  0  0
  162.4280  206.3250  149.3680 C   0  0  1  0  0  3  0  0  0  0  0  0
  161.2080  208.4710  150.8470 C   0  0  2  0  0  3  0  0  0  0  0  0
  161.2320  207.0790  151.4040 C   0  0  0  0  0  3  0  0  0  0  0  0
  161.0190  203.9040  150.0490 C   0  0  0  0  0  0  0  0  0  0  0  0
  161.3450  208.3820  149.3240 C   0  0  0  0  0  2  0  0  0  0  0  0
  161.8610  206.0980  150.7470 C   0  0  0  0  0  0  0  0  0  0  0  0
  160.3120  206.0740  146.4480 C   0  0  0  0  0  2  0  0  0  0  0  0
  163.7910  204.7070  146.5710 O   0  0  0  0  0  1  0  0  0  0  0  0
  160.3610  206.3110  144.9420 C   0  0  0  0  0  2  0  0  0  0  0  0
  162.3660  205.0730  144.6940 C   0  0  0  0  0  2  0  0  0  0  0  0
  160.9680  205.1570  144.2780 N   0  0  0  0  0  0  0  0  0  0  0  0
  161.7270  205.8540  146.9820 C   0  0  2  0  0  3  0  0  0  0  0  0
  162.4510  204.7630  146.1860 C   0  0  2  0  0  3  0  0  0  0  0  0
  160.9720  205.4400  142.8510 C   0  0  0  0  0  2  0  0  0  0  0  0
  162.2920  206.0720  142.4410 C   0  0  0  0  0  2  0  0  0  0  0  0
  162.0950  206.9620  141.2290 C   0  0  0  0  0  2  0  0  0  0  0  0
  162.4470  206.2290  140.0280 N   0  0  0  0  0  2  0  0  0  0  0  0
  161.9680  207.0160  138.9050 C   0  0  0  0  0  1  0  0  0  0  0  0
  162.3390  209.2900  151.4590 C   0  0  0  0  0  2  0  0  0  0  0  0
  161.8420  210.1460  152.6180 C   0  0  0  0  0  2  0  0  0  0  0  0
  159.8340  210.8670  153.9120 C   0  0  0  0  0  1  0  0  0  0  0  0
  160.3290  210.2960  152.5970 C   0  0  0  0  0  2  0  0  0  0  0  0
  160.3830  202.7030  150.3750 O   0  0  0  0  0  0  0  0  0  0  0  0
  161.2480  200.9460  148.9650 C   0  0  0  0  0  1  0  0  0  0  0  0
  160.0240  201.7300  149.4000 C   0  0  0  0  0  2  0  0  0  0  0  0
  1  4  1  0  0  0  0
  1  5  1  0  0  0  0
  3  9  1  0  0  0  0
  4  8  2  0  0  0  0
  5  3  1  6  0  0  0
  5 10  1  0  0  0  0
  6  7  1  0  0  0  0
  6 23  1  1  0  0  0
  8 27  1  0  0  0  0
  8  2  1  0  0  0  0
  9  6  1  0  0  0  0
 10  2  1  0  0  0  0
 10  7  2  0  0  0  0
 13 11  1  0  0  0  0
 14 17  1  0  0  0  0
 15 14  1  0  0  0  0
 15 13  1  0  0  0  0
 16 11  1  6  0  0  0
 16  1  1  0  0  0  0
 17 12  1  1  0  0  0
 17 16  1  0  0  0  0
 18 15  1  0  0  0  0
 19 18  1  0  0  0  0
 20 19  1  0  0  0  0
 21 20  1  0  0  0  0
 22 21  1  0  0  0  0
 23 24  1  0  0  0  0
 26 24  1  0  0  0  0
 26 25  1  0  0  0  0
 28 29  1  0  0  0  0
 29 27  1  0  0  0  0
M  END
>  <MODEL>
8

>  <REMARK>
 VINA RESULT:      -5.5      4.280      9.398
  Name = 
  10 active torsions:
  status: ('A' for Active; 'I' for Inactive)
    1  A    between atoms: N_1  and  C_15
    2  A    between atoms: C_6  and  C_18
    3  A    between atoms: C_6  and  N_22
    4  A    between atoms: C_9  and  C_11
    5  A    between atoms: C_11  and  C_23
    6  A    between atoms: N_14  and  C_29
    7  A    between atoms: C_17  and  C_23
    8  A    between atoms: C_18  and  C_29
    9  A    between atoms: C_20  and  O_27
   10  A    between atoms: O_27  and  C_28
                            x       y       z     vdW  Elec       q    Type
                         _______ _______ _______ _____ _____    ______ ____

>  <TORSDO>
F 10

$$$$
=
 OpenBabel11042423133D

 29 31  0  0  1  0  0  0  0  0999 V2000
  161.0780  209.5790  151.6900 N   0  0  0  0  0  0  0  0  0  0  0  0
  160.1370  212.2780  152.0580 C   0  0  0  0  0  2  0  0  0  0  0  0
  162.7140  210.2850  150.0780 O   0  0  0  0  0  0  0  0  0  0  0  0
  159.8940  209.8550  152.4090 N   0  0  0  0  0  0  0  0  0  0  0  0
  161.9090  210.6740  151.1850 C   0  0  1  0  0  3  0  0  0  0  0  0
  161.5760  211.7630  148.5430 C   0  0  2  0  0  3  0  0  0  0  0  0
  160.8310  212.3450  149.7050 C   0  0  0  0  0  3  0  0  0  0  0  0
  159.4230  211.0620  152.5920 C   0  0  0  0  0  0  0  0  0  0  0  0
  161.9560  210.3190  148.8880 C   0  0  0  0  0  2  0  0  0  0  0  0
  161.0410  211.8840  150.9430 C   0  0  0  0  0  0  0  0  0  0  0  0
  161.1510  207.5860  150.2680 C   0  0  0  0  0  2  0  0  0  0  0  0
  161.5690  207.8470  153.9750 O   0  0  0  0  0  1  0  0  0  0  0  0
  161.5570  206.1160  150.2350 C   0  0  0  0  0  2  0  0  0  0  0  0
  161.4400  205.9090  152.5930 C   0  0  0  0  0  2  0  0  0  0  0  0
  160.9080  205.3970  151.3320 N   0  0  0  0  0  0  0  0  0  0  0  0
  161.5600  208.2030  151.6050 C   0  0  2  0  0  3  0  0  0  0  0  0
  161.0350  207.3690  152.7780 C   0  0  2  0  0  3  0  0  0  0  0  0
  161.3230  204.0070  151.2350 C   0  0  0  0  0  2  0  0  0  0  0  0
  160.8300  203.3970  149.9330 C   0  0  0  0  0  2  0  0  0  0  0  0
  160.4770  201.9360  150.1370 C   0  0  0  0  0  2  0  0  0  0  0  0
  161.2060  201.1250  149.1800 N   0  0  0  0  0  2  0  0  0  0  0  0
  160.8310  201.6010  147.8600 C   0  0  0  0  0  1  0  0  0  0  0  0
  162.8120  212.6060  148.2480 C   0  0  0  0  0  2  0  0  0  0  0  0
  162.4420  213.9120  147.5550 C   0  0  0  0  0  2  0  0  0  0  0  0
  162.6900  213.3300  145.1420 C   0  0  0  0  0  1  0  0  0  0  0  0
  161.7080  213.6670  146.2470 C   0  0  0  0  0  2  0  0  0  0  0  0
  158.2460  211.2580  153.3200 O   0  0  0  0  0  0  0  0  0  0  0  0
  158.1860  212.4380  155.4240 C   0  0  0  0  0  1  0  0  0  0  0  0
  158.1740  211.0880  154.7320 C   0  0  0  0  0  2  0  0  0  0  0  0
  1  4  1  0  0  0  0
  2  8  1  0  0  0  0
  4  8  2  0  0  0  0
  5  3  1  6  0  0  0
  5  1  1  0  0  0  0
  6 23  1  1  0  0  0
  6  9  1  0  0  0  0
  6  7  1  0  0  0  0
  7 10  2  0  0  0  0
  8 27  1  0  0  0  0
  9  3  1  0  0  0  0
 10  5  1  0  0  0  0
 10  2  1  0  0  0  0
 13 11  1  0  0  0  0
 13 15  1  0  0  0  0
 14 17  1  0  0  0  0
 15 14  1  0  0  0  0
 16 11  1  6  0  0  0
 16  1  1  0  0  0  0
 16 17  1  0  0  0  0
 17 12  1  1  0  0  0
 18 15  1  0  0  0  0
 19 20  1  0  0  0  0
 19 18  1  0  0  0  0
 21 20  1  0  0  0  0
 22 21  1  0  0  0  0
 24 23  1  0  0  0  0
 25 26  1  0  0  0  0
 26 24  1  0  0  0  0
 27 29  1  0  0  0  0
 29 28  1  0  0  0  0
M  END
>  <MODEL>
9

>  <REMARK>
 VINA RESULT:      -5.5      2.420      7.487
  Name = 
  10 active torsions:
  status: ('A' for Active; 'I' for Inactive)
    1  A    between atoms: N_1  and  C_15
    2  A    between atoms: C_6  and  C_18
    3  A    between atoms: C_6  and  N_22
    4  A    between atoms: C_9  and  C_11
    5  A    between atoms: C_11  and  C_23
    6  A    between atoms: N_14  and  C_29
    7  A    between atoms: C_17  and  C_23
    8  A    between atoms: C_18  and  C_29
    9  A    between atoms: C_20  and  O_27
   10  A    between atoms: O_27  and  C_28
                            x       y       z     vdW  Elec       q    Type
                         _______ _______ _______ _____ _____    ______ ____

>  <TORSDO>
F 10

$$$$
