=
 OpenBabel11052409543D

 56 64  0  0  1  0  0  0  0  0999 V2000
  162.3170  208.7290  152.7060 C   0  0  1  0  0  3  0  0  0  0  0  0
  161.3210  213.1210  149.1420 C   0  0  2  0  0  3  0  0  0  0  0  0
  161.7250  207.8650  148.8650 C   0  0  1  0  0  3  0  0  0  0  0  0
  161.0720  209.9960  148.2160 C   0  0  2  0  0  3  0  0  0  0  0  0
  162.0030  208.9550  147.9900 O   0  0  0  0  0  0  0  0  0  0  0  0
  159.4980  211.9830  147.0230 S   0  0  0  0  0  0  0  0  0  0  0  0
  160.9520  210.8720  146.9650 C   0  0  0  0  0  2  0  0  0  0  0  0
  162.1960  207.2780  151.5840 S   0  0  0  0  0  0  0  0  0  0  0  0
  161.3410  210.7040  149.5880 C   0  0  1  0  0  3  0  0  0  0  0  0
  162.0020  209.7030  150.5320 C   0  0  2  0  0  3  0  0  0  0  0  0
  161.4430  208.3230  150.3120 C   0  0  1  0  0  3  0  0  0  0  0  0
  160.4340  213.5850  146.9290 C   0  0  1  0  0  3  0  0  0  0  0  0
  161.7330  213.4540  147.7230 C   0  0  1  0  0  3  0  0  0  0  0  0
  161.9940  214.4390  148.8430 C   0  0  0  0  0  2  0  0  0  0  0  0
  161.8150  209.9830  151.9990 C   0  0  0  0  0  2  0  0  0  0  0  0
  162.2100  211.9640  149.5250 C   0  0  0  0  0  2  0  0  0  0  0  0
  159.4020  205.6730  149.8740 O   0  0  0  0  0  0  0  0  0  0  0  0
  161.6570  205.3010  146.6820 N   0  0  0  0  0  0  0  0  0  0  0  0
  161.4070  204.6660  149.1630 C   0  0  0  0  0  2  0  0  0  0  0  0
  161.9120  204.3890  147.7760 C   0  0  0  0  0  0  0  0  0  0  0  0
  160.4920  207.2740  145.8960 C   0  0  0  0  0  2  0  0  0  0  0  0
  160.5970  206.9720  148.3090 C   0  0  2  0  0  3  0  0  0  0  0  0
  162.6750  203.3150  147.6060 C   0  0  0  0  0  2  0  0  0  0  0  0
  160.3890  205.7580  149.1620 C   0  0  0  0  0  0  0  0  0  0  0  0
  160.9050  206.5170  146.9110 C   0  0  0  0  0  0  0  0  0  0  0  0
  162.0840  204.9500  145.3250 C   0  0  0  0  0  2  0  0  0  0  0  0
  160.8720  204.6470  144.4600 C   0  0  0  0  0  1  0  0  0  0  0  0
  160.7590  213.9490  145.4640 C   0  0  1  0  0  3  0  0  0  0  0  0
  161.2270  213.1740  143.1950 C   0  0  2  0  0  3  0  0  0  0  0  0
  161.5910  212.9150  144.6670 C   0  0  2  0  0  3  0  0  0  0  0  0
  159.8940  213.8070  143.3070 C   0  0  0  0  0  0  0  0  0  0  0  0
  161.2180  211.6130  145.0300 O   0  0  0  0  0  1  0  0  0  0  0  0
  159.5930  214.2240  144.6270 N   0  0  0  0  0  0  0  0  0  0  0  0
  159.1080  213.9650  142.3360 O   0  0  0  0  0  0  0  0  0  0  0  0
  157.4240  213.1700  144.9920 C   0  0  0  0  0  1  0  0  0  0  0  0
  158.2270  214.4530  145.0930 C   0  0  0  0  0  2  0  0  0  0  0  0
  161.1550  211.9840  142.4630 O   0  0  0  0  0  0  0  0  0  0  0  0
  163.0180  213.2990  141.1860 O   0  0  0  0  0  1  0  0  0  0  0  0
  160.7590  213.0120  139.9110 O   0  0  0  0  0  0  0  0  0  0  0  0
  162.4980  210.8970  140.2960 O   0  0  0  0  0  1  0  0  0  0  0  0
  161.8850  212.3240  140.9700 P   0  0  0  0  0  0  0  0  0  0  0  0
  161.6000  208.4920  154.0320 C   0  0  0  0  0  2  0  0  0  0  0  0
  160.1540  208.9650  154.0000 C   0  0  0  0  0  2  0  0  0  0  0  0
  159.9830  210.0270  154.9280 O   0  0  0  0  0  0  0  0  0  0  0  0
  156.9510  211.8810  153.6440 N   0  0  1  0  0  0  0  0  0  0  0  0
  159.6000  213.6550  154.5390 C   0  0  0  0  0  1  0  0  0  0  0  0
  158.8270  210.8090  154.9620 C   0  0  0  0  0  0  0  0  0  0  0  0
  156.1790  211.6650  154.8810 C   0  0  0  0  0  2  0  0  0  0  0  0
  157.4370  213.2630  153.6000 C   0  0  2  0  0  3  0  0  0  0  0  0
  158.1860  210.9910  156.0770 N   0  0  0  0  0  0  0  0  0  0  0  0
  158.3520  211.4480  153.6710 C   0  0  2  0  0  3  0  0  0  0  0  0
  158.1810  213.6020  152.3060 C   0  0  0  0  0  0  0  0  0  0  0  0
  157.0120  211.8430  156.1470 C   0  0  2  0  0  3  0  0  0  0  0  0
  158.8210  212.8760  153.4900 C   0  0  2  0  0  0  0  0  0  0  0  0
  156.2620  211.5100  157.2590 F   0  0  0  0  0  0  0  0  0  0  0  0
  158.2240  214.0720  151.1800 O   0  0  0  0  0  0  0  0  0  0  0  0
  1 42  1  1  0  0  0
  2 14  1  1  0  0  0
  2 16  1  0  0  0  0
  3  5  1  6  0  0  0
  3 11  1  0  0  0  0
  4  7  1  6  0  0  0
  4  9  1  0  0  0  0
  5  4  1  0  0  0  0
  7  6  1  0  0  0  0
  8  1  1  0  0  0  0
  9 16  1  6  0  0  0
  9 10  1  0  0  0  0
 10 15  1  1  0  0  0
 11 10  1  0  0  0  0
 11  8  1  1  0  0  0
 12  6  1  6  0  0  0
 12 13  1  0  0  0  0
 13 14  1  1  0  0  0
 13  2  1  0  0  0  0
 15  1  1  0  0  0  0
 18 25  1  0  0  0  0
 18 20  1  0  0  0  0
 20 19  1  0  0  0  0
 21 25  2  0  0  0  0
 22 25  1  6  0  0  0
 22  3  1  0  0  0  0
 22 24  1  0  0  0  0
 23 20  2  0  0  0  0
 24 19  1  0  0  0  0
 24 17  2  0  0  0  0
 26 18  1  0  0  0  0
 27 26  1  0  0  0  0
 28 33  1  6  0  0  0
 28 12  1  0  0  0  0
 29 37  1  6  0  0  0
 29 31  1  0  0  0  0
 29 30  1  0  0  0  0
 30 32  1  1  0  0  0
 30 28  1  0  0  0  0
 31 33  1  0  0  0  0
 33 36  1  0  0  0  0
 34 31  2  0  0  0  0
 35 36  1  0  0  0  0
 39 41  2  0  0  0  0
 40 41  1  0  0  0  0
 41 38  1  0  0  0  0
 41 37  1  0  0  0  0
 43 42  1  0  0  0  0
 43 44  1  0  0  0  0
 44 47  1  0  0  0  0
 45 51  1  0  0  0  0
 45 48  1  1  0  0  0
 47 50  2  0  0  0  0
 48 53  1  0  0  0  0
 49 52  1  6  0  0  0
 49 45  1  0  0  0  0
 50 53  1  0  0  0  0
 51 47  1  1  0  0  0
 52 54  1  0  0  0  0
 53 55  1  1  0  0  0
 54 49  1  0  0  0  0
 54 51  1  0  0  0  0
 54 46  1  1  0  0  0
 56 52  2  0  0  0  0
M  END
>  <MODEL>
1

>  <REMARK>
 VINA RESULT:       0.2      0.000      0.000
  Name = 
  10 active torsions:
  status: ('A' for Active; 'I' for Inactive)
    1  A    between atoms: C_1  and  C_54
    2  A    between atoms: C_4  and  C_44
    3  A    between atoms: C_5  and  C_34
    4  A    between atoms: N_11  and  C_19
    5  A    between atoms: C_13  and  O_23
    6  A    between atoms: C_17  and  N_55
    7  A    between atoms: C_18  and  O_25
    8  A    between atoms: O_23  and  C_40
    9  A    between atoms: O_25  and  P_41
   10  A    between atoms: C_40  and  C_54
                            x       y       z     vdW  Elec       q    Type
                         _______ _______ _______ _____ _____    ______ ____

>  <TORSDO>
F 10

$$$$
=
 OpenBabel11052409543D

 56 64  0  0  1  0  0  0  0  0999 V2000
  162.3800  208.8030  152.5540 C   0  0  1  0  0  3  0  0  0  0  0  0
  161.2090  212.9460  148.7520 C   0  0  2  0  0  3  0  0  0  0  0  0
  161.6420  207.6850  148.8050 C   0  0  1  0  0  3  0  0  0  0  0  0
  160.9470  209.7660  148.0430 C   0  0  2  0  0  3  0  0  0  0  0  0
  161.8760  208.7170  147.8490 O   0  0  0  0  0  0  0  0  0  0  0  0
  159.3120  211.6620  146.7880 S   0  0  0  0  0  0  0  0  0  0  0  0
  160.7710  210.5570  146.7430 C   0  0  0  0  0  2  0  0  0  0  0  0
  162.2250  207.2810  151.5350 S   0  0  0  0  0  0  0  0  0  0  0  0
  161.2660  210.5640  149.3550 C   0  0  1  0  0  3  0  0  0  0  0  0
  161.9710  209.6300  150.3350 C   0  0  2  0  0  3  0  0  0  0  0  0
  161.4140  208.2370  150.2290 C   0  0  1  0  0  3  0  0  0  0  0  0
  160.2320  213.2590  146.5510 C   0  0  1  0  0  3  0  0  0  0  0  0
  161.5620  213.1870  147.2980 C   0  0  1  0  0  3  0  0  0  0  0  0
  161.8600  214.2450  148.3400 C   0  0  0  0  0  2  0  0  0  0  0  0
  161.8410  210.0050  151.7860 C   0  0  0  0  0  2  0  0  0  0  0  0
  162.1220  211.8220  149.1740 C   0  0  0  0  0  2  0  0  0  0  0  0
  159.4960  205.4200  150.0230 O   0  0  0  0  0  0  0  0  0  0  0  0
  161.4640  205.1120  146.6400 N   0  0  0  0  0  0  0  0  0  0  0  0
  161.4620  204.4790  149.1340 C   0  0  0  0  0  2  0  0  0  0  0  0
  161.8490  204.2130  147.7070 C   0  0  0  0  0  0  0  0  0  0  0  0
  160.1660  207.0400  145.9610 C   0  0  0  0  0  2  0  0  0  0  0  0
  160.4990  206.7520  148.3540 C   0  0  2  0  0  3  0  0  0  0  0  0
  162.6280  203.1650  147.4700 C   0  0  0  0  0  2  0  0  0  0  0  0
  160.4110  205.5360  149.2240 C   0  0  0  0  0  0  0  0  0  0  0  0
  160.6940  206.3020  146.9340 C   0  0  0  0  0  0  0  0  0  0  0  0
  161.7780  204.7690  145.2500 C   0  0  0  0  0  2  0  0  0  0  0  0
  160.6820  203.8900  144.6690 C   0  0  0  0  0  1  0  0  0  0  0  0
  160.4950  213.5270  145.0530 C   0  0  1  0  0  3  0  0  0  0  0  0
  160.6400  212.6310  142.7850 C   0  0  2  0  0  3  0  0  0  0  0  0
  161.0720  212.3470  144.2350 C   0  0  2  0  0  3  0  0  0  0  0  0
  159.4480  213.4870  142.9740 C   0  0  0  0  0  0  0  0  0  0  0  0
  160.5130  211.1380  144.6720 O   0  0  0  0  0  1  0  0  0  0  0  0
  159.3300  213.9810  144.2970 N   0  0  0  0  0  0  0  0  0  0  0  0
  158.6250  213.7560  142.0590 O   0  0  0  0  0  0  0  0  0  0  0  0
  157.0640  213.3140  144.9060 C   0  0  0  0  0  1  0  0  0  0  0  0
  158.0650  214.4530  144.8560 C   0  0  0  0  0  2  0  0  0  0  0  0
  160.3080  211.4540  142.1050 O   0  0  0  0  0  0  0  0  0  0  0  0
  160.7400  210.3780  139.7630 O   0  0  0  0  0  0  0  0  0  0  0  0
  162.8540  211.2730  141.0040 O   0  0  0  0  0  1  0  0  0  0  0  0
  160.9830  212.9770  139.8900 O   0  0  0  0  0  1  0  0  0  0  0  0
  161.2100  211.4910  140.6680 P   0  0  0  0  0  0  0  0  0  0  0  0
  161.7190  208.6510  153.9200 C   0  0  0  0  0  2  0  0  0  0  0  0
  160.2910  209.1780  153.9330 C   0  0  0  0  0  2  0  0  0  0  0  0
  160.2670  210.4650  154.5350 O   0  0  0  0  0  0  0  0  0  0  0  0
  158.4630  213.7830  154.4270 N   0  0  1  0  0  0  0  0  0  0  0  0
  156.6420  211.0250  154.6230 C   0  0  0  0  0  1  0  0  0  0  0  0
  159.5160  211.5190  154.0130 C   0  0  0  0  0  0  0  0  0  0  0  0
  158.7260  213.9860  152.9910 C   0  0  0  0  0  2  0  0  0  0  0  0
  157.0680  213.3760  154.6200 C   0  0  2  0  0  3  0  0  0  0  0  0
  159.3760  211.6570  152.7280 N   0  0  0  0  0  0  0  0  0  0  0  0
  158.8610  212.4850  154.9810 C   0  0  2  0  0  3  0  0  0  0  0  0
  156.6820  213.2240  156.0930 C   0  0  0  0  0  0  0  0  0  0  0  0
  158.5560  212.7140  152.1640 C   0  0  2  0  0  3  0  0  0  0  0  0
  157.4180  212.1490  155.2920 C   0  0  2  0  0  0  0  0  0  0  0  0
  158.9330  212.9460  150.8550 F   0  0  0  0  0  0  0  0  0  0  0  0
  156.1860  213.6470  157.1260 O   0  0  0  0  0  0  0  0  0  0  0  0
  1 42  1  1  0  0  0
  2 14  1  1  0  0  0
  2 16  1  0  0  0  0
  3  5  1  6  0  0  0
  3 11  1  0  0  0  0
  4  7  1  6  0  0  0
  4  9  1  0  0  0  0
  5  4  1  0  0  0  0
  7  6  1  0  0  0  0
  8  1  1  0  0  0  0
  9 16  1  6  0  0  0
  9 10  1  0  0  0  0
 10 15  1  1  0  0  0
 11 10  1  0  0  0  0
 11  8  1  1  0  0  0
 12  6  1  6  0  0  0
 12 13  1  0  0  0  0
 13 14  1  1  0  0  0
 13  2  1  0  0  0  0
 15  1  1  0  0  0  0
 18 25  1  0  0  0  0
 18 20  1  0  0  0  0
 19 24  1  0  0  0  0
 20 19  1  0  0  0  0
 21 25  2  0  0  0  0
 22 25  1  6  0  0  0
 22  3  1  0  0  0  0
 22 24  1  0  0  0  0
 23 20  2  0  0  0  0
 24 17  2  0  0  0  0
 26 18  1  0  0  0  0
 27 26  1  0  0  0  0
 28 33  1  6  0  0  0
 28 12  1  0  0  0  0
 29 37  1  1  0  0  0
 29 31  1  0  0  0  0
 29 30  1  0  0  0  0
 30 32  1  1  0  0  0
 30 28  1  0  0  0  0
 31 33  1  0  0  0  0
 33 36  1  0  0  0  0
 34 31  2  0  0  0  0
 36 35  1  0  0  0  0
 38 41  2  0  0  0  0
 40 41  1  0  0  0  0
 41 39  1  0  0  0  0
 41 37  1  0  0  0  0
 42 43  1  0  0  0  0
 43 44  1  0  0  0  0
 45 48  1  6  0  0  0
 45 49  1  0  0  0  0
 45 51  1  0  0  0  0
 47 44  1  0  0  0  0
 49 54  1  0  0  0  0
 49 52  1  1  0  0  0
 50 47  2  0  0  0  0
 51 47  1  6  0  0  0
 51 54  1  0  0  0  0
 52 56  2  0  0  0  0
 53 55  1  6  0  0  0
 53 50  1  0  0  0  0
 53 48  1  0  0  0  0
 54 46  1  6  0  0  0
 54 52  1  0  0  0  0
M  END
>  <MODEL>
2

>  <REMARK>
 VINA RESULT:       0.4      1.476      2.026
  Name = 
  10 active torsions:
  status: ('A' for Active; 'I' for Inactive)
    1  A    between atoms: C_1  and  C_54
    2  A    between atoms: C_4  and  C_44
    3  A    between atoms: C_5  and  C_34
    4  A    between atoms: N_11  and  C_19
    5  A    between atoms: C_13  and  O_23
    6  A    between atoms: C_17  and  N_55
    7  A    between atoms: C_18  and  O_25
    8  A    between atoms: O_23  and  C_40
    9  A    between atoms: O_25  and  P_41
   10  A    between atoms: C_40  and  C_54
                            x       y       z     vdW  Elec       q    Type
                         _______ _______ _______ _____ _____    ______ ____

>  <TORSDO>
F 10

$$$$
=
 OpenBabel11052409543D

 56 64  0  0  1  0  0  0  0  0999 V2000
  162.1970  212.4720  148.6680 C   0  0  1  0  0  3  0  0  0  0  0  0
  161.9930  207.1140  146.6070 C   0  0  2  0  0  3  0  0  0  0  0  0
  161.6720  209.5250  151.2930 C   0  0  1  0  0  3  0  0  0  0  0  0
  161.3540  207.8360  149.7310 C   0  0  2  0  0  3  0  0  0  0  0  0
  162.1410  208.2610  150.8270 O   0  0  0  0  0  0  0  0  0  0  0  0
  160.1310  205.6500  148.4780 S   0  0  0  0  0  0  0  0  0  0  0  0
  161.4180  206.3120  149.6010 C   0  0  0  0  0  2  0  0  0  0  0  0
  161.9280  212.2100  150.4670 S   0  0  0  0  0  0  0  0  0  0  0  0
  161.6550  208.6980  148.4560 C   0  0  1  0  0  3  0  0  0  0  0  0
  162.1240  210.0810  148.9010 C   0  0  2  0  0  3  0  0  0  0  0  0
  161.3890  210.5130  150.1410 C   0  0  1  0  0  3  0  0  0  0  0  0
  161.2850  204.8790  147.2430 C   0  0  1  0  0  3  0  0  0  0  0  0
  162.5150  205.7720  147.0800 C   0  0  1  0  0  3  0  0  0  0  0  0
  162.8570  206.2790  145.6940 C   0  0  0  0  0  2  0  0  0  0  0  0
  161.9090  211.1850  147.9020 C   0  0  0  0  0  2  0  0  0  0  0  0
  162.6930  208.1160  147.4920 C   0  0  0  0  0  2  0  0  0  0  0  0
  158.9490  211.1720  152.3360 O   0  0  0  0  0  0  0  0  0  0  0  0
  161.3500  209.0590  154.6130 N   0  0  0  0  0  0  0  0  0  0  0  0
  160.8090  211.4240  153.7570 C   0  0  0  0  0  2  0  0  0  0  0  0
  161.3660  210.4940  154.7960 C   0  0  0  0  0  0  0  0  0  0  0  0
  160.5890  207.1760  153.2920 C   0  0  0  0  0  2  0  0  0  0  0  0
  160.4590  209.3620  152.2300 C   0  0  2  0  0  3  0  0  0  0  0  0
  161.9520  211.0410  155.8540 C   0  0  0  0  0  2  0  0  0  0  0  0
  159.9880  210.6860  152.7510 C   0  0  0  0  0  0  0  0  0  0  0  0
  160.7930  208.4870  153.4040 C   0  0  0  0  0  0  0  0  0  0  0  0
  161.8150  208.1810  155.6900 C   0  0  0  0  0  2  0  0  0  0  0  0
  160.7030  207.9640  156.7030 C   0  0  0  0  0  1  0  0  0  0  0  0
  161.7270  203.4730  147.7030 C   0  0  1  0  0  3  0  0  0  0  0  0
  161.5270  201.6760  149.3450 C   0  0  2  0  0  3  0  0  0  0  0  0
  161.6820  203.2020  149.2260 C   0  0  2  0  0  3  0  0  0  0  0  0
  160.9120  201.3190  148.0470 C   0  0  0  0  0  0  0  0  0  0  0  0
  160.5730  203.8420  149.7970 O   0  0  0  0  0  1  0  0  0  0  0  0
  160.9850  202.3690  147.0980 N   0  0  0  0  0  0  0  0  0  0  0  0
  160.3830  200.2030  147.8050 O   0  0  0  0  0  0  0  0  0  0  0  0
  160.3140  201.2580  145.0320 C   0  0  0  0  0  1  0  0  0  0  0  0
  160.0960  202.4530  145.9410 C   0  0  0  0  0  2  0  0  0  0  0  0
  160.6900  201.3230  150.4090 O   0  0  0  0  0  0  0  0  0  0  0  0
  162.4060  201.0960  152.3670 O   0  0  0  0  0  1  0  0  0  0  0  0
  160.1860  202.3390  152.9470 O   0  0  0  0  0  1  0  0  0  0  0  0
  162.1320  203.4910  151.3560 O   0  0  0  0  0  0  0  0  0  0  0  0
  161.3780  202.0370  151.7850 P   0  0  0  0  0  0  0  0  0  0  0  0
  161.3920  213.6520  148.1310 C   0  0  0  0  0  2  0  0  0  0  0  0
  160.3020  213.2150  147.1630 C   0  0  0  0  0  2  0  0  0  0  0  0
  160.2030  214.1580  146.1050 O   0  0  0  0  0  0  0  0  0  0  0  0
  160.9160  214.4500  142.4070 N   0  0  1  0  0  0  0  0  0  0  0  0
  159.8690  211.5310  143.5660 C   0  0  0  0  0  1  0  0  0  0  0  0
  160.8810  213.9970  144.8960 C   0  0  0  0  0  0  0  0  0  0  0  0
  162.3780  214.4530  142.5930 C   0  0  0  0  0  2  0  0  0  0  0  0
  160.4840  213.1410  141.9100 C   0  0  2  0  0  3  0  0  0  0  0  0
  162.1390  213.6710  144.8830 N   0  0  0  0  0  0  0  0  0  0  0  0
  160.1100  214.2000  143.6060 C   0  0  2  0  0  3  0  0  0  0  0  0
  158.9850  213.0740  141.6070 C   0  0  0  0  0  0  0  0  0  0  0  0
  162.8510  213.4460  143.6380 C   0  0  2  0  0  3  0  0  0  0  0  0
  159.5770  212.9160  143.0080 C   0  0  2  0  0  0  0  0  0  0  0  0
  164.2100  213.5850  143.8490 F   0  0  0  0  0  0  0  0  0  0  0  0
  158.0380  213.1280  140.8370 O   0  0  0  0  0  0  0  0  0  0  0  0
  1 42  1  6  0  0  0
  1  8  1  0  0  0  0
  2 14  1  6  0  0  0
  2 13  1  0  0  0  0
  2 16  1  0  0  0  0
  3  5  1  6  0  0  0
  3 22  1  0  0  0  0
  4  7  1  6  0  0  0
  4  5  1  0  0  0  0
  6  7  1  0  0  0  0
  9 16  1  1  0  0  0
  9 10  1  0  0  0  0
  9  4  1  0  0  0  0
 10 15  1  6  0  0  0
 10 11  1  0  0  0  0
 11  8  1  1  0  0  0
 11  3  1  0  0  0  0
 12 28  1  0  0  0  0
 12  6  1  1  0  0  0
 13 14  1  6  0  0  0
 13 12  1  0  0  0  0
 15  1  1  0  0  0  0
 17 24  2  0  0  0  0
 18 20  1  0  0  0  0
 18 26  1  0  0  0  0
 19 20  1  0  0  0  0
 20 23  2  0  0  0  0
 21 25  2  0  0  0  0
 22 24  1  1  0  0  0
 22 25  1  0  0  0  0
 24 19  1  0  0  0  0
 25 18  1  0  0  0  0
 26 27  1  0  0  0  0
 28 33  1  6  0  0  0
 28 30  1  0  0  0  0
 29 37  1  1  0  0  0
 30 29  1  0  0  0  0
 30 32  1  6  0  0  0
 31 29  1  0  0  0  0
 33 31  1  0  0  0  0
 34 31  2  0  0  0  0
 35 36  1  0  0  0  0
 36 33  1  0  0  0  0
 37 41  1  0  0  0  0
 40 41  2  0  0  0  0
 41 38  1  0  0  0  0
 41 39  1  0  0  0  0
 43 42  1  0  0  0  0
 44 43  1  0  0  0  0
 45 48  1  1  0  0  0
 45 51  1  0  0  0  0
 47 44  1  0  0  0  0
 48 53  1  0  0  0  0
 49 52  1  6  0  0  0
 49 45  1  0  0  0  0
 49 54  1  0  0  0  0
 50 47  2  0  0  0  0
 51 47  1  1  0  0  0
 52 54  1  0  0  0  0
 53 55  1  1  0  0  0
 53 50  1  0  0  0  0
 54 46  1  1  0  0  0
 54 51  1  0  0  0  0
 56 52  2  0  0  0  0
M  END
>  <MODEL>
3

>  <REMARK>
 VINA RESULT:       0.4      3.848     10.131
  Name = 
  10 active torsions:
  status: ('A' for Active; 'I' for Inactive)
    1  A    between atoms: C_1  and  C_54
    2  A    between atoms: C_4  and  C_44
    3  A    between atoms: C_5  and  C_34
    4  A    between atoms: N_11  and  C_19
    5  A    between atoms: C_13  and  O_23
    6  A    between atoms: C_17  and  N_55
    7  A    between atoms: C_18  and  O_25
    8  A    between atoms: O_23  and  C_40
    9  A    between atoms: O_25  and  P_41
   10  A    between atoms: C_40  and  C_54
                            x       y       z     vdW  Elec       q    Type
                         _______ _______ _______ _____ _____    ______ ____

>  <TORSDO>
F 10

$$$$
=
 OpenBabel11052409543D

 56 64  0  0  1  0  0  0  0  0999 V2000
  162.4010  212.1700  148.8450 C   0  0  1  0  0  3  0  0  0  0  0  0
  162.1770  206.9100  146.5480 C   0  0  2  0  0  3  0  0  0  0  0  0
  161.7810  209.1190  151.3270 C   0  0  1  0  0  3  0  0  0  0  0  0
  161.4780  207.5050  149.6850 C   0  0  2  0  0  3  0  0  0  0  0  0
  162.2450  207.8710  150.8160 O   0  0  0  0  0  0  0  0  0  0  0  0
  160.2560  205.3920  148.3110 S   0  0  0  0  0  0  0  0  0  0  0  0
  161.5250  205.9860  149.4900 C   0  0  0  0  0  2  0  0  0  0  0  0
  162.0890  211.8340  150.6250 S   0  0  0  0  0  0  0  0  0  0  0  0
  161.8170  208.4170  148.4560 C   0  0  1  0  0  3  0  0  0  0  0  0
  162.2930  209.7730  148.9720 C   0  0  2  0  0  3  0  0  0  0  0  0
  161.5360  210.1600  150.2130 C   0  0  1  0  0  3  0  0  0  0  0  0
  161.4280  204.6600  147.0690 C   0  0  1  0  0  3  0  0  0  0  0  0
  162.6710  205.5420  146.9720 C   0  0  1  0  0  3  0  0  0  0  0  0
  163.0510  206.1040  145.6170 C   0  0  0  0  0  2  0  0  0  0  0  0
  162.1150  210.9220  148.0170 C   0  0  0  0  0  2  0  0  0  0  0  0
  162.8690  207.8630  147.4900 C   0  0  0  0  0  2  0  0  0  0  0  0
  159.0210  210.7300  152.3270 O   0  0  0  0  0  0  0  0  0  0  0  0
  161.3760  208.5930  154.6280 N   0  0  0  0  0  0  0  0  0  0  0  0
  160.8420  210.9690  153.7990 C   0  0  0  0  0  2  0  0  0  0  0  0
  161.3780  210.0250  154.8370 C   0  0  0  0  0  0  0  0  0  0  0  0
  160.6630  206.7290  153.2550 C   0  0  0  0  0  2  0  0  0  0  0  0
  160.5450  208.9320  152.2290 C   0  0  2  0  0  3  0  0  0  0  0  0
  161.9320  210.5570  155.9190 C   0  0  0  0  0  2  0  0  0  0  0  0
  160.0520  210.2440  152.7600 C   0  0  0  0  0  0  0  0  0  0  0  0
  160.8550  208.0390  153.3960 C   0  0  0  0  0  0  0  0  0  0  0  0
  161.8190  207.6990  155.7010 C   0  0  0  0  0  2  0  0  0  0  0  0
  160.8170  207.7190  156.8440 C   0  0  0  0  0  1  0  0  0  0  0  0
  161.8410  203.2290  147.4770 C   0  0  1  0  0  3  0  0  0  0  0  0
  161.4470  201.2900  148.9090 C   0  0  2  0  0  3  0  0  0  0  0  0
  161.5620  202.8240  148.9440 C   0  0  2  0  0  3  0  0  0  0  0  0
  161.0620  201.0350  147.5040 C   0  0  0  0  0  0  0  0  0  0  0  0
  160.3520  203.3850  149.3770 O   0  0  0  0  0  1  0  0  0  0  0  0
  161.2480  202.1650  146.6700 N   0  0  0  0  0  0  0  0  0  0  0  0
  160.6200  199.9320  147.0860 O   0  0  0  0  0  0  0  0  0  0  0  0
  159.6640  201.1300  145.1290 C   0  0  0  0  0  1  0  0  0  0  0  0
  160.5530  202.3310  145.3940 C   0  0  0  0  0  2  0  0  0  0  0  0
  160.4630  200.8260  149.7890 O   0  0  0  0  0  0  0  0  0  0  0  0
  161.8610  200.3600  151.9470 O   0  0  0  0  0  1  0  0  0  0  0  0
  159.5750  201.5630  152.3180 O   0  0  0  0  0  1  0  0  0  0  0  0
  161.7380  202.8550  151.1800 O   0  0  0  0  0  0  0  0  0  0  0  0
  160.9310  201.3730  151.3240 P   0  0  0  0  0  0  0  0  0  0  0  0
  161.6230  213.3830  148.3430 C   0  0  0  0  0  2  0  0  0  0  0  0
  162.4940  214.3330  147.5330 C   0  0  0  0  0  2  0  0  0  0  0  0
  161.9680  214.4510  146.2180 O   0  0  0  0  0  0  0  0  0  0  0  0
  159.5520  211.8590  144.9080 N   0  0  1  0  0  0  0  0  0  0  0  0
  160.2880  214.4310  142.9570 C   0  0  0  0  0  1  0  0  0  0  0  0
  160.7500  213.8810  145.8480 C   0  0  0  0  0  0  0  0  0  0  0  0
  158.4480  212.3150  145.7710 C   0  0  0  0  0  2  0  0  0  0  0  0
  159.3280  212.3190  143.5350 C   0  0  2  0  0  3  0  0  0  0  0  0
  159.6290  214.3800  146.2780 N   0  0  0  0  0  0  0  0  0  0  0  0
  160.7690  212.6770  144.9260 C   0  0  2  0  0  3  0  0  0  0  0  0
  160.3870  211.8180  142.5490 C   0  0  0  0  0  0  0  0  0  0  0  0
  158.3480  213.8360  145.8640 C   0  0  2  0  0  3  0  0  0  0  0  0
  160.5830  213.0270  143.4650 C   0  0  2  0  0  0  0  0  0  0  0  0
  157.3750  214.1930  146.7770 F   0  0  0  0  0  0  0  0  0  0  0  0
  160.7830  211.0370  141.6980 O   0  0  0  0  0  0  0  0  0  0  0  0
  1 42  1  6  0  0  0
  1  8  1  0  0  0  0
  2 14  1  6  0  0  0
  2 13  1  0  0  0  0
  2 16  1  0  0  0  0
  3  5  1  6  0  0  0
  3 22  1  0  0  0  0
  4  7  1  6  0  0  0
  4  5  1  0  0  0  0
  6  7  1  0  0  0  0
  9 16  1  1  0  0  0
  9 10  1  0  0  0  0
  9  4  1  0  0  0  0
 10 15  1  6  0  0  0
 10 11  1  0  0  0  0
 11  8  1  1  0  0  0
 11  3  1  0  0  0  0
 12 28  1  0  0  0  0
 12  6  1  1  0  0  0
 13 14  1  6  0  0  0
 13 12  1  0  0  0  0
 15  1  1  0  0  0  0
 17 24  2  0  0  0  0
 18 20  1  0  0  0  0
 18 26  1  0  0  0  0
 19 20  1  0  0  0  0
 20 23  2  0  0  0  0
 21 25  2  0  0  0  0
 22 24  1  1  0  0  0
 22 25  1  0  0  0  0
 24 19  1  0  0  0  0
 25 18  1  0  0  0  0
 26 27  1  0  0  0  0
 28 33  1  6  0  0  0
 28 30  1  0  0  0  0
 29 30  1  0  0  0  0
 29 37  1  1  0  0  0
 30 32  1  6  0  0  0
 31 29  1  0  0  0  0
 33 31  1  0  0  0  0
 34 31  2  0  0  0  0
 35 36  1  0  0  0  0
 36 33  1  0  0  0  0
 37 41  1  0  0  0  0
 40 41  2  0  0  0  0
 41 38  1  0  0  0  0
 41 39  1  0  0  0  0
 43 42  1  0  0  0  0
 44 43  1  0  0  0  0
 45 51  1  0  0  0  0
 45 48  1  1  0  0  0
 47 44  1  0  0  0  0
 47 50  2  0  0  0  0
 48 53  1  0  0  0  0
 49 52  1  6  0  0  0
 49 45  1  0  0  0  0
 51 47  1  1  0  0  0
 52 54  1  0  0  0  0
 53 50  1  0  0  0  0
 53 55  1  1  0  0  0
 54 46  1  6  0  0  0
 54 49  1  0  0  0  0
 54 51  1  0  0  0  0
 56 52  2  0  0  0  0
M  END
>  <MODEL>
4

>  <REMARK>
 VINA RESULT:       2.0      3.565      9.702
  Name = 
  10 active torsions:
  status: ('A' for Active; 'I' for Inactive)
    1  A    between atoms: C_1  and  C_54
    2  A    between atoms: C_4  and  C_44
    3  A    between atoms: C_5  and  C_34
    4  A    between atoms: N_11  and  C_19
    5  A    between atoms: C_13  and  O_23
    6  A    between atoms: C_17  and  N_55
    7  A    between atoms: C_18  and  O_25
    8  A    between atoms: O_23  and  C_40
    9  A    between atoms: O_25  and  P_41
   10  A    between atoms: C_40  and  C_54
                            x       y       z     vdW  Elec       q    Type
                         _______ _______ _______ _____ _____    ______ ____

>  <TORSDO>
F 10

$$$$
