=
 OpenBabel11052411073D

 34 40  0  0  1  0  0  0  0  0999 V2000
  160.7360  211.5560  152.8900 C   0  0  2  0  0  3  0  0  0  0  0  0
  155.9820  212.2860  154.7790 C   0  0  0  0  0  3  0  0  0  0  0  0
  156.1310  213.2360  153.7680 C   0  0  0  0  0  3  0  0  0  0  0  0
  158.1960  211.4840  154.3560 N   0  0  0  0  0  0  0  0  0  0  0  0
  159.5780  212.4820  152.6440 C   0  0  0  0  0  0  0  0  0  0  0  0
  158.3710  212.4040  153.3660 C   0  0  0  0  0  0  0  0  0  0  0  0
  157.0350  211.4110  155.0620 C   0  0  0  0  0  3  0  0  0  0  0  0
  157.3270  213.3030  153.0540 C   0  0  0  0  0  0  0  0  0  0  0  0
  158.6480  214.3090  151.3620 C   0  0  0  0  0  3  0  0  0  0  0  0
  157.4890  214.2240  152.0680 N   0  0  0  0  0  0  0  0  0  0  0  0
  159.7090  213.4420  151.6380 C   0  0  0  0  0  3  0  0  0  0  0  0
  160.6390  210.3670  152.0500 N   0  0  0  0  0  2  0  0  0  0  0  0
  162.8400  210.2520  151.0030 C   0  0  0  0  0  2  0  0  0  0  0  0
  161.3740  210.6330  150.8200 C   0  0  1  0  0  3  0  0  0  0  0  0
  161.9200  209.3560  150.2050 C   0  0  1  0  0  0  0  0  0  0  0  0
  162.1160  209.4380  148.8270 O   0  0  0  0  0  1  0  0  0  0  0  0
  161.5500  207.9890  150.7930 C   0  0  2  0  0  0  0  0  0  0  0  0
  160.5720  205.7980  149.9170 C   0  0  0  0  0  2  0  0  0  0  0  0
  161.1630  205.1460  152.1900 C   0  0  0  0  0  2  0  0  0  0  0  0
  162.4200  206.0050  152.2290 C   0  0  0  0  0  2  0  0  0  0  0  0
  162.6490  206.9610  151.0350 C   0  0  1  0  0  3  0  0  0  0  0  0
  161.7110  206.8240  149.8130 C   0  0  2  0  0  3  0  0  0  0  0  0
  160.4310  207.9350  151.6330 O   0  0  0  0  0  1  0  0  0  0  0  0
  160.9320  204.6190  150.7970 C   0  0  0  0  0  2  0  0  0  0  0  0
  160.7880  211.1720  154.2930 N   0  0  0  0  0  2  0  0  0  0  0  0
  162.6750  210.1940  157.0640 S   0  0  0  0  0  0  0  0  0  0  0  0
  160.4430  208.0270  154.5570 C   0  0  0  0  0  3  0  0  0  0  0  0
  162.9480  210.6980  155.3220 C   0  0  0  0  0  2  0  0  0  0  0  0
  161.6270  208.8890  156.4760 C   0  0  0  0  0  0  0  0  0  0  0  0
  161.1830  207.8240  157.2600 C   0  0  0  0  0  3  0  0  0  0  0  0
  161.2670  208.9870  155.1480 C   0  0  0  0  0  0  0  0  0  0  0  0
  160.3530  206.8530  156.6810 C   0  0  0  0  0  3  0  0  0  0  0  0
  159.9830  206.9540  155.3310 C   0  0  0  0  0  3  0  0  0  0  0  0
  161.8220  210.1600  154.4360 C   0  0  1  0  0  3  0  0  0  0  0  0
  1 12  1  6  0  0  0
  1 25  1  0  0  0  0
  2  7  1  0  0  0  0
  3  2  2  0  0  0  0
  4  7  2  0  0  0  0
  5  1  1  0  0  0  0
  5  6  1  0  0  0  0
  6  4  1  0  0  0  0
  8  6  2  0  0  0  0
  8  3  1  0  0  0  0
  9 11  1  0  0  0  0
  9 10  2  0  0  0  0
 10  8  1  0  0  0  0
 11  5  2  0  0  0  0
 14 13  1  0  0  0  0
 14 12  1  1  0  0  0
 15 16  1  6  0  0  0
 15 17  1  0  0  0  0
 15 14  1  0  0  0  0
 15 13  1  0  0  0  0
 17 21  1  0  0  0  0
 17 23  1  1  0  0  0
 18 24  1  0  0  0  0
 19 20  1  0  0  0  0
 21 20  1  1  0  0  0
 22 18  1  1  0  0  0
 22 17  1  0  0  0  0
 22 21  1  0  0  0  0
 24 19  1  0  0  0  0
 27 31  2  0  0  0  0
 27 33  1  0  0  0  0
 28 26  1  0  0  0  0
 29 26  1  0  0  0  0
 29 30  2  0  0  0  0
 31 29  1  0  0  0  0
 32 30  1  0  0  0  0
 33 32  2  0  0  0  0
 34 25  1  1  0  0  0
 34 31  1  0  0  0  0
 34 28  1  0  0  0  0
M  END
>  <MODEL>
1

>  <REMARK>
 VINA RESULT:      -6.0      0.000      0.000
  Name = 
  6 active torsions:
  status: ('A' for Active; 'I' for Inactive)
    1  A    between atoms: C_3  and  C_22
    2  A    between atoms: C_7  and  C_18
    3  A    between atoms: N_17  and  C_18
    4  A    between atoms: N_17  and  C_20
    5  A    between atoms: C_18  and  N_19
    6  A    between atoms: N_19  and  C_32
                            x       y       z     vdW  Elec       q    Type
                         _______ _______ _______ _____ _____    ______ ____

>  <TORSDO>
F 6

$$$$
=
 OpenBabel11052411073D

 34 40  0  0  1  0  0  0  0  0999 V2000
  160.6990  209.8460  152.6960 C   0  0  2  0  0  3  0  0  0  0  0  0
  160.2070  206.9920  156.9760 C   0  0  0  0  0  3  0  0  0  0  0  0
  161.2090  207.9220  157.2600 C   0  0  0  0  0  3  0  0  0  0  0  0
  159.9680  207.9180  154.7830 N   0  0  0  0  0  0  0  0  0  0  0  0
  161.3370  209.7710  154.0540 C   0  0  0  0  0  0  0  0  0  0  0  0
  160.9460  208.8340  155.0310 C   0  0  0  0  0  0  0  0  0  0  0  0
  159.5930  207.0050  155.7200 C   0  0  0  0  0  3  0  0  0  0  0  0
  161.5870  208.8480  156.2900 C   0  0  0  0  0  0  0  0  0  0  0  0
  162.9490  210.6690  155.6170 C   0  0  0  0  0  3  0  0  0  0  0  0
  162.5620  209.7580  156.5500 N   0  0  0  0  0  0  0  0  0  0  0  0
  162.3450  210.6900  154.3570 C   0  0  0  0  0  3  0  0  0  0  0  0
  159.4530  210.6020  152.7470 N   0  0  0  0  0  2  0  0  0  0  0  0
  158.3810  212.4950  151.6420 C   0  0  0  0  0  2  0  0  0  0  0  0
  159.6980  211.9010  152.1330 C   0  0  1  0  0  3  0  0  0  0  0  0
  159.0240  213.0230  152.9050 C   0  0  1  0  0  0  0  0  0  0  0  0
  159.6410  214.2620  152.7430 O   0  0  0  0  0  1  0  0  0  0  0  0
  158.3310  212.7390  154.2430 C   0  0  2  0  0  0  0  0  0  0  0  0
  157.2180  214.1190  156.0810 C   0  0  0  0  0  2  0  0  0  0  0  0
  156.6640  211.8630  156.8190 C   0  0  0  0  0  2  0  0  0  0  0  0
  156.4880  211.3240  155.4060 C   0  0  0  0  0  2  0  0  0  0  0  0
  156.8820  212.2670  154.2450 C   0  0  1  0  0  3  0  0  0  0  0  0
  157.2230  213.7350  154.5940 C   0  0  2  0  0  3  0  0  0  0  0  0
  159.1390  212.3190  155.3070 O   0  0  0  0  0  1  0  0  0  0  0  0
  156.2290  213.3040  156.8890 C   0  0  0  0  0  2  0  0  0  0  0  0
  160.4490  208.5080  152.1790 N   0  0  0  0  0  2  0  0  0  0  0  0
  161.4520  205.2140  151.5960 S   0  0  0  0  0  0  0  0  0  0  0  0
  161.6470  208.4350  149.2400 C   0  0  0  0  0  3  0  0  0  0  0  0
  162.0340  206.6850  152.5240 C   0  0  0  0  0  2  0  0  0  0  0  0
  161.4780  206.1920  150.1160 C   0  0  0  0  0  0  0  0  0  0  0  0
  161.3790  205.6690  148.8270 C   0  0  0  0  0  3  0  0  0  0  0  0
  161.6130  207.5490  150.3190 C   0  0  0  0  0  0  0  0  0  0  0  0
  161.4090  206.5460  147.7320 C   0  0  0  0  0  3  0  0  0  0  0  0
  161.5420  207.9270  147.9390 C   0  0  0  0  0  3  0  0  0  0  0  0
  161.7220  207.9610  151.7370 C   0  0  1  0  0  3  0  0  0  0  0  0
  1 25  1  1  0  0  0
  1 12  1  0  0  0  0
  1  5  1  0  0  0  0
  2  3  1  0  0  0  0
  4  6  2  0  0  0  0
  4  7  1  0  0  0  0
  5 11  2  0  0  0  0
  5  6  1  0  0  0  0
  6  8  1  0  0  0  0
  7  2  2  0  0  0  0
  8 10  1  0  0  0  0
  8  3  2  0  0  0  0
  9 10  2  0  0  0  0
 11  9  1  0  0  0  0
 13 14  1  0  0  0  0
 13 15  1  0  0  0  0
 14 12  1  1  0  0  0
 14 15  1  0  0  0  0
 15 16  1  6  0  0  0
 15 17  1  0  0  0  0
 17 21  1  0  0  0  0
 17 22  1  0  0  0  0
 17 23  1  1  0  0  0
 18 24  1  0  0  0  0
 19 24  1  0  0  0  0
 20 19  1  0  0  0  0
 21 22  1  0  0  0  0
 21 20  1  1  0  0  0
 22 18  1  1  0  0  0
 26 28  1  0  0  0  0
 27 31  1  0  0  0  0
 29 31  2  0  0  0  0
 29 26  1  0  0  0  0
 30 29  1  0  0  0  0
 31 34  1  0  0  0  0
 32 33  1  0  0  0  0
 32 30  2  0  0  0  0
 33 27  2  0  0  0  0
 34 25  1  1  0  0  0
 34 28  1  0  0  0  0
M  END
>  <MODEL>
2

>  <REMARK>
 VINA RESULT:      -5.9      2.461      6.792
  Name = 
  6 active torsions:
  status: ('A' for Active; 'I' for Inactive)
    1  A    between atoms: C_3  and  C_22
    2  A    between atoms: C_7  and  C_18
    3  A    between atoms: N_17  and  C_18
    4  A    between atoms: N_17  and  C_20
    5  A    between atoms: C_18  and  N_19
    6  A    between atoms: N_19  and  C_32
                            x       y       z     vdW  Elec       q    Type
                         _______ _______ _______ _____ _____    ______ ____

>  <TORSDO>
F 6

$$$$
=
 OpenBabel11052411073D

 34 40  0  0  1  0  0  0  0  0999 V2000
  161.3610  206.6350  150.0390 C   0  0  2  0  0  3  0  0  0  0  0  0
  160.8300  201.5910  149.0510 C   0  0  0  0  0  3  0  0  0  0  0  0
  160.7720  201.7070  150.4410 C   0  0  0  0  0  3  0  0  0  0  0  0
  161.1160  203.9590  148.8630 N   0  0  0  0  0  0  0  0  0  0  0  0
  161.1910  205.3660  150.8260 C   0  0  0  0  0  0  0  0  0  0  0  0
  161.0670  204.1020  150.2170 C   0  0  0  0  0  0  0  0  0  0  0  0
  161.0060  202.7390  148.2720 C   0  0  0  0  0  3  0  0  0  0  0  0
  160.8910  202.9630  151.0340 C   0  0  0  0  0  0  0  0  0  0  0  0
  160.9560  204.3070  152.9860 C   0  0  0  0  0  3  0  0  0  0  0  0
  160.8390  203.0920  152.3860 N   0  0  0  0  0  0  0  0  0  0  0  0
  161.1350  205.4610  152.2180 C   0  0  0  0  0  3  0  0  0  0  0  0
  161.0850  207.8030  150.8690 N   0  0  0  0  0  2  0  0  0  0  0  0
  161.6800  210.1260  150.4160 C   0  0  0  0  0  2  0  0  0  0  0  0
  162.2040  208.7250  150.7200 C   0  0  1  0  0  3  0  0  0  0  0  0
  162.1970  209.7960  151.7980 C   0  0  1  0  0  0  0  0  0  0  0  0
  163.4560  210.3280  152.0670 O   0  0  0  0  0  1  0  0  0  0  0  0
  161.1880  209.7310  152.9510 C   0  0  2  0  0  0  0  0  0  0  0  0
  160.3860  207.9670  154.6140 C   0  0  0  0  0  2  0  0  0  0  0  0
  159.2700  209.9480  155.4930 C   0  0  0  0  0  2  0  0  0  0  0  0
  160.4210  210.8850  155.1500 C   0  0  0  0  0  2  0  0  0  0  0  0
  161.5790  210.2910  154.3140 C   0  0  1  0  0  3  0  0  0  0  0  0
  161.5810  208.7630  154.0700 C   0  0  2  0  0  3  0  0  0  0  0  0
  159.8290  209.7630  152.6160 O   0  0  0  0  0  1  0  0  0  0  0  0
  159.7960  208.5850  155.8650 C   0  0  0  0  0  2  0  0  0  0  0  0
  160.4840  206.6320  148.8770 N   0  0  0  0  0  2  0  0  0  0  0  0
  163.5940  205.8220  147.5110 S   0  0  0  0  0  0  0  0  0  0  0  0
  160.0200  206.2030  145.7660 C   0  0  0  0  0  3  0  0  0  0  0  0
  162.7060  207.3030  148.1260 C   0  0  0  0  0  2  0  0  0  0  0  0
  162.2700  205.5610  146.3590 C   0  0  0  0  0  0  0  0  0  0  0  0
  162.3310  204.6800  145.2790 C   0  0  0  0  0  3  0  0  0  0  0  0
  161.1380  206.3120  146.5960 C   0  0  0  0  0  0  0  0  0  0  0  0
  161.2150  204.5580  144.4370 C   0  0  0  0  0  3  0  0  0  0  0  0
  160.0610  205.3190  144.6800 C   0  0  0  0  0  3  0  0  0  0  0  0
  161.2210  207.2140  147.7660 C   0  0  1  0  0  3  0  0  0  0  0  0
  1 25  1  6  0  0  0
  1  5  1  0  0  0  0
  1 12  1  0  0  0  0
  2  3  1  0  0  0  0
  3  8  2  0  0  0  0
  4  6  2  0  0  0  0
  5 11  2  0  0  0  0
  6  5  1  0  0  0  0
  6  8  1  0  0  0  0
  7  4  1  0  0  0  0
  7  2  2  0  0  0  0
  8 10  1  0  0  0  0
 10  9  2  0  0  0  0
 11  9  1  0  0  0  0
 13 14  1  0  0  0  0
 13 15  1  0  0  0  0
 14 12  1  1  0  0  0
 14 15  1  0  0  0  0
 15 16  1  1  0  0  0
 15 17  1  0  0  0  0
 17 23  1  6  0  0  0
 17 22  1  0  0  0  0
 17 21  1  0  0  0  0
 18 24  1  0  0  0  0
 19 24  1  0  0  0  0
 20 19  1  0  0  0  0
 21 20  1  1  0  0  0
 22 21  1  0  0  0  0
 22 18  1  1  0  0  0
 26 28  1  0  0  0  0
 27 31  1  0  0  0  0
 29 31  2  0  0  0  0
 29 26  1  0  0  0  0
 30 29  1  0  0  0  0
 31 34  1  0  0  0  0
 32 33  1  0  0  0  0
 32 30  2  0  0  0  0
 33 27  2  0  0  0  0
 34 28  1  0  0  0  0
 34 25  1  1  0  0  0
M  END
>  <MODEL>
3

>  <REMARK>
 VINA RESULT:      -5.9      3.662      8.380
  Name = 
  6 active torsions:
  status: ('A' for Active; 'I' for Inactive)
    1  A    between atoms: C_3  and  C_22
    2  A    between atoms: C_7  and  C_18
    3  A    between atoms: N_17  and  C_18
    4  A    between atoms: N_17  and  C_20
    5  A    between atoms: C_18  and  N_19
    6  A    between atoms: N_19  and  C_32
                            x       y       z     vdW  Elec       q    Type
                         _______ _______ _______ _____ _____    ______ ____

>  <TORSDO>
F 6

$$$$
=
 OpenBabel11052411073D

 34 40  0  0  1  0  0  0  0  0999 V2000
  161.0780  208.1030  151.3300 C   0  0  2  0  0  3  0  0  0  0  0  0
  159.1880  212.7510  152.5660 C   0  0  0  0  0  3  0  0  0  0  0  0
  160.0810  212.9780  151.5170 C   0  0  0  0  0  3  0  0  0  0  0  0
  159.6730  210.4100  152.4740 N   0  0  0  0  0  0  0  0  0  0  0  0
  161.2580  209.5250  150.8800 C   0  0  0  0  0  0  0  0  0  0  0  0
  160.5540  210.6020  151.4520 C   0  0  0  0  0  0  0  0  0  0  0  0
  158.9970  211.4480  153.0360 C   0  0  0  0  0  3  0  0  0  0  0  0
  160.7710  211.9050  150.9530 C   0  0  0  0  0  0  0  0  0  0  0  0
  162.3310  211.0800  149.3710 C   0  0  0  0  0  3  0  0  0  0  0  0
  161.6450  212.1100  149.9330 N   0  0  0  0  0  0  0  0  0  0  0  0
  162.1500  209.7730  149.8340 C   0  0  0  0  0  3  0  0  0  0  0  0
  161.6270  207.9070  152.6680 N   0  0  0  0  0  2  0  0  0  0  0  0
  161.5850  206.2040  154.4140 C   0  0  0  0  0  2  0  0  0  0  0  0
  160.7720  206.9500  153.3600 C   0  0  1  0  0  3  0  0  0  0  0  0
  160.6240  207.2930  154.8330 C   0  0  1  0  0  0  0  0  0  0  0  0
  159.4460  206.8120  155.4030 O   0  0  0  0  0  1  0  0  0  0  0  0
  161.2060  208.5980  155.3910 C   0  0  2  0  0  0  0  0  0  0  0  0
  160.2960  210.8680  156.1230 C   0  0  0  0  0  2  0  0  0  0  0  0
  162.6210  211.0710  156.8280 C   0  0  0  0  0  2  0  0  0  0  0  0
  162.7440  209.6060  157.2270 C   0  0  0  0  0  2  0  0  0  0  0  0
  161.5530  208.6840  156.8720 C   0  0  1  0  0  3  0  0  0  0  0  0
  160.2640  209.3480  156.3350 C   0  0  2  0  0  3  0  0  0  0  0  0
  161.9560  209.3910  154.5130 O   0  0  0  0  0  1  0  0  0  0  0  0
  161.2240  211.5710  157.0930 C   0  0  0  0  0  2  0  0  0  0  0  0
  161.7160  207.1900  150.3920 N   0  0  0  0  0  2  0  0  0  0  0  0
  161.8090  205.7560  147.2100 S   0  0  0  0  0  0  0  0  0  0  0  0
  160.4510  204.2910  150.6700 C   0  0  0  0  0  3  0  0  0  0  0  0
  160.8310  207.0080  148.1260 C   0  0  0  0  0  2  0  0  0  0  0  0
  161.3870  204.5730  148.4620 C   0  0  0  0  0  0  0  0  0  0  0  0
  161.5810  203.1980  148.3410 C   0  0  0  0  0  3  0  0  0  0  0  0
  160.8280  205.1110  149.6030 C   0  0  0  0  0  0  0  0  0  0  0  0
  161.2080  202.3610  149.4050 C   0  0  0  0  0  3  0  0  0  0  0  0
  160.6440  202.9080  150.5670 C   0  0  0  0  0  3  0  0  0  0  0  0
  160.6680  206.5820  149.5870 C   0  0  1  0  0  3  0  0  0  0  0  0
  1 25  1  6  0  0  0
  1 12  1  0  0  0  0
  2  7  1  0  0  0  0
  3  2  2  0  0  0  0
  4  7  2  0  0  0  0
  5  1  1  0  0  0  0
  5  6  1  0  0  0  0
  6  4  1  0  0  0  0
  8  6  2  0  0  0  0
  8  3  1  0  0  0  0
  9 11  1  0  0  0  0
  9 10  2  0  0  0  0
 10  8  1  0  0  0  0
 11  5  2  0  0  0  0
 13 15  1  0  0  0  0
 14 12  1  6  0  0  0
 14 13  1  0  0  0  0
 14 15  1  0  0  0  0
 15 17  1  0  0  0  0
 15 16  1  1  0  0  0
 17 23  1  6  0  0  0
 17 22  1  0  0  0  0
 17 21  1  0  0  0  0
 18 24  1  0  0  0  0
 19 24  1  0  0  0  0
 19 20  1  0  0  0  0
 21 20  1  6  0  0  0
 22 18  1  6  0  0  0
 22 21  1  0  0  0  0
 26 28  1  0  0  0  0
 26 29  1  0  0  0  0
 28 34  1  0  0  0  0
 29 31  1  0  0  0  0
 30 29  2  0  0  0  0
 30 32  1  0  0  0  0
 31 27  2  0  0  0  0
 32 33  2  0  0  0  0
 33 27  1  0  0  0  0
 34 31  1  0  0  0  0
 34 25  1  1  0  0  0
M  END
>  <MODEL>
4

>  <REMARK>
 VINA RESULT:      -5.7      2.825      6.257
  Name = 
  6 active torsions:
  status: ('A' for Active; 'I' for Inactive)
    1  A    between atoms: C_3  and  C_22
    2  A    between atoms: C_7  and  C_18
    3  A    between atoms: N_17  and  C_18
    4  A    between atoms: N_17  and  C_20
    5  A    between atoms: C_18  and  N_19
    6  A    between atoms: N_19  and  C_32
                            x       y       z     vdW  Elec       q    Type
                         _______ _______ _______ _____ _____    ______ ____

>  <TORSDO>
F 6

$$$$
=
 OpenBabel11052411073D

 34 40  0  0  1  0  0  0  0  0999 V2000
  160.8480  210.5170  152.5780 C   0  0  2  0  0  3  0  0  0  0  0  0
  161.2830  205.3970  153.1290 C   0  0  0  0  0  3  0  0  0  0  0  0
  161.7980  205.6810  151.8630 C   0  0  0  0  0  3  0  0  0  0  0  0
  160.8260  207.7210  153.4670 N   0  0  0  0  0  0  0  0  0  0  0  0
  161.3390  209.3540  151.7610 C   0  0  0  0  0  0  0  0  0  0  0  0
  161.3180  208.0280  152.2340 C   0  0  0  0  0  0  0  0  0  0  0  0
  160.7960  206.4400  153.9230 C   0  0  0  0  0  3  0  0  0  0  0  0
  161.8180  206.9980  151.4060 C   0  0  0  0  0  0  0  0  0  0  0  0
  162.3400  208.5670  149.7070 C   0  0  0  0  0  3  0  0  0  0  0  0
  162.3140  207.2900  150.1750 N   0  0  0  0  0  0  0  0  0  0  0  0
  161.8540  209.6170  150.4900 C   0  0  0  0  0  3  0  0  0  0  0  0
  160.7770  211.7280  151.7680 N   0  0  0  0  0  2  0  0  0  0  0  0
  159.2950  213.6440  152.0640 C   0  0  0  0  0  2  0  0  0  0  0  0
  159.3840  212.1570  151.7350 C   0  0  1  0  0  3  0  0  0  0  0  0
  159.1360  213.1750  150.6350 C   0  0  1  0  0  0  0  0  0  0  0  0
  157.8180  213.1990  150.1820 O   0  0  0  0  0  1  0  0  0  0  0  0
  160.2420  213.5210  149.6310 C   0  0  2  0  0  0  0  0  0  0  0  0
  162.2780  212.3420  148.6380 C   0  0  0  0  0  2  0  0  0  0  0  0
  162.2370  214.3720  147.2900 C   0  0  0  0  0  2  0  0  0  0  0  0
  160.7160  214.4480  147.2500 C   0  0  0  0  0  2  0  0  0  0  0  0
  159.9440  213.4450  148.1390 C   0  0  1  0  0  3  0  0  0  0  0  0
  160.7540  212.3220  148.8290 C   0  0  2  0  0  3  0  0  0  0  0  0
  161.2120  214.4460  150.0410 O   0  0  0  0  0  1  0  0  0  0  0  0
  162.6890  212.9340  147.3060 C   0  0  0  0  0  2  0  0  0  0  0  0
  161.7190  210.7350  153.7240 N   0  0  0  0  0  2  0  0  0  0  0  0
  162.2210  211.3040  157.1320 S   0  0  0  0  0  0  0  0  0  0  0  0
  158.8880  211.5040  154.9370 C   0  0  0  0  0  3  0  0  0  0  0  0
  162.0950  209.8840  155.9790 C   0  0  0  0  0  2  0  0  0  0  0  0
  160.6100  211.8230  156.5990 C   0  0  0  0  0  0  0  0  0  0  0  0
  159.8410  212.7880  157.2470 C   0  0  0  0  0  3  0  0  0  0  0  0
  160.1410  211.1890  155.4670 C   0  0  0  0  0  0  0  0  0  0  0  0
  158.5800  213.1170  156.7270 C   0  0  0  0  0  3  0  0  0  0  0  0
  158.1040  212.4760  155.5730 C   0  0  0  0  0  3  0  0  0  0  0  0
  161.0570  210.1780  154.8930 C   0  0  1  0  0  3  0  0  0  0  0  0
  1 12  1  6  0  0  0
  1 25  1  0  0  0  0
  2  7  1  0  0  0  0
  3  2  2  0  0  0  0
  4  7  2  0  0  0  0
  5  6  1  0  0  0  0
  5  1  1  0  0  0  0
  6  4  1  0  0  0  0
  8  3  1  0  0  0  0
  8  6  2  0  0  0  0
  9 10  2  0  0  0  0
  9 11  1  0  0  0  0
 10  8  1  0  0  0  0
 11  5  2  0  0  0  0
 14 12  1  6  0  0  0
 14 13  1  0  0  0  0
 15 16  1  6  0  0  0
 15 14  1  0  0  0  0
 15 13  1  0  0  0  0
 17 23  1  1  0  0  0
 17 15  1  0  0  0  0
 19 24  1  0  0  0  0
 20 19  1  0  0  0  0
 21 20  1  6  0  0  0
 21 22  1  0  0  0  0
 21 17  1  0  0  0  0
 22 18  1  6  0  0  0
 22 17  1  0  0  0  0
 24 18  1  0  0  0  0
 27 31  2  0  0  0  0
 27 33  1  0  0  0  0
 28 26  1  0  0  0  0
 29 26  1  0  0  0  0
 29 30  2  0  0  0  0
 31 29  1  0  0  0  0
 32 30  1  0  0  0  0
 33 32  2  0  0  0  0
 34 25  1  6  0  0  0
 34 31  1  0  0  0  0
 34 28  1  0  0  0  0
M  END
>  <MODEL>
5

>  <REMARK>
 VINA RESULT:      -5.3      2.710      6.002
  Name = 
  6 active torsions:
  status: ('A' for Active; 'I' for Inactive)
    1  A    between atoms: C_3  and  C_22
    2  A    between atoms: C_7  and  C_18
    3  A    between atoms: N_17  and  C_18
    4  A    between atoms: N_17  and  C_20
    5  A    between atoms: C_18  and  N_19
    6  A    between atoms: N_19  and  C_32
                            x       y       z     vdW  Elec       q    Type
                         _______ _______ _______ _____ _____    ______ ____

>  <TORSDO>
F 6

$$$$
=
 OpenBabel11052411073D

 34 40  0  0  1  0  0  0  0  0999 V2000
  161.2670  210.3940  152.3050 C   0  0  2  0  0  3  0  0  0  0  0  0
  162.6200  210.9770  157.2580 C   0  0  0  0  0  3  0  0  0  0  0  0
  161.2250  210.9860  157.2490 C   0  0  0  0  0  3  0  0  0  0  0  0
  162.6360  210.6950  154.8820 N   0  0  0  0  0  0  0  0  0  0  0  0
  160.5750  210.5750  153.6260 C   0  0  0  0  0  0  0  0  0  0  0  0
  161.2740  210.7050  154.8420 C   0  0  0  0  0  0  0  0  0  0  0  0
  163.3150  210.8300  156.0530 C   0  0  0  0  0  3  0  0  0  0  0  0
  160.5410  210.8510  156.0410 C   0  0  0  0  0  0  0  0  0  0  0  0
  158.4950  210.7350  154.8490 C   0  0  0  0  0  3  0  0  0  0  0  0
  159.1830  210.8610  156.0160 N   0  0  0  0  0  0  0  0  0  0  0  0
  159.1780  210.5910  153.6380 C   0  0  0  0  0  3  0  0  0  0  0  0
  161.1210  211.5840  151.4740 N   0  0  0  0  0  2  0  0  0  0  0  0
  159.6770  213.4980  151.9270 C   0  0  0  0  0  2  0  0  0  0  0  0
  159.7320  212.0180  151.5620 C   0  0  1  0  0  3  0  0  0  0  0  0
  159.4010  213.0590  150.5070 C   0  0  1  0  0  0  0  0  0  0  0  0
  158.0510  213.0960  150.1620 O   0  0  0  0  0  1  0  0  0  0  0  0
  160.4240  213.4220  149.4240 C   0  0  2  0  0  0  0  0  0  0  0  0
  162.4900  212.3350  148.3880 C   0  0  0  0  0  2  0  0  0  0  0  0
  162.2240  214.2690  146.9290 C   0  0  0  0  0  2  0  0  0  0  0  0
  160.7020  214.2310  146.9700 C   0  0  0  0  0  2  0  0  0  0  0  0
  160.0560  213.2310  147.9570 C   0  0  1  0  0  3  0  0  0  0  0  0
  160.9840  212.2160  148.6650 C   0  0  2  0  0  3  0  0  0  0  0  0
  161.3400  214.4380  149.7240 O   0  0  0  0  0  1  0  0  0  0  0  0
  162.7850  212.8720  147.0030 C   0  0  0  0  0  2  0  0  0  0  0  0
  160.7330  209.2320  151.6080 N   0  0  0  0  0  2  0  0  0  0  0  0
  161.0640  205.8030  152.1760 S   0  0  0  0  0  0  0  0  0  0  0  0
  161.6250  207.9420  148.8480 C   0  0  0  0  0  3  0  0  0  0  0  0
  161.9850  207.3500  152.5250 C   0  0  0  0  0  2  0  0  0  0  0  0
  161.1330  206.2030  150.4490 C   0  0  0  0  0  0  0  0  0  0  0  0
  160.8240  205.3110  149.4230 C   0  0  0  0  0  3  0  0  0  0  0  0
  161.5300  207.4940  150.1680 C   0  0  0  0  0  0  0  0  0  0  0  0
  160.9130  205.7460  148.0920 C   0  0  0  0  0  3  0  0  0  0  0  0
  161.3130  207.0600  147.8050 C   0  0  0  0  0  3  0  0  0  0  0  0
  161.8400  208.3240  151.3530 C   0  0  1  0  0  3  0  0  0  0  0  0
  1 12  1  6  0  0  0
  1  5  1  0  0  0  0
  3  2  1  0  0  0  0
  4  7  1  0  0  0  0
  5 11  2  0  0  0  0
  5  6  1  0  0  0  0
  6  4  2  0  0  0  0
  6  8  1  0  0  0  0
  7  2  2  0  0  0  0
  8  3  2  0  0  0  0
  9 10  2  0  0  0  0
 10  8  1  0  0  0  0
 11  9  1  0  0  0  0
 14 12  1  6  0  0  0
 14 13  1  0  0  0  0
 15 16  1  6  0  0  0
 15 14  1  0  0  0  0
 15 13  1  0  0  0  0
 17 23  1  1  0  0  0
 17 15  1  0  0  0  0
 19 20  1  0  0  0  0
 19 24  1  0  0  0  0
 21 20  1  6  0  0  0
 21 22  1  0  0  0  0
 21 17  1  0  0  0  0
 22 18  1  6  0  0  0
 22 17  1  0  0  0  0
 24 18  1  0  0  0  0
 25  1  1  0  0  0  0
 26 28  1  0  0  0  0
 27 31  1  0  0  0  0
 29 26  1  0  0  0  0
 30 29  1  0  0  0  0
 31 29  2  0  0  0  0
 31 34  1  0  0  0  0
 32 30  2  0  0  0  0
 33 32  1  0  0  0  0
 33 27  2  0  0  0  0
 34 25  1  1  0  0  0
 34 28  1  0  0  0  0
M  END
>  <MODEL>
6

>  <REMARK>
 VINA RESULT:      -5.1      2.811      6.081
  Name = 
  6 active torsions:
  status: ('A' for Active; 'I' for Inactive)
    1  A    between atoms: C_3  and  C_22
    2  A    between atoms: C_7  and  C_18
    3  A    between atoms: N_17  and  C_18
    4  A    between atoms: N_17  and  C_20
    5  A    between atoms: C_18  and  N_19
    6  A    between atoms: N_19  and  C_32
                            x       y       z     vdW  Elec       q    Type
                         _______ _______ _______ _____ _____    ______ ____

>  <TORSDO>
F 6

$$$$
=
 OpenBabel11052411073D

 34 40  0  0  1  0  0  0  0  0999 V2000
  161.4120  208.6610  152.4660 C   0  0  2  0  0  3  0  0  0  0  0  0
  160.9280  205.5610  148.3600 C   0  0  0  0  0  3  0  0  0  0  0  0
  160.9150  204.7150  149.4700 C   0  0  0  0  0  3  0  0  0  0  0  0
  161.1690  207.4540  149.8040 N   0  0  0  0  0  0  0  0  0  0  0  0
  161.2900  207.1870  152.2020 C   0  0  0  0  0  0  0  0  0  0  0  0
  161.1650  206.6520  150.9050 C   0  0  0  0  0  0  0  0  0  0  0  0
  161.0580  206.9400  148.5490 C   0  0  0  0  0  3  0  0  0  0  0  0
  161.0350  205.2540  150.7510 C   0  0  0  0  0  0  0  0  0  0  0  0
  161.1450  204.9460  153.0990 C   0  0  0  0  0  3  0  0  0  0  0  0
  161.0270  204.4430  151.8410 N   0  0  0  0  0  0  0  0  0  0  0  0
  161.2790  206.3230  153.3000 C   0  0  0  0  0  3  0  0  0  0  0  0
  160.6460  209.0430  153.6480 N   0  0  0  0  0  2  0  0  0  0  0  0
  161.9180  210.7390  154.8560 C   0  0  0  0  0  2  0  0  0  0  0  0
  161.5910  209.2530  154.7380 C   0  0  1  0  0  3  0  0  0  0  0  0
  160.9850  210.0890  155.8520 C   0  0  1  0  0  0  0  0  0  0  0  0
  161.5660  209.8640  157.0990 O   0  0  0  0  0  1  0  0  0  0  0  0
  159.5020  210.4780  155.8150 C   0  0  2  0  0  0  0  0  0  0  0  0
  157.9120  211.8580  157.2610 C   0  0  0  0  0  2  0  0  0  0  0  0
  156.4840  211.3980  155.3400 C   0  0  0  0  0  2  0  0  0  0  0  0
  157.6220  211.4860  154.3320 C   0  0  0  0  0  2  0  0  0  0  0  0
  159.0530  211.6140  154.9050 C   0  0  1  0  0  3  0  0  0  0  0  0
  159.2010  211.8490  156.4260 C   0  0  2  0  0  3  0  0  0  0  0  0
  158.5690  209.4680  156.0820 O   0  0  0  0  0  1  0  0  0  0  0  0
  156.7160  212.3590  156.4780 C   0  0  0  0  0  2  0  0  0  0  0  0
  160.9590  209.4220  151.3110 N   0  0  0  0  0  2  0  0  0  0  0  0
  161.9560  211.3200  148.5550 S   0  0  0  0  0  0  0  0  0  0  0  0
  160.1360  212.4240  151.9360 C   0  0  0  0  0  3  0  0  0  0  0  0
  162.7150  210.5120  150.0150 C   0  0  0  0  0  2  0  0  0  0  0  0
  160.9170  212.2420  149.6590 C   0  0  0  0  0  0  0  0  0  0  0  0
  160.1540  213.3460  149.2810 C   0  0  0  0  0  3  0  0  0  0  0  0
  160.9120  211.7910  150.9620 C   0  0  0  0  0  0  0  0  0  0  0  0
  159.3680  213.9920  150.2470 C   0  0  0  0  0  3  0  0  0  0  0  0
  159.3590  213.5320  151.5720 C   0  0  0  0  0  3  0  0  0  0  0  0
  161.7790  210.6200  151.2220 C   0  0  1  0  0  3  0  0  0  0  0  0
  1 25  1  6  0  0  0
  1 12  1  0  0  0  0
  2  7  2  0  0  0  0
  2  3  1  0  0  0  0
  3  8  2  0  0  0  0
  4  6  2  0  0  0  0
  5  1  1  0  0  0  0
  5 11  2  0  0  0  0
  6  5  1  0  0  0  0
  7  4  1  0  0  0  0
  8  6  1  0  0  0  0
  8 10  1  0  0  0  0
  9 11  1  0  0  0  0
 10  9  2  0  0  0  0
 13 15  1  0  0  0  0
 14 12  1  6  0  0  0
 14 13  1  0  0  0  0
 14 15  1  0  0  0  0
 15 16  1  1  0  0  0
 17 15  1  0  0  0  0
 17 23  1  1  0  0  0
 17 22  1  0  0  0  0
 19 24  1  0  0  0  0
 20 19  1  0  0  0  0
 21 20  1  1  0  0  0
 21 17  1  0  0  0  0
 21 22  1  0  0  0  0
 22 18  1  1  0  0  0
 24 18  1  0  0  0  0
 26 29  1  0  0  0  0
 26 28  1  0  0  0  0
 28 34  1  0  0  0  0
 29 31  1  0  0  0  0
 30 29  2  0  0  0  0
 30 32  1  0  0  0  0
 31 34  1  0  0  0  0
 31 27  2  0  0  0  0
 32 33  2  0  0  0  0
 33 27  1  0  0  0  0
 34 25  1  6  0  0  0
M  END
>  <MODEL>
7

>  <REMARK>
 VINA RESULT:      -5.1      2.892      7.524
  Name = 
  6 active torsions:
  status: ('A' for Active; 'I' for Inactive)
    1  A    between atoms: C_3  and  C_22
    2  A    between atoms: C_7  and  C_18
    3  A    between atoms: N_17  and  C_18
    4  A    between atoms: N_17  and  C_20
    5  A    between atoms: C_18  and  N_19
    6  A    between atoms: N_19  and  C_32
                            x       y       z     vdW  Elec       q    Type
                         _______ _______ _______ _____ _____    ______ ____

>  <TORSDO>
F 6

$$$$
=
 OpenBabel11052411073D

 34 40  0  0  1  0  0  0  0  0999 V2000
  161.8970  209.5560  151.0670 C   0  0  2  0  0  3  0  0  0  0  0  0
  159.1700  213.9300  151.4290 C   0  0  0  0  0  3  0  0  0  0  0  0
  159.8290  214.0020  150.2010 C   0  0  0  0  0  3  0  0  0  0  0  0
  160.1670  211.7950  151.8420 N   0  0  0  0  0  0  0  0  0  0  0  0
  161.6760  210.7930  150.2430 C   0  0  0  0  0  0  0  0  0  0  0  0
  160.8280  211.8400  150.6510 C   0  0  0  0  0  0  0  0  0  0  0  0
  159.3540  212.8090  152.2440 C   0  0  0  0  0  3  0  0  0  0  0  0
  160.6640  212.9580  149.8040 C   0  0  0  0  0  0  0  0  0  0  0  0
  162.1360  212.0100  148.2060 C   0  0  0  0  0  3  0  0  0  0  0  0
  161.3150  213.0150  148.6120 N   0  0  0  0  0  0  0  0  0  0  0  0
  162.3310  210.8860  149.0130 C   0  0  0  0  0  3  0  0  0  0  0  0
  161.6370  208.3540  150.2820 N   0  0  0  0  0  2  0  0  0  0  0  0
  160.4510  206.3840  151.0980 C   0  0  0  0  0  2  0  0  0  0  0  0
  161.7320  207.2100  151.1790 C   0  0  1  0  0  3  0  0  0  0  0  0
  161.7100  205.8950  150.4180 C   0  0  1  0  0  0  0  0  0  0  0  0
  162.3390  204.8490  151.0900 O   0  0  0  0  0  1  0  0  0  0  0  0
  161.7460  205.8840  148.8850 C   0  0  2  0  0  0  0  0  0  0  0  0
  162.1210  204.1430  147.0540 C   0  0  0  0  0  2  0  0  0  0  0  0
  161.4590  206.0660  145.7120 C   0  0  0  0  0  2  0  0  0  0  0  0
  160.4560  206.5780  146.7380 C   0  0  0  0  0  2  0  0  0  0  0  0
  160.4340  205.8620  148.1090 C   0  0  1  0  0  3  0  0  0  0  0  0
  161.2710  204.5690  148.2600 C   0  0  2  0  0  3  0  0  0  0  0  0
  162.8420  206.4970  148.2660 O   0  0  0  0  0  1  0  0  0  0  0  0
  161.5080  204.5600  145.7340 C   0  0  0  0  0  2  0  0  0  0  0  0
  161.0430  209.5730  152.2460 N   0  0  0  0  0  2  0  0  0  0  0  0
  161.0460  211.0790  155.3970 S   0  0  0  0  0  0  0  0  0  0  0  0
  160.9050  207.2190  154.3720 C   0  0  0  0  0  3  0  0  0  0  0  0
  162.2340  210.7020  154.0520 C   0  0  0  0  0  2  0  0  0  0  0  0
  160.6640  209.3480  155.4850 C   0  0  0  0  0  0  0  0  0  0  0  0
  159.9490  208.7530  156.5230 C   0  0  0  0  0  3  0  0  0  0  0  0
  161.1370  208.5960  154.4300 C   0  0  0  0  0  0  0  0  0  0  0  0
  159.7060  207.3720  156.4790 C   0  0  0  0  0  3  0  0  0  0  0  0
  160.1830  206.6060  155.4050 C   0  0  0  0  0  3  0  0  0  0  0  0
  161.8900  209.3560  153.4080 C   0  0  1  0  0  3  0  0  0  0  0  0
  1 12  1  6  0  0  0
  1 25  1  0  0  0  0
  2  7  1  0  0  0  0
  3  2  2  0  0  0  0
  4  7  2  0  0  0  0
  5  6  1  0  0  0  0
  5  1  1  0  0  0  0
  6  4  1  0  0  0  0
  8  3  1  0  0  0  0
  8  6  2  0  0  0  0
  9 10  2  0  0  0  0
  9 11  1  0  0  0  0
 10  8  1  0  0  0  0
 11  5  2  0  0  0  0
 13 14  1  0  0  0  0
 14 12  1  6  0  0  0
 15 16  1  1  0  0  0
 15 13  1  0  0  0  0
 15 14  1  0  0  0  0
 17 23  1  6  0  0  0
 17 15  1  0  0  0  0
 19 24  1  0  0  0  0
 19 20  1  0  0  0  0
 21 20  1  6  0  0  0
 21 22  1  0  0  0  0
 21 17  1  0  0  0  0
 22 18  1  6  0  0  0
 22 17  1  0  0  0  0
 24 18  1  0  0  0  0
 26 29  1  0  0  0  0
 27 31  2  0  0  0  0
 27 33  1  0  0  0  0
 28 26  1  0  0  0  0
 29 30  2  0  0  0  0
 31 29  1  0  0  0  0
 32 30  1  0  0  0  0
 33 32  2  0  0  0  0
 34 25  1  6  0  0  0
 34 28  1  0  0  0  0
 34 31  1  0  0  0  0
M  END
>  <MODEL>
8

>  <REMARK>
 VINA RESULT:      -5.1      2.216      3.755
  Name = 
  6 active torsions:
  status: ('A' for Active; 'I' for Inactive)
    1  A    between atoms: C_3  and  C_22
    2  A    between atoms: C_7  and  C_18
    3  A    between atoms: N_17  and  C_18
    4  A    between atoms: N_17  and  C_20
    5  A    between atoms: C_18  and  N_19
    6  A    between atoms: N_19  and  C_32
                            x       y       z     vdW  Elec       q    Type
                         _______ _______ _______ _____ _____    ______ ____

>  <TORSDO>
F 6

$$$$
=
 OpenBabel11052411073D

 34 40  0  0  1  0  0  0  0  0999 V2000
  162.1140  209.6690  150.8820 C   0  0  2  0  0  3  0  0  0  0  0  0
  162.3390  213.4810  147.3990 C   0  0  0  0  0  3  0  0  0  0  0  0
  161.3440  213.8580  148.3020 C   0  0  0  0  0  3  0  0  0  0  0  0
  162.7040  211.4680  148.6400 N   0  0  0  0  0  0  0  0  0  0  0  0
  161.4100  210.9700  150.6190 C   0  0  0  0  0  0  0  0  0  0  0  0
  161.7340  211.8080  149.5350 C   0  0  0  0  0  0  0  0  0  0  0  0
  163.0140  212.2700  147.5860 C   0  0  0  0  0  3  0  0  0  0  0  0
  161.0330  213.0240  149.3750 C   0  0  0  0  0  0  0  0  0  0  0  0
  159.7420  212.5770  151.3130 C   0  0  0  0  0  3  0  0  0  0  0  0
  160.0640  213.3770  150.2600 N   0  0  0  0  0  0  0  0  0  0  0  0
  160.4070  211.3640  151.5090 C   0  0  0  0  0  3  0  0  0  0  0  0
  161.3450  208.5460  150.3580 N   0  0  0  0  0  2  0  0  0  0  0  0
  162.8630  207.7020  148.6450 C   0  0  0  0  0  2  0  0  0  0  0  0
  161.5800  208.4800  148.9210 C   0  0  1  0  0  3  0  0  0  0  0  0
  161.5190  207.0520  148.4060 C   0  0  1  0  0  0  0  0  0  0  0  0
  161.1740  206.9570  147.0590 O   0  0  0  0  0  1  0  0  0  0  0  0
  161.0930  205.9080  149.3350 C   0  0  2  0  0  0  0  0  0  0  0  0
  160.6950  203.3950  149.1160 C   0  0  0  0  0  2  0  0  0  0  0  0
  160.5010  203.6690  151.5300 C   0  0  0  0  0  2  0  0  0  0  0  0
  161.5780  204.7440  151.6070 C   0  0  0  0  0  2  0  0  0  0  0  0
  162.1260  205.2800  150.2630 C   0  0  1  0  0  3  0  0  0  0  0  0
  161.6970  204.5500  148.9680 C   0  0  2  0  0  3  0  0  0  0  0  0
  159.7590  205.8930  149.7620 O   0  0  0  0  0  1  0  0  0  0  0  0
  160.8270  202.6770  150.4430 C   0  0  0  0  0  2  0  0  0  0  0  0
  162.3410  209.4950  152.3090 N   0  0  0  0  0  2  0  0  0  0  0  0
  161.2050  206.9720  154.4400 S   0  0  0  0  0  0  0  0  0  0  0  0
  161.1400  210.9450  154.8660 C   0  0  0  0  0  3  0  0  0  0  0  0
  160.6840  207.8010  152.8890 C   0  0  0  0  0  2  0  0  0  0  0  0
  161.2180  208.5590  155.2320 C   0  0  0  0  0  0  0  0  0  0  0  0
  161.2950  208.7480  156.6120 C   0  0  0  0  0  3  0  0  0  0  0  0
  161.1380  209.6370  154.3750 C   0  0  0  0  0  0  0  0  0  0  0  0
  161.3000  210.0560  157.1210 C   0  0  0  0  0  3  0  0  0  0  0  0
  161.2230  211.1520  156.2490 C   0  0  0  0  0  3  0  0  0  0  0  0
  161.0470  209.2870  152.9390 C   0  0  1  0  0  3  0  0  0  0  0  0
  1 12  1  1  0  0  0
  1 25  1  0  0  0  0
  2  7  2  0  0  0  0
  2  3  1  0  0  0  0
  3  8  2  0  0  0  0
  4  6  2  0  0  0  0
  5  1  1  0  0  0  0
  5 11  2  0  0  0  0
  6  5  1  0  0  0  0
  7  4  1  0  0  0  0
  8  6  1  0  0  0  0
  8 10  1  0  0  0  0
  9 11  1  0  0  0  0
 10  9  2  0  0  0  0
 13 14  1  0  0  0  0
 14 12  1  1  0  0  0
 15 16  1  6  0  0  0
 15 13  1  0  0  0  0
 15 14  1  0  0  0  0
 15 17  1  0  0  0  0
 17 23  1  1  0  0  0
 17 21  1  0  0  0  0
 18 24  1  0  0  0  0
 19 20  1  0  0  0  0
 21 20  1  1  0  0  0
 22 18  1  1  0  0  0
 22 17  1  0  0  0  0
 22 21  1  0  0  0  0
 24 19  1  0  0  0  0
 26 29  1  0  0  0  0
 27 33  1  0  0  0  0
 28 34  1  0  0  0  0
 28 26  1  0  0  0  0
 29 30  2  0  0  0  0
 30 32  1  0  0  0  0
 31 27  2  0  0  0  0
 31 29  1  0  0  0  0
 33 32  2  0  0  0  0
 34 25  1  6  0  0  0
 34 31  1  0  0  0  0
M  END
>  <MODEL>
9

>  <REMARK>
 VINA RESULT:      -4.9      2.445      4.110
  Name = 
  6 active torsions:
  status: ('A' for Active; 'I' for Inactive)
    1  A    between atoms: C_3  and  C_22
    2  A    between atoms: C_7  and  C_18
    3  A    between atoms: N_17  and  C_18
    4  A    between atoms: N_17  and  C_20
    5  A    between atoms: C_18  and  N_19
    6  A    between atoms: N_19  and  C_32
                            x       y       z     vdW  Elec       q    Type
                         _______ _______ _______ _____ _____    ______ ____

>  <TORSDO>
F 6

$$$$
