=
 OpenBabel11042423103D

 29 31  0  0  0  0  0  0  0  0999 V2000
  161.2030  205.8570  153.8420 C   0  0  0  0  0  3  0  0  0  0  0  0
  161.6310  205.8950  152.5060 C   0  0  0  0  0  0  0  0  0  0  0  0
  160.8990  208.2610  153.8350 C   0  0  0  0  0  0  0  0  0  0  0  0
  160.8390  207.0320  154.5020 C   0  0  0  0  0  3  0  0  0  0  0  0
  161.6940  207.1250  151.8330 C   0  0  0  0  0  0  0  0  0  0  0  0
  161.3260  208.3020  152.5050 C   0  0  0  0  0  3  0  0  0  0  0  0
  160.5320  209.4790  154.4880 N   0  0  0  0  0  2  0  0  0  0  0  0
  161.2800  210.7160  154.3320 C   0  0  0  0  0  2  0  0  0  0  0  0
  160.3000  211.9790  152.5720 O   0  0  0  0  0  0  0  0  0  0  0  0
  160.3810  211.7810  153.8150 C   0  0  0  0  0  0  0  0  0  0  0  0
  160.1000  212.7650  156.0510 C   0  0  0  0  0  1  0  0  0  0  0  0
  159.6650  212.5710  154.7140 O   0  0  0  0  0  0  0  0  0  0  0  0
  162.1220  207.1520  150.5020 O   0  0  0  0  0  0  0  0  0  0  0  0
  161.3070  207.6330  149.4410 C   0  0  0  0  0  2  0  0  0  0  0  0
  162.0180  208.7620  148.7200 C   0  0  0  0  0  2  0  0  0  0  0  0
  162.2360  211.0790  148.5830 C   0  0  0  0  0  1  0  0  0  0  0  0
  161.8890  209.9930  149.4810 N   0  0  0  0  0  2  0  0  0  0  0  0
  162.0000  204.7290  151.8280 O   0  0  0  0  0  0  0  0  0  0  0  0
  161.1520  203.5920  151.7330 C   0  0  0  0  0  2  0  0  0  0  0  0
  161.3190  204.0770  149.2830 C   0  0  0  0  0  3  0  0  0  0  0  0
  160.6620  200.9550  145.7400 O   0  0  0  0  0  0  0  0  0  0  0  0
  160.6800  201.4060  148.6700 C   0  0  0  0  0  3  0  0  0  0  0  0
  161.0540  203.1610  150.3130 C   0  0  0  0  0  0  0  0  0  0  0  0
  161.2530  203.6470  147.9570 C   0  0  0  0  0  0  0  0  0  0  0  0
  161.3110  203.5170  145.2550 S   0  0  0  0  0  0  0  0  0  0  0  0
  160.7430  201.8260  150.0060 C   0  0  0  0  0  3  0  0  0  0  0  0
  161.5120  204.5290  146.7800 C   0  0  0  0  0  2  0  0  0  0  0  0
  160.9210  202.0810  146.2410 C   0  0  0  0  0  0  0  0  0  0  0  0
  160.9380  202.3370  147.6600 C   0  0  0  0  0  0  0  0  0  0  0  0
  1  4  1  0  0  0  0
  2  1  2  0  0  0  0
  3  7  1  0  0  0  0
  3  4  2  0  0  0  0
  5  6  2  0  0  0  0
  5  2  1  0  0  0  0
  6  3  1  0  0  0  0
  8  7  1  0  0  0  0
  9 10  2  0  0  0  0
 10  8  1  0  0  0  0
 10 12  1  0  0  0  0
 12 11  1  0  0  0  0
 13  5  1  0  0  0  0
 14 13  1  0  0  0  0
 15 14  1  0  0  0  0
 15 17  1  0  0  0  0
 16 17  1  0  0  0  0
 18  2  1  0  0  0  0
 19 18  1  0  0  0  0
 20 23  1  0  0  0  0
 21 28  2  0  0  0  0
 22 26  1  0  0  0  0
 23 19  1  0  0  0  0
 24 20  2  0  0  0  0
 25 28  1  0  0  0  0
 25 27  1  0  0  0  0
 26 23  2  0  0  0  0
 27 24  1  0  0  0  0
 28 29  1  0  0  0  0
 29 24  1  0  0  0  0
 29 22  2  0  0  0  0
M  END
>  <MODEL>
1

>  <REMARK>
 VINA RESULT:      -8.0      0.000      0.000
  Name = 
  11 active torsions:
  status: ('A' for Active; 'I' for Inactive)
    1  A    between atoms: C_2  and  O_26
    2  A    between atoms: C_4  and  N_17
    3  A    between atoms: C_9  and  C_16
    4  A    between atoms: C_9  and  O_25
    5  A    between atoms: C_10  and  C_23
    6  A    between atoms: C_16  and  N_17
    7  A    between atoms: O_18  and  C_19
    8  A    between atoms: O_18  and  C_22
    9  A    between atoms: C_22  and  C_29
   10  A    between atoms: C_23  and  O_26
   11  A    between atoms: N_28  and  C_29
                            x       y       z     vdW  Elec       q    Type
                         _______ _______ _______ _____ _____    ______ ____

>  <TORSDO>
F 11

$$$$
=
 OpenBabel11042423103D

 29 31  0  0  0  0  0  0  0  0999 V2000
  161.3150  203.1420  151.5770 C   0  0  0  0  0  3  0  0  0  0  0  0
  161.5230  204.4900  151.2490 C   0  0  0  0  0  0  0  0  0  0  0  0
  160.6620  202.6640  149.2920 C   0  0  0  0  0  0  0  0  0  0  0  0
  160.8880  202.2350  150.6060 C   0  0  0  0  0  3  0  0  0  0  0  0
  161.2960  204.9260  149.9340 C   0  0  0  0  0  0  0  0  0  0  0  0
  160.8670  204.0070  148.9630 C   0  0  0  0  0  3  0  0  0  0  0  0
  160.2240  201.7550  148.2790 N   0  0  0  0  0  2  0  0  0  0  0  0
  161.1040  201.2520  147.2360 C   0  0  0  0  0  2  0  0  0  0  0  0
  159.9590  201.4230  145.1590 O   0  0  0  0  0  0  0  0  0  0  0  0
  160.7960  201.9360  145.9520 C   0  0  0  0  0  0  0  0  0  0  0  0
  160.8440  204.1360  144.8550 C   0  0  0  0  0  1  0  0  0  0  0  0
  161.4620  203.1170  145.6250 O   0  0  0  0  0  0  0  0  0  0  0  0
  161.5070  206.2720  149.6160 O   0  0  0  0  0  0  0  0  0  0  0  0
  161.5860  206.7450  148.2780 C   0  0  0  0  0  2  0  0  0  0  0  0
  162.4340  208.0010  148.2270 C   0  0  0  0  0  2  0  0  0  0  0  0
  162.0930  210.2560  148.7060 C   0  0  0  0  0  1  0  0  0  0  0  0
  162.0150  208.9220  149.2710 N   0  0  0  0  0  2  0  0  0  0  0  0
  161.9510  205.4140  152.2070 O   0  0  0  0  0  0  0  0  0  0  0  0
  161.2600  205.6320  153.4300 C   0  0  0  0  0  2  0  0  0  0  0  0
  160.8190  207.6220  154.8820 C   0  0  0  0  0  3  0  0  0  0  0  0
  160.2360  212.1170  153.4030 O   0  0  0  0  0  0  0  0  0  0  0  0
  160.7250  209.2990  152.6250 C   0  0  0  0  0  3  0  0  0  0  0  0
  160.9890  207.0840  153.5970 C   0  0  0  0  0  0  0  0  0  0  0  0
  160.5970  208.9930  155.0220 C   0  0  0  0  0  0  0  0  0  0  0  0
  160.1480  211.4720  156.0100 S   0  0  0  0  0  0  0  0  0  0  0  0
  160.9490  207.9240  152.4720 C   0  0  0  0  0  3  0  0  0  0  0  0
  160.4010  209.6760  156.3350 C   0  0  0  0  0  2  0  0  0  0  0  0
  160.3140  211.1920  154.2550 C   0  0  0  0  0  0  0  0  0  0  0  0
  160.5490  209.8110  153.9120 C   0  0  0  0  0  0  0  0  0  0  0  0
  2  1  1  0  0  0  0
  2 18  1  0  0  0  0
  3  4  1  0  0  0  0
  4  1  2  0  0  0  0
  5  2  2  0  0  0  0
  6  3  2  0  0  0  0
  6  5  1  0  0  0  0
  7  3  1  0  0  0  0
  8  7  1  0  0  0  0
  9 10  2  0  0  0  0
 10  8  1  0  0  0  0
 11 12  1  0  0  0  0
 12 10  1  0  0  0  0
 13  5  1  0  0  0  0
 14 13  1  0  0  0  0
 15 14  1  0  0  0  0
 15 17  1  0  0  0  0
 16 17  1  0  0  0  0
 18 19  1  0  0  0  0
 19 23  1  0  0  0  0
 20 24  1  0  0  0  0
 21 28  2  0  0  0  0
 22 29  1  0  0  0  0
 23 20  2  0  0  0  0
 24 27  1  0  0  0  0
 25 27  1  0  0  0  0
 26 22  2  0  0  0  0
 26 23  1  0  0  0  0
 28 25  1  0  0  0  0
 29 28  1  0  0  0  0
 29 24  2  0  0  0  0
M  END
>  <MODEL>
2

>  <REMARK>
 VINA RESULT:      -7.8      3.167      8.502
  Name = 
  11 active torsions:
  status: ('A' for Active; 'I' for Inactive)
    1  A    between atoms: C_2  and  O_26
    2  A    between atoms: C_4  and  N_17
    3  A    between atoms: C_9  and  C_16
    4  A    between atoms: C_9  and  O_25
    5  A    between atoms: C_10  and  C_23
    6  A    between atoms: C_16  and  N_17
    7  A    between atoms: O_18  and  C_19
    8  A    between atoms: O_18  and  C_22
    9  A    between atoms: C_22  and  C_29
   10  A    between atoms: C_23  and  O_26
   11  A    between atoms: N_28  and  C_29
                            x       y       z     vdW  Elec       q    Type
                         _______ _______ _______ _____ _____    ______ ____

>  <TORSDO>
F 11

$$$$
=
 OpenBabel11042423103D

 29 31  0  0  0  0  0  0  0  0999 V2000
  161.3470  203.6860  151.8250 C   0  0  0  0  0  3  0  0  0  0  0  0
  161.4470  204.9210  151.1660 C   0  0  0  0  0  0  0  0  0  0  0  0
  160.7570  202.5980  149.7410 C   0  0  0  0  0  0  0  0  0  0  0  0
  161.0040  202.5320  151.1180 C   0  0  0  0  0  3  0  0  0  0  0  0
  161.1970  204.9930  149.7870 C   0  0  0  0  0  0  0  0  0  0  0  0
  160.8540  203.8270  149.0830 C   0  0  0  0  0  3  0  0  0  0  0  0
  160.4040  201.4310  148.9940 N   0  0  0  0  0  2  0  0  0  0  0  0
  161.3930  200.5480  148.3970 C   0  0  0  0  0  2  0  0  0  0  0  0
  161.4440  199.4330  146.2970 O   0  0  0  0  0  0  0  0  0  0  0  0
  161.1920  200.4980  146.9240 C   0  0  0  0  0  0  0  0  0  0  0  0
  160.0050  201.5620  145.0520 C   0  0  0  0  0  1  0  0  0  0  0  0
  160.7610  201.6400  146.2510 O   0  0  0  0  0  0  0  0  0  0  0  0
  161.3000  206.2280  149.1390 O   0  0  0  0  0  0  0  0  0  0  0  0
  161.9550  206.3900  147.8880 C   0  0  0  0  0  2  0  0  0  0  0  0
  160.9290  206.4220  146.7720 C   0  0  0  0  0  2  0  0  0  0  0  0
  162.7000  205.1170  146.0050 C   0  0  0  0  0  1  0  0  0  0  0  0
  161.3590  205.5650  145.6800 N   0  0  0  0  0  2  0  0  0  0  0  0
  161.7880  206.0880  151.8570 O   0  0  0  0  0  0  0  0  0  0  0  0
  161.4390  206.3080  153.2170 C   0  0  0  0  0  2  0  0  0  0  0  0
  160.8430  208.2390  154.6930 C   0  0  0  0  0  3  0  0  0  0  0  0
  159.7220  212.6450  153.2560 O   0  0  0  0  0  0  0  0  0  0  0  0
  160.4820  209.8970  152.4480 C   0  0  0  0  0  3  0  0  0  0  0  0
  161.0200  207.7230  153.4000 C   0  0  0  0  0  0  0  0  0  0  0  0
  160.4790  209.5790  154.8470 C   0  0  0  0  0  0  0  0  0  0  0  0
  159.8050  211.9940  155.8620 S   0  0  0  0  0  0  0  0  0  0  0  0
  160.8470  208.5530  152.2810 C   0  0  0  0  0  3  0  0  0  0  0  0
  160.2620  210.2370  156.1700 C   0  0  0  0  0  2  0  0  0  0  0  0
  159.9320  211.7350  154.1000 C   0  0  0  0  0  0  0  0  0  0  0  0
  160.3020  210.3870  153.7440 C   0  0  0  0  0  0  0  0  0  0  0  0
  2  1  1  0  0  0  0
  2 18  1  0  0  0  0
  3  4  1  0  0  0  0
  4  1  2  0  0  0  0
  5  2  2  0  0  0  0
  6  3  2  0  0  0  0
  6  5  1  0  0  0  0
  7  3  1  0  0  0  0
  8  7  1  0  0  0  0
  9 10  2  0  0  0  0
 10  8  1  0  0  0  0
 11 12  1  0  0  0  0
 12 10  1  0  0  0  0
 13  5  1  0  0  0  0
 14 13  1  0  0  0  0
 15 14  1  0  0  0  0
 17 16  1  0  0  0  0
 17 15  1  0  0  0  0
 18 19  1  0  0  0  0
 19 23  1  0  0  0  0
 20 24  1  0  0  0  0
 21 28  2  0  0  0  0
 22 29  1  0  0  0  0
 23 20  2  0  0  0  0
 24 27  1  0  0  0  0
 25 27  1  0  0  0  0
 26 22  2  0  0  0  0
 26 23  1  0  0  0  0
 28 25  1  0  0  0  0
 29 28  1  0  0  0  0
 29 24  2  0  0  0  0
M  END
>  <MODEL>
3

>  <REMARK>
 VINA RESULT:      -7.7      3.620      8.990
  Name = 
  11 active torsions:
  status: ('A' for Active; 'I' for Inactive)
    1  A    between atoms: C_2  and  O_26
    2  A    between atoms: C_4  and  N_17
    3  A    between atoms: C_9  and  C_16
    4  A    between atoms: C_9  and  O_25
    5  A    between atoms: C_10  and  C_23
    6  A    between atoms: C_16  and  N_17
    7  A    between atoms: O_18  and  C_19
    8  A    between atoms: O_18  and  C_22
    9  A    between atoms: C_22  and  C_29
   10  A    between atoms: C_23  and  O_26
   11  A    between atoms: N_28  and  C_29
                            x       y       z     vdW  Elec       q    Type
                         _______ _______ _______ _____ _____    ______ ____

>  <TORSDO>
F 11

$$$$
=
 OpenBabel11042423103D

 29 31  0  0  0  0  0  0  0  0999 V2000
  160.9700  206.5200  154.1460 C   0  0  0  0  0  3  0  0  0  0  0  0
  161.0050  206.9670  152.8160 C   0  0  0  0  0  0  0  0  0  0  0  0
  160.8780  208.8100  154.9360 C   0  0  0  0  0  0  0  0  0  0  0  0
  160.9060  207.4340  155.1980 C   0  0  0  0  0  3  0  0  0  0  0  0
  160.9790  208.3440  152.5470 C   0  0  0  0  0  0  0  0  0  0  0  0
  160.9150  209.2580  153.6120 C   0  0  0  0  0  3  0  0  0  0  0  0
  160.8130  209.7670  155.9960 N   0  0  0  0  0  2  0  0  0  0  0  0
  161.0590  211.1860  155.7940 C   0  0  0  0  0  2  0  0  0  0  0  0
  159.5140  212.4990  157.0360 O   0  0  0  0  0  0  0  0  0  0  0  0
  159.7840  211.9380  155.9390 C   0  0  0  0  0  0  0  0  0  0  0  0
  157.6140  211.3660  154.9370 C   0  0  0  0  0  1  0  0  0  0  0  0
  158.8890  211.9850  154.8710 O   0  0  0  0  0  0  0  0  0  0  0  0
  161.0150  208.7800  151.2190 O   0  0  0  0  0  0  0  0  0  0  0  0
  162.2080  209.2240  150.5850 C   0  0  0  0  0  2  0  0  0  0  0  0
  162.0090  210.6250  150.0410 C   0  0  0  0  0  2  0  0  0  0  0  0
  162.5180  211.9370  148.1830 C   0  0  0  0  0  1  0  0  0  0  0  0
  162.0980  210.6090  148.5900 N   0  0  0  0  0  2  0  0  0  0  0  0
  161.0690  206.0670  151.7480 O   0  0  0  0  0  0  0  0  0  0  0  0
  161.1580  204.6600  151.9310 C   0  0  0  0  0  2  0  0  0  0  0  0
  161.3200  204.7200  149.4340 C   0  0  0  0  0  3  0  0  0  0  0  0
  160.9110  200.9910  146.4920 O   0  0  0  0  0  0  0  0  0  0  0  0
  160.8670  201.9460  149.2970 C   0  0  0  0  0  3  0  0  0  0  0  0
  161.1050  203.9820  150.6080 C   0  0  0  0  0  0  0  0  0  0  0  0
  161.2980  204.0610  148.2030 C   0  0  0  0  0  0  0  0  0  0  0  0
  161.3950  203.4670  145.5650 S   0  0  0  0  0  0  0  0  0  0  0  0
  160.8860  202.5960  150.5390 C   0  0  0  0  0  3  0  0  0  0  0  0
  161.5110  204.7400  146.8900 C   0  0  0  0  0  2  0  0  0  0  0  0
  161.0900  202.2010  146.7880 C   0  0  0  0  0  0  0  0  0  0  0  0
  161.0730  202.7020  148.1410 C   0  0  0  0  0  0  0  0  0  0  0  0
  1  4  1  0  0  0  0
  2  1  2  0  0  0  0
  3  4  2  0  0  0  0
  3  7  1  0  0  0  0
  5  2  1  0  0  0  0
  5  6  2  0  0  0  0
  6  3  1  0  0  0  0
  8 10  1  0  0  0  0
  8  7  1  0  0  0  0
 10  9  2  0  0  0  0
 12 11  1  0  0  0  0
 12 10  1  0  0  0  0
 13  5  1  0  0  0  0
 14 13  1  0  0  0  0
 15 14  1  0  0  0  0
 16 17  1  0  0  0  0
 17 15  1  0  0  0  0
 18 19  1  0  0  0  0
 18  2  1  0  0  0  0
 20 23  1  0  0  0  0
 21 28  2  0  0  0  0
 22 26  1  0  0  0  0
 23 19  1  0  0  0  0
 24 20  2  0  0  0  0
 25 28  1  0  0  0  0
 25 27  1  0  0  0  0
 26 23  2  0  0  0  0
 27 24  1  0  0  0  0
 28 29  1  0  0  0  0
 29 24  1  0  0  0  0
 29 22  2  0  0  0  0
M  END
>  <MODEL>
4

>  <REMARK>
 VINA RESULT:      -7.4      1.269      1.608
  Name = 
  11 active torsions:
  status: ('A' for Active; 'I' for Inactive)
    1  A    between atoms: C_2  and  O_26
    2  A    between atoms: C_4  and  N_17
    3  A    between atoms: C_9  and  C_16
    4  A    between atoms: C_9  and  O_25
    5  A    between atoms: C_10  and  C_23
    6  A    between atoms: C_16  and  N_17
    7  A    between atoms: O_18  and  C_19
    8  A    between atoms: O_18  and  C_22
    9  A    between atoms: C_22  and  C_29
   10  A    between atoms: C_23  and  O_26
   11  A    between atoms: N_28  and  C_29
                            x       y       z     vdW  Elec       q    Type
                         _______ _______ _______ _____ _____    ______ ____

>  <TORSDO>
F 11

$$$$
=
 OpenBabel11042423103D

 29 31  0  0  0  0  0  0  0  0999 V2000
  161.4020  207.6540  151.6770 C   0  0  0  0  0  3  0  0  0  0  0  0
  161.8720  208.3730  150.5680 C   0  0  0  0  0  0  0  0  0  0  0  0
  160.9030  209.7250  152.8340 C   0  0  0  0  0  0  0  0  0  0  0  0
  160.9200  208.3250  152.8030 C   0  0  0  0  0  3  0  0  0  0  0  0
  161.8600  209.7760  150.5950 C   0  0  0  0  0  0  0  0  0  0  0  0
  161.3730  210.4440  151.7310 C   0  0  0  0  0  3  0  0  0  0  0  0
  160.4150  210.4370  153.9740 N   0  0  0  0  0  2  0  0  0  0  0  0
  161.2880  210.9450  155.0200 C   0  0  0  0  0  2  0  0  0  0  0  0
  162.6260  209.7470  156.5780 O   0  0  0  0  0  0  0  0  0  0  0  0
  161.4880  209.8960  156.0560 C   0  0  0  0  0  0  0  0  0  0  0  0
  160.6250  207.8380  157.0880 C   0  0  0  0  0  1  0  0  0  0  0  0
  160.4230  209.0680  156.4090 O   0  0  0  0  0  0  0  0  0  0  0  0
  162.3310  210.4840  149.4840 O   0  0  0  0  0  0  0  0  0  0  0  0
  161.9050  211.8050  149.1740 C   0  0  0  0  0  2  0  0  0  0  0  0
  162.6250  212.2970  147.9330 C   0  0  0  0  0  2  0  0  0  0  0  0
  160.4940  212.2890  146.9900 C   0  0  0  0  0  1  0  0  0  0  0  0
  161.7120  213.0680  147.1070 N   0  0  0  0  0  2  0  0  0  0  0  0
  162.3580  207.7190  149.4320 O   0  0  0  0  0  0  0  0  0  0  0  0
  161.5290  207.3620  148.3340 C   0  0  0  0  0  2  0  0  0  0  0  0
  161.1180  205.1210  149.3710 C   0  0  0  0  0  3  0  0  0  0  0  0
  161.2020  200.9170  147.1240 O   0  0  0  0  0  0  0  0  0  0  0  0
  161.5340  203.8530  146.8940 C   0  0  0  0  0  3  0  0  0  0  0  0
  161.4440  205.8800  148.2360 C   0  0  0  0  0  0  0  0  0  0  0  0
  161.0120  203.7340  149.2540 C   0  0  0  0  0  0  0  0  0  0  0  0
  160.6480  201.0980  149.7470 S   0  0  0  0  0  0  0  0  0  0  0  0
  161.6440  205.2470  146.9990 C   0  0  0  0  0  3  0  0  0  0  0  0
  160.6740  202.8250  150.3890 C   0  0  0  0  0  2  0  0  0  0  0  0
  161.0630  201.6840  148.1120 C   0  0  0  0  0  0  0  0  0  0  0  0
  161.2190  203.1160  148.0380 C   0  0  0  0  0  0  0  0  0  0  0  0
  1  4  1  0  0  0  0
  2  5  1  0  0  0  0
  2  1  2  0  0  0  0
  3  7  1  0  0  0  0
  4  3  2  0  0  0  0
  5  6  2  0  0  0  0
  6  3  1  0  0  0  0
  7  8  1  0  0  0  0
  8 10  1  0  0  0  0
 10 12  1  0  0  0  0
 10  9  2  0  0  0  0
 12 11  1  0  0  0  0
 13  5  1  0  0  0  0
 14 13  1  0  0  0  0
 15 14  1  0  0  0  0
 16 17  1  0  0  0  0
 17 15  1  0  0  0  0
 18  2  1  0  0  0  0
 19 18  1  0  0  0  0
 21 28  2  0  0  0  0
 22 26  2  0  0  0  0
 22 29  1  0  0  0  0
 23 19  1  0  0  0  0
 23 20  2  0  0  0  0
 24 20  1  0  0  0  0
 24 27  1  0  0  0  0
 25 27  1  0  0  0  0
 26 23  1  0  0  0  0
 28 25  1  0  0  0  0
 29 28  1  0  0  0  0
 29 24  2  0  0  0  0
M  END
>  <MODEL>
5

>  <REMARK>
 VINA RESULT:      -7.3      2.197      3.327
  Name = 
  11 active torsions:
  status: ('A' for Active; 'I' for Inactive)
    1  A    between atoms: C_2  and  O_26
    2  A    between atoms: C_4  and  N_17
    3  A    between atoms: C_9  and  C_16
    4  A    between atoms: C_9  and  O_25
    5  A    between atoms: C_10  and  C_23
    6  A    between atoms: C_16  and  N_17
    7  A    between atoms: O_18  and  C_19
    8  A    between atoms: O_18  and  C_22
    9  A    between atoms: C_22  and  C_29
   10  A    between atoms: C_23  and  O_26
   11  A    between atoms: N_28  and  C_29
                            x       y       z     vdW  Elec       q    Type
                         _______ _______ _______ _____ _____    ______ ____

>  <TORSDO>
F 11

$$$$
=
 OpenBabel11042423103D

 29 31  0  0  0  0  0  0  0  0999 V2000
  161.6980  207.5300  149.4000 C   0  0  0  0  0  3  0  0  0  0  0  0
  161.1550  206.4850  150.1630 C   0  0  0  0  0  0  0  0  0  0  0  0
  161.8740  206.0640  147.4790 C   0  0  0  0  0  0  0  0  0  0  0  0
  162.0550  207.3220  148.0670 C   0  0  0  0  0  3  0  0  0  0  0  0
  160.9730  205.2220  149.5790 C   0  0  0  0  0  0  0  0  0  0  0  0
  161.3350  205.0210  148.2370 C   0  0  0  0  0  3  0  0  0  0  0  0
  162.2310  205.8240  146.1150 N   0  0  0  0  0  2  0  0  0  0  0  0
  162.5690  204.5040  145.6080 C   0  0  0  0  0  2  0  0  0  0  0  0
  160.4640  204.3920  144.5090 O   0  0  0  0  0  0  0  0  0  0  0  0
  161.3270  203.7920  145.2040 C   0  0  0  0  0  0  0  0  0  0  0  0
  160.0790  201.6760  145.0950 C   0  0  0  0  0  1  0  0  0  0  0  0
  161.1180  202.4800  145.6300 O   0  0  0  0  0  0  0  0  0  0  0  0
  160.4310  204.1870  150.3470 O   0  0  0  0  0  0  0  0  0  0  0  0
  161.1910  203.4540  151.3000 C   0  0  0  0  0  2  0  0  0  0  0  0
  161.2060  201.9850  150.9230 C   0  0  0  0  0  2  0  0  0  0  0  0
  161.2070  201.0540  148.7870 C   0  0  0  0  0  1  0  0  0  0  0  0
  160.3840  201.7690  149.7440 N   0  0  0  0  0  2  0  0  0  0  0  0
  160.7910  206.6740  151.5000 O   0  0  0  0  0  0  0  0  0  0  0  0
  161.6810  207.2030  152.4740 C   0  0  0  0  0  2  0  0  0  0  0  0
  160.8830  208.3680  154.5400 C   0  0  0  0  0  3  0  0  0  0  0  0
  158.9470  212.7200  154.7540 O   0  0  0  0  0  0  0  0  0  0  0  0
  160.0900  210.6020  153.0240 C   0  0  0  0  0  3  0  0  0  0  0  0
  161.0480  208.3690  153.1460 C   0  0  0  0  0  0  0  0  0  0  0  0
  160.3150  209.4840  155.1580 C   0  0  0  0  0  0  0  0  0  0  0  0
  159.3260  211.2390  156.9640 S   0  0  0  0  0  0  0  0  0  0  0  0
  160.6590  209.4870  152.3920 C   0  0  0  0  0  3  0  0  0  0  0  0
  160.0890  209.5960  156.6300 C   0  0  0  0  0  2  0  0  0  0  0  0
  159.3660  211.6290  155.2220 C   0  0  0  0  0  0  0  0  0  0  0  0
  159.9260  210.5760  154.4110 C   0  0  0  0  0  0  0  0  0  0  0  0
  1  2  1  0  0  0  0
  2 18  1  0  0  0  0
  3  4  1  0  0  0  0
  3  6  2  0  0  0  0
  4  1  2  0  0  0  0
  5  2  2  0  0  0  0
  5 13  1  0  0  0  0
  6  5  1  0  0  0  0
  7  3  1  0  0  0  0
  8  7  1  0  0  0  0
  9 10  2  0  0  0  0
 10  8  1  0  0  0  0
 10 12  1  0  0  0  0
 11 12  1  0  0  0  0
 13 14  1  0  0  0  0
 15 14  1  0  0  0  0
 16 17  1  0  0  0  0
 17 15  1  0  0  0  0
 18 19  1  0  0  0  0
 19 23  1  0  0  0  0
 20 24  1  0  0  0  0
 21 28  2  0  0  0  0
 22 29  1  0  0  0  0
 23 20  2  0  0  0  0
 24 27  1  0  0  0  0
 26 22  2  0  0  0  0
 26 23  1  0  0  0  0
 27 25  1  0  0  0  0
 28 25  1  0  0  0  0
 29 24  2  0  0  0  0
 29 28  1  0  0  0  0
M  END
>  <MODEL>
6

>  <REMARK>
 VINA RESULT:      -7.2      3.594      9.281
  Name = 
  11 active torsions:
  status: ('A' for Active; 'I' for Inactive)
    1  A    between atoms: C_2  and  O_26
    2  A    between atoms: C_4  and  N_17
    3  A    between atoms: C_9  and  C_16
    4  A    between atoms: C_9  and  O_25
    5  A    between atoms: C_10  and  C_23
    6  A    between atoms: C_16  and  N_17
    7  A    between atoms: O_18  and  C_19
    8  A    between atoms: O_18  and  C_22
    9  A    between atoms: C_22  and  C_29
   10  A    between atoms: C_23  and  O_26
   11  A    between atoms: N_28  and  C_29
                            x       y       z     vdW  Elec       q    Type
                         _______ _______ _______ _____ _____    ______ ____

>  <TORSDO>
F 11

$$$$
=
 OpenBabel11042423103D

 29 31  0  0  0  0  0  0  0  0999 V2000
  161.3900  207.8660  151.9600 C   0  0  0  0  0  3  0  0  0  0  0  0
  161.8660  208.5430  150.8260 C   0  0  0  0  0  0  0  0  0  0  0  0
  160.8830  209.9790  153.0340 C   0  0  0  0  0  0  0  0  0  0  0  0
  160.9010  208.5790  153.0560 C   0  0  0  0  0  3  0  0  0  0  0  0
  161.8520  209.9460  150.8000 C   0  0  0  0  0  0  0  0  0  0  0  0
  161.3590  210.6560  151.9070 C   0  0  0  0  0  3  0  0  0  0  0  0
  160.3890  210.7330  154.1440 N   0  0  0  0  0  2  0  0  0  0  0  0
  159.7680  210.1140  155.3050 C   0  0  0  0  0  2  0  0  0  0  0  0
  158.5570  211.2550  157.0030 O   0  0  0  0  0  0  0  0  0  0  0  0
  158.6430  210.9630  155.7790 C   0  0  0  0  0  0  0  0  0  0  0  0
  156.3030  211.0810  155.0320 C   0  0  0  0  0  1  0  0  0  0  0  0
  157.6780  211.3950  154.8700 O   0  0  0  0  0  0  0  0  0  0  0  0
  162.3290  210.6110  149.6660 O   0  0  0  0  0  0  0  0  0  0  0  0
  161.7050  211.7740  149.1350 C   0  0  0  0  0  2  0  0  0  0  0  0
  162.5140  212.3010  147.9660 C   0  0  0  0  0  2  0  0  0  0  0  0
  160.4670  212.2050  146.8560 C   0  0  0  0  0  1  0  0  0  0  0  0
  161.6470  213.0260  147.0520 N   0  0  0  0  0  2  0  0  0  0  0  0
  162.3590  207.8470  149.7180 O   0  0  0  0  0  0  0  0  0  0  0  0
  161.5580  207.5330  148.5870 C   0  0  0  0  0  2  0  0  0  0  0  0
  161.0640  205.2700  149.5340 C   0  0  0  0  0  3  0  0  0  0  0  0
  161.2070  201.1320  147.1700 O   0  0  0  0  0  0  0  0  0  0  0  0
  161.5900  204.0680  147.0450 C   0  0  0  0  0  3  0  0  0  0  0  0
  161.4580  206.0570  148.4410 C   0  0  0  0  0  0  0  0  0  0  0  0
  160.9460  203.8890  149.3700 C   0  0  0  0  0  0  0  0  0  0  0  0
  160.5210  201.2460  149.7660 S   0  0  0  0  0  0  0  0  0  0  0  0
  161.7130  205.4570  147.1970 C   0  0  0  0  0  3  0  0  0  0  0  0
  160.5370  202.9520  150.4590 C   0  0  0  0  0  2  0  0  0  0  0  0
  161.0280  201.8730  148.1730 C   0  0  0  0  0  0  0  0  0  0  0  0
  161.2060  203.3040  148.1490 C   0  0  0  0  0  0  0  0  0  0  0  0
  1  4  1  0  0  0  0
  2  1  2  0  0  0  0
  3  4  2  0  0  0  0
  3  7  1  0  0  0  0
  5  2  1  0  0  0  0
  5  6  2  0  0  0  0
  6  3  1  0  0  0  0
  7  8  1  0  0  0  0
  8 10  1  0  0  0  0
 10  9  2  0  0  0  0
 12 11  1  0  0  0  0
 12 10  1  0  0  0  0
 13  5  1  0  0  0  0
 14 13  1  0  0  0  0
 15 14  1  0  0  0  0
 16 17  1  0  0  0  0
 17 15  1  0  0  0  0
 18  2  1  0  0  0  0
 19 18  1  0  0  0  0
 21 28  2  0  0  0  0
 22 26  2  0  0  0  0
 22 29  1  0  0  0  0
 23 19  1  0  0  0  0
 23 20  2  0  0  0  0
 24 20  1  0  0  0  0
 24 27  1  0  0  0  0
 25 27  1  0  0  0  0
 26 23  1  0  0  0  0
 28 25  1  0  0  0  0
 29 28  1  0  0  0  0
 29 24  2  0  0  0  0
M  END
>  <MODEL>
7

>  <REMARK>
 VINA RESULT:      -7.1      2.174      3.243
  Name = 
  11 active torsions:
  status: ('A' for Active; 'I' for Inactive)
    1  A    between atoms: C_2  and  O_26
    2  A    between atoms: C_4  and  N_17
    3  A    between atoms: C_9  and  C_16
    4  A    between atoms: C_9  and  O_25
    5  A    between atoms: C_10  and  C_23
    6  A    between atoms: C_16  and  N_17
    7  A    between atoms: O_18  and  C_19
    8  A    between atoms: O_18  and  C_22
    9  A    between atoms: C_22  and  C_29
   10  A    between atoms: C_23  and  O_26
   11  A    between atoms: N_28  and  C_29
                            x       y       z     vdW  Elec       q    Type
                         _______ _______ _______ _____ _____    ______ ____

>  <TORSDO>
F 11

$$$$
=
 OpenBabel11042423103D

 29 31  0  0  0  0  0  0  0  0999 V2000
  161.8970  207.7260  151.1340 C   0  0  0  0  0  3  0  0  0  0  0  0
  161.6310  206.9060  152.2410 C   0  0  0  0  0  0  0  0  0  0  0  0
  161.0990  209.6640  152.3520 C   0  0  0  0  0  0  0  0  0  0  0  0
  161.6330  209.0960  151.1890 C   0  0  0  0  0  3  0  0  0  0  0  0
  161.0940  207.4700  153.4080 C   0  0  0  0  0  0  0  0  0  0  0  0
  160.8320  208.8490  153.4550 C   0  0  0  0  0  3  0  0  0  0  0  0
  160.8200  211.0640  152.4340 N   0  0  0  0  0  2  0  0  0  0  0  0
  160.1680  211.6730  153.5820 C   0  0  0  0  0  2  0  0  0  0  0  0
  158.4370  213.2670  153.9200 O   0  0  0  0  0  0  0  0  0  0  0  0
  159.2860  212.7800  153.1250 C   0  0  0  0  0  0  0  0  0  0  0  0
  158.2580  213.3070  150.9550 C   0  0  0  0  0  1  0  0  0  0  0  0
  159.3860  213.2410  151.8130 O   0  0  0  0  0  0  0  0  0  0  0  0
  160.8330  206.6440  154.5060 O   0  0  0  0  0  0  0  0  0  0  0  0
  159.9120  206.9930  155.5320 C   0  0  0  0  0  2  0  0  0  0  0  0
  160.6630  207.2790  156.8190 C   0  0  0  0  0  2  0  0  0  0  0  0
  162.0690  209.1350  156.9200 C   0  0  0  0  0  1  0  0  0  0  0  0
  160.6890  208.7110  157.0670 N   0  0  0  0  0  2  0  0  0  0  0  0
  161.8880  205.5320  152.2050 O   0  0  0  0  0  0  0  0  0  0  0  0
  160.8600  204.5580  152.0860 C   0  0  0  0  0  2  0  0  0  0  0  0
  161.2040  204.7330  149.6140 C   0  0  0  0  0  3  0  0  0  0  0  0
  161.0580  201.1380  146.4850 O   0  0  0  0  0  0  0  0  0  0  0  0
  160.7960  201.9650  149.3190 C   0  0  0  0  0  3  0  0  0  0  0  0
  160.9130  203.9400  150.7340 C   0  0  0  0  0  0  0  0  0  0  0  0
  161.2810  204.1310  148.3560 C   0  0  0  0  0  0  0  0  0  0  0  0
  161.5780  203.6580  145.7090 S   0  0  0  0  0  0  0  0  0  0  0  0
  160.7170  202.5570  150.5870 C   0  0  0  0  0  3  0  0  0  0  0  0
  161.5820  204.8710  147.0940 C   0  0  0  0  0  2  0  0  0  0  0  0
  161.2000  202.3360  146.8480 C   0  0  0  0  0  0  0  0  0  0  0  0
  161.0780  202.7740  148.2160 C   0  0  0  0  0  0  0  0  0  0  0  0
  1  4  2  0  0  0  0
  1  2  1  0  0  0  0
  2  5  2  0  0  0  0
  3  7  1  0  0  0  0
  3  6  2  0  0  0  0
  4  3  1  0  0  0  0
  5  6  1  0  0  0  0
  5 13  1  0  0  0  0
  7  8  1  0  0  0  0
 10  8  1  0  0  0  0
 10  9  2  0  0  0  0
 11 12  1  0  0  0  0
 12 10  1  0  0  0  0
 13 14  1  0  0  0  0
 14 15  1  0  0  0  0
 15 17  1  0  0  0  0
 16 17  1  0  0  0  0
 18  2  1  0  0  0  0
 19 18  1  0  0  0  0
 20 23  1  0  0  0  0
 21 28  2  0  0  0  0
 22 26  1  0  0  0  0
 23 19  1  0  0  0  0
 24 20  2  0  0  0  0
 25 28  1  0  0  0  0
 25 27  1  0  0  0  0
 26 23  2  0  0  0  0
 27 24  1  0  0  0  0
 28 29  1  0  0  0  0
 29 24  1  0  0  0  0
 29 22  2  0  0  0  0
M  END
>  <MODEL>
8

>  <REMARK>
 VINA RESULT:      -7.0      1.669      3.539
  Name = 
  11 active torsions:
  status: ('A' for Active; 'I' for Inactive)
    1  A    between atoms: C_2  and  O_26
    2  A    between atoms: C_4  and  N_17
    3  A    between atoms: C_9  and  C_16
    4  A    between atoms: C_9  and  O_25
    5  A    between atoms: C_10  and  C_23
    6  A    between atoms: C_16  and  N_17
    7  A    between atoms: O_18  and  C_19
    8  A    between atoms: O_18  and  C_22
    9  A    between atoms: C_22  and  C_29
   10  A    between atoms: C_23  and  O_26
   11  A    between atoms: N_28  and  C_29
                            x       y       z     vdW  Elec       q    Type
                         _______ _______ _______ _____ _____    ______ ____

>  <TORSDO>
F 11

$$$$
=
 OpenBabel11042423103D

 29 31  0  0  0  0  0  0  0  0999 V2000
  162.1670  208.4610  149.2180 C   0  0  0  0  0  3  0  0  0  0  0  0
  162.1450  208.3030  150.6130 C   0  0  0  0  0  0  0  0  0  0  0  0
  161.9560  210.8630  149.4660 C   0  0  0  0  0  0  0  0  0  0  0  0
  162.0730  209.7320  148.6490 C   0  0  0  0  0  3  0  0  0  0  0  0
  162.0260  209.4330  151.4360 C   0  0  0  0  0  0  0  0  0  0  0  0
  161.9330  210.7080  150.8550 C   0  0  0  0  0  3  0  0  0  0  0  0
  161.8590  212.1760  148.9080 N   0  0  0  0  0  2  0  0  0  0  0  0
  162.7060  212.6360  147.8190 C   0  0  0  0  0  2  0  0  0  0  0  0
  162.2910  213.7550  145.7630 O   0  0  0  0  0  0  0  0  0  0  0  0
  161.8660  212.9450  146.6310 C   0  0  0  0  0  0  0  0  0  0  0  0
  159.7680  212.6130  145.3920 C   0  0  0  0  0  1  0  0  0  0  0  0
  160.6040  212.3630  146.5110 O   0  0  0  0  0  0  0  0  0  0  0  0
  162.0060  209.2660  152.8250 O   0  0  0  0  0  0  0  0  0  0  0  0
  161.5330  210.2680  153.7150 C   0  0  0  0  0  2  0  0  0  0  0  0
  161.0070  209.6210  154.9820 C   0  0  0  0  0  2  0  0  0  0  0  0
  160.4810  207.5970  156.0120 C   0  0  0  0  0  1  0  0  0  0  0  0
  160.6570  208.2350  154.7200 N   0  0  0  0  0  2  0  0  0  0  0  0
  162.2380  207.0390  151.2020 O   0  0  0  0  0  0  0  0  0  0  0  0
  161.0980  206.2570  151.5320 C   0  0  0  0  0  2  0  0  0  0  0  0
  161.1910  205.2230  149.2550 C   0  0  0  0  0  3  0  0  0  0  0  0
  160.8360  200.5760  148.2500 O   0  0  0  0  0  0  0  0  0  0  0  0
  160.8330  202.6600  150.3580 C   0  0  0  0  0  3  0  0  0  0  0  0
  161.0340  205.0680  150.6400 C   0  0  0  0  0  0  0  0  0  0  0  0
  161.1600  204.0930  148.4360 C   0  0  0  0  0  0  0  0  0  0  0  0
  161.2070  202.4080  146.3190 S   0  0  0  0  0  0  0  0  0  0  0  0
  160.8630  203.7870  151.1910 C   0  0  0  0  0  3  0  0  0  0  0  0
  161.3130  204.1350  146.9510 C   0  0  0  0  0  2  0  0  0  0  0  0
  160.9800  201.7980  147.9820 C   0  0  0  0  0  0  0  0  0  0  0  0
  160.9820  202.8390  148.9810 C   0  0  0  0  0  0  0  0  0  0  0  0
  1  2  1  0  0  0  0
  2 18  1  0  0  0  0
  2  5  2  0  0  0  0
  3  6  2  0  0  0  0
  4  1  2  0  0  0  0
  4  3  1  0  0  0  0
  5 13  1  0  0  0  0
  6  5  1  0  0  0  0
  7  3  1  0  0  0  0
  8  7  1  0  0  0  0
  9 10  2  0  0  0  0
 10  8  1  0  0  0  0
 11 12  1  0  0  0  0
 12 10  1  0  0  0  0
 13 14  1  0  0  0  0
 14 15  1  0  0  0  0
 17 15  1  0  0  0  0
 17 16  1  0  0  0  0
 18 19  1  0  0  0  0
 20 23  1  0  0  0  0
 22 26  1  0  0  0  0
 23 26  2  0  0  0  0
 23 19  1  0  0  0  0
 24 29  1  0  0  0  0
 24 20  2  0  0  0  0
 25 27  1  0  0  0  0
 25 28  1  0  0  0  0
 27 24  1  0  0  0  0
 28 21  2  0  0  0  0
 28 29  1  0  0  0  0
 29 22  2  0  0  0  0
M  END
>  <MODEL>
9

>  <REMARK>
 VINA RESULT:      -7.0      2.441      4.993
  Name = 
  11 active torsions:
  status: ('A' for Active; 'I' for Inactive)
    1  A    between atoms: C_2  and  O_26
    2  A    between atoms: C_4  and  N_17
    3  A    between atoms: C_9  and  C_16
    4  A    between atoms: C_9  and  O_25
    5  A    between atoms: C_10  and  C_23
    6  A    between atoms: C_16  and  N_17
    7  A    between atoms: O_18  and  C_19
    8  A    between atoms: O_18  and  C_22
    9  A    between atoms: C_22  and  C_29
   10  A    between atoms: C_23  and  O_26
   11  A    between atoms: N_28  and  C_29
                            x       y       z     vdW  Elec       q    Type
                         _______ _______ _______ _____ _____    ______ ____

>  <TORSDO>
F 11

$$$$
