=
 OpenBabel11052410433D

 35 40  0  0  1  0  0  0  0  0999 V2000
  161.7430  205.3100  150.6640 N   0  0  0  0  0  0  0  0  0  0  0  0
  161.6040  208.7720  152.1170 C   0  0  0  0  0  0  0  0  0  0  0  0
  161.3150  206.4920  153.1260 C   0  0  0  0  0  0  0  0  0  0  0  0
  160.5730  208.5260  154.3770 C   0  0  2  0  0  3  0  0  0  0  0  0
  161.7510  211.7420  149.8140 C   0  0  0  0  0  3  0  0  0  0  0  0
  161.7720  209.5400  151.0260 C   0  0  0  0  0  0  0  0  0  0  0  0
  161.4910  204.5250  151.7470 C   0  0  0  0  0  0  0  0  0  0  0  0
  161.1220  207.1020  154.4850 C   0  0  0  0  0  2  0  0  0  0  0  0
  161.7980  206.6700  150.7540 C   0  0  0  0  0  0  0  0  0  0  0  0
  161.8440  211.0840  148.6560 C   0  0  0  0  0  0  0  0  0  0  0  0
  161.4680  209.3890  153.4860 C   0  0  0  0  0  2  0  0  0  0  0  0
  161.9710  209.6550  148.6240 N   0  0  0  0  0  0  0  0  0  0  0  0
  161.5860  207.2900  151.9990 C   0  0  0  0  0  0  0  0  0  0  0  0
  161.8320  211.0440  151.1420 C   0  0  0  0  0  3  0  0  0  0  0  0
  161.9450  208.9100  149.6920 C   0  0  2  0  0  3  0  0  0  0  0  0
  162.0590  207.4750  149.5840 N   0  0  0  0  0  0  0  0  0  0  0  0
  161.2810  205.1050  152.9980 C   0  0  0  0  0  3  0  0  0  0  0  0
  160.4170  209.1290  155.7010 N   0  0  0  0  0  0  0  0  0  0  0  0
  158.8220  210.6480  154.9100 O   0  0  0  0  0  0  0  0  0  0  0  0
  159.4960  210.2150  155.8850 C   0  0  0  0  0  0  0  0  0  0  0  0
  159.3090  210.8500  157.2240 C   0  0  0  0  0  1  0  0  0  0  0  0
  161.2030  208.6270  156.8250 C   0  0  0  0  0  1  0  0  0  0  0  0
  161.0130  206.9900  147.4170 C   0  0  0  0  0  2  0  0  0  0  0  0
  162.2590  206.8370  148.2750 C   0  0  0  0  0  3  0  0  0  0  0  0
  161.2950  205.6730  148.0920 C   0  0  0  0  0  2  0  0  0  0  0  0
  161.7910  211.8460  147.3770 C   0  0  0  0  0  2  0  0  0  0  0  0
  160.4670  212.1770  147.0820 O   0  0  0  0  0  1  0  0  0  0  0  0
  161.4540  203.0420  151.6060 C   0  0  0  0  0  2  0  0  0  0  0  0
  160.2150  202.6090  150.8400 C   0  0  0  0  0  2  0  0  0  0  0  0
  160.8200  201.5770  147.5250 C   0  0  0  0  0  0  0  0  0  0  0  0
  160.3160  202.4480  148.3650 O   0  0  0  0  0  0  0  0  0  0  0  0
  160.6040  201.9700  149.5520 C   0  0  0  0  0  0  0  0  0  0  0  0
  161.4180  200.5580  148.1700 N   0  0  0  0  0  0  0  0  0  0  0  0
  161.2790  200.8090  149.4650 N   0  0  0  0  0  0  0  0  0  0  0  0
  160.7490  201.6970  146.0440 C   0  0  0  0  0  1  0  0  0  0  0  0
  1  9  2  0  0  0  0
  1  7  1  0  0  0  0
  2 11  1  0  0  0  0
  3  8  1  0  0  0  0
  4  8  1  0  0  0  0
  4 18  1  1  0  0  0
  5 14  2  0  0  0  0
  6 14  1  0  0  0  0
  6  2  2  0  0  0  0
  7 17  2  0  0  0  0
  9 13  1  0  0  0  0
 10  5  1  0  0  0  0
 11  4  1  0  0  0  0
 12 10  2  0  0  0  0
 13  2  1  0  0  0  0
 13  3  2  0  0  0  0
 15 12  1  6  0  0  0
 15  6  1  0  0  0  0
 16 15  1  0  0  0  0
 16  9  1  0  0  0  0
 17  3  1  0  0  0  0
 18 20  1  0  0  0  0
 18 22  1  0  0  0  0
 19 20  2  0  0  0  0
 20 21  1  0  0  0  0
 23 25  1  0  0  0  0
 23 24  1  0  0  0  0
 24 16  1  0  0  0  0
 25 24  1  0  0  0  0
 26 10  1  0  0  0  0
 27 26  1  0  0  0  0
 28  7  1  0  0  0  0
 29 28  1  0  0  0  0
 30 33  2  0  0  0  0
 30 31  1  0  0  0  0
 31 32  1  0  0  0  0
 32 29  1  0  0  0  0
 33 34  1  0  0  0  0
 34 32  2  0  0  0  0
 35 30  1  0  0  0  0
M  END
>  <MODEL>
1

>  <REMARK>
 VINA RESULT:      -9.2      0.000      0.000
  Name = 
  6 active torsions:
  status: ('A' for Active; 'I' for Inactive)
    1  A    between atoms: N_1  and  C_10
    2  A    between atoms: C_3  and  C_8
    3  A    between atoms: C_3  and  C_24
    4  A    between atoms: C_9  and  CA_21
    5  A    between atoms: C_13  and  C_24
    6  A    between atoms: C_15  and  N_32
                            x       y       z     vdW  Elec       q    Type
                         _______ _______ _______ _____ _____    ______ ____

>  <TORSDO>
F 6

$$$$
=
 OpenBabel11052410433D

 35 40  0  0  1  0  0  0  0  0999 V2000
  162.0510  208.7880  148.6650 N   0  0  0  0  0  0  0  0  0  0  0  0
  160.9990  206.5820  151.5170 C   0  0  0  0  0  0  0  0  0  0  0  0
  161.5310  209.0300  151.3690 C   0  0  0  0  0  0  0  0  0  0  0  0
  161.4270  207.8960  153.5950 C   0  0  2  0  0  3  0  0  0  0  0  0
  160.7810  202.8640  150.9850 C   0  0  0  0  0  3  0  0  0  0  0  0
  160.9520  205.3720  150.9320 C   0  0  0  0  0  0  0  0  0  0  0  0
  162.1840  210.0020  149.2640 C   0  0  0  0  0  0  0  0  0  0  0  0
  161.2140  209.2020  152.8270 C   0  0  0  0  0  2  0  0  0  0  0  0
  161.6620  207.6780  149.3560 C   0  0  0  0  0  0  0  0  0  0  0  0
  161.1500  202.8300  149.7030 C   0  0  0  0  0  0  0  0  0  0  0  0
  160.6240  206.7570  152.9670 C   0  0  0  0  0  2  0  0  0  0  0  0
  161.3700  204.0410  148.9640 N   0  0  0  0  0  0  0  0  0  0  0  0
  161.3890  207.7820  150.7330 C   0  0  0  0  0  0  0  0  0  0  0  0
  160.5170  204.1540  151.7110 C   0  0  0  0  0  3  0  0  0  0  0  0
  161.2860  205.2280  149.4920 C   0  0  2  0  0  3  0  0  0  0  0  0
  161.5390  206.4030  148.6920 N   0  0  0  0  0  0  0  0  0  0  0  0
  161.9170  210.1440  150.6260 C   0  0  0  0  0  3  0  0  0  0  0  0
  161.0860  208.0600  155.0090 N   0  0  0  0  0  0  0  0  0  0  0  0
  162.3620  210.0160  155.1720 O   0  0  0  0  0  0  0  0  0  0  0  0
  161.6110  209.1770  155.7430 C   0  0  0  0  0  0  0  0  0  0  0  0
  161.2800  209.3770  157.1850 C   0  0  0  0  0  1  0  0  0  0  0  0
  160.2200  207.0840  155.6660 C   0  0  0  0  0  1  0  0  0  0  0  0
  160.5870  206.5040  146.4310 C   0  0  0  0  0  2  0  0  0  0  0  0
  161.8430  206.2810  147.2590 C   0  0  0  0  0  3  0  0  0  0  0  0
  161.0950  205.1030  146.6500 C   0  0  0  0  0  2  0  0  0  0  0  0
  161.3610  201.5150  149.0380 C   0  0  0  0  0  2  0  0  0  0  0  0
  160.8920  201.5710  147.7240 O   0  0  0  0  0  1  0  0  0  0  0  0
  162.5980  211.1920  148.4660 C   0  0  0  0  0  2  0  0  0  0  0  0
  161.4750  212.2140  148.4120 C   0  0  0  0  0  2  0  0  0  0  0  0
  160.2260  212.6900  145.1510 C   0  0  0  0  0  0  0  0  0  0  0  0
  160.0860  212.1920  146.3550 O   0  0  0  0  0  0  0  0  0  0  0  0
  161.1660  212.5640  146.9970 C   0  0  0  0  0  0  0  0  0  0  0  0
  161.3820  213.3680  145.0300 N   0  0  0  0  0  0  0  0  0  0  0  0
  161.9830  213.2870  146.2090 N   0  0  0  0  0  0  0  0  0  0  0  0
  159.2330  212.5350  144.0540 C   0  0  0  0  0  1  0  0  0  0  0  0
  1  7  2  0  0  0  0
  1  9  1  0  0  0  0
  2 11  1  0  0  0  0
  3  8  1  0  0  0  0
  4 18  1  1  0  0  0
  5 14  2  0  0  0  0
  6  2  2  0  0  0  0
  6 14  1  0  0  0  0
  7 17  1  0  0  0  0
  8  4  1  0  0  0  0
  9 13  2  0  0  0  0
 10  5  1  0  0  0  0
 11  4  1  0  0  0  0
 12 10  2  0  0  0  0
 13  3  1  0  0  0  0
 13  2  1  0  0  0  0
 15 12  1  1  0  0  0
 15  6  1  0  0  0  0
 16  9  1  0  0  0  0
 16 15  1  0  0  0  0
 17  3  2  0  0  0  0
 18 22  1  0  0  0  0
 18 20  1  0  0  0  0
 19 20  2  0  0  0  0
 20 21  1  0  0  0  0
 23 25  1  0  0  0  0
 23 24  1  0  0  0  0
 24 16  1  0  0  0  0
 25 24  1  0  0  0  0
 26 10  1  0  0  0  0
 27 26  1  0  0  0  0
 28  7  1  0  0  0  0
 29 28  1  0  0  0  0
 30 31  1  0  0  0  0
 31 32  1  0  0  0  0
 32 29  1  0  0  0  0
 33 30  2  0  0  0  0
 33 34  1  0  0  0  0
 34 32  2  0  0  0  0
 35 30  1  0  0  0  0
M  END
>  <MODEL>
2

>  <REMARK>
 VINA RESULT:      -9.1      1.900      6.838
  Name = 
  6 active torsions:
  status: ('A' for Active; 'I' for Inactive)
    1  A    between atoms: N_1  and  C_10
    2  A    between atoms: C_3  and  C_8
    3  A    between atoms: C_3  and  C_24
    4  A    between atoms: C_9  and  CA_21
    5  A    between atoms: C_13  and  C_24
    6  A    between atoms: C_15  and  N_32
                            x       y       z     vdW  Elec       q    Type
                         _______ _______ _______ _____ _____    ______ ____

>  <TORSDO>
F 6

$$$$
=
 OpenBabel11052410433D

 35 40  0  0  1  0  0  0  0  0999 V2000
  161.8250  210.6670  150.3400 N   0  0  0  0  0  0  0  0  0  0  0  0
  161.5300  207.0630  151.3610 C   0  0  0  0  0  0  0  0  0  0  0  0
  161.8780  208.1770  149.1390 C   0  0  0  0  0  0  0  0  0  0  0  0
  161.1800  205.7790  149.2490 C   0  0  2  0  0  3  0  0  0  0  0  0
  160.5970  206.2250  154.9070 C   0  0  0  0  0  3  0  0  0  0  0  0
  161.2810  207.1650  152.6780 C   0  0  0  0  0  0  0  0  0  0  0  0
  161.9920  210.5790  148.9930 C   0  0  0  0  0  0  0  0  0  0  0  0
  161.9550  206.8390  148.4630 C   0  0  0  0  0  2  0  0  0  0  0  0
  161.6860  209.5600  151.1260 C   0  0  0  0  0  0  0  0  0  0  0  0
  160.4850  207.4690  155.3770 C   0  0  0  0  0  0  0  0  0  0  0  0
  161.6620  205.7150  150.6990 C   0  0  0  0  0  2  0  0  0  0  0  0
  160.8230  208.6020  154.5620 N   0  0  0  0  0  0  0  0  0  0  0  0
  161.7140  208.2840  150.5330 C   0  0  0  0  0  0  0  0  0  0  0  0
  161.1330  205.9300  153.5340 C   0  0  0  0  0  3  0  0  0  0  0  0
  161.1950  208.5030  153.3180 C   0  0  2  0  0  3  0  0  0  0  0  0
  161.5010  209.6870  152.5520 N   0  0  0  0  0  0  0  0  0  0  0  0
  162.0300  209.3310  148.3720 C   0  0  0  0  0  3  0  0  0  0  0  0
  161.2850  204.4690  148.6050 N   0  0  0  0  0  0  0  0  0  0  0  0
  160.2980  203.4000  150.4380 O   0  0  0  0  0  0  0  0  0  0  0  0
  160.8070  203.3000  149.2880 C   0  0  0  0  0  0  0  0  0  0  0  0
  160.8950  201.9480  148.6580 C   0  0  0  0  0  1  0  0  0  0  0  0
  161.8790  204.3580  147.2760 C   0  0  0  0  0  1  0  0  0  0  0  0
  160.2180  211.1350  154.0640 C   0  0  0  0  0  2  0  0  0  0  0  0
  161.4490  211.0170  153.1760 C   0  0  0  0  0  3  0  0  0  0  0  0
  160.2210  211.7830  152.7030 C   0  0  0  0  0  2  0  0  0  0  0  0
  159.9780  207.6850  156.7610 C   0  0  0  0  0  2  0  0  0  0  0  0
  160.1320  209.0260  157.1140 O   0  0  0  0  0  1  0  0  0  0  0  0
  162.1540  211.8150  148.1750 C   0  0  0  0  0  2  0  0  0  0  0  0
  161.4520  212.9890  148.8370 C   0  0  0  0  0  2  0  0  0  0  0  0
  158.3310  212.8980  147.2010 C   0  0  0  0  0  0  0  0  0  0  0  0
  159.6030  212.5800  147.2320 O   0  0  0  0  0  0  0  0  0  0  0  0
  160.0420  213.0780  148.3630 C   0  0  0  0  0  0  0  0  0  0  0  0
  157.9700  213.5910  148.2960 N   0  0  0  0  0  0  0  0  0  0  0  0
  159.0630  213.7070  149.0370 N   0  0  0  0  0  0  0  0  0  0  0  0
  157.4000  212.5350  146.0990 C   0  0  0  0  0  1  0  0  0  0  0  0
  1  9  1  0  0  0  0
  2  6  2  0  0  0  0
  3 13  1  0  0  0  0
  4 18  1  6  0  0  0
  4 11  1  0  0  0  0
  5 10  1  0  0  0  0
  6 14  1  0  0  0  0
  7  1  2  0  0  0  0
  8  3  1  0  0  0  0
  8  4  1  0  0  0  0
  9 16  1  0  0  0  0
 10 26  1  0  0  0  0
 11  2  1  0  0  0  0
 12 10  2  0  0  0  0
 13  9  2  0  0  0  0
 13  2  1  0  0  0  0
 14  5  2  0  0  0  0
 15  6  1  6  0  0  0
 15 12  1  0  0  0  0
 16 24  1  0  0  0  0
 16 15  1  0  0  0  0
 17  7  1  0  0  0  0
 17  3  2  0  0  0  0
 18 20  1  0  0  0  0
 20 19  2  0  0  0  0
 21 20  1  0  0  0  0
 22 18  1  0  0  0  0
 24 23  1  0  0  0  0
 25 24  1  0  0  0  0
 25 23  1  0  0  0  0
 26 27  1  0  0  0  0
 28 29  1  0  0  0  0
 28  7  1  0  0  0  0
 30 31  1  0  0  0  0
 30 33  2  0  0  0  0
 31 32  1  0  0  0  0
 32 29  1  0  0  0  0
 32 34  2  0  0  0  0
 33 34  1  0  0  0  0
 35 30  1  0  0  0  0
M  END
>  <MODEL>
3

>  <REMARK>
 VINA RESULT:      -9.0      2.206      8.283
  Name = 
  6 active torsions:
  status: ('A' for Active; 'I' for Inactive)
    1  A    between atoms: N_1  and  C_10
    2  A    between atoms: C_3  and  C_8
    3  A    between atoms: C_3  and  C_24
    4  A    between atoms: C_9  and  CA_21
    5  A    between atoms: C_13  and  C_24
    6  A    between atoms: C_15  and  N_32
                            x       y       z     vdW  Elec       q    Type
                         _______ _______ _______ _____ _____    ______ ____

>  <TORSDO>
F 6

$$$$
=
 OpenBabel11052410433D

 35 40  0  0  1  0  0  0  0  0999 V2000
  161.8350  210.7270  150.4800 N   0  0  0  0  0  0  0  0  0  0  0  0
  161.5720  207.0750  151.3190 C   0  0  0  0  0  0  0  0  0  0  0  0
  161.9210  208.3010  149.1580 C   0  0  0  0  0  0  0  0  0  0  0  0
  161.2480  205.8940  149.1440 C   0  0  2  0  0  3  0  0  0  0  0  0
  160.6290  206.0520  154.8130 C   0  0  0  0  0  3  0  0  0  0  0  0
  161.3160  207.1080  152.6390 C   0  0  0  0  0  0  0  0  0  0  0  0
  162.0110  210.7090  149.1320 C   0  0  0  0  0  0  0  0  0  0  0  0
  162.0160  206.9990  148.4170 C   0  0  0  0  0  2  0  0  0  0  0  0
  161.7040  209.5810  151.2090 C   0  0  0  0  0  0  0  0  0  0  0  0
  160.5010  207.2700  155.3440 C   0  0  0  0  0  0  0  0  0  0  0  0
  161.7230  205.7630  150.5920 C   0  0  0  0  0  2  0  0  0  0  0  0
  160.8310  208.4450  154.5880 N   0  0  0  0  0  0  0  0  0  0  0  0
  161.7490  208.3370  150.5540 C   0  0  0  0  0  0  0  0  0  0  0  0
  161.1750  205.8310  153.4310 C   0  0  0  0  0  3  0  0  0  0  0  0
  161.2120  208.4120  153.3430 C   0  0  2  0  0  3  0  0  0  0  0  0
  161.5100  209.6360  152.6390 N   0  0  0  0  0  0  0  0  0  0  0  0
  162.0660  209.4930  148.4490 C   0  0  0  0  0  3  0  0  0  0  0  0
  161.3700  204.6190  148.4360 N   0  0  0  0  0  0  0  0  0  0  0  0
  160.3660  203.4520  150.2000 O   0  0  0  0  0  0  0  0  0  0  0  0
  160.8910  203.4130  149.0530 C   0  0  0  0  0  0  0  0  0  0  0  0
  160.9970  202.0960  148.3580 C   0  0  0  0  0  1  0  0  0  0  0  0
  161.9840  204.5780  147.1120 C   0  0  0  0  0  1  0  0  0  0  0  0
  160.1850  211.0060  154.1860 C   0  0  0  0  0  2  0  0  0  0  0  0
  161.4390  210.9320  153.3280 C   0  0  0  0  0  3  0  0  0  0  0  0
  160.2250  211.7230  152.8610 C   0  0  0  0  0  2  0  0  0  0  0  0
  159.9840  207.4110  156.7340 C   0  0  0  0  0  2  0  0  0  0  0  0
  160.1170  208.7360  157.1530 O   0  0  0  0  0  1  0  0  0  0  0  0
  162.1650  211.9850  148.3770 C   0  0  0  0  0  2  0  0  0  0  0  0
  160.9330  212.2550  147.5290 C   0  0  0  0  0  2  0  0  0  0  0  0
  162.4460  213.4540  144.5790 C   0  0  0  0  0  0  0  0  0  0  0  0
  162.5320  213.1450  145.8500 O   0  0  0  0  0  0  0  0  0  0  0  0
  161.3370  212.7090  146.1680 C   0  0  0  0  0  0  0  0  0  0  0  0
  161.2120  213.2190  144.0970 N   0  0  0  0  0  0  0  0  0  0  0  0
  160.5030  212.7440  145.1130 N   0  0  0  0  0  0  0  0  0  0  0  0
  163.5690  213.9910  143.7660 C   0  0  0  0  0  1  0  0  0  0  0  0
  1  9  1  0  0  0  0
  2  6  2  0  0  0  0
  3 13  1  0  0  0  0
  4 18  1  6  0  0  0
  4 11  1  0  0  0  0
  5 10  1  0  0  0  0
  6 14  1  0  0  0  0
  7  1  2  0  0  0  0
  8  4  1  0  0  0  0
  8  3  1  0  0  0  0
  9 16  1  0  0  0  0
 10 26  1  0  0  0  0
 11  2  1  0  0  0  0
 12 10  2  0  0  0  0
 13  9  2  0  0  0  0
 13  2  1  0  0  0  0
 14  5  2  0  0  0  0
 15  6  1  6  0  0  0
 15 12  1  0  0  0  0
 16 24  1  0  0  0  0
 16 15  1  0  0  0  0
 17  7  1  0  0  0  0
 17  3  2  0  0  0  0
 18 20  1  0  0  0  0
 20 19  2  0  0  0  0
 21 20  1  0  0  0  0
 22 18  1  0  0  0  0
 24 23  1  0  0  0  0
 25 24  1  0  0  0  0
 25 23  1  0  0  0  0
 26 27  1  0  0  0  0
 28  7  1  0  0  0  0
 29 28  1  0  0  0  0
 30 31  1  0  0  0  0
 31 32  1  0  0  0  0
 32 29  1  0  0  0  0
 33 30  2  0  0  0  0
 33 34  1  0  0  0  0
 34 32  2  0  0  0  0
 35 30  1  0  0  0  0
M  END
>  <MODEL>
4

>  <REMARK>
 VINA RESULT:      -8.9      2.210      8.419
  Name = 
  6 active torsions:
  status: ('A' for Active; 'I' for Inactive)
    1  A    between atoms: N_1  and  C_10
    2  A    between atoms: C_3  and  C_8
    3  A    between atoms: C_3  and  C_24
    4  A    between atoms: C_9  and  CA_21
    5  A    between atoms: C_13  and  C_24
    6  A    between atoms: C_15  and  N_32
                            x       y       z     vdW  Elec       q    Type
                         _______ _______ _______ _____ _____    ______ ____

>  <TORSDO>
F 6

$$$$
=
 OpenBabel11052410433D

 35 40  0  0  1  0  0  0  0  0999 V2000
  160.8310  206.7860  152.4140 N   0  0  0  0  0  0  0  0  0  0  0  0
  161.9470  207.7530  148.9600 C   0  0  0  0  0  0  0  0  0  0  0  0
  161.5800  209.0770  151.0600 C   0  0  0  0  0  0  0  0  0  0  0  0
  161.7800  210.2410  148.8560 C   0  0  2  0  0  3  0  0  0  0  0  0
  161.8570  205.1880  146.2100 C   0  0  0  0  0  3  0  0  0  0  0  0
  161.8610  206.5840  148.3000 C   0  0  0  0  0  0  0  0  0  0  0  0
  160.8330  207.9780  153.0690 C   0  0  0  0  0  0  0  0  0  0  0  0
  162.0240  210.3310  150.3640 C   0  0  0  0  0  2  0  0  0  0  0  0
  161.1940  206.6800  151.1030 C   0  0  0  0  0  0  0  0  0  0  0  0
  161.3850  204.1600  146.9200 C   0  0  0  0  0  0  0  0  0  0  0  0
  162.4480  208.9970  148.2700 C   0  0  0  0  0  2  0  0  0  0  0  0
  161.1940  204.2660  148.3390 N   0  0  0  0  0  0  0  0  0  0  0  0
  161.5820  207.8340  150.3980 C   0  0  0  0  0  0  0  0  0  0  0  0
  162.2690  206.4840  146.8500 C   0  0  0  0  0  2  0  0  0  0  0  0
  161.4040  205.3620  149.0100 C   0  0  0  0  0  0  0  0  0  0  0  0
  161.1720  205.4010  150.4340 N   0  0  0  0  0  0  0  0  0  0  0  0
  161.2170  209.1430  152.4040 C   0  0  0  0  0  3  0  0  0  0  0  0
  162.2440  211.4520  148.1780 N   0  0  0  0  0  0  0  0  0  0  0  0
  160.1000  211.9090  147.3570 O   0  0  0  0  0  0  0  0  0  0  0  0
  161.3130  212.2500  147.4300 C   0  0  0  0  0  0  0  0  0  0  0  0
  161.7520  213.4930  146.7280 C   0  0  0  0  0  1  0  0  0  0  0  0
  163.6500  211.8400  148.2610 C   0  0  0  0  0  1  0  0  0  0  0  0
  161.2060  204.2560  152.6060 C   0  0  0  0  0  2  0  0  0  0  0  0
  160.7470  204.1940  151.1570 C   0  0  0  0  0  3  0  0  0  0  0  0
  161.9560  203.3940  151.6230 C   0  0  0  0  0  2  0  0  0  0  0  0
  161.0290  202.8930  146.2230 C   0  0  0  0  0  2  0  0  0  0  0  0
  160.7300  203.1600  144.8860 O   0  0  0  0  0  1  0  0  0  0  0  0
  160.4430  208.0450  154.5070 C   0  0  0  0  0  2  0  0  0  0  0  0
  160.9460  209.3330  155.1370 C   0  0  0  0  0  2  0  0  0  0  0  0
  158.1220  211.4310  155.3480 C   0  0  0  0  0  0  0  0  0  0  0  0
  158.9400  210.7040  154.6270 O   0  0  0  0  0  0  0  0  0  0  0  0
  159.7990  210.2150  155.4890 C   0  0  0  0  0  0  0  0  0  0  0  0
  158.4590  211.4070  156.6510 N   0  0  0  0  0  0  0  0  0  0  0  0
  159.5310  210.6310  156.7400 N   0  0  0  0  0  0  0  0  0  0  0  0
  156.9620  212.1860  154.8020 C   0  0  0  0  0  1  0  0  0  0  0  0
  1  7  1  0  0  0  0
  2 13  1  0  0  0  0
  3 17  1  0  0  0  0
  4 18  1  6  0  0  0
  4  8  1  0  0  0  0
  5 14  1  0  0  0  0
  5 10  2  0  0  0  0
  6  2  2  0  0  0  0
  6 15  1  0  0  0  0
  7 28  1  0  0  0  0
  8  3  1  0  0  0  0
  9  1  2  0  0  0  0
 10 12  1  0  0  0  0
 11  4  1  0  0  0  0
 11  2  1  0  0  0  0
 12 15  2  0  0  0  0
 13  3  2  0  0  0  0
 13  9  1  0  0  0  0
 14  6  1  0  0  0  0
 15 16  1  0  0  0  0
 16  9  1  0  0  0  0
 16 24  1  0  0  0  0
 17  7  2  0  0  0  0
 18 22  1  0  0  0  0
 19 20  2  0  0  0  0
 20 18  1  0  0  0  0
 21 20  1  0  0  0  0
 24 25  1  0  0  0  0
 24 23  1  0  0  0  0
 25 23  1  0  0  0  0
 26 10  1  0  0  0  0
 27 26  1  0  0  0  0
 28 29  1  0  0  0  0
 29 32  1  0  0  0  0
 30 33  2  0  0  0  0
 31 30  1  0  0  0  0
 31 32  1  0  0  0  0
 32 34  2  0  0  0  0
 33 34  1  0  0  0  0
 35 30  1  0  0  0  0
M  END
>  <MODEL>
5

>  <REMARK>
 VINA RESULT:      -8.6      1.656      7.654
  Name = 
  6 active torsions:
  status: ('A' for Active; 'I' for Inactive)
    1  A    between atoms: N_1  and  C_10
    2  A    between atoms: C_3  and  C_8
    3  A    between atoms: C_3  and  C_24
    4  A    between atoms: C_9  and  CA_21
    5  A    between atoms: C_13  and  C_24
    6  A    between atoms: C_15  and  N_32
                            x       y       z     vdW  Elec       q    Type
                         _______ _______ _______ _____ _____    ______ ____

>  <TORSDO>
F 6

$$$$
=
 OpenBabel11052410433D

 35 40  0  0  1  0  0  0  0  0999 V2000
  162.1280  205.9200  149.2800 N   0  0  0  0  0  0  0  0  0  0  0  0
  161.3100  209.1350  151.0420 C   0  0  0  0  0  0  0  0  0  0  0  0
  161.8770  208.6010  148.6560 C   0  0  0  0  0  0  0  0  0  0  0  0
  161.9650  210.9630  149.4730 C   0  0  2  0  0  3  0  0  0  0  0  0
  160.9630  209.1460  154.7870 C   0  0  0  0  0  3  0  0  0  0  0  0
  161.1810  208.7310  152.3180 C   0  0  0  0  0  0  0  0  0  0  0  0
  162.3440  206.3300  148.0010 C   0  0  0  0  0  0  0  0  0  0  0  0
  161.7060  210.0440  148.2770 C   0  0  0  0  0  2  0  0  0  0  0  0
  161.7840  206.7910  150.2720 C   0  0  0  0  0  0  0  0  0  0  0  0
  161.2060  207.8520  155.0080 C   0  0  0  0  0  0  0  0  0  0  0  0
  161.0810  210.5760  150.6590 C   0  0  0  0  0  2  0  0  0  0  0  0
  161.3780  206.9350  153.9170 N   0  0  0  0  0  0  0  0  0  0  0  0
  161.6480  208.1600  149.9730 C   0  0  0  0  0  0  0  0  0  0  0  0
  160.7980  209.7080  153.4030 C   0  0  0  0  0  3  0  0  0  0  0  0
  161.3710  207.3000  152.6670 C   0  0  2  0  0  3  0  0  0  0  0  0
  161.5700  206.3250  151.6210 N   0  0  0  0  0  0  0  0  0  0  0  0
  162.2130  207.6780  147.6670 C   0  0  0  0  0  3  0  0  0  0  0  0
  161.7650  212.3660  149.1070 N   0  0  0  0  0  0  0  0  0  0  0  0
  163.7290  212.3950  147.8320 O   0  0  0  0  0  0  0  0  0  0  0  0
  162.7210  213.0230  148.2600 C   0  0  0  0  0  0  0  0  0  0  0  0
  162.5470  214.4530  147.8650 C   0  0  0  0  0  1  0  0  0  0  0  0
  160.6010  213.0900  149.6090 C   0  0  0  0  0  1  0  0  0  0  0  0
  160.9280  204.0430  150.9810 C   0  0  0  0  0  2  0  0  0  0  0  0
  161.7320  204.9010  151.9470 C   0  0  0  0  0  3  0  0  0  0  0  0
  160.4010  204.2930  152.3700 C   0  0  0  0  0  2  0  0  0  0  0  0
  161.3230  207.3590  156.4080 C   0  0  0  0  0  2  0  0  0  0  0  0
  160.0700  206.9540  156.8700 O   0  0  0  0  0  1  0  0  0  0  0  0
  162.7030  205.3400  146.9460 C   0  0  0  0  0  2  0  0  0  0  0  0
  161.4540  204.8210  146.2540 C   0  0  0  0  0  2  0  0  0  0  0  0
  161.1460  201.5900  147.6280 C   0  0  0  0  0  0  0  0  0  0  0  0
  161.4230  202.8620  147.7790 O   0  0  0  0  0  0  0  0  0  0  0  0
  161.2400  203.3860  146.5910 C   0  0  0  0  0  0  0  0  0  0  0  0
  160.7940  201.3090  146.3600 N   0  0  0  0  0  0  0  0  0  0  0  0
  160.8550  202.4560  145.6970 N   0  0  0  0  0  0  0  0  0  0  0  0
  161.2060  200.5800  148.7190 C   0  0  0  0  0  1  0  0  0  0  0  0
  1  9  1  0  0  0  0
  2  6  2  0  0  0  0
  3 13  1  0  0  0  0
  4 18  1  6  0  0  0
  4 11  1  0  0  0  0
  5 10  1  0  0  0  0
  6 14  1  0  0  0  0
  7  1  2  0  0  0  0
  8  3  1  0  0  0  0
  8  4  1  0  0  0  0
  9 16  1  0  0  0  0
 10 26  1  0  0  0  0
 11  2  1  0  0  0  0
 12 10  2  0  0  0  0
 13  9  2  0  0  0  0
 13  2  1  0  0  0  0
 14  5  2  0  0  0  0
 15  6  1  1  0  0  0
 15 12  1  0  0  0  0
 16 24  1  0  0  0  0
 16 15  1  0  0  0  0
 17  7  1  0  0  0  0
 17  3  2  0  0  0  0
 18 22  1  0  0  0  0
 19 20  2  0  0  0  0
 20 18  1  0  0  0  0
 21 20  1  0  0  0  0
 23 24  1  0  0  0  0
 23 25  1  0  0  0  0
 24 25  1  0  0  0  0
 26 27  1  0  0  0  0
 28  7  1  0  0  0  0
 29 32  1  0  0  0  0
 29 28  1  0  0  0  0
 30 31  1  0  0  0  0
 30 35  1  0  0  0  0
 32 31  1  0  0  0  0
 33 30  2  0  0  0  0
 34 33  1  0  0  0  0
 34 32  2  0  0  0  0
M  END
>  <MODEL>
6

>  <REMARK>
 VINA RESULT:      -8.6      1.784      5.608
  Name = 
  6 active torsions:
  status: ('A' for Active; 'I' for Inactive)
    1  A    between atoms: N_1  and  C_10
    2  A    between atoms: C_3  and  C_8
    3  A    between atoms: C_3  and  C_24
    4  A    between atoms: C_9  and  CA_21
    5  A    between atoms: C_13  and  C_24
    6  A    between atoms: C_15  and  N_32
                            x       y       z     vdW  Elec       q    Type
                         _______ _______ _______ _____ _____    ______ ____

>  <TORSDO>
F 6

$$$$
=
 OpenBabel11052410433D

 35 40  0  0  1  0  0  0  0  0999 V2000
  161.0780  208.4040  154.3810 N   0  0  0  0  0  0  0  0  0  0  0  0
  161.2080  207.0790  150.8680 C   0  0  0  0  0  0  0  0  0  0  0  0
  160.9260  205.9610  153.0970 C   0  0  0  0  0  0  0  0  0  0  0  0
  161.5190  204.6110  151.0780 C   0  0  2  0  0  3  0  0  0  0  0  0
  162.0760  209.4150  148.0500 C   0  0  0  0  0  3  0  0  0  0  0  0
  161.4510  208.1940  150.1570 C   0  0  0  0  0  0  0  0  0  0  0  0
  160.9170  207.2720  155.1180 C   0  0  0  0  0  0  0  0  0  0  0  0
  160.7970  204.6240  152.4260 C   0  0  0  0  0  2  0  0  0  0  0  0
  161.1620  208.3760  153.0190 C   0  0  0  0  0  0  0  0  0  0  0  0
  162.2380  210.5300  148.7660 C   0  0  0  0  0  0  0  0  0  0  0  0
  161.0230  205.7490  150.1840 C   0  0  0  0  0  2  0  0  0  0  0  0
  161.9560  210.5530  150.1740 N   0  0  0  0  0  0  0  0  0  0  0  0
  161.0830  207.1420  152.3480 C   0  0  0  0  0  0  0  0  0  0  0  0
  161.5390  208.1460  148.6510 C   0  0  0  0  0  2  0  0  0  0  0  0
  161.5890  209.5020  150.8480 C   0  0  0  0  0  0  0  0  0  0  0  0
  161.3410  209.5950  152.2670 N   0  0  0  0  0  0  0  0  0  0  0  0
  160.8300  206.0320  154.4860 C   0  0  0  0  0  3  0  0  0  0  0  0
  161.3630  203.3170  150.4130 N   0  0  0  0  0  0  0  0  0  0  0  0
  161.3590  204.3160  148.2960 O   0  0  0  0  0  0  0  0  0  0  0  0
  161.2880  203.2580  148.9800 C   0  0  0  0  0  0  0  0  0  0  0  0
  161.1320  201.9540  148.2680 C   0  0  0  0  0  1  0  0  0  0  0  0
  161.2770  202.0960  151.2090 C   0  0  0  0  0  1  0  0  0  0  0  0
  160.2120  211.1280  153.8170 C   0  0  0  0  0  2  0  0  0  0  0  0
  161.4460  210.8860  152.9620 C   0  0  0  0  0  3  0  0  0  0  0  0
  160.3520  211.8370  152.4950 C   0  0  0  0  0  2  0  0  0  0  0  0
  162.7420  211.7610  148.0970 C   0  0  0  0  0  2  0  0  0  0  0  0
  161.6970  212.3890  147.4180 O   0  0  0  0  0  1  0  0  0  0  0  0
  160.8150  207.3520  156.6030 C   0  0  0  0  0  2  0  0  0  0  0  0
  161.7350  208.4340  157.1440 C   0  0  0  0  0  2  0  0  0  0  0  0
  159.5120  211.1670  157.2380 C   0  0  0  0  0  0  0  0  0  0  0  0
  159.7130  209.8720  157.2000 O   0  0  0  0  0  0  0  0  0  0  0  0
  161.0170  209.7380  157.2010 C   0  0  0  0  0  0  0  0  0  0  0  0
  160.6740  211.8450  157.2610 N   0  0  0  0  0  0  0  0  0  0  0  0
  161.6350  210.9320  157.2360 N   0  0  0  0  0  0  0  0  0  0  0  0
  158.1710  211.8100  157.2600 C   0  0  0  0  0  1  0  0  0  0  0  0
  1  7  1  0  0  0  0
  2 13  1  0  0  0  0
  3 17  1  0  0  0  0
  4 18  1  6  0  0  0
  4  8  1  0  0  0  0
  5 14  1  0  0  0  0
  5 10  2  0  0  0  0
  6 15  1  0  0  0  0
  6  2  2  0  0  0  0
  7 28  1  0  0  0  0
  8  3  1  0  0  0  0
  9  1  2  0  0  0  0
 10 12  1  0  0  0  0
 11  2  1  0  0  0  0
 11  4  1  0  0  0  0
 12 15  2  0  0  0  0
 13  9  1  0  0  0  0
 13  3  2  0  0  0  0
 14  6  1  0  0  0  0
 15 16  1  0  0  0  0
 16 24  1  0  0  0  0
 16  9  1  0  0  0  0
 17  7  2  0  0  0  0
 18 22  1  0  0  0  0
 19 20  2  0  0  0  0
 20 18  1  0  0  0  0
 21 20  1  0  0  0  0
 24 23  1  0  0  0  0
 25 24  1  0  0  0  0
 25 23  1  0  0  0  0
 26 10  1  0  0  0  0
 27 26  1  0  0  0  0
 28 29  1  0  0  0  0
 29 32  1  0  0  0  0
 30 35  1  0  0  0  0
 30 33  2  0  0  0  0
 31 32  1  0  0  0  0
 31 30  1  0  0  0  0
 32 34  2  0  0  0  0
 34 33  1  0  0  0  0
M  END
>  <MODEL>
7

>  <REMARK>
 VINA RESULT:      -7.6      1.625      7.527
  Name = 
  6 active torsions:
  status: ('A' for Active; 'I' for Inactive)
    1  A    between atoms: N_1  and  C_10
    2  A    between atoms: C_3  and  C_8
    3  A    between atoms: C_3  and  C_24
    4  A    between atoms: C_9  and  CA_21
    5  A    between atoms: C_13  and  C_24
    6  A    between atoms: C_15  and  N_32
                            x       y       z     vdW  Elec       q    Type
                         _______ _______ _______ _____ _____    ______ ____

>  <TORSDO>
F 6

$$$$
=
 OpenBabel11052410433D

 35 40  0  0  1  0  0  0  0  0999 V2000
  161.8570  209.0270  148.6040 N   0  0  0  0  0  0  0  0  0  0  0  0
  161.0430  206.9510  151.6270 C   0  0  0  0  0  0  0  0  0  0  0  0
  161.6120  209.3780  151.3350 C   0  0  0  0  0  0  0  0  0  0  0  0
  161.7030  208.3270  153.6020 C   0  0  2  0  0  3  0  0  0  0  0  0
  160.6920  203.2240  151.2610 C   0  0  0  0  0  3  0  0  0  0  0  0
  160.9120  205.7230  151.0960 C   0  0  0  0  0  0  0  0  0  0  0  0
  162.0750  210.2580  149.1410 C   0  0  0  0  0  0  0  0  0  0  0  0
  161.4440  209.6100  152.8090 C   0  0  0  0  0  2  0  0  0  0  0  0
  161.5130  207.9530  149.3720 C   0  0  0  0  0  0  0  0  0  0  0  0
  160.9310  203.1350  149.9500 C   0  0  0  0  0  0  0  0  0  0  0  0
  160.8170  207.1870  153.0990 C   0  0  0  0  0  2  0  0  0  0  0  0
  161.1040  204.3130  149.1480 N   0  0  0  0  0  0  0  0  0  0  0  0
  161.3800  208.1120  150.7640 C   0  0  0  0  0  0  0  0  0  0  0  0
  160.5290  204.5450  151.9600 C   0  0  0  0  0  3  0  0  0  0  0  0
  161.0980  205.5190  149.6370 C   0  0  2  0  0  3  0  0  0  0  0  0
  161.2970  206.6580  148.7720 N   0  0  0  0  0  0  0  0  0  0  0  0
  161.9470  210.4540  150.5170 C   0  0  0  0  0  3  0  0  0  0  0  0
  161.5070  208.5500  155.0350 N   0  0  0  0  0  0  0  0  0  0  0  0
  160.1560  206.6470  155.2260 O   0  0  0  0  0  0  0  0  0  0  0  0
  160.6960  207.6370  155.7920 C   0  0  0  0  0  0  0  0  0  0  0  0
  160.4770  207.8320  157.2570 C   0  0  0  0  0  1  0  0  0  0  0  0
  162.1290  209.7000  155.6850 C   0  0  0  0  0  1  0  0  0  0  0  0
  162.2330  205.2030  147.0300 C   0  0  0  0  0  2  0  0  0  0  0  0
  161.4550  206.4770  147.3220 C   0  0  0  0  0  3  0  0  0  0  0  0
  162.9260  206.5370  146.9310 C   0  0  0  0  0  2  0  0  0  0  0  0
  161.0460  201.7910  149.3180 C   0  0  0  0  0  2  0  0  0  0  0  0
  160.3000  201.7610  148.1390 O   0  0  0  0  0  1  0  0  0  0  0  0
  162.4340  211.4070  148.2620 C   0  0  0  0  0  2  0  0  0  0  0  0
  161.2350  211.8420  147.4360 C   0  0  0  0  0  2  0  0  0  0  0  0
  159.5260  213.7870  149.8280 C   0  0  0  0  0  0  0  0  0  0  0  0
  160.5770  213.0820  149.4830 O   0  0  0  0  0  0  0  0  0  0  0  0
  160.3290  212.6960  148.2550 C   0  0  0  0  0  0  0  0  0  0  0  0
  158.6230  213.8450  148.8320 N   0  0  0  0  0  0  0  0  0  0  0  0
  159.1360  213.1470  147.8280 N   0  0  0  0  0  0  0  0  0  0  0  0
  159.3520  214.4470  151.1490 C   0  0  0  0  0  1  0  0  0  0  0  0
  1  7  2  0  0  0  0
  1  9  1  0  0  0  0
  2 11  1  0  0  0  0
  3  8  1  0  0  0  0
  4 18  1  1  0  0  0
  5 14  2  0  0  0  0
  6  2  2  0  0  0  0
  6 14  1  0  0  0  0
  7 17  1  0  0  0  0
  8  4  1  0  0  0  0
  9 13  2  0  0  0  0
 10  5  1  0  0  0  0
 11  4  1  0  0  0  0
 12 10  2  0  0  0  0
 13  3  1  0  0  0  0
 13  2  1  0  0  0  0
 15 12  1  1  0  0  0
 15  6  1  0  0  0  0
 16  9  1  0  0  0  0
 16 15  1  0  0  0  0
 17  3  2  0  0  0  0
 18 22  1  0  0  0  0
 18 20  1  0  0  0  0
 19 20  2  0  0  0  0
 20 21  1  0  0  0  0
 23 24  1  0  0  0  0
 24 16  1  0  0  0  0
 25 23  1  0  0  0  0
 25 24  1  0  0  0  0
 26 10  1  0  0  0  0
 27 26  1  0  0  0  0
 28  7  1  0  0  0  0
 29 32  1  0  0  0  0
 29 28  1  0  0  0  0
 30 35  1  0  0  0  0
 31 30  1  0  0  0  0
 32 31  1  0  0  0  0
 33 30  2  0  0  0  0
 34 32  2  0  0  0  0
 34 33  1  0  0  0  0
M  END
>  <MODEL>
8

>  <REMARK>
 VINA RESULT:      -7.2      1.993      7.064
  Name = 
  6 active torsions:
  status: ('A' for Active; 'I' for Inactive)
    1  A    between atoms: N_1  and  C_10
    2  A    between atoms: C_3  and  C_8
    3  A    between atoms: C_3  and  C_24
    4  A    between atoms: C_9  and  CA_21
    5  A    between atoms: C_13  and  C_24
    6  A    between atoms: C_15  and  N_32
                            x       y       z     vdW  Elec       q    Type
                         _______ _______ _______ _____ _____    ______ ____

>  <TORSDO>
F 6

$$$$
=
 OpenBabel11052410433D

 35 40  0  0  1  0  0  0  0  0999 V2000
  161.6820  207.5370  152.9040 N   0  0  0  0  0  0  0  0  0  0  0  0
  160.6210  211.0430  152.0720 C   0  0  0  0  0  0  0  0  0  0  0  0
  161.6340  209.2030  150.6990 C   0  0  0  0  0  0  0  0  0  0  0  0
  161.6240  211.5530  149.8440 C   0  0  2  0  0  3  0  0  0  0  0  0
  159.5390  213.3460  154.8420 C   0  0  0  0  0  3  0  0  0  0  0  0
  160.2300  211.5100  153.2710 C   0  0  0  0  0  0  0  0  0  0  0  0
  162.1580  207.0820  151.7130 C   0  0  0  0  0  0  0  0  0  0  0  0
  161.5810  210.0690  149.4730 C   0  0  0  0  0  2  0  0  0  0  0  0
  161.1730  208.7940  153.0470 C   0  0  0  0  0  0  0  0  0  0  0  0
  159.6970  212.5040  155.8660 C   0  0  0  0  0  0  0  0  0  0  0  0
  160.5120  211.8980  150.8350 C   0  0  0  0  0  2  0  0  0  0  0  0
  160.0570  211.1320  155.6480 N   0  0  0  0  0  0  0  0  0  0  0  0
  161.1360  209.6560  151.9350 C   0  0  0  0  0  0  0  0  0  0  0  0
  159.6670  212.9030  153.4120 C   0  0  0  0  0  2  0  0  0  0  0  0
  160.3070  210.6360  154.4700 C   0  0  0  0  0  0  0  0  0  0  0  0
  160.6830  209.2490  154.3260 N   0  0  0  0  0  0  0  0  0  0  0  0
  162.1330  207.9070  150.5880 C   0  0  0  0  0  3  0  0  0  0  0  0
  161.5390  212.3930  148.6490 N   0  0  0  0  0  0  0  0  0  0  0  0
  163.8350  212.1830  148.2430 O   0  0  0  0  0  0  0  0  0  0  0  0
  162.7250  212.6660  147.8860 C   0  0  0  0  0  0  0  0  0  0  0  0
  162.6750  213.5170  146.6590 C   0  0  0  0  0  1  0  0  0  0  0  0
  160.2530  212.9530  148.2420 C   0  0  0  0  0  1  0  0  0  0  0  0
  160.4230  206.9320  155.0930 C   0  0  0  0  0  2  0  0  0  0  0  0
  160.7370  208.3640  155.4980 C   0  0  0  0  0  3  0  0  0  0  0  0
  159.3680  207.7610  155.7790 C   0  0  0  0  0  2  0  0  0  0  0  0
  159.5210  213.0050  157.2580 C   0  0  0  0  0  2  0  0  0  0  0  0
  158.9630  214.2840  157.2300 O   0  0  0  0  0  1  0  0  0  0  0  0
  162.6920  205.6950  151.5990 C   0  0  0  0  0  2  0  0  0  0  0  0
  161.5920  204.6770  151.8550 C   0  0  0  0  0  2  0  0  0  0  0  0
  160.8710  202.4310  149.2360 C   0  0  0  0  0  0  0  0  0  0  0  0
  161.1310  202.6470  150.5030 O   0  0  0  0  0  0  0  0  0  0  0  0
  161.2660  203.9480  150.5970 C   0  0  0  0  0  0  0  0  0  0  0  0
  160.8430  203.5800  148.5360 N   0  0  0  0  0  0  0  0  0  0  0  0
  161.0960  204.5480  149.4050 N   0  0  0  0  0  0  0  0  0  0  0  0
  160.6290  201.0880  148.6440 C   0  0  0  0  0  1  0  0  0  0  0  0
  1  9  1  0  0  0  0
  2  6  2  0  0  0  0
  3 13  1  0  0  0  0
  4 18  1  6  0  0  0
  4 11  1  0  0  0  0
  5 10  2  0  0  0  0
  6 14  1  0  0  0  0
  6 15  1  0  0  0  0
  7  1  2  0  0  0  0
  8  4  1  0  0  0  0
  8  3  1  0  0  0  0
  9 16  1  0  0  0  0
 10 26  1  0  0  0  0
 11  2  1  0  0  0  0
 12 10  1  0  0  0  0
 13  2  1  0  0  0  0
 13  9  2  0  0  0  0
 14  5  1  0  0  0  0
 15 12  2  0  0  0  0
 16 15  1  0  0  0  0
 16 24  1  0  0  0  0
 17  3  2  0  0  0  0
 17  7  1  0  0  0  0
 20 19  2  0  0  0  0
 20 18  1  0  0  0  0
 21 20  1  0  0  0  0
 22 18  1  0  0  0  0
 23 24  1  0  0  0  0
 23 25  1  0  0  0  0
 24 25  1  0  0  0  0
 27 26  1  0  0  0  0
 28  7  1  0  0  0  0
 28 29  1  0  0  0  0
 30 31  1  0  0  0  0
 31 32  1  0  0  0  0
 32 29  1  0  0  0  0
 33 30  2  0  0  0  0
 33 34  1  0  0  0  0
 34 32  2  0  0  0  0
 35 30  1  0  0  0  0
M  END
>  <MODEL>
9

>  <REMARK>
 VINA RESULT:      -7.1      2.048      6.020
  Name = 
  6 active torsions:
  status: ('A' for Active; 'I' for Inactive)
    1  A    between atoms: N_1  and  C_10
    2  A    between atoms: C_3  and  C_8
    3  A    between atoms: C_3  and  C_24
    4  A    between atoms: C_9  and  CA_21
    5  A    between atoms: C_13  and  C_24
    6  A    between atoms: C_15  and  N_32
                            x       y       z     vdW  Elec       q    Type
                         _______ _______ _______ _____ _____    ______ ____

>  <TORSDO>
F 6

$$$$
