=
 OpenBabel11042423043D

 55 62  0  0  1  0  0  0  0  0999 V2000
  161.4100  204.2930  148.2920 C   0  0  2  0  0  3  0  0  0  0  0  0
  161.5320  203.6780  146.9060 C   0  0  0  0  0  2  0  0  0  0  0  0
  162.4770  204.4910  146.0410 C   0  0  0  0  0  2  0  0  0  0  0  0
  161.8590  204.7280  144.6770 C   0  0  1  0  0  3  0  0  0  0  0  0
  160.1480  206.5950  145.0390 O   0  0  0  0  0  0  0  0  0  0  0  0
  160.6930  204.0210  144.5710 O   0  0  0  0  0  0  0  0  0  0  0  0
  160.7270  205.4960  144.8280 C   0  0  0  0  0  0  0  0  0  0  0  0
  160.4880  203.4450  149.1450 C   0  0  0  0  0  2  0  0  0  0  0  0
  160.9280  202.4410  151.2300 O   0  0  0  0  0  0  0  0  0  0  0  0
  160.9370  203.4690  150.5670 C   0  0  0  0  0  0  0  0  0  0  0  0
  161.1710  205.2530  153.2060 C   0  0  2  0  0  3  0  0  0  0  0  0
  162.6380  204.4800  152.4610 S   0  0  0  0  0  0  0  0  0  0  0  0
  160.3640  205.3520  151.9980 N   0  0  0  0  0  2  0  0  0  0  0  0
  161.4010  204.7640  151.1640 C   0  0  2  0  0  3  0  0  0  0  0  0
  161.5370  206.6460  153.7180 C   0  0  0  0  0  2  0  0  0  0  0  0
  159.4640  210.7070  155.9390 C   0  0  0  0  0  0  0  0  0  0  0  0
  160.3770  208.6600  154.7530 C   0  0  0  0  0  0  0  0  0  0  0  0
  160.3680  208.7990  157.2590 C   0  0  0  0  0  2  0  0  0  0  0  0
  159.4090  211.3810  157.0080 O   0  0  0  0  0  0  0  0  0  0  0  0
  161.0010  206.6670  156.1850 C   0  0  0  0  0  2  0  0  0  0  0  0
  160.4320  209.2550  153.6420 O   0  0  0  0  0  0  0  0  0  0  0  0
  160.0350  209.3830  155.9590 N   0  0  0  0  0  0  0  0  0  0  0  0
  160.1340  207.2970  157.2610 C   0  0  0  0  0  2  0  0  0  0  0  0
  160.5840  207.1640  154.8010 C   0  0  2  0  0  3  0  0  0  0  0  0
  159.7520  212.4090  154.1250 C   0  0  2  0  0  3  0  0  0  0  0  0
  158.8690  211.2840  154.6910 C   0  0  2  0  0  3  0  0  0  0  0  0
  156.7700  212.2480  153.6590 C   0  0  0  0  0  2  0  0  0  0  0  0
  157.7550  212.8240  152.6330 C   0  0  0  0  0  2  0  0  0  0  0  0
  157.4390  211.7590  154.9490 C   0  0  0  0  0  2  0  0  0  0  0  0
  158.9690  213.4490  153.3140 C   0  0  0  0  0  2  0  0  0  0  0  0
  160.7630  211.8580  153.3330 O   0  0  0  0  0  1  0  0  0  0  0  0
  160.8720  205.6440  148.2040 N   0  0  0  0  0  2  0  0  0  0  0  0
  161.6480  206.9960  149.9850 C   0  0  0  0  0  3  0  0  0  0  0  0
  162.4470  208.0900  150.6110 C   0  0  0  0  0  2  0  0  0  0  0  0
  161.9530  209.8610  148.9160 C   0  0  0  0  0  0  0  0  0  0  0  0
  162.4180  209.0040  147.7940 C   0  0  0  0  0  3  0  0  0  0  0  0
  161.5810  206.7970  148.6690 C   0  0  0  0  0  0  0  0  0  0  0  0
  161.9520  209.4310  150.1840 C   0  0  0  0  0  3  0  0  0  0  0  0
  162.2620  207.6790  147.6880 C   0  0  0  0  0  3  0  0  0  0  0  0
  161.3300  212.1740  149.6550 C   0  0  0  0  0  3  0  0  0  0  0  0
  160.9350  213.4800  149.3570 C   0  0  0  0  0  3  0  0  0  0  0  0
  160.7180  213.8480  148.0670 N   0  0  0  0  0  0  0  0  0  0  0  0
  161.2750  211.6570  147.3000 C   0  0  0  0  0  3  0  0  0  0  0  0
  160.8740  212.9670  147.0350 C   0  0  0  0  0  0  0  0  0  0  0  0
  161.5080  211.2440  148.6210 C   0  0  0  0  0  0  0  0  0  0  0  0
  160.3900  212.1640  144.7490 C   0  0  2  0  0  3  0  0  0  0  0  0
  160.6260  213.3630  145.6070 C   0  0  2  0  0  3  0  0  0  0  0  0
  161.7580  212.9180  144.6840 C   0  0  2  0  0  0  0  0  0  0  0  0
  161.7670  213.9990  143.7540 O   0  0  0  0  0  0  0  0  0  0  0  0
  159.2780  212.5860  143.7870 C   0  0  0  0  0  1  0  0  0  0  0  0
  162.3780  212.8500  143.2910 C   0  0  2  0  0  3  0  0  0  0  0  0
  161.5820  212.2510  142.1350 C   0  0  0  0  0  2  0  0  0  0  0  0
  162.2910  212.4940  140.8500 C   0  0  0  0  0  0  0  0  0  0  0  0
  162.0580  211.7600  139.8560 O   0  0  0  0  0  0  0  0  0  0  0  0
  163.1800  213.5560  140.7380 O   0  0  0  0  0  1  0  0  0  0  0  0
  1  2  1  6  0  0  0
  1  8  1  0  0  0  0
  3  2  1  0  0  0  0
  4  7  1  0  0  0  0
  4  3  1  1  0  0  0
  6  4  1  0  0  0  0
  6  7  1  0  0  0  0
  7  5  2  0  0  0  0
  8 10  1  0  0  0  0
 10  9  2  0  0  0  0
 11 15  1  6  0  0  0
 12 11  1  0  0  0  0
 13 11  1  0  0  0  0
 14 10  1  1  0  0  0
 14 13  1  0  0  0  0
 14 12  1  0  0  0  0
 16 22  1  0  0  0  0
 16 19  2  0  0  0  0
 17 24  1  0  0  0  0
 17 22  1  0  0  0  0
 18 23  1  0  0  0  0
 20 23  1  0  0  0  0
 21 17  2  0  0  0  0
 22 18  1  0  0  0  0
 24 15  1  6  0  0  0
 24 20  1  0  0  0  0
 25 31  1  6  0  0  0
 25 26  1  0  0  0  0
 26 29  1  0  0  0  0
 26 16  1  1  0  0  0
 27 29  1  0  0  0  0
 28 30  1  0  0  0  0
 28 27  1  0  0  0  0
 30 25  1  0  0  0  0
 32  1  1  0  0  0  0
 32 37  1  0  0  0  0
 33 34  1  0  0  0  0
 35 38  2  0  0  0  0
 36 35  1  0  0  0  0
 37 33  2  0  0  0  0
 38 34  1  0  0  0  0
 39 36  2  0  0  0  0
 39 37  1  0  0  0  0
 41 40  1  0  0  0  0
 42 41  2  0  0  0  0
 43 45  1  0  0  0  0
 44 43  2  0  0  0  0
 44 42  1  0  0  0  0
 45 35  1  0  0  0  0
 45 40  2  0  0  0  0
 46 50  1  6  0  0  0
 46 47  1  0  0  0  0
 47 44  1  1  0  0  0
 48 49  1  6  0  0  0
 48 46  1  0  0  0  0
 48 47  1  0  0  0  0
 51 52  1  6  0  0  0
 51 49  1  0  0  0  0
 51 48  1  0  0  0  0
 53 52  1  0  0  0  0
 54 53  2  0  0  0  0
 55 53  1  0  0  0  0
M  END
>  <MODEL>
1

>  <REMARK>
 VINA RESULT:      -6.3      0.000      0.000
  Name = 
  15 active torsions:
  status: ('A' for Active; 'I' for Inactive)
    1  A    between atoms: C_2  and  C_27
    2  A    between atoms: C_2  and  C_55
    3  A    between atoms: C_6  and  C_20
    4  A    between atoms: C_10  and  C_14
    5  A    between atoms: C_12  and  C_55
    6  A    between atoms: C_13  and  C_15
    7  A    between atoms: C_14  and  C_54
    8  A    between atoms: C_20  and  C_53
    9  A    between atoms: C_23  and  C_27
   10  A    between atoms: C_23  and  C_34
   11  A    between atoms: C_27  and  N_50
   12  A    between atoms: C_30  and  C_45
   13  A    between atoms: C_33  and  C_46
   14  A    between atoms: C_34  and  C_49
   15  A    between atoms: C_37  and  N_50
                            x       y       z     vdW  Elec       q    Type
                         _______ _______ _______ _____ _____    ______ ____

>  <TORSDO>
F 15

$$$$
=
 OpenBabel11042423043D

 55 62  0  0  1  0  0  0  0  0999 V2000
  159.6310  213.4320  149.9110 C   0  0  2  0  0  3  0  0  0  0  0  0
  161.1120  213.7420  149.7470 C   0  0  0  0  0  2  0  0  0  0  0  0
  161.7800  212.7050  148.8630 C   0  0  0  0  0  2  0  0  0  0  0  0
  162.3790  211.6040  149.7150 C   0  0  1  0  0  3  0  0  0  0  0  0
  162.1870  209.4850  148.2930 O   0  0  0  0  0  0  0  0  0  0  0  0
  161.3820  210.9450  150.3830 O   0  0  0  0  0  0  0  0  0  0  0  0
  162.0510  210.3850  149.1650 C   0  0  0  0  0  0  0  0  0  0  0  0
  158.8700  213.9420  148.7030 C   0  0  0  0  0  2  0  0  0  0  0  0
  159.3450  211.9260  147.5810 O   0  0  0  0  0  0  0  0  0  0  0  0
  159.2220  213.1390  147.4960 C   0  0  0  0  0  0  0  0  0  0  0  0
  159.3520  212.8570  144.3170 C   0  0  2  0  0  3  0  0  0  0  0  0
  157.9470  213.6740  145.1320 S   0  0  0  0  0  0  0  0  0  0  0  0
  160.3540  213.1180  145.3420 N   0  0  0  0  0  2  0  0  0  0  0  0
  159.4150  213.8420  146.1860 C   0  0  2  0  0  3  0  0  0  0  0  0
  159.6990  213.6070  143.0320 C   0  0  0  0  0  2  0  0  0  0  0  0
  159.3050  212.2540  138.1600 C   0  0  0  0  0  0  0  0  0  0  0  0
  159.4760  212.7930  140.6310 C   0  0  0  0  0  0  0  0  0  0  0  0
  157.9120  214.0700  139.1410 C   0  0  0  0  0  2  0  0  0  0  0  0
  158.9390  212.6360  137.0110 O   0  0  0  0  0  0  0  0  0  0  0  0
  157.8140  214.4500  141.5800 C   0  0  0  0  0  2  0  0  0  0  0  0
  160.5470  212.1390  140.7610 O   0  0  0  0  0  0  0  0  0  0  0  0
  158.8910  212.9980  139.3240 N   0  0  0  0  0  0  0  0  0  0  0  0
  156.9820  214.1710  140.3400 C   0  0  0  0  0  2  0  0  0  0  0  0
  158.7570  213.2830  141.8670 C   0  0  2  0  0  3  0  0  0  0  0  0
  161.5020  211.1630  137.6540 C   0  0  2  0  0  3  0  0  0  0  0  0
  160.1070  210.9940  138.2800 C   0  0  2  0  0  3  0  0  0  0  0  0
  160.0980  208.4960  137.8820 C   0  0  0  0  0  2  0  0  0  0  0  0
  161.6210  208.6590  137.9680 C   0  0  0  0  0  2  0  0  0  0  0  0
  159.3480  209.8160  137.6680 C   0  0  0  0  0  2  0  0  0  0  0  0
  162.1040  209.8480  137.1430 C   0  0  0  0  0  2  0  0  0  0  0  0
  162.3650  211.7470  138.5850 O   0  0  0  0  0  1  0  0  0  0  0  0
  159.1060  214.0700  151.1110 N   0  0  0  0  0  2  0  0  0  0  0  0
  159.1830  213.9870  153.4750 C   0  0  0  0  0  3  0  0  0  0  0  0
  158.8990  213.4140  154.8230 C   0  0  0  0  0  2  0  0  0  0  0  0
  159.4780  211.0400  154.2930 C   0  0  0  0  0  0  0  0  0  0  0  0
  158.5410  211.0030  153.1410 C   0  0  0  0  0  3  0  0  0  0  0  0
  158.8860  213.3630  152.3350 C   0  0  0  0  0  0  0  0  0  0  0  0
  159.6470  212.1410  155.0360 C   0  0  0  0  0  3  0  0  0  0  0  0
  158.2800  212.0080  152.2960 C   0  0  0  0  0  3  0  0  0  0  0  0
  160.6460  209.5820  155.9660 C   0  0  0  0  0  3  0  0  0  0  0  0
  161.3230  208.4040  156.2880 C   0  0  0  0  0  3  0  0  0  0  0  0
  161.5750  207.4790  155.3260 N   0  0  0  0  0  0  0  0  0  0  0  0
  160.4980  208.8310  153.6800 C   0  0  0  0  0  3  0  0  0  0  0  0
  161.1830  207.6670  154.0310 C   0  0  0  0  0  0  0  0  0  0  0  0
  160.2210  209.8070  154.6490 C   0  0  0  0  0  0  0  0  0  0  0  0
  162.2670  207.2520  151.8500 C   0  0  2  0  0  3  0  0  0  0  0  0
  161.4660  206.6540  152.9590 C   0  0  2  0  0  3  0  0  0  0  0  0
  160.7400  206.9790  151.6550 C   0  0  2  0  0  0  0  0  0  0  0  0
  160.4550  205.6620  151.1880 O   0  0  0  0  0  0  0  0  0  0  0  0
  163.2610  206.1590  151.4510 C   0  0  0  0  0  1  0  0  0  0  0  0
  160.4060  206.6340  150.2070 C   0  0  2  0  0  3  0  0  0  0  0  0
  161.5310  206.4280  149.1970 C   0  0  0  0  0  2  0  0  0  0  0  0
  161.2030  205.2890  148.2970 C   0  0  0  0  0  0  0  0  0  0  0  0
  161.0810  205.4830  147.0590 O   0  0  0  0  0  0  0  0  0  0  0  0
  161.0710  204.0080  148.8180 O   0  0  0  0  0  1  0  0  0  0  0  0
  1  8  1  6  0  0  0
  1 32  1  0  0  0  0
  2  1  1  0  0  0  0
  3  2  1  0  0  0  0
  4  3  1  6  0  0  0
  4  6  1  0  0  0  0
  5  7  2  0  0  0  0
  7  4  1  0  0  0  0
  7  6  1  0  0  0  0
 10  9  2  0  0  0  0
 10  8  1  0  0  0  0
 11 15  1  6  0  0  0
 11 12  1  0  0  0  0
 11 13  1  0  0  0  0
 12 14  1  0  0  0  0
 13 14  1  0  0  0  0
 14 10  1  1  0  0  0
 16 22  1  0  0  0  0
 17 21  2  0  0  0  0
 17 24  1  0  0  0  0
 18 22  1  0  0  0  0
 18 23  1  0  0  0  0
 19 16  2  0  0  0  0
 20 24  1  0  0  0  0
 22 17  1  0  0  0  0
 23 20  1  0  0  0  0
 24 15  1  1  0  0  0
 25 26  1  0  0  0  0
 25 31  1  1  0  0  0
 26 16  1  6  0  0  0
 27 28  1  0  0  0  0
 29 27  1  0  0  0  0
 29 26  1  0  0  0  0
 30 25  1  0  0  0  0
 30 28  1  0  0  0  0
 32 37  1  0  0  0  0
 33 34  1  0  0  0  0
 34 38  1  0  0  0  0
 35 45  1  0  0  0  0
 35 38  2  0  0  0  0
 36 35  1  0  0  0  0
 37 33  2  0  0  0  0
 39 37  1  0  0  0  0
 39 36  2  0  0  0  0
 40 41  1  0  0  0  0
 42 41  2  0  0  0  0
 43 44  2  0  0  0  0
 43 45  1  0  0  0  0
 44 42  1  0  0  0  0
 45 40  2  0  0  0  0
 46 50  1  6  0  0  0
 46 47  1  0  0  0  0
 47 44  1  1  0  0  0
 48 49  1  6  0  0  0
 48 46  1  0  0  0  0
 48 47  1  0  0  0  0
 51 52  1  6  0  0  0
 51 49  1  0  0  0  0
 51 48  1  0  0  0  0
 53 55  1  0  0  0  0
 53 52  1  0  0  0  0
 54 53  2  0  0  0  0
M  END
>  <MODEL>
2

>  <REMARK>
 VINA RESULT:      -5.1      3.387     11.950
  Name = 
  15 active torsions:
  status: ('A' for Active; 'I' for Inactive)
    1  A    between atoms: C_2  and  C_27
    2  A    between atoms: C_2  and  C_55
    3  A    between atoms: C_6  and  C_20
    4  A    between atoms: C_10  and  C_14
    5  A    between atoms: C_12  and  C_55
    6  A    between atoms: C_13  and  C_15
    7  A    between atoms: C_14  and  C_54
    8  A    between atoms: C_20  and  C_53
    9  A    between atoms: C_23  and  C_27
   10  A    between atoms: C_23  and  C_34
   11  A    between atoms: C_27  and  N_50
   12  A    between atoms: C_30  and  C_45
   13  A    between atoms: C_33  and  C_46
   14  A    between atoms: C_34  and  C_49
   15  A    between atoms: C_37  and  N_50
                            x       y       z     vdW  Elec       q    Type
                         _______ _______ _______ _____ _____    ______ ____

>  <TORSDO>
F 15

$$$$
=
 OpenBabel11042423043D

 55 62  0  0  1  0  0  0  0  0999 V2000
  161.1940  211.1590  152.8900 C   0  0  2  0  0  3  0  0  0  0  0  0
  162.4580  210.3160  152.8070 C   0  0  0  0  0  2  0  0  0  0  0  0
  162.8310  210.0530  151.3600 C   0  0  0  0  0  2  0  0  0  0  0  0
  161.7820  209.1770  150.7040 C   0  0  1  0  0  3  0  0  0  0  0  0
  162.9920  206.9920  150.1500 O   0  0  0  0  0  0  0  0  0  0  0  0
  161.8780  209.2840  149.3430 O   0  0  0  0  0  0  0  0  0  0  0  0
  162.4050  208.1060  150.1040 C   0  0  0  0  0  0  0  0  0  0  0  0
  160.2370  210.5420  153.8900 C   0  0  0  0  0  2  0  0  0  0  0  0
  161.7780  209.2740  155.1410 O   0  0  0  0  0  0  0  0  0  0  0  0
  160.7950  209.2620  154.4150 C   0  0  0  0  0  0  0  0  0  0  0  0
  161.1050  206.4210  152.9870 C   0  0  2  0  0  3  0  0  0  0  0  0
  160.9800  206.5560  154.7960 S   0  0  0  0  0  0  0  0  0  0  0  0
  160.3830  207.6400  152.6480 N   0  0  0  0  0  2  0  0  0  0  0  0
  160.1290  207.9710  154.0420 C   0  0  2  0  0  3  0  0  0  0  0  0
  160.3270  205.1930  152.5160 C   0  0  0  0  0  2  0  0  0  0  0  0
  161.0790  202.6910  148.1690 C   0  0  0  0  0  0  0  0  0  0  0  0
  160.8070  204.0340  150.3020 C   0  0  0  0  0  0  0  0  0  0  0  0
  161.2170  201.5600  150.3830 C   0  0  0  0  0  2  0  0  0  0  0  0
  161.0680  201.5510  147.6210 O   0  0  0  0  0  0  0  0  0  0  0  0
  161.2520  202.8440  152.4920 C   0  0  0  0  0  2  0  0  0  0  0  0
  160.3320  205.0280  149.6860 O   0  0  0  0  0  0  0  0  0  0  0  0
  161.0640  202.7910  149.6070 N   0  0  0  0  0  0  0  0  0  0  0  0
  161.9960  201.8120  151.6630 C   0  0  0  0  0  2  0  0  0  0  0  0
  161.1920  204.1820  151.7560 C   0  0  2  0  0  3  0  0  0  0  0  0
  161.3230  203.5200  145.8180 C   0  0  2  0  0  3  0  0  0  0  0  0
  161.1760  203.9080  147.2990 C   0  0  2  0  0  3  0  0  0  0  0  0
  162.3610  206.1170  146.9650 C   0  0  0  0  0  2  0  0  0  0  0  0
  161.8310  205.9790  145.5320 C   0  0  0  0  0  2  0  0  0  0  0  0
  162.3160  204.8110  147.7670 C   0  0  0  0  0  2  0  0  0  0  0  0
  162.0620  204.5740  144.9830 C   0  0  0  0  0  2  0  0  0  0  0  0
  160.0610  203.2830  145.2680 O   0  0  0  0  0  1  0  0  0  0  0  0
  160.5430  211.2320  151.5890 N   0  0  0  0  0  2  0  0  0  0  0  0
  159.0120  213.0360  151.5770 C   0  0  0  0  0  3  0  0  0  0  0  0
  158.4870  214.3690  151.1580 C   0  0  0  0  0  2  0  0  0  0  0  0
  158.8520  214.1020  148.6990 C   0  0  0  0  0  0  0  0  0  0  0  0
  160.2890  213.7750  148.8840 C   0  0  0  0  0  3  0  0  0  0  0  0
  160.0760  212.4590  151.0200 C   0  0  0  0  0  0  0  0  0  0  0  0
  158.0410  214.3500  149.7340 C   0  0  0  0  0  3  0  0  0  0  0  0
  160.8210  213.0690  149.8890 C   0  0  0  0  0  3  0  0  0  0  0  0
  156.9360  214.3480  147.1010 C   0  0  0  0  0  3  0  0  0  0  0  0
  156.4470  214.4520  145.7970 C   0  0  0  0  0  3  0  0  0  0  0  0
  157.3010  214.3930  144.7430 N   0  0  0  0  0  0  0  0  0  0  0  0
  159.1660  214.1300  146.2090 C   0  0  0  0  0  3  0  0  0  0  0  0
  158.6460  214.2300  144.9180 C   0  0  0  0  0  0  0  0  0  0  0  0
  158.3110  214.1870  147.3210 C   0  0  0  0  0  0  0  0  0  0  0  0
  158.9370  213.5520  142.5600 C   0  0  2  0  0  3  0  0  0  0  0  0
  159.5960  214.1530  143.7570 C   0  0  2  0  0  3  0  0  0  0  0  0
  159.9520  212.7110  143.4010 C   0  0  2  0  0  0  0  0  0  0  0  0
  161.3060  212.8780  142.9880 O   0  0  0  0  0  0  0  0  0  0  0  0
  159.4660  214.3620  141.3750 C   0  0  0  0  0  1  0  0  0  0  0  0
  160.7160  211.7140  142.5360 C   0  0  2  0  0  3  0  0  0  0  0  0
  160.5600  211.7500  141.0180 C   0  0  0  0  0  2  0  0  0  0  0  0
  161.5520  210.8400  140.3840 C   0  0  0  0  0  0  0  0  0  0  0  0
  161.2340  209.6520  140.1190 O   0  0  0  0  0  1  0  0  0  0  0  0
  162.8150  211.3150  140.0490 O   0  0  0  0  0  0  0  0  0  0  0  0
  1  2  1  6  0  0  0
  1  8  1  0  0  0  0
  3  2  1  0  0  0  0
  4  3  1  1  0  0  0
  6  7  1  0  0  0  0
  6  4  1  0  0  0  0
  7  5  2  0  0  0  0
  7  4  1  0  0  0  0
  8 10  1  0  0  0  0
 10  9  2  0  0  0  0
 11 15  1  6  0  0  0
 11 12  1  0  0  0  0
 13 11  1  0  0  0  0
 13 14  1  0  0  0  0
 14 10  1  1  0  0  0
 14 12  1  0  0  0  0
 16 22  1  0  0  0  0
 17 24  1  0  0  0  0
 18 23  1  0  0  0  0
 19 16  2  0  0  0  0
 21 17  2  0  0  0  0
 22 17  1  0  0  0  0
 22 18  1  0  0  0  0
 23 20  1  0  0  0  0
 24 20  1  0  0  0  0
 24 15  1  1  0  0  0
 25 31  1  6  0  0  0
 25 26  1  0  0  0  0
 26 29  1  0  0  0  0
 26 16  1  1  0  0  0
 27 29  1  0  0  0  0
 28 27  1  0  0  0  0
 30 28  1  0  0  0  0
 30 25  1  0  0  0  0
 32  1  1  0  0  0  0
 34 33  1  0  0  0  0
 35 36  1  0  0  0  0
 35 38  2  0  0  0  0
 36 39  2  0  0  0  0
 37 33  2  0  0  0  0
 37 32  1  0  0  0  0
 38 34  1  0  0  0  0
 39 37  1  0  0  0  0
 40 45  1  0  0  0  0
 41 40  2  0  0  0  0
 42 44  2  0  0  0  0
 42 41  1  0  0  0  0
 43 45  2  0  0  0  0
 44 43  1  0  0  0  0
 45 35  1  0  0  0  0
 46 50  1  6  0  0  0
 46 48  1  0  0  0  0
 46 47  1  0  0  0  0
 47 44  1  1  0  0  0
 48 49  1  6  0  0  0
 48 47  1  0  0  0  0
 51 52  1  6  0  0  0
 51 49  1  0  0  0  0
 51 48  1  0  0  0  0
 53 52  1  0  0  0  0
 54 53  1  0  0  0  0
 55 53  2  0  0  0  0
M  END
>  <MODEL>
3

>  <REMARK>
 VINA RESULT:      -5.1      2.319      7.024
  Name = 
  15 active torsions:
  status: ('A' for Active; 'I' for Inactive)
    1  A    between atoms: C_2  and  C_27
    2  A    between atoms: C_2  and  C_55
    3  A    between atoms: C_6  and  C_20
    4  A    between atoms: C_10  and  C_14
    5  A    between atoms: C_12  and  C_55
    6  A    between atoms: C_13  and  C_15
    7  A    between atoms: C_14  and  C_54
    8  A    between atoms: C_20  and  C_53
    9  A    between atoms: C_23  and  C_27
   10  A    between atoms: C_23  and  C_34
   11  A    between atoms: C_27  and  N_50
   12  A    between atoms: C_30  and  C_45
   13  A    between atoms: C_33  and  C_46
   14  A    between atoms: C_34  and  C_49
   15  A    between atoms: C_37  and  N_50
                            x       y       z     vdW  Elec       q    Type
                         _______ _______ _______ _____ _____    ______ ____

>  <TORSDO>
F 15

$$$$
=
 OpenBabel11042423043D

 55 62  0  0  1  0  0  0  0  0999 V2000
  160.7720  205.1890  147.7250 C   0  0  2  0  0  3  0  0  0  0  0  0
  161.5520  204.1670  148.5370 C   0  0  0  0  0  2  0  0  0  0  0  0
  161.3750  202.7750  147.9590 C   0  0  0  0  0  2  0  0  0  0  0  0
  160.3630  201.9980  148.7760 C   0  0  1  0  0  3  0  0  0  0  0  0
  161.1060  202.2910  151.2070 O   0  0  0  0  0  0  0  0  0  0  0  0
  160.8480  200.7460  149.0410 O   0  0  0  0  0  0  0  0  0  0  0  0
  160.8440  201.8470  150.0570 C   0  0  0  0  0  0  0  0  0  0  0  0
  161.6410  205.7150  146.6000 C   0  0  0  0  0  2  0  0  0  0  0  0
  159.7370  206.1800  145.2940 O   0  0  0  0  0  0  0  0  0  0  0  0
  160.8740  205.7310  145.3210 C   0  0  0  0  0  0  0  0  0  0  0  0
  161.8070  206.3440  142.3280 C   0  0  2  0  0  3  0  0  0  0  0  0
  163.0190  206.1300  143.6650 S   0  0  0  0  0  0  0  0  0  0  0  0
  160.7370  205.5360  142.8990 N   0  0  0  0  0  2  0  0  0  0  0  0
  161.5190  205.1950  144.0780 C   0  0  2  0  0  3  0  0  0  0  0  0
  162.3400  205.6960  141.0510 C   0  0  0  0  0  2  0  0  0  0  0  0
  160.7970  209.9410  138.7450 C   0  0  0  0  0  0  0  0  0  0  0  0
  161.6690  207.8970  139.9660 C   0  0  0  0  0  0  0  0  0  0  0  0
  161.4630  207.9120  137.4650 C   0  0  0  0  0  2  0  0  0  0  0  0
  160.3060  210.4150  137.6810 O   0  0  0  0  0  0  0  0  0  0  0  0
  162.5880  206.0040  138.5580 C   0  0  0  0  0  2  0  0  0  0  0  0
  161.2580  208.3150  141.0830 O   0  0  0  0  0  0  0  0  0  0  0  0
  161.3400  208.6050  138.7480 N   0  0  0  0  0  0  0  0  0  0  0  0
  162.6970  207.0250  137.4390 C   0  0  0  0  0  2  0  0  0  0  0  0
  162.5880  206.6980  139.9190 C   0  0  2  0  0  3  0  0  0  0  0  0
  159.8600  211.9800  139.8590 C   0  0  2  0  0  3  0  0  0  0  0  0
  160.8580  210.8140  139.9620 C   0  0  2  0  0  3  0  0  0  0  0  0
  162.3960  212.1060  141.4990 C   0  0  0  0  0  2  0  0  0  0  0  0
  161.1010  212.8330  141.8880 C   0  0  0  0  0  2  0  0  0  0  0  0
  162.2860  211.3060  140.1960 C   0  0  0  0  0  2  0  0  0  0  0  0
  160.2860  213.2190  140.6580 C   0  0  0  0  0  2  0  0  0  0  0  0
  158.5990  211.5560  140.2830 O   0  0  0  0  0  1  0  0  0  0  0  0
  160.3570  206.3020  148.5680 N   0  0  0  0  0  2  0  0  0  0  0  0
  160.8050  205.7530  150.8260 C   0  0  0  0  0  3  0  0  0  0  0  0
  161.4870  205.8870  152.1460 C   0  0  0  0  0  2  0  0  0  0  0  0
  161.3410  208.3770  152.3330 C   0  0  0  0  0  0  0  0  0  0  0  0
  161.9960  208.5770  151.0150 C   0  0  0  0  0  3  0  0  0  0  0  0
  160.9820  206.6070  149.8180 C   0  0  0  0  0  0  0  0  0  0  0  0
  161.0980  207.1570  152.8280 C   0  0  0  0  0  3  0  0  0  0  0  0
  161.8460  207.8100  149.9290 C   0  0  0  0  0  3  0  0  0  0  0  0
  161.1230  209.5620  154.5330 C   0  0  0  0  0  3  0  0  0  0  0  0
  160.7990  210.7010  155.2720 C   0  0  0  0  0  3  0  0  0  0  0  0
  160.3390  211.8130  154.6420 N   0  0  0  0  0  0  0  0  0  0  0  0
  160.4980  210.7330  152.5190 C   0  0  0  0  0  3  0  0  0  0  0  0
  160.1770  211.8530  153.2860 C   0  0  0  0  0  0  0  0  0  0  0  0
  160.9770  209.5680  153.1380 C   0  0  0  0  0  0  0  0  0  0  0  0
  158.5500  212.7270  151.6440 C   0  0  2  0  0  3  0  0  0  0  0  0
  159.6580  213.0750  152.5830 C   0  0  2  0  0  3  0  0  0  0  0  0
  159.9740  213.0550  151.0890 C   0  0  2  0  0  0  0  0  0  0  0  0
  160.1860  214.4460  150.8560 O   0  0  0  0  0  0  0  0  0  0  0  0
  157.5430  213.8690  151.7890 C   0  0  0  0  0  1  0  0  0  0  0  0
  159.9090  213.7170  149.7160 C   0  0  2  0  0  3  0  0  0  0  0  0
  158.5590  214.1280  149.1350 C   0  0  0  0  0  2  0  0  0  0  0  0
  158.2640  213.3250  147.9170 C   0  0  0  0  0  0  0  0  0  0  0  0
  157.1650  212.7210  147.8150 O   0  0  0  0  0  1  0  0  0  0  0  0
  159.1860  213.2740  146.8790 O   0  0  0  0  0  0  0  0  0  0  0  0
  1  8  1  6  0  0  0
  1  2  1  0  0  0  0
  1 32  1  0  0  0  0
  3  2  1  0  0  0  0
  4  3  1  6  0  0  0
  4  6  1  0  0  0  0
  4  7  1  0  0  0  0
  6  7  1  0  0  0  0
  7  5  2  0  0  0  0
  9 10  2  0  0  0  0
 10  8  1  0  0  0  0
 11 15  1  6  0  0  0
 11 13  1  0  0  0  0
 11 12  1  0  0  0  0
 12 14  1  0  0  0  0
 13 14  1  0  0  0  0
 14 10  1  1  0  0  0
 16 22  1  0  0  0  0
 17 21  2  0  0  0  0
 18 22  1  0  0  0  0
 19 16  2  0  0  0  0
 20 24  1  0  0  0  0
 22 17  1  0  0  0  0
 23 18  1  0  0  0  0
 23 20  1  0  0  0  0
 24 17  1  0  0  0  0
 24 15  1  1  0  0  0
 25 26  1  0  0  0  0
 25 31  1  1  0  0  0
 25 30  1  0  0  0  0
 26 16  1  6  0  0  0
 26 29  1  0  0  0  0
 27 28  1  0  0  0  0
 29 27  1  0  0  0  0
 30 28  1  0  0  0  0
 32 37  1  0  0  0  0
 33 34  1  0  0  0  0
 34 38  1  0  0  0  0
 35 38  2  0  0  0  0
 35 45  1  0  0  0  0
 36 35  1  0  0  0  0
 37 39  1  0  0  0  0
 37 33  2  0  0  0  0
 39 36  2  0  0  0  0
 40 41  1  0  0  0  0
 42 41  2  0  0  0  0
 43 45  1  0  0  0  0
 43 44  2  0  0  0  0
 44 42  1  0  0  0  0
 45 40  2  0  0  0  0
 46 50  1  6  0  0  0
 46 47  1  0  0  0  0
 47 44  1  1  0  0  0
 48 49  1  1  0  0  0
 48 46  1  0  0  0  0
 48 47  1  0  0  0  0
 51 52  1  1  0  0  0
 51 49  1  0  0  0  0
 51 48  1  0  0  0  0
 53 52  1  0  0  0  0
 54 53  1  0  0  0  0
 55 53  2  0  0  0  0
M  END
>  <MODEL>
4

>  <REMARK>
 VINA RESULT:      -4.5      3.330     10.099
  Name = 
  15 active torsions:
  status: ('A' for Active; 'I' for Inactive)
    1  A    between atoms: C_2  and  C_27
    2  A    between atoms: C_2  and  C_55
    3  A    between atoms: C_6  and  C_20
    4  A    between atoms: C_10  and  C_14
    5  A    between atoms: C_12  and  C_55
    6  A    between atoms: C_13  and  C_15
    7  A    between atoms: C_14  and  C_54
    8  A    between atoms: C_20  and  C_53
    9  A    between atoms: C_23  and  C_27
   10  A    between atoms: C_23  and  C_34
   11  A    between atoms: C_27  and  N_50
   12  A    between atoms: C_30  and  C_45
   13  A    between atoms: C_33  and  C_46
   14  A    between atoms: C_34  and  C_49
   15  A    between atoms: C_37  and  N_50
                            x       y       z     vdW  Elec       q    Type
                         _______ _______ _______ _____ _____    ______ ____

>  <TORSDO>
F 15

$$$$
=
 OpenBabel11042423043D

 55 62  0  0  1  0  0  0  0  0999 V2000
  160.8460  204.4020  148.4000 C   0  0  2  0  0  3  0  0  0  0  0  0
  161.5240  203.7200  149.5790 C   0  0  0  0  0  2  0  0  0  0  0  0
  160.5890  202.7150  150.2260 C   0  0  0  0  0  2  0  0  0  0  0  0
  161.1010  201.3070  149.9990 C   0  0  1  0  0  3  0  0  0  0  0  0
  160.6240  200.8150  147.5340 O   0  0  0  0  0  0  0  0  0  0  0  0
  160.0700  200.4160  150.1180 O   0  0  0  0  0  0  0  0  0  0  0  0
  160.6220  200.8450  148.7940 C   0  0  0  0  0  0  0  0  0  0  0  0
  161.3640  203.8100  147.1050 C   0  0  0  0  0  2  0  0  0  0  0  0
  163.4330  204.8120  146.5920 O   0  0  0  0  0  0  0  0  0  0  0  0
  162.2270  204.7990  146.3960 C   0  0  0  0  0  0  0  0  0  0  0  0
  161.8520  205.6740  143.3460 C   0  0  2  0  0  3  0  0  0  0  0  0
  160.4910  204.9110  144.2790 S   0  0  0  0  0  0  0  0  0  0  0  0
  162.5650  206.2550  144.4750 N   0  0  0  0  0  2  0  0  0  0  0  0
  161.5930  205.7660  145.4410 C   0  0  2  0  0  3  0  0  0  0  0  0
  161.2950  206.7740  142.4440 C   0  0  0  0  0  2  0  0  0  0  0  0
  161.9610  209.5840  138.2750 C   0  0  0  0  0  0  0  0  0  0  0  0
  161.7280  208.2610  140.4250 C   0  0  0  0  0  0  0  0  0  0  0  0
  162.2070  207.1070  138.2490 C   0  0  0  0  0  2  0  0  0  0  0  0
  161.9620  209.5670  137.0110 O   0  0  0  0  0  0  0  0  0  0  0  0
  162.2820  205.7920  140.3390 C   0  0  0  0  0  2  0  0  0  0  0  0
  161.2050  209.2320  141.0370 O   0  0  0  0  0  0  0  0  0  0  0  0
  161.9940  208.3410  139.0050 N   0  0  0  0  0  0  0  0  0  0  0  0
  163.0250  206.1080  139.0520 C   0  0  0  0  0  2  0  0  0  0  0  0
  162.1600  207.0420  141.2080 C   0  0  2  0  0  3  0  0  0  0  0  0
  160.8600  211.8240  138.4880 C   0  0  2  0  0  3  0  0  0  0  0  0
  161.9940  210.9070  138.9790 C   0  0  2  0  0  3  0  0  0  0  0  0
  163.4590  212.8630  139.6300 C   0  0  0  0  0  2  0  0  0  0  0  0
  162.1140  213.5820  139.8010 C   0  0  0  0  0  2  0  0  0  0  0  0
  163.3650  211.5630  138.8220 C   0  0  0  0  0  2  0  0  0  0  0  0
  161.1850  213.3180  138.6200 C   0  0  0  0  0  2  0  0  0  0  0  0
  159.6860  211.5330  139.1870 O   0  0  0  0  0  1  0  0  0  0  0  0
  161.1180  205.8330  148.4140 N   0  0  0  0  0  2  0  0  0  0  0  0
  161.0050  206.0780  150.7650 C   0  0  0  0  0  3  0  0  0  0  0  0
  161.3750  206.6590  152.0890 C   0  0  0  0  0  2  0  0  0  0  0  0
  161.3420  209.0650  151.4070 C   0  0  0  0  0  0  0  0  0  0  0  0
  162.2910  208.8260  150.2900 C   0  0  0  0  0  3  0  0  0  0  0  0
  161.4590  206.5500  149.6040 C   0  0  0  0  0  0  0  0  0  0  0  0
  160.9190  208.0750  152.2040 C   0  0  0  0  0  3  0  0  0  0  0  0
  162.3460  207.7370  149.5130 C   0  0  0  0  0  3  0  0  0  0  0  0
  161.0050  211.4420  150.6840 C   0  0  0  0  0  3  0  0  0  0  0  0
  160.5390  212.7340  150.9360 C   0  0  0  0  0  3  0  0  0  0  0  0
  159.9670  213.0300  152.1310 N   0  0  0  0  0  0  0  0  0  0  0  0
  160.2820  210.7890  152.8900 C   0  0  0  0  0  3  0  0  0  0  0  0
  159.8320  212.0910  153.1140 C   0  0  0  0  0  0  0  0  0  0  0  0
  160.8780  210.4490  151.6660 C   0  0  0  0  0  0  0  0  0  0  0  0
  158.5460  211.2120  155.0320 C   0  0  2  0  0  3  0  0  0  0  0  0
  159.2100  212.4130  154.4430 C   0  0  2  0  0  3  0  0  0  0  0  0
  157.6850  212.3500  154.3920 C   0  0  2  0  0  0  0  0  0  0  0  0
  157.3570  213.3950  155.3050 O   0  0  0  0  0  0  0  0  0  0  0  0
  158.8590  211.2880  156.5270 C   0  0  0  0  0  1  0  0  0  0  0  0
  156.3330  212.4950  155.0840 C   0  0  2  0  0  3  0  0  0  0  0  0
  156.0400  211.6980  156.3530 C   0  0  0  0  0  2  0  0  0  0  0  0
  155.0690  210.6110  156.0570 C   0  0  0  0  0  0  0  0  0  0  0  0
  154.3490  210.1450  156.9780 O   0  0  0  0  0  1  0  0  0  0  0  0
  154.9310  210.1370  154.7580 O   0  0  0  0  0  0  0  0  0  0  0  0
  1  8  1  6  0  0  0
  1 32  1  0  0  0  0
  1  2  1  0  0  0  0
  2  3  1  0  0  0  0
  4  6  1  0  0  0  0
  4  3  1  6  0  0  0
  5  7  2  0  0  0  0
  7  4  1  0  0  0  0
  7  6  1  0  0  0  0
 10  9  2  0  0  0  0
 10  8  1  0  0  0  0
 11 15  1  6  0  0  0
 11 12  1  0  0  0  0
 11 13  1  0  0  0  0
 12 14  1  0  0  0  0
 13 14  1  0  0  0  0
 14 10  1  1  0  0  0
 16 22  1  0  0  0  0
 17 21  2  0  0  0  0
 17 24  1  0  0  0  0
 18 22  1  0  0  0  0
 18 23  1  0  0  0  0
 19 16  2  0  0  0  0
 20 24  1  0  0  0  0
 22 17  1  0  0  0  0
 23 20  1  0  0  0  0
 24 15  1  1  0  0  0
 25 30  1  0  0  0  0
 25 26  1  0  0  0  0
 25 31  1  1  0  0  0
 26 16  1  6  0  0  0
 27 28  1  0  0  0  0
 29 26  1  0  0  0  0
 29 27  1  0  0  0  0
 30 28  1  0  0  0  0
 32 37  1  0  0  0  0
 33 34  1  0  0  0  0
 34 38  1  0  0  0  0
 35 45  1  0  0  0  0
 35 38  2  0  0  0  0
 36 35  1  0  0  0  0
 37 33  2  0  0  0  0
 39 37  1  0  0  0  0
 39 36  2  0  0  0  0
 40 41  2  0  0  0  0
 40 45  1  0  0  0  0
 41 42  1  0  0  0  0
 42 44  2  0  0  0  0
 43 44  1  0  0  0  0
 45 43  2  0  0  0  0
 46 50  1  1  0  0  0
 47 44  1  6  0  0  0
 47 46  1  0  0  0  0
 48 47  1  0  0  0  0
 48 46  1  0  0  0  0
 48 51  1  0  0  0  0
 48 49  1  1  0  0  0
 51 49  1  0  0  0  0
 51 52  1  1  0  0  0
 53 52  1  0  0  0  0
 53 54  1  0  0  0  0
 55 53  2  0  0  0  0
M  END
>  <MODEL>
5

>  <REMARK>
 VINA RESULT:      -3.7      3.224     11.212
  Name = 
  15 active torsions:
  status: ('A' for Active; 'I' for Inactive)
    1  A    between atoms: C_2  and  C_27
    2  A    between atoms: C_2  and  C_55
    3  A    between atoms: C_6  and  C_20
    4  A    between atoms: C_10  and  C_14
    5  A    between atoms: C_12  and  C_55
    6  A    between atoms: C_13  and  C_15
    7  A    between atoms: C_14  and  C_54
    8  A    between atoms: C_20  and  C_53
    9  A    between atoms: C_23  and  C_27
   10  A    between atoms: C_23  and  C_34
   11  A    between atoms: C_27  and  N_50
   12  A    between atoms: C_30  and  C_45
   13  A    between atoms: C_33  and  C_46
   14  A    between atoms: C_34  and  C_49
   15  A    between atoms: C_37  and  N_50
                            x       y       z     vdW  Elec       q    Type
                         _______ _______ _______ _____ _____    ______ ____

>  <TORSDO>
F 15

$$$$
=
 OpenBabel11042423043D

 55 62  0  0  1  0  0  0  0  0999 V2000
  160.6090  205.3930  146.7740 C   0  0  2  0  0  3  0  0  0  0  0  0
  162.0810  205.0140  146.7130 C   0  0  0  0  0  2  0  0  0  0  0  0
  162.2580  203.5230  146.9390 C   0  0  0  0  0  2  0  0  0  0  0  0
  160.9050  202.8470  147.0320 C   0  0  1  0  0  3  0  0  0  0  0  0
  161.2920  200.7860  148.4990 O   0  0  0  0  0  0  0  0  0  0  0  0
  160.8210  201.8540  146.0940 O   0  0  0  0  0  0  0  0  0  0  0  0
  161.0730  201.5800  147.5450 C   0  0  0  0  0  0  0  0  0  0  0  0
  160.2280  206.1530  145.5190 C   0  0  0  0  0  2  0  0  0  0  0  0
  160.4150  204.3890  143.9700 O   0  0  0  0  0  0  0  0  0  0  0  0
  160.8140  205.4910  144.3180 C   0  0  0  0  0  0  0  0  0  0  0  0
  161.8350  206.4690  141.4540 C   0  0  2  0  0  3  0  0  0  0  0  0
  161.2300  207.6550  142.6910 S   0  0  0  0  0  0  0  0  0  0  0  0
  162.2770  205.4300  142.3750 N   0  0  0  0  0  2  0  0  0  0  0  0
  161.8900  206.1970  143.5480 C   0  0  2  0  0  3  0  0  0  0  0  0
  163.0310  207.0710  140.7170 C   0  0  0  0  0  2  0  0  0  0  0  0
  160.6400  210.7420  138.1610 C   0  0  0  0  0  0  0  0  0  0  0  0
  161.9600  208.9780  139.4160 C   0  0  0  0  0  0  0  0  0  0  0  0
  160.4510  208.3450  137.5140 C   0  0  0  0  0  2  0  0  0  0  0  0
  159.6730  210.9960  137.3870 O   0  0  0  0  0  0  0  0  0  0  0  0
  161.9200  206.6190  138.4950 C   0  0  0  0  0  2  0  0  0  0  0  0
  162.2230  209.7650  140.3660 O   0  0  0  0  0  0  0  0  0  0  0  0
  161.0550  209.3750  138.3590 N   0  0  0  0  0  0  0  0  0  0  0  0
  161.4490  207.2450  137.1940 C   0  0  0  0  0  2  0  0  0  0  0  0
  162.6700  207.6460  139.3430 C   0  0  2  0  0  3  0  0  0  0  0  0
  160.3980  212.8320  139.5210 C   0  0  2  0  0  3  0  0  0  0  0  0
  161.3720  211.8830  138.8010 C   0  0  2  0  0  3  0  0  0  0  0  0
  163.0700  213.7190  138.4200 C   0  0  0  0  0  2  0  0  0  0  0  0
  162.4330  214.3210  139.6800 C   0  0  0  0  0  2  0  0  0  0  0  0
  162.2230  212.6190  137.7670 C   0  0  0  0  0  2  0  0  0  0  0  0
  160.9090  214.2750  139.6120 C   0  0  0  0  0  2  0  0  0  0  0  0
  160.1310  212.3440  140.8030 O   0  0  0  0  0  1  0  0  0  0  0  0
  160.3450  206.2290  147.9370 N   0  0  0  0  0  2  0  0  0  0  0  0
  160.6320  204.8390  149.8310 C   0  0  0  0  0  3  0  0  0  0  0  0
  161.2550  204.4060  151.1150 C   0  0  0  0  0  2  0  0  0  0  0  0
  161.3080  206.6490  152.2210 C   0  0  0  0  0  0  0  0  0  0  0  0
  162.0420  207.2610  151.0840 C   0  0  0  0  0  3  0  0  0  0  0  0
  160.9290  205.9850  149.2200 C   0  0  0  0  0  0  0  0  0  0  0  0
  160.9390  205.3610  152.2170 C   0  0  0  0  0  3  0  0  0  0  0  0
  161.8840  206.9720  149.7870 C   0  0  0  0  0  3  0  0  0  0  0  0
  160.8300  206.8980  154.6700 C   0  0  0  0  0  3  0  0  0  0  0  0
  160.5690  207.7020  155.7810 C   0  0  0  0  0  3  0  0  0  0  0  0
  160.4800  209.0500  155.6400 N   0  0  0  0  0  0  0  0  0  0  0  0
  160.9050  208.8790  153.2970 C   0  0  0  0  0  3  0  0  0  0  0  0
  160.6360  209.6550  154.4250 C   0  0  0  0  0  0  0  0  0  0  0  0
  161.0040  207.4840  153.4080 C   0  0  0  0  0  0  0  0  0  0  0  0
  159.2330  211.6550  154.8010 C   0  0  2  0  0  3  0  0  0  0  0  0
  160.5280  211.1440  154.2590 C   0  0  2  0  0  3  0  0  0  0  0  0
  159.4440  211.5320  153.2560 C   0  0  2  0  0  0  0  0  0  0  0  0
  160.0410  212.6880  152.6720 O   0  0  0  0  0  0  0  0  0  0  0  0
  159.5900  212.9760  155.4830 C   0  0  0  0  0  1  0  0  0  0  0  0
  158.6730  212.6050  152.4920 C   0  0  2  0  0  3  0  0  0  0  0  0
  157.9670  213.7210  153.2570 C   0  0  0  0  0  2  0  0  0  0  0  0
  156.6010  213.9290  152.7050 C   0  0  0  0  0  0  0  0  0  0  0  0
  155.6080  213.9500  153.4780 O   0  0  0  0  0  1  0  0  0  0  0  0
  156.4270  214.1380  151.3420 O   0  0  0  0  0  0  0  0  0  0  0  0
  1  8  1  6  0  0  0
  1 32  1  0  0  0  0
  2  1  1  0  0  0  0
  2  3  1  0  0  0  0
  4  3  1  6  0  0  0
  4  7  1  0  0  0  0
  6  4  1  0  0  0  0
  6  7  1  0  0  0  0
  7  5  2  0  0  0  0
  9 10  2  0  0  0  0
 10  8  1  0  0  0  0
 11 15  1  1  0  0  0
 11 13  1  0  0  0  0
 11 12  1  0  0  0  0
 12 14  1  0  0  0  0
 13 14  1  0  0  0  0
 14 10  1  6  0  0  0
 16 22  1  0  0  0  0
 17 21  2  0  0  0  0
 18 22  1  0  0  0  0
 19 16  2  0  0  0  0
 20 24  1  0  0  0  0
 22 17  1  0  0  0  0
 23 18  1  0  0  0  0
 23 20  1  0  0  0  0
 24 17  1  0  0  0  0
 24 15  1  1  0  0  0
 25 30  1  0  0  0  0
 25 31  1  1  0  0  0
 26 16  1  6  0  0  0
 26 25  1  0  0  0  0
 27 28  1  0  0  0  0
 29 27  1  0  0  0  0
 29 26  1  0  0  0  0
 30 28  1  0  0  0  0
 32 37  1  0  0  0  0
 33 34  1  0  0  0  0
 34 38  1  0  0  0  0
 35 45  1  0  0  0  0
 36 35  1  0  0  0  0
 37 39  1  0  0  0  0
 37 33  2  0  0  0  0
 38 35  2  0  0  0  0
 39 36  2  0  0  0  0
 40 41  1  0  0  0  0
 42 41  2  0  0  0  0
 43 45  1  0  0  0  0
 43 44  2  0  0  0  0
 44 42  1  0  0  0  0
 45 40  2  0  0  0  0
 46 50  1  6  0  0  0
 47 44  1  1  0  0  0
 47 46  1  0  0  0  0
 48 49  1  1  0  0  0
 48 47  1  0  0  0  0
 48 46  1  0  0  0  0
 51 49  1  0  0  0  0
 51 48  1  0  0  0  0
 51 52  1  1  0  0  0
 53 52  1  0  0  0  0
 53 54  1  0  0  0  0
 55 53  2  0  0  0  0
M  END
>  <MODEL>
6

>  <REMARK>
 VINA RESULT:      -3.4      3.411     11.208
  Name = 
  15 active torsions:
  status: ('A' for Active; 'I' for Inactive)
    1  A    between atoms: C_2  and  C_27
    2  A    between atoms: C_2  and  C_55
    3  A    between atoms: C_6  and  C_20
    4  A    between atoms: C_10  and  C_14
    5  A    between atoms: C_12  and  C_55
    6  A    between atoms: C_13  and  C_15
    7  A    between atoms: C_14  and  C_54
    8  A    between atoms: C_20  and  C_53
    9  A    between atoms: C_23  and  C_27
   10  A    between atoms: C_23  and  C_34
   11  A    between atoms: C_27  and  N_50
   12  A    between atoms: C_30  and  C_45
   13  A    between atoms: C_33  and  C_46
   14  A    between atoms: C_34  and  C_49
   15  A    between atoms: C_37  and  N_50
                            x       y       z     vdW  Elec       q    Type
                         _______ _______ _______ _____ _____    ______ ____

>  <TORSDO>
F 15

$$$$
