=
 OpenBabel11042420213D

 51 54  0  0  1  0  0  0  0  0999 V2000
  160.4030  213.6180  149.7070 C   0  0  0  0  0  0  0  0  0  0  0  0
  159.7900  211.0910  153.0620 C   0  0  0  0  0  0  0  0  0  0  0  0
  160.8050  214.2480  148.6200 C   0  0  0  0  0  3  0  0  0  0  0  0
  159.2890  213.2970  151.9150 C   0  0  0  0  0  3  0  0  0  0  0  0
  160.1800  212.8790  150.8000 C   0  0  0  0  0  0  0  0  0  0  0  0
  161.3780  211.1280  149.7400 N   0  0  0  0  0  0  0  0  0  0  0  0
  160.6530  210.6790  152.0860 C   0  0  0  0  0  3  0  0  0  0  0  0
  159.0770  212.4470  152.9510 C   0  0  0  0  0  3  0  0  0  0  0  0
  160.8160  211.5150  150.8360 C   0  0  0  0  0  0  0  0  0  0  0  0
  162.9180  210.0700  148.3390 O   0  0  0  0  0  0  0  0  0  0  0  0
  162.1020  209.9450  149.2620 C   0  0  0  0  0  0  0  0  0  0  0  0
  161.7990  208.6070  149.8430 C   0  0  0  0  0  0  0  0  0  0  0  0
  161.6070  206.9850  151.5720 C   0  0  0  0  0  0  0  0  0  0  0  0
  161.1000  206.3130  149.3510 C   0  0  0  0  0  3  0  0  0  0  0  0
  161.8790  208.2950  151.2160 C   0  0  0  0  0  3  0  0  0  0  0  0
  161.4260  207.5620  148.9540 C   0  0  0  0  0  3  0  0  0  0  0  0
  161.1430  206.0000  150.6960 C   0  0  0  0  0  0  0  0  0  0  0  0
  161.0700  206.8750  154.0180 C   0  0  0  0  0  1  0  0  0  0  0  0
  161.9760  206.7930  152.9290 O   0  0  0  0  0  0  0  0  0  0  0  0
  160.8370  204.5080  150.8360 C   0  0  0  0  0  2  0  0  0  0  0  0
  160.4230  204.1010  152.1220 O   0  0  0  0  0  0  0  0  0  0  0  0
  160.4150  202.7000  152.1010 C   0  0  0  0  0  2  0  0  0  0  0  0
  161.5720  202.1440  151.2370 C   0  0  0  0  0  2  0  0  0  0  0  0
  161.0230  201.2690  150.2260 N   0  0  0  0  0  2  0  0  0  0  0  0
  160.7540  202.4190  148.0300 C   0  0  2  0  0  3  0  0  0  0  0  0
  161.5940  201.5500  148.9280 C   0  0  2  0  0  3  0  0  0  0  0  0
  160.7260  201.1060  147.8490 O   0  0  0  0  0  0  0  0  0  0  0  0
  161.5630  203.1080  146.9500 C   0  0  0  0  0  2  0  0  0  0  0  0
  160.9110  202.9580  145.5400 C   0  0  0  0  0  2  0  0  0  0  0  0
  160.8270  204.1750  144.5680 C   0  0  0  0  0  2  0  0  0  0  0  0
  161.0880  205.5230  145.2500 C   0  0  0  0  0  0  0  0  0  0  0  0
  160.0070  206.4080  145.2900 O   0  0  0  0  0  0  0  0  0  0  0  0
  162.0260  205.7570  146.0120 O   0  0  0  0  0  1  0  0  0  0  0  0
  160.1540  214.4490  147.2190 C   0  0  1  0  0  3  0  0  0  0  0  0
  161.3970  214.0680  144.2620 C   0  0  0  0  0  2  0  0  0  0  0  0
  159.2380  212.3840  143.7510 C   0  0  0  0  0  2  0  0  0  0  0  0
  160.8220  213.3090  145.8120 P   0  0  2  0  0  0  0  0  0  0  0  0
  161.6450  212.9420  143.2040 C   0  0  1  0  0  3  0  0  0  0  0  0
  159.7590  211.9750  145.1270 C   0  0  0  0  0  2  0  0  0  0  0  0
  162.0470  212.6110  146.3120 O   0  0  0  0  0  0  0  0  0  0  0  0
  160.3560  212.3080  142.7240 C   0  0  0  0  0  2  0  0  0  0  0  0
  163.5610  213.9440  142.1320 O   0  0  0  0  0  1  0  0  0  0  0  0
  162.3680  212.4430  140.8690 O   0  0  0  0  0  0  0  0  0  0  0  0
  162.5480  213.1780  142.0550 C   0  0  0  0  0  0  0  0  0  0  0  0
  158.5830  214.3870  147.3330 C   0  0  0  0  0  2  0  0  0  0  0  0
  157.0260  212.6390  149.1070 O   0  0  0  0  0  1  0  0  0  0  0  0
  157.1320  212.0330  146.4430 O   0  0  0  0  0  0  0  0  0  0  0  0
  157.6960  212.8260  147.5790 P   0  0  1  0  0  4  0  0  0  0  0  0
  159.7730  210.4320  154.4240 C   0  0  0  0  0  2  0  0  0  0  0  0
  160.9820  209.6890  156.5670 C   0  0  0  0  0  1  0  0  0  0  0  0
  161.0230  210.6090  155.3660 C   0  0  0  0  0  2  0  0  0  0  0  0
  1  5  2  0  0  0  0
  2 49  1  0  0  0  0
  3  1  2  0  0  0  0
  4  8  2  0  0  0  0
  5  9  1  0  0  0  0
  5  4  1  0  0  0  0
  6  9  2  0  0  0  0
  7  2  2  0  0  0  0
  8  2  1  0  0  0  0
  9  7  1  0  0  0  0
 10 11  2  0  0  0  0
 11  6  1  0  0  0  0
 11 12  1  0  0  0  0
 12 15  1  0  0  0  0
 13 19  1  0  0  0  0
 14 17  2  0  0  0  0
 15 13  2  0  0  0  0
 16 14  1  0  0  0  0
 16 12  2  0  0  0  0
 17 20  1  0  0  0  0
 17 13  1  0  0  0  0
 19 18  1  0  0  0  0
 20 21  1  0  0  0  0
 22 21  1  0  0  0  0
 23 22  1  0  0  0  0
 24 23  1  0  0  0  0
 25 28  1  6  0  0  0
 25 26  1  0  0  0  0
 26 24  1  1  0  0  0
 27 25  1  0  0  0  0
 27 26  1  0  0  0  0
 29 28  1  0  0  0  0
 30 31  1  0  0  0  0
 30 29  1  0  0  0  0
 31 32  2  0  0  0  0
 31 33  1  0  0  0  0
 34 45  1  1  0  0  0
 34  3  1  0  0  0  0
 35 37  1  0  0  0  0
 36 39  1  0  0  0  0
 37 40  2  1  0  0  0
 37 34  1  0  0  0  0
 38 44  1  6  0  0  0
 38 35  1  0  0  0  0
 39 37  1  0  0  0  0
 41 38  1  0  0  0  0
 41 36  1  0  0  0  0
 43 44  2  0  0  0  0
 44 42  1  0  0  0  0
 45 48  1  0  0  0  0
 48 47  2  6  0  0  0
 48 46  1  0  0  0  0
 49 51  1  0  0  0  0
 51 50  1  0  0  0  0
M  END
>  <MODEL>
1

>  <REMARK>
 VINA RESULT:      -6.1      0.000      0.000
  Name = 
  20 active torsions:
  status: ('A' for Active; 'I' for Inactive)
    1  A    between atoms: C_1  and  C_9
    2  A    between atoms: C_1  and  C_10
    3  A    between atoms: C_1  and  P_34
    4  A    between atoms: C_4  and  C_28
    5  A    between atoms: C_6  and  N_38
    6  A    between atoms: C_6  and  C_39
    7  A    between atoms: C_7  and  C_17
    8  A    between atoms: C_7  and  C_18
    9  A    between atoms: C_8  and  C_32
   10  A    between atoms: C_10  and  P_49
   11  A    between atoms: C_15  and  C_32
   12  A    between atoms: C_16  and  O_27
   13  A    between atoms: C_17  and  C_36
   14  A    between atoms: N_23  and  C_28
   15  A    between atoms: C_26  and  O_29
   16  A    between atoms: C_26  and  C_50
   17  A    between atoms: O_29  and  C_39
   18  A    between atoms: C_31  and  N_38
   19  A    between atoms: C_33  and  C_42
   20  A    between atoms: C_36  and  C_37
                            x       y       z     vdW  Elec       q    Type
                         _______ _______ _______ _____ _____    ______ ____

>  <TORSDO>
F 20

$$$$
=
 OpenBabel11042420213D

 51 54  0  0  1  0  0  0  0  0999 V2000
  162.2460  209.7220  152.5120 C   0  0  0  0  0  0  0  0  0  0  0  0
  161.7070  208.1180  148.6190 C   0  0  0  0  0  0  0  0  0  0  0  0
  162.4410  210.4510  153.5940 C   0  0  0  0  0  3  0  0  0  0  0  0
  162.2330  207.6920  151.0630 C   0  0  0  0  0  3  0  0  0  0  0  0
  162.1060  209.1540  151.3090 C   0  0  0  0  0  0  0  0  0  0  0  0
  161.3960  211.2670  150.5020 N   0  0  0  0  0  0  0  0  0  0  0  0
  161.6240  209.4720  148.7820 C   0  0  0  0  0  3  0  0  0  0  0  0
  162.0090  207.2050  149.8170 C   0  0  0  0  0  3  0  0  0  0  0  0
  161.7160  210.0600  150.1730 C   0  0  0  0  0  0  0  0  0  0  0  0
  160.2250  213.2860  150.4170 O   0  0  0  0  0  0  0  0  0  0  0  0
  160.9590  212.4890  149.8180 C   0  0  0  0  0  0  0  0  0  0  0  0
  161.3460  212.7200  148.3970 C   0  0  0  0  0  0  0  0  0  0  0  0
  160.9700  213.0830  146.0770 C   0  0  0  0  0  0  0  0  0  0  0  0
  163.2160  212.9170  146.8300 C   0  0  0  0  0  3  0  0  0  0  0  0
  160.4320  212.9350  147.3450 C   0  0  0  0  0  3  0  0  0  0  0  0
  162.7290  212.6960  148.0700 C   0  0  0  0  0  3  0  0  0  0  0  0
  162.3360  213.1610  145.7940 C   0  0  0  0  0  0  0  0  0  0  0  0
  158.7080  212.3200  145.3130 C   0  0  0  0  0  1  0  0  0  0  0  0
  159.9180  213.0370  145.1250 O   0  0  0  0  0  0  0  0  0  0  0  0
  163.1530  213.2610  144.5040 C   0  0  0  0  0  2  0  0  0  0  0  0
  162.5850  212.6130  143.3860 O   0  0  0  0  0  0  0  0  0  0  0  0
  162.2520  213.6280  142.4780 C   0  0  0  0  0  2  0  0  0  0  0  0
  161.3230  213.0980  141.3600 C   0  0  0  0  0  2  0  0  0  0  0  0
  161.9570  213.3190  140.0800 N   0  0  0  0  0  2  0  0  0  0  0  0
  160.0960  212.9530  138.4610 C   0  0  2  0  0  3  0  0  0  0  0  0
  161.0350  213.9150  139.1380 C   0  0  2  0  0  3  0  0  0  0  0  0
  161.1810  213.3470  137.8070 O   0  0  0  0  0  0  0  0  0  0  0  0
  158.8510  213.6280  137.9190 C   0  0  0  0  0  2  0  0  0  0  0  0
  157.8440  212.6040  137.3100 C   0  0  0  0  0  2  0  0  0  0  0  0
  157.6370  211.2040  137.9660 C   0  0  0  0  0  2  0  0  0  0  0  0
  156.2140  210.6570  137.8050 C   0  0  0  0  0  0  0  0  0  0  0  0
  155.9670  209.4140  138.3960 O   0  0  0  0  0  1  0  0  0  0  0  0
  155.2310  211.3290  137.4930 O   0  0  0  0  0  0  0  0  0  0  0  0
  161.5360  210.7810  154.8180 C   0  0  1  0  0  3  0  0  0  0  0  0
  159.1860  212.6810  153.6770 C   0  0  0  0  0  2  0  0  0  0  0  0
  157.9670  212.3870  156.1640 C   0  0  0  0  0  2  0  0  0  0  0  0
  159.6730  211.0950  154.4230 P   0  0  2  0  0  0  0  0  0  0  0  0
  157.6250  212.7920  153.6900 C   0  0  1  0  0  3  0  0  0  0  0  0
  158.4180  210.9860  155.7610 C   0  0  0  0  0  2  0  0  0  0  0  0
  159.2330  210.0990  153.3970 O   0  0  0  0  0  0  0  0  0  0  0  0
  157.0720  212.9790  155.0880 C   0  0  0  0  0  2  0  0  0  0  0  0
  157.5590  214.4530  151.9390 O   0  0  0  0  0  0  0  0  0  0  0  0
  155.5270  213.6500  152.6450 O   0  0  0  0  0  1  0  0  0  0  0  0
  156.9300  213.7000  152.7490 C   0  0  0  0  0  0  0  0  0  0  0  0
  161.7260  209.6960  155.9460 C   0  0  0  0  0  2  0  0  0  0  0  0
  159.8130  207.6250  156.7670 O   0  0  0  0  0  1  0  0  0  0  0  0
  161.3170  207.1970  154.5250 O   0  0  0  0  0  0  0  0  0  0  0  0
  161.1070  208.0030  155.7670 P   0  0  1  0  0  4  0  0  0  0  0  0
  161.8680  207.5020  147.2470 C   0  0  0  0  0  2  0  0  0  0  0  0
  161.6760  204.9510  147.5020 C   0  0  0  0  0  1  0  0  0  0  0  0
  161.0570  206.1960  146.9040 C   0  0  0  0  0  2  0  0  0  0  0  0
  1  3  2  0  0  0  0
  2  7  2  0  0  0  0
  2  8  1  0  0  0  0
  4  5  1  0  0  0  0
  5  1  2  0  0  0  0
  7  9  1  0  0  0  0
  8  4  2  0  0  0  0
  9  6  2  0  0  0  0
  9  5  1  0  0  0  0
 11 10  2  0  0  0  0
 11  6  1  0  0  0  0
 12 11  1  0  0  0  0
 13 15  1  0  0  0  0
 14 16  2  0  0  0  0
 15 12  2  0  0  0  0
 16 12  1  0  0  0  0
 17 13  2  0  0  0  0
 17 14  1  0  0  0  0
 19 18  1  0  0  0  0
 19 13  1  0  0  0  0
 20 17  1  0  0  0  0
 21 20  1  0  0  0  0
 22 21  1  0  0  0  0
 23 22  1  0  0  0  0
 24 23  1  0  0  0  0
 25 28  1  6  0  0  0
 25 26  1  0  0  0  0
 26 24  1  1  0  0  0
 27 25  1  0  0  0  0
 27 26  1  0  0  0  0
 29 28  1  0  0  0  0
 29 30  1  0  0  0  0
 31 30  1  0  0  0  0
 31 32  1  0  0  0  0
 33 31  2  0  0  0  0
 34  3  1  6  0  0  0
 34 45  1  0  0  0  0
 35 38  1  0  0  0  0
 35 37  1  0  0  0  0
 37 40  2  6  0  0  0
 37 34  1  0  0  0  0
 37 39  1  0  0  0  0
 38 44  1  6  0  0  0
 38 41  1  0  0  0  0
 39 36  1  0  0  0  0
 41 36  1  0  0  0  0
 42 44  2  0  0  0  0
 43 44  1  0  0  0  0
 48 47  2  6  0  0  0
 48 45  1  0  0  0  0
 48 46  1  0  0  0  0
 49  2  1  0  0  0  0
 51 49  1  0  0  0  0
 51 50  1  0  0  0  0
M  END
>  <MODEL>
2

>  <REMARK>
 VINA RESULT:      -5.3      3.817     10.119
  Name = 
  20 active torsions:
  status: ('A' for Active; 'I' for Inactive)
    1  A    between atoms: C_1  and  C_9
    2  A    between atoms: C_1  and  C_10
    3  A    between atoms: C_1  and  P_34
    4  A    between atoms: C_4  and  C_28
    5  A    between atoms: C_6  and  N_38
    6  A    between atoms: C_6  and  C_39
    7  A    between atoms: C_7  and  C_17
    8  A    between atoms: C_7  and  C_18
    9  A    between atoms: C_8  and  C_32
   10  A    between atoms: C_10  and  P_49
   11  A    between atoms: C_15  and  C_32
   12  A    between atoms: C_16  and  O_27
   13  A    between atoms: C_17  and  C_36
   14  A    between atoms: N_23  and  C_28
   15  A    between atoms: C_26  and  O_29
   16  A    between atoms: C_26  and  C_50
   17  A    between atoms: O_29  and  C_39
   18  A    between atoms: C_31  and  N_38
   19  A    between atoms: C_33  and  C_42
   20  A    between atoms: C_36  and  C_37
                            x       y       z     vdW  Elec       q    Type
                         _______ _______ _______ _____ _____    ______ ____

>  <TORSDO>
F 20

$$$$
=
 OpenBabel11042420213D

 51 54  0  0  1  0  0  0  0  0999 V2000
  161.3110  210.4020  153.6170 C   0  0  0  0  0  0  0  0  0  0  0  0
  161.6380  208.9690  149.6350 C   0  0  0  0  0  0  0  0  0  0  0  0
  161.2550  211.0850  154.7450 C   0  0  0  0  0  3  0  0  0  0  0  0
  161.6700  208.4440  152.1150 C   0  0  0  0  0  3  0  0  0  0  0  0
  161.4410  209.8880  152.3890 C   0  0  0  0  0  0  0  0  0  0  0  0
  160.8310  212.0160  151.5390 N   0  0  0  0  0  0  0  0  0  0  0  0
  161.4720  210.3110  149.8320 C   0  0  0  0  0  3  0  0  0  0  0  0
  161.7230  208.0100  150.8320 C   0  0  0  0  0  3  0  0  0  0  0  0
  161.2570  210.8360  151.2340 C   0  0  0  0  0  0  0  0  0  0  0  0
  160.1600  214.2520  151.4830 O   0  0  0  0  0  0  0  0  0  0  0  0
  160.4980  213.2560  150.8290 C   0  0  0  0  0  0  0  0  0  0  0  0
  160.5050  213.2800  149.3390 C   0  0  0  0  0  0  0  0  0  0  0  0
  159.5490  213.2150  147.1630 C   0  0  0  0  0  0  0  0  0  0  0  0
  161.9110  213.3810  147.3380 C   0  0  0  0  0  3  0  0  0  0  0  0
  159.3500  213.2330  148.5330 C   0  0  0  0  0  3  0  0  0  0  0  0
  161.7640  213.3280  148.6790 C   0  0  0  0  0  3  0  0  0  0  0  0
  160.7880  213.3680  146.5350 C   0  0  0  0  0  0  0  0  0  0  0  0
  157.0460  213.2780  147.0410 C   0  0  0  0  0  1  0  0  0  0  0  0
  158.3170  212.9150  146.5240 O   0  0  0  0  0  0  0  0  0  0  0  0
  161.2570  213.3250  145.0800 C   0  0  0  0  0  2  0  0  0  0  0  0
  160.7950  212.2180  144.3360 O   0  0  0  0  0  0  0  0  0  0  0  0
  160.9690  212.5580  142.9870 C   0  0  0  0  0  2  0  0  0  0  0  0
  162.4600  212.4820  142.5770 C   0  0  0  0  0  2  0  0  0  0  0  0
  162.8380  213.7290  141.9510 N   0  0  0  0  0  2  0  0  0  0  0  0
  162.6100  212.3600  139.8790 C   0  0  2  0  0  3  0  0  0  0  0  0
  162.5400  213.7130  140.5360 C   0  0  2  0  0  3  0  0  0  0  0  0
  163.6470  213.1780  139.7580 O   0  0  0  0  0  0  0  0  0  0  0  0
  161.8120  212.2870  138.5920 C   0  0  0  0  0  2  0  0  0  0  0  0
  161.0840  210.9170  138.4280 C   0  0  0  0  0  2  0  0  0  0  0  0
  161.8960  209.6070  138.1920 C   0  0  0  0  0  2  0  0  0  0  0  0
  161.0900  208.3300  138.4590 C   0  0  0  0  0  0  0  0  0  0  0  0
  159.9610  208.1410  137.6570 O   0  0  0  0  0  0  0  0  0  0  0  0
  161.5090  207.3460  139.0690 O   0  0  0  0  0  1  0  0  0  0  0  0
  160.1080  211.3320  155.7690 C   0  0  1  0  0  3  0  0  0  0  0  0
  158.1980  213.0790  153.8360 C   0  0  0  0  0  2  0  0  0  0  0  0
  156.6270  213.5480  156.0870 C   0  0  0  0  0  2  0  0  0  0  0  0
  158.3710  211.7020  155.0110 P   0  0  2  0  0  0  0  0  0  0  0  0
  156.6780  213.3320  153.5660 C   0  0  1  0  0  3  0  0  0  0  0  0
  156.9440  212.0550  156.1130 C   0  0  0  0  0  2  0  0  0  0  0  0
  157.9490  210.5200  154.1970 O   0  0  0  0  0  0  0  0  0  0  0  0
  155.9690  213.9220  154.7690 C   0  0  0  0  0  2  0  0  0  0  0  0
  157.0640  214.4530  151.4640 O   0  0  0  0  0  0  0  0  0  0  0  0
  154.8670  214.1150  152.0390 O   0  0  0  0  0  1  0  0  0  0  0  0
  156.2400  214.0260  152.3340 C   0  0  0  0  0  0  0  0  0  0  0  0
  160.0540  210.1590  156.8220 C   0  0  0  0  0  2  0  0  0  0  0  0
  159.3240  207.5580  155.6710 O   0  0  0  0  0  1  0  0  0  0  0  0
  161.9600  208.0590  156.1960 O   0  0  0  0  0  0  0  0  0  0  0  0
  160.5350  208.4640  156.4000 P   0  0  1  0  0  4  0  0  0  0  0  0
  162.0980  208.4230  148.3010 C   0  0  0  0  0  2  0  0  0  0  0  0
  160.9680  206.3990  147.1900 C   0  0  0  0  0  1  0  0  0  0  0  0
  162.0990  206.8630  148.0820 C   0  0  0  0  0  2  0  0  0  0  0  0
  1  3  2  0  0  0  0
  2  7  2  0  0  0  0
  2  8  1  0  0  0  0
  4  5  1  0  0  0  0
  5  1  2  0  0  0  0
  7  9  1  0  0  0  0
  8  4  2  0  0  0  0
  9  6  2  0  0  0  0
  9  5  1  0  0  0  0
 11 10  2  0  0  0  0
 11  6  1  0  0  0  0
 12 11  1  0  0  0  0
 13 15  1  0  0  0  0
 14 16  2  0  0  0  0
 15 12  2  0  0  0  0
 16 12  1  0  0  0  0
 17 13  2  0  0  0  0
 17 14  1  0  0  0  0
 19 18  1  0  0  0  0
 19 13  1  0  0  0  0
 20 17  1  0  0  0  0
 21 20  1  0  0  0  0
 22 21  1  0  0  0  0
 23 22  1  0  0  0  0
 24 23  1  0  0  0  0
 25 28  1  6  0  0  0
 25 26  1  0  0  0  0
 26 24  1  1  0  0  0
 27 25  1  0  0  0  0
 27 26  1  0  0  0  0
 29 28  1  0  0  0  0
 30 29  1  0  0  0  0
 30 31  1  0  0  0  0
 31 33  1  0  0  0  0
 32 31  2  0  0  0  0
 34  3  1  6  0  0  0
 34 45  1  0  0  0  0
 35 37  1  0  0  0  0
 36 39  1  0  0  0  0
 37 40  2  6  0  0  0
 37 34  1  0  0  0  0
 37 39  1  0  0  0  0
 38 44  1  6  0  0  0
 38 35  1  0  0  0  0
 38 41  1  0  0  0  0
 41 36  1  0  0  0  0
 42 44  2  0  0  0  0
 43 44  1  0  0  0  0
 47 48  2  0  0  0  0
 48 46  1  6  0  0  0
 48 45  1  0  0  0  0
 49  2  1  0  0  0  0
 50 51  1  0  0  0  0
 51 49  1  0  0  0  0
M  END
>  <MODEL>
3

>  <REMARK>
 VINA RESULT:      -4.9      3.858      9.599
  Name = 
  20 active torsions:
  status: ('A' for Active; 'I' for Inactive)
    1  A    between atoms: C_1  and  C_9
    2  A    between atoms: C_1  and  C_10
    3  A    between atoms: C_1  and  P_34
    4  A    between atoms: C_4  and  C_28
    5  A    between atoms: C_6  and  N_38
    6  A    between atoms: C_6  and  C_39
    7  A    between atoms: C_7  and  C_17
    8  A    between atoms: C_7  and  C_18
    9  A    between atoms: C_8  and  C_32
   10  A    between atoms: C_10  and  P_49
   11  A    between atoms: C_15  and  C_32
   12  A    between atoms: C_16  and  O_27
   13  A    between atoms: C_17  and  C_36
   14  A    between atoms: N_23  and  C_28
   15  A    between atoms: C_26  and  O_29
   16  A    between atoms: C_26  and  C_50
   17  A    between atoms: O_29  and  C_39
   18  A    between atoms: C_31  and  N_38
   19  A    between atoms: C_33  and  C_42
   20  A    between atoms: C_36  and  C_37
                            x       y       z     vdW  Elec       q    Type
                         _______ _______ _______ _____ _____    ______ ____

>  <TORSDO>
F 20

$$$$
=
 OpenBabel11042420213D

 51 54  0  0  1  0  0  0  0  0999 V2000
  161.7840  208.6830  153.4200 C   0  0  0  0  0  0  0  0  0  0  0  0
  160.9630  204.8060  151.9000 C   0  0  0  0  0  0  0  0  0  0  0  0
  162.1660  209.9230  153.6610 C   0  0  0  0  0  3  0  0  0  0  0  0
  161.0910  206.3390  153.9160 C   0  0  0  0  0  3  0  0  0  0  0  0
  161.5270  207.4360  153.0100 C   0  0  0  0  0  0  0  0  0  0  0  0
  161.7620  208.2230  150.7860 N   0  0  0  0  0  0  0  0  0  0  0  0
  161.4020  205.7650  151.0330 C   0  0  0  0  0  3  0  0  0  0  0  0
  160.7910  205.1240  153.3940 C   0  0  0  0  0  3  0  0  0  0  0  0
  161.6100  207.1780  151.5300 C   0  0  0  0  0  0  0  0  0  0  0  0
  162.0630  209.6850  148.9900 O   0  0  0  0  0  0  0  0  0  0  0  0
  161.8910  208.5140  149.3540 C   0  0  0  0  0  0  0  0  0  0  0  0
  161.7470  207.4140  148.3590 C   0  0  0  0  0  0  0  0  0  0  0  0
  162.4440  205.5180  147.1040 C   0  0  0  0  0  0  0  0  0  0  0  0
  160.2760  206.3950  146.6890 C   0  0  0  0  0  3  0  0  0  0  0  0
  162.7310  206.4380  148.0980 C   0  0  0  0  0  3  0  0  0  0  0  0
  160.5460  207.3530  147.6010 C   0  0  0  0  0  3  0  0  0  0  0  0
  161.2170  205.4130  146.4430 C   0  0  0  0  0  0  0  0  0  0  0  0
  163.9240  204.2580  145.5210 C   0  0  0  0  0  1  0  0  0  0  0  0
  163.6220  204.7850  146.8040 O   0  0  0  0  0  0  0  0  0  0  0  0
  160.6930  204.5420  145.3000 C   0  0  0  0  0  2  0  0  0  0  0  0
  161.4280  204.6280  144.0990 O   0  0  0  0  0  0  0  0  0  0  0  0
  161.2550  205.9380  143.6320 C   0  0  0  0  0  2  0  0  0  0  0  0
  162.2010  206.2410  142.4440 C   0  0  0  0  0  2  0  0  0  0  0  0
  161.4060  206.5930  141.2900 N   0  0  0  0  0  2  0  0  0  0  0  0
  161.5000  207.5800  139.0020 C   0  0  2  0  0  3  0  0  0  0  0  0
  162.2020  207.2860  140.3010 C   0  0  2  0  0  3  0  0  0  0  0  0
  162.3050  206.5270  139.0640 O   0  0  0  0  0  0  0  0  0  0  0  0
  162.1400  208.7180  138.2310 C   0  0  0  0  0  2  0  0  0  0  0  0
  161.1860  209.9450  138.0940 C   0  0  0  0  0  2  0  0  0  0  0  0
  160.1180  210.2500  139.1890 C   0  0  0  0  0  2  0  0  0  0  0  0
  160.2550  211.6470  139.8060 C   0  0  0  0  0  0  0  0  0  0  0  0
  159.6310  211.8330  141.0430 O   0  0  0  0  0  1  0  0  0  0  0  0
  161.0950  212.4850  139.4760 O   0  0  0  0  0  0  0  0  0  0  0  0
  161.3700  211.2430  153.8850 C   0  0  1  0  0  3  0  0  0  0  0  0
  160.4550  212.6790  151.1400 C   0  0  0  0  0  2  0  0  0  0  0  0
  158.4710  213.9260  152.6470 C   0  0  0  0  0  2  0  0  0  0  0  0
  160.0170  211.6410  152.5680 P   0  0  2  0  0  0  0  0  0  0  0  0
  159.1490  213.0610  150.3670 C   0  0  1  0  0  3  0  0  0  0  0  0
  158.4520  212.4610  153.0760 C   0  0  0  0  0  2  0  0  0  0  0  0
  159.5910  210.3590  151.9260 O   0  0  0  0  0  0  0  0  0  0  0  0
  158.2830  214.0330  151.1430 C   0  0  0  0  0  2  0  0  0  0  0  0
  158.2080  213.9540  148.3320 O   0  0  0  0  0  1  0  0  0  0  0  0
  160.4430  213.4370  148.2670 O   0  0  0  0  0  0  0  0  0  0  0  0
  159.2110  213.4670  148.9450 C   0  0  0  0  0  0  0  0  0  0  0  0
  160.7980  211.2940  155.3530 C   0  0  0  0  0  2  0  0  0  0  0  0
  159.9280  208.8600  156.7460 O   0  0  0  0  0  1  0  0  0  0  0  0
  158.0440  210.7240  156.0760 O   0  0  0  0  0  0  0  0  0  0  0  0
  159.4410  210.2230  155.8950 P   0  0  1  0  0  4  0  0  0  0  0  0
  160.9750  203.3410  151.5230 C   0  0  0  0  0  2  0  0  0  0  0  0
  160.9480  201.4620  149.7680 C   0  0  0  0  0  1  0  0  0  0  0  0
  160.7950  202.9480  150.0070 C   0  0  0  0  0  2  0  0  0  0  0  0
  1  3  2  0  0  0  0
  2  8  1  0  0  0  0
  5  1  2  0  0  0  0
  5  4  1  0  0  0  0
  6  9  2  0  0  0  0
  7  9  1  0  0  0  0
  7  2  2  0  0  0  0
  8  4  2  0  0  0  0
  9  5  1  0  0  0  0
 10 11  2  0  0  0  0
 11  6  1  0  0  0  0
 12 11  1  0  0  0  0
 13 15  2  0  0  0  0
 14 16  1  0  0  0  0
 15 12  1  0  0  0  0
 16 12  2  0  0  0  0
 17 14  2  0  0  0  0
 17 13  1  0  0  0  0
 18 19  1  0  0  0  0
 19 13  1  0  0  0  0
 20 17  1  0  0  0  0
 21 20  1  0  0  0  0
 22 21  1  0  0  0  0
 23 22  1  0  0  0  0
 24 23  1  0  0  0  0
 25 28  1  6  0  0  0
 25 27  1  0  0  0  0
 25 26  1  0  0  0  0
 26 24  1  1  0  0  0
 27 26  1  0  0  0  0
 29 28  1  0  0  0  0
 29 30  1  0  0  0  0
 30 31  1  0  0  0  0
 31 32  1  0  0  0  0
 33 31  2  0  0  0  0
 34  3  1  6  0  0  0
 34 45  1  0  0  0  0
 35 37  1  0  0  0  0
 36 39  1  0  0  0  0
 37 40  2  6  0  0  0
 37 39  1  0  0  0  0
 37 34  1  0  0  0  0
 38 44  1  6  0  0  0
 38 35  1  0  0  0  0
 38 41  1  0  0  0  0
 41 36  1  0  0  0  0
 42 44  1  0  0  0  0
 43 44  2  0  0  0  0
 45 48  1  0  0  0  0
 48 47  2  1  0  0  0
 48 46  1  0  0  0  0
 49  2  1  0  0  0  0
 50 51  1  0  0  0  0
 51 49  1  0  0  0  0
M  END
>  <MODEL>
4

>  <REMARK>
 VINA RESULT:      -4.8      3.408      7.655
  Name = 
  20 active torsions:
  status: ('A' for Active; 'I' for Inactive)
    1  A    between atoms: C_1  and  C_9
    2  A    between atoms: C_1  and  C_10
    3  A    between atoms: C_1  and  P_34
    4  A    between atoms: C_4  and  C_28
    5  A    between atoms: C_6  and  N_38
    6  A    between atoms: C_6  and  C_39
    7  A    between atoms: C_7  and  C_17
    8  A    between atoms: C_7  and  C_18
    9  A    between atoms: C_8  and  C_32
   10  A    between atoms: C_10  and  P_49
   11  A    between atoms: C_15  and  C_32
   12  A    between atoms: C_16  and  O_27
   13  A    between atoms: C_17  and  C_36
   14  A    between atoms: N_23  and  C_28
   15  A    between atoms: C_26  and  O_29
   16  A    between atoms: C_26  and  C_50
   17  A    between atoms: O_29  and  C_39
   18  A    between atoms: C_31  and  N_38
   19  A    between atoms: C_33  and  C_42
   20  A    between atoms: C_36  and  C_37
                            x       y       z     vdW  Elec       q    Type
                         _______ _______ _______ _____ _____    ______ ____

>  <TORSDO>
F 20

$$$$
=
 OpenBabel11042420213D

 51 54  0  0  1  0  0  0  0  0999 V2000
  161.2100  209.6850  148.0280 C   0  0  0  0  0  0  0  0  0  0  0  0
  161.6240  205.5600  148.9420 C   0  0  0  0  0  0  0  0  0  0  0  0
  160.9960  210.9860  147.9950 C   0  0  0  0  0  3  0  0  0  0  0  0
  161.4580  207.3590  147.1620 C   0  0  0  0  0  3  0  0  0  0  0  0
  161.3260  208.3690  148.2460 C   0  0  0  0  0  0  0  0  0  0  0  0
  161.5230  208.8680  150.5550 N   0  0  0  0  0  0  0  0  0  0  0  0
  161.4620  206.4410  149.9730 C   0  0  0  0  0  3  0  0  0  0  0  0
  161.6360  206.0540  147.4870 C   0  0  0  0  0  3  0  0  0  0  0  0
  161.4080  207.9250  149.6810 C   0  0  0  0  0  0  0  0  0  0  0  0
  162.1920  208.0630  152.6430 O   0  0  0  0  0  0  0  0  0  0  0  0
  161.6390  208.9750  152.0140 C   0  0  0  0  0  0  0  0  0  0  0  0
  161.0360  210.1400  152.7210 C   0  0  0  0  0  0  0  0  0  0  0  0
  160.8290  211.7610  154.4480 C   0  0  0  0  0  0  0  0  0  0  0  0
  159.2120  211.7720  152.7090 C   0  0  0  0  0  3  0  0  0  0  0  0
  161.5490  210.7120  153.9030 C   0  0  0  0  0  3  0  0  0  0  0  0
  159.8440  210.7010  152.1840 C   0  0  0  0  0  3  0  0  0  0  0  0
  159.7190  212.3640  153.8500 C   0  0  0  0  0  0  0  0  0  0  0  0
  161.9790  211.0820  156.5700 C   0  0  0  0  0  1  0  0  0  0  0  0
  161.3370  212.0410  155.7440 O   0  0  0  0  0  0  0  0  0  0  0  0
  158.7490  213.4670  154.2730 C   0  0  0  0  0  2  0  0  0  0  0  0
  157.8040  213.8400  153.2930 O   0  0  0  0  0  0  0  0  0  0  0  0
  156.7500  214.4530  153.9850 C   0  0  0  0  0  2  0  0  0  0  0  0
  155.5810  213.4660  154.2170 C   0  0  0  0  0  2  0  0  0  0  0  0
  155.1800  213.5320  155.6040 N   0  0  0  0  0  2  0  0  0  0  0  0
  156.4960  211.4250  155.8190 C   0  0  2  0  0  3  0  0  0  0  0  0
  156.0430  212.7220  156.4350 C   0  0  2  0  0  3  0  0  0  0  0  0
  155.4800  211.4020  156.6710 O   0  0  0  0  0  0  0  0  0  0  0  0
  157.7610  210.8810  156.4540 C   0  0  0  0  0  2  0  0  0  0  0  0
  158.2460  209.5660  155.7670 C   0  0  0  0  0  2  0  0  0  0  0  0
  159.6920  209.0320  156.0010 C   0  0  0  0  0  2  0  0  0  0  0  0
  159.7620  207.5110  156.1770 C   0  0  0  0  0  0  0  0  0  0  0  0
  160.2220  206.7880  155.0720 O   0  0  0  0  0  0  0  0  0  0  0  0
  159.7560  206.9250  157.2600 O   0  0  0  0  0  1  0  0  0  0  0  0
  161.9470  212.2040  147.8040 C   0  0  1  0  0  3  0  0  0  0  0  0
  160.9410  212.4290  144.7420 C   0  0  0  0  0  2  0  0  0  0  0  0
  163.5070  213.3300  144.1380 C   0  0  0  0  0  2  0  0  0  0  0  0
  161.6730  213.2390  146.1980 P   0  0  2  0  0  0  0  0  0  0  0  0
  161.0560  213.3900  143.5120 C   0  0  1  0  0  3  0  0  0  0  0  0
  163.0930  214.0880  145.3970 C   0  0  0  0  0  2  0  0  0  0  0  0
  160.6910  214.3260  146.4980 O   0  0  0  0  0  0  0  0  0  0  0  0
  162.4860  213.5480  143.0350 C   0  0  0  0  0  2  0  0  0  0  0  0
  158.8860  213.2680  142.4640 O   0  0  0  0  0  1  0  0  0  0  0  0
  160.6950  213.1660  141.0540 O   0  0  0  0  0  0  0  0  0  0  0  0
  160.1530  213.2330  142.3500 C   0  0  0  0  0  0  0  0  0  0  0  0
  161.9440  213.1080  149.0950 C   0  0  0  0  0  2  0  0  0  0  0  0
  159.0170  213.3320  148.9960 O   0  0  0  0  0  1  0  0  0  0  0  0
  160.3390  214.4400  151.1170 O   0  0  0  0  0  0  0  0  0  0  0  0
  160.4260  213.8580  149.7420 P   0  0  1  0  0  4  0  0  0  0  0  0
  161.4380  204.0720  149.1450 C   0  0  0  0  0  2  0  0  0  0  0  0
  161.2060  201.6970  148.1890 C   0  0  0  0  0  1  0  0  0  0  0  0
  161.0810  203.1770  147.8980 C   0  0  0  0  0  2  0  0  0  0  0  0
  1  5  2  0  0  0  0
  2 49  1  0  0  0  0
  2  7  2  0  0  0  0
  3  1  2  0  0  0  0
  4  8  2  0  0  0  0
  4  5  1  0  0  0  0
  5  9  1  0  0  0  0
  6 11  1  0  0  0  0
  8  2  1  0  0  0  0
  9  7  1  0  0  0  0
  9  6  2  0  0  0  0
 11 10  2  0  0  0  0
 11 12  1  0  0  0  0
 12 15  1  0  0  0  0
 13 19  1  0  0  0  0
 14 17  2  0  0  0  0
 15 13  2  0  0  0  0
 16 14  1  0  0  0  0
 16 12  2  0  0  0  0
 17 20  1  0  0  0  0
 17 13  1  0  0  0  0
 19 18  1  0  0  0  0
 21 22  1  0  0  0  0
 21 20  1  0  0  0  0
 22 23  1  0  0  0  0
 23 24  1  0  0  0  0
 25 26  1  0  0  0  0
 25 28  1  1  0  0  0
 25 27  1  0  0  0  0
 26 24  1  6  0  0  0
 26 27  1  0  0  0  0
 29 30  1  0  0  0  0
 29 28  1  0  0  0  0
 30 31  1  0  0  0  0
 31 33  1  0  0  0  0
 32 31  2  0  0  0  0
 34  3  1  1  0  0  0
 34 45  1  0  0  0  0
 35 37  1  0  0  0  0
 36 39  1  0  0  0  0
 37 40  2  1  0  0  0
 37 34  1  0  0  0  0
 38 44  1  6  0  0  0
 38 35  1  0  0  0  0
 39 37  1  0  0  0  0
 41 38  1  0  0  0  0
 41 36  1  0  0  0  0
 43 44  2  0  0  0  0
 44 42  1  0  0  0  0
 45 48  1  0  0  0  0
 48 46  1  1  0  0  0
 48 47  2  0  0  0  0
 51 50  1  0  0  0  0
 51 49  1  0  0  0  0
M  END
>  <MODEL>
5

>  <REMARK>
 VINA RESULT:      -4.0      2.999      7.914
  Name = 
  20 active torsions:
  status: ('A' for Active; 'I' for Inactive)
    1  A    between atoms: C_1  and  C_9
    2  A    between atoms: C_1  and  C_10
    3  A    between atoms: C_1  and  P_34
    4  A    between atoms: C_4  and  C_28
    5  A    between atoms: C_6  and  N_38
    6  A    between atoms: C_6  and  C_39
    7  A    between atoms: C_7  and  C_17
    8  A    between atoms: C_7  and  C_18
    9  A    between atoms: C_8  and  C_32
   10  A    between atoms: C_10  and  P_49
   11  A    between atoms: C_15  and  C_32
   12  A    between atoms: C_16  and  O_27
   13  A    between atoms: C_17  and  C_36
   14  A    between atoms: N_23  and  C_28
   15  A    between atoms: C_26  and  O_29
   16  A    between atoms: C_26  and  C_50
   17  A    between atoms: O_29  and  C_39
   18  A    between atoms: C_31  and  N_38
   19  A    between atoms: C_33  and  C_42
   20  A    between atoms: C_36  and  C_37
                            x       y       z     vdW  Elec       q    Type
                         _______ _______ _______ _____ _____    ______ ____

>  <TORSDO>
F 20

$$$$
=
 OpenBabel11042420213D

 51 54  0  0  1  0  0  0  0  0999 V2000
  161.5920  210.4070  153.6870 C   0  0  0  0  0  0  0  0  0  0  0  0
  161.6040  208.5140  149.8880 C   0  0  0  0  0  0  0  0  0  0  0  0
  161.6120  211.2200  154.7270 C   0  0  0  0  0  3  0  0  0  0  0  0
  161.8910  208.2930  152.3980 C   0  0  0  0  0  3  0  0  0  0  0  0
  161.6280  209.7520  152.5210 C   0  0  0  0  0  0  0  0  0  0  0  0
  160.8520  211.7430  151.4920 N   0  0  0  0  0  0  0  0  0  0  0  0
  161.4020  209.8640  149.9410 C   0  0  0  0  0  3  0  0  0  0  0  0
  161.8410  207.7090  151.1750 C   0  0  0  0  0  3  0  0  0  0  0  0
  161.2970  210.5480  151.2870 C   0  0  0  0  0  0  0  0  0  0  0  0
  159.8550  213.8380  151.2330 O   0  0  0  0  0  0  0  0  0  0  0  0
  160.4020  212.8770  150.6770 C   0  0  0  0  0  0  0  0  0  0  0  0
  160.5480  212.8270  149.1950 C   0  0  0  0  0  0  0  0  0  0  0  0
  161.7200  212.6340  147.1350 C   0  0  0  0  0  0  0  0  0  0  0  0
  159.3760  213.0080  147.0530 C   0  0  0  0  0  3  0  0  0  0  0  0
  161.7630  212.5980  148.5190 C   0  0  0  0  0  3  0  0  0  0  0  0
  159.3890  213.0520  148.4030 C   0  0  0  0  0  3  0  0  0  0  0  0
  160.5530  212.7530  146.3760 C   0  0  0  0  0  0  0  0  0  0  0  0
  164.1740  212.1770  147.3680 C   0  0  0  0  0  1  0  0  0  0  0  0
  163.0490  212.6370  146.6350 O   0  0  0  0  0  0  0  0  0  0  0  0
  160.2640  212.8730  144.8790 C   0  0  0  0  0  2  0  0  0  0  0  0
  160.6890  211.7770  144.0980 O   0  0  0  0  0  0  0  0  0  0  0  0
  160.0030  211.8800  142.8800 C   0  0  0  0  0  2  0  0  0  0  0  0
  160.7830  211.1890  141.7360 C   0  0  0  0  0  2  0  0  0  0  0  0
  160.5750  211.9310  140.5130 N   0  0  0  0  0  2  0  0  0  0  0  0
  158.9060  211.9630  138.6600 C   0  0  2  0  0  3  0  0  0  0  0  0
  159.8070  211.1600  139.5610 C   0  0  2  0  0  3  0  0  0  0  0  0
  158.3770  211.3710  139.7230 O   0  0  0  0  0  0  0  0  0  0  0  0
  158.5430  211.2300  137.3840 C   0  0  0  0  0  2  0  0  0  0  0  0
  157.0970  210.6440  137.4330 C   0  0  0  0  0  2  0  0  0  0  0  0
  156.8650  209.1130  137.6190 C   0  0  0  0  0  2  0  0  0  0  0  0
  155.4410  208.7600  138.0650 C   0  0  0  0  0  0  0  0  0  0  0  0
  154.5330  208.4710  137.0420 O   0  0  0  0  0  0  0  0  0  0  0  0
  155.1240  208.4110  139.2030 O   0  0  0  0  0  1  0  0  0  0  0  0
  160.5570  211.5520  155.8220 C   0  0  1  0  0  3  0  0  0  0  0  0
  157.5090  212.6110  155.9700 C   0  0  0  0  0  2  0  0  0  0  0  0
  157.4800  212.4160  153.1920 C   0  0  0  0  0  2  0  0  0  0  0  0
  159.1930  212.8210  155.3160 P   0  0  2  0  0  0  0  0  0  0  0  0
  156.5460  213.5950  155.2260 C   0  0  1  0  0  3  0  0  0  0  0  0
  158.8030  213.0930  153.5410 C   0  0  0  0  0  2  0  0  0  0  0  0
  159.5840  214.1670  155.8380 O   0  0  0  0  0  0  0  0  0  0  0  0
  156.3190  213.1990  153.7820 C   0  0  0  0  0  2  0  0  0  0  0  0
  154.2470  214.3250  155.1510 O   0  0  0  0  0  0  0  0  0  0  0  0
  155.1060  213.9120  157.2390 O   0  0  0  0  0  1  0  0  0  0  0  0
  155.2630  214.0010  155.8440 C   0  0  0  0  0  0  0  0  0  0  0  0
  159.9400  210.2250  156.4080 C   0  0  0  0  0  2  0  0  0  0  0  0
  161.9100  208.1090  156.9230 O   0  0  0  0  0  1  0  0  0  0  0  0
  159.7820  207.5440  155.3030 O   0  0  0  0  0  0  0  0  0  0  0  0
  160.6000  208.5900  155.9900 P   0  0  1  0  0  4  0  0  0  0  0  0
  161.9600  207.8250  148.5890 C   0  0  0  0  0  2  0  0  0  0  0  0
  161.0970  205.5540  147.7500 C   0  0  0  0  0  1  0  0  0  0  0  0
  160.8330  207.0430  147.8140 C   0  0  0  0  0  2  0  0  0  0  0  0
  1  3  2  0  0  0  0
  2  7  2  0  0  0  0
  2  8  1  0  0  0  0
  4  5  1  0  0  0  0
  5  1  2  0  0  0  0
  7  9  1  0  0  0  0
  8  4  2  0  0  0  0
  9  6  2  0  0  0  0
  9  5  1  0  0  0  0
 11 10  2  0  0  0  0
 11  6  1  0  0  0  0
 12 11  1  0  0  0  0
 13 15  2  0  0  0  0
 14 16  1  0  0  0  0
 15 12  1  0  0  0  0
 16 12  2  0  0  0  0
 17 14  2  0  0  0  0
 17 13  1  0  0  0  0
 19 13  1  0  0  0  0
 19 18  1  0  0  0  0
 20 17  1  0  0  0  0
 21 20  1  0  0  0  0
 22 21  1  0  0  0  0
 23 22  1  0  0  0  0
 24 23  1  0  0  0  0
 25 28  1  6  0  0  0
 25 26  1  0  0  0  0
 25 27  1  0  0  0  0
 26 27  1  0  0  0  0
 26 24  1  1  0  0  0
 28 29  1  0  0  0  0
 29 30  1  0  0  0  0
 30 31  1  0  0  0  0
 31 33  1  0  0  0  0
 32 31  2  0  0  0  0
 34  3  1  6  0  0  0
 34 45  1  0  0  0  0
 36 39  1  0  0  0  0
 36 41  1  0  0  0  0
 37 34  1  0  0  0  0
 37 40  2  1  0  0  0
 37 35  1  0  0  0  0
 38 44  1  1  0  0  0
 38 35  1  0  0  0  0
 39 37  1  0  0  0  0
 41 38  1  0  0  0  0
 42 44  2  0  0  0  0
 44 43  1  0  0  0  0
 48 47  2  1  0  0  0
 48 45  1  0  0  0  0
 48 46  1  0  0  0  0
 49  2  1  0  0  0  0
 50 51  1  0  0  0  0
 51 49  1  0  0  0  0
M  END
>  <MODEL>
6

>  <REMARK>
 VINA RESULT:      -3.7      4.375      9.901
  Name = 
  20 active torsions:
  status: ('A' for Active; 'I' for Inactive)
    1  A    between atoms: C_1  and  C_9
    2  A    between atoms: C_1  and  C_10
    3  A    between atoms: C_1  and  P_34
    4  A    between atoms: C_4  and  C_28
    5  A    between atoms: C_6  and  N_38
    6  A    between atoms: C_6  and  C_39
    7  A    between atoms: C_7  and  C_17
    8  A    between atoms: C_7  and  C_18
    9  A    between atoms: C_8  and  C_32
   10  A    between atoms: C_10  and  P_49
   11  A    between atoms: C_15  and  C_32
   12  A    between atoms: C_16  and  O_27
   13  A    between atoms: C_17  and  C_36
   14  A    between atoms: N_23  and  C_28
   15  A    between atoms: C_26  and  O_29
   16  A    between atoms: C_26  and  C_50
   17  A    between atoms: O_29  and  C_39
   18  A    between atoms: C_31  and  N_38
   19  A    between atoms: C_33  and  C_42
   20  A    between atoms: C_36  and  C_37
                            x       y       z     vdW  Elec       q    Type
                         _______ _______ _______ _____ _____    ______ ____

>  <TORSDO>
F 20

$$$$
=
 OpenBabel11042420213D

 51 54  0  0  1  0  0  0  0  0999 V2000
  162.1930  206.4320  151.2810 C   0  0  0  0  0  0  0  0  0  0  0  0
  161.1580  207.1470  147.2270 C   0  0  0  0  0  0  0  0  0  0  0  0
  162.6010  206.4620  152.5360 C   0  0  0  0  0  3  0  0  0  0  0  0
  161.6040  205.4550  149.0630 C   0  0  0  0  0  3  0  0  0  0  0  0
  161.8790  206.5870  149.9890 C   0  0  0  0  0  0  0  0  0  0  0  0
  161.7450  208.9180  150.4010 N   0  0  0  0  0  0  0  0  0  0  0  0
  161.4450  208.2190  148.0230 C   0  0  0  0  0  3  0  0  0  0  0  0
  161.2300  205.7170  147.7860 C   0  0  0  0  0  3  0  0  0  0  0  0
  161.7220  207.9990  149.4940 C   0  0  0  0  0  0  0  0  0  0  0  0
  161.3930  210.9270  151.5380 O   0  0  0  0  0  0  0  0  0  0  0  0
  161.6370  210.3800  150.4540 C   0  0  0  0  0  0  0  0  0  0  0  0
  161.7550  211.1760  149.2000 C   0  0  0  0  0  0  0  0  0  0  0  0
  160.9570  212.3940  147.3200 C   0  0  0  0  0  0  0  0  0  0  0  0
  163.3030  212.1020  147.5460 C   0  0  0  0  0  3  0  0  0  0  0  0
  160.6630  211.7230  148.4950 C   0  0  0  0  0  3  0  0  0  0  0  0
  163.0540  211.3800  148.6580 C   0  0  0  0  0  3  0  0  0  0  0  0
  162.2470  212.6720  146.8610 C   0  0  0  0  0  0  0  0  0  0  0  0
  158.4590  212.5780  147.2170 C   0  0  0  0  0  1  0  0  0  0  0  0
  159.7470  212.6520  146.6250 O   0  0  0  0  0  0  0  0  0  0  0  0
  162.8110  213.3270  145.5990 C   0  0  0  0  0  2  0  0  0  0  0  0
  162.1580  212.9720  144.3990 O   0  0  0  0  0  0  0  0  0  0  0  0
  162.9000  213.5610  143.3650 C   0  0  0  0  0  2  0  0  0  0  0  0
  162.1790  213.4160  142.0040 C   0  0  0  0  0  2  0  0  0  0  0  0
  161.8900  212.0190  141.7730 N   0  0  0  0  0  2  0  0  0  0  0  0
  161.1440  210.8230  139.7150 C   0  0  2  0  0  3  0  0  0  0  0  0
  160.8600  211.8590  140.7710 C   0  0  2  0  0  3  0  0  0  0  0  0
  161.3690  212.0990  139.4290 O   0  0  0  0  0  0  0  0  0  0  0  0
  159.8890  210.3190  139.0310 C   0  0  0  0  0  2  0  0  0  0  0  0
  160.0510  208.8580  138.5070 C   0  0  0  0  0  2  0  0  0  0  0  0
  161.4470  208.3200  138.0670 C   0  0  0  0  0  2  0  0  0  0  0  0
  162.0410  207.2920  139.0380 C   0  0  0  0  0  0  0  0  0  0  0  0
  161.9020  207.5850  140.3980 O   0  0  0  0  0  1  0  0  0  0  0  0
  162.3310  206.1320  138.7460 O   0  0  0  0  0  0  0  0  0  0  0  0
  161.8440  206.3300  153.8910 C   0  0  1  0  0  3  0  0  0  0  0  0
  160.3390  209.1370  153.3530 C   0  0  0  0  0  2  0  0  0  0  0  0
  162.3770  210.3250  154.8340 C   0  0  0  0  0  2  0  0  0  0  0  0
  161.0140  207.9430  154.5480 P   0  0  2  0  0  0  0  0  0  0  0  0
  159.9570  210.4540  154.1070 C   0  0  1  0  0  3  0  0  0  0  0  0
  161.9590  209.0900  155.6290 C   0  0  0  0  0  2  0  0  0  0  0  0
  159.8090  207.5620  155.3490 O   0  0  0  0  0  0  0  0  0  0  0  0
  161.1740  211.2190  154.5850 C   0  0  0  0  0  2  0  0  0  0  0  0
  158.4390  211.2010  152.3860 O   0  0  0  0  0  0  0  0  0  0  0  0
  158.4950  212.4670  154.3000 O   0  0  0  0  0  1  0  0  0  0  0  0
  158.9690  211.3920  153.5270 C   0  0  0  0  0  0  0  0  0  0  0  0
  160.8300  205.1250  153.8360 C   0  0  0  0  0  2  0  0  0  0  0  0
  159.6930  204.2270  151.2810 O   0  0  0  0  0  1  0  0  0  0  0  0
  162.0280  203.0950  152.1390 O   0  0  0  0  0  0  0  0  0  0  0  0
  160.8320  203.9260  152.4770 P   0  0  1  0  0  4  0  0  0  0  0  0
  161.1170  207.2780  145.7200 C   0  0  0  0  0  2  0  0  0  0  0  0
  161.4640  205.3700  144.0320 C   0  0  0  0  0  1  0  0  0  0  0  0
  160.4580  206.1210  144.8770 C   0  0  0  0  0  2  0  0  0  0  0  0
  1  3  2  0  0  0  0
  2  8  1  0  0  0  0
  2  7  2  0  0  0  0
  4  5  1  0  0  0  0
  5  1  2  0  0  0  0
  6 11  1  0  0  0  0
  7  9  1  0  0  0  0
  8  4  2  0  0  0  0
  9  5  1  0  0  0  0
  9  6  2  0  0  0  0
 11 10  2  0  0  0  0
 12 11  1  0  0  0  0
 13 15  1  0  0  0  0
 14 16  2  0  0  0  0
 15 12  2  0  0  0  0
 16 12  1  0  0  0  0
 17 13  2  0  0  0  0
 17 14  1  0  0  0  0
 19 18  1  0  0  0  0
 19 13  1  0  0  0  0
 20 17  1  0  0  0  0
 21 20  1  0  0  0  0
 22 21  1  0  0  0  0
 23 22  1  0  0  0  0
 24 23  1  0  0  0  0
 25 28  1  6  0  0  0
 25 26  1  0  0  0  0
 26 24  1  1  0  0  0
 27 25  1  0  0  0  0
 27 26  1  0  0  0  0
 29 28  1  0  0  0  0
 30 29  1  0  0  0  0
 30 31  1  0  0  0  0
 31 32  1  0  0  0  0
 33 31  2  0  0  0  0
 34  3  1  6  0  0  0
 34 37  1  0  0  0  0
 35 38  1  0  0  0  0
 35 37  1  0  0  0  0
 36 39  1  0  0  0  0
 37 40  2  1  0  0  0
 37 39  1  0  0  0  0
 38 44  1  6  0  0  0
 38 41  1  0  0  0  0
 41 36  1  0  0  0  0
 42 44  2  0  0  0  0
 44 43  1  0  0  0  0
 45 34  1  0  0  0  0
 47 48  2  0  0  0  0
 48 46  1  6  0  0  0
 48 45  1  0  0  0  0
 49  2  1  0  0  0  0
 50 51  1  0  0  0  0
 51 49  1  0  0  0  0
M  END
>  <MODEL>
7

>  <REMARK>
 VINA RESULT:      -3.5      3.544      9.757
  Name = 
  20 active torsions:
  status: ('A' for Active; 'I' for Inactive)
    1  A    between atoms: C_1  and  C_9
    2  A    between atoms: C_1  and  C_10
    3  A    between atoms: C_1  and  P_34
    4  A    between atoms: C_4  and  C_28
    5  A    between atoms: C_6  and  N_38
    6  A    between atoms: C_6  and  C_39
    7  A    between atoms: C_7  and  C_17
    8  A    between atoms: C_7  and  C_18
    9  A    between atoms: C_8  and  C_32
   10  A    between atoms: C_10  and  P_49
   11  A    between atoms: C_15  and  C_32
   12  A    between atoms: C_16  and  O_27
   13  A    between atoms: C_17  and  C_36
   14  A    between atoms: N_23  and  C_28
   15  A    between atoms: C_26  and  O_29
   16  A    between atoms: C_26  and  C_50
   17  A    between atoms: O_29  and  C_39
   18  A    between atoms: C_31  and  N_38
   19  A    between atoms: C_33  and  C_42
   20  A    between atoms: C_36  and  C_37
                            x       y       z     vdW  Elec       q    Type
                         _______ _______ _______ _____ _____    ______ ____

>  <TORSDO>
F 20

$$$$
=
 OpenBabel11042420213D

 51 54  0  0  1  0  0  0  0  0999 V2000
  162.0850  206.1330  151.1170 C   0  0  0  0  0  0  0  0  0  0  0  0
  161.0820  207.0960  147.1060 C   0  0  0  0  0  0  0  0  0  0  0  0
  162.4800  206.0860  152.3750 C   0  0  0  0  0  3  0  0  0  0  0  0
  161.5290  205.2950  148.8350 C   0  0  0  0  0  3  0  0  0  0  0  0
  161.7820  206.3670  149.8350 C   0  0  0  0  0  0  0  0  0  0  0  0
  161.6170  208.6650  150.3940 N   0  0  0  0  0  0  0  0  0  0  0  0
  161.3480  208.1170  147.9730 C   0  0  0  0  0  3  0  0  0  0  0  0
  161.1650  205.6340  147.5730 C   0  0  0  0  0  3  0  0  0  0  0  0
  161.6140  207.8060  149.4300 C   0  0  0  0  0  0  0  0  0  0  0  0
  161.2180  210.5930  151.6510 O   0  0  0  0  0  0  0  0  0  0  0  0
  161.4910  210.1200  150.5400 C   0  0  0  0  0  0  0  0  0  0  0  0
  161.6270  210.9970  149.3430 C   0  0  0  0  0  0  0  0  0  0  0  0
  160.8630  212.2410  147.4660 C   0  0  0  0  0  0  0  0  0  0  0  0
  163.2000  212.1690  147.8790 C   0  0  0  0  0  3  0  0  0  0  0  0
  160.5460  211.4750  148.5750 C   0  0  0  0  0  3  0  0  0  0  0  0
  162.9380  211.3600  148.9270 C   0  0  0  0  0  3  0  0  0  0  0  0
  162.1500  212.6710  147.1350 C   0  0  0  0  0  0  0  0  0  0  0  0
  158.9990  213.6510  146.5590 C   0  0  0  0  0  1  0  0  0  0  0  0
  159.6920  212.4190  146.6820 O   0  0  0  0  0  0  0  0  0  0  0  0
  162.7430  213.4530  145.9620 C   0  0  0  0  0  2  0  0  0  0  0  0
  162.1280  213.2170  144.7140 O   0  0  0  0  0  0  0  0  0  0  0  0
  163.1490  213.2960  143.7570 C   0  0  0  0  0  2  0  0  0  0  0  0
  162.5720  213.3280  142.3210 C   0  0  0  0  0  2  0  0  0  0  0  0
  162.0970  212.0070  141.9780 N   0  0  0  0  0  2  0  0  0  0  0  0
  160.7310  210.9200  140.1970 C   0  0  2  0  0  3  0  0  0  0  0  0
  160.9200  212.0780  141.1390 C   0  0  2  0  0  3  0  0  0  0  0  0
  161.2620  212.0400  139.7260 O   0  0  0  0  0  0  0  0  0  0  0  0
  159.2940  210.7580  139.7430 C   0  0  0  0  0  2  0  0  0  0  0  0
  159.1140  209.5450  138.7770 C   0  0  0  0  0  2  0  0  0  0  0  0
  158.7080  209.7670  137.2880 C   0  0  0  0  0  2  0  0  0  0  0  0
  157.2690  210.2670  137.1130 C   0  0  0  0  0  0  0  0  0  0  0  0
  156.2660  209.3010  137.2380 O   0  0  0  0  0  1  0  0  0  0  0  0
  156.9180  211.4450  137.1890 O   0  0  0  0  0  0  0  0  0  0  0  0
  161.7120  205.8600  153.7110 C   0  0  1  0  0  3  0  0  0  0  0  0
  161.9070  208.6860  155.2620 C   0  0  0  0  0  2  0  0  0  0  0  0
  160.1480  207.5970  157.1270 C   0  0  0  0  0  2  0  0  0  0  0  0
  160.8680  207.4210  154.4690 P   0  0  2  0  0  0  0  0  0  0  0  0
  160.9870  209.7070  156.0100 C   0  0  1  0  0  3  0  0  0  0  0  0
  159.5740  207.2320  155.7600 C   0  0  0  0  0  2  0  0  0  0  0  0
  160.2060  208.1830  153.3660 O   0  0  0  0  0  0  0  0  0  0  0  0
  160.3300  209.1020  157.2340 C   0  0  0  0  0  2  0  0  0  0  0  0
  162.5180  211.2730  157.0250 O   0  0  0  0  0  1  0  0  0  0  0  0
  160.8530  212.1830  155.7320 O   0  0  0  0  0  0  0  0  0  0  0  0
  161.4760  211.0690  156.3240 C   0  0  0  0  0  0  0  0  0  0  0  0
  160.7040  204.6570  153.5640 C   0  0  0  0  0  2  0  0  0  0  0  0
  159.7940  203.6250  150.9690 O   0  0  0  0  0  1  0  0  0  0  0  0
  162.1220  202.6490  152.0170 O   0  0  0  0  0  0  0  0  0  0  0  0
  160.8630  203.4220  152.2480 P   0  0  1  0  0  4  0  0  0  0  0  0
  161.0540  207.3230  145.6110 C   0  0  0  0  0  2  0  0  0  0  0  0
  161.9900  205.1240  144.6640 C   0  0  0  0  0  1  0  0  0  0  0  0
  160.8230  206.0870  144.6610 C   0  0  0  0  0  2  0  0  0  0  0  0
  1  3  2  0  0  0  0
  2  8  1  0  0  0  0
  2  7  2  0  0  0  0
  4  5  1  0  0  0  0
  5  1  2  0  0  0  0
  6 11  1  0  0  0  0
  7  9  1  0  0  0  0
  8  4  2  0  0  0  0
  9  5  1  0  0  0  0
  9  6  2  0  0  0  0
 11 10  2  0  0  0  0
 12 11  1  0  0  0  0
 13 15  1  0  0  0  0
 14 16  2  0  0  0  0
 15 12  2  0  0  0  0
 16 12  1  0  0  0  0
 17 13  2  0  0  0  0
 17 14  1  0  0  0  0
 18 19  1  0  0  0  0
 19 13  1  0  0  0  0
 20 17  1  0  0  0  0
 21 20  1  0  0  0  0
 22 21  1  0  0  0  0
 23 22  1  0  0  0  0
 24 23  1  0  0  0  0
 25 28  1  6  0  0  0
 25 26  1  0  0  0  0
 26 24  1  1  0  0  0
 27 25  1  0  0  0  0
 27 26  1  0  0  0  0
 29 28  1  0  0  0  0
 30 29  1  0  0  0  0
 31 33  2  0  0  0  0
 31 32  1  0  0  0  0
 31 30  1  0  0  0  0
 34  3  1  6  0  0  0
 34 37  1  0  0  0  0
 35 38  1  0  0  0  0
 36 41  1  0  0  0  0
 37 40  2  6  0  0  0
 37 35  1  0  0  0  0
 37 39  1  0  0  0  0
 38 44  1  1  0  0  0
 38 41  1  0  0  0  0
 39 36  1  0  0  0  0
 43 44  2  0  0  0  0
 44 42  1  0  0  0  0
 45 34  1  0  0  0  0
 47 48  2  0  0  0  0
 48 46  1  6  0  0  0
 48 45  1  0  0  0  0
 49  2  1  0  0  0  0
 51 50  1  0  0  0  0
 51 49  1  0  0  0  0
M  END
>  <MODEL>
8

>  <REMARK>
 VINA RESULT:      -3.3      3.730     10.389
  Name = 
  20 active torsions:
  status: ('A' for Active; 'I' for Inactive)
    1  A    between atoms: C_1  and  C_9
    2  A    between atoms: C_1  and  C_10
    3  A    between atoms: C_1  and  P_34
    4  A    between atoms: C_4  and  C_28
    5  A    between atoms: C_6  and  N_38
    6  A    between atoms: C_6  and  C_39
    7  A    between atoms: C_7  and  C_17
    8  A    between atoms: C_7  and  C_18
    9  A    between atoms: C_8  and  C_32
   10  A    between atoms: C_10  and  P_49
   11  A    between atoms: C_15  and  C_32
   12  A    between atoms: C_16  and  O_27
   13  A    between atoms: C_17  and  C_36
   14  A    between atoms: N_23  and  C_28
   15  A    between atoms: C_26  and  O_29
   16  A    between atoms: C_26  and  C_50
   17  A    between atoms: O_29  and  C_39
   18  A    between atoms: C_31  and  N_38
   19  A    between atoms: C_33  and  C_42
   20  A    between atoms: C_36  and  C_37
                            x       y       z     vdW  Elec       q    Type
                         _______ _______ _______ _____ _____    ______ ____

>  <TORSDO>
F 20

$$$$
=
 OpenBabel11042420213D

 51 54  0  0  1  0  0  0  0  0999 V2000
  158.6630  211.7190  152.6080 C   0  0  0  0  0  0  0  0  0  0  0  0
  161.9530  211.6520  149.9250 C   0  0  0  0  0  0  0  0  0  0  0  0
  157.6970  211.4820  153.4740 C   0  0  0  0  0  3  0  0  0  0  0  0
  159.8630  212.8410  150.7310 C   0  0  0  0  0  3  0  0  0  0  0  0
  159.6670  211.7500  151.7230 C   0  0  0  0  0  0  0  0  0  0  0  0
  160.5830  209.8720  152.8440 N   0  0  0  0  0  0  0  0  0  0  0  0
  161.7940  210.6030  150.7860 C   0  0  0  0  0  3  0  0  0  0  0  0
  160.9490  212.8160  149.9200 C   0  0  0  0  0  3  0  0  0  0  0  0
  160.6870  210.6480  151.8160 C   0  0  0  0  0  0  0  0  0  0  0  0
  161.8730  208.8060  154.4730 O   0  0  0  0  0  0  0  0  0  0  0  0
  161.2880  208.7050  153.3860 C   0  0  0  0  0  0  0  0  0  0  0  0
  161.3470  207.4430  152.5960 C   0  0  0  0  0  0  0  0  0  0  0  0
  161.2230  206.1030  150.6350 C   0  0  0  0  0  0  0  0  0  0  0  0
  161.6530  205.0170  152.7030 C   0  0  0  0  0  3  0  0  0  0  0  0
  161.1860  207.3680  151.1970 C   0  0  0  0  0  3  0  0  0  0  0  0
  161.5530  206.2240  153.2990 C   0  0  0  0  0  3  0  0  0  0  0  0
  161.5300  204.9300  151.3300 C   0  0  0  0  0  0  0  0  0  0  0  0
  161.0190  205.1740  148.3160 C   0  0  0  0  0  1  0  0  0  0  0  0
  160.7990  206.1890  149.2830 O   0  0  0  0  0  0  0  0  0  0  0  0
  161.5740  203.4480  150.9520 C   0  0  0  0  0  2  0  0  0  0  0  0
  160.3950  202.7250  151.2320 O   0  0  0  0  0  0  0  0  0  0  0  0
  160.1900  201.8780  150.1350 C   0  0  0  0  0  2  0  0  0  0  0  0
  160.7540  202.4980  148.8340 C   0  0  0  0  0  2  0  0  0  0  0  0
  161.7250  201.5900  148.2650 N   0  0  0  0  0  2  0  0  0  0  0  0
  160.1700  201.2720  146.3420 C   0  0  2  0  0  3  0  0  0  0  0  0
  161.5760  201.5000  146.8300 C   0  0  2  0  0  3  0  0  0  0  0  0
  160.9890  200.2320  146.4260 O   0  0  0  0  0  0  0  0  0  0  0  0
  159.9690  201.7000  144.9010 C   0  0  0  0  0  2  0  0  0  0  0  0
  160.0810  203.2460  144.7250 C   0  0  0  0  0  2  0  0  0  0  0  0
  161.4380  203.9780  144.9580 C   0  0  0  0  0  2  0  0  0  0  0  0
  161.3540  205.4980  144.7780 C   0  0  0  0  0  0  0  0  0  0  0  0
  161.3900  205.9610  143.4590 O   0  0  0  0  0  0  0  0  0  0  0  0
  160.9520  206.2880  145.6330 O   0  0  0  0  0  1  0  0  0  0  0  0
  157.4180  212.0140  154.9110 C   0  0  1  0  0  3  0  0  0  0  0  0
  160.5140  211.5240  155.6930 C   0  0  0  0  0  2  0  0  0  0  0  0
  159.6900  209.0800  156.7440 C   0  0  0  0  0  2  0  0  0  0  0  0
  158.7770  211.6320  156.2260 P   0  0  2  0  0  0  0  0  0  0  0  0
  161.3750  210.9630  156.8730 C   0  0  1  0  0  3  0  0  0  0  0  0
  158.6720  210.1040  157.2410 C   0  0  0  0  0  2  0  0  0  0  0  0
  158.8060  212.7530  157.2160 O   0  0  0  0  0  0  0  0  0  0  0  0
  161.0940  209.5000  157.1470 C   0  0  0  0  0  2  0  0  0  0  0  0
  163.3210  212.3620  157.1660 O   0  0  0  0  0  1  0  0  0  0  0  0
  163.7270  210.1290  156.8180 O   0  0  0  0  0  0  0  0  0  0  0  0
  162.8340  211.2120  156.9210 C   0  0  0  0  0  0  0  0  0  0  0  0
  157.0570  213.5480  154.8640 C   0  0  0  0  0  2  0  0  0  0  0  0
  156.3060  214.3810  152.1500 O   0  0  0  0  0  1  0  0  0  0  0  0
  154.3330  214.0980  154.0210 O   0  0  0  0  0  0  0  0  0  0  0  0
  155.7980  214.2080  153.7400 P   0  0  1  0  0  4  0  0  0  0  0  0
  162.8740  211.5530  148.7290 C   0  0  0  0  0  2  0  0  0  0  0  0
  163.3900  213.6880  147.3940 C   0  0  0  0  0  1  0  0  0  0  0  0
  162.5580  212.4250  147.4560 C   0  0  0  0  0  2  0  0  0  0  0  0
  1  3  2  0  0  0  0
  2  7  2  0  0  0  0
  4  5  1  0  0  0  0
  5  9  1  0  0  0  0
  5  1  2  0  0  0  0
  6 11  1  0  0  0  0
  7  9  1  0  0  0  0
  8  2  1  0  0  0  0
  8  4  2  0  0  0  0
  9  6  2  0  0  0  0
 11 10  2  0  0  0  0
 12 16  1  0  0  0  0
 12 11  1  0  0  0  0
 13 15  1  0  0  0  0
 13 17  2  0  0  0  0
 14 16  2  0  0  0  0
 15 12  2  0  0  0  0
 17 14  1  0  0  0  0
 18 19  1  0  0  0  0
 19 13  1  0  0  0  0
 20 21  1  0  0  0  0
 20 17  1  0  0  0  0
 22 21  1  0  0  0  0
 23 22  1  0  0  0  0
 24 23  1  0  0  0  0
 25 28  1  6  0  0  0
 25 27  1  0  0  0  0
 25 26  1  0  0  0  0
 26 24  1  1  0  0  0
 27 26  1  0  0  0  0
 29 28  1  0  0  0  0
 29 30  1  0  0  0  0
 31 30  1  0  0  0  0
 31 33  1  0  0  0  0
 32 31  2  0  0  0  0
 34  3  1  6  0  0  0
 34 37  1  0  0  0  0
 35 37  1  0  0  0  0
 35 38  1  0  0  0  0
 36 41  1  0  0  0  0
 36 39  1  0  0  0  0
 37 40  2  1  0  0  0
 37 39  1  0  0  0  0
 38 44  1  6  0  0  0
 38 41  1  0  0  0  0
 43 44  2  0  0  0  0
 44 42  1  0  0  0  0
 45 34  1  0  0  0  0
 48 46  1  6  0  0  0
 48 47  2  0  0  0  0
 48 45  1  0  0  0  0
 49  2  1  0  0  0  0
 50 51  1  0  0  0  0
 51 49  1  0  0  0  0
M  END
>  <MODEL>
9

>  <REMARK>
 VINA RESULT:      -3.3      3.416      7.173
  Name = 
  20 active torsions:
  status: ('A' for Active; 'I' for Inactive)
    1  A    between atoms: C_1  and  C_9
    2  A    between atoms: C_1  and  C_10
    3  A    between atoms: C_1  and  P_34
    4  A    between atoms: C_4  and  C_28
    5  A    between atoms: C_6  and  N_38
    6  A    between atoms: C_6  and  C_39
    7  A    between atoms: C_7  and  C_17
    8  A    between atoms: C_7  and  C_18
    9  A    between atoms: C_8  and  C_32
   10  A    between atoms: C_10  and  P_49
   11  A    between atoms: C_15  and  C_32
   12  A    between atoms: C_16  and  O_27
   13  A    between atoms: C_17  and  C_36
   14  A    between atoms: N_23  and  C_28
   15  A    between atoms: C_26  and  O_29
   16  A    between atoms: C_26  and  C_50
   17  A    between atoms: O_29  and  C_39
   18  A    between atoms: C_31  and  N_38
   19  A    between atoms: C_33  and  C_42
   20  A    between atoms: C_36  and  C_37
                            x       y       z     vdW  Elec       q    Type
                         _______ _______ _______ _____ _____    ______ ____

>  <TORSDO>
F 20

$$$$
