=
 OpenBabel11042421533D

 47 51  0  0  1  0  0  0  0  0999 V2000
  161.9620  206.1990  153.9400 C   0  0  0  0  0  2  0  0  0  0  0  0
  161.6760  207.6070  154.4800 C   0  0  2  0  0  3  0  0  0  0  0  0
  160.7780  206.7720  150.2700 C   0  0  2  0  0  3  0  0  0  0  0  0
  162.1850  208.7200  150.4690 C   0  0  0  0  0  3  0  0  0  0  0  0
  160.7910  205.5850  153.1770 C   0  0  0  0  0  2  0  0  0  0  0  0
  160.7230  204.7150  149.4000 C   0  0  0  0  0  0  0  0  0  0  0  0
  160.4490  207.6890  155.3710 C   0  0  0  0  0  2  0  0  0  0  0  0
  160.7220  209.7400  154.2430 C   0  0  2  0  0  3  0  0  0  0  0  0
  162.0050  207.5670  148.2990 C   0  0  0  0  0  3  0  0  0  0  0  0
  162.6400  208.4580  149.0810 C   0  0  0  0  0  3  0  0  0  0  0  0
  160.7540  206.8670  148.7780 C   0  0  1  0  0  3  0  0  0  0  0  0
  161.3310  204.9220  151.9240 C   0  0  0  0  0  2  0  0  0  0  0  0
  160.7340  205.4750  148.3550 N   0  0  0  0  0  0  0  0  0  0  0  0
  161.2860  207.9130  151.0480 C   0  0  0  0  0  0  0  0  0  0  0  0
  161.5120  208.7100  153.4460 C   0  0  2  0  0  3  0  0  0  0  0  0
  160.7220  208.2200  152.3220 N   0  0  0  0  0  2  0  0  0  0  0  0
  160.7790  205.4880  150.6410 C   0  0  1  0  0  3  0  0  0  0  0  0
  159.8670  209.0210  155.1940 N   0  0  0  0  0  0  0  0  0  0  0  0
  160.6540  211.5490  152.5170 C   0  0  0  0  0  3  0  0  0  0  0  0
  158.5560  210.8030  153.4660 C   0  0  0  0  0  3  0  0  0  0  0  0
  159.9550  210.7260  153.4070 C   0  0  0  0  0  0  0  0  0  0  0  0
  159.9640  212.4510  151.7040 C   0  0  0  0  0  3  0  0  0  0  0  0
  158.5640  212.5340  151.7670 C   0  0  0  0  0  0  0  0  0  0  0  0
  157.8660  211.7050  152.6510 C   0  0  0  0  0  3  0  0  0  0  0  0
  157.8450  213.4250  150.9650 O   0  0  0  0  0  0  0  0  0  0  0  0
  158.1950  213.6950  149.6130 C   0  0  0  0  0  2  0  0  0  0  0  0
  155.8480  213.7110  149.2180 O   0  0  0  0  0  1  0  0  0  0  0  0
  157.1520  213.1240  147.4260 O   0  0  0  0  0  0  0  0  0  0  0  0
  157.0000  213.5270  148.7460 C   0  0  0  0  0  0  0  0  0  0  0  0
  160.1230  202.5560  150.1780 O   0  0  0  0  0  0  0  0  0  0  0  0
  161.3350  202.6060  148.1890 N   0  0  0  0  0  2  0  0  0  0  0  0
  160.7030  203.2470  149.2980 C   0  0  0  0  0  0  0  0  0  0  0  0
  161.3270  201.1610  148.0230 C   0  0  0  0  0  2  0  0  0  0  0  0
  160.8960  200.8020  146.6130 C   0  0  0  0  0  2  0  0  0  0  0  0
  159.7490  201.8410  144.8070 O   0  0  0  0  0  1  0  0  0  0  0  0
  160.7250  202.0580  145.7790 C   0  0  0  0  0  2  0  0  0  0  0  0
  159.8300  209.7240  156.4820 C   0  0  0  0  0  2  0  0  0  0  0  0
  159.7850  211.2490  156.3480 C   0  0  0  0  0  2  0  0  0  0  0  0
  158.4750  211.7820  156.9010 C   0  0  0  0  0  2  0  0  0  0  0  0
  159.8310  213.8690  156.6860 C   0  0  0  0  0  1  0  0  0  0  0  0
  158.4290  213.3010  156.8170 C   0  0  1  0  0  3  0  0  0  0  0  0
  158.0470  214.4170  154.7660 O   0  0  0  0  0  0  0  0  0  0  0  0
  157.5780  213.7380  155.6670 C   0  0  0  0  0  0  0  0  0  0  0  0
  155.0290  213.9070  156.9320 O   0  0  0  0  0  1  0  0  0  0  0  0
  155.2330  213.7630  154.3270 O   0  0  0  0  0  0  0  0  0  0  0  0
  155.8550  213.2540  155.6070 P   0  0  0  0  0  0  0  0  0  0  0  0
  155.7430  211.5670  155.6550 O   0  0  0  0  0  1  0  0  0  0  0  0
  2  1  1  6  0  0  0
  2  7  1  0  0  0  0
  3 17  1  0  0  0  0
  3 14  1  6  0  0  0
  4 14  2  0  0  0  0
  5  1  1  0  0  0  0
  6 17  1  0  0  0  0
  8 21  1  6  0  0  0
  8 18  1  0  0  0  0
  9 10  2  0  0  0  0
 10  4  1  0  0  0  0
 11  9  1  6  0  0  0
 11  3  1  0  0  0  0
 12  5  1  0  0  0  0
 13 11  1  0  0  0  0
 13  6  2  0  0  0  0
 14 16  1  0  0  0  0
 15 16  1  6  0  0  0
 15  8  1  0  0  0  0
 15  2  1  0  0  0  0
 17 12  1  6  0  0  0
 18  7  1  0  0  0  0
 18 37  1  0  0  0  0
 19 21  1  0  0  0  0
 21 20  2  0  0  0  0
 22 23  1  0  0  0  0
 22 19  2  0  0  0  0
 23 24  2  0  0  0  0
 24 20  1  0  0  0  0
 25 23  1  0  0  0  0
 26 25  1  0  0  0  0
 28 29  2  0  0  0  0
 29 27  1  0  0  0  0
 29 26  1  0  0  0  0
 31 32  1  0  0  0  0
 32  6  1  0  0  0  0
 32 30  2  0  0  0  0
 33 31  1  0  0  0  0
 34 33  1  0  0  0  0
 35 36  1  0  0  0  0
 36 34  1  0  0  0  0
 38 37  1  0  0  0  0
 38 39  1  0  0  0  0
 41 40  1  6  0  0  0
 41 39  1  0  0  0  0
 42 43  2  0  0  0  0
 43 41  1  0  0  0  0
 45 46  2  0  0  0  0
 46 47  1  0  0  0  0
 46 43  1  0  0  0  0
 46 44  1  0  0  0  0
M  END
>  <MODEL>
1

>  <REMARK>
 VINA RESULT:      -7.2      0.000      0.000
  Name = 
  14 active torsions:
  status: ('A' for Active; 'I' for Inactive)
    1  A    between atoms: N_9  and  C_14
    2  A    between atoms: C_10  and  C_14
    3  A    between atoms: C_10  and  C_47
    4  A    between atoms: C_13  and  C_39
    5  A    between atoms: C_16  and  C_26
    6  A    between atoms: C_22  and  C_34
    7  A    between atoms: C_22  and  C_36
    8  A    between atoms: C_23  and  C_24
    9  A    between atoms: C_24  and  O_30
   10  A    between atoms: C_27  and  C_34
   11  A    between atoms: C_27  and  P_40
   12  A    between atoms: O_30  and  C_32
   13  A    between atoms: C_36  and  C_37
   14  A    between atoms: C_37  and  N_46
                            x       y       z     vdW  Elec       q    Type
                         _______ _______ _______ _____ _____    ______ ____

>  <TORSDO>
F 14

$$$$
=
 OpenBabel11042421533D

 47 51  0  0  1  0  0  0  0  0999 V2000
  161.5140  211.7170  151.8730 C   0  0  0  0  0  2  0  0  0  0  0  0
  162.1220  210.5380  151.1000 C   0  0  2  0  0  3  0  0  0  0  0  0
  159.6790  209.6690  154.6360 C   0  0  2  0  0  3  0  0  0  0  0  0
  161.8300  208.5920  154.8020 C   0  0  0  0  0  3  0  0  0  0  0  0
  160.0230  211.5620  152.1540 C   0  0  0  0  0  2  0  0  0  0  0  0
  158.3790  211.1790  155.6440 C   0  0  0  0  0  0  0  0  0  0  0  0
  161.4300  210.2420  149.7810 C   0  0  0  0  0  2  0  0  0  0  0  0
  162.2880  208.2350  150.6690 C   0  0  2  0  0  3  0  0  0  0  0  0
  160.4570  208.8830  156.8270 C   0  0  0  0  0  3  0  0  0  0  0  0
  161.6480  208.5910  156.2760 C   0  0  0  0  0  3  0  0  0  0  0  0
  159.2430  209.1370  155.9640 C   0  0  1  0  0  3  0  0  0  0  0  0
  159.7600  211.9840  153.5870 C   0  0  0  0  0  2  0  0  0  0  0  0
  158.4280  210.2150  156.5030 N   0  0  0  0  0  0  0  0  0  0  0  0
  160.8850  209.1070  154.0050 C   0  0  0  0  0  0  0  0  0  0  0  0
  162.1960  209.2100  151.8370 C   0  0  2  0  0  3  0  0  0  0  0  0
  160.9640  208.9920  152.5860 N   0  0  0  0  0  2  0  0  0  0  0  0
  159.1800  210.8950  154.4540 C   0  0  1  0  0  3  0  0  0  0  0  0
  161.5360  208.8010  149.5430 N   0  0  0  0  0  0  0  0  0  0  0  0
  160.6690  206.3390  150.4730 C   0  0  0  0  0  3  0  0  0  0  0  0
  162.6860  205.9840  151.7630 C   0  0  0  0  0  3  0  0  0  0  0  0
  161.8720  206.8280  150.9930 C   0  0  0  0  0  0  0  0  0  0  0  0
  160.2740  205.0230  150.7300 C   0  0  0  0  0  3  0  0  0  0  0  0
  161.0850  204.1800  151.5070 C   0  0  0  0  0  0  0  0  0  0  0  0
  162.2910  204.6680  152.0200 C   0  0  0  0  0  3  0  0  0  0  0  0
  160.7180  202.8590  151.7800 O   0  0  0  0  0  0  0  0  0  0  0  0
  161.4270  201.7420  151.2600 C   0  0  0  0  0  2  0  0  0  0  0  0
  161.3960  200.5030  149.2280 O   0  0  0  0  0  0  0  0  0  0  0  0
  159.5280  201.7630  149.6510 O   0  0  0  0  0  1  0  0  0  0  0  0
  160.7850  201.2870  149.9990 C   0  0  0  0  0  0  0  0  0  0  0  0
  157.8440  213.0890  156.9460 O   0  0  0  0  0  0  0  0  0  0  0  0
  156.6530  212.8630  154.9550 N   0  0  0  0  0  2  0  0  0  0  0  0
  157.6260  212.4180  155.9020 C   0  0  0  0  0  0  0  0  0  0  0  0
  155.8960  214.0910  155.1450 C   0  0  0  0  0  2  0  0  0  0  0  0
  155.1550  214.4470  153.8690 C   0  0  0  0  0  2  0  0  0  0  0  0
  155.3480  214.3960  151.5000 O   0  0  0  0  0  1  0  0  0  0  0  0
  156.0920  214.3720  152.6780 C   0  0  0  0  0  2  0  0  0  0  0  0
  162.2420  208.5550  148.2800 C   0  0  0  0  0  2  0  0  0  0  0  0
  162.7800  207.1270  148.1460 C   0  0  0  0  0  2  0  0  0  0  0  0
  161.7430  206.2390  147.4810 C   0  0  0  0  0  2  0  0  0  0  0  0
  161.4620  203.7650  147.6820 C   0  0  0  0  0  1  0  0  0  0  0  0
  162.3350  204.8800  147.1330 C   0  0  1  0  0  3  0  0  0  0  0  0
  163.5460  204.3440  145.1730 O   0  0  0  0  0  0  0  0  0  0  0  0
  162.4940  204.7400  145.6530 C   0  0  0  0  0  0  0  0  0  0  0  0
  160.1950  206.3810  145.2680 O   0  0  0  0  0  1  0  0  0  0  0  0
  161.6610  205.6190  143.2390 O   0  0  0  0  0  0  0  0  0  0  0  0
  161.1260  205.1510  144.5730 P   0  0  0  0  0  0  0  0  0  0  0  0
  160.1620  203.7810  144.3420 O   0  0  0  0  0  1  0  0  0  0  0  0
  1  5  1  0  0  0  0
  2  7  1  6  0  0  0
  2 15  1  0  0  0  0
  2  1  1  0  0  0  0
  3 14  1  1  0  0  0
  3 11  1  0  0  0  0
  4 10  1  0  0  0  0
  5 12  1  0  0  0  0
  6 32  1  0  0  0  0
  6 13  2  0  0  0  0
  8 21  1  1  0  0  0
  8 15  1  0  0  0  0
 10  9  2  0  0  0  0
 11 13  1  0  0  0  0
 11  9  1  1  0  0  0
 14  4  2  0  0  0  0
 15 16  1  6  0  0  0
 16 14  1  0  0  0  0
 17 12  1  1  0  0  0
 17  3  1  0  0  0  0
 17  6  1  0  0  0  0
 18  7  1  0  0  0  0
 18  8  1  0  0  0  0
 19 22  2  0  0  0  0
 19 21  1  0  0  0  0
 20 24  1  0  0  0  0
 21 20  2  0  0  0  0
 22 23  1  0  0  0  0
 23 25  1  0  0  0  0
 23 24  2  0  0  0  0
 26 25  1  0  0  0  0
 27 29  2  0  0  0  0
 28 29  1  0  0  0  0
 29 26  1  0  0  0  0
 31 33  1  0  0  0  0
 31 32  1  0  0  0  0
 32 30  2  0  0  0  0
 34 33  1  0  0  0  0
 35 36  1  0  0  0  0
 36 34  1  0  0  0  0
 37 18  1  0  0  0  0
 38 37  1  0  0  0  0
 39 38  1  0  0  0  0
 41 39  1  0  0  0  0
 41 40  1  6  0  0  0
 42 43  2  0  0  0  0
 43 41  1  0  0  0  0
 45 46  2  0  0  0  0
 46 44  1  0  0  0  0
 46 43  1  0  0  0  0
 47 46  1  0  0  0  0
M  END
>  <MODEL>
2

>  <REMARK>
 VINA RESULT:      -5.7      3.119     10.523
  Name = 
  14 active torsions:
  status: ('A' for Active; 'I' for Inactive)
    1  A    between atoms: N_9  and  C_14
    2  A    between atoms: C_10  and  C_14
    3  A    between atoms: C_10  and  C_47
    4  A    between atoms: C_13  and  C_39
    5  A    between atoms: C_16  and  C_26
    6  A    between atoms: C_22  and  C_34
    7  A    between atoms: C_22  and  C_36
    8  A    between atoms: C_23  and  C_24
    9  A    between atoms: C_24  and  O_30
   10  A    between atoms: C_27  and  C_34
   11  A    between atoms: C_27  and  P_40
   12  A    between atoms: O_30  and  C_32
   13  A    between atoms: C_36  and  C_37
   14  A    between atoms: C_37  and  N_46
                            x       y       z     vdW  Elec       q    Type
                         _______ _______ _______ _____ _____    ______ ____

>  <TORSDO>
F 14

$$$$
=
 OpenBabel11042421533D

 47 51  0  0  1  0  0  0  0  0999 V2000
  161.6900  211.4790  151.8210 C   0  0  0  0  0  2  0  0  0  0  0  0
  162.2670  210.2860  151.0460 C   0  0  2  0  0  3  0  0  0  0  0  0
  159.6890  209.4730  154.4990 C   0  0  2  0  0  3  0  0  0  0  0  0
  161.7840  208.2990  154.7070 C   0  0  0  0  0  3  0  0  0  0  0  0
  160.1860  211.3870  152.0590 C   0  0  0  0  0  2  0  0  0  0  0  0
  158.4280  211.0250  155.4950 C   0  0  0  0  0  0  0  0  0  0  0  0
  161.6010  210.0410  149.7040 C   0  0  0  0  0  2  0  0  0  0  0  0
  162.3430  207.9850  150.5830 C   0  0  2  0  0  3  0  0  0  0  0  0
  160.3680  208.6210  156.6980 C   0  0  0  0  0  3  0  0  0  0  0  0
  161.5610  208.2840  156.1750 C   0  0  0  0  0  3  0  0  0  0  0  0
  159.1920  208.9410  155.8050 C   0  0  1  0  0  3  0  0  0  0  0  0
  159.9010  211.7980  153.4910 C   0  0  0  0  0  2  0  0  0  0  0  0
  158.4100  210.0460  156.3390 N   0  0  0  0  0  0  0  0  0  0  0  0
  160.8850  208.8680  153.8930 C   0  0  0  0  0  0  0  0  0  0  0  0
  162.2610  208.9450  151.7630 C   0  0  2  0  0  3  0  0  0  0  0  0
  161.0000  208.7710  152.4740 N   0  0  0  0  0  2  0  0  0  0  0  0
  159.2490  210.7230  154.3230 C   0  0  1  0  0  3  0  0  0  0  0  0
  161.6490  208.6000  149.4460 N   0  0  0  0  0  0  0  0  0  0  0  0
  160.7570  206.0970  150.1640 C   0  0  0  0  0  3  0  0  0  0  0  0
  162.5090  205.7680  151.7990 C   0  0  0  0  0  3  0  0  0  0  0  0
  161.8560  206.5920  150.8720 C   0  0  0  0  0  0  0  0  0  0  0  0
  160.3030  204.7950  150.3880 C   0  0  0  0  0  3  0  0  0  0  0  0
  160.9520  203.9700  151.3210 C   0  0  0  0  0  0  0  0  0  0  0  0
  162.0570  204.4650  152.0240 C   0  0  0  0  0  3  0  0  0  0  0  0
  160.5240  202.6630  151.5670 O   0  0  0  0  0  0  0  0  0  0  0  0
  161.1790  201.5250  151.0190 C   0  0  0  0  0  2  0  0  0  0  0  0
  161.4350  200.8960  148.7380 O   0  0  0  0  0  0  0  0  0  0  0  0
  159.3040  201.4450  149.3830 O   0  0  0  0  0  1  0  0  0  0  0  0
  160.6520  201.2560  149.6560 C   0  0  0  0  0  0  0  0  0  0  0  0
  158.2540  213.1790  156.4730 O   0  0  0  0  0  0  0  0  0  0  0  0
  156.4390  212.5160  155.1700 N   0  0  0  0  0  2  0  0  0  0  0  0
  157.7240  212.2920  155.7520 C   0  0  0  0  0  0  0  0  0  0  0  0
  155.7070  213.7580  155.3690 C   0  0  0  0  0  2  0  0  0  0  0  0
  155.1400  214.2450  154.0480 C   0  0  0  0  0  2  0  0  0  0  0  0
  155.5750  214.2400  151.7100 O   0  0  0  0  0  1  0  0  0  0  0  0
  156.1910  214.1490  152.9570 C   0  0  0  0  0  2  0  0  0  0  0  0
  162.3790  208.3420  148.1990 C   0  0  0  0  0  2  0  0  0  0  0  0
  162.5230  206.8530  147.8700 C   0  0  0  0  0  2  0  0  0  0  0  0
  161.6490  206.4950  146.6810 C   0  0  0  0  0  2  0  0  0  0  0  0
  163.4260  204.7690  146.3580 C   0  0  0  0  0  1  0  0  0  0  0  0
  162.4290  205.6790  145.6600 C   0  0  1  0  0  3  0  0  0  0  0  0
  161.2610  205.2160  143.6560 O   0  0  0  0  0  0  0  0  0  0  0  0
  161.4990  204.8780  144.8050 C   0  0  0  0  0  0  0  0  0  0  0  0
  159.3120  203.0590  144.6210 O   0  0  0  0  0  0  0  0  0  0  0  0
  161.6890  202.2390  145.3460 O   0  0  0  0  0  1  0  0  0  0  0  0
  160.7330  203.4040  145.4730 P   0  0  0  0  0  0  0  0  0  0  0  0
  160.3620  203.6520  147.1040 O   0  0  0  0  0  1  0  0  0  0  0  0
  1  5  1  0  0  0  0
  2  7  1  6  0  0  0
  2 15  1  0  0  0  0
  2  1  1  0  0  0  0
  3 14  1  1  0  0  0
  3 11  1  0  0  0  0
  4 10  1  0  0  0  0
  5 12  1  0  0  0  0
  6 32  1  0  0  0  0
  6 13  2  0  0  0  0
  8 21  1  1  0  0  0
  8 15  1  0  0  0  0
 10  9  2  0  0  0  0
 11 13  1  0  0  0  0
 11  9  1  1  0  0  0
 14  4  2  0  0  0  0
 15 16  1  6  0  0  0
 16 14  1  0  0  0  0
 17 12  1  1  0  0  0
 17  3  1  0  0  0  0
 17  6  1  0  0  0  0
 18  7  1  0  0  0  0
 18  8  1  0  0  0  0
 19 22  2  0  0  0  0
 19 21  1  0  0  0  0
 20 24  1  0  0  0  0
 21 20  2  0  0  0  0
 22 23  1  0  0  0  0
 23 25  1  0  0  0  0
 23 24  2  0  0  0  0
 26 25  1  0  0  0  0
 27 29  2  0  0  0  0
 28 29  1  0  0  0  0
 29 26  1  0  0  0  0
 31 33  1  0  0  0  0
 31 32  1  0  0  0  0
 32 30  2  0  0  0  0
 34 33  1  0  0  0  0
 35 36  1  0  0  0  0
 36 34  1  0  0  0  0
 37 18  1  0  0  0  0
 38 37  1  0  0  0  0
 39 38  1  0  0  0  0
 41 40  1  1  0  0  0
 41 39  1  0  0  0  0
 42 43  2  0  0  0  0
 43 46  1  0  0  0  0
 43 41  1  0  0  0  0
 44 46  2  0  0  0  0
 45 46  1  0  0  0  0
 46 47  1  0  0  0  0
M  END
>  <MODEL>
3

>  <REMARK>
 VINA RESULT:      -4.8      3.140     10.594
  Name = 
  14 active torsions:
  status: ('A' for Active; 'I' for Inactive)
    1  A    between atoms: N_9  and  C_14
    2  A    between atoms: C_10  and  C_14
    3  A    between atoms: C_10  and  C_47
    4  A    between atoms: C_13  and  C_39
    5  A    between atoms: C_16  and  C_26
    6  A    between atoms: C_22  and  C_34
    7  A    between atoms: C_22  and  C_36
    8  A    between atoms: C_23  and  C_24
    9  A    between atoms: C_24  and  O_30
   10  A    between atoms: C_27  and  C_34
   11  A    between atoms: C_27  and  P_40
   12  A    between atoms: O_30  and  C_32
   13  A    between atoms: C_36  and  C_37
   14  A    between atoms: C_37  and  N_46
                            x       y       z     vdW  Elec       q    Type
                         _______ _______ _______ _____ _____    ______ ____

>  <TORSDO>
F 14

$$$$
