=
 OpenBabel11042420233D

 36 40  0  0  0  0  0  0  0  0999 V2000
  161.4380  208.7590  153.0360 N   0  0  0  0  0  0  0  0  0  0  0  0
  162.0420  208.8420  149.3410 C   0  0  0  0  0  3  0  0  0  0  0  0
  160.8380  209.8740  153.3300 C   0  0  0  0  0  0  0  0  0  0  0  0
  160.6160  210.9230  152.2970 C   0  0  0  0  0  0  0  0  0  0  0  0
  162.1790  207.0090  151.4590 C   0  0  0  0  0  0  0  0  0  0  0  0
  158.9540  211.9370  153.7520 C   0  0  0  0  0  0  0  0  0  0  0  0
  161.8560  209.2870  150.6510 C   0  0  0  0  0  0  0  0  0  0  0  0
  159.2450  211.0490  154.7650 C   0  0  0  0  0  0  0  0  0  0  0  0
  158.2820  211.3660  156.1000 S   0  0  0  0  0  0  0  0  0  0  0  0
  161.7520  211.0530  150.9290 S   0  0  0  0  0  0  0  0  0  0  0  0
  162.2770  207.4960  149.0720 C   0  0  0  0  0  0  0  0  0  0  0  0
  156.4750  213.5130  155.9180 C   0  0  0  0  0  1  0  0  0  0  0  0
  157.5310  212.6630  155.3090 C   0  0  0  0  0  0  0  0  0  0  0  0
  159.7130  211.8970  152.4930 C   0  0  0  0  0  3  0  0  0  0  0  0
  161.8880  208.3700  151.7260 C   0  0  0  0  0  0  0  0  0  0  0  0
  162.3600  206.5920  150.1360 C   0  0  0  0  0  3  0  0  0  0  0  0
  160.2070  210.0070  154.6140 N   0  0  0  0  0  2  0  0  0  0  0  0
  158.0010  212.8550  154.0520 N   0  0  0  0  0  0  0  0  0  0  0  0
  162.4560  207.0850  147.7100 N   0  0  0  0  0  2  0  0  0  0  0  0
  160.3340  206.1620  147.3040 O   0  0  0  0  0  0  0  0  0  0  0  0
  161.4870  206.4350  146.8760 C   0  0  0  0  0  0  0  0  0  0  0  0
  161.8630  206.0500  145.4880 C   0  0  0  0  0  2  0  0  0  0  0  0
  162.8470  203.8890  145.6750 O   0  0  0  0  0  1  0  0  0  0  0  0
  160.7260  203.9380  144.8050 O   0  0  0  0  0  0  0  0  0  0  0  0
  161.8420  204.5680  145.3410 C   0  0  0  0  0  0  0  0  0  0  0  0
  162.2730  206.0230  152.4530 O   0  0  0  0  0  0  0  0  0  0  0  0
  161.2230  205.1360  152.8120 C   0  0  0  0  0  2  0  0  0  0  0  0
  161.5830  202.7840  152.0470 C   0  0  0  0  0  3  0  0  0  0  0  0
  160.5310  204.3620  150.5390 C   0  0  0  0  0  3  0  0  0  0  0  0
  160.4350  203.3650  149.5620 C   0  0  0  0  0  3  0  0  0  0  0  0
  160.9060  202.0750  149.8300 C   0  0  0  0  0  0  0  0  0  0  0  0
  161.4870  201.7880  151.0710 C   0  0  0  0  0  3  0  0  0  0  0  0
  161.0960  204.0690  151.7840 C   0  0  0  0  0  0  0  0  0  0  0  0
  160.8210  201.0180  148.7850 C   0  0  0  0  0  2  0  0  0  0  0  0
  160.7770  201.6480  147.4060 C   0  0  0  0  0  2  0  0  0  0  0  0
  161.0330  200.6330  146.4020 N   0  0  0  0  0  1  0  0  0  0  0  0
  1  3  2  0  0  0  0
  2  7  1  0  0  0  0
  3 17  1  0  0  0  0
  4 14  2  0  0  0  0
  4  3  1  0  0  0  0
  5 15  1  0  0  0  0
  5 26  1  0  0  0  0
  6 18  1  0  0  0  0
  6  8  2  0  0  0  0
  7 10  1  0  0  0  0
  7 15  2  0  0  0  0
  8  9  1  0  0  0  0
 10  4  1  0  0  0  0
 11  2  2  0  0  0  0
 11 16  1  0  0  0  0
 13 12  1  0  0  0  0
 13  9  1  0  0  0  0
 14  6  1  0  0  0  0
 15  1  1  0  0  0  0
 16  5  2  0  0  0  0
 17  8  1  0  0  0  0
 18 13  2  0  0  0  0
 19 11  1  0  0  0  0
 21 20  2  0  0  0  0
 21 19  1  0  0  0  0
 22 21  1  0  0  0  0
 24 25  2  0  0  0  0
 25 22  1  0  0  0  0
 25 23  1  0  0  0  0
 26 27  1  0  0  0  0
 29 33  2  0  0  0  0
 30 31  2  0  0  0  0
 30 29  1  0  0  0  0
 31 32  1  0  0  0  0
 32 28  2  0  0  0  0
 33 28  1  0  0  0  0
 33 27  1  0  0  0  0
 34 31  1  0  0  0  0
 35 34  1  0  0  0  0
 36 35  1  0  0  0  0
M  END
>  <MODEL>
1

>  <REMARK>
 VINA RESULT:      -8.6      0.000      0.000
  Name = 
  8 active torsions:
  status: ('A' for Active; 'I' for Inactive)
    1  A    between atoms: C_7  and  O_22
    2  A    between atoms: N_13  and  C_14
    3  A    between atoms: C_16  and  C_31
    4  A    between atoms: C_19  and  C_31
    5  A    between atoms: O_22  and  C_34
    6  A    between atoms: C_23  and  C_36
    7  A    between atoms: C_29  and  C_36
    8  A    between atoms: C_33  and  C_34
                            x       y       z     vdW  Elec       q    Type
                         _______ _______ _______ _____ _____    ______ ____

>  <TORSDO>
F 8

$$$$
=
 OpenBabel11042420233D

 36 40  0  0  0  0  0  0  0  0999 V2000
  162.2910  207.8620  149.1560 N   0  0  0  0  0  0  0  0  0  0  0  0
  161.0030  208.3790  152.6340 C   0  0  0  0  0  3  0  0  0  0  0  0
  162.1700  206.5910  148.9100 C   0  0  0  0  0  0  0  0  0  0  0  0
  161.7000  205.6460  149.9600 C   0  0  0  0  0  0  0  0  0  0  0  0
  161.7630  209.9190  150.4170 C   0  0  0  0  0  0  0  0  0  0  0  0
  161.2330  204.0160  148.2190 C   0  0  0  0  0  0  0  0  0  0  0  0
  161.5850  207.7560  151.5290 C   0  0  0  0  0  0  0  0  0  0  0  0
  161.7840  204.8320  147.2550 C   0  0  0  0  0  0  0  0  0  0  0  0
  161.6960  204.0890  145.7560 S   0  0  0  0  0  0  0  0  0  0  0  0
  162.0150  206.0240  151.6750 S   0  0  0  0  0  0  0  0  0  0  0  0
  160.7780  209.7540  152.6410 C   0  0  0  0  0  0  0  0  0  0  0  0
  160.5450  201.5260  145.6410 C   0  0  0  0  0  1  0  0  0  0  0  0
  160.9530  202.7210  146.4250 C   0  0  0  0  0  0  0  0  0  0  0  0
  161.2450  204.4270  149.6310 C   0  0  0  0  0  3  0  0  0  0  0  0
  161.9430  208.5130  150.3910 C   0  0  0  0  0  0  0  0  0  0  0  0
  161.1760  210.5150  151.5370 C   0  0  0  0  0  3  0  0  0  0  0  0
  162.2960  206.1290  147.5550 N   0  0  0  0  0  2  0  0  0  0  0  0
  160.7730  202.8240  147.7650 N   0  0  0  0  0  0  0  0  0  0  0  0
  160.1710  210.3480  153.7960 N   0  0  0  0  0  2  0  0  0  0  0  0
  162.1020  210.8280  155.0430 O   0  0  0  0  0  0  0  0  0  0  0  0
  160.8470  210.8620  154.9510 C   0  0  0  0  0  0  0  0  0  0  0  0
  160.0460  211.4170  156.0760 C   0  0  0  0  0  2  0  0  0  0  0  0
  158.6610  213.0720  155.0670 O   0  0  0  0  0  0  0  0  0  0  0  0
  157.5950  211.1440  155.7010 O   0  0  0  0  0  1  0  0  0  0  0  0
  158.7380  211.9240  155.5760 C   0  0  0  0  0  0  0  0  0  0  0  0
  162.1190  210.7690  149.3590 O   0  0  0  0  0  0  0  0  0  0  0  0
  161.6160  212.0850  149.1770 C   0  0  0  0  0  2  0  0  0  0  0  0
  162.6670  212.9480  147.0800 C   0  0  0  0  0  3  0  0  0  0  0  0
  160.3660  212.1920  147.0160 C   0  0  0  0  0  3  0  0  0  0  0  0
  160.2970  212.5120  145.6570 C   0  0  0  0  0  3  0  0  0  0  0  0
  161.4160  213.0440  145.0050 C   0  0  0  0  0  0  0  0  0  0  0  0
  162.5990  213.2680  145.7210 C   0  0  0  0  0  3  0  0  0  0  0  0
  161.5530  212.4010  147.7260 C   0  0  0  0  0  0  0  0  0  0  0  0
  161.3390  213.4020  143.5620 C   0  0  0  0  0  2  0  0  0  0  0  0
  162.2670  212.5180  142.7530 C   0  0  0  0  0  2  0  0  0  0  0  0
  161.4880  211.7190  141.8260 N   0  0  0  0  0  1  0  0  0  0  0  0
  1 15  1  0  0  0  0
  2 11  1  0  0  0  0
  3  1  2  0  0  0  0
  3  4  1  0  0  0  0
  4 10  1  0  0  0  0
  5 16  1  0  0  0  0
  6 14  1  0  0  0  0
  7 10  1  0  0  0  0
  7  2  2  0  0  0  0
  8 17  1  0  0  0  0
  8  6  2  0  0  0  0
  9 13  1  0  0  0  0
  9  8  1  0  0  0  0
 11 19  1  0  0  0  0
 12 13  1  0  0  0  0
 13 18  2  0  0  0  0
 14  4  2  0  0  0  0
 15  5  2  0  0  0  0
 15  7  1  0  0  0  0
 16 11  2  0  0  0  0
 17  3  1  0  0  0  0
 18  6  1  0  0  0  0
 19 21  1  0  0  0  0
 21 20  2  0  0  0  0
 21 22  1  0  0  0  0
 23 25  2  0  0  0  0
 25 24  1  0  0  0  0
 25 22  1  0  0  0  0
 26  5  1  0  0  0  0
 27 26  1  0  0  0  0
 28 33  1  0  0  0  0
 29 33  2  0  0  0  0
 30 29  1  0  0  0  0
 31 30  2  0  0  0  0
 31 32  1  0  0  0  0
 32 28  2  0  0  0  0
 33 27  1  0  0  0  0
 34 31  1  0  0  0  0
 35 34  1  0  0  0  0
 36 35  1  0  0  0  0
M  END
>  <MODEL>
2

>  <REMARK>
 VINA RESULT:      -8.3      4.261      9.783
  Name = 
  8 active torsions:
  status: ('A' for Active; 'I' for Inactive)
    1  A    between atoms: C_7  and  O_22
    2  A    between atoms: N_13  and  C_14
    3  A    between atoms: C_16  and  C_31
    4  A    between atoms: C_19  and  C_31
    5  A    between atoms: O_22  and  C_34
    6  A    between atoms: C_23  and  C_36
    7  A    between atoms: C_29  and  C_36
    8  A    between atoms: C_33  and  C_34
                            x       y       z     vdW  Elec       q    Type
                         _______ _______ _______ _____ _____    ______ ____

>  <TORSDO>
F 8

$$$$
=
 OpenBabel11042420233D

 36 40  0  0  0  0  0  0  0  0999 V2000
  160.9590  207.7190  153.1360 N   0  0  0  0  0  0  0  0  0  0  0  0
  161.7790  208.3330  149.5340 C   0  0  0  0  0  3  0  0  0  0  0  0
  160.9140  208.8890  153.7020 C   0  0  0  0  0  0  0  0  0  0  0  0
  161.2620  210.1230  152.9440 C   0  0  0  0  0  0  0  0  0  0  0  0
  160.9250  206.2220  151.1710 C   0  0  0  0  0  0  0  0  0  0  0  0
  160.1520  211.4340  154.6630 C   0  0  0  0  0  0  0  0  0  0  0  0
  161.7280  208.5110  150.9170 C   0  0  0  0  0  0  0  0  0  0  0  0
  159.9380  210.3120  155.4340 C   0  0  0  0  0  0  0  0  0  0  0  0
  159.1390  210.7300  156.8460 S   0  0  0  0  0  0  0  0  0  0  0  0
  162.4220  210.0170  151.5940 S   0  0  0  0  0  0  0  0  0  0  0  0
  161.3930  207.1260  148.9560 C   0  0  0  0  0  0  0  0  0  0  0  0
  158.5230  213.4460  157.2360 C   0  0  0  0  0  1  0  0  0  0  0  0
  159.1140  212.3660  156.4040 C   0  0  0  0  0  0  0  0  0  0  0  0
  160.8900  211.3310  153.3960 C   0  0  0  0  0  3  0  0  0  0  0  0
  161.2690  207.4690  151.7530 C   0  0  0  0  0  0  0  0  0  0  0  0
  160.9840  206.0740  149.7830 C   0  0  0  0  0  3  0  0  0  0  0  0
  160.3280  209.0080  155.0080 N   0  0  0  0  0  2  0  0  0  0  0  0
  159.7020  212.5940  155.2040 N   0  0  0  0  0  0  0  0  0  0  0  0
  161.4550  206.9920  147.5300 N   0  0  0  0  0  2  0  0  0  0  0  0
  162.9940  205.2250  147.3750 O   0  0  0  0  0  0  0  0  0  0  0  0
  162.2480  206.0530  146.7910 C   0  0  0  0  0  0  0  0  0  0  0  0
  162.2110  206.0820  145.3020 C   0  0  0  0  0  2  0  0  0  0  0  0
  160.9270  204.4710  144.1060 O   0  0  0  0  0  0  0  0  0  0  0  0
  159.7260  206.1550  145.0950 O   0  0  0  0  0  1  0  0  0  0  0  0
  160.9250  205.5150  144.8090 C   0  0  0  0  0  0  0  0  0  0  0  0
  160.4940  205.1100  151.9110 O   0  0  0  0  0  0  0  0  0  0  0  0
  161.2420  203.9140  152.0790 C   0  0  0  0  0  2  0  0  0  0  0  0
  161.2100  201.6780  150.9630 C   0  0  0  0  0  3  0  0  0  0  0  0
  160.9430  203.6690  149.6100 C   0  0  0  0  0  3  0  0  0  0  0  0
  160.8480  202.8770  148.4610 C   0  0  0  0  0  3  0  0  0  0  0  0
  160.9280  201.4830  148.5630 C   0  0  0  0  0  0  0  0  0  0  0  0
  161.1160  200.8850  149.8150 C   0  0  0  0  0  3  0  0  0  0  0  0
  161.1140  203.0700  150.8610 C   0  0  0  0  0  0  0  0  0  0  0  0
  160.8460  200.6400  147.3390 C   0  0  0  0  0  2  0  0  0  0  0  0
  160.8390  201.5150  146.1010 C   0  0  0  0  0  2  0  0  0  0  0  0
  160.0720  200.8660  145.0540 N   0  0  0  0  0  1  0  0  0  0  0  0
  1  3  2  0  0  0  0
  2  7  1  0  0  0  0
  3 17  1  0  0  0  0
  4 14  2  0  0  0  0
  4  3  1  0  0  0  0
  5 15  1  0  0  0  0
  5 26  1  0  0  0  0
  6 18  1  0  0  0  0
  6  8  2  0  0  0  0
  7 10  1  0  0  0  0
  7 15  2  0  0  0  0
  8  9  1  0  0  0  0
 10  4  1  0  0  0  0
 11  2  2  0  0  0  0
 11 16  1  0  0  0  0
 13  9  1  0  0  0  0
 13 12  1  0  0  0  0
 14  6  1  0  0  0  0
 15  1  1  0  0  0  0
 16  5  2  0  0  0  0
 17  8  1  0  0  0  0
 18 13  2  0  0  0  0
 19 11  1  0  0  0  0
 21 20  2  0  0  0  0
 21 19  1  0  0  0  0
 22 21  1  0  0  0  0
 23 25  2  0  0  0  0
 25 24  1  0  0  0  0
 25 22  1  0  0  0  0
 26 27  1  0  0  0  0
 29 33  2  0  0  0  0
 30 31  2  0  0  0  0
 30 29  1  0  0  0  0
 31 32  1  0  0  0  0
 32 28  2  0  0  0  0
 33 28  1  0  0  0  0
 33 27  1  0  0  0  0
 34 31  1  0  0  0  0
 35 34  1  0  0  0  0
 36 35  1  0  0  0  0
M  END
>  <MODEL>
3

>  <REMARK>
 VINA RESULT:      -7.9      1.335      1.550
  Name = 
  8 active torsions:
  status: ('A' for Active; 'I' for Inactive)
    1  A    between atoms: C_7  and  O_22
    2  A    between atoms: N_13  and  C_14
    3  A    between atoms: C_16  and  C_31
    4  A    between atoms: C_19  and  C_31
    5  A    between atoms: O_22  and  C_34
    6  A    between atoms: C_23  and  C_36
    7  A    between atoms: C_29  and  C_36
    8  A    between atoms: C_33  and  C_34
                            x       y       z     vdW  Elec       q    Type
                         _______ _______ _______ _____ _____    ______ ____

>  <TORSDO>
F 8

$$$$
=
 OpenBabel11042420233D

 36 40  0  0  0  0  0  0  0  0999 V2000
  160.7620  211.4710  151.5590 N   0  0  0  0  0  0  0  0  0  0  0  0
  160.5590  213.5350  148.4410 C   0  0  0  0  0  3  0  0  0  0  0  0
  159.9600  212.0290  152.4160 C   0  0  0  0  0  0  0  0  0  0  0  0
  159.2620  213.3050  152.0970 C   0  0  0  0  0  0  0  0  0  0  0  0
  161.6050  211.0690  149.2720 C   0  0  0  0  0  0  0  0  0  0  0  0
  157.7220  212.8640  153.9260 C   0  0  0  0  0  0  0  0  0  0  0  0
  160.5310  213.1950  149.7940 C   0  0  0  0  0  0  0  0  0  0  0  0
  158.4380  211.7510  154.3090 C   0  0  0  0  0  0  0  0  0  0  0  0
  157.7180  211.0380  155.6440 S   0  0  0  0  0  0  0  0  0  0  0  0
  160.0200  214.4530  150.9630 S   0  0  0  0  0  0  0  0  0  0  0  0
  161.0830  212.6560  147.4960 C   0  0  0  0  0  0  0  0  0  0  0  0
  155.4080  212.2600  156.6820 C   0  0  0  0  0  1  0  0  0  0  0  0
  156.5040  212.2200  155.6800 C   0  0  0  0  0  0  0  0  0  0  0  0
  158.1920  213.6960  152.8070 C   0  0  0  0  0  3  0  0  0  0  0  0
  161.0230  211.9430  150.2250 C   0  0  0  0  0  0  0  0  0  0  0  0
  161.6170  211.4360  147.9220 C   0  0  0  0  0  3  0  0  0  0  0  0
  159.5910  211.3020  153.5990 N   0  0  0  0  0  2  0  0  0  0  0  0
  156.6410  213.1430  154.6950 N   0  0  0  0  0  0  0  0  0  0  0  0
  161.0830  213.0450  146.1160 N   0  0  0  0  0  2  0  0  0  0  0  0
  158.9440  212.2950  145.5020 O   0  0  0  0  0  0  0  0  0  0  0  0
  160.0230  212.8530  145.1700 C   0  0  0  0  0  0  0  0  0  0  0  0
  160.2160  213.2960  143.7610 C   0  0  0  0  0  2  0  0  0  0  0  0
  162.3160  212.3790  143.1140 O   0  0  0  0  0  1  0  0  0  0  0  0
  160.4720  211.3560  142.2150 O   0  0  0  0  0  0  0  0  0  0  0  0
  161.0630  212.3170  143.0250 C   0  0  0  0  0  0  0  0  0  0  0  0
  162.1580  209.8210  149.5950 O   0  0  0  0  0  0  0  0  0  0  0  0
  162.3430  208.7570  148.6730 C   0  0  0  0  0  2  0  0  0  0  0  0
  162.1300  207.2300  150.6400 C   0  0  0  0  0  3  0  0  0  0  0  0
  161.2620  206.5110  148.4960 C   0  0  0  0  0  3  0  0  0  0  0  0
  160.8580  205.2990  149.0650 C   0  0  0  0  0  3  0  0  0  0  0  0
  161.0840  205.0540  150.4250 C   0  0  0  0  0  0  0  0  0  0  0  0
  161.7270  206.0180  151.2090 C   0  0  0  0  0  3  0  0  0  0  0  0
  161.8900  207.4800  149.2850 C   0  0  0  0  0  0  0  0  0  0  0  0
  160.6710  203.7570  151.0270 C   0  0  0  0  0  2  0  0  0  0  0  0
  160.4660  202.7170  149.9420 C   0  0  0  0  0  2  0  0  0  0  0  0
  161.0650  201.4620  150.3550 N   0  0  0  0  0  1  0  0  0  0  0  0
  1  3  2  0  0  0  0
  2  7  1  0  0  0  0
  3 17  1  0  0  0  0
  4  3  1  0  0  0  0
  4 14  2  0  0  0  0
  5 26  1  0  0  0  0
  5 15  1  0  0  0  0
  6  8  2  0  0  0  0
  6 18  1  0  0  0  0
  7 15  2  0  0  0  0
  7 10  1  0  0  0  0
  8  9  1  0  0  0  0
  9 13  1  0  0  0  0
 10  4  1  0  0  0  0
 11 16  1  0  0  0  0
 11  2  2  0  0  0  0
 13 12  1  0  0  0  0
 14  6  1  0  0  0  0
 15  1  1  0  0  0  0
 16  5  2  0  0  0  0
 17  8  1  0  0  0  0
 18 13  2  0  0  0  0
 19 11  1  0  0  0  0
 21 20  2  0  0  0  0
 21 19  1  0  0  0  0
 22 21  1  0  0  0  0
 24 25  2  0  0  0  0
 25 23  1  0  0  0  0
 25 22  1  0  0  0  0
 27 33  1  0  0  0  0
 27 26  1  0  0  0  0
 28 32  1  0  0  0  0
 29 30  2  0  0  0  0
 29 33  1  0  0  0  0
 30 31  1  0  0  0  0
 31 34  1  0  0  0  0
 31 32  2  0  0  0  0
 33 28  2  0  0  0  0
 35 36  1  0  0  0  0
 35 34  1  0  0  0  0
M  END
>  <MODEL>
4

>  <REMARK>
 VINA RESULT:      -7.5      3.708      4.607
  Name = 
  8 active torsions:
  status: ('A' for Active; 'I' for Inactive)
    1  A    between atoms: C_7  and  O_22
    2  A    between atoms: N_13  and  C_14
    3  A    between atoms: C_16  and  C_31
    4  A    between atoms: C_19  and  C_31
    5  A    between atoms: O_22  and  C_34
    6  A    between atoms: C_23  and  C_36
    7  A    between atoms: C_29  and  C_36
    8  A    between atoms: C_33  and  C_34
                            x       y       z     vdW  Elec       q    Type
                         _______ _______ _______ _____ _____    ______ ____

>  <TORSDO>
F 8

$$$$
=
 OpenBabel11042420233D

 36 40  0  0  0  0  0  0  0  0999 V2000
  160.8170  211.4770  151.5210 N   0  0  0  0  0  0  0  0  0  0  0  0
  160.6280  213.5210  148.3890 C   0  0  0  0  0  3  0  0  0  0  0  0
  160.0050  212.0360  152.3680 C   0  0  0  0  0  0  0  0  0  0  0  0
  159.3030  213.3060  152.0350 C   0  0  0  0  0  0  0  0  0  0  0  0
  161.6810  211.0660  149.2430 C   0  0  0  0  0  0  0  0  0  0  0  0
  157.7510  212.8680  153.8540 C   0  0  0  0  0  0  0  0  0  0  0  0
  160.5910  213.1900  149.7440 C   0  0  0  0  0  0  0  0  0  0  0  0
  158.4690  211.7610  154.2500 C   0  0  0  0  0  0  0  0  0  0  0  0
  157.7420  211.0520  155.5830 S   0  0  0  0  0  0  0  0  0  0  0  0
  160.0640  214.4510  150.9010 S   0  0  0  0  0  0  0  0  0  0  0  0
  161.1650  212.6390  147.4540 C   0  0  0  0  0  0  0  0  0  0  0  0
  155.4160  212.2680  156.5950 C   0  0  0  0  0  1  0  0  0  0  0  0
  156.5220  212.2280  155.6020 C   0  0  0  0  0  0  0  0  0  0  0  0
  158.2250  213.6960  152.7350 C   0  0  0  0  0  3  0  0  0  0  0  0
  161.0860  211.9430  150.1860 C   0  0  0  0  0  0  0  0  0  0  0  0
  161.7020  211.4250  147.8920 C   0  0  0  0  0  3  0  0  0  0  0  0
  159.6300  211.3150  153.5520 N   0  0  0  0  0  2  0  0  0  0  0  0
  156.6610  213.1460  154.6130 N   0  0  0  0  0  0  0  0  0  0  0  0
  161.1750  213.0210  146.0710 N   0  0  0  0  0  2  0  0  0  0  0  0
  159.0620  212.2170  145.4340 O   0  0  0  0  0  0  0  0  0  0  0  0
  160.1320  212.7980  145.1130 C   0  0  0  0  0  0  0  0  0  0  0  0
  160.3330  213.2370  143.7040 C   0  0  0  0  0  2  0  0  0  0  0  0
  160.4420  211.2110  142.4550 O   0  0  0  0  0  0  0  0  0  0  0  0
  162.4440  212.2780  142.7850 O   0  0  0  0  0  1  0  0  0  0  0  0
  161.0660  212.1910  142.9390 C   0  0  0  0  0  0  0  0  0  0  0  0
  162.2370  209.8230  149.5790 O   0  0  0  0  0  0  0  0  0  0  0  0
  161.5450  208.7870  150.2600 C   0  0  0  0  0  2  0  0  0  0  0  0
  162.1140  207.5620  148.1580 C   0  0  0  0  0  3  0  0  0  0  0  0
  161.1080  206.3400  149.9920 C   0  0  0  0  0  3  0  0  0  0  0  0
  161.1400  205.1680  149.2300 C   0  0  0  0  0  3  0  0  0  0  0  0
  161.6650  205.1900  147.9330 C   0  0  0  0  0  0  0  0  0  0  0  0
  162.1460  206.3900  147.3950 C   0  0  0  0  0  3  0  0  0  0  0  0
  161.6040  207.5350  149.4600 C   0  0  0  0  0  0  0  0  0  0  0  0
  161.6830  203.9470  147.1150 C   0  0  0  0  0  2  0  0  0  0  0  0
  161.9970  204.2760  145.6680 C   0  0  0  0  0  2  0  0  0  0  0  0
  160.8170  204.0560  144.8540 N   0  0  0  0  0  1  0  0  0  0  0  0
  1  3  2  0  0  0  0
  2  7  1  0  0  0  0
  3 17  1  0  0  0  0
  4  3  1  0  0  0  0
  4 14  2  0  0  0  0
  5 26  1  0  0  0  0
  5 15  1  0  0  0  0
  6  8  2  0  0  0  0
  6 18  1  0  0  0  0
  7 15  2  0  0  0  0
  7 10  1  0  0  0  0
  8  9  1  0  0  0  0
  9 13  1  0  0  0  0
 10  4  1  0  0  0  0
 11 16  1  0  0  0  0
 11  2  2  0  0  0  0
 13 12  1  0  0  0  0
 14  6  1  0  0  0  0
 15  1  1  0  0  0  0
 16  5  2  0  0  0  0
 17  8  1  0  0  0  0
 18 13  2  0  0  0  0
 19 11  1  0  0  0  0
 21 20  2  0  0  0  0
 21 19  1  0  0  0  0
 22 21  1  0  0  0  0
 23 25  2  0  0  0  0
 24 25  1  0  0  0  0
 25 22  1  0  0  0  0
 26 27  1  0  0  0  0
 28 33  1  0  0  0  0
 30 29  1  0  0  0  0
 31 30  2  0  0  0  0
 32 31  1  0  0  0  0
 32 28  2  0  0  0  0
 33 29  2  0  0  0  0
 33 27  1  0  0  0  0
 34 31  1  0  0  0  0
 35 34  1  0  0  0  0
 36 35  1  0  0  0  0
M  END
>  <MODEL>
5

>  <REMARK>
 VINA RESULT:      -7.3      3.697      4.671
  Name = 
  8 active torsions:
  status: ('A' for Active; 'I' for Inactive)
    1  A    between atoms: C_7  and  O_22
    2  A    between atoms: N_13  and  C_14
    3  A    between atoms: C_16  and  C_31
    4  A    between atoms: C_19  and  C_31
    5  A    between atoms: O_22  and  C_34
    6  A    between atoms: C_23  and  C_36
    7  A    between atoms: C_29  and  C_36
    8  A    between atoms: C_33  and  C_34
                            x       y       z     vdW  Elec       q    Type
                         _______ _______ _______ _____ _____    ______ ____

>  <TORSDO>
F 8

$$$$
=
 OpenBabel11042420233D

 36 40  0  0  0  0  0  0  0  0999 V2000
  162.4340  208.5130  149.4020 N   0  0  0  0  0  0  0  0  0  0  0  0
  160.6340  209.0650  152.6390 C   0  0  0  0  0  3  0  0  0  0  0  0
  162.2680  207.2590  149.1050 C   0  0  0  0  0  0  0  0  0  0  0  0
  161.5700  206.3330  150.0390 C   0  0  0  0  0  0  0  0  0  0  0  0
  161.8490  210.5820  150.6180 C   0  0  0  0  0  0  0  0  0  0  0  0
  161.2830  204.7690  148.2010 C   0  0  0  0  0  0  0  0  0  0  0  0
  161.3450  208.4200  151.6260 C   0  0  0  0  0  0  0  0  0  0  0  0
  162.0390  205.5590  147.3610 C   0  0  0  0  0  0  0  0  0  0  0  0
  162.1470  204.8490  145.8480 S   0  0  0  0  0  0  0  0  0  0  0  0
  161.6260  206.6590  151.7920 S   0  0  0  0  0  0  0  0  0  0  0  0
  160.5050  210.4520  152.6480 C   0  0  0  0  0  0  0  0  0  0  0  0
  160.8580  202.3770  145.4770 C   0  0  0  0  0  1  0  0  0  0  0  0
  161.2130  203.5270  146.3500 C   0  0  0  0  0  0  0  0  0  0  0  0
  161.0930  205.1550  149.6070 C   0  0  0  0  0  3  0  0  0  0  0  0
  161.9340  209.1670  150.5820 C   0  0  0  0  0  0  0  0  0  0  0  0
  161.1290  211.2010  151.6450 C   0  0  0  0  0  3  0  0  0  0  0  0
  162.5830  206.8110  147.7770 N   0  0  0  0  0  2  0  0  0  0  0  0
  160.8240  203.6210  147.6450 N   0  0  0  0  0  0  0  0  0  0  0  0
  159.7590  211.0700  153.7050 N   0  0  0  0  0  2  0  0  0  0  0  0
  157.9790  211.9560  152.4550 O   0  0  0  0  0  0  0  0  0  0  0  0
  158.5300  211.7970  153.5760 C   0  0  0  0  0  0  0  0  0  0  0  0
  157.9120  212.4020  154.7880 C   0  0  0  0  0  2  0  0  0  0  0  0
  159.6940  213.8100  155.5060 O   0  0  0  0  0  0  0  0  0  0  0  0
  159.1740  212.0780  156.9150 O   0  0  0  0  0  1  0  0  0  0  0  0
  158.9680  212.8130  155.7540 C   0  0  0  0  0  0  0  0  0  0  0  0
  162.4300  211.4220  149.6550 O   0  0  0  0  0  0  0  0  0  0  0  0
  162.2100  211.3170  148.2560 C   0  0  0  0  0  2  0  0  0  0  0  0
  160.5600  213.1320  148.7340 C   0  0  0  0  0  3  0  0  0  0  0  0
  160.3590  211.8770  146.6720 C   0  0  0  0  0  3  0  0  0  0  0  0
  159.2330  212.6280  146.3230 C   0  0  0  0  0  3  0  0  0  0  0  0
  158.7730  213.6380  147.1770 C   0  0  0  0  0  0  0  0  0  0  0  0
  159.4340  213.8840  148.3860 C   0  0  0  0  0  3  0  0  0  0  0  0
  161.0290  212.1340  147.8730 C   0  0  0  0  0  0  0  0  0  0  0  0
  157.5630  214.4260  146.8150 C   0  0  0  0  0  2  0  0  0  0  0  0
  156.6860  213.6330  145.8650 C   0  0  0  0  0  2  0  0  0  0  0  0
  156.3510  214.4530  144.7160 N   0  0  0  0  0  1  0  0  0  0  0  0
  1 15  1  0  0  0  0
  2 11  1  0  0  0  0
  3  1  2  0  0  0  0
  3  4  1  0  0  0  0
  4 10  1  0  0  0  0
  5 16  1  0  0  0  0
  6 14  1  0  0  0  0
  7 10  1  0  0  0  0
  7  2  2  0  0  0  0
  8 17  1  0  0  0  0
  8  6  2  0  0  0  0
  9 13  1  0  0  0  0
  9  8  1  0  0  0  0
 11 19  1  0  0  0  0
 12 13  1  0  0  0  0
 13 18  2  0  0  0  0
 14  4  2  0  0  0  0
 15  5  2  0  0  0  0
 15  7  1  0  0  0  0
 16 11  2  0  0  0  0
 17  3  1  0  0  0  0
 18  6  1  0  0  0  0
 20 21  2  0  0  0  0
 21 19  1  0  0  0  0
 21 22  1  0  0  0  0
 22 25  1  0  0  0  0
 23 25  2  0  0  0  0
 25 24  1  0  0  0  0
 26  5  1  0  0  0  0
 27 26  1  0  0  0  0
 29 33  1  0  0  0  0
 30 29  2  0  0  0  0
 30 31  1  0  0  0  0
 31 32  2  0  0  0  0
 32 28  1  0  0  0  0
 33 27  1  0  0  0  0
 33 28  2  0  0  0  0
 34 31  1  0  0  0  0
 35 34  1  0  0  0  0
 36 35  1  0  0  0  0
M  END
>  <MODEL>
6

>  <REMARK>
 VINA RESULT:      -6.6      4.382      9.845
  Name = 
  8 active torsions:
  status: ('A' for Active; 'I' for Inactive)
    1  A    between atoms: C_7  and  O_22
    2  A    between atoms: N_13  and  C_14
    3  A    between atoms: C_16  and  C_31
    4  A    between atoms: C_19  and  C_31
    5  A    between atoms: O_22  and  C_34
    6  A    between atoms: C_23  and  C_36
    7  A    between atoms: C_29  and  C_36
    8  A    between atoms: C_33  and  C_34
                            x       y       z     vdW  Elec       q    Type
                         _______ _______ _______ _____ _____    ______ ____

>  <TORSDO>
F 8

$$$$
=
 OpenBabel11042420233D

 36 40  0  0  0  0  0  0  0  0999 V2000
  161.0270  205.3920  150.0040 N   0  0  0  0  0  0  0  0  0  0  0  0
  161.6680  208.6370  148.2480 C   0  0  0  0  0  3  0  0  0  0  0  0
  160.8310  204.5080  149.0720 C   0  0  0  0  0  0  0  0  0  0  0  0
  160.7880  204.9020  147.6360 C   0  0  0  0  0  0  0  0  0  0  0  0
  161.8460  207.5690  150.8350 C   0  0  0  0  0  0  0  0  0  0  0  0
  161.1210  202.5700  147.0360 C   0  0  0  0  0  0  0  0  0  0  0  0
  161.1730  207.3570  148.5010 C   0  0  0  0  0  0  0  0  0  0  0  0
  161.0330  202.1790  148.3540 C   0  0  0  0  0  0  0  0  0  0  0  0
  161.2120  200.5170  148.4730 S   0  0  0  0  0  0  0  0  0  0  0  0
  160.2490  206.5440  147.2000 S   0  0  0  0  0  0  0  0  0  0  0  0
  162.2670  209.3820  149.2610 C   0  0  0  0  0  0  0  0  0  0  0  0
  161.5870  199.0770  146.0870 C   0  0  0  0  0  1  0  0  0  0  0  0
  161.3840  200.3680  146.7930 C   0  0  0  0  0  0  0  0  0  0  0  0
  160.9360  203.9820  146.6690 C   0  0  0  0  0  3  0  0  0  0  0  0
  161.2850  206.7920  149.7910 C   0  0  0  0  0  0  0  0  0  0  0  0
  162.3360  208.8480  150.5510 C   0  0  0  0  0  3  0  0  0  0  0  0
  160.8590  203.1140  149.4170 N   0  0  0  0  0  2  0  0  0  0  0  0
  161.3070  201.5600  146.1500 N   0  0  0  0  0  0  0  0  0  0  0  0
  162.7680  210.6900  148.9520 N   0  0  0  0  0  2  0  0  0  0  0  0
  160.8700  211.5930  147.9040 O   0  0  0  0  0  0  0  0  0  0  0  0
  162.0590  211.7450  148.2880 C   0  0  0  0  0  0  0  0  0  0  0  0
  162.7550  213.0340  148.0210 C   0  0  0  0  0  2  0  0  0  0  0  0
  162.9620  213.3020  145.6630 O   0  0  0  0  0  0  0  0  0  0  0  0
  161.2370  214.4530  146.6420 O   0  0  0  0  0  1  0  0  0  0  0  0
  162.3240  213.5900  146.7080 C   0  0  0  0  0  0  0  0  0  0  0  0
  161.9710  207.1210  152.1590 O   0  0  0  0  0  0  0  0  0  0  0  0
  160.8800  206.7590  152.9940 C   0  0  0  0  0  2  0  0  0  0  0  0
  160.2900  207.3290  155.3550 C   0  0  0  0  0  3  0  0  0  0  0  0
  161.0400  209.0930  153.8730 C   0  0  0  0  0  3  0  0  0  0  0  0
  160.8920  210.0250  154.9050 C   0  0  0  0  0  3  0  0  0  0  0  0
  160.4490  209.6080  156.1660 C   0  0  0  0  0  0  0  0  0  0  0  0
  160.1410  208.2600  156.3870 C   0  0  0  0  0  3  0  0  0  0  0  0
  160.7480  207.7440  154.1000 C   0  0  0  0  0  0  0  0  0  0  0  0
  160.2730  210.6020  157.2610 C   0  0  0  0  0  2  0  0  0  0  0  0
  159.1700  211.5810  156.9060 C   0  0  0  0  0  2  0  0  0  0  0  0
  159.7330  212.9090  156.7530 N   0  0  0  0  0  1  0  0  0  0  0  0
  2  7  2  0  0  0  0
  2 11  1  0  0  0  0
  3 17  1  0  0  0  0
  3  1  2  0  0  0  0
  4  3  1  0  0  0  0
  5 26  1  0  0  0  0
  6  8  2  0  0  0  0
  7 15  1  0  0  0  0
  8  9  1  0  0  0  0
  8 17  1  0  0  0  0
 10  4  1  0  0  0  0
 10  7  1  0  0  0  0
 11 16  2  0  0  0  0
 12 13  1  0  0  0  0
 13  9  1  0  0  0  0
 14  6  1  0  0  0  0
 14  4  2  0  0  0  0
 15  1  1  0  0  0  0
 15  5  2  0  0  0  0
 16  5  1  0  0  0  0
 18 13  2  0  0  0  0
 18  6  1  0  0  0  0
 19 11  1  0  0  0  0
 20 21  2  0  0  0  0
 21 19  1  0  0  0  0
 22 21  1  0  0  0  0
 23 25  2  0  0  0  0
 24 25  1  0  0  0  0
 25 22  1  0  0  0  0
 26 27  1  0  0  0  0
 27 33  1  0  0  0  0
 28 32  1  0  0  0  0
 29 33  1  0  0  0  0
 29 30  2  0  0  0  0
 30 31  1  0  0  0  0
 31 32  2  0  0  0  0
 31 34  1  0  0  0  0
 33 28  2  0  0  0  0
 35 34  1  0  0  0  0
 36 35  1  0  0  0  0
M  END
>  <MODEL>
7

>  <REMARK>
 VINA RESULT:      -6.6      3.746      9.040
  Name = 
  8 active torsions:
  status: ('A' for Active; 'I' for Inactive)
    1  A    between atoms: C_7  and  O_22
    2  A    between atoms: N_13  and  C_14
    3  A    between atoms: C_16  and  C_31
    4  A    between atoms: C_19  and  C_31
    5  A    between atoms: O_22  and  C_34
    6  A    between atoms: C_23  and  C_36
    7  A    between atoms: C_29  and  C_36
    8  A    between atoms: C_33  and  C_34
                            x       y       z     vdW  Elec       q    Type
                         _______ _______ _______ _____ _____    ______ ____

>  <TORSDO>
F 8

$$$$
=
 OpenBabel11042420233D

 36 40  0  0  0  0  0  0  0  0999 V2000
  160.9640  211.5770  151.0370 N   0  0  0  0  0  0  0  0  0  0  0  0
  160.2540  213.7170  148.0460 C   0  0  0  0  0  3  0  0  0  0  0  0
  160.1570  211.9820  151.9710 C   0  0  0  0  0  0  0  0  0  0  0  0
  159.2690  213.1590  151.7630 C   0  0  0  0  0  0  0  0  0  0  0  0
  161.6870  211.3910  148.6820 C   0  0  0  0  0  0  0  0  0  0  0  0
  157.9400  212.4330  153.6650 C   0  0  0  0  0  0  0  0  0  0  0  0
  160.3710  213.3220  149.3790 C   0  0  0  0  0  0  0  0  0  0  0  0
  158.8280  211.4170  153.9450 C   0  0  0  0  0  0  0  0  0  0  0  0
  158.3110  210.5570  155.2870 S   0  0  0  0  0  0  0  0  0  0  0  0
  159.7780  214.4470  150.6400 S   0  0  0  0  0  0  0  0  0  0  0  0
  160.8250  212.9580  147.0260 C   0  0  0  0  0  0  0  0  0  0  0  0
  155.9360  211.3990  156.5340 C   0  0  0  0  0  1  0  0  0  0  0  0
  156.9520  211.5540  155.4610 C   0  0  0  0  0  0  0  0  0  0  0  0
  158.2090  213.3670  152.5610 C   0  0  0  0  0  3  0  0  0  0  0  0
  161.0610  212.1350  149.7140 C   0  0  0  0  0  0  0  0  0  0  0  0
  161.5510  211.8100  147.3550 C   0  0  0  0  0  3  0  0  0  0  0  0
  159.9770  211.1640  153.1380 N   0  0  0  0  0  2  0  0  0  0  0  0
  156.8890  212.5260  154.5170 N   0  0  0  0  0  0  0  0  0  0  0  0
  160.6730  213.4000  145.6700 N   0  0  0  0  0  2  0  0  0  0  0  0
  158.3330  213.3010  145.4920 O   0  0  0  0  0  0  0  0  0  0  0  0
  159.4410  213.5550  144.9520 C   0  0  0  0  0  0  0  0  0  0  0  0
  159.4790  213.9950  143.5300 C   0  0  0  0  0  2  0  0  0  0  0  0
  159.0000  212.8680  141.4870 O   0  0  0  0  0  0  0  0  0  0  0  0
  160.1420  211.6390  143.0510 O   0  0  0  0  0  1  0  0  0  0  0  0
  159.5330  212.8130  142.6260 C   0  0  0  0  0  0  0  0  0  0  0  0
  162.4280  210.2200  148.9060 O   0  0  0  0  0  0  0  0  0  0  0  0
  161.9630  208.9070  148.6310 C   0  0  0  0  0  2  0  0  0  0  0  0
  161.0890  206.9430  149.9070 C   0  0  0  0  0  3  0  0  0  0  0  0
  162.2070  208.7230  151.1110 C   0  0  0  0  0  3  0  0  0  0  0  0
  161.9960  208.0440  152.3150 C   0  0  0  0  0  3  0  0  0  0  0  0
  161.3370  206.8080  152.3150 C   0  0  0  0  0  0  0  0  0  0  0  0
  160.8780  206.2630  151.1100 C   0  0  0  0  0  3  0  0  0  0  0  0
  161.7620  208.1700  149.9070 C   0  0  0  0  0  0  0  0  0  0  0  0
  161.0960  206.0920  153.5970 C   0  0  0  0  0  2  0  0  0  0  0  0
  161.0440  207.0800  154.7460 C   0  0  0  0  0  2  0  0  0  0  0  0
  159.8100  206.8960  155.4870 N   0  0  0  0  0  1  0  0  0  0  0  0
  1  3  2  0  0  0  0
  2  7  1  0  0  0  0
  3 17  1  0  0  0  0
  4  3  1  0  0  0  0
  4 14  2  0  0  0  0
  5 26  1  0  0  0  0
  5 15  1  0  0  0  0
  6  8  2  0  0  0  0
  6 18  1  0  0  0  0
  7 15  2  0  0  0  0
  7 10  1  0  0  0  0
  8  9  1  0  0  0  0
  9 13  1  0  0  0  0
 10  4  1  0  0  0  0
 11 16  1  0  0  0  0
 11  2  2  0  0  0  0
 13 12  1  0  0  0  0
 14  6  1  0  0  0  0
 15  1  1  0  0  0  0
 16  5  2  0  0  0  0
 17  8  1  0  0  0  0
 18 13  2  0  0  0  0
 19 11  1  0  0  0  0
 21 20  2  0  0  0  0
 21 19  1  0  0  0  0
 22 21  1  0  0  0  0
 23 25  2  0  0  0  0
 25 24  1  0  0  0  0
 25 22  1  0  0  0  0
 27 26  1  0  0  0  0
 27 33  1  0  0  0  0
 28 32  1  0  0  0  0
 29 30  2  0  0  0  0
 30 31  1  0  0  0  0
 31 34  1  0  0  0  0
 32 31  2  0  0  0  0
 33 28  2  0  0  0  0
 33 29  1  0  0  0  0
 34 35  1  0  0  0  0
 35 36  1  0  0  0  0
M  END
>  <MODEL>
8

>  <REMARK>
 VINA RESULT:      -6.4      4.072      5.738
  Name = 
  8 active torsions:
  status: ('A' for Active; 'I' for Inactive)
    1  A    between atoms: C_7  and  O_22
    2  A    between atoms: N_13  and  C_14
    3  A    between atoms: C_16  and  C_31
    4  A    between atoms: C_19  and  C_31
    5  A    between atoms: O_22  and  C_34
    6  A    between atoms: C_23  and  C_36
    7  A    between atoms: C_29  and  C_36
    8  A    between atoms: C_33  and  C_34
                            x       y       z     vdW  Elec       q    Type
                         _______ _______ _______ _____ _____    ______ ____

>  <TORSDO>
F 8

$$$$
=
 OpenBabel11042420233D

 36 40  0  0  0  0  0  0  0  0999 V2000
  160.8600  205.9800  150.1190 N   0  0  0  0  0  0  0  0  0  0  0  0
  161.7400  208.9670  148.0390 C   0  0  0  0  0  3  0  0  0  0  0  0
  160.7730  204.9780  149.2960 C   0  0  0  0  0  0  0  0  0  0  0  0
  160.9100  205.1770  147.8270 C   0  0  0  0  0  0  0  0  0  0  0  0
  161.5880  208.2550  150.7470 C   0  0  0  0  0  0  0  0  0  0  0  0
  161.2950  202.7890  147.5880 C   0  0  0  0  0  0  0  0  0  0  0  0
  161.2060  207.7280  148.3970 C   0  0  0  0  0  0  0  0  0  0  0  0
  161.0420  202.5760  148.9250 C   0  0  0  0  0  0  0  0  0  0  0  0
  161.1900  200.9460  149.2850 S   0  0  0  0  0  0  0  0  0  0  0  0
  160.4430  206.7420  147.1120 S   0  0  0  0  0  0  0  0  0  0  0  0
  162.2160  209.8460  149.0100 C   0  0  0  0  0  0  0  0  0  0  0  0
  161.8450  199.2040  147.1770 C   0  0  0  0  0  1  0  0  0  0  0  0
  161.5670  200.5760  147.6750 C   0  0  0  0  0  0  0  0  0  0  0  0
  161.1690  204.1380  147.0160 C   0  0  0  0  0  3  0  0  0  0  0  0
  161.1540  207.3410  149.7550 C   0  0  0  0  0  0  0  0  0  0  0  0
  162.1200  209.4880  150.3580 C   0  0  0  0  0  3  0  0  0  0  0  0
  160.7460  203.6430  149.8250 N   0  0  0  0  0  2  0  0  0  0  0  0
  161.5800  201.6710  146.8740 N   0  0  0  0  0  0  0  0  0  0  0  0
  162.7620  211.1050  148.5940 N   0  0  0  0  0  2  0  0  0  0  0  0
  160.7960  212.3890  148.5680 O   0  0  0  0  0  0  0  0  0  0  0  0
  162.0400  212.3260  148.3870 C   0  0  0  0  0  0  0  0  0  0  0  0
  162.7740  213.5350  147.9190 C   0  0  0  0  0  2  0  0  0  0  0  0
  161.1600  214.4530  146.4270 O   0  0  0  0  0  1  0  0  0  0  0  0
  163.0950  213.7050  145.4520 O   0  0  0  0  0  0  0  0  0  0  0  0
  162.2980  213.9340  146.5660 C   0  0  0  0  0  0  0  0  0  0  0  0
  161.5450  207.9880  152.1240 O   0  0  0  0  0  0  0  0  0  0  0  0
  161.9810  208.8870  153.1340 C   0  0  0  0  0  2  0  0  0  0  0  0
  160.0420  210.4640  153.1180 C   0  0  0  0  0  3  0  0  0  0  0  0
  160.4780  209.1610  155.1130 C   0  0  0  0  0  3  0  0  0  0  0  0
  159.3850  209.7610  155.7450 C   0  0  0  0  0  3  0  0  0  0  0  0
  158.6140  210.7090  155.0610 C   0  0  0  0  0  0  0  0  0  0  0  0
  158.9480  211.0640  153.7490 C   0  0  0  0  0  3  0  0  0  0  0  0
  160.8020  209.5050  153.7970 C   0  0  0  0  0  0  0  0  0  0  0  0
  157.4600  211.3610  155.7390 C   0  0  0  0  0  2  0  0  0  0  0  0
  156.2880  211.4750  154.7840 C   0  0  0  0  0  2  0  0  0  0  0  0
  155.3090  210.4500  155.0950 N   0  0  0  0  0  1  0  0  0  0  0  0
  2  7  2  0  0  0  0
  2 11  1  0  0  0  0
  3 17  1  0  0  0  0
  3  1  2  0  0  0  0
  4  3  1  0  0  0  0
  5 26  1  0  0  0  0
  6  8  2  0  0  0  0
  7 15  1  0  0  0  0
  8  9  1  0  0  0  0
  8 17  1  0  0  0  0
 10  4  1  0  0  0  0
 10  7  1  0  0  0  0
 11 16  2  0  0  0  0
 12 13  1  0  0  0  0
 13  9  1  0  0  0  0
 14  6  1  0  0  0  0
 14  4  2  0  0  0  0
 15  1  1  0  0  0  0
 15  5  2  0  0  0  0
 16  5  1  0  0  0  0
 18  6  1  0  0  0  0
 18 13  2  0  0  0  0
 19 11  1  0  0  0  0
 21 20  2  0  0  0  0
 21 19  1  0  0  0  0
 22 21  1  0  0  0  0
 23 25  1  0  0  0  0
 24 25  2  0  0  0  0
 25 22  1  0  0  0  0
 26 27  1  0  0  0  0
 27 33  1  0  0  0  0
 28 32  2  0  0  0  0
 28 33  1  0  0  0  0
 29 30  1  0  0  0  0
 31 34  1  0  0  0  0
 31 30  2  0  0  0  0
 32 31  1  0  0  0  0
 33 29  2  0  0  0  0
 35 36  1  0  0  0  0
 35 34  1  0  0  0  0
M  END
>  <MODEL>
9

>  <REMARK>
 VINA RESULT:      -6.0      3.727      8.983
  Name = 
  8 active torsions:
  status: ('A' for Active; 'I' for Inactive)
    1  A    between atoms: C_7  and  O_22
    2  A    between atoms: N_13  and  C_14
    3  A    between atoms: C_16  and  C_31
    4  A    between atoms: C_19  and  C_31
    5  A    between atoms: O_22  and  C_34
    6  A    between atoms: C_23  and  C_36
    7  A    between atoms: C_29  and  C_36
    8  A    between atoms: C_33  and  C_34
                            x       y       z     vdW  Elec       q    Type
                         _______ _______ _______ _____ _____    ______ ____

>  <TORSDO>
F 8

$$$$
