=
 OpenBabel11052410523D

 28 32  0  0  1  0  0  0  0  0999 V2000
  161.9340  205.8310  145.9800 C   0  0  0  0  0  2  0  0  0  0  0  0
  162.2540  205.0560  147.2210 C   0  0  1  0  0  3  0  0  0  0  0  0
  160.9690  203.8710  148.6420 C   0  0  2  0  0  3  0  0  0  0  0  0
  160.7900  201.6420  147.5280 C   0  0  0  0  0  2  0  0  0  0  0  0
  161.4540  205.1550  148.2830 C   0  0  1  0  0  3  0  0  0  0  0  0
  161.0720  205.0240  150.6390 C   0  0  2  0  0  3  0  0  0  0  0  0
  160.7520  203.7330  150.0260 N   0  0  0  0  0  2  0  0  0  0  0  0
  161.4530  203.6660  145.5670 C   0  0  0  0  0  0  0  0  0  0  0  0
  160.2800  201.6450  146.0940 C   0  0  0  0  0  3  0  0  0  0  0  0
  161.6940  205.9300  149.5360 C   0  0  2  0  0  3  0  0  0  0  0  0
  162.2710  203.6210  146.7980 C   0  0  2  0  0  3  0  0  0  0  0  0
  161.2470  204.8630  145.1300 N   0  0  0  0  0  0  0  0  0  0  0  0
  160.5890  202.5730  145.2240 N   0  0  0  0  0  0  0  0  0  0  0  0
  161.4590  202.9460  147.8390 C   0  0  1  0  0  3  0  0  0  0  0  0
  161.9630  209.4070  149.0720 C   0  0  0  0  0  0  0  0  0  0  0  0
  161.1640  208.0570  150.8110 C   0  0  0  0  0  2  0  0  0  0  0  0
  162.0580  210.3790  151.4180 C   0  0  0  0  0  1  0  0  0  0  0  0
  161.5790  208.1710  148.3670 C   0  0  0  0  0  2  0  0  0  0  0  0
  160.9920  207.2900  149.4840 C   0  0  1  0  0  3  0  0  0  0  0  0
  162.4680  210.4110  148.5050 O   0  0  0  0  0  0  0  0  0  0  0  0
  161.7130  209.3460  150.4570 N   0  0  0  0  0  0  0  0  0  0  0  0
  161.8910  205.3630  152.9670 C   0  0  0  0  0  3  0  0  0  0  0  0
  162.0520  204.8230  151.7530 C   0  0  0  0  0  3  0  0  0  0  0  0
  160.7210  206.2210  153.3350 C   0  0  0  0  0  2  0  0  0  0  0  0
  160.5120  207.6950  155.3590 C   0  0  0  0  0  0  0  0  0  0  0  0
  159.4280  206.9540  155.8180 O   0  0  0  0  0  0  0  0  0  0  0  0
  161.1630  207.3490  154.1380 N   0  0  0  0  0  2  0  0  0  0  0  0
  160.9240  208.6770  156.0290 O   0  0  0  0  0  1  0  0  0  0  0  0
  2  1  1  6  0  0  0
  2  5  1  0  0  0  0
  3  7  1  1  0  0  0
  4 14  1  0  0  0  0
  5  3  1  0  0  0  0
  5 10  1  0  0  0  0
  6 23  1  0  0  0  0
  7  6  1  0  0  0  0
  8 11  1  0  0  0  0
  9  4  1  0  0  0  0
 10  6  1  0  0  0  0
 11  2  1  0  0  0  0
 11 14  1  0  0  0  0
 12  8  2  0  0  0  0
 12  1  1  0  0  0  0
 13  8  1  0  0  0  0
 13  9  2  0  0  0  0
 14  3  1  0  0  0  0
 15 21  1  0  0  0  0
 18 15  1  0  0  0  0
 18 19  1  0  0  0  0
 19 10  1  0  0  0  0
 19 16  1  0  0  0  0
 20 15  2  0  0  0  0
 21 16  1  0  0  0  0
 21 17  1  0  0  0  0
 22 24  1  0  0  0  0
 23 22  2  0  0  0  0
 24 27  1  0  0  0  0
 25 26  2  0  0  0  0
 25 28  1  0  0  0  0
 27 25  1  0  0  0  0
M  END
>  <MODEL>
1

>  <REMARK>
 VINA RESULT:      -9.2      0.000      0.000
  Name = 
  4 active torsions:
  status: ('A' for Active; 'I' for Inactive)
    1  A    between atoms: C_9  and  C_25
    2  A    between atoms: N_12  and  C_25
    3  A    between atoms: C_13  and  C_26
    4  A    between atoms: C_17  and  C_20
                            x       y       z     vdW  Elec       q    Type
                         _______ _______ _______ _____ _____    ______ ____

>  <TORSDO>
F 4

$$$$
=
 OpenBabel11052410523D

 28 32  0  0  1  0  0  0  0  0999 V2000
  160.4600  206.9600  155.2460 C   0  0  0  0  0  2  0  0  0  0  0  0
  161.2780  207.6360  154.1890 C   0  0  1  0  0  3  0  0  0  0  0  0
  160.7140  208.9190  152.4260 C   0  0  2  0  0  3  0  0  0  0  0  0
  160.4810  211.1960  153.4270 C   0  0  0  0  0  2  0  0  0  0  0  0
  160.8710  207.5990  152.9190 C   0  0  1  0  0  3  0  0  0  0  0  0
  161.3180  207.6820  150.5730 C   0  0  2  0  0  3  0  0  0  0  0  0
  160.9920  209.0280  151.0490 N   0  0  0  0  0  2  0  0  0  0  0  0
  160.1700  209.1840  155.4860 C   0  0  0  0  0  0  0  0  0  0  0  0
  159.5270  211.3180  154.6070 C   0  0  0  0  0  3  0  0  0  0  0  0
  161.4070  206.7490  151.8150 C   0  0  2  0  0  3  0  0  0  0  0  0
  161.3480  209.0720  154.6010 C   0  0  2  0  0  3  0  0  0  0  0  0
  159.6690  208.0430  155.8210 N   0  0  0  0  0  0  0  0  0  0  0  0
  159.3980  210.3940  155.5250 N   0  0  0  0  0  0  0  0  0  0  0  0
  161.0300  209.8040  153.3520 C   0  0  1  0  0  3  0  0  0  0  0  0
  161.2850  203.2650  151.3350 C   0  0  0  0  0  0  0  0  0  0  0  0
  160.4680  205.1010  150.1310 C   0  0  0  0  0  2  0  0  0  0  0  0
  160.9830  202.9560  148.8300 C   0  0  0  0  0  1  0  0  0  0  0  0
  161.1450  204.2960  152.3790 C   0  0  0  0  0  2  0  0  0  0  0  0
  160.5490  205.4950  151.6200 C   0  0  1  0  0  3  0  0  0  0  0  0
  161.7210  202.1040  151.5480 O   0  0  0  0  0  0  0  0  0  0  0  0
  160.8860  203.7200  150.0620 N   0  0  0  0  0  0  0  0  0  0  0  0
  162.7510  207.4250  148.5510 C   0  0  0  0  0  3  0  0  0  0  0  0
  162.6310  207.7080  149.8530 C   0  0  0  0  0  3  0  0  0  0  0  0
  161.5890  207.0520  147.6820 C   0  0  0  0  0  2  0  0  0  0  0  0
  161.1920  205.5880  145.6790 C   0  0  0  0  0  0  0  0  0  0  0  0
  160.1150  206.3750  145.2870 O   0  0  0  0  0  1  0  0  0  0  0  0
  161.9320  205.9060  146.8560 N   0  0  0  0  0  2  0  0  0  0  0  0
  161.5190  204.5890  144.9880 O   0  0  0  0  0  0  0  0  0  0  0  0
  1 12  1  0  0  0  0
  2 11  1  0  0  0  0
  2  1  1  1  0  0  0
  3  7  1  6  0  0  0
  3  5  1  0  0  0  0
  3 14  1  0  0  0  0
  4  9  1  0  0  0  0
  5  2  1  0  0  0  0
  6  7  1  0  0  0  0
  6 10  1  0  0  0  0
  8 13  1  0  0  0  0
  8 12  2  0  0  0  0
  9 13  2  0  0  0  0
 10  5  1  0  0  0  0
 11  8  1  0  0  0  0
 14  4  1  0  0  0  0
 14 11  1  0  0  0  0
 15 20  2  0  0  0  0
 15 18  1  0  0  0  0
 16 19  1  0  0  0  0
 17 21  1  0  0  0  0
 19 10  1  0  0  0  0
 19 18  1  0  0  0  0
 21 16  1  0  0  0  0
 21 15  1  0  0  0  0
 22 23  2  0  0  0  0
 23  6  1  0  0  0  0
 24 22  1  0  0  0  0
 25 27  1  0  0  0  0
 26 25  1  0  0  0  0
 27 24  1  0  0  0  0
 28 25  2  0  0  0  0
M  END
>  <MODEL>
2

>  <REMARK>
 VINA RESULT:      -9.2      2.836      8.205
  Name = 
  4 active torsions:
  status: ('A' for Active; 'I' for Inactive)
    1  A    between atoms: C_9  and  C_25
    2  A    between atoms: N_12  and  C_25
    3  A    between atoms: C_13  and  C_26
    4  A    between atoms: C_17  and  C_20
                            x       y       z     vdW  Elec       q    Type
                         _______ _______ _______ _____ _____    ______ ____

>  <TORSDO>
F 4

$$$$
=
 OpenBabel11052410523D

 28 32  0  0  1  0  0  0  0  0999 V2000
  161.4240  204.9990  152.5930 C   0  0  0  0  0  2  0  0  0  0  0  0
  162.0390  205.6960  151.4180 C   0  0  1  0  0  3  0  0  0  0  0  0
  161.1980  207.1250  149.8940 C   0  0  2  0  0  3  0  0  0  0  0  0
  161.3470  209.3400  151.0420 C   0  0  0  0  0  2  0  0  0  0  0  0
  161.3650  205.7680  150.2700 C   0  0  1  0  0  3  0  0  0  0  0  0
  161.2960  205.9840  147.8910 C   0  0  2  0  0  3  0  0  0  0  0  0
  161.1770  207.3110  148.4980 N   0  0  0  0  0  2  0  0  0  0  0  0
  161.3500  207.2150  153.0090 C   0  0  0  0  0  0  0  0  0  0  0  0
  160.6830  209.4360  152.4080 C   0  0  0  0  0  3  0  0  0  0  0  0
  161.5870  204.9660  149.0310 C   0  0  2  0  0  3  0  0  0  0  0  0
  162.2970  207.0950  151.8810 C   0  0  2  0  0  3  0  0  0  0  0  0
  160.8540  206.0840  153.3850 N   0  0  0  0  0  0  0  0  0  0  0  0
  160.6920  208.4610  153.2810 N   0  0  0  0  0  0  0  0  0  0  0  0
  161.7680  207.9270  150.7730 C   0  0  1  0  0  3  0  0  0  0  0  0
  160.8700  201.6500  149.9670 C   0  0  0  0  0  0  0  0  0  0  0  0
  161.0750  202.7500  147.9090 C   0  0  0  0  0  2  0  0  0  0  0  0
  161.5690  200.2380  147.9730 C   0  0  0  0  0  1  0  0  0  0  0  0
  160.5540  203.0470  150.3160 C   0  0  0  0  0  2  0  0  0  0  0  0
  160.6210  203.7790  148.9650 C   0  0  1  0  0  3  0  0  0  0  0  0
  160.8960  200.7060  150.7990 O   0  0  0  0  0  0  0  0  0  0  0  0
  161.1510  201.4810  148.5970 N   0  0  0  0  0  0  0  0  0  0  0  0
  162.2820  205.5420  145.6460 C   0  0  0  0  0  3  0  0  0  0  0  0
  162.4210  205.9830  146.9010 C   0  0  0  0  0  3  0  0  0  0  0  0
  160.9950  205.0030  145.1020 C   0  0  0  0  0  2  0  0  0  0  0  0
  159.9190  202.7820  144.6310 C   0  0  0  0  0  0  0  0  0  0  0  0
  158.8230  203.4080  144.0500 O   0  0  0  0  0  0  0  0  0  0  0  0
  161.0010  203.5500  145.1560 N   0  0  0  0  0  2  0  0  0  0  0  0
  159.9600  201.5260  144.6930 O   0  0  0  0  0  1  0  0  0  0  0  0
  1 12  1  0  0  0  0
  2 11  1  0  0  0  0
  2  1  1  1  0  0  0
  3  7  1  6  0  0  0
  3  5  1  0  0  0  0
  3 14  1  0  0  0  0
  4  9  1  0  0  0  0
  5  2  1  0  0  0  0
  6  7  1  0  0  0  0
  6 10  1  0  0  0  0
  8 13  1  0  0  0  0
  8 12  2  0  0  0  0
  9 13  2  0  0  0  0
 10  5  1  0  0  0  0
 11  8  1  0  0  0  0
 14  4  1  0  0  0  0
 14 11  1  0  0  0  0
 15 18  1  0  0  0  0
 15 20  2  0  0  0  0
 16 21  1  0  0  0  0
 16 19  1  0  0  0  0
 17 21  1  0  0  0  0
 19 10  1  0  0  0  0
 19 18  1  0  0  0  0
 21 15  1  0  0  0  0
 22 23  2  0  0  0  0
 23  6  1  0  0  0  0
 24 27  1  0  0  0  0
 24 22  1  0  0  0  0
 25 28  1  0  0  0  0
 25 27  1  0  0  0  0
 26 25  2  0  0  0  0
M  END
>  <MODEL>
3

>  <REMARK>
 VINA RESULT:      -8.9      3.294      7.851
  Name = 
  4 active torsions:
  status: ('A' for Active; 'I' for Inactive)
    1  A    between atoms: C_9  and  C_25
    2  A    between atoms: N_12  and  C_25
    3  A    between atoms: C_13  and  C_26
    4  A    between atoms: C_17  and  C_20
                            x       y       z     vdW  Elec       q    Type
                         _______ _______ _______ _____ _____    ______ ____

>  <TORSDO>
F 4

$$$$
=
 OpenBabel11052410523D

 28 32  0  0  1  0  0  0  0  0999 V2000
  161.0700  205.6360  152.1040 C   0  0  0  0  0  2  0  0  0  0  0  0
  160.5140  205.4180  150.7300 C   0  0  1  0  0  3  0  0  0  0  0  0
  161.3690  204.4460  148.8870 C   0  0  2  0  0  3  0  0  0  0  0  0
  160.9030  202.0190  149.2510 C   0  0  0  0  0  2  0  0  0  0  0  0
  161.2900  205.6280  149.6670 C   0  0  1  0  0  3  0  0  0  0  0  0
  161.5760  206.1590  147.3540 C   0  0  2  0  0  3  0  0  0  0  0  0
  161.5110  204.7040  147.5100 N   0  0  0  0  0  2  0  0  0  0  0  0
  160.8990  203.4080  151.7910 C   0  0  0  0  0  0  0  0  0  0  0  0
  161.4150  201.4220  150.5550 C   0  0  0  0  0  3  0  0  0  0  0  0
  161.2680  206.7970  148.7390 C   0  0  2  0  0  3  0  0  0  0  0  0
  160.0830  203.9850  150.7010 C   0  0  2  0  0  3  0  0  0  0  0  0
  161.4560  204.2980  152.5420 N   0  0  0  0  0  0  0  0  0  0  0  0
  161.4090  202.0700  151.6920 N   0  0  0  0  0  0  0  0  0  0  0  0
  160.6420  203.4840  149.4230 C   0  0  1  0  0  3  0  0  0  0  0  0
  162.1730  209.5740  150.7010 C   0  0  0  0  0  0  0  0  0  0  0  0
  162.1110  209.1650  148.3960 C   0  0  0  0  0  2  0  0  0  0  0  0
  161.8460  211.5870  149.1850 C   0  0  0  0  0  1  0  0  0  0  0  0
  162.3160  208.1090  150.6320 C   0  0  0  0  0  2  0  0  0  0  0  0
  162.3400  207.8220  149.1200 C   0  0  1  0  0  3  0  0  0  0  0  0
  162.1370  210.2270  151.7770 O   0  0  0  0  0  0  0  0  0  0  0  0
  162.0720  210.1730  149.4310 N   0  0  0  0  0  0  0  0  0  0  0  0
  160.3520  205.9530  145.1940 C   0  0  0  0  0  3  0  0  0  0  0  0
  160.5610  206.6010  146.3450 C   0  0  0  0  0  3  0  0  0  0  0  0
  161.1080  204.7230  144.7950 C   0  0  0  0  0  2  0  0  0  0  0  0
  160.3140  202.3550  145.0600 C   0  0  0  0  0  0  0  0  0  0  0  0
  161.3420  202.0840  145.9570 O   0  0  0  0  0  1  0  0  0  0  0  0
  160.1820  203.6490  144.4770 N   0  0  0  0  0  2  0  0  0  0  0  0
  159.4920  201.4500  144.7630 O   0  0  0  0  0  0  0  0  0  0  0  0
  1 12  1  0  0  0  0
  2  1  1  1  0  0  0
  3  7  1  6  0  0  0
  3 14  1  0  0  0  0
  3  5  1  0  0  0  0
  4 14  1  0  0  0  0
  4  9  1  0  0  0  0
  5  2  1  0  0  0  0
  6  7  1  0  0  0  0
  6 10  1  0  0  0  0
  8 12  2  0  0  0  0
  9 13  2  0  0  0  0
 10 19  1  0  0  0  0
 10  5  1  0  0  0  0
 11  2  1  0  0  0  0
 11  8  1  0  0  0  0
 13  8  1  0  0  0  0
 14 11  1  0  0  0  0
 15 20  2  0  0  0  0
 16 19  1  0  0  0  0
 16 21  1  0  0  0  0
 17 21  1  0  0  0  0
 18 15  1  0  0  0  0
 19 18  1  0  0  0  0
 21 15  1  0  0  0  0
 22 23  2  0  0  0  0
 23  6  1  0  0  0  0
 24 22  1  0  0  0  0
 25 26  1  0  0  0  0
 27 24  1  0  0  0  0
 27 25  1  0  0  0  0
 28 25  2  0  0  0  0
M  END
>  <MODEL>
4

>  <REMARK>
 VINA RESULT:      -8.8      3.026      6.044
  Name = 
  4 active torsions:
  status: ('A' for Active; 'I' for Inactive)
    1  A    between atoms: C_9  and  C_25
    2  A    between atoms: N_12  and  C_25
    3  A    between atoms: C_13  and  C_26
    4  A    between atoms: C_17  and  C_20
                            x       y       z     vdW  Elec       q    Type
                         _______ _______ _______ _____ _____    ______ ____

>  <TORSDO>
F 4

$$$$
=
 OpenBabel11052410523D

 28 32  0  0  1  0  0  0  0  0999 V2000
  161.3130  210.1960  152.7560 C   0  0  0  0  0  2  0  0  0  0  0  0
  160.6730  208.9070  153.1700 C   0  0  1  0  0  3  0  0  0  0  0  0
  161.4770  207.0840  154.2190 C   0  0  2  0  0  3  0  0  0  0  0  0
  161.3360  207.7060  156.6350 C   0  0  0  0  0  2  0  0  0  0  0  0
  161.3250  207.7590  152.9820 C   0  0  1  0  0  3  0  0  0  0  0  0
  161.3480  205.3920  152.6550 C   0  0  2  0  0  3  0  0  0  0  0  0
  161.4710  205.6820  154.0850 N   0  0  0  0  0  2  0  0  0  0  0  0
  161.3830  210.1000  155.0090 C   0  0  0  0  0  0  0  0  0  0  0  0
  162.0250  209.0020  157.0390 C   0  0  0  0  0  3  0  0  0  0  0  0
  161.0850  206.7380  151.9200 C   0  0  2  0  0  3  0  0  0  0  0  0
  160.4150  209.0470  154.6370 C   0  0  2  0  0  3  0  0  0  0  0  0
  161.8910  210.7120  153.9930 N   0  0  0  0  0  0  0  0  0  0  0  0
  162.0380  210.0720  156.2860 N   0  0  0  0  0  0  0  0  0  0  0  0
  160.9190  207.7700  155.1980 C   0  0  1  0  0  3  0  0  0  0  0  0
  161.8260  208.3650  148.8900 C   0  0  0  0  0  0  0  0  0  0  0  0
  161.5980  206.1190  149.5150 C   0  0  0  0  0  2  0  0  0  0  0  0
  161.1180  206.7340  147.0750 C   0  0  0  0  0  1  0  0  0  0  0  0
  162.1380  208.4000  150.3300 C   0  0  0  0  0  2  0  0  0  0  0  0
  162.0560  206.9220  150.7500 C   0  0  1  0  0  3  0  0  0  0  0  0
  161.8120  209.3830  148.1490 O   0  0  0  0  0  0  0  0  0  0  0  0
  161.5350  207.0680  148.4260 N   0  0  0  0  0  0  0  0  0  0  0  0
  160.3350  203.3000  151.7580 C   0  0  0  0  0  3  0  0  0  0  0  0
  160.2050  204.4500  152.4300 C   0  0  0  0  0  3  0  0  0  0  0  0
  161.6290  202.8380  151.1630 C   0  0  0  0  0  2  0  0  0  0  0  0
  161.1830  201.6720  148.9820 C   0  0  0  0  0  0  0  0  0  0  0  0
  161.1520  202.8890  148.3100 O   0  0  0  0  0  0  0  0  0  0  0  0
  161.4170  201.6260  150.3880 N   0  0  0  0  0  2  0  0  0  0  0  0
  161.0060  200.6020  148.3450 O   0  0  0  0  0  1  0  0  0  0  0  0
  1 12  1  0  0  0  0
  2  1  1  1  0  0  0
  2 11  1  0  0  0  0
  3  7  1  6  0  0  0
  3 14  1  0  0  0  0
  4  9  1  0  0  0  0
  5  2  1  0  0  0  0
  5  3  1  0  0  0  0
  6  7  1  0  0  0  0
  8 13  1  0  0  0  0
 10  6  1  0  0  0  0
 10  5  1  0  0  0  0
 11  8  1  0  0  0  0
 11 14  1  0  0  0  0
 12  8  2  0  0  0  0
 13  9  2  0  0  0  0
 14  4  1  0  0  0  0
 15 18  1  0  0  0  0
 16 19  1  0  0  0  0
 17 21  1  0  0  0  0
 18 19  1  0  0  0  0
 19 10  1  0  0  0  0
 20 15  2  0  0  0  0
 21 15  1  0  0  0  0
 21 16  1  0  0  0  0
 22 23  2  0  0  0  0
 23  6  1  0  0  0  0
 24 22  1  0  0  0  0
 25 27  1  0  0  0  0
 26 25  2  0  0  0  0
 27 24  1  0  0  0  0
 28 25  1  0  0  0  0
M  END
>  <MODEL>
5

>  <REMARK>
 VINA RESULT:      -7.7      3.050      7.381
  Name = 
  4 active torsions:
  status: ('A' for Active; 'I' for Inactive)
    1  A    between atoms: C_9  and  C_25
    2  A    between atoms: N_12  and  C_25
    3  A    between atoms: C_13  and  C_26
    4  A    between atoms: C_17  and  C_20
                            x       y       z     vdW  Elec       q    Type
                         _______ _______ _______ _____ _____    ______ ____

>  <TORSDO>
F 4

$$$$
=
 OpenBabel11052410523D

 28 32  0  0  1  0  0  0  0  0999 V2000
  160.4900  206.7000  155.3540 C   0  0  0  0  0  2  0  0  0  0  0  0
  161.2840  207.4460  154.3260 C   0  0  1  0  0  3  0  0  0  0  0  0
  160.6790  208.8370  152.6620 C   0  0  2  0  0  3  0  0  0  0  0  0
  160.4590  211.0440  153.8120 C   0  0  0  0  0  2  0  0  0  0  0  0
  160.8500  207.4890  153.0660 C   0  0  1  0  0  3  0  0  0  0  0  0
  161.2480  207.7250  150.7210 C   0  0  2  0  0  3  0  0  0  0  0  0
  160.9280  209.0360  151.2890 N   0  0  0  0  0  2  0  0  0  0  0  0
  160.1980  208.9030  155.7430 C   0  0  0  0  0  0  0  0  0  0  0  0
  159.5300  211.0860  155.0170 C   0  0  0  0  0  3  0  0  0  0  0  0
  161.3660  206.7140  151.8980 C   0  0  2  0  0  3  0  0  0  0  0  0
  161.3580  208.8530  154.8280 C   0  0  2  0  0  3  0  0  0  0  0  0
  159.7070  207.7410  156.0140 N   0  0  0  0  0  0  0  0  0  0  0  0
  159.4240  210.1050  155.8750 N   0  0  0  0  0  0  0  0  0  0  0  0
  161.0110  209.6630  153.6360 C   0  0  1  0  0  3  0  0  0  0  0  0
  161.2410  203.2480  151.3090 C   0  0  0  0  0  0  0  0  0  0  0  0
  160.4670  205.1240  150.1390 C   0  0  0  0  0  2  0  0  0  0  0  0
  161.0090  203.0160  148.7890 C   0  0  0  0  0  1  0  0  0  0  0  0
  161.0760  204.2470  152.3790 C   0  0  0  0  0  2  0  0  0  0  0  0
  160.5070  205.4720  151.6410 C   0  0  1  0  0  3  0  0  0  0  0  0
  161.6650  202.0780  151.4990 O   0  0  0  0  0  0  0  0  0  0  0  0
  160.8800  203.7420  150.0400 N   0  0  0  0  0  0  0  0  0  0  0  0
  162.7540  208.6590  148.9700 C   0  0  0  0  0  3  0  0  0  0  0  0
  162.5460  207.8030  149.9770 C   0  0  0  0  0  3  0  0  0  0  0  0
  161.7170  209.6230  148.4830 C   0  0  0  0  0  2  0  0  0  0  0  0
  161.5880  212.0760  147.9550 C   0  0  0  0  0  0  0  0  0  0  0  0
  160.5410  211.8560  147.0680 O   0  0  0  0  0  0  0  0  0  0  0  0
  162.1810  210.9890  148.6630 N   0  0  0  0  0  2  0  0  0  0  0  0
  162.0150  213.2450  148.1380 O   0  0  0  0  0  1  0  0  0  0  0  0
  1 12  1  0  0  0  0
  2 11  1  0  0  0  0
  2  1  1  1  0  0  0
  3  7  1  6  0  0  0
  3  5  1  0  0  0  0
  3 14  1  0  0  0  0
  4  9  1  0  0  0  0
  5  2  1  0  0  0  0
  6  7  1  0  0  0  0
  6 10  1  0  0  0  0
  8 13  1  0  0  0  0
  8 12  2  0  0  0  0
  9 13  2  0  0  0  0
 10  5  1  0  0  0  0
 11  8  1  0  0  0  0
 14  4  1  0  0  0  0
 14 11  1  0  0  0  0
 15 20  2  0  0  0  0
 15 18  1  0  0  0  0
 16 19  1  0  0  0  0
 17 21  1  0  0  0  0
 19 10  1  0  0  0  0
 19 18  1  0  0  0  0
 21 16  1  0  0  0  0
 21 15  1  0  0  0  0
 22 23  2  0  0  0  0
 23  6  1  0  0  0  0
 24 27  1  0  0  0  0
 24 22  1  0  0  0  0
 25 28  1  0  0  0  0
 25 27  1  0  0  0  0
 26 25  2  0  0  0  0
M  END
>  <MODEL>
6

>  <REMARK>
 VINA RESULT:      -7.5      3.038      8.042
  Name = 
  4 active torsions:
  status: ('A' for Active; 'I' for Inactive)
    1  A    between atoms: C_9  and  C_25
    2  A    between atoms: N_12  and  C_25
    3  A    between atoms: C_13  and  C_26
    4  A    between atoms: C_17  and  C_20
                            x       y       z     vdW  Elec       q    Type
                         _______ _______ _______ _____ _____    ______ ____

>  <TORSDO>
F 4

$$$$
=
 OpenBabel11052410523D

 28 32  0  0  1  0  0  0  0  0999 V2000
  160.5960  204.6980  150.7450 C   0  0  0  0  0  2  0  0  0  0  0  0
  160.4600  206.0030  150.0220 C   0  0  1  0  0  3  0  0  0  0  0  0
  161.9530  207.3030  148.9490 C   0  0  2  0  0  3  0  0  0  0  0  0
  162.0740  206.2780  146.6740 C   0  0  0  0  0  2  0  0  0  0  0  0
  161.3820  206.9500  150.1980 C   0  0  1  0  0  3  0  0  0  0  0  0
  162.0570  209.2430  150.1950 C   0  0  2  0  0  3  0  0  0  0  0  0
  162.3450  208.6550  148.8850 N   0  0  0  0  0  2  0  0  0  0  0  0
  161.1010  204.3260  148.5770 C   0  0  0  0  0  0  0  0  0  0  0  0
  162.4020  204.7920  146.6210 C   0  0  0  0  0  3  0  0  0  0  0  0
  161.2710  208.1880  151.0260 C   0  0  2  0  0  3  0  0  0  0  0  0
  160.4440  205.6500  148.5680 C   0  0  2  0  0  3  0  0  0  0  0  0
  161.2080  203.8140  149.7570 N   0  0  0  0  0  0  0  0  0  0  0  0
  161.9550  203.9270  147.4950 N   0  0  0  0  0  0  0  0  0  0  0  0
  161.4020  206.6110  147.9710 C   0  0  1  0  0  3  0  0  0  0  0  0
  160.8240  207.5490  154.4570 C   0  0  0  0  0  0  0  0  0  0  0  0
  161.8380  209.2770  153.2440 C   0  0  0  0  0  2  0  0  0  0  0  0
  160.9170  209.8320  155.5700 C   0  0  0  0  0  1  0  0  0  0  0  0
  161.1860  206.8840  153.1920 C   0  0  0  0  0  2  0  0  0  0  0  0
  161.9110  207.9870  152.4020 C   0  0  1  0  0  3  0  0  0  0  0  0
  160.2270  206.9760  155.4060 O   0  0  0  0  0  0  0  0  0  0  0  0
  161.2080  208.9040  154.4900 N   0  0  0  0  0  0  0  0  0  0  0  0
  161.5810  211.4770  149.1990 C   0  0  0  0  0  3  0  0  0  0  0  0
  161.2300  210.4800  150.0190 C   0  0  0  0  0  3  0  0  0  0  0  0
  162.8320  211.4620  148.3770 C   0  0  0  0  0  2  0  0  0  0  0  0
  162.3250  213.3010  146.7420 C   0  0  0  0  0  0  0  0  0  0  0  0
  161.3090  212.5440  146.1680 O   0  0  0  0  0  0  0  0  0  0  0  0
  163.0870  212.7850  147.8320 N   0  0  0  0  0  2  0  0  0  0  0  0
  162.5720  214.4510  146.2980 O   0  0  0  0  0  1  0  0  0  0  0  0
  2  5  1  0  0  0  0
  2  1  1  1  0  0  0
  3  7  1  6  0  0  0
  3  5  1  0  0  0  0
  4 14  1  0  0  0  0
  5 10  1  0  0  0  0
  6 10  1  0  0  0  0
  7  6  1  0  0  0  0
  8 12  2  0  0  0  0
  9  4  1  0  0  0  0
  9 13  2  0  0  0  0
 10 19  1  0  0  0  0
 11  8  1  0  0  0  0
 11  2  1  0  0  0  0
 12  1  1  0  0  0  0
 13  8  1  0  0  0  0
 14 11  1  0  0  0  0
 14  3  1  0  0  0  0
 15 21  1  0  0  0  0
 15 20  2  0  0  0  0
 16 21  1  0  0  0  0
 18 15  1  0  0  0  0
 19 18  1  0  0  0  0
 19 16  1  0  0  0  0
 21 17  1  0  0  0  0
 22 23  2  0  0  0  0
 23  6  1  0  0  0  0
 24 22  1  0  0  0  0
 25 27  1  0  0  0  0
 26 25  2  0  0  0  0
 27 24  1  0  0  0  0
 28 25  1  0  0  0  0
M  END
>  <MODEL>
7

>  <REMARK>
 VINA RESULT:      -7.5      2.111      5.906
  Name = 
  4 active torsions:
  status: ('A' for Active; 'I' for Inactive)
    1  A    between atoms: C_9  and  C_25
    2  A    between atoms: N_12  and  C_25
    3  A    between atoms: C_13  and  C_26
    4  A    between atoms: C_17  and  C_20
                            x       y       z     vdW  Elec       q    Type
                         _______ _______ _______ _____ _____    ______ ____

>  <TORSDO>
F 4

$$$$
=
 OpenBabel11052410523D

 28 32  0  0  1  0  0  0  0  0999 V2000
  161.4850  204.1940  151.7140 C   0  0  0  0  0  2  0  0  0  0  0  0
  162.0890  205.5230  151.3800 C   0  0  1  0  0  3  0  0  0  0  0  0
  161.2070  207.5890  151.2170 C   0  0  2  0  0  3  0  0  0  0  0  0
  161.2060  208.4000  153.5800 C   0  0  0  0  0  2  0  0  0  0  0  0
  161.4400  206.3530  150.5630 C   0  0  1  0  0  3  0  0  0  0  0  0
  161.4180  208.1510  148.9880 C   0  0  2  0  0  3  0  0  0  0  0  0
  161.2110  208.6870  150.3340 N   0  0  0  0  0  2  0  0  0  0  0  0
  161.2780  205.5060  153.5370 C   0  0  0  0  0  0  0  0  0  0  0  0
  160.5050  207.5110  154.5970 C   0  0  0  0  0  3  0  0  0  0  0  0
  161.7370  206.6340  149.1270 C   0  0  2  0  0  3  0  0  0  0  0  0
  162.2580  206.2210  152.6930 C   0  0  2  0  0  3  0  0  0  0  0  0
  160.8370  204.4180  153.0030 N   0  0  0  0  0  0  0  0  0  0  0  0
  160.5460  206.2030  154.5560 N   0  0  0  0  0  0  0  0  0  0  0  0
  161.7110  207.5750  152.4360 C   0  0  1  0  0  3  0  0  0  0  0  0
  161.5060  204.2160  146.5810 C   0  0  0  0  0  0  0  0  0  0  0  0
  160.7530  206.4230  146.7990 C   0  0  0  0  0  2  0  0  0  0  0  0
  161.2050  205.5450  144.4360 C   0  0  0  0  0  1  0  0  0  0  0  0
  161.3940  204.3740  148.0420 C   0  0  0  0  0  2  0  0  0  0  0  0
  160.8400  205.8000  148.2070 C   0  0  1  0  0  3  0  0  0  0  0  0
  161.9040  203.1640  146.0160 O   0  0  0  0  0  0  0  0  0  0  0  0
  161.1270  205.3750  145.8760 N   0  0  0  0  0  0  0  0  0  0  0  0
  162.6460  210.1940  148.2640 C   0  0  0  0  0  3  0  0  0  0  0  0
  162.5640  208.8600  148.3350 C   0  0  0  0  0  3  0  0  0  0  0  0
  161.6040  211.1120  148.8250 C   0  0  0  0  0  2  0  0  0  0  0  0
  161.0890  212.9160  147.1540 C   0  0  0  0  0  0  0  0  0  0  0  0
  160.1950  212.0820  146.4920 O   0  0  0  0  0  0  0  0  0  0  0  0
  161.7930  212.4570  148.3060 N   0  0  0  0  0  2  0  0  0  0  0  0
  161.2760  214.0870  146.7350 O   0  0  0  0  0  1  0  0  0  0  0  0
  1 12  1  0  0  0  0
  2  1  1  1  0  0  0
  2 11  1  0  0  0  0
  3  7  1  6  0  0  0
  3 14  1  0  0  0  0
  4  9  1  0  0  0  0
  5  3  1  0  0  0  0
  5  2  1  0  0  0  0
  6 10  1  0  0  0  0
  6  7  1  0  0  0  0
  8 13  1  0  0  0  0
 10  5  1  0  0  0  0
 11  8  1  0  0  0  0
 12  8  2  0  0  0  0
 13  9  2  0  0  0  0
 14 11  1  0  0  0  0
 14  4  1  0  0  0  0
 15 18  1  0  0  0  0
 16 19  1  0  0  0  0
 17 21  1  0  0  0  0
 18 19  1  0  0  0  0
 19 10  1  0  0  0  0
 20 15  2  0  0  0  0
 21 15  1  0  0  0  0
 21 16  1  0  0  0  0
 22 23  2  0  0  0  0
 22 24  1  0  0  0  0
 23  6  1  0  0  0  0
 25 27  1  0  0  0  0
 26 25  2  0  0  0  0
 27 24  1  0  0  0  0
 28 25  1  0  0  0  0
M  END
>  <MODEL>
8

>  <REMARK>
 VINA RESULT:      -7.2      3.232      6.984
  Name = 
  4 active torsions:
  status: ('A' for Active; 'I' for Inactive)
    1  A    between atoms: C_9  and  C_25
    2  A    between atoms: N_12  and  C_25
    3  A    between atoms: C_13  and  C_26
    4  A    between atoms: C_17  and  C_20
                            x       y       z     vdW  Elec       q    Type
                         _______ _______ _______ _____ _____    ______ ____

>  <TORSDO>
F 4

$$$$
=
 OpenBabel11052410523D

 28 32  0  0  1  0  0  0  0  0999 V2000
  161.3810  208.2380  149.6090 C   0  0  0  0  0  2  0  0  0  0  0  0
  161.8490  208.3250  151.0290 C   0  0  1  0  0  3  0  0  0  0  0  0
  160.9070  207.6960  152.9760 C   0  0  2  0  0  3  0  0  0  0  0  0
  161.4900  205.2710  153.1360 C   0  0  0  0  0  2  0  0  0  0  0  0
  160.9940  208.7020  151.9810 C   0  0  1  0  0  3  0  0  0  0  0  0
  160.5290  209.6650  154.1180 C   0  0  2  0  0  3  0  0  0  0  0  0
  160.6600  208.2140  154.2620 N   0  0  0  0  0  2  0  0  0  0  0  0
  161.6150  206.1290  150.3740 C   0  0  0  0  0  0  0  0  0  0  0  0
  161.0910  204.4030  151.9510 C   0  0  0  0  0  3  0  0  0  0  0  0
  160.9080  210.0320  152.6540 C   0  0  2  0  0  3  0  0  0  0  0  0
  162.3310  206.9510  151.3720 C   0  0  2  0  0  3  0  0  0  0  0  0
  161.0780  206.8220  149.4270 N   0  0  0  0  0  0  0  0  0  0  0  0
  161.1510  204.8120  150.7090 N   0  0  0  0  0  0  0  0  0  0  0  0
  161.7050  206.6850  152.6890 C   0  0  1  0  0  3  0  0  0  0  0  0
  159.8480  213.2500  151.7040 C   0  0  0  0  0  0  0  0  0  0  0  0
  158.9480  211.5830  153.0820 C   0  0  0  0  0  2  0  0  0  0  0  0
  158.3040  214.0130  153.5730 C   0  0  0  0  0  1  0  0  0  0  0  0
  160.4530  212.0220  151.1590 C   0  0  0  0  0  2  0  0  0  0  0  0
  159.8250  210.9040  152.0110 C   0  0  1  0  0  3  0  0  0  0  0  0
  160.0810  214.4050  151.2610 O   0  0  0  0  0  0  0  0  0  0  0  0
  158.9820  212.9980  152.7870 N   0  0  0  0  0  0  0  0  0  0  0  0
  161.0820  210.7200  156.3070 C   0  0  0  0  0  3  0  0  0  0  0  0
  161.4550  210.3510  155.0760 C   0  0  0  0  0  3  0  0  0  0  0  0
  159.7060  210.4880  156.8520 C   0  0  0  0  0  2  0  0  0  0  0  0
  157.7360  212.0320  156.6370 C   0  0  0  0  0  0  0  0  0  0  0  0
  157.0360  211.0780  155.9060 O   0  0  0  0  0  0  0  0  0  0  0  0
  159.0520  211.7610  157.1120 N   0  0  0  0  0  2  0  0  0  0  0  0
  157.2010  213.1440  156.8840 O   0  0  0  0  0  1  0  0  0  0  0  0
  2  1  1  6  0  0  0
  2 11  1  0  0  0  0
  2  5  1  0  0  0  0
  3  7  1  1  0  0  0
  5 10  1  0  0  0  0
  5  3  1  0  0  0  0
  6  7  1  0  0  0  0
  6 23  1  0  0  0  0
  8 13  1  0  0  0  0
  8 11  1  0  0  0  0
  9  4  1  0  0  0  0
 10  6  1  0  0  0  0
 11 14  1  0  0  0  0
 12  1  1  0  0  0  0
 12  8  2  0  0  0  0
 13  9  2  0  0  0  0
 14  3  1  0  0  0  0
 14  4  1  0  0  0  0
 15 21  1  0  0  0  0
 18 15  1  0  0  0  0
 18 19  1  0  0  0  0
 19 10  1  0  0  0  0
 19 16  1  0  0  0  0
 20 15  2  0  0  0  0
 21 16  1  0  0  0  0
 21 17  1  0  0  0  0
 22 24  1  0  0  0  0
 23 22  2  0  0  0  0
 24 27  1  0  0  0  0
 25 28  1  0  0  0  0
 25 27  1  0  0  0  0
 26 25  2  0  0  0  0
M  END
>  <MODEL>
9

>  <REMARK>
 VINA RESULT:      -7.1      3.472      5.545
  Name = 
  4 active torsions:
  status: ('A' for Active; 'I' for Inactive)
    1  A    between atoms: C_9  and  C_25
    2  A    between atoms: N_12  and  C_25
    3  A    between atoms: C_13  and  C_26
    4  A    between atoms: C_17  and  C_20
                            x       y       z     vdW  Elec       q    Type
                         _______ _______ _______ _____ _____    ______ ____

>  <TORSDO>
F 4

$$$$
