=
 OpenBabel11052409413D

 38 45  0  0  1  0  0  0  0  0999 V2000
  161.4380  203.9590  149.5560 C   0  0  1  0  0  3  0  0  0  0  0  0
  161.0090  205.3960  153.4630 N   0  0  0  0  0  0  0  0  0  0  0  0
  162.0720  204.3910  147.2300 C   0  0  1  0  0  3  0  0  0  0  0  0
  161.6630  208.2090  150.3880 C   0  0  0  0  0  0  0  0  0  0  0  0
  161.2670  207.7280  152.8760 C   0  0  0  0  0  0  0  0  0  0  0  0
  160.4940  203.0440  150.3050 C   0  0  0  0  0  2  0  0  0  0  0  0
  161.3090  209.0510  153.4030 C   0  0  0  0  0  0  0  0  0  0  0  0
  160.9550  208.2340  155.6360 N   0  0  0  0  0  0  0  0  0  0  0  0
  161.0400  203.7290  148.1260 C   0  0  1  0  0  3  0  0  0  0  0  0
  161.7390  209.6110  150.3740 C   0  0  0  0  0  0  0  0  0  0  0  0
  161.7690  206.3390  148.8720 C   0  0  0  0  0  0  0  0  0  0  0  0
  161.8360  207.6530  149.1550 N   0  0  0  0  0  0  0  0  0  0  0  0
  160.9230  202.2260  148.0370 C   0  0  0  0  0  2  0  0  0  0  0  0
  161.8040  204.0760  145.7700 C   0  0  0  0  0  1  0  0  0  0  0  0
  161.1500  209.2570  154.7790 C   0  0  0  0  0  3  0  0  0  0  0  0
  160.9080  206.9630  155.1900 C   0  0  0  0  0  3  0  0  0  0  0  0
  161.4870  210.1950  152.7210 N   0  0  0  0  0  2  0  0  0  0  0  0
  161.1350  205.0370  152.1980 N   0  0  0  0  0  0  0  0  0  0  0  0
  161.9690  205.9100  147.4330 C   0  0  0  0  0  2  0  0  0  0  0  0
  161.3240  205.9340  151.2040 C   0  0  0  0  0  0  0  0  0  0  0  0
  161.4380  205.4410  149.8900 C   0  0  0  0  0  0  0  0  0  0  0  0
  161.0610  206.6870  153.8360 C   0  0  0  0  0  0  0  0  0  0  0  0
  161.6660  210.4350  151.4360 N   0  0  0  0  0  0  0  0  0  0  0  0
  160.3560  201.8240  149.3970 C   0  0  0  0  0  2  0  0  0  0  0  0
  161.4170  207.3390  151.5010 C   0  0  0  0  0  0  0  0  0  0  0  0
  161.9640  210.2410  149.1000 N   0  0  0  0  0  0  0  0  0  0  0  0
  161.8980  211.6290  148.8850 N   0  0  0  0  0  0  0  0  0  0  0  0
  161.2230  214.1010  143.8700 C   0  0  1  0  0  3  0  0  0  0  0  0
  161.8080  212.2290  147.5880 C   0  0  0  0  0  0  0  0  0  0  0  0
  162.8110  213.0000  146.9860 C   0  0  0  0  0  3  0  0  0  0  0  0
  160.3470  213.2650  144.6500 O   0  0  0  0  0  0  0  0  0  0  0  0
  162.2520  213.3880  145.8370 N   0  0  0  0  0  0  0  0  0  0  0  0
  161.0420  212.9140  145.7810 C   0  0  0  0  0  0  0  0  0  0  0  0
  160.6720  212.1770  146.8380 N   0  0  0  0  0  0  0  0  0  0  0  0
  162.5580  214.1880  144.6760 C   0  0  0  0  0  2  0  0  0  0  0  0
  162.1190  212.2610  142.4300 O   0  0  0  0  0  1  0  0  0  0  0  0
  161.4670  213.4840  142.5320 C   0  0  0  0  0  0  0  0  0  0  0  0
  161.0980  214.0860  141.4900 O   0  0  0  0  0  0  0  0  0  0  0  0
  1 21  1  0  0  0  0
  1  6  1  1  0  0  0
  2 22  1  0  0  0  0
  3 14  1  6  0  0  0
  3 19  1  0  0  0  0
  3  9  1  0  0  0  0
  4 25  1  0  0  0  0
  5  7  2  0  0  0  0
  5 22  1  0  0  0  0
  7 15  1  0  0  0  0
  9 13  1  6  0  0  0
  9  1  1  0  0  0  0
 10  4  1  0  0  0  0
 10 23  2  0  0  0  0
 11 12  1  0  0  0  0
 11 21  2  0  0  0  0
 12  4  2  0  0  0  0
 13 24  1  0  0  0  0
 15  8  2  0  0  0  0
 16  8  1  0  0  0  0
 17  7  1  0  0  0  0
 18  2  2  0  0  0  0
 19 11  1  0  0  0  0
 20 25  2  0  0  0  0
 20 18  1  0  0  0  0
 21 20  1  0  0  0  0
 22 16  2  0  0  0  0
 23 17  1  0  0  0  0
 24  6  1  0  0  0  0
 25  5  1  0  0  0  0
 26 10  1  0  0  0  0
 27 26  2  0  0  0  0
 28 37  1  6  0  0  0
 28 31  1  0  0  0  0
 28 35  1  0  0  0  0
 29 27  1  0  0  0  0
 30 29  2  0  0  0  0
 31 33  1  0  0  0  0
 32 30  1  0  0  0  0
 33 32  1  0  0  0  0
 33 34  2  0  0  0  0
 34 29  1  0  0  0  0
 35 32  1  0  0  0  0
 36 37  1  0  0  0  0
 38 37  2  0  0  0  0
M  END
>  <MODEL>
1

>  <REMARK>
 VINA RESULT:     -11.7      0.000      0.000
  Name = 
  4 active torsions:
  status: ('A' for Active; 'I' for Inactive)
    1  A    between atoms: C_4  and  C_20
    2  A    between atoms: N_11  and  C_12
    3  A    between atoms: N_11  and  N_28
    4  A    between atoms: C_14  and  N_28
                            x       y       z     vdW  Elec       q    Type
                         _______ _______ _______ _____ _____    ______ ____

>  <TORSDO>
F 4

$$$$
=
 OpenBabel11052409413D

 38 45  0  0  1  0  0  0  0  0999 V2000
  161.5260  204.1710  149.2660 C   0  0  1  0  0  3  0  0  0  0  0  0
  160.9270  205.5510  153.1720 N   0  0  0  0  0  0  0  0  0  0  0  0
  162.3100  204.6210  146.9900 C   0  0  1  0  0  3  0  0  0  0  0  0
  161.8690  208.3920  150.1990 C   0  0  0  0  0  0  0  0  0  0  0  0
  161.3110  207.8800  152.6500 C   0  0  0  0  0  0  0  0  0  0  0  0
  160.5040  203.2810  149.9400 C   0  0  0  0  0  2  0  0  0  0  0  0
  161.3740  209.1910  153.2060 C   0  0  0  0  0  0  0  0  0  0  0  0
  160.8580  208.3470  155.3970 N   0  0  0  0  0  0  0  0  0  0  0  0
  161.2030  203.9840  147.8110 C   0  0  1  0  0  3  0  0  0  0  0  0
  162.0020  209.7900  150.2200 C   0  0  0  0  0  0  0  0  0  0  0  0
  161.9900  206.5490  148.6530 C   0  0  0  0  0  0  0  0  0  0  0  0
  162.0920  207.8530  148.9670 N   0  0  0  0  0  0  0  0  0  0  0  0
  161.0310  202.4890  147.6840 C   0  0  0  0  0  2  0  0  0  0  0  0
  162.1160  204.3450  145.5100 C   0  0  0  0  0  1  0  0  0  0  0  0
  161.1430  209.3780  154.5740 C   0  0  0  0  0  3  0  0  0  0  0  0
  160.7880  207.0880  154.9230 C   0  0  0  0  0  3  0  0  0  0  0  0
  161.6360  210.3390  152.5590 N   0  0  0  0  0  2  0  0  0  0  0  0
  161.1120  205.2110  151.9090 N   0  0  0  0  0  0  0  0  0  0  0  0
  162.2560  206.1380  147.2190 C   0  0  0  0  0  2  0  0  0  0  0  0
  161.3940  206.1180  150.9460 C   0  0  0  0  0  0  0  0  0  0  0  0
  161.5650  205.6450  149.6300 C   0  0  0  0  0  0  0  0  0  0  0  0
  161.0080  206.8310  153.5740 C   0  0  0  0  0  0  0  0  0  0  0  0
  161.9000  210.5950  151.2920 N   0  0  0  0  0  0  0  0  0  0  0  0
  160.3710  202.0850  149.0000 C   0  0  0  0  0  2  0  0  0  0  0  0
  161.5250  207.5120  151.2770 C   0  0  0  0  0  0  0  0  0  0  0  0
  162.3250  210.4340  148.9740 N   0  0  0  0  0  2  0  0  0  0  0  0
  162.1930  211.8150  148.7440 N   0  0  0  0  0  2  0  0  0  0  0  0
  157.9200  214.3660  146.1080 C   0  0  1  0  0  3  0  0  0  0  0  0
  161.1090  212.3980  148.0130 C   0  0  0  0  0  0  0  0  0  0  0  0
  161.0800  212.5790  146.6240 C   0  0  0  0  0  3  0  0  0  0  0  0
  158.1430  214.0630  147.4980 O   0  0  0  0  0  0  0  0  0  0  0  0
  159.9200  213.2090  146.4210 N   0  0  0  0  0  0  0  0  0  0  0  0
  159.3410  213.3980  147.5690 C   0  0  0  0  0  0  0  0  0  0  0  0
  160.0150  212.9270  148.6290 N   0  0  0  0  0  0  0  0  0  0  0  0
  159.1420  213.7690  145.3410 C   0  0  0  0  0  2  0  0  0  0  0  0
  155.7370  214.4530  144.8870 O   0  0  0  0  0  0  0  0  0  0  0  0
  156.6550  213.7280  145.6380 C   0  0  0  0  0  0  0  0  0  0  0  0
  156.4080  212.5310  145.9420 O   0  0  0  0  0  1  0  0  0  0  0  0
  1 21  1  0  0  0  0
  1  6  1  1  0  0  0
  2 22  1  0  0  0  0
  3 14  1  6  0  0  0
  3 19  1  0  0  0  0
  3  9  1  0  0  0  0
  4 10  1  0  0  0  0
  4 25  1  0  0  0  0
  5  7  2  0  0  0  0
  5 22  1  0  0  0  0
  7 15  1  0  0  0  0
  9 13  1  1  0  0  0
  9  1  1  0  0  0  0
 10 23  2  0  0  0  0
 11 12  1  0  0  0  0
 11 21  2  0  0  0  0
 12  4  2  0  0  0  0
 13 24  1  0  0  0  0
 15  8  2  0  0  0  0
 16  8  1  0  0  0  0
 17  7  1  0  0  0  0
 18  2  2  0  0  0  0
 19 11  1  0  0  0  0
 20 25  2  0  0  0  0
 20 18  1  0  0  0  0
 21 20  1  0  0  0  0
 22 16  2  0  0  0  0
 23 17  1  0  0  0  0
 24  6  1  0  0  0  0
 25  5  1  0  0  0  0
 26 10  1  0  0  0  0
 27 26  1  0  0  0  0
 28 37  1  6  0  0  0
 28 31  1  0  0  0  0
 29 34  1  0  0  0  0
 29 27  1  0  0  0  0
 30 29  2  0  0  0  0
 31 33  1  0  0  0  0
 32 30  1  0  0  0  0
 32 33  1  0  0  0  0
 33 34  2  0  0  0  0
 35 28  1  0  0  0  0
 35 32  1  0  0  0  0
 36 37  2  0  0  0  0
 37 38  1  0  0  0  0
M  END
>  <MODEL>
2

>  <REMARK>
 VINA RESULT:     -10.7      1.942      2.262
  Name = 
  4 active torsions:
  status: ('A' for Active; 'I' for Inactive)
    1  A    between atoms: C_4  and  C_20
    2  A    between atoms: N_11  and  C_12
    3  A    between atoms: N_11  and  N_28
    4  A    between atoms: C_14  and  N_28
                            x       y       z     vdW  Elec       q    Type
                         _______ _______ _______ _____ _____    ______ ____

>  <TORSDO>
F 4

$$$$
=
 OpenBabel11052409413D

 38 45  0  0  1  0  0  0  0  0999 V2000
  160.4560  208.2160  154.9510 C   0  0  1  0  0  3  0  0  0  0  0  0
  160.6240  205.0500  152.2200 N   0  0  0  0  0  0  0  0  0  0  0  0
  160.4760  210.6330  155.3510 C   0  0  1  0  0  3  0  0  0  0  0  0
  161.6260  208.9060  150.8330 C   0  0  0  0  0  0  0  0  0  0  0  0
  161.3400  206.4030  150.3490 C   0  0  0  0  0  0  0  0  0  0  0  0
  160.8460  206.9580  155.6960 C   0  0  0  0  0  2  0  0  0  0  0  0
  161.6790  206.3700  148.9650 C   0  0  0  0  0  0  0  0  0  0  0  0
  161.2830  204.0000  148.8670 N   0  0  0  0  0  0  0  0  0  0  0  0
  161.0090  209.2970  155.8370 C   0  0  1  0  0  3  0  0  0  0  0  0
  162.0650  209.3920  149.5910 C   0  0  0  0  0  0  0  0  0  0  0  0
  161.1430  209.6950  153.0570 C   0  0  0  0  0  0  0  0  0  0  0  0
  161.5020  209.8840  151.7740 N   0  0  0  0  0  0  0  0  0  0  0  0
  160.5910  208.8570  157.2200 C   0  0  0  0  0  2  0  0  0  0  0  0
  160.8850  211.7540  156.2890 C   0  0  0  0  0  1  0  0  0  0  0  0
  161.6380  205.1560  148.2680 C   0  0  0  0  0  3  0  0  0  0  0  0
  160.9520  203.9770  150.1730 C   0  0  0  0  0  3  0  0  0  0  0  0
  162.0600  207.4020  148.1940 N   0  0  0  0  0  2  0  0  0  0  0  0
  160.6190  206.1050  153.0140 N   0  0  0  0  0  0  0  0  0  0  0  0
  161.0790  210.9060  153.9650 C   0  0  0  0  0  2  0  0  0  0  0  0
  160.9590  207.3410  152.5830 C   0  0  0  0  0  0  0  0  0  0  0  0
  160.9280  208.3930  153.5180 C   0  0  0  0  0  0  0  0  0  0  0  0
  160.9710  205.1470  150.9250 C   0  0  0  0  0  0  0  0  0  0  0  0
  162.2270  208.6840  148.4580 N   0  0  0  0  0  0  0  0  0  0  0  0
  160.7040  207.3360  157.1690 C   0  0  0  0  0  2  0  0  0  0  0  0
  161.3250  207.5550  151.2070 C   0  0  0  0  0  0  0  0  0  0  0  0
  162.3290  210.8030  149.4970 N   0  0  0  0  0  2  0  0  0  0  0  0
  161.4200  211.7430  148.9800 N   0  0  0  0  0  2  0  0  0  0  0  0
  161.4690  214.0620  143.8490 C   0  0  1  0  0  3  0  0  0  0  0  0
  161.5140  212.2990  147.6650 C   0  0  0  0  0  0  0  0  0  0  0  0
  162.6180  213.0040  147.1660 C   0  0  0  0  0  3  0  0  0  0  0  0
  160.4670  213.2940  144.5420 O   0  0  0  0  0  0  0  0  0  0  0  0
  162.2200  213.3750  145.9460 N   0  0  0  0  0  0  0  0  0  0  0  0
  161.0040  212.9530  145.7580 C   0  0  0  0  0  0  0  0  0  0  0  0
  160.4750  212.2710  146.7850 N   0  0  0  0  0  0  0  0  0  0  0  0
  162.7010  214.1190  144.8070 C   0  0  0  0  0  2  0  0  0  0  0  0
  161.5760  213.9990  141.3500 O   0  0  0  0  0  0  0  0  0  0  0  0
  161.8410  213.3880  142.5700 C   0  0  0  0  0  0  0  0  0  0  0  0
  162.3800  212.2510  142.5970 O   0  0  0  0  0  1  0  0  0  0  0  0
  1  6  1  1  0  0  0
  1  9  1  0  0  0  0
  2 18  1  0  0  0  0
  3  9  1  0  0  0  0
  3 14  1  1  0  0  0
  4 25  1  0  0  0  0
  4 12  2  0  0  0  0
  5 22  1  0  0  0  0
  5 25  2  0  0  0  0
  6 24  1  0  0  0  0
  7  5  1  0  0  0  0
  8 16  2  0  0  0  0
  9 13  1  1  0  0  0
 10  4  1  0  0  0  0
 11 21  2  0  0  0  0
 11 19  1  0  0  0  0
 12 11  1  0  0  0  0
 15  8  1  0  0  0  0
 15  7  2  0  0  0  0
 16 22  1  0  0  0  0
 17 23  1  0  0  0  0
 17  7  1  0  0  0  0
 19  3  1  0  0  0  0
 20 18  2  0  0  0  0
 20 21  1  0  0  0  0
 21  1  1  0  0  0  0
 22  2  2  0  0  0  0
 23 10  2  0  0  0  0
 24 13  1  0  0  0  0
 25 20  1  0  0  0  0
 26 10  1  0  0  0  0
 27 26  1  0  0  0  0
 28 37  1  6  0  0  0
 28 31  1  0  0  0  0
 28 35  1  0  0  0  0
 29 27  1  0  0  0  0
 30 29  2  0  0  0  0
 31 33  1  0  0  0  0
 32 30  1  0  0  0  0
 33 32  1  0  0  0  0
 33 34  2  0  0  0  0
 34 29  1  0  0  0  0
 35 32  1  0  0  0  0
 36 37  2  0  0  0  0
 37 38  1  0  0  0  0
M  END
>  <MODEL>
3

>  <REMARK>
 VINA RESULT:      -9.6      1.184      5.326
  Name = 
  4 active torsions:
  status: ('A' for Active; 'I' for Inactive)
    1  A    between atoms: C_4  and  C_20
    2  A    between atoms: N_11  and  C_12
    3  A    between atoms: N_11  and  N_28
    4  A    between atoms: C_14  and  N_28
                            x       y       z     vdW  Elec       q    Type
                         _______ _______ _______ _____ _____    ______ ____

>  <TORSDO>
F 4

$$$$
=
 OpenBabel11052409413D

 38 45  0  0  1  0  0  0  0  0999 V2000
  160.8920  204.1490  148.0900 C   0  0  1  0  0  3  0  0  0  0  0  0
  161.5860  208.2490  147.6230 N   0  0  0  0  0  0  0  0  0  0  0  0
  160.3170  202.2830  149.5700 C   0  0  1  0  0  3  0  0  0  0  0  0
  161.3740  206.7200  151.5480 C   0  0  0  0  0  0  0  0  0  0  0  0
  161.7080  208.7290  149.9890 C   0  0  0  0  0  0  0  0  0  0  0  0
  161.6800  204.3620  146.8160 C   0  0  0  0  0  2  0  0  0  0  0  0
  161.8880  209.7690  150.9470 C   0  0  0  0  0  0  0  0  0  0  0  0
  162.1230  211.4090  149.2040 N   0  0  0  0  0  0  0  0  0  0  0  0
  161.2340  202.7290  148.4450 C   0  0  1  0  0  3  0  0  0  0  0  0
  161.5280  207.3080  152.8140 C   0  0  0  0  0  0  0  0  0  0  0  0
  160.9490  204.5680  150.5530 C   0  0  0  0  0  0  0  0  0  0  0  0
  161.1000  205.3860  151.6110 N   0  0  0  0  0  0  0  0  0  0  0  0
  161.1030  202.0030  147.1280 C   0  0  0  0  0  2  0  0  0  0  0  0
  160.5170  200.8110  149.8810 C   0  0  0  0  0  1  0  0  0  0  0  0
  162.0910  211.0850  150.5140 C   0  0  0  0  0  3  0  0  0  0  0  0
  161.9570  210.4640  148.2580 C   0  0  0  0  0  3  0  0  0  0  0  0
  161.8940  209.6530  152.2850 N   0  0  0  0  0  2  0  0  0  0  0  0
  161.3910  206.9660  147.8670 N   0  0  0  0  0  0  0  0  0  0  0  0
  160.6680  203.1030  150.8200 C   0  0  0  0  0  2  0  0  0  0  0  0
  161.3420  206.4640  149.1220 C   0  0  0  0  0  0  0  0  0  0  0  0
  161.1380  205.0780  149.2660 C   0  0  0  0  0  0  0  0  0  0  0  0
  161.7490  209.1370  148.6190 C   0  0  0  0  0  0  0  0  0  0  0  0
  161.7440  208.6100  153.0790 N   0  0  0  0  0  0  0  0  0  0  0  0
  161.6080  203.0140  146.1010 C   0  0  0  0  0  2  0  0  0  0  0  0
  161.4840  207.3350  150.2590 C   0  0  0  0  0  0  0  0  0  0  0  0
  161.3980  206.4440  153.9570 N   0  0  0  0  0  2  0  0  0  0  0  0
  160.6730  206.7730  155.1160 N   0  0  0  0  0  2  0  0  0  0  0  0
  159.8750  211.9200  157.2600 C   0  0  1  0  0  3  0  0  0  0  0  0
  160.5450  208.1070  155.6210 C   0  0  0  0  0  0  0  0  0  0  0  0
  161.5780  208.8460  156.2120 C   0  0  0  0  0  3  0  0  0  0  0  0
  158.9750  211.0070  156.6030 O   0  0  0  0  0  0  0  0  0  0  0  0
  160.9740  209.9800  156.5770 N   0  0  0  0  0  0  0  0  0  0  0  0
  159.7170  209.9050  156.2550 C   0  0  0  0  0  0  0  0  0  0  0  0
  159.3520  208.7630  155.6540 N   0  0  0  0  0  0  0  0  0  0  0  0
  161.2740  211.2260  157.2420 C   0  0  0  0  0  2  0  0  0  0  0  0
  159.5720  213.2690  155.1750 O   0  0  0  0  0  0  0  0  0  0  0  0
  159.9310  213.2130  156.5170 C   0  0  0  0  0  0  0  0  0  0  0  0
  160.3250  214.2540  157.1030 O   0  0  0  0  0  1  0  0  0  0  0  0
  1  6  1  6  0  0  0
  1  9  1  0  0  0  0
  1 21  1  0  0  0  0
  2 18  2  0  0  0  0
  2 22  1  0  0  0  0
  3 14  1  1  0  0  0
  3 19  1  0  0  0  0
  4 12  1  0  0  0  0
  4 10  1  0  0  0  0
  5 25  1  0  0  0  0
  5  7  1  0  0  0  0
  7 17  1  0  0  0  0
  8 15  1  0  0  0  0
  9 13  1  6  0  0  0
  9  3  1  0  0  0  0
 10 23  2  0  0  0  0
 10 26  1  0  0  0  0
 11 19  1  0  0  0  0
 11 12  2  0  0  0  0
 15  7  2  0  0  0  0
 16 22  1  0  0  0  0
 16  8  2  0  0  0  0
 17 23  1  0  0  0  0
 18 20  1  0  0  0  0
 20 21  2  0  0  0  0
 20 25  1  0  0  0  0
 21 11  1  0  0  0  0
 22  5  2  0  0  0  0
 24  6  1  0  0  0  0
 24 13  1  0  0  0  0
 25  4  2  0  0  0  0
 26 27  1  0  0  0  0
 27 29  1  0  0  0  0
 28 37  1  6  0  0  0
 29 34  1  0  0  0  0
 29 30  2  0  0  0  0
 30 32  1  0  0  0  0
 31 28  1  0  0  0  0
 32 35  1  0  0  0  0
 33 32  1  0  0  0  0
 33 31  1  0  0  0  0
 34 33  2  0  0  0  0
 35 28  1  0  0  0  0
 36 37  2  0  0  0  0
 37 38  1  0  0  0  0
M  END
>  <MODEL>
4

>  <REMARK>
 VINA RESULT:      -9.5      4.143      7.507
  Name = 
  4 active torsions:
  status: ('A' for Active; 'I' for Inactive)
    1  A    between atoms: C_4  and  C_20
    2  A    between atoms: N_11  and  C_12
    3  A    between atoms: N_11  and  N_28
    4  A    between atoms: C_14  and  N_28
                            x       y       z     vdW  Elec       q    Type
                         _______ _______ _______ _____ _____    ______ ____

>  <TORSDO>
F 4

$$$$
=
 OpenBabel11052409413D

 38 45  0  0  1  0  0  0  0  0999 V2000
  161.5270  203.9510  148.6610 C   0  0  1  0  0  3  0  0  0  0  0  0
  160.9950  205.2940  152.5880 N   0  0  0  0  0  0  0  0  0  0  0  0
  162.3010  204.4110  146.3830 C   0  0  1  0  0  3  0  0  0  0  0  0
  161.9770  208.1500  149.6440 C   0  0  0  0  0  0  0  0  0  0  0  0
  161.4290  207.6200  152.0930 C   0  0  0  0  0  0  0  0  0  0  0  0
  160.4910  203.0760  149.3330 C   0  0  0  0  0  2  0  0  0  0  0  0
  161.5280  208.9220  152.6650 C   0  0  0  0  0  0  0  0  0  0  0  0
  161.0120  208.0620  154.8500 N   0  0  0  0  0  0  0  0  0  0  0  0
  161.1870  203.7900  147.2060 C   0  0  1  0  0  3  0  0  0  0  0  0
  162.1420  209.5440  149.6800 C   0  0  0  0  0  0  0  0  0  0  0  0
  162.0410  206.3240  148.0730 C   0  0  0  0  0  0  0  0  0  0  0  0
  162.1770  207.6220  148.4030 N   0  0  0  0  0  0  0  0  0  0  0  0
  160.9790  202.3010  147.0620 C   0  0  0  0  0  2  0  0  0  0  0  0
  162.0870  204.1590  144.9020 C   0  0  0  0  0  1  0  0  0  0  0  0
  161.3130  209.0960  154.0370 C   0  0  0  0  0  3  0  0  0  0  0  0
  160.9080  206.8110  154.3600 C   0  0  0  0  0  3  0  0  0  0  0  0
  161.8110  210.0720  152.0300 N   0  0  0  0  0  2  0  0  0  0  0  0
  161.1610  204.9660  151.3200 N   0  0  0  0  0  0  0  0  0  0  0  0
  162.2850  205.9260  146.6310 C   0  0  0  0  0  2  0  0  0  0  0  0
  161.4560  205.8780  150.3660 C   0  0  0  0  0  0  0  0  0  0  0  0
  161.6030  205.4190  149.0430 C   0  0  0  0  0  0  0  0  0  0  0  0
  161.1100  206.5660  153.0060 C   0  0  0  0  0  0  0  0  0  0  0  0
  162.0690  210.3380  150.7640 N   0  0  0  0  0  0  0  0  0  0  0  0
  160.3220  201.8950  148.3790 C   0  0  0  0  0  2  0  0  0  0  0  0
  161.6220  207.2650  150.7140 C   0  0  0  0  0  0  0  0  0  0  0  0
  162.4690  210.1970  148.4400 N   0  0  0  0  0  2  0  0  0  0  0  0
  162.2170  211.5540  148.1740 N   0  0  0  0  0  2  0  0  0  0  0  0
  157.7040  214.4480  149.8950 C   0  0  1  0  0  3  0  0  0  0  0  0
  161.0190  212.2320  148.5670 C   0  0  0  0  0  0  0  0  0  0  0  0
  159.9630  212.5620  147.7080 C   0  0  0  0  0  3  0  0  0  0  0  0
  158.8740  213.9940  150.6000 O   0  0  0  0  0  0  0  0  0  0  0  0
  159.1200  213.2300  148.5010 N   0  0  0  0  0  0  0  0  0  0  0  0
  159.6380  213.3040  149.6910 C   0  0  0  0  0  0  0  0  0  0  0  0
  160.8320  212.7100  149.8290 N   0  0  0  0  0  0  0  0  0  0  0  0
  157.8520  213.9170  148.4340 C   0  0  0  0  0  2  0  0  0  0  0  0
  155.5440  213.1920  149.7590 O   0  0  0  0  0  0  0  0  0  0  0  0
  156.4720  213.8870  150.5260 C   0  0  0  0  0  0  0  0  0  0  0  0
  156.2640  214.0620  151.7550 O   0  0  0  0  0  1  0  0  0  0  0  0
  1 21  1  0  0  0  0
  1  6  1  1  0  0  0
  2 22  1  0  0  0  0
  3 14  1  6  0  0  0
  3 19  1  0  0  0  0
  3  9  1  0  0  0  0
  4 10  1  0  0  0  0
  4 25  1  0  0  0  0
  5  7  2  0  0  0  0
  5 22  1  0  0  0  0
  7 15  1  0  0  0  0
  9 13  1  6  0  0  0
  9  1  1  0  0  0  0
 10 23  2  0  0  0  0
 11 12  1  0  0  0  0
 11 21  2  0  0  0  0
 12  4  2  0  0  0  0
 13 24  1  0  0  0  0
 15  8  2  0  0  0  0
 16  8  1  0  0  0  0
 17  7  1  0  0  0  0
 18  2  2  0  0  0  0
 19 11  1  0  0  0  0
 20 25  2  0  0  0  0
 20 18  1  0  0  0  0
 21 20  1  0  0  0  0
 22 16  2  0  0  0  0
 23 17  1  0  0  0  0
 24  6  1  0  0  0  0
 25  5  1  0  0  0  0
 26 10  1  0  0  0  0
 27 26  1  0  0  0  0
 27 29  1  0  0  0  0
 28 37  1  1  0  0  0
 28 31  1  0  0  0  0
 29 34  1  0  0  0  0
 30 32  1  0  0  0  0
 30 29  2  0  0  0  0
 32 33  1  0  0  0  0
 33 34  2  0  0  0  0
 33 31  1  0  0  0  0
 35 32  1  0  0  0  0
 35 28  1  0  0  0  0
 36 37  2  0  0  0  0
 37 38  1  0  0  0  0
M  END
>  <MODEL>
5

>  <REMARK>
 VINA RESULT:      -9.3      2.887      3.673
  Name = 
  4 active torsions:
  status: ('A' for Active; 'I' for Inactive)
    1  A    between atoms: C_4  and  C_20
    2  A    between atoms: N_11  and  C_12
    3  A    between atoms: N_11  and  N_28
    4  A    between atoms: C_14  and  N_28
                            x       y       z     vdW  Elec       q    Type
                         _______ _______ _______ _____ _____    ______ ____

>  <TORSDO>
F 4

$$$$
