=
 OpenBabel11042423073D

 48 53  0  0  1  0  0  0  0  0999 V2000
  161.5260  208.0390  152.4970 C   0  0  0  0  0  2  0  0  0  0  0  0
  161.7940  207.9670  151.0730 N   0  0  0  0  0  0  0  0  0  0  0  0
  162.1740  206.2290  153.9290 O   0  0  0  0  0  0  0  0  0  0  0  0
  162.4470  204.7670  151.8110 F   0  0  0  0  0  0  0  0  0  0  0  0
  160.2170  205.0130  151.4730 F   0  0  0  0  0  0  0  0  0  0  0  0
  161.4110  205.6770  151.6830 C   0  0  0  0  0  0  0  0  0  0  0  0
  161.3040  206.6000  152.8870 C   0  0  2  0  0  0  0  0  0  0  0  0
  160.7920  206.1300  154.2040 C   0  0  2  0  0  3  0  0  0  0  0  0
  161.6910  206.6190  150.5190 C   0  0  0  0  0  2  0  0  0  0  0  0
  161.9190  212.6810  147.9950 O   0  0  0  0  0  1  0  0  0  0  0  0
  161.8070  209.0800  148.8360 C   0  0  0  0  0  0  0  0  0  0  0  0
  161.9160  211.5110  148.7410 C   0  0  0  0  0  0  0  0  0  0  0  0
  161.8110  210.2760  148.1010 C   0  0  0  0  0  3  0  0  0  0  0  0
  161.8880  209.1420  150.2520 C   0  0  0  0  0  0  0  0  0  0  0  0
  162.0270  211.5690  150.1280 C   0  0  0  0  0  3  0  0  0  0  0  0
  162.0110  210.3930  150.8780 C   0  0  0  0  0  3  0  0  0  0  0  0
  162.9520  205.8920  147.1460 C   0  0  0  0  0  3  0  0  0  0  0  0
  161.7480  205.4020  146.6150 C   0  0  0  0  0  0  0  0  0  0  0  0
  160.5890  207.3200  147.5500 C   0  0  0  0  0  3  0  0  0  0  0  0
  161.7890  207.8030  148.0900 C   0  0  0  0  0  0  0  0  0  0  0  0
  160.5700  206.1260  146.8250 C   0  0  0  0  0  3  0  0  0  0  0  0
  162.9730  207.0850  147.8700 C   0  0  0  0  0  3  0  0  0  0  0  0
  161.6710  204.1940  145.9050 O   0  0  0  0  0  0  0  0  0  0  0  0
  161.3670  202.7450  147.7660 N   0  0  0  0  0  0  0  0  0  0  0  0
  161.0220  201.5600  148.3420 C   0  0  0  0  0  0  0  0  0  0  0  0
  160.8790  201.8870  145.5950 C   0  0  0  0  0  3  0  0  0  0  0  0
  160.5950  200.4960  147.5470 C   0  0  0  0  0  3  0  0  0  0  0  0
  161.3150  202.9370  146.4190 C   0  0  0  0  0  0  0  0  0  0  0  0
  160.5220  200.6640  146.1650 C   0  0  0  0  0  3  0  0  0  0  0  0
  159.9700  200.7760  150.2980 F   0  0  0  0  0  0  0  0  0  0  0  0
  161.2690  202.6220  150.4270 F   0  0  0  0  0  0  0  0  0  0  0  0
  161.1140  201.3890  149.8190 C   0  0  0  0  0  3  0  0  0  0  0  0
  159.3340  207.1220  155.8060 O   0  0  0  0  0  0  0  0  0  0  0  0
  161.0320  208.5230  155.0250 N   0  0  0  0  0  2  0  0  0  0  0  0
  160.3410  207.2710  155.0620 C   0  0  0  0  0  0  0  0  0  0  0  0
  160.5040  209.7270  155.6510 C   0  0  2  0  0  3  0  0  0  0  0  0
  158.4310  212.3070  153.9000 C   0  0  0  0  0  0  0  0  0  0  0  0
  159.2910  211.8910  155.0780 C   0  0  0  0  0  2  0  0  0  0  0  0
  158.7800  213.7170  153.4730 C   0  0  0  0  0  1  0  0  0  0  0  0
  160.1910  210.7760  154.5760 C   0  0  2  0  0  3  0  0  0  0  0  0
  159.4960  210.1850  153.3710 C   0  0  0  0  0  2  0  0  0  0  0  0
  156.9660  212.2370  154.2850 C   0  0  0  0  0  1  0  0  0  0  0  0
  158.7180  211.3340  152.7670 C   0  0  0  0  0  2  0  0  0  0  0  0
  165.0210  211.5780  156.9470 C   0  0  0  0  0  1  0  0  0  0  0  0
  162.7640  210.7090  156.2450 C   0  0  0  0  0  0  0  0  0  0  0  0
  163.0910  210.7780  155.0280 O   0  0  0  0  0  0  0  0  0  0  0  0
  161.4710  210.2300  156.6200 N   0  0  0  0  0  2  0  0  0  0  0  0
  163.6810  211.1110  157.2610 N   0  0  0  0  0  2  0  0  0  0  0  0
  2  1  1  0  0  0  0
  3  8  1  0  0  0  0
  5  6  1  0  0  0  0
  6  4  1  0  0  0  0
  6  7  1  0  0  0  0
  7  1  1  6  0  0  0
  7  3  1  0  0  0  0
  7  8  1  0  0  0  0
  8 35  1  1  0  0  0
  9  2  1  0  0  0  0
  9  6  1  0  0  0  0
 10 12  1  0  0  0  0
 11 14  1  0  0  0  0
 12 15  2  0  0  0  0
 13 12  1  0  0  0  0
 13 11  2  0  0  0  0
 14 16  2  0  0  0  0
 14  2  1  0  0  0  0
 15 16  1  0  0  0  0
 17 22  1  0  0  0  0
 18 21  1  0  0  0  0
 18 17  2  0  0  0  0
 19 20  1  0  0  0  0
 20 11  1  0  0  0  0
 21 19  2  0  0  0  0
 22 20  2  0  0  0  0
 23 28  1  0  0  0  0
 23 18  1  0  0  0  0
 24 25  1  0  0  0  0
 25 32  1  0  0  0  0
 26 29  2  0  0  0  0
 26 28  1  0  0  0  0
 27 25  2  0  0  0  0
 28 24  2  0  0  0  0
 29 27  1  0  0  0  0
 32 30  1  0  0  0  0
 32 31  1  0  0  0  0
 34 35  1  0  0  0  0
 35 33  2  0  0  0  0
 36 34  1  6  0  0  0
 36 47  1  0  0  0  0
 37 42  1  0  0  0  0
 37 38  1  0  0  0  0
 39 37  1  0  0  0  0
 40 38  1  0  0  0  0
 40 36  1  1  0  0  0
 41 40  1  0  0  0  0
 43 41  1  0  0  0  0
 43 37  1  0  0  0  0
 44 48  1  0  0  0  0
 45 47  1  0  0  0  0
 45 48  1  0  0  0  0
 46 45  2  0  0  0  0
M  END
>  <MODEL>
1

>  <REMARK>
 VINA RESULT:      -7.6      0.000      0.000
  Name = 
  9 active torsions:
  status: ('A' for Active; 'I' for Inactive)
    1  A    between atoms: O_3  and  C_16
    2  A    between atoms: O_3  and  C_29
    3  A    between atoms: N_7  and  C_38
    4  A    between atoms: C_12  and  C_30
    5  A    between atoms: C_15  and  C_20
    6  A    between atoms: C_26  and  C_46
    7  A    between atoms: C_33  and  N_35
    8  A    between atoms: C_33  and  C_36
    9  A    between atoms: C_33  and  N_44
                            x       y       z     vdW  Elec       q    Type
                         _______ _______ _______ _____ _____    ______ ____

>  <TORSDO>
F 9

$$$$
=
 OpenBabel11042423073D

 48 53  0  0  1  0  0  0  0  0999 V2000
  160.6050  212.2700  147.8540 C   0  0  0  0  0  2  0  0  0  0  0  0
  160.2470  213.3220  146.9220 N   0  0  0  0  0  0  0  0  0  0  0  0
  162.6410  212.4270  149.1100 O   0  0  0  0  0  0  0  0  0  0  0  0
  163.4140  214.2650  147.4610 F   0  0  0  0  0  0  0  0  0  0  0  0
  163.3740  212.6840  145.8340 F   0  0  0  0  0  0  0  0  0  0  0  0
  162.6450  213.2970  146.8360 C   0  0  0  0  0  0  0  0  0  0  0  0
  162.1120  212.2640  147.8160 C   0  0  2  0  0  0  0  0  0  0  0  0
  162.9890  211.2350  148.4380 C   0  0  2  0  0  3  0  0  0  0  0  0
  161.3910  213.9320  146.2490 C   0  0  0  0  0  2  0  0  0  0  0  0
  155.0200  214.4460  145.1510 O   0  0  0  0  0  1  0  0  0  0  0  0
  157.8680  213.8830  147.4440 C   0  0  0  0  0  0  0  0  0  0  0  0
  156.2970  214.1440  145.6010 C   0  0  0  0  0  0  0  0  0  0  0  0
  156.5840  214.1860  146.9660 C   0  0  0  0  0  3  0  0  0  0  0  0
  158.8890  213.5510  146.5140 C   0  0  0  0  0  0  0  0  0  0  0  0
  157.2910  213.7870  144.6930 C   0  0  0  0  0  3  0  0  0  0  0  0
  158.5770  213.4950  145.1460 C   0  0  0  0  0  3  0  0  0  0  0  0
  157.2740  213.3830  151.1490 C   0  0  0  0  0  3  0  0  0  0  0  0
  158.4730  213.8630  151.6980 C   0  0  0  0  0  0  0  0  0  0  0  0
  159.2730  214.3440  149.4560 C   0  0  0  0  0  3  0  0  0  0  0  0
  158.0800  213.8540  148.9070 C   0  0  0  0  0  0  0  0  0  0  0  0
  159.4690  214.3410  150.8400 C   0  0  0  0  0  3  0  0  0  0  0  0
  157.0760  213.3870  149.7670 C   0  0  0  0  0  3  0  0  0  0  0  0
  158.7310  213.8540  153.0780 O   0  0  0  0  0  0  0  0  0  0  0  0
  160.0990  212.1530  154.0200 N   0  0  0  0  0  0  0  0  0  0  0  0
  160.3180  211.0660  154.8120 C   0  0  0  0  0  0  0  0  0  0  0  0
  157.7920  212.1890  154.6240 C   0  0  0  0  0  3  0  0  0  0  0  0
  159.2630  210.5060  155.5350 C   0  0  0  0  0  3  0  0  0  0  0  0
  158.8690  212.7250  153.9010 C   0  0  0  0  0  0  0  0  0  0  0  0
  157.9940  211.0750  155.4400 C   0  0  0  0  0  3  0  0  0  0  0  0
  162.3790  210.7080  153.7310 F   0  0  0  0  0  0  0  0  0  0  0  0
  161.5710  209.0970  155.0960 F   0  0  0  0  0  0  0  0  0  0  0  0
  161.6760  210.4610  154.8960 C   0  0  0  0  0  3  0  0  0  0  0  0
  161.7280  210.1370  150.1360 O   0  0  0  0  0  0  0  0  0  0  0  0
  161.9940  208.9130  148.1650 N   0  0  0  0  0  2  0  0  0  0  0  0
  162.1980  210.0790  148.9680 C   0  0  0  0  0  0  0  0  0  0  0  0
  161.4420  207.6780  148.7050 C   0  0  2  0  0  3  0  0  0  0  0  0
  161.8840  205.9190  151.9810 C   0  0  0  0  0  0  0  0  0  0  0  0
  162.3570  206.2020  150.5670 C   0  0  0  0  0  2  0  0  0  0  0  0
  163.0650  205.9020  152.9300 C   0  0  0  0  0  1  0  0  0  0  0  0
  161.7930  207.5630  150.1940 C   0  0  2  0  0  3  0  0  0  0  0  0
  160.5990  207.7840  151.0930 C   0  0  0  0  0  2  0  0  0  0  0  0
  161.1720  204.5820  152.0250 C   0  0  0  0  0  1  0  0  0  0  0  0
  160.9240  207.0330  152.3670 C   0  0  0  0  0  2  0  0  0  0  0  0
  161.2670  204.3490  144.9110 C   0  0  0  0  0  1  0  0  0  0  0  0
  161.3430  206.0670  146.7510 C   0  0  0  0  0  0  0  0  0  0  0  0
  160.3460  206.6660  146.2630 O   0  0  0  0  0  0  0  0  0  0  0  0
  161.9610  206.5460  147.9460 N   0  0  0  0  0  2  0  0  0  0  0  0
  161.8680  204.9040  146.1110 N   0  0  0  0  0  2  0  0  0  0  0  0
  2  1  1  0  0  0  0
  5  6  1  0  0  0  0
  6  4  1  0  0  0  0
  6  7  1  0  0  0  0
  7  1  1  6  0  0  0
  7  8  1  0  0  0  0
  7  3  1  0  0  0  0
  8 35  1  1  0  0  0
  8  3  1  0  0  0  0
  9  6  1  0  0  0  0
  9  2  1  0  0  0  0
 10 12  1  0  0  0  0
 11 20  1  0  0  0  0
 12 13  2  0  0  0  0
 13 11  1  0  0  0  0
 14  2  1  0  0  0  0
 14 11  2  0  0  0  0
 15 16  2  0  0  0  0
 15 12  1  0  0  0  0
 16 14  1  0  0  0  0
 17 18  1  0  0  0  0
 18 23  1  0  0  0  0
 19 21  1  0  0  0  0
 20 19  2  0  0  0  0
 20 22  1  0  0  0  0
 21 18  2  0  0  0  0
 22 17  2  0  0  0  0
 23 28  1  0  0  0  0
 24 25  1  0  0  0  0
 25 32  1  0  0  0  0
 25 27  2  0  0  0  0
 26 29  2  0  0  0  0
 28 24  2  0  0  0  0
 28 26  1  0  0  0  0
 29 27  1  0  0  0  0
 30 32  1  0  0  0  0
 32 31  1  0  0  0  0
 34 36  1  0  0  0  0
 34 35  1  0  0  0  0
 35 33  2  0  0  0  0
 36 47  1  6  0  0  0
 37 42  1  0  0  0  0
 37 43  1  0  0  0  0
 37 39  1  0  0  0  0
 38 37  1  0  0  0  0
 40 36  1  6  0  0  0
 40 38  1  0  0  0  0
 40 41  1  0  0  0  0
 41 43  1  0  0  0  0
 44 48  1  0  0  0  0
 45 47  1  0  0  0  0
 46 45  2  0  0  0  0
 48 45  1  0  0  0  0
M  END
>  <MODEL>
2

>  <REMARK>
 VINA RESULT:      -7.2      4.085      9.260
  Name = 
  9 active torsions:
  status: ('A' for Active; 'I' for Inactive)
    1  A    between atoms: O_3  and  C_16
    2  A    between atoms: O_3  and  C_29
    3  A    between atoms: N_7  and  C_38
    4  A    between atoms: C_12  and  C_30
    5  A    between atoms: C_15  and  C_20
    6  A    between atoms: C_26  and  C_46
    7  A    between atoms: C_33  and  N_35
    8  A    between atoms: C_33  and  C_36
    9  A    between atoms: C_33  and  N_44
                            x       y       z     vdW  Elec       q    Type
                         _______ _______ _______ _____ _____    ______ ____

>  <TORSDO>
F 9

$$$$
=
 OpenBabel11042423073D

 48 53  0  0  1  0  0  0  0  0999 V2000
  159.7880  209.6620  154.9590 C   0  0  0  0  0  2  0  0  0  0  0  0
  159.5950  211.0150  155.4440 N   0  0  0  0  0  0  0  0  0  0  0  0
  161.3180  208.1960  156.0810 O   0  0  0  0  0  0  0  0  0  0  0  0
  162.3090  210.2760  157.2600 F   0  0  0  0  0  0  0  0  0  0  0  0
  162.9580  211.0040  155.2120 F   0  0  0  0  0  0  0  0  0  0  0  0
  161.8920  210.5600  155.9700 C   0  0  0  0  0  0  0  0  0  0  0  0
  161.2260  209.3660  155.3050 C   0  0  2  0  0  0  0  0  0  0  0  0
  162.0000  208.1800  154.8450 C   0  0  2  0  0  3  0  0  0  0  0  0
  160.8010  211.6220  156.0010 C   0  0  0  0  0  2  0  0  0  0  0  0
  154.7640  213.7200  154.4140 O   0  0  0  0  0  1  0  0  0  0  0  0
  158.1160  212.2550  153.8580 C   0  0  0  0  0  0  0  0  0  0  0  0
  155.9700  213.0800  154.6620 C   0  0  0  0  0  0  0  0  0  0  0  0
  156.8900  212.8980  153.6290 C   0  0  0  0  0  3  0  0  0  0  0  0
  158.4040  211.7660  155.1590 C   0  0  0  0  0  0  0  0  0  0  0  0
  156.2670  212.6270  155.9450 C   0  0  0  0  0  3  0  0  0  0  0  0
  157.4750  211.9730  156.1910 C   0  0  0  0  0  3  0  0  0  0  0  0
  160.1800  213.1920  150.8260 C   0  0  0  0  0  3  0  0  0  0  0  0
  160.8860  212.0030  150.5830 C   0  0  0  0  0  0  0  0  0  0  0  0
  159.7800  210.9890  152.4920 C   0  0  0  0  0  3  0  0  0  0  0  0
  159.0830  212.1810  152.7420 C   0  0  0  0  0  0  0  0  0  0  0  0
  160.6780  210.9060  151.4250 C   0  0  0  0  0  3  0  0  0  0  0  0
  159.2820  213.2770  151.8910 C   0  0  0  0  0  3  0  0  0  0  0  0
  161.8210  211.8780  149.5440 O   0  0  0  0  0  0  0  0  0  0  0  0
  160.4240  212.3690  147.6830 N   0  0  0  0  0  0  0  0  0  0  0  0
  160.1970  212.8050  146.4130 C   0  0  0  0  0  0  0  0  0  0  0  0
  162.7660  212.7520  147.4490 C   0  0  0  0  0  3  0  0  0  0  0  0
  161.2650  213.2280  145.6200 C   0  0  0  0  0  3  0  0  0  0  0  0
  161.6740  212.3240  148.2210 C   0  0  0  0  0  0  0  0  0  0  0  0
  162.5570  213.2010  146.1450 C   0  0  0  0  0  3  0  0  0  0  0  0
  157.9370  212.2470  146.7630 F   0  0  0  0  0  0  0  0  0  0  0  0
  158.7780  212.1170  144.6690 F   0  0  0  0  0  0  0  0  0  0  0  0
  158.8150  212.8190  145.8600 C   0  0  0  0  0  3  0  0  0  0  0  0
  160.2510  206.6940  154.2050 O   0  0  0  0  0  0  0  0  0  0  0  0
  161.6430  207.3810  152.4600 N   0  0  0  0  0  2  0  0  0  0  0  0
  161.2400  207.3810  153.8320 C   0  0  0  0  0  0  0  0  0  0  0  0
  161.0940  206.4490  151.4840 C   0  0  2  0  0  3  0  0  0  0  0  0
  161.3940  202.7350  151.1130 C   0  0  0  0  0  0  0  0  0  0  0  0
  161.9690  204.1260  150.9190 C   0  0  0  0  0  2  0  0  0  0  0  0
  162.4740  201.7890  151.5930 C   0  0  0  0  0  1  0  0  0  0  0  0
  161.3110  205.0080  151.9650 C   0  0  2  0  0  3  0  0  0  0  0  0
  160.0200  204.3200  152.3440 C   0  0  0  0  0  2  0  0  0  0  0  0
  160.8180  202.2320  149.8040 C   0  0  0  0  0  1  0  0  0  0  0  0
  160.2950  202.8430  152.1570 C   0  0  0  0  0  2  0  0  0  0  0  0
  161.1520  206.3860  146.4340 C   0  0  0  0  0  1  0  0  0  0  0  0
  161.0540  206.4550  148.9490 C   0  0  0  0  0  0  0  0  0  0  0  0
  159.8400  206.1100  148.9340 O   0  0  0  0  0  0  0  0  0  0  0  0
  161.7260  206.6790  150.1900 N   0  0  0  0  0  2  0  0  0  0  0  0
  161.7690  206.6280  147.7270 N   0  0  0  0  0  2  0  0  0  0  0  0
  1  2  1  0  0  0  0
  2  9  1  0  0  0  0
  5  6  1  0  0  0  0
  6  9  1  0  0  0  0
  6  4  1  0  0  0  0
  7  1  1  6  0  0  0
  7  6  1  0  0  0  0
  7  3  1  0  0  0  0
  8 35  1  6  0  0  0
  8  7  1  0  0  0  0
  8  3  1  0  0  0  0
 10 12  1  0  0  0  0
 11 14  1  0  0  0  0
 12 15  2  0  0  0  0
 13 11  2  0  0  0  0
 13 12  1  0  0  0  0
 14  2  1  0  0  0  0
 14 16  2  0  0  0  0
 15 16  1  0  0  0  0
 17 22  1  0  0  0  0
 18 17  2  0  0  0  0
 18 21  1  0  0  0  0
 19 20  1  0  0  0  0
 20 11  1  0  0  0  0
 21 19  2  0  0  0  0
 22 20  2  0  0  0  0
 23 18  1  0  0  0  0
 24 28  2  0  0  0  0
 25 24  1  0  0  0  0
 26 28  1  0  0  0  0
 27 29  1  0  0  0  0
 27 25  2  0  0  0  0
 28 23  1  0  0  0  0
 29 26  2  0  0  0  0
 31 32  1  0  0  0  0
 32 25  1  0  0  0  0
 32 30  1  0  0  0  0
 34 35  1  0  0  0  0
 35 33  2  0  0  0  0
 36 47  1  6  0  0  0
 36 34  1  0  0  0  0
 37 39  1  0  0  0  0
 37 43  1  0  0  0  0
 38 37  1  0  0  0  0
 38 40  1  0  0  0  0
 40 36  1  6  0  0  0
 40 41  1  0  0  0  0
 42 37  1  0  0  0  0
 43 41  1  0  0  0  0
 44 48  1  0  0  0  0
 45 47  1  0  0  0  0
 46 45  2  0  0  0  0
 48 45  1  0  0  0  0
M  END
>  <MODEL>
3

>  <REMARK>
 VINA RESULT:      -7.0      3.431      8.514
  Name = 
  9 active torsions:
  status: ('A' for Active; 'I' for Inactive)
    1  A    between atoms: O_3  and  C_16
    2  A    between atoms: O_3  and  C_29
    3  A    between atoms: N_7  and  C_38
    4  A    between atoms: C_12  and  C_30
    5  A    between atoms: C_15  and  C_20
    6  A    between atoms: C_26  and  C_46
    7  A    between atoms: C_33  and  N_35
    8  A    between atoms: C_33  and  C_36
    9  A    between atoms: C_33  and  N_44
                            x       y       z     vdW  Elec       q    Type
                         _______ _______ _______ _____ _____    ______ ____

>  <TORSDO>
F 9

$$$$
=
 OpenBabel11042423073D

 48 53  0  0  1  0  0  0  0  0999 V2000
  161.3010  209.8740  150.2600 C   0  0  0  0  0  2  0  0  0  0  0  0
  161.5880  208.6120  150.9140 N   0  0  0  0  0  0  0  0  0  0  0  0
  160.9790  209.9440  147.8850 O   0  0  0  0  0  0  0  0  0  0  0  0
  162.0500  207.5920  147.7590 F   0  0  0  0  0  0  0  0  0  0  0  0
  163.9670  208.5320  148.5260 F   0  0  0  0  0  0  0  0  0  0  0  0
  162.6150  208.3660  148.7590 C   0  0  0  0  0  0  0  0  0  0  0  0
  161.9290  209.7160  148.8990 C   0  0  2  0  0  0  0  0  0  0  0  0
  162.1010  210.8020  147.8940 C   0  0  2  0  0  3  0  0  0  0  0  0
  162.4000  207.7000  150.1120 C   0  0  0  0  0  2  0  0  0  0  0  0
  160.8030  207.9020  156.4460 O   0  0  0  0  0  1  0  0  0  0  0  0
  161.1640  207.0950  152.8540 C   0  0  0  0  0  0  0  0  0  0  0  0
  160.9680  208.0660  155.0780 C   0  0  0  0  0  0  0  0  0  0  0  0
  161.0000  206.9510  154.2400 C   0  0  0  0  0  3  0  0  0  0  0  0
  161.3210  208.3960  152.3090 C   0  0  0  0  0  0  0  0  0  0  0  0
  161.0910  209.3450  154.5390 C   0  0  0  0  0  3  0  0  0  0  0  0
  161.2680  209.5080  153.1650 C   0  0  0  0  0  3  0  0  0  0  0  0
  160.3520  204.7430  149.9990 C   0  0  0  0  0  3  0  0  0  0  0  0
  160.9150  203.5400  150.4530 C   0  0  0  0  0  0  0  0  0  0  0  0
  161.6450  204.6740  152.4720 C   0  0  0  0  0  3  0  0  0  0  0  0
  161.0930  205.8790  152.0140 C   0  0  0  0  0  0  0  0  0  0  0  0
  161.5610  203.5170  151.6930 C   0  0  0  0  0  3  0  0  0  0  0  0
  160.4340  205.9000  150.7770 C   0  0  0  0  0  3  0  0  0  0  0  0
  160.8840  202.3580  149.6950 O   0  0  0  0  0  0  0  0  0  0  0  0
  161.2390  203.3340  147.5560 N   0  0  0  0  0  0  0  0  0  0  0  0
  161.2570  203.3080  146.1950 C   0  0  0  0  0  0  0  0  0  0  0  0
  160.4820  201.0740  147.6380 C   0  0  0  0  0  3  0  0  0  0  0  0
  160.8790  202.1490  145.5140 C   0  0  0  0  0  3  0  0  0  0  0  0
  160.8580  202.2560  148.2960 C   0  0  0  0  0  0  0  0  0  0  0  0
  160.4910  201.0260  146.2430 C   0  0  0  0  0  3  0  0  0  0  0  0
  162.9370  204.9100  145.7970 F   0  0  0  0  0  0  0  0  0  0  0  0
  160.7710  205.5480  145.6660 F   0  0  0  0  0  0  0  0  0  0  0  0
  161.6630  204.5180  145.4270 C   0  0  0  0  0  3  0  0  0  0  0  0
  162.6560  212.9210  148.8310 O   0  0  0  0  0  0  0  0  0  0  0  0
  160.3670  212.5230  148.5900 N   0  0  0  0  0  2  0  0  0  0  0  0
  161.7390  212.1410  148.4580 C   0  0  0  0  0  0  0  0  0  0  0  0
  159.9530  213.7010  149.3400 C   0  0  2  0  0  3  0  0  0  0  0  0
  157.8340  213.2970  152.4010 C   0  0  0  0  0  0  0  0  0  0  0  0
  158.2240  212.8500  151.0040 C   0  0  0  0  0  2  0  0  0  0  0  0
  157.6240  212.0910  153.2920 C   0  0  0  0  0  1  0  0  0  0  0  0
  159.6550  213.3110  150.7940 C   0  0  2  0  0  3  0  0  0  0  0  0
  159.8760  214.4520  151.7600 C   0  0  0  0  0  2  0  0  0  0  0  0
  156.5600  214.1160  152.3400 C   0  0  0  0  0  1  0  0  0  0  0  0
  158.9740  214.1470  152.9370 C   0  0  0  0  0  2  0  0  0  0  0  0
  156.4990  213.9840  145.6650 C   0  0  0  0  0  1  0  0  0  0  0  0
  158.2060  213.7660  147.5040 C   0  0  0  0  0  0  0  0  0  0  0  0
  158.6550  212.7040  146.9930 O   0  0  0  0  0  0  0  0  0  0  0  0
  158.7840  214.2940  148.6990 N   0  0  0  0  0  2  0  0  0  0  0  0
  157.1120  214.4520  146.8970 N   0  0  0  0  0  2  0  0  0  0  0  0
  1  2  1  0  0  0  0
  2 14  1  0  0  0  0
  3  8  1  0  0  0  0
  3  7  1  0  0  0  0
  4  6  1  0  0  0  0
  5  6  1  0  0  0  0
  6  7  1  0  0  0  0
  6  9  1  0  0  0  0
  7  1  1  1  0  0  0
  8 35  1  1  0  0  0
  8  7  1  0  0  0  0
  9  2  1  0  0  0  0
 11 13  1  0  0  0  0
 12 10  1  0  0  0  0
 13 12  2  0  0  0  0
 14 11  2  0  0  0  0
 14 16  1  0  0  0  0
 15 12  1  0  0  0  0
 16 15  2  0  0  0  0
 17 18  2  0  0  0  0
 17 22  1  0  0  0  0
 18 21  1  0  0  0  0
 20 19  1  0  0  0  0
 20 11  1  0  0  0  0
 21 19  2  0  0  0  0
 22 20  2  0  0  0  0
 23 18  1  0  0  0  0
 24 28  2  0  0  0  0
 25 24  1  0  0  0  0
 26 28  1  0  0  0  0
 27 25  2  0  0  0  0
 27 29  1  0  0  0  0
 28 23  1  0  0  0  0
 29 26  2  0  0  0  0
 32 31  1  0  0  0  0
 32 30  1  0  0  0  0
 32 25  1  0  0  0  0
 35 34  1  0  0  0  0
 35 33  2  0  0  0  0
 36 34  1  6  0  0  0
 37 43  1  0  0  0  0
 37 39  1  0  0  0  0
 38 37  1  0  0  0  0
 40 36  1  6  0  0  0
 40 38  1  0  0  0  0
 40 41  1  0  0  0  0
 41 43  1  0  0  0  0
 42 37  1  0  0  0  0
 44 48  1  0  0  0  0
 45 47  1  0  0  0  0
 46 45  2  0  0  0  0
 47 36  1  0  0  0  0
 48 45  1  0  0  0  0
M  END
>  <MODEL>
4

>  <REMARK>
 VINA RESULT:      -6.6      3.087      6.085
  Name = 
  9 active torsions:
  status: ('A' for Active; 'I' for Inactive)
    1  A    between atoms: O_3  and  C_16
    2  A    between atoms: O_3  and  C_29
    3  A    between atoms: N_7  and  C_38
    4  A    between atoms: C_12  and  C_30
    5  A    between atoms: C_15  and  C_20
    6  A    between atoms: C_26  and  C_46
    7  A    between atoms: C_33  and  N_35
    8  A    between atoms: C_33  and  C_36
    9  A    between atoms: C_33  and  N_44
                            x       y       z     vdW  Elec       q    Type
                         _______ _______ _______ _____ _____    ______ ____

>  <TORSDO>
F 9

$$$$
=
 OpenBabel11042423073D

 48 53  0  0  1  0  0  0  0  0999 V2000
  161.2640  209.2580  151.1050 C   0  0  0  0  0  2  0  0  0  0  0  0
  161.2400  210.7080  151.1240 N   0  0  0  0  0  0  0  0  0  0  0  0
  160.0840  208.0190  152.7850 O   0  0  0  0  0  0  0  0  0  0  0  0
  159.9420  210.2020  154.1690 F   0  0  0  0  0  0  0  0  0  0  0  0
  162.2060  210.1460  154.3050 F   0  0  0  0  0  0  0  0  0  0  0  0
  161.1220  210.1200  153.4480 C   0  0  0  0  0  0  0  0  0  0  0  0
  161.1710  208.8850  152.5630 C   0  0  2  0  0  0  0  0  0  0  0  0
  161.3600  207.5170  153.1200 C   0  0  2  0  0  3  0  0  0  0  0  0
  161.2100  211.2820  152.4670 C   0  0  0  0  0  2  0  0  0  0  0  0
  162.4940  213.8170  146.5990 O   0  0  0  0  0  1  0  0  0  0  0  0
  160.7710  212.6860  149.6710 C   0  0  0  0  0  0  0  0  0  0  0  0
  162.1570  213.0450  147.7010 C   0  0  0  0  0  0  0  0  0  0  0  0
  161.1280  213.4520  148.5520 C   0  0  0  0  0  3  0  0  0  0  0  0
  161.4880  211.4910  149.9460 C   0  0  0  0  0  0  0  0  0  0  0  0
  162.8380  211.8570  147.9540 C   0  0  0  0  0  3  0  0  0  0  0  0
  162.5070  211.0870  149.0690 C   0  0  0  0  0  3  0  0  0  0  0  0
  157.2170  213.4490  150.7300 C   0  0  0  0  0  3  0  0  0  0  0  0
  157.4140  214.0240  151.9950 C   0  0  0  0  0  0  0  0  0  0  0  0
  159.8080  213.7110  151.7350 C   0  0  0  0  0  3  0  0  0  0  0  0
  159.6100  213.1260  150.4760 C   0  0  0  0  0  0  0  0  0  0  0  0
  158.7160  214.1490  152.4890 C   0  0  0  0  0  3  0  0  0  0  0  0
  158.3060  213.0110  149.9740 C   0  0  0  0  0  3  0  0  0  0  0  0
  156.3500  214.4530  152.8050 O   0  0  0  0  0  0  0  0  0  0  0  0
  156.8730  213.1030  154.6910 N   0  0  0  0  0  0  0  0  0  0  0  0
  156.6460  212.6250  155.9460 C   0  0  0  0  0  0  0  0  0  0  0  0
  154.9060  214.4480  154.7950 C   0  0  0  0  0  3  0  0  0  0  0  0
  155.5260  213.0500  156.6630 C   0  0  0  0  0  3  0  0  0  0  0  0
  156.0350  213.9950  154.0940 C   0  0  0  0  0  0  0  0  0  0  0  0
  154.6530  213.9690  156.0810 C   0  0  0  0  0  3  0  0  0  0  0  0
  158.8230  212.2100  156.7420 F   0  0  0  0  0  0  0  0  0  0  0  0
  157.6980  210.5330  155.7250 F   0  0  0  0  0  0  0  0  0  0  0  0
  157.5790  211.6350  156.5520 C   0  0  0  0  0  3  0  0  0  0  0  0
  163.0670  206.2730  152.0180 O   0  0  0  0  0  0  0  0  0  0  0  0
  160.9200  205.9790  151.1460 N   0  0  0  0  0  2  0  0  0  0  0  0
  161.8400  206.5560  152.0770 C   0  0  0  0  0  0  0  0  0  0  0  0
  161.3580  205.2310  149.9760 C   0  0  2  0  0  3  0  0  0  0  0  0
  161.2870  205.9010  146.2920 C   0  0  0  0  0  0  0  0  0  0  0  0
  160.8150  205.1000  147.4910 C   0  0  0  0  0  2  0  0  0  0  0  0
  160.1200  206.2010  145.3750 C   0  0  0  0  0  1  0  0  0  0  0  0
  160.9900  206.0020  148.7010 C   0  0  2  0  0  3  0  0  0  0  0  0
  162.0350  207.0240  148.3160 C   0  0  0  0  0  2  0  0  0  0  0  0
  162.3430  205.1180  145.5380 C   0  0  0  0  0  1  0  0  0  0  0  0
  161.8790  207.1980  146.8210 C   0  0  0  0  0  2  0  0  0  0  0  0
  160.9360  200.4500  148.4020 C   0  0  0  0  0  1  0  0  0  0  0  0
  161.2230  202.8220  149.1970 C   0  0  0  0  0  0  0  0  0  0  0  0
  162.2600  202.9570  148.4910 O   0  0  0  0  0  0  0  0  0  0  0  0
  160.7440  203.9080  149.9920 N   0  0  0  0  0  2  0  0  0  0  0  0
  160.5180  201.5820  149.2110 N   0  0  0  0  0  2  0  0  0  0  0  0
  1  2  1  0  0  0  0
  2  9  1  0  0  0  0
  3  8  1  0  0  0  0
  6  4  1  0  0  0  0
  6  5  1  0  0  0  0
  7  1  1  6  0  0  0
  7  3  1  0  0  0  0
  7  8  1  0  0  0  0
  7  6  1  0  0  0  0
  8 35  1  6  0  0  0
  9  6  1  0  0  0  0
 10 12  1  0  0  0  0
 11 14  1  0  0  0  0
 11 20  1  0  0  0  0
 12 15  2  0  0  0  0
 12 13  1  0  0  0  0
 13 11  2  0  0  0  0
 14  2  1  0  0  0  0
 15 16  1  0  0  0  0
 16 14  2  0  0  0  0
 17 18  1  0  0  0  0
 18 21  2  0  0  0  0
 18 23  1  0  0  0  0
 19 21  1  0  0  0  0
 20 19  2  0  0  0  0
 22 20  1  0  0  0  0
 22 17  2  0  0  0  0
 23 28  1  0  0  0  0
 24 25  1  0  0  0  0
 25 32  1  0  0  0  0
 25 27  2  0  0  0  0
 26 29  2  0  0  0  0
 28 24  2  0  0  0  0
 28 26  1  0  0  0  0
 29 27  1  0  0  0  0
 31 32  1  0  0  0  0
 32 30  1  0  0  0  0
 33 35  2  0  0  0  0
 34 35  1  0  0  0  0
 36 47  1  6  0  0  0
 36 34  1  0  0  0  0
 37 43  1  0  0  0  0
 37 38  1  0  0  0  0
 38 40  1  0  0  0  0
 39 37  1  0  0  0  0
 40 36  1  1  0  0  0
 41 40  1  0  0  0  0
 42 37  1  0  0  0  0
 43 41  1  0  0  0  0
 44 48  1  0  0  0  0
 45 48  1  0  0  0  0
 45 47  1  0  0  0  0
 46 45  2  0  0  0  0
M  END
>  <MODEL>
5

>  <REMARK>
 VINA RESULT:      -6.6      3.317      9.356
  Name = 
  9 active torsions:
  status: ('A' for Active; 'I' for Inactive)
    1  A    between atoms: O_3  and  C_16
    2  A    between atoms: O_3  and  C_29
    3  A    between atoms: N_7  and  C_38
    4  A    between atoms: C_12  and  C_30
    5  A    between atoms: C_15  and  C_20
    6  A    between atoms: C_26  and  C_46
    7  A    between atoms: C_33  and  N_35
    8  A    between atoms: C_33  and  C_36
    9  A    between atoms: C_33  and  N_44
                            x       y       z     vdW  Elec       q    Type
                         _______ _______ _______ _____ _____    ______ ____

>  <TORSDO>
F 9

$$$$
=
 OpenBabel11042423073D

 48 53  0  0  1  0  0  0  0  0999 V2000
  160.7210  211.8810  148.0640 C   0  0  0  0  0  2  0  0  0  0  0  0
  160.3630  212.9770  147.1840 N   0  0  0  0  0  0  0  0  0  0  0  0
  162.7310  212.0000  149.3660 O   0  0  0  0  0  0  0  0  0  0  0  0
  163.5030  213.9380  147.8340 F   0  0  0  0  0  0  0  0  0  0  0  0
  163.5190  212.4490  146.1230 F   0  0  0  0  0  0  0  0  0  0  0  0
  162.7620  212.9940  147.1430 C   0  0  0  0  0  0  0  0  0  0  0  0
  162.2290  211.9010  148.0540 C   0  0  2  0  0  0  0  0  0  0  0  0
  163.1110  210.8520  148.6360 C   0  0  2  0  0  3  0  0  0  0  0  0
  161.5090  213.6410  146.5680 C   0  0  0  0  0  2  0  0  0  0  0  0
  155.1580  214.0870  145.3440 O   0  0  0  0  0  1  0  0  0  0  0  0
  158.0050  213.6520  147.6640 C   0  0  0  0  0  0  0  0  0  0  0  0
  156.4280  213.7900  145.8140 C   0  0  0  0  0  0  0  0  0  0  0  0
  156.7270  213.9480  147.1680 C   0  0  0  0  0  3  0  0  0  0  0  0
  159.0090  213.2080  146.7640 C   0  0  0  0  0  0  0  0  0  0  0  0
  157.4050  213.3240  144.9360 C   0  0  0  0  0  3  0  0  0  0  0  0
  158.6860  213.0370  145.4080 C   0  0  0  0  0  3  0  0  0  0  0  0
  157.4570  213.4250  151.4030 C   0  0  0  0  0  3  0  0  0  0  0  0
  158.6360  214.0010  151.9000 C   0  0  0  0  0  0  0  0  0  0  0  0
  159.4000  214.3360  149.6200 C   0  0  0  0  0  3  0  0  0  0  0  0
  158.2260  213.7510  149.1240 C   0  0  0  0  0  0  0  0  0  0  0  0
  159.6040  214.4530  150.9970 C   0  0  0  0  0  3  0  0  0  0  0  0
  157.2500  213.3080  150.0280 C   0  0  0  0  0  3  0  0  0  0  0  0
  158.9020  214.1140  153.2740 O   0  0  0  0  0  0  0  0  0  0  0  0
  159.9320  212.2830  154.3890 N   0  0  0  0  0  0  0  0  0  0  0  0
  159.9600  211.2770  155.3060 C   0  0  0  0  0  0  0  0  0  0  0  0
  157.7180  212.8840  155.0440 C   0  0  0  0  0  3  0  0  0  0  0  0
  158.8510  211.0450  156.1220 C   0  0  0  0  0  3  0  0  0  0  0  0
  158.8450  213.0880  154.2300 C   0  0  0  0  0  0  0  0  0  0  0  0
  157.7250  211.8580  155.9890 C   0  0  0  0  0  3  0  0  0  0  0  0
  162.0110  210.9110  156.4030 F   0  0  0  0  0  0  0  0  0  0  0  0
  161.8290  210.3500  154.2210 F   0  0  0  0  0  0  0  0  0  0  0  0
  161.1640  210.4090  155.4320 C   0  0  0  0  0  3  0  0  0  0  0  0
  161.4320  209.8000  149.9600 O   0  0  0  0  0  0  0  0  0  0  0  0
  162.6100  208.3630  148.5450 N   0  0  0  0  0  2  0  0  0  0  0  0
  162.3290  209.6570  149.0860 C   0  0  0  0  0  0  0  0  0  0  0  0
  162.0510  207.1410  149.1090 C   0  0  2  0  0  3  0  0  0  0  0  0
  161.6580  204.8920  146.1410 C   0  0  0  0  0  0  0  0  0  0  0  0
  161.9550  205.0800  147.6170 C   0  0  0  0  0  2  0  0  0  0  0  0
  160.7660  203.6850  145.9400 C   0  0  0  0  0  1  0  0  0  0  0  0
  161.2790  206.3770  148.0250 C   0  0  2  0  0  3  0  0  0  0  0  0
  161.1080  207.1800  146.7560 C   0  0  0  0  0  2  0  0  0  0  0  0
  162.9540  204.7030  145.3780 C   0  0  0  0  0  1  0  0  0  0  0  0
  160.9500  206.1480  145.6600 C   0  0  0  0  0  2  0  0  0  0  0  0
  160.8340  207.0950  154.0110 C   0  0  0  0  0  1  0  0  0  0  0  0
  161.5130  207.1420  151.5860 C   0  0  0  0  0  0  0  0  0  0  0  0
  162.6120  206.5870  151.8590 O   0  0  0  0  0  0  0  0  0  0  0  0
  161.1900  207.4810  150.2360 N   0  0  0  0  0  2  0  0  0  0  0  0
  160.5790  207.4410  152.6230 N   0  0  0  0  0  2  0  0  0  0  0  0
  2  1  1  0  0  0  0
  5  6  1  0  0  0  0
  6  4  1  0  0  0  0
  6  7  1  0  0  0  0
  7  1  1  6  0  0  0
  7  8  1  0  0  0  0
  7  3  1  0  0  0  0
  8 35  1  1  0  0  0
  8  3  1  0  0  0  0
  9  6  1  0  0  0  0
  9  2  1  0  0  0  0
 10 12  1  0  0  0  0
 11 20  1  0  0  0  0
 12 13  2  0  0  0  0
 13 11  1  0  0  0  0
 14  2  1  0  0  0  0
 14 11  2  0  0  0  0
 15 16  2  0  0  0  0
 15 12  1  0  0  0  0
 16 14  1  0  0  0  0
 17 18  1  0  0  0  0
 18 23  1  0  0  0  0
 19 21  1  0  0  0  0
 20 19  2  0  0  0  0
 20 22  1  0  0  0  0
 21 18  2  0  0  0  0
 22 17  2  0  0  0  0
 23 28  1  0  0  0  0
 24 25  1  0  0  0  0
 25 32  1  0  0  0  0
 25 27  2  0  0  0  0
 26 29  2  0  0  0  0
 28 24  2  0  0  0  0
 28 26  1  0  0  0  0
 29 27  1  0  0  0  0
 31 32  1  0  0  0  0
 32 30  1  0  0  0  0
 34 35  1  0  0  0  0
 35 33  2  0  0  0  0
 36 34  1  6  0  0  0
 36 47  1  0  0  0  0
 37 38  1  0  0  0  0
 38 40  1  0  0  0  0
 39 37  1  0  0  0  0
 40 36  1  1  0  0  0
 41 40  1  0  0  0  0
 42 37  1  0  0  0  0
 43 37  1  0  0  0  0
 43 41  1  0  0  0  0
 45 46  2  0  0  0  0
 45 48  1  0  0  0  0
 47 45  1  0  0  0  0
 48 44  1  0  0  0  0
M  END
>  <MODEL>
6

>  <REMARK>
 VINA RESULT:      -6.4      3.946      9.261
  Name = 
  9 active torsions:
  status: ('A' for Active; 'I' for Inactive)
    1  A    between atoms: O_3  and  C_16
    2  A    between atoms: O_3  and  C_29
    3  A    between atoms: N_7  and  C_38
    4  A    between atoms: C_12  and  C_30
    5  A    between atoms: C_15  and  C_20
    6  A    between atoms: C_26  and  C_46
    7  A    between atoms: C_33  and  N_35
    8  A    between atoms: C_33  and  C_36
    9  A    between atoms: C_33  and  N_44
                            x       y       z     vdW  Elec       q    Type
                         _______ _______ _______ _____ _____    ______ ____

>  <TORSDO>
F 9

$$$$
=
 OpenBabel11042423073D

 48 53  0  0  1  0  0  0  0  0999 V2000
  160.8200  210.8090  147.6270 C   0  0  0  0  0  2  0  0  0  0  0  0
  160.9390  212.1450  147.0740 N   0  0  0  0  0  0  0  0  0  0  0  0
  161.9380  210.2580  149.6750 O   0  0  0  0  0  0  0  0  0  0  0  0
  163.3640  212.3950  149.3700 F   0  0  0  0  0  0  0  0  0  0  0  0
  164.2110  211.4430  147.4920 F   0  0  0  0  0  0  0  0  0  0  0  0
  163.0530  211.8010  148.1580 C   0  0  0  0  0  0  0  0  0  0  0  0
  162.1400  210.5980  148.3240 C   0  0  2  0  0  0  0  0  0  0  0  0
  162.6230  209.3070  148.8880 C   0  0  2  0  0  3  0  0  0  0  0  0
  162.2420  212.7660  147.3020 C   0  0  0  0  0  2  0  0  0  0  0  0
  157.3390  214.4210  143.3910 O   0  0  0  0  0  1  0  0  0  0  0  0
  158.8780  213.4820  146.6210 C   0  0  0  0  0  0  0  0  0  0  0  0
  158.2030  213.8420  144.3090 C   0  0  0  0  0  0  0  0  0  0  0  0
  158.0170  214.0590  145.6750 C   0  0  0  0  0  3  0  0  0  0  0  0
  159.9650  212.6870  146.1690 C   0  0  0  0  0  0  0  0  0  0  0  0
  159.2500  213.0370  143.8690 C   0  0  0  0  0  3  0  0  0  0  0  0
  160.1250  212.4650  144.7930 C   0  0  0  0  0  3  0  0  0  0  0  0
  157.0110  213.5520  149.9140 C   0  0  0  0  0  3  0  0  0  0  0  0
  157.9730  214.1020  150.7750 C   0  0  0  0  0  0  0  0  0  0  0  0
  159.5250  214.2340  148.9130 C   0  0  0  0  0  3  0  0  0  0  0  0
  158.5680  213.6740  148.0550 C   0  0  0  0  0  0  0  0  0  0  0  0
  159.2300  214.4390  150.2630 C   0  0  0  0  0  3  0  0  0  0  0  0
  157.3030  213.3470  148.5640 C   0  0  0  0  0  3  0  0  0  0  0  0
  157.7360  214.3000  152.1450 O   0  0  0  0  0  0  0  0  0  0  0  0
  158.7570  212.6100  153.4700 N   0  0  0  0  0  0  0  0  0  0  0  0
  158.7470  211.6450  154.4310 C   0  0  0  0  0  0  0  0  0  0  0  0
  156.4350  213.0370  153.8050 C   0  0  0  0  0  3  0  0  0  0  0  0
  157.5630  211.3470  155.1080 C   0  0  0  0  0  3  0  0  0  0  0  0
  157.6380  213.3090  153.1340 C   0  0  0  0  0  0  0  0  0  0  0  0
  156.4010  212.0510  154.7920 C   0  0  0  0  0  3  0  0  0  0  0  0
  161.0600  211.7640  154.8510 F   0  0  0  0  0  0  0  0  0  0  0  0
  160.2440  209.9580  153.7640 F   0  0  0  0  0  0  0  0  0  0  0  0
  159.9910  210.8920  154.7520 C   0  0  0  0  0  3  0  0  0  0  0  0
  160.8700  208.3270  147.6060 O   0  0  0  0  0  0  0  0  0  0  0  0
  161.8020  206.9260  149.2260 N   0  0  0  0  0  2  0  0  0  0  0  0
  161.7190  208.1700  148.5250 C   0  0  0  0  0  0  0  0  0  0  0  0
  160.8030  205.8770  149.0790 C   0  0  2  0  0  3  0  0  0  0  0  0
  160.7960  202.1860  149.7100 C   0  0  0  0  0  0  0  0  0  0  0  0
  160.8380  203.3530  148.7410 C   0  0  0  0  0  2  0  0  0  0  0  0
  161.7810  201.1190  149.2800 C   0  0  0  0  0  1  0  0  0  0  0  0
  161.3950  204.5320  149.5210 C   0  0  2  0  0  3  0  0  0  0  0  0
  161.1370  204.2320  150.9790 C   0  0  0  0  0  2  0  0  0  0  0  0
  159.3970  201.6050  149.7500 C   0  0  0  0  0  1  0  0  0  0  0  0
  161.1760  202.7220  151.0800 C   0  0  0  0  0  2  0  0  0  0  0  0
  161.6020  205.5530  144.1020 C   0  0  0  0  0  1  0  0  0  0  0  0
  161.2500  205.6520  146.5940 C   0  0  0  0  0  0  0  0  0  0  0  0
  162.4790  205.4550  146.7990 O   0  0  0  0  0  0  0  0  0  0  0  0
  160.3530  205.8300  147.6920 N   0  0  0  0  0  2  0  0  0  0  0  0
  160.7390  205.6970  145.2620 N   0  0  0  0  0  2  0  0  0  0  0  0
  2  9  1  0  0  0  0
  2  1  1  0  0  0  0
  5  6  1  0  0  0  0
  6  7  1  0  0  0  0
  6  4  1  0  0  0  0
  7  1  1  6  0  0  0
  7  8  1  0  0  0  0
  7  3  1  0  0  0  0
  8 35  1  6  0  0  0
  8  3  1  0  0  0  0
  9  6  1  0  0  0  0
 10 12  1  0  0  0  0
 11 20  1  0  0  0  0
 12 13  1  0  0  0  0
 13 11  2  0  0  0  0
 14 11  1  0  0  0  0
 14  2  1  0  0  0  0
 15 12  2  0  0  0  0
 15 16  1  0  0  0  0
 16 14  2  0  0  0  0
 17 18  1  0  0  0  0
 18 23  1  0  0  0  0
 19 21  1  0  0  0  0
 20 22  1  0  0  0  0
 20 19  2  0  0  0  0
 21 18  2  0  0  0  0
 22 17  2  0  0  0  0
 23 28  1  0  0  0  0
 24 25  1  0  0  0  0
 25 32  1  0  0  0  0
 25 27  2  0  0  0  0
 26 29  2  0  0  0  0
 28 24  2  0  0  0  0
 28 26  1  0  0  0  0
 29 27  1  0  0  0  0
 31 32  1  0  0  0  0
 32 30  1  0  0  0  0
 33 35  2  0  0  0  0
 35 34  1  0  0  0  0
 36 47  1  6  0  0  0
 36 34  1  0  0  0  0
 37 42  1  0  0  0  0
 37 43  1  0  0  0  0
 38 40  1  0  0  0  0
 38 37  1  0  0  0  0
 39 37  1  0  0  0  0
 40 36  1  6  0  0  0
 40 41  1  0  0  0  0
 41 43  1  0  0  0  0
 44 48  1  0  0  0  0
 45 46  2  0  0  0  0
 45 47  1  0  0  0  0
 48 45  1  0  0  0  0
M  END
>  <MODEL>
7

>  <REMARK>
 VINA RESULT:      -5.9      3.826      9.556
  Name = 
  9 active torsions:
  status: ('A' for Active; 'I' for Inactive)
    1  A    between atoms: O_3  and  C_16
    2  A    between atoms: O_3  and  C_29
    3  A    between atoms: N_7  and  C_38
    4  A    between atoms: C_12  and  C_30
    5  A    between atoms: C_15  and  C_20
    6  A    between atoms: C_26  and  C_46
    7  A    between atoms: C_33  and  N_35
    8  A    between atoms: C_33  and  C_36
    9  A    between atoms: C_33  and  N_44
                            x       y       z     vdW  Elec       q    Type
                         _______ _______ _______ _____ _____    ______ ____

>  <TORSDO>
F 9

$$$$
=
 OpenBabel11042423073D

 48 53  0  0  1  0  0  0  0  0999 V2000
  161.8410  209.4270  152.5650 C   0  0  0  0  0  2  0  0  0  0  0  0
  161.8710  208.9900  151.1820 N   0  0  0  0  0  0  0  0  0  0  0  0
  162.5190  207.9260  154.3080 O   0  0  0  0  0  0  0  0  0  0  0  0
  162.3020  205.9900  152.6050 F   0  0  0  0  0  0  0  0  0  0  0  0
  160.0840  206.4560  152.5060 F   0  0  0  0  0  0  0  0  0  0  0  0
  161.3580  206.9800  152.3880 C   0  0  0  0  0  0  0  0  0  0  0  0
  161.5370  208.1620  153.3270 C   0  0  2  0  0  0  0  0  0  0  0  0
  161.1960  208.0850  154.7740 C   0  0  2  0  0  3  0  0  0  0  0  0
  161.5440  207.5780  151.0000 C   0  0  0  0  0  2  0  0  0  0  0  0
  161.9620  212.7790  147.0170 O   0  0  0  0  0  1  0  0  0  0  0  0
  161.7930  209.5090  148.7390 C   0  0  0  0  0  0  0  0  0  0  0  0
  161.9660  211.8330  148.0320 C   0  0  0  0  0  0  0  0  0  0  0  0
  161.7920  210.4830  147.7280 C   0  0  0  0  0  3  0  0  0  0  0  0
  161.9540  209.9190  150.0890 C   0  0  0  0  0  0  0  0  0  0  0  0
  162.1550  212.2300  149.3530 C   0  0  0  0  0  3  0  0  0  0  0  0
  162.1470  211.2800  150.3740 C   0  0  0  0  0  3  0  0  0  0  0  0
  162.7390  206.0440  147.5430 C   0  0  0  0  0  3  0  0  0  0  0  0
  161.4920  205.3990  147.5230 C   0  0  0  0  0  0  0  0  0  0  0  0
  160.4510  207.4480  148.3090 C   0  0  0  0  0  3  0  0  0  0  0  0
  161.6980  208.0880  148.3400 C   0  0  0  0  0  0  0  0  0  0  0  0
  160.3520  206.1120  147.9100 C   0  0  0  0  0  3  0  0  0  0  0  0
  162.8390  207.3790  147.9400 C   0  0  0  0  0  3  0  0  0  0  0  0
  161.3430  204.0520  147.1590 O   0  0  0  0  0  0  0  0  0  0  0  0
  161.2380  203.1790  149.3690 N   0  0  0  0  0  0  0  0  0  0  0  0
  161.0980  202.1710  150.2730 C   0  0  0  0  0  0  0  0  0  0  0  0
  161.0150  201.6470  147.5540 C   0  0  0  0  0  3  0  0  0  0  0  0
  160.9140  200.8590  149.8340 C   0  0  0  0  0  3  0  0  0  0  0  0
  161.2090  202.9560  148.0260 C   0  0  0  0  0  0  0  0  0  0  0  0
  160.8710  200.5990  148.4640 C   0  0  0  0  0  3  0  0  0  0  0  0
  160.0850  203.2510  152.1040 F   0  0  0  0  0  0  0  0  0  0  0  0
  162.3400  203.1090  152.0370 F   0  0  0  0  0  0  0  0  0  0  0  0
  161.1570  202.4600  151.7340 C   0  0  0  0  0  3  0  0  0  0  0  0
  161.8190  209.8550  156.2420 O   0  0  0  0  0  0  0  0  0  0  0  0
  159.9000  210.2610  154.9750 N   0  0  0  0  0  2  0  0  0  0  0  0
  161.0050  209.4450  155.3720 C   0  0  0  0  0  0  0  0  0  0  0  0
  159.5330  211.4800  155.6840 C   0  0  2  0  0  3  0  0  0  0  0  0
  155.7900  211.3830  155.6460 C   0  0  0  0  0  0  0  0  0  0  0  0
  157.1250  210.7420  155.3130 C   0  0  0  0  0  2  0  0  0  0  0  0
  154.8330  210.3400  156.1850 C   0  0  0  0  0  1  0  0  0  0  0  0
  158.1320  211.3240  156.2890 C   0  0  2  0  0  3  0  0  0  0  0  0
  157.5510  212.6380  156.7600 C   0  0  0  0  0  2  0  0  0  0  0  0
  155.2040  212.0210  154.4030 C   0  0  0  0  0  1  0  0  0  0  0  0
  156.0510  212.4440  156.7020 C   0  0  0  0  0  2  0  0  0  0  0  0
  159.2730  213.5500  151.0840 C   0  0  0  0  0  1  0  0  0  0  0  0
  159.3340  212.4820  153.3640 C   0  0  0  0  0  0  0  0  0  0  0  0
  158.9690  211.3750  152.8810 O   0  0  0  0  0  0  0  0  0  0  0  0
  159.5930  212.6100  154.7630 N   0  0  0  0  0  2  0  0  0  0  0  0
  159.4900  213.6210  152.5190 N   0  0  0  0  0  2  0  0  0  0  0  0
  2  1  1  0  0  0  0
  3  8  1  0  0  0  0
  6  5  1  0  0  0  0
  6  4  1  0  0  0  0
  6  7  1  0  0  0  0
  7  1  1  6  0  0  0
  7  3  1  0  0  0  0
  7  8  1  0  0  0  0
  8 35  1  1  0  0  0
  9  2  1  0  0  0  0
  9  6  1  0  0  0  0
 10 12  1  0  0  0  0
 11 14  1  0  0  0  0
 12 15  2  0  0  0  0
 13 12  1  0  0  0  0
 13 11  2  0  0  0  0
 14 16  2  0  0  0  0
 14  2  1  0  0  0  0
 15 16  1  0  0  0  0
 17 22  1  0  0  0  0
 18 17  2  0  0  0  0
 18 21  1  0  0  0  0
 19 20  1  0  0  0  0
 20 11  1  0  0  0  0
 21 19  2  0  0  0  0
 22 20  2  0  0  0  0
 23 18  1  0  0  0  0
 23 28  1  0  0  0  0
 24 25  1  0  0  0  0
 25 32  1  0  0  0  0
 26 28  1  0  0  0  0
 26 29  2  0  0  0  0
 27 25  2  0  0  0  0
 28 24  2  0  0  0  0
 29 27  1  0  0  0  0
 32 31  1  0  0  0  0
 32 30  1  0  0  0  0
 34 35  1  0  0  0  0
 34 36  1  0  0  0  0
 35 33  2  0  0  0  0
 36 47  1  6  0  0  0
 37 39  1  0  0  0  0
 37 43  1  0  0  0  0
 38 37  1  0  0  0  0
 38 40  1  0  0  0  0
 40 36  1  6  0  0  0
 40 41  1  0  0  0  0
 42 37  1  0  0  0  0
 43 41  1  0  0  0  0
 44 48  1  0  0  0  0
 45 47  1  0  0  0  0
 46 45  2  0  0  0  0
 48 45  1  0  0  0  0
M  END
>  <MODEL>
8

>  <REMARK>
 VINA RESULT:      -5.6      1.850      2.828
  Name = 
  9 active torsions:
  status: ('A' for Active; 'I' for Inactive)
    1  A    between atoms: O_3  and  C_16
    2  A    between atoms: O_3  and  C_29
    3  A    between atoms: N_7  and  C_38
    4  A    between atoms: C_12  and  C_30
    5  A    between atoms: C_15  and  C_20
    6  A    between atoms: C_26  and  C_46
    7  A    between atoms: C_33  and  N_35
    8  A    between atoms: C_33  and  C_36
    9  A    between atoms: C_33  and  N_44
                            x       y       z     vdW  Elec       q    Type
                         _______ _______ _______ _____ _____    ______ ____

>  <TORSDO>
F 9

$$$$
=
 OpenBabel11042423073D

 48 53  0  0  1  0  0  0  0  0999 V2000
  161.6140  205.4590  150.6910 C   0  0  0  0  0  2  0  0  0  0  0  0
  161.2730  204.2090  150.0390 N   0  0  0  0  0  0  0  0  0  0  0  0
  162.4990  205.4440  152.9190 O   0  0  0  0  0  0  0  0  0  0  0  0
  161.6730  203.0010  153.1360 F   0  0  0  0  0  0  0  0  0  0  0  0
  159.5610  203.7990  152.9150 F   0  0  0  0  0  0  0  0  0  0  0  0
  160.8250  203.7680  152.3550 C   0  0  0  0  0  0  0  0  0  0  0  0
  161.3510  205.1790  152.1490 C   0  0  2  0  0  0  0  0  0  0  0  0
  161.3460  206.1950  153.2370 C   0  0  2  0  0  3  0  0  0  0  0  0
  160.7530  203.1900  150.9470 C   0  0  0  0  0  2  0  0  0  0  0  0
  161.2350  203.5230  144.4490 O   0  0  0  0  0  1  0  0  0  0  0  0
  161.4550  205.1860  147.7470 C   0  0  0  0  0  0  0  0  0  0  0  0
  161.2190  203.7100  145.8240 C   0  0  0  0  0  0  0  0  0  0  0  0
  161.4670  204.9750  146.3590 C   0  0  0  0  0  3  0  0  0  0  0  0
  161.2070  204.0860  148.6090 C   0  0  0  0  0  0  0  0  0  0  0  0
  160.9440  202.6390  146.6700 C   0  0  0  0  0  3  0  0  0  0  0  0
  160.9410  202.8250  148.0520 C   0  0  0  0  0  3  0  0  0  0  0  0
  160.8100  208.4920  149.4760 C   0  0  0  0  0  3  0  0  0  0  0  0
  161.9560  209.2240  149.1300 C   0  0  0  0  0  0  0  0  0  0  0  0
  162.7720  207.3030  147.8870 C   0  0  0  0  0  3  0  0  0  0  0  0
  161.6320  206.5690  148.2430 C   0  0  0  0  0  0  0  0  0  0  0  0
  162.9340  208.6180  148.3330 C   0  0  0  0  0  3  0  0  0  0  0  0
  160.6460  207.1790  149.0300 C   0  0  0  0  0  3  0  0  0  0  0  0
  162.1800  210.5350  149.5770 O   0  0  0  0  0  0  0  0  0  0  0  0
  160.8240  212.2610  148.6610 N   0  0  0  0  0  0  0  0  0  0  0  0
  160.6280  213.4100  147.9580 C   0  0  0  0  0  0  0  0  0  0  0  0
  163.1730  212.3590  148.2600 C   0  0  0  0  0  3  0  0  0  0  0  0
  161.7140  214.0680  147.3790 C   0  0  0  0  0  3  0  0  0  0  0  0
  162.0600  211.7140  148.8230 C   0  0  0  0  0  0  0  0  0  0  0  0
  162.9940  213.5370  147.5340 C   0  0  0  0  0  3  0  0  0  0  0  0
  158.3140  212.9920  148.0870 F   0  0  0  0  0  0  0  0  0  0  0  0
  159.0790  214.3970  146.4890 F   0  0  0  0  0  0  0  0  0  0  0  0
  159.2540  213.9620  147.7900 C   0  0  0  0  0  3  0  0  0  0  0  0
  162.3550  207.8520  151.8530 O   0  0  0  0  0  0  0  0  0  0  0  0
  160.5650  208.6110  153.1480 N   0  0  0  0  0  2  0  0  0  0  0  0
  161.4570  207.5870  152.6970 C   0  0  0  0  0  0  0  0  0  0  0  0
  160.7720  210.0200  152.8390 C   0  0  2  0  0  3  0  0  0  0  0  0
  162.2630  210.2810  156.2640 C   0  0  0  0  0  0  0  0  0  0  0  0
  162.4140  209.9760  154.7850 C   0  0  0  0  0  2  0  0  0  0  0  0
  163.4540  211.0780  156.7540 C   0  0  0  0  0  1  0  0  0  0  0  0
  161.3120  210.7470  154.0780 C   0  0  2  0  0  3  0  0  0  0  0  0
  160.2440  211.0010  155.1160 C   0  0  0  0  0  2  0  0  0  0  0  0
  162.1580  208.9870  157.0450 C   0  0  0  0  0  1  0  0  0  0  0  0
  160.9900  211.0940  156.4300 C   0  0  0  0  0  2  0  0  0  0  0  0
  157.9180  213.8740  151.2570 C   0  0  0  0  0  1  0  0  0  0  0  0
  159.3950  211.9720  151.9920 C   0  0  0  0  0  0  0  0  0  0  0  0
  160.4120  212.7170  151.9570 O   0  0  0  0  0  0  0  0  0  0  0  0
  159.5150  210.6040  152.3860 N   0  0  0  0  0  2  0  0  0  0  0  0
  158.1120  212.4850  151.6360 N   0  0  0  0  0  2  0  0  0  0  0  0
  2  1  1  0  0  0  0
  2  9  1  0  0  0  0
  3  8  1  0  0  0  0
  6  5  1  0  0  0  0
  6  4  1  0  0  0  0
  7  1  1  6  0  0  0
  7  6  1  0  0  0  0
  7  3  1  0  0  0  0
  7  8  1  0  0  0  0
  8 35  1  6  0  0  0
  9  6  1  0  0  0  0
 10 12  1  0  0  0  0
 11 20  1  0  0  0  0
 11 14  1  0  0  0  0
 12 13  1  0  0  0  0
 12 15  2  0  0  0  0
 13 11  2  0  0  0  0
 14  2  1  0  0  0  0
 15 16  1  0  0  0  0
 16 14  2  0  0  0  0
 18 17  1  0  0  0  0
 18 23  1  0  0  0  0
 19 20  2  0  0  0  0
 19 21  1  0  0  0  0
 20 22  1  0  0  0  0
 21 18  2  0  0  0  0
 22 17  2  0  0  0  0
 24 28  2  0  0  0  0
 25 24  1  0  0  0  0
 26 28  1  0  0  0  0
 27 29  1  0  0  0  0
 27 25  2  0  0  0  0
 28 23  1  0  0  0  0
 29 26  2  0  0  0  0
 31 32  1  0  0  0  0
 32 25  1  0  0  0  0
 32 30  1  0  0  0  0
 33 35  2  0  0  0  0
 35 34  1  0  0  0  0
 36 47  1  1  0  0  0
 36 34  1  0  0  0  0
 37 43  1  0  0  0  0
 37 39  1  0  0  0  0
 37 42  1  0  0  0  0
 38 37  1  0  0  0  0
 40 36  1  6  0  0  0
 40 38  1  0  0  0  0
 40 41  1  0  0  0  0
 41 43  1  0  0  0  0
 44 48  1  0  0  0  0
 45 47  1  0  0  0  0
 46 45  2  0  0  0  0
 48 45  1  0  0  0  0
M  END
>  <MODEL>
9

>  <REMARK>
 VINA RESULT:      -5.6      2.929      6.884
  Name = 
  9 active torsions:
  status: ('A' for Active; 'I' for Inactive)
    1  A    between atoms: O_3  and  C_16
    2  A    between atoms: O_3  and  C_29
    3  A    between atoms: N_7  and  C_38
    4  A    between atoms: C_12  and  C_30
    5  A    between atoms: C_15  and  C_20
    6  A    between atoms: C_26  and  C_46
    7  A    between atoms: C_33  and  N_35
    8  A    between atoms: C_33  and  C_36
    9  A    between atoms: C_33  and  N_44
                            x       y       z     vdW  Elec       q    Type
                         _______ _______ _______ _____ _____    ______ ____

>  <TORSDO>
F 9

$$$$
