=
 OpenBabel11052411323D

 58 65  0  0  1  0  0  0  0  0999 V2000
  161.5570  209.0700  149.5930 C   0  0  0  0  0  0  0  0  0  0  0  0
  160.7450  210.4930  152.2670 C   0  0  0  0  0  0  0  0  0  0  0  0
  161.1800  211.0630  151.1250 C   0  0  0  0  0  0  0  0  0  0  0  0
  160.7860  207.9980  151.7380 C   0  0  0  0  0  0  0  0  0  0  0  0
  161.6540  210.3500  149.9360 C   0  0  0  0  0  3  0  0  0  0  0  0
  160.6920  209.0510  152.5430 C   0  0  0  0  0  3  0  0  0  0  0  0
  160.9560  208.0660  150.3510 O   0  0  0  0  0  0  0  0  0  0  0  0
  162.7780  210.4170  156.0970 C   0  0  0  0  0  3  0  0  0  0  0  0
  161.0390  211.2980  154.6580 C   0  0  0  0  0  0  0  0  0  0  0  0
  162.1600  210.4810  154.8490 C   0  0  0  0  0  3  0  0  0  0  0  0
  159.4140  212.8790  155.6130 C   0  0  0  0  0  0  0  0  0  0  0  0
  157.5890  213.6010  153.9290 C   0  0  1  0  0  3  0  0  0  0  0  0
  156.5770  213.4790  155.0500 C   0  0  0  0  0  2  0  0  0  0  0  0
  159.2340  212.1690  153.3320 C   0  0  0  0  0  0  0  0  0  0  0  0
  160.5530  212.0580  155.7660 C   0  0  0  0  0  0  0  0  0  0  0  0
  158.8340  212.9390  154.3510 C   0  0  0  0  0  0  0  0  0  0  0  0
  162.2650  211.1670  157.1560 C   0  0  0  0  0  3  0  0  0  0  0  0
  158.2610  212.2340  152.3180 N   0  0  0  0  0  2  0  0  0  0  0  0
  160.3540  211.3380  153.4150 C   0  0  0  0  0  0  0  0  0  0  0  0
  161.1760  211.9600  156.9730 N   0  0  0  0  0  0  0  0  0  0  0  0
  158.5960  213.6400  157.0400 S   0  0  0  0  0  0  0  0  0  0  0  0
  157.1640  212.9380  152.7390 O   0  0  0  0  0  0  0  0  0  0  0  0
  157.0720  214.3110  156.2310 C   0  0  2  0  0  3  0  0  0  0  0  0
  155.9540  214.4520  157.2520 C   0  0  0  0  0  2  0  0  0  0  0  0
  154.7860  213.5360  156.9250 C   0  0  0  0  0  2  0  0  0  0  0  0
  153.5390  214.2830  156.9610 N   0  0  0  0  0  1  0  0  0  0  0  0
  160.6610  206.7460  152.3490 O   0  0  0  0  0  0  0  0  0  0  0  0
  161.5780  204.8500  153.5690 O   0  0  0  0  0  1  0  0  0  0  0  0
  162.8480  206.0950  152.1360 O   0  0  0  0  0  0  0  0  0  0  0  0
  161.7290  205.9030  152.6760 C   0  0  0  0  0  0  0  0  0  0  0  0
  161.2460  212.5610  151.0010 C   0  0  0  0  0  2  0  0  0  0  0  0
  160.8660  213.0220  149.6290 C   0  0  0  0  0  0  0  0  0  0  0  0
  161.7460  212.8850  148.6280 C   0  0  0  0  0  3  0  0  0  0  0  0
  159.7530  213.0280  144.3360 O   0  0  0  0  0  0  0  0  0  0  0  0
  161.3410  214.4380  145.3080 O   0  0  0  0  0  0  0  0  0  0  0  0
  161.5160  213.2650  147.2630 N   0  0  0  0  0  0  0  0  0  0  0  0
  160.5850  212.6380  146.4750 O   0  0  0  0  0  0  0  0  0  0  0  0
  160.4970  213.3420  145.3000 C   0  0  0  0  0  0  0  0  0  0  0  0
  162.0190  214.4530  146.5660 C   0  0  0  0  0  2  0  0  0  0  0  0
  158.5760  214.2170  149.3440 N   0  0  0  0  0  0  0  0  0  0  0  0
  159.5940  213.6820  149.4690 C   0  0  0  0  0  0  0  0  0  0  0  0
  162.2190  208.6060  147.9980 S   0  0  0  0  0  0  0  0  0  0  0  0
  162.1430  206.8280  148.3760 C   0  0  0  0  0  2  0  0  0  0  0  0
  162.9570  206.0440  147.3630 C   0  0  0  0  0  2  0  0  0  0  0  0
  159.5180  203.0280  144.0520 F   0  0  0  0  0  0  0  0  0  0  0  0
  162.0540  205.2400  146.4920 C   0  0  0  0  0  0  0  0  0  0  0  0
  160.4260  205.1120  144.7060 C   0  0  0  0  0  3  0  0  0  0  0  0
  161.1410  203.0820  145.8450 C   0  0  0  0  0  0  0  0  0  0  0  0
  160.3560  203.7240  144.8600 C   0  0  0  0  0  0  0  0  0  0  0  0
  161.9850  203.8550  146.6520 C   0  0  0  0  0  3  0  0  0  0  0  0
  161.2710  205.8700  145.5190 C   0  0  0  0  0  3  0  0  0  0  0  0
  161.1150  201.6990  146.0690 O   0  0  0  0  0  0  0  0  0  0  0  0
  160.3460  201.0680  147.0840 C   0  0  0  0  0  2  0  0  0  0  0  0
  161.2690  200.4860  148.1400 C   0  0  0  0  0  2  0  0  0  0  0  0
  161.6480  201.5490  149.1600 C   0  0  0  0  0  2  0  0  0  0  0  0
  160.5060  202.4050  149.4380 N   0  0  0  0  0  0  0  0  0  0  0  0
  160.4560  202.5700  150.8990 C   0  0  0  0  0  2  0  0  0  0  0  0
  161.0320  203.6240  150.0750 C   0  0  0  0  0  2  0  0  0  0  0  0
  1  5  2  0  0  0  0
  1  7  1  0  0  0  0
  2  6  1  0  0  0  0
  2 19  1  0  0  0  0
  3  2  2  0  0  0  0
  4 27  1  0  0  0  0
  4  6  2  0  0  0  0
  5  3  1  0  0  0  0
  7  4  1  0  0  0  0
  8 17  1  0  0  0  0
  9 10  1  0  0  0  0
  9 15  1  0  0  0  0
 10  8  2  0  0  0  0
 11 15  2  0  0  0  0
 11 21  1  0  0  0  0
 12 16  1  0  0  0  0
 12 13  1  1  0  0  0
 13 23  1  0  0  0  0
 14 19  1  0  0  0  0
 14 16  2  0  0  0  0
 15 20  1  0  0  0  0
 16 11  1  0  0  0  0
 18 22  1  0  0  0  0
 18 14  1  0  0  0  0
 19  9  2  0  0  0  0
 20 17  2  0  0  0  0
 22 12  1  0  0  0  0
 23 21  1  0  0  0  0
 23 24  1  1  0  0  0
 25 26  1  0  0  0  0
 25 24  1  0  0  0  0
 27 30  1  0  0  0  0
 29 30  2  0  0  0  0
 30 28  1  0  0  0  0
 31  3  1  0  0  0  0
 32 31  1  0  0  0  0
 33 32  2  0  0  0  0
 34 38  2  0  0  0  0
 35 39  1  0  0  0  0
 36 33  1  0  0  0  0
 37 36  1  0  0  0  0
 38 35  1  0  0  0  0
 38 37  1  0  0  0  0
 39 36  1  0  0  0  0
 40 41  3  0  0  0  0
 41 32  1  0  0  0  0
 42 43  1  0  0  0  0
 42  1  1  0  0  0  0
 44 43  1  0  0  0  0
 45 49  1  0  0  0  0
 46 50  1  0  0  0  0
 46 44  1  0  0  0  0
 47 49  2  0  0  0  0
 47 51  1  0  0  0  0
 48 52  1  0  0  0  0
 48 50  2  0  0  0  0
 49 48  1  0  0  0  0
 51 46  2  0  0  0  0
 52 53  1  0  0  0  0
 53 54  1  0  0  0  0
 54 55  1  0  0  0  0
 55 56  1  0  0  0  0
 56 58  1  0  0  0  0
 56 57  1  0  0  0  0
 58 57  1  0  0  0  0
M  END
>  <MODEL>
1

>  <REMARK>
 VINA RESULT:      -5.6      0.000      0.000
  Name = 
  18 active torsions:
  status: ('A' for Active; 'I' for Inactive)
    1  A    between atoms: C_2  and  C_26
    2  A    between atoms: C_2  and  O_36
    3  A    between atoms: N_3  and  C_8
    4  A    between atoms: C_7  and  S_31
    5  A    between atoms: C_8  and  C_26
    6  A    between atoms: C_10  and  C_32
    7  A    between atoms: C_10  and  C_37
    8  A    between atoms: C_11  and  C_54
    9  A    between atoms: C_13  and  N_44
   10  A    between atoms: C_19  and  C_29
   11  A    between atoms: C_22  and  C_29
   12  A    between atoms: C_22  and  S_31
   13  A    between atoms: C_23  and  O_47
   14  A    between atoms: C_27  and  C_43
   15  A    between atoms: C_32  and  C_35
   16  A    between atoms: C_33  and  O_36
   17  A    between atoms: C_38  and  O_47
   18  A    between atoms: C_54  and  C_58
                            x       y       z     vdW  Elec       q    Type
                         _______ _______ _______ _____ _____    ______ ____

>  <TORSDO>
F 18

$$$$
=
 OpenBabel11052411323D

 58 65  0  0  1  0  0  0  0  0999 V2000
  161.5890  208.7790  149.7580 C   0  0  0  0  0  0  0  0  0  0  0  0
  160.7800  210.3170  152.3680 C   0  0  0  0  0  0  0  0  0  0  0  0
  161.2210  210.8360  151.2040 C   0  0  0  0  0  0  0  0  0  0  0  0
  160.8080  207.8020  151.9450 C   0  0  0  0  0  0  0  0  0  0  0  0
  161.6930  210.0710  150.0470 C   0  0  0  0  0  3  0  0  0  0  0  0
  160.7180  208.8890  152.7050 C   0  0  0  0  0  3  0  0  0  0  0  0
  160.9810  207.8100  150.5570 O   0  0  0  0  0  0  0  0  0  0  0  0
  162.9130  210.5180  156.1380 C   0  0  0  0  0  3  0  0  0  0  0  0
  161.1090  211.2630  154.7020 C   0  0  0  0  0  0  0  0  0  0  0  0
  162.2620  210.4930  154.9060 C   0  0  0  0  0  3  0  0  0  0  0  0
  159.4580  212.8430  155.6140 C   0  0  0  0  0  0  0  0  0  0  0  0
  157.5670  213.4120  153.9440 C   0  0  1  0  0  3  0  0  0  0  0  0
  156.5890  213.3210  155.0980 C   0  0  0  0  0  2  0  0  0  0  0  0
  159.2430  212.0020  153.3810 C   0  0  0  0  0  0  0  0  0  0  0  0
  160.6270  212.0680  155.7800 C   0  0  0  0  0  0  0  0  0  0  0  0
  158.8440  212.8140  154.3670 C   0  0  0  0  0  0  0  0  0  0  0  0
  162.4040  211.3100  157.1690 C   0  0  0  0  0  3  0  0  0  0  0  0
  158.2420  211.9800  152.3920 N   0  0  0  0  0  2  0  0  0  0  0  0
  160.3910  211.2120  153.4790 C   0  0  0  0  0  0  0  0  0  0  0  0
  161.2840  212.0570  156.9730 N   0  0  0  0  0  0  0  0  0  0  0  0
  158.6530  213.6570  157.0190 S   0  0  0  0  0  0  0  0  0  0  0  0
  157.1330  212.6720  152.8040 O   0  0  0  0  0  0  0  0  0  0  0  0
  157.0870  214.2330  156.2170 C   0  0  2  0  0  3  0  0  0  0  0  0
  155.9930  214.3950  157.2600 C   0  0  0  0  0  2  0  0  0  0  0  0
  154.7400  213.6260  156.8730 C   0  0  0  0  0  2  0  0  0  0  0  0
  153.5550  214.4070  157.1880 N   0  0  0  0  0  1  0  0  0  0  0  0
  160.6740  206.5770  152.6080 O   0  0  0  0  0  0  0  0  0  0  0  0
  160.0800  206.6670  154.9660 O   0  0  0  0  0  1  0  0  0  0  0  0
  162.0940  205.8570  154.2570 O   0  0  0  0  0  0  0  0  0  0  0  0
  160.9820  206.3590  153.9550 C   0  0  0  0  0  0  0  0  0  0  0  0
  161.2950  212.3280  151.0170 C   0  0  0  0  0  2  0  0  0  0  0  0
  160.8610  212.7370  149.6450 C   0  0  0  0  0  0  0  0  0  0  0  0
  161.7620  212.7490  148.6530 C   0  0  0  0  0  3  0  0  0  0  0  0
  159.5720  212.8930  144.4570 O   0  0  0  0  0  0  0  0  0  0  0  0
  161.2930  214.2250  145.3060 O   0  0  0  0  0  0  0  0  0  0  0  0
  161.4900  213.1020  147.2880 N   0  0  0  0  0  0  0  0  0  0  0  0
  160.4830  212.5130  146.5660 O   0  0  0  0  0  0  0  0  0  0  0  0
  160.3820  213.1860  145.3740 C   0  0  0  0  0  0  0  0  0  0  0  0
  162.0320  214.2340  146.5300 C   0  0  0  0  0  2  0  0  0  0  0  0
  158.4140  213.5550  149.3350 N   0  0  0  0  0  0  0  0  0  0  0  0
  159.5040  213.1930  149.4760 C   0  0  0  0  0  0  0  0  0  0  0  0
  162.2520  208.2430  148.1860 S   0  0  0  0  0  0  0  0  0  0  0  0
  161.4500  206.6140  148.2920 C   0  0  0  0  0  2  0  0  0  0  0  0
  162.4520  205.5670  148.7450 C   0  0  0  0  0  2  0  0  0  0  0  0
  159.7790  200.8230  150.2380 F   0  0  0  0  0  0  0  0  0  0  0  0
  161.7450  204.3140  149.1300 C   0  0  0  0  0  0  0  0  0  0  0  0
  160.7840  202.8820  150.8280 C   0  0  0  0  0  3  0  0  0  0  0  0
  160.7190  202.2060  148.4890 C   0  0  0  0  0  0  0  0  0  0  0  0
  160.4170  201.9550  149.8470 C   0  0  0  0  0  0  0  0  0  0  0  0
  161.3830  203.3900  148.1480 C   0  0  0  0  0  3  0  0  0  0  0  0
  161.4470  204.0580  150.4730 C   0  0  0  0  0  3  0  0  0  0  0  0
  160.3960  201.3200  147.4530 O   0  0  0  0  0  0  0  0  0  0  0  0
  160.1090  201.7200  146.1190 C   0  0  0  0  0  2  0  0  0  0  0  0
  161.2560  202.5510  145.5740 C   0  0  0  0  0  2  0  0  0  0  0  0
  160.7260  203.7210  144.7590 C   0  0  0  0  0  2  0  0  0  0  0  0
  161.1210  204.9780  145.3740 N   0  0  0  0  0  0  0  0  0  0  0  0
  161.3280  205.9320  144.2740 C   0  0  0  0  0  2  0  0  0  0  0  0
  160.0840  205.9650  145.0310 C   0  0  0  0  0  2  0  0  0  0  0  0
  1  5  2  0  0  0  0
  1  7  1  0  0  0  0
  2  6  1  0  0  0  0
  2 19  1  0  0  0  0
  3  2  2  0  0  0  0
  4 27  1  0  0  0  0
  4  6  2  0  0  0  0
  5  3  1  0  0  0  0
  7  4  1  0  0  0  0
  8 17  1  0  0  0  0
  9 10  1  0  0  0  0
  9 15  1  0  0  0  0
 10  8  2  0  0  0  0
 11 15  2  0  0  0  0
 11 21  1  0  0  0  0
 12 16  1  0  0  0  0
 12 13  1  1  0  0  0
 13 23  1  0  0  0  0
 14 19  1  0  0  0  0
 14 16  2  0  0  0  0
 15 20  1  0  0  0  0
 16 11  1  0  0  0  0
 18 22  1  0  0  0  0
 18 14  1  0  0  0  0
 19  9  2  0  0  0  0
 20 17  2  0  0  0  0
 22 12  1  0  0  0  0
 23 21  1  0  0  0  0
 23 24  1  1  0  0  0
 25 26  1  0  0  0  0
 25 24  1  0  0  0  0
 27 30  1  0  0  0  0
 30 29  2  0  0  0  0
 30 28  1  0  0  0  0
 31  3  1  0  0  0  0
 32 31  1  0  0  0  0
 33 32  2  0  0  0  0
 34 38  2  0  0  0  0
 35 38  1  0  0  0  0
 35 39  1  0  0  0  0
 36 33  1  0  0  0  0
 37 36  1  0  0  0  0
 38 37  1  0  0  0  0
 39 36  1  0  0  0  0
 40 41  3  0  0  0  0
 41 32  1  0  0  0  0
 42 43  1  0  0  0  0
 42  1  1  0  0  0  0
 43 44  1  0  0  0  0
 44 46  1  0  0  0  0
 46 51  1  0  0  0  0
 48 49  2  0  0  0  0
 49 45  1  0  0  0  0
 49 47  1  0  0  0  0
 50 48  1  0  0  0  0
 50 46  2  0  0  0  0
 51 47  2  0  0  0  0
 52 48  1  0  0  0  0
 53 52  1  0  0  0  0
 54 53  1  0  0  0  0
 55 56  1  0  0  0  0
 55 54  1  0  0  0  0
 57 58  1  0  0  0  0
 57 56  1  0  0  0  0
 58 56  1  0  0  0  0
M  END
>  <MODEL>
2

>  <REMARK>
 VINA RESULT:      -5.1      1.329      2.392
  Name = 
  18 active torsions:
  status: ('A' for Active; 'I' for Inactive)
    1  A    between atoms: C_2  and  C_26
    2  A    between atoms: C_2  and  O_36
    3  A    between atoms: N_3  and  C_8
    4  A    between atoms: C_7  and  S_31
    5  A    between atoms: C_8  and  C_26
    6  A    between atoms: C_10  and  C_32
    7  A    between atoms: C_10  and  C_37
    8  A    between atoms: C_11  and  C_54
    9  A    between atoms: C_13  and  N_44
   10  A    between atoms: C_19  and  C_29
   11  A    between atoms: C_22  and  C_29
   12  A    between atoms: C_22  and  S_31
   13  A    between atoms: C_23  and  O_47
   14  A    between atoms: C_27  and  C_43
   15  A    between atoms: C_32  and  C_35
   16  A    between atoms: C_33  and  O_36
   17  A    between atoms: C_38  and  O_47
   18  A    between atoms: C_54  and  C_58
                            x       y       z     vdW  Elec       q    Type
                         _______ _______ _______ _____ _____    ______ ____

>  <TORSDO>
F 18

$$$$
