=
 OpenBabel11042421303D

 27 29  0  0  1  0  0  0  0  0999 V2000
  161.0410  203.6950  148.4700 C   0  0  0  0  0  3  0  0  0  0  0  0
  160.8660  202.3730  150.4810 C   0  0  0  0  0  0  0  0  0  0  0  0
  161.4620  204.7340  150.6360 C   0  0  0  0  0  0  0  0  0  0  0  0
  161.3800  204.8330  149.2220 C   0  0  0  0  0  0  0  0  0  0  0  0
  160.7820  202.4760  149.0940 C   0  0  0  0  0  3  0  0  0  0  0  0
  161.1990  203.4950  151.2420 C   0  0  0  0  0  3  0  0  0  0  0  0
  161.8110  205.8760  151.5230 C   0  0  0  0  0  0  0  0  0  0  0  0
  160.7700  206.5330  152.2630 N   0  0  0  0  0  2  0  0  0  0  0  0
  163.0020  206.2750  151.6200 O   0  0  0  0  0  0  0  0  0  0  0  0
  161.0260  207.5050  154.4790 C   0  0  0  0  0  3  0  0  0  0  0  0
  161.5900  210.9770  154.4910 O   0  0  0  0  0  0  0  0  0  0  0  0
  160.9230  207.6420  153.1610 C   0  0  0  0  0  0  0  0  0  0  0  0
  160.9970  209.3130  152.5280 S   0  0  0  0  0  0  0  0  0  0  0  0
  161.1970  208.7670  155.2460 C   0  0  0  0  0  2  0  0  0  0  0  0
  161.3010  209.8270  154.2100 C   0  0  0  0  0  0  0  0  0  0  0  0
  161.6880  206.1150  148.4930 C   0  0  2  0  0  3  0  0  0  0  0  0
  160.8740  207.2910  149.0140 C   0  0  0  0  0  1  0  0  0  0  0  0
  160.4400  206.3660  146.3050 C   0  0  0  0  0  3  0  0  0  0  0  0
  161.4410  205.6200  144.2200 C   0  0  0  0  0  0  0  0  0  0  0  0
  162.5810  205.2170  144.9230 C   0  0  0  0  0  3  0  0  0  0  0  0
  162.6540  205.3870  146.3090 C   0  0  0  0  0  3  0  0  0  0  0  0
  161.5890  205.9660  147.0050 C   0  0  0  0  0  0  0  0  0  0  0  0
  160.3670  206.1960  144.9200 C   0  0  0  0  0  3  0  0  0  0  0  0
  161.3990  205.4370  142.8360 O   0  0  0  0  0  0  0  0  0  0  0  0
  161.8690  206.4150  141.9180 C   0  0  0  0  0  1  0  0  0  0  0  0
  159.6420  200.3600  150.3970 O   0  0  0  0  0  1  0  0  0  0  0  0
  160.5680  201.0790  151.1520 C   0  0  0  0  0  2  0  0  0  0  0  0
  1  5  2  0  0  0  0
  1  4  1  0  0  0  0
  2 27  1  0  0  0  0
  2  6  2  0  0  0  0
  3  6  1  0  0  0  0
  3  7  1  0  0  0  0
  4  3  2  0  0  0  0
  5  2  1  0  0  0  0
  7  9  2  0  0  0  0
  7  8  1  0  0  0  0
  8 12  1  0  0  0  0
 10 14  1  0  0  0  0
 12 10  2  0  0  0  0
 13 12  1  0  0  0  0
 13 15  1  0  0  0  0
 15 11  2  0  0  0  0
 15 14  1  0  0  0  0
 16 17  1  1  0  0  0
 16  4  1  0  0  0  0
 18 22  1  0  0  0  0
 19 23  1  0  0  0  0
 19 20  2  0  0  0  0
 20 21  1  0  0  0  0
 21 22  2  0  0  0  0
 22 16  1  0  0  0  0
 23 18  2  0  0  0  0
 24 19  1  0  0  0  0
 25 24  1  0  0  0  0
 26 27  1  0  0  0  0
M  END
>  <MODEL>
1

>  <REMARK>
 VINA RESULT:      -6.8      0.000      0.000
  Name = 
  6 active torsions:
  status: ('A' for Active; 'I' for Inactive)
    1  A    between atoms: C_3  and  C_11
    2  A    between atoms: C_5  and  C_13
    3  A    between atoms: C_5  and  C_23
    4  A    between atoms: C_6  and  O_17
    5  A    between atoms: C_8  and  C_27
    6  A    between atoms: N_9  and  C_10
                            x       y       z     vdW  Elec       q    Type
                         _______ _______ _______ _____ _____    ______ ____

>  <TORSDO>
F 6

$$$$
=
 OpenBabel11042421303D

 27 29  0  0  1  0  0  0  0  0999 V2000
  160.9360  205.5550  150.8780 C   0  0  0  0  0  3  0  0  0  0  0  0
  161.3470  207.2390  152.5560 C   0  0  0  0  0  0  0  0  0  0  0  0
  161.7050  207.7690  150.2020 C   0  0  0  0  0  0  0  0  0  0  0  0
  161.3060  206.4490  149.8590 C   0  0  0  0  0  0  0  0  0  0  0  0
  160.9510  205.9470  152.2150 C   0  0  0  0  0  3  0  0  0  0  0  0
  161.7150  208.1410  151.5560 C   0  0  0  0  0  3  0  0  0  0  0  0
  162.1140  208.7910  149.2020 C   0  0  0  0  0  0  0  0  0  0  0  0
  161.6640  210.1470  149.3600 N   0  0  0  0  0  2  0  0  0  0  0  0
  162.8360  208.4780  148.2190 O   0  0  0  0  0  0  0  0  0  0  0  0
  163.1480  211.8520  148.4600 C   0  0  0  0  0  3  0  0  0  0  0  0
  161.7850  213.7120  145.8030 O   0  0  0  0  0  0  0  0  0  0  0  0
  161.9600  211.2560  148.5000 C   0  0  0  0  0  0  0  0  0  0  0  0
  160.7100  211.9020  147.3970 S   0  0  0  0  0  0  0  0  0  0  0  0
  163.2720  212.9740  147.4920 C   0  0  0  0  0  2  0  0  0  0  0  0
  161.9730  212.9970  146.7720 C   0  0  0  0  0  0  0  0  0  0  0  0
  161.3080  205.9610  148.4340 C   0  0  2  0  0  3  0  0  0  0  0  0
  160.2360  206.6310  147.5860 C   0  0  0  0  0  1  0  0  0  0  0  0
  160.9400  203.6750  149.4570 C   0  0  0  0  0  3  0  0  0  0  0  0
  161.2220  201.6640  148.1230 C   0  0  0  0  0  0  0  0  0  0  0  0
  161.5450  202.4560  147.0160 C   0  0  0  0  0  3  0  0  0  0  0  0
  161.5640  203.8500  147.1240 C   0  0  0  0  0  3  0  0  0  0  0  0
  161.2580  204.4650  148.3410 C   0  0  0  0  0  0  0  0  0  0  0  0
  160.9210  202.2820  149.3480 C   0  0  0  0  0  3  0  0  0  0  0  0
  161.2120  200.2740  147.9800 O   0  0  0  0  0  0  0  0  0  0  0  0
  161.4420  199.6290  146.7350 C   0  0  0  0  0  1  0  0  0  0  0  0
  160.3480  206.9820  154.6760 O   0  0  0  0  0  1  0  0  0  0  0  0
  161.3430  207.6680  153.9810 C   0  0  0  0  0  2  0  0  0  0  0  0
  1  5  1  0  0  0  0
  2 27  1  0  0  0  0
  3  6  2  0  0  0  0
  4  3  1  0  0  0  0
  4  1  2  0  0  0  0
  5  2  2  0  0  0  0
  6  2  1  0  0  0  0
  7  8  1  0  0  0  0
  7  3  1  0  0  0  0
  9  7  2  0  0  0  0
 10 12  2  0  0  0  0
 11 15  2  0  0  0  0
 12  8  1  0  0  0  0
 13 12  1  0  0  0  0
 14 10  1  0  0  0  0
 15 13  1  0  0  0  0
 15 14  1  0  0  0  0
 16 17  1  6  0  0  0
 16  4  1  0  0  0  0
 19 23  2  0  0  0  0
 20 21  2  0  0  0  0
 20 19  1  0  0  0  0
 21 22  1  0  0  0  0
 22 16  1  0  0  0  0
 22 18  2  0  0  0  0
 23 18  1  0  0  0  0
 24 19  1  0  0  0  0
 25 24  1  0  0  0  0
 27 26  1  0  0  0  0
M  END
>  <MODEL>
2

>  <REMARK>
 VINA RESULT:      -6.8      3.534      5.615
  Name = 
  6 active torsions:
  status: ('A' for Active; 'I' for Inactive)
    1  A    between atoms: C_3  and  C_11
    2  A    between atoms: C_5  and  C_13
    3  A    between atoms: C_5  and  C_23
    4  A    between atoms: C_6  and  O_17
    5  A    between atoms: C_8  and  C_27
    6  A    between atoms: N_9  and  C_10
                            x       y       z     vdW  Elec       q    Type
                         _______ _______ _______ _____ _____    ______ ____

>  <TORSDO>
F 6

$$$$
=
 OpenBabel11042421303D

 27 29  0  0  1  0  0  0  0  0999 V2000
  161.7280  207.8660  149.8740 C   0  0  0  0  0  3  0  0  0  0  0  0
  162.1230  210.1780  149.3120 C   0  0  0  0  0  0  0  0  0  0  0  0
  161.4630  209.5850  151.5840 C   0  0  0  0  0  0  0  0  0  0  0  0
  161.4180  208.2190  151.1990 C   0  0  0  0  0  0  0  0  0  0  0  0
  162.0830  208.8360  148.9390 C   0  0  0  0  0  3  0  0  0  0  0  0
  161.8210  210.5450  150.6240 C   0  0  0  0  0  3  0  0  0  0  0  0
  161.1550  210.0640  152.9580 C   0  0  0  0  0  0  0  0  0  0  0  0
  159.7830  210.2270  153.3530 N   0  0  0  0  0  2  0  0  0  0  0  0
  162.0800  210.3360  153.7680 O   0  0  0  0  0  0  0  0  0  0  0  0
  159.7090  210.1550  155.7840 C   0  0  0  0  0  3  0  0  0  0  0  0
  157.7610  212.6870  157.2570 O   0  0  0  0  0  0  0  0  0  0  0  0
  159.3030  210.6740  154.6290 C   0  0  0  0  0  0  0  0  0  0  0  0
  158.1100  212.0010  154.7310 S   0  0  0  0  0  0  0  0  0  0  0  0
  159.1140  210.7590  157.0050 C   0  0  0  0  0  2  0  0  0  0  0  0
  158.2840  211.8840  156.5030 C   0  0  0  0  0  0  0  0  0  0  0  0
  161.0040  207.1330  152.1580 C   0  0  2  0  0  3  0  0  0  0  0  0
  161.8160  207.1510  153.4450 C   0  0  0  0  0  1  0  0  0  0  0  0
  160.6080  205.6140  150.1730 C   0  0  0  0  0  3  0  0  0  0  0  0
  160.9190  203.2120  150.3730 C   0  0  0  0  0  0  0  0  0  0  0  0
  161.2860  203.3810  151.7120 C   0  0  0  0  0  3  0  0  0  0  0  0
  161.3170  204.6580  152.2810 C   0  0  0  0  0  3  0  0  0  0  0  0
  160.9830  205.7790  151.5150 C   0  0  0  0  0  0  0  0  0  0  0  0
  160.5780  204.3380  149.6040 C   0  0  0  0  0  3  0  0  0  0  0  0
  160.8990  201.9230  149.8340 O   0  0  0  0  0  0  0  0  0  0  0  0
  160.8240  201.6770  148.4370 C   0  0  0  0  0  1  0  0  0  0  0  0
  162.0170  212.4560  148.7090 O   0  0  0  0  0  1  0  0  0  0  0  0
  162.5240  211.2150  148.3220 C   0  0  0  0  0  2  0  0  0  0  0  0
  1  4  1  0  0  0  0
  2  6  2  0  0  0  0
  3  7  1  0  0  0  0
  4  3  2  0  0  0  0
  4 16  1  0  0  0  0
  5  2  1  0  0  0  0
  5  1  2  0  0  0  0
  6  3  1  0  0  0  0
  7  8  1  0  0  0  0
  7  9  2  0  0  0  0
  8 12  1  0  0  0  0
 10 14  1  0  0  0  0
 12 13  1  0  0  0  0
 12 10  2  0  0  0  0
 13 15  1  0  0  0  0
 15 14  1  0  0  0  0
 15 11  2  0  0  0  0
 16 17  1  1  0  0  0
 18 22  1  0  0  0  0
 19 20  2  0  0  0  0
 20 21  1  0  0  0  0
 22 16  1  0  0  0  0
 22 21  2  0  0  0  0
 23 18  2  0  0  0  0
 23 19  1  0  0  0  0
 24 19  1  0  0  0  0
 25 24  1  0  0  0  0
 27 26  1  0  0  0  0
 27  2  1  0  0  0  0
M  END
>  <MODEL>
3

>  <REMARK>
 VINA RESULT:      -6.6      3.514      6.090
  Name = 
  6 active torsions:
  status: ('A' for Active; 'I' for Inactive)
    1  A    between atoms: C_3  and  C_11
    2  A    between atoms: C_5  and  C_13
    3  A    between atoms: C_5  and  C_23
    4  A    between atoms: C_6  and  O_17
    5  A    between atoms: C_8  and  C_27
    6  A    between atoms: N_9  and  C_10
                            x       y       z     vdW  Elec       q    Type
                         _______ _______ _______ _____ _____    ______ ____

>  <TORSDO>
F 6

$$$$
=
 OpenBabel11042421303D

 27 29  0  0  1  0  0  0  0  0999 V2000
  160.8990  206.5560  153.4010 C   0  0  0  0  0  3  0  0  0  0  0  0
  160.5510  208.2790  155.0540 C   0  0  0  0  0  0  0  0  0  0  0  0
  161.3360  208.8860  152.8250 C   0  0  0  0  0  0  0  0  0  0  0  0
  161.3080  207.5140  152.4570 C   0  0  0  0  0  0  0  0  0  0  0  0
  160.5190  206.9350  154.6870 C   0  0  0  0  0  3  0  0  0  0  0  0
  160.9520  209.2430  154.1280 C   0  0  0  0  0  3  0  0  0  0  0  0
  161.7510  209.9770  151.9040 C   0  0  0  0  0  0  0  0  0  0  0  0
  160.7430  210.7740  151.2610 N   0  0  0  0  0  2  0  0  0  0  0  0
  162.9700  210.1980  151.6760 O   0  0  0  0  0  0  0  0  0  0  0  0
  160.4230  213.0670  150.5130 C   0  0  0  0  0  3  0  0  0  0  0  0
  162.3550  213.9700  147.7160 O   0  0  0  0  0  0  0  0  0  0  0  0
  160.9590  211.8620  150.3500 C   0  0  0  0  0  0  0  0  0  0  0  0
  162.0010  211.6440  148.9150 S   0  0  0  0  0  0  0  0  0  0  0  0
  160.7740  214.0730  149.4760 C   0  0  0  0  0  2  0  0  0  0  0  0
  161.7510  213.3820  148.5960 C   0  0  0  0  0  0  0  0  0  0  0  0
  161.7440  207.0460  151.0930 C   0  0  2  0  0  3  0  0  0  0  0  0
  161.1750  207.9030  149.9720 C   0  0  0  0  0  1  0  0  0  0  0  0
  161.7470  204.6440  151.8900 C   0  0  0  0  0  3  0  0  0  0  0  0
  161.0290  202.8510  150.4150 C   0  0  0  0  0  0  0  0  0  0  0  0
  160.7770  203.7920  149.4110 C   0  0  0  0  0  3  0  0  0  0  0  0
  161.0060  205.1520  149.6420 C   0  0  0  0  0  3  0  0  0  0  0  0
  161.4870  205.5840  150.8820 C   0  0  0  0  0  0  0  0  0  0  0  0
  161.5180  203.2850  151.6590 C   0  0  0  0  0  3  0  0  0  0  0  0
  160.7890  201.5000  150.1520 O   0  0  0  0  0  0  0  0  0  0  0  0
  161.0060  200.9170  148.8740 C   0  0  0  0  0  1  0  0  0  0  0  0
  160.1060  207.5770  157.2610 O   0  0  0  0  0  1  0  0  0  0  0  0
  160.1250  208.6890  156.4190 C   0  0  0  0  0  2  0  0  0  0  0  0
  1  5  1  0  0  0  0
  2 27  1  0  0  0  0
  3  6  2  0  0  0  0
  4  3  1  0  0  0  0
  4  1  2  0  0  0  0
  5  2  2  0  0  0  0
  6  2  1  0  0  0  0
  7  3  1  0  0  0  0
  8  7  1  0  0  0  0
  9  7  2  0  0  0  0
 11 15  2  0  0  0  0
 12 10  2  0  0  0  0
 12  8  1  0  0  0  0
 13 12  1  0  0  0  0
 14 10  1  0  0  0  0
 15 13  1  0  0  0  0
 15 14  1  0  0  0  0
 16 17  1  6  0  0  0
 16  4  1  0  0  0  0
 19 23  2  0  0  0  0
 20 21  2  0  0  0  0
 20 19  1  0  0  0  0
 21 22  1  0  0  0  0
 22 16  1  0  0  0  0
 22 18  2  0  0  0  0
 23 18  1  0  0  0  0
 24 19  1  0  0  0  0
 25 24  1  0  0  0  0
 27 26  1  0  0  0  0
M  END
>  <MODEL>
4

>  <REMARK>
 VINA RESULT:      -6.6      3.481      6.268
  Name = 
  6 active torsions:
  status: ('A' for Active; 'I' for Inactive)
    1  A    between atoms: C_3  and  C_11
    2  A    between atoms: C_5  and  C_13
    3  A    between atoms: C_5  and  C_23
    4  A    between atoms: C_6  and  O_17
    5  A    between atoms: C_8  and  C_27
    6  A    between atoms: N_9  and  C_10
                            x       y       z     vdW  Elec       q    Type
                         _______ _______ _______ _____ _____    ______ ____

>  <TORSDO>
F 6

$$$$
=
 OpenBabel11042421303D

 27 29  0  0  1  0  0  0  0  0999 V2000
  160.8330  207.1540  154.0370 C   0  0  0  0  0  3  0  0  0  0  0  0
  161.2000  206.0340  151.9320 C   0  0  0  0  0  0  0  0  0  0  0  0
  161.6640  208.4210  152.1260 C   0  0  0  0  0  0  0  0  0  0  0  0
  161.2590  208.3750  153.4860 C   0  0  0  0  0  0  0  0  0  0  0  0
  160.8090  205.9920  153.2690 C   0  0  0  0  0  3  0  0  0  0  0  0
  161.6280  207.2380  151.3700 C   0  0  0  0  0  3  0  0  0  0  0  0
  162.1320  209.6590  151.4470 C   0  0  0  0  0  0  0  0  0  0  0  0
  161.5250  210.0520  150.2060 N   0  0  0  0  0  2  0  0  0  0  0  0
  163.0580  210.3540  151.9430 O   0  0  0  0  0  0  0  0  0  0  0  0
  162.8280  211.2310  148.5230 C   0  0  0  0  0  3  0  0  0  0  0  0
  161.6400  214.4520  147.7540 O   0  0  0  0  0  0  0  0  0  0  0  0
  161.8460  211.2080  149.4200 C   0  0  0  0  0  0  0  0  0  0  0  0
  160.9040  212.7160  149.6030 S   0  0  0  0  0  0  0  0  0  0  0  0
  163.0000  212.5130  147.7910 C   0  0  0  0  0  2  0  0  0  0  0  0
  161.8820  213.3700  148.2620 C   0  0  0  0  0  0  0  0  0  0  0  0
  161.2300  209.6080  154.3510 C   0  0  2  0  0  3  0  0  0  0  0  0
  161.7010  209.3350  155.7720 C   0  0  0  0  0  1  0  0  0  0  0  0
  159.4640  210.9790  153.1640 C   0  0  0  0  0  3  0  0  0  0  0  0
  157.4220  211.6240  154.3120 C   0  0  0  0  0  0  0  0  0  0  0  0
  157.8650  210.9540  155.4570 C   0  0  0  0  0  3  0  0  0  0  0  0
  159.0990  210.2970  155.4580 C   0  0  0  0  0  3  0  0  0  0  0  0
  159.9010  210.3020  154.3130 C   0  0  0  0  0  0  0  0  0  0  0  0
  158.2300  211.6350  153.1630 C   0  0  0  0  0  3  0  0  0  0  0  0
  156.1830  212.2700  154.3430 O   0  0  0  0  0  0  0  0  0  0  0  0
  156.0440  213.6480  154.6620 C   0  0  0  0  0  1  0  0  0  0  0  0
  161.1240  205.1170  149.7610 O   0  0  0  0  0  1  0  0  0  0  0  0
  161.1970  204.7900  151.1140 C   0  0  0  0  0  2  0  0  0  0  0  0
  2  5  1  0  0  0  0
  3  4  2  0  0  0  0
  4  1  1  0  0  0  0
  4 16  1  0  0  0  0
  5  1  2  0  0  0  0
  6  2  2  0  0  0  0
  6  3  1  0  0  0  0
  7  9  2  0  0  0  0
  7  3  1  0  0  0  0
  8  7  1  0  0  0  0
 10 12  2  0  0  0  0
 11 15  2  0  0  0  0
 12 13  1  0  0  0  0
 12  8  1  0  0  0  0
 14 15  1  0  0  0  0
 14 10  1  0  0  0  0
 15 13  1  0  0  0  0
 16 17  1  1  0  0  0
 18 22  1  0  0  0  0
 19 24  1  0  0  0  0
 19 20  2  0  0  0  0
 20 21  1  0  0  0  0
 22 16  1  0  0  0  0
 22 21  2  0  0  0  0
 23 18  2  0  0  0  0
 23 19  1  0  0  0  0
 24 25  1  0  0  0  0
 26 27  1  0  0  0  0
 27  2  1  0  0  0  0
M  END
>  <MODEL>
5

>  <REMARK>
 VINA RESULT:      -6.5      4.115      8.063
  Name = 
  6 active torsions:
  status: ('A' for Active; 'I' for Inactive)
    1  A    between atoms: C_3  and  C_11
    2  A    between atoms: C_5  and  C_13
    3  A    between atoms: C_5  and  C_23
    4  A    between atoms: C_6  and  O_17
    5  A    between atoms: C_8  and  C_27
    6  A    between atoms: N_9  and  C_10
                            x       y       z     vdW  Elec       q    Type
                         _______ _______ _______ _____ _____    ______ ____

>  <TORSDO>
F 6

$$$$
=
 OpenBabel11042421303D

 27 29  0  0  1  0  0  0  0  0999 V2000
  162.2290  209.2620  151.1670 C   0  0  0  0  0  3  0  0  0  0  0  0
  162.0470  210.1610  148.9360 C   0  0  0  0  0  0  0  0  0  0  0  0
  161.4380  207.8360  149.3530 C   0  0  0  0  0  0  0  0  0  0  0  0
  161.7670  208.0110  150.7240 C   0  0  0  0  0  0  0  0  0  0  0  0
  162.3640  210.3300  150.2830 C   0  0  0  0  0  3  0  0  0  0  0  0
  161.5830  208.9260  148.4800 C   0  0  0  0  0  3  0  0  0  0  0  0
  160.9400  206.5560  148.7830 C   0  0  0  0  0  0  0  0  0  0  0  0
  161.8840  205.6000  148.2740 N   0  0  0  0  0  2  0  0  0  0  0  0
  159.7050  206.3120  148.7310 O   0  0  0  0  0  0  0  0  0  0  0  0
  161.2910  203.2440  148.4150 C   0  0  0  0  0  3  0  0  0  0  0  0
  160.6820  201.7080  145.3090 O   0  0  0  0  0  0  0  0  0  0  0  0
  161.5850  204.3220  147.6940 C   0  0  0  0  0  0  0  0  0  0  0  0
  161.5810  204.1150  145.9190 S   0  0  0  0  0  0  0  0  0  0  0  0
  160.9910  202.0130  147.6380 C   0  0  0  0  0  2  0  0  0  0  0  0
  161.0250  202.4460  146.2170 C   0  0  0  0  0  0  0  0  0  0  0  0
  161.6770  206.8800  151.7160 C   0  0  2  0  0  3  0  0  0  0  0  0
  160.8310  205.7220  151.2060 C   0  0  0  0  0  1  0  0  0  0  0  0
  161.2060  206.4640  154.1670 C   0  0  0  0  0  3  0  0  0  0  0  0
  160.3990  208.2600  155.5920 C   0  0  0  0  0  0  0  0  0  0  0  0
  160.4390  209.1320  154.4990 C   0  0  0  0  0  3  0  0  0  0  0  0
  160.8610  208.6760  153.2470 C   0  0  0  0  0  3  0  0  0  0  0  0
  161.2500  207.3450  153.0760 C   0  0  0  0  0  0  0  0  0  0  0  0
  160.7850  206.9200  155.4200 C   0  0  0  0  0  3  0  0  0  0  0  0
  159.9730  208.7470  156.8310 O   0  0  0  0  0  0  0  0  0  0  0  0
  160.1180  210.1090  157.2100 C   0  0  0  0  0  1  0  0  0  0  0  0
  162.0280  212.5060  148.6900 O   0  0  0  0  0  1  0  0  0  0  0  0
  162.1670  211.3060  147.9930 C   0  0  0  0  0  2  0  0  0  0  0  0
  2  5  1  0  0  0  0
  3  4  2  0  0  0  0
  4  1  1  0  0  0  0
  4 16  1  0  0  0  0
  5  1  2  0  0  0  0
  6  2  2  0  0  0  0
  6  3  1  0  0  0  0
  7  3  1  0  0  0  0
  8  7  1  0  0  0  0
  9  7  2  0  0  0  0
 11 15  2  0  0  0  0
 12  8  1  0  0  0  0
 12 10  2  0  0  0  0
 13 15  1  0  0  0  0
 13 12  1  0  0  0  0
 14 10  1  0  0  0  0
 15 14  1  0  0  0  0
 16 17  1  6  0  0  0
 16 22  1  0  0  0  0
 18 23  1  0  0  0  0
 19 24  1  0  0  0  0
 20 19  1  0  0  0  0
 21 20  2  0  0  0  0
 22 21  1  0  0  0  0
 22 18  2  0  0  0  0
 23 19  2  0  0  0  0
 24 25  1  0  0  0  0
 27 26  1  0  0  0  0
 27  2  1  0  0  0  0
M  END
>  <MODEL>
6

>  <REMARK>
 VINA RESULT:      -6.0      3.280      8.843
  Name = 
  6 active torsions:
  status: ('A' for Active; 'I' for Inactive)
    1  A    between atoms: C_3  and  C_11
    2  A    between atoms: C_5  and  C_13
    3  A    between atoms: C_5  and  C_23
    4  A    between atoms: C_6  and  O_17
    5  A    between atoms: C_8  and  C_27
    6  A    between atoms: N_9  and  C_10
                            x       y       z     vdW  Elec       q    Type
                         _______ _______ _______ _____ _____    ______ ____

>  <TORSDO>
F 6

$$$$
=
 OpenBabel11042421303D

 27 29  0  0  1  0  0  0  0  0999 V2000
  161.2560  208.8630  153.2010 C   0  0  0  0  0  3  0  0  0  0  0  0
  160.1650  207.2640  154.6410 C   0  0  0  0  0  0  0  0  0  0  0  0
  161.3520  206.4870  152.6560 C   0  0  0  0  0  0  0  0  0  0  0  0
  161.6900  207.8320  152.3490 C   0  0  0  0  0  0  0  0  0  0  0  0
  160.5040  208.5810  154.3400 C   0  0  0  0  0  3  0  0  0  0  0  0
  160.5920  206.2280  153.8070 C   0  0  0  0  0  3  0  0  0  0  0  0
  161.7620  205.3250  151.8230 C   0  0  0  0  0  0  0  0  0  0  0  0
  160.7560  204.4340  151.3180 N   0  0  0  0  0  2  0  0  0  0  0  0
  162.9780  205.1120  151.5700 O   0  0  0  0  0  0  0  0  0  0  0  0
  160.9920  202.0350  150.9900 C   0  0  0  0  0  3  0  0  0  0  0  0
  161.2370  201.0420  147.6230 O   0  0  0  0  0  0  0  0  0  0  0  0
  160.9670  203.2720  150.5030 C   0  0  0  0  0  0  0  0  0  0  0  0
  161.2000  203.4360  148.7380 S   0  0  0  0  0  0  0  0  0  0  0  0
  161.2050  200.9550  149.9900 C   0  0  0  0  0  2  0  0  0  0  0  0
  161.2220  201.6520  148.6790 C   0  0  0  0  0  0  0  0  0  0  0  0
  162.4680  208.1970  151.1120 C   0  0  2  0  0  3  0  0  0  0  0  0
  162.7070  209.6950  150.9920 C   0  0  0  0  0  1  0  0  0  0  0  0
  160.5500  207.1360  149.8460 C   0  0  0  0  0  3  0  0  0  0  0  0
  160.8130  206.4860  147.5200 C   0  0  0  0  0  0  0  0  0  0  0  0
  162.1300  206.9560  147.5480 C   0  0  0  0  0  3  0  0  0  0  0  0
  162.6570  207.5160  148.7160 C   0  0  0  0  0  3  0  0  0  0  0  0
  161.8700  207.6120  149.8670 C   0  0  0  0  0  0  0  0  0  0  0  0
  160.0240  206.5780  148.6780 C   0  0  0  0  0  3  0  0  0  0  0  0
  160.3170  205.9330  146.3360 O   0  0  0  0  0  0  0  0  0  0  0  0
  161.1610  205.3790  145.3360 C   0  0  0  0  0  1  0  0  0  0  0  0
  160.1940  207.1000  156.9930 O   0  0  0  0  0  1  0  0  0  0  0  0
  159.3820  206.9570  155.8680 C   0  0  0  0  0  2  0  0  0  0  0  0
  1  5  1  0  0  0  0
  2 27  1  0  0  0  0
  3  6  2  0  0  0  0
  4  3  1  0  0  0  0
  4  1  2  0  0  0  0
  5  2  2  0  0  0  0
  6  2  1  0  0  0  0
  7  3  1  0  0  0  0
  8  7  1  0  0  0  0
  9  7  2  0  0  0  0
 11 15  2  0  0  0  0
 12 10  2  0  0  0  0
 12  8  1  0  0  0  0
 13 12  1  0  0  0  0
 14 10  1  0  0  0  0
 15 13  1  0  0  0  0
 15 14  1  0  0  0  0
 16 17  1  6  0  0  0
 16  4  1  0  0  0  0
 18 22  1  0  0  0  0
 19 20  2  0  0  0  0
 19 23  1  0  0  0  0
 20 21  1  0  0  0  0
 21 22  2  0  0  0  0
 22 16  1  0  0  0  0
 23 18  2  0  0  0  0
 24 19  1  0  0  0  0
 25 24  1  0  0  0  0
 27 26  1  0  0  0  0
M  END
>  <MODEL>
7

>  <REMARK>
 VINA RESULT:      -6.0      2.362      5.846
  Name = 
  6 active torsions:
  status: ('A' for Active; 'I' for Inactive)
    1  A    between atoms: C_3  and  C_11
    2  A    between atoms: C_5  and  C_13
    3  A    between atoms: C_5  and  C_23
    4  A    between atoms: C_6  and  O_17
    5  A    between atoms: C_8  and  C_27
    6  A    between atoms: N_9  and  C_10
                            x       y       z     vdW  Elec       q    Type
                         _______ _______ _______ _____ _____    ______ ____

>  <TORSDO>
F 6

$$$$
=
 OpenBabel11042421303D

 27 29  0  0  1  0  0  0  0  0999 V2000
  161.4470  210.6290  151.8510 C   0  0  0  0  0  3  0  0  0  0  0  0
  161.9470  210.4450  149.4980 C   0  0  0  0  0  0  0  0  0  0  0  0
  161.8790  208.4350  150.8780 C   0  0  0  0  0  0  0  0  0  0  0  0
  161.5630  209.2380  152.0070 C   0  0  0  0  0  0  0  0  0  0  0  0
  161.6320  211.2280  150.6060 C   0  0  0  0  0  3  0  0  0  0  0  0
  162.0640  209.0600  149.6350 C   0  0  0  0  0  3  0  0  0  0  0  0
  162.0230  206.9560  150.9350 C   0  0  0  0  0  0  0  0  0  0  0  0
  161.0320  206.1280  150.3060 N   0  0  0  0  0  2  0  0  0  0  0  0
  162.9960  206.4270  151.5360 O   0  0  0  0  0  0  0  0  0  0  0  0
  160.8450  203.9320  151.3360 C   0  0  0  0  0  3  0  0  0  0  0  0
  160.7890  201.2540  149.0560 O   0  0  0  0  0  0  0  0  0  0  0  0
  161.0110  204.6940  150.2600 C   0  0  0  0  0  0  0  0  0  0  0  0
  161.2010  203.8380  148.7020 S   0  0  0  0  0  0  0  0  0  0  0  0
  160.8340  202.4660  151.0910 C   0  0  0  0  0  2  0  0  0  0  0  0
  160.9180  202.3300  149.6140 C   0  0  0  0  0  0  0  0  0  0  0  0
  161.3900  208.6470  153.3820 C   0  0  2  0  0  3  0  0  0  0  0  0
  160.4680  207.4370  153.3850 C   0  0  0  0  0  1  0  0  0  0  0  0
  159.6530  210.0770  154.5420 C   0  0  0  0  0  3  0  0  0  0  0  0
  160.3020  211.6350  156.2900 C   0  0  0  0  0  0  0  0  0  0  0  0
  161.6340  211.2340  156.1390 C   0  0  0  0  0  3  0  0  0  0  0  0
  161.9760  210.2590  155.1970 C   0  0  0  0  0  3  0  0  0  0  0  0
  160.9900  209.6740  154.3990 C   0  0  0  0  0  0  0  0  0  0  0  0
  159.3110  211.0510  155.4840 C   0  0  0  0  0  3  0  0  0  0  0  0
  159.9930  212.6100  157.2420 O   0  0  0  0  0  0  0  0  0  0  0  0
  159.9640  213.9980  156.9350 C   0  0  0  0  0  1  0  0  0  0  0  0
  162.5240  212.4050  148.3200 O   0  0  0  0  0  1  0  0  0  0  0  0
  162.1240  211.0780  148.1630 C   0  0  0  0  0  2  0  0  0  0  0  0
  1  4  1  0  0  0  0
  2  6  2  0  0  0  0
  2  5  1  0  0  0  0
  3  7  1  0  0  0  0
  3  4  2  0  0  0  0
  4 16  1  0  0  0  0
  5  1  2  0  0  0  0
  6  3  1  0  0  0  0
  7  9  2  0  0  0  0
  8  7  1  0  0  0  0
 11 15  2  0  0  0  0
 12  8  1  0  0  0  0
 12 10  2  0  0  0  0
 13 15  1  0  0  0  0
 13 12  1  0  0  0  0
 14 10  1  0  0  0  0
 15 14  1  0  0  0  0
 16 17  1  6  0  0  0
 16 22  1  0  0  0  0
 18 23  1  0  0  0  0
 19 24  1  0  0  0  0
 20 19  1  0  0  0  0
 21 20  2  0  0  0  0
 22 18  2  0  0  0  0
 22 21  1  0  0  0  0
 23 19  2  0  0  0  0
 25 24  1  0  0  0  0
 27 26  1  0  0  0  0
 27  2  1  0  0  0  0
M  END
>  <MODEL>
8

>  <REMARK>
 VINA RESULT:      -5.9      3.632      9.097
  Name = 
  6 active torsions:
  status: ('A' for Active; 'I' for Inactive)
    1  A    between atoms: C_3  and  C_11
    2  A    between atoms: C_5  and  C_13
    3  A    between atoms: C_5  and  C_23
    4  A    between atoms: C_6  and  O_17
    5  A    between atoms: C_8  and  C_27
    6  A    between atoms: N_9  and  C_10
                            x       y       z     vdW  Elec       q    Type
                         _______ _______ _______ _____ _____    ______ ____

>  <TORSDO>
F 6

$$$$
=
 OpenBabel11042421303D

 27 29  0  0  1  0  0  0  0  0999 V2000
  161.2020  208.7130  152.6390 C   0  0  0  0  0  3  0  0  0  0  0  0
  160.6660  207.3240  154.5380 C   0  0  0  0  0  0  0  0  0  0  0  0
  161.2650  206.2850  152.4140 C   0  0  0  0  0  0  0  0  0  0  0  0
  161.4260  207.5760  151.8440 C   0  0  0  0  0  0  0  0  0  0  0  0
  160.8300  208.5890  153.9770 C   0  0  0  0  0  3  0  0  0  0  0  0
  160.8870  206.1850  153.7620 C   0  0  0  0  0  3  0  0  0  0  0  0
  161.4780  205.0200  151.6610 C   0  0  0  0  0  0  0  0  0  0  0  0
  160.6410  204.7270  150.5310 N   0  0  0  0  0  2  0  0  0  0  0  0
  162.3720  204.2060  152.0110 O   0  0  0  0  0  0  0  0  0  0  0  0
  160.3930  202.3420  150.1160 C   0  0  0  0  0  3  0  0  0  0  0  0
  160.8760  201.3890  146.7640 O   0  0  0  0  0  0  0  0  0  0  0  0
  160.7040  203.5630  149.6930 C   0  0  0  0  0  0  0  0  0  0  0  0
  161.2070  203.7080  147.9840 S   0  0  0  0  0  0  0  0  0  0  0  0
  160.5020  201.2620  149.1000 C   0  0  0  0  0  2  0  0  0  0  0  0
  160.8490  201.9660  147.8380 C   0  0  0  0  0  0  0  0  0  0  0  0
  161.7890  207.7680  150.3940 C   0  0  2  0  0  3  0  0  0  0  0  0
  163.0810  207.0580  150.0170 C   0  0  0  0  0  1  0  0  0  0  0  0
  161.5930  210.2330  150.9340 C   0  0  0  0  0  3  0  0  0  0  0  0
  161.7640  211.9010  149.1750 C   0  0  0  0  0  0  0  0  0  0  0  0
  161.9560  210.8800  148.2390 C   0  0  0  0  0  3  0  0  0  0  0  0
  161.9690  209.5420  148.6450 C   0  0  0  0  0  3  0  0  0  0  0  0
  161.7920  209.2130  149.9920 C   0  0  0  0  0  0  0  0  0  0  0  0
  161.5810  211.5700  150.5280 C   0  0  0  0  0  3  0  0  0  0  0  0
  161.7570  213.2280  148.7370 O   0  0  0  0  0  0  0  0  0  0  0  0
  162.6440  213.7100  147.7370 C   0  0  0  0  0  1  0  0  0  0  0  0
  161.2980  207.7240  156.7740 O   0  0  0  0  0  1  0  0  0  0  0  0
  160.2920  207.1880  155.9720 C   0  0  0  0  0  2  0  0  0  0  0  0
  1  5  1  0  0  0  0
  2 27  1  0  0  0  0
  3  6  2  0  0  0  0
  4  3  1  0  0  0  0
  4  1  2  0  0  0  0
  5  2  2  0  0  0  0
  6  2  1  0  0  0  0
  7  9  2  0  0  0  0
  7  3  1  0  0  0  0
  8  7  1  0  0  0  0
 11 15  2  0  0  0  0
 12 10  2  0  0  0  0
 12  8  1  0  0  0  0
 13 12  1  0  0  0  0
 14 10  1  0  0  0  0
 15 13  1  0  0  0  0
 15 14  1  0  0  0  0
 16 17  1  1  0  0  0
 16  4  1  0  0  0  0
 19 23  2  0  0  0  0
 20 21  2  0  0  0  0
 20 19  1  0  0  0  0
 21 22  1  0  0  0  0
 22 16  1  0  0  0  0
 22 18  2  0  0  0  0
 23 18  1  0  0  0  0
 24 19  1  0  0  0  0
 25 24  1  0  0  0  0
 27 26  1  0  0  0  0
M  END
>  <MODEL>
9

>  <REMARK>
 VINA RESULT:      -5.8      3.500      6.859
  Name = 
  6 active torsions:
  status: ('A' for Active; 'I' for Inactive)
    1  A    between atoms: C_3  and  C_11
    2  A    between atoms: C_5  and  C_13
    3  A    between atoms: C_5  and  C_23
    4  A    between atoms: C_6  and  O_17
    5  A    between atoms: C_8  and  C_27
    6  A    between atoms: N_9  and  C_10
                            x       y       z     vdW  Elec       q    Type
                         _______ _______ _______ _____ _____    ______ ____

>  <TORSDO>
F 6

$$$$
