=
 OpenBabel11052410013D

 39 43  0  0  1  0  0  0  0  0999 V2000
  161.9130  208.6570  149.0690 C   0  0  0  0  0  3  0  0  0  0  0  0
  160.9900  206.9390  150.4990 C   0  0  0  0  0  0  0  0  0  0  0  0
  161.9670  209.5530  150.1470 C   0  0  0  0  0  0  0  0  0  0  0  0
  161.4290  207.3600  149.2410 C   0  0  0  0  0  3  0  0  0  0  0  0
  161.5150  209.1310  151.4130 C   0  0  0  0  0  0  0  0  0  0  0  0
  161.0280  207.8230  151.5790 C   0  0  0  0  0  3  0  0  0  0  0  0
  161.4110  209.3590  153.8440 N   0  0  0  0  0  0  0  0  0  0  0  0
  160.3810  211.0170  152.5660 C   0  0  0  0  0  3  0  0  0  0  0  0
  159.7290  210.8290  153.6980 C   0  0  0  0  0  0  0  0  0  0  0  0
  160.3760  209.7950  154.4820 C   0  0  0  0  0  3  0  0  0  0  0  0
  161.5500  210.0780  152.5810 C   0  0  2  0  0  3  0  0  0  0  0  0
  158.5470  211.5380  154.0640 N   0  0  0  0  0  2  0  0  0  0  0  0
  158.4680  212.9890  153.9900 C   0  0  0  0  0  2  0  0  0  0  0  0
  157.4940  213.4070  152.9010 C   0  0  0  0  0  2  0  0  0  0  0  0
  158.2110  213.7770  151.6450 C   0  0  0  0  0  0  0  0  0  0  0  0
  157.6620  213.4720  150.4050 O   0  0  0  0  0  0  0  0  0  0  0  0
  159.3320  214.3440  151.7090 O   0  0  0  0  0  1  0  0  0  0  0  0
  162.4610  210.8950  149.9870 N   0  0  0  0  0  2  0  0  0  0  0  0
  161.4040  213.7480  147.1120 N   0  0  0  0  0  0  0  0  0  0  0  0
  160.5920  213.5510  148.1840 C   0  0  0  0  0  3  0  0  0  0  0  0
  160.9390  212.6010  149.1420 C   0  0  0  0  0  3  0  0  0  0  0  0
  162.1120  211.8650  148.9870 C   0  0  0  0  0  0  0  0  0  0  0  0
  162.9100  212.1100  147.8640 C   0  0  0  0  0  3  0  0  0  0  0  0
  162.5300  213.0480  146.9570 N   0  0  0  0  0  0  0  0  0  0  0  0
  160.4600  205.5600  150.6820 C   0  0  0  0  0  2  0  0  0  0  0  0
  161.0530  204.9360  151.9300 C   0  0  0  0  0  2  0  0  0  0  0  0
  161.0760  203.4290  151.7830 C   0  0  0  0  0  2  0  0  0  0  0  0
  160.9060  202.2440  149.5540 C   0  0  0  0  0  0  0  0  0  0  0  0
  161.6200  203.0660  150.4830 N   0  0  0  0  0  2  0  0  0  0  0  0
  159.7420  201.8420  149.8210 O   0  0  0  0  0  0  0  0  0  0  0  0
  161.0410  200.4650  147.8090 C   0  0  0  0  0  1  0  0  0  0  0  0
  161.5440  201.8260  148.2660 C   0  0  1  0  0  3  0  0  0  0  0  0
  162.5320  204.9230  146.3550 C   0  0  2  0  0  3  0  0  0  0  0  0
  161.7120  204.3010  147.5000 C   0  0  0  0  0  2  0  0  0  0  0  0
  161.3830  202.8690  147.1970 C   0  0  0  0  0  0  0  0  0  0  0  0
  161.6920  205.8070  145.5530 C   0  0  0  0  0  2  0  0  0  0  0  0
  160.9850  202.5620  145.9560 C   0  0  0  0  0  3  0  0  0  0  0  0
  160.8870  203.6740  144.9570 C   0  0  0  0  0  2  0  0  0  0  0  0
  162.0960  204.5090  144.9850 N   0  0  2  0  0  0  0  0  0  0  0  0
  1  4  2  0  0  0  0
  1  3  1  0  0  0  0
  2 25  1  0  0  0  0
  2  6  2  0  0  0  0
  3  5  2  0  0  0  0
  4  2  1  0  0  0  0
  5  6  1  0  0  0  0
  7 10  2  0  0  0  0
  8 11  1  0  0  0  0
  8  9  2  0  0  0  0
  9 12  1  0  0  0  0
  9 10  1  0  0  0  0
 11  5  1  6  0  0  0
 11  7  1  0  0  0  0
 13 12  1  0  0  0  0
 14 13  1  0  0  0  0
 15 17  1  0  0  0  0
 15 14  1  0  0  0  0
 16 15  2  0  0  0  0
 18  3  1  0  0  0  0
 19 20  1  0  0  0  0
 20 21  2  0  0  0  0
 22 21  1  0  0  0  0
 22 18  1  0  0  0  0
 23 22  2  0  0  0  0
 24 19  2  0  0  0  0
 24 23  1  0  0  0  0
 25 26  1  0  0  0  0
 27 26  1  0  0  0  0
 28 30  2  0  0  0  0
 28 29  1  0  0  0  0
 29 27  1  0  0  0  0
 32 31  1  6  0  0  0
 32 28  1  0  0  0  0
 33 36  1  6  0  0  0
 33 34  1  0  0  0  0
 35 34  1  0  0  0  0
 35 32  1  0  0  0  0
 37 35  2  0  0  0  0
 38 37  1  0  0  0  0
 39 38  1  1  0  0  0
 39 36  1  0  0  0  0
 39 33  1  0  0  0  0
M  END
>  <MODEL>
1

>  <REMARK>
 VINA RESULT:      -7.8      0.000      0.000
  Name = 
  13 active torsions:
  status: ('A' for Active; 'I' for Inactive)
    1  A    between atoms: C_6  and  C_33
    2  A    between atoms: C_7  and  C_31
    3  A    between atoms: C_8  and  C_22
    4  A    between atoms: C_11  and  N_35
    5  A    between atoms: C_13  and  C_31
    6  A    between atoms: N_15  and  C_16
    7  A    between atoms: N_15  and  C_21
    8  A    between atoms: C_18  and  N_25
    9  A    between atoms: C_18  and  C_34
   10  A    between atoms: C_20  and  C_23
   11  A    between atoms: C_22  and  C_34
   12  A    between atoms: C_29  and  C_33
   13  A    between atoms: C_29  and  N_35
                            x       y       z     vdW  Elec       q    Type
                         _______ _______ _______ _____ _____    ______ ____

>  <TORSDO>
F 13

$$$$
=
 OpenBabel11052410013D

 39 43  0  0  1  0  0  0  0  0999 V2000
  161.8820  208.6360  148.9140 C   0  0  0  0  0  3  0  0  0  0  0  0
  160.9800  206.9410  150.3840 C   0  0  0  0  0  0  0  0  0  0  0  0
  161.9530  209.5480  149.9770 C   0  0  0  0  0  0  0  0  0  0  0  0
  161.3980  207.3420  149.1130 C   0  0  0  0  0  3  0  0  0  0  0  0
  161.5220  209.1450  151.2570 C   0  0  0  0  0  0  0  0  0  0  0  0
  161.0360  207.8410  151.4500 C   0  0  0  0  0  3  0  0  0  0  0  0
  161.4350  209.4120  153.6840 N   0  0  0  0  0  0  0  0  0  0  0  0
  160.4200  211.0650  152.3860 C   0  0  0  0  0  3  0  0  0  0  0  0
  159.7730  210.9030  153.5240 C   0  0  0  0  0  0  0  0  0  0  0  0
  160.4100  209.8730  154.3210 C   0  0  0  0  0  3  0  0  0  0  0  0
  161.5760  210.1100  152.4090 C   0  0  2  0  0  3  0  0  0  0  0  0
  158.6020  211.6340  153.8860 N   0  0  0  0  0  2  0  0  0  0  0  0
  157.9810  211.4900  155.1940 C   0  0  0  0  0  2  0  0  0  0  0  0
  156.5610  212.0310  155.1620 C   0  0  0  0  0  2  0  0  0  0  0  0
  155.5980  211.0640  155.7660 C   0  0  0  0  0  0  0  0  0  0  0  0
  155.1360  209.9780  155.0310 O   0  0  0  0  0  0  0  0  0  0  0  0
  155.1790  211.2480  156.9380 O   0  0  0  0  0  1  0  0  0  0  0  0
  162.4470  210.8860  149.7890 N   0  0  0  0  0  2  0  0  0  0  0  0
  161.3980  213.6750  146.8490 N   0  0  0  0  0  0  0  0  0  0  0  0
  162.6700  213.1970  146.8890 C   0  0  0  0  0  3  0  0  0  0  0  0
  163.0230  212.2700  147.8670 C   0  0  0  0  0  3  0  0  0  0  0  0
  162.0690  211.8490  148.7920 C   0  0  0  0  0  0  0  0  0  0  0  0
  160.7760  212.3750  148.7030 C   0  0  0  0  0  3  0  0  0  0  0  0
  160.4790  213.2760  147.7300 N   0  0  0  0  0  0  0  0  0  0  0  0
  160.4510  205.5650  150.5960 C   0  0  0  0  0  2  0  0  0  0  0  0
  160.9980  204.9910  151.8890 C   0  0  0  0  0  2  0  0  0  0  0  0
  161.0610  203.4810  151.7870 C   0  0  0  0  0  2  0  0  0  0  0  0
  160.9080  202.2600  149.5770 C   0  0  0  0  0  0  0  0  0  0  0  0
  161.6170  203.0940  150.4990 N   0  0  0  0  0  2  0  0  0  0  0  0
  159.7380  201.8700  149.8380 O   0  0  0  0  0  0  0  0  0  0  0  0
  161.0360  200.4610  147.8520 C   0  0  0  0  0  1  0  0  0  0  0  0
  161.5560  201.8180  148.3020 C   0  0  1  0  0  3  0  0  0  0  0  0
  162.6420  204.8610  146.3590 C   0  0  2  0  0  3  0  0  0  0  0  0
  161.8010  204.2770  147.5080 C   0  0  0  0  0  2  0  0  0  0  0  0
  161.4300  202.8530  147.2200 C   0  0  0  0  0  0  0  0  0  0  0  0
  161.8320  205.7600  145.5430 C   0  0  0  0  0  2  0  0  0  0  0  0
  161.0260  202.5420  145.9820 C   0  0  0  0  0  3  0  0  0  0  0  0
  160.9650  203.6450  144.9700 C   0  0  0  0  0  2  0  0  0  0  0  0
  162.1990  204.4440  144.9920 N   0  0  2  0  0  0  0  0  0  0  0  0
  1  4  2  0  0  0  0
  1  3  1  0  0  0  0
  2 25  1  0  0  0  0
  2  6  2  0  0  0  0
  3  5  2  0  0  0  0
  4  2  1  0  0  0  0
  5  6  1  0  0  0  0
  7 10  2  0  0  0  0
  8 11  1  0  0  0  0
  8  9  2  0  0  0  0
  9 12  1  0  0  0  0
  9 10  1  0  0  0  0
 11  5  1  6  0  0  0
 11  7  1  0  0  0  0
 12 13  1  0  0  0  0
 14 13  1  0  0  0  0
 14 15  1  0  0  0  0
 15 17  1  0  0  0  0
 16 15  2  0  0  0  0
 18  3  1  0  0  0  0
 19 20  2  0  0  0  0
 19 24  1  0  0  0  0
 20 21  1  0  0  0  0
 21 22  2  0  0  0  0
 22 18  1  0  0  0  0
 23 22  1  0  0  0  0
 24 23  2  0  0  0  0
 25 26  1  0  0  0  0
 27 26  1  0  0  0  0
 28 30  2  0  0  0  0
 28 29  1  0  0  0  0
 29 27  1  0  0  0  0
 32 31  1  6  0  0  0
 32 28  1  0  0  0  0
 33 36  1  6  0  0  0
 33 34  1  0  0  0  0
 35 34  1  0  0  0  0
 35 32  1  0  0  0  0
 37 35  2  0  0  0  0
 38 37  1  0  0  0  0
 39 38  1  1  0  0  0
 39 36  1  0  0  0  0
 39 33  1  0  0  0  0
M  END
>  <MODEL>
2

>  <REMARK>
 VINA RESULT:      -7.7      1.778      2.026
  Name = 
  13 active torsions:
  status: ('A' for Active; 'I' for Inactive)
    1  A    between atoms: C_6  and  C_33
    2  A    between atoms: C_7  and  C_31
    3  A    between atoms: C_8  and  C_22
    4  A    between atoms: C_11  and  N_35
    5  A    between atoms: C_13  and  C_31
    6  A    between atoms: N_15  and  C_16
    7  A    between atoms: N_15  and  C_21
    8  A    between atoms: C_18  and  N_25
    9  A    between atoms: C_18  and  C_34
   10  A    between atoms: C_20  and  C_23
   11  A    between atoms: C_22  and  C_34
   12  A    between atoms: C_29  and  C_33
   13  A    between atoms: C_29  and  N_35
                            x       y       z     vdW  Elec       q    Type
                         _______ _______ _______ _____ _____    ______ ____

>  <TORSDO>
F 13

$$$$
=
 OpenBabel11052410013D

 39 43  0  0  1  0  0  0  0  0999 V2000
  160.8720  207.4960  155.0030 C   0  0  0  0  0  3  0  0  0  0  0  0
  161.2160  206.4750  152.8380 C   0  0  0  0  0  0  0  0  0  0  0  0
  161.1960  208.7580  154.4810 C   0  0  0  0  0  0  0  0  0  0  0  0
  160.8820  206.3620  154.1900 C   0  0  0  0  0  3  0  0  0  0  0  0
  161.5420  208.8690  153.1200 C   0  0  0  0  0  0  0  0  0  0  0  0
  161.5500  207.7220  152.3070 C   0  0  0  0  0  3  0  0  0  0  0  0
  160.7160  211.0180  152.3020 N   0  0  0  0  0  0  0  0  0  0  0  0
  162.5340  210.0720  151.1850 C   0  0  0  0  0  3  0  0  0  0  0  0
  161.7760  210.7540  150.3480 C   0  0  0  0  0  0  0  0  0  0  0  0
  160.6490  211.3340  151.0510 C   0  0  0  0  0  3  0  0  0  0  0  0
  161.9070  210.2080  152.5410 C   0  0  2  0  0  3  0  0  0  0  0  0
  162.0370  210.8690  148.9500 N   0  0  0  0  0  2  0  0  0  0  0  0
  162.7820  211.9900  148.3980 C   0  0  0  0  0  2  0  0  0  0  0  0
  161.8290  213.0890  147.9590 C   0  0  0  0  0  2  0  0  0  0  0  0
  161.1730  212.7540  146.6610 C   0  0  0  0  0  0  0  0  0  0  0  0
  161.7900  213.0750  145.4570 O   0  0  0  0  0  0  0  0  0  0  0  0
  160.0420  212.2030  146.6560 O   0  0  0  0  0  1  0  0  0  0  0  0
  161.1940  209.9370  155.3050 N   0  0  0  0  0  2  0  0  0  0  0  0
  157.9900  212.5090  156.1100 N   0  0  0  0  0  0  0  0  0  0  0  0
  157.7390  211.2060  155.8140 C   0  0  0  0  0  3  0  0  0  0  0  0
  158.8030  210.3470  155.5440 C   0  0  0  0  0  3  0  0  0  0  0  0
  160.1070  210.8370  155.5780 C   0  0  0  0  0  0  0  0  0  0  0  0
  160.3060  212.1860  155.8890 C   0  0  0  0  0  3  0  0  0  0  0  0
  159.2370  212.9840  156.1470 N   0  0  0  0  0  0  0  0  0  0  0  0
  161.2400  205.2640  151.9720 C   0  0  0  0  0  2  0  0  0  0  0  0
  160.9930  204.0220  152.8070 C   0  0  0  0  0  2  0  0  0  0  0  0
  160.6870  202.8510  151.8960 C   0  0  0  0  0  2  0  0  0  0  0  0
  160.7210  202.4990  149.3910 C   0  0  0  0  0  0  0  0  0  0  0  0
  161.2620  203.0840  150.5790 N   0  0  0  0  0  2  0  0  0  0  0  0
  159.6810  201.7890  149.4460 O   0  0  0  0  0  0  0  0  0  0  0  0
  160.7540  201.8570  146.9800 C   0  0  0  0  0  1  0  0  0  0  0  0
  161.3990  202.6990  148.0720 C   0  0  1  0  0  3  0  0  0  0  0  0
  161.6270  206.3960  148.7770 C   0  0  2  0  0  3  0  0  0  0  0  0
  160.7350  205.1690  148.5110 C   0  0  0  0  0  2  0  0  0  0  0  0
  161.4690  204.1500  147.6910 C   0  0  0  0  0  0  0  0  0  0  0  0
  161.2190  207.5130  147.9310 C   0  0  0  0  0  2  0  0  0  0  0  0
  162.2000  204.5790  146.6550 C   0  0  0  0  0  3  0  0  0  0  0  0
  162.2260  206.0520  146.3800 C   0  0  0  0  0  2  0  0  0  0  0  0
  162.4740  206.8100  147.6150 N   0  0  2  0  0  0  0  0  0  0  0  0
  2  4  1  0  0  0  0
  3  1  1  0  0  0  0
  3 18  1  0  0  0  0
  4  1  2  0  0  0  0
  5  3  2  0  0  0  0
  6  2  2  0  0  0  0
  6  5  1  0  0  0  0
  7 11  1  0  0  0  0
  8 11  1  0  0  0  0
  9 10  1  0  0  0  0
  9  8  2  0  0  0  0
 10  7  2  0  0  0  0
 11  5  1  6  0  0  0
 12  9  1  0  0  0  0
 13 12  1  0  0  0  0
 14 13  1  0  0  0  0
 15 14  1  0  0  0  0
 16 15  2  0  0  0  0
 17 15  1  0  0  0  0
 18 22  1  0  0  0  0
 19 24  1  0  0  0  0
 20 19  2  0  0  0  0
 21 22  2  0  0  0  0
 21 20  1  0  0  0  0
 22 23  1  0  0  0  0
 23 24  2  0  0  0  0
 25 26  1  0  0  0  0
 25  2  1  0  0  0  0
 27 26  1  0  0  0  0
 28 30  2  0  0  0  0
 28 29  1  0  0  0  0
 29 27  1  0  0  0  0
 32 31  1  6  0  0  0
 32 28  1  0  0  0  0
 33 36  1  6  0  0  0
 34 33  1  0  0  0  0
 35 32  1  0  0  0  0
 35 34  1  0  0  0  0
 37 35  2  0  0  0  0
 38 37  1  0  0  0  0
 39 38  1  6  0  0  0
 39 36  1  0  0  0  0
 39 33  1  0  0  0  0
M  END
>  <MODEL>
3

>  <REMARK>
 VINA RESULT:      -7.4      2.082      4.795
  Name = 
  13 active torsions:
  status: ('A' for Active; 'I' for Inactive)
    1  A    between atoms: C_6  and  C_33
    2  A    between atoms: C_7  and  C_31
    3  A    between atoms: C_8  and  C_22
    4  A    between atoms: C_11  and  N_35
    5  A    between atoms: C_13  and  C_31
    6  A    between atoms: N_15  and  C_16
    7  A    between atoms: N_15  and  C_21
    8  A    between atoms: C_18  and  N_25
    9  A    between atoms: C_18  and  C_34
   10  A    between atoms: C_20  and  C_23
   11  A    between atoms: C_22  and  C_34
   12  A    between atoms: C_29  and  C_33
   13  A    between atoms: C_29  and  N_35
                            x       y       z     vdW  Elec       q    Type
                         _______ _______ _______ _____ _____    ______ ____

>  <TORSDO>
F 13

$$$$
=
 OpenBabel11052410013D

 39 43  0  0  1  0  0  0  0  0999 V2000
  160.7650  208.5400  154.4720 C   0  0  0  0  0  3  0  0  0  0  0  0
  160.8730  208.3320  152.0650 C   0  0  0  0  0  0  0  0  0  0  0  0
  160.4690  209.9060  154.3610 C   0  0  0  0  0  0  0  0  0  0  0  0
  160.9670  207.7570  153.3340 C   0  0  0  0  0  3  0  0  0  0  0  0
  160.3840  210.4880  153.0800 C   0  0  0  0  0  0  0  0  0  0  0  0
  160.5890  209.6930  151.9390 C   0  0  0  0  0  3  0  0  0  0  0  0
  158.6430  212.1870  152.8510 N   0  0  0  0  0  0  0  0  0  0  0  0
  160.6170  212.5050  151.6480 C   0  0  0  0  0  3  0  0  0  0  0  0
  159.5850  212.9920  150.9870 C   0  0  0  0  0  0  0  0  0  0  0  0
  158.3640  212.7860  151.7410 C   0  0  0  0  0  3  0  0  0  0  0  0
  160.0820  211.9540  152.9360 C   0  0  2  0  0  3  0  0  0  0  0  0
  159.6790  213.6070  149.7030 N   0  0  0  0  0  2  0  0  0  0  0  0
  160.8910  214.2780  149.2600 C   0  0  0  0  0  2  0  0  0  0  0  0
  161.2860  213.7880  147.8760 C   0  0  0  0  0  2  0  0  0  0  0  0
  162.0810  212.5280  147.9520 C   0  0  0  0  0  0  0  0  0  0  0  0
  163.4650  212.5740  148.0730 O   0  0  0  0  0  1  0  0  0  0  0  0
  161.4970  211.4150  147.8760 O   0  0  0  0  0  0  0  0  0  0  0  0
  160.2600  210.7290  155.5230 N   0  0  0  0  0  2  0  0  0  0  0  0
  156.7500  212.6740  156.7140 N   0  0  0  0  0  0  0  0  0  0  0  0
  156.6690  211.4350  156.1600 C   0  0  0  0  0  3  0  0  0  0  0  0
  157.8350  210.7850  155.7600 C   0  0  0  0  0  3  0  0  0  0  0  0
  159.0660  211.4150  155.9320 C   0  0  0  0  0  0  0  0  0  0  0  0
  159.0900  212.6900  156.5080 C   0  0  0  0  0  3  0  0  0  0  0  0
  157.9260  213.2820  156.8830 N   0  0  0  0  0  0  0  0  0  0  0  0
  161.1010  207.5020  150.8500 C   0  0  0  0  0  2  0  0  0  0  0  0
  162.3100  208.0130  150.0910 C   0  0  0  0  0  2  0  0  0  0  0  0
  161.9730  208.1260  148.6180 C   0  0  0  0  0  2  0  0  0  0  0  0
  161.3210  206.0600  147.3120 C   0  0  0  0  0  0  0  0  0  0  0  0
  162.3090  206.8860  147.9360 N   0  0  0  0  0  2  0  0  0  0  0  0
  160.1120  206.4160  147.2940 O   0  0  0  0  0  0  0  0  0  0  0  0
  163.1190  204.7880  146.1400 C   0  0  0  0  0  1  0  0  0  0  0  0
  161.7050  204.7500  146.6990 C   0  0  1  0  0  3  0  0  0  0  0  0
  160.3890  203.1150  149.8310 C   0  0  2  0  0  3  0  0  0  0  0  0
  161.5420  203.8560  149.1300 C   0  0  0  0  0  2  0  0  0  0  0  0
  161.5100  203.6050  147.6520 C   0  0  0  0  0  0  0  0  0  0  0  0
  160.8940  201.9330  150.5240 C   0  0  0  0  0  2  0  0  0  0  0  0
  161.2720  202.3580  147.2270 C   0  0  0  0  0  3  0  0  0  0  0  0
  161.0620  201.2960  148.2620 C   0  0  0  0  0  2  0  0  0  0  0  0
  160.1130  201.7470  149.2900 N   0  0  2  0  0  0  0  0  0  0  0  0
  2  4  1  0  0  0  0
  3  1  1  0  0  0  0
  3 18  1  0  0  0  0
  4  1  2  0  0  0  0
  5  3  2  0  0  0  0
  6  2  2  0  0  0  0
  6  5  1  0  0  0  0
  7 11  1  0  0  0  0
  8 11  1  0  0  0  0
  9  8  2  0  0  0  0
  9 10  1  0  0  0  0
 10  7  2  0  0  0  0
 11  5  1  6  0  0  0
 12  9  1  0  0  0  0
 13 12  1  0  0  0  0
 14 15  1  0  0  0  0
 14 13  1  0  0  0  0
 15 16  1  0  0  0  0
 17 15  2  0  0  0  0
 18 22  1  0  0  0  0
 19 24  1  0  0  0  0
 20 19  2  0  0  0  0
 21 22  2  0  0  0  0
 21 20  1  0  0  0  0
 22 23  1  0  0  0  0
 23 24  2  0  0  0  0
 25  2  1  0  0  0  0
 26 25  1  0  0  0  0
 27 26  1  0  0  0  0
 28 29  1  0  0  0  0
 29 27  1  0  0  0  0
 30 28  2  0  0  0  0
 32 31  1  1  0  0  0
 32 28  1  0  0  0  0
 32 35  1  0  0  0  0
 33 34  1  6  0  0  0
 33 36  1  0  0  0  0
 35 34  1  0  0  0  0
 37 35  2  0  0  0  0
 37 38  1  0  0  0  0
 39 38  1  6  0  0  0
 39 33  1  0  0  0  0
 39 36  1  0  0  0  0
M  END
>  <MODEL>
4

>  <REMARK>
 VINA RESULT:      -7.4      2.317      5.453
  Name = 
  13 active torsions:
  status: ('A' for Active; 'I' for Inactive)
    1  A    between atoms: C_6  and  C_33
    2  A    between atoms: C_7  and  C_31
    3  A    between atoms: C_8  and  C_22
    4  A    between atoms: C_11  and  N_35
    5  A    between atoms: C_13  and  C_31
    6  A    between atoms: N_15  and  C_16
    7  A    between atoms: N_15  and  C_21
    8  A    between atoms: C_18  and  N_25
    9  A    between atoms: C_18  and  C_34
   10  A    between atoms: C_20  and  C_23
   11  A    between atoms: C_22  and  C_34
   12  A    between atoms: C_29  and  C_33
   13  A    between atoms: C_29  and  N_35
                            x       y       z     vdW  Elec       q    Type
                         _______ _______ _______ _____ _____    ______ ____

>  <TORSDO>
F 13

$$$$
=
 OpenBabel11052410013D

 39 43  0  0  1  0  0  0  0  0999 V2000
  161.9810  209.7650  150.8160 C   0  0  0  0  0  3  0  0  0  0  0  0
  161.9760  207.5060  151.6790 C   0  0  0  0  0  0  0  0  0  0  0  0
  162.0360  209.2830  149.5000 C   0  0  0  0  0  0  0  0  0  0  0  0
  161.9520  208.8860  151.8990 C   0  0  0  0  0  3  0  0  0  0  0  0
  162.0700  207.8920  149.2800 C   0  0  0  0  0  0  0  0  0  0  0  0
  162.0400  207.0120  150.3750 C   0  0  0  0  0  3  0  0  0  0  0  0
  160.8140  207.2720  147.2770 N   0  0  0  0  0  0  0  0  0  0  0  0
  162.6380  205.9360  147.8560 C   0  0  0  0  0  3  0  0  0  0  0  0
  161.6930  205.2130  147.2860 C   0  0  0  0  0  0  0  0  0  0  0  0
  160.5640  206.0520  146.9340 C   0  0  0  0  0  3  0  0  0  0  0  0
  162.1420  207.3510  147.8780 C   0  0  2  0  0  3  0  0  0  0  0  0
  161.7830  203.8040  147.0790 N   0  0  0  0  0  2  0  0  0  0  0  0
  161.2610  202.8510  148.0460 C   0  0  0  0  0  2  0  0  0  0  0  0
  160.8990  203.5600  149.3400 C   0  0  0  0  0  2  0  0  0  0  0  0
  160.9040  202.6170  150.4970 C   0  0  0  0  0  0  0  0  0  0  0  0
  161.2110  203.0700  151.7740 O   0  0  0  0  0  1  0  0  0  0  0  0
  160.6560  201.3970  150.3090 O   0  0  0  0  0  0  0  0  0  0  0  0
  162.0700  210.1750  148.3710 N   0  0  0  0  0  2  0  0  0  0  0  0
  162.0100  214.3610  148.3110 N   0  0  0  0  0  0  0  0  0  0  0  0
  163.1420  213.7060  147.9430 C   0  0  0  0  0  3  0  0  0  0  0  0
  163.1670  212.3130  147.9630 C   0  0  0  0  0  3  0  0  0  0  0  0
  162.0310  211.6120  148.3630 C   0  0  0  0  0  0  0  0  0  0  0  0
  160.8930  212.3370  148.7320 C   0  0  0  0  0  3  0  0  0  0  0  0
  160.9180  213.6950  148.6940 N   0  0  0  0  0  0  0  0  0  0  0  0
  161.9580  206.5670  152.8340 C   0  0  0  0  0  2  0  0  0  0  0  0
  160.6330  206.6660  153.5650 C   0  0  0  0  0  2  0  0  0  0  0  0
  160.8830  206.8930  155.0410 C   0  0  0  0  0  2  0  0  0  0  0  0
  160.5600  209.3170  155.6910 C   0  0  0  0  0  0  0  0  0  0  0  0
  161.3940  208.2390  155.2560 N   0  0  0  0  0  2  0  0  0  0  0  0
  159.3430  209.1150  155.9530 O   0  0  0  0  0  0  0  0  0  0  0  0
  162.6010  210.7390  155.4990 C   0  0  0  0  0  1  0  0  0  0  0  0
  161.1130  210.7020  155.8140 C   0  0  1  0  0  3  0  0  0  0  0  0
  158.9230  211.7510  152.9280 C   0  0  2  0  0  3  0  0  0  0  0  0
  160.3450  211.5700  153.4910 C   0  0  0  0  0  2  0  0  0  0  0  0
  160.3410  211.6900  154.9860 C   0  0  0  0  0  0  0  0  0  0  0  0
  158.7810  213.0720  152.3240 C   0  0  0  0  0  2  0  0  0  0  0  0
  159.6110  212.6660  155.5400 C   0  0  0  0  0  3  0  0  0  0  0  0
  158.8550  213.5790  154.6240 C   0  0  0  0  0  2  0  0  0  0  0  0
  158.1160  212.8100  153.6120 N   0  0  2  0  0  0  0  0  0  0  0  0
  1  4  1  0  0  0  0
  2  4  2  0  0  0  0
  2 25  1  0  0  0  0
  3  1  2  0  0  0  0
  5  3  1  0  0  0  0
  5  6  2  0  0  0  0
  6  2  1  0  0  0  0
  7 11  1  0  0  0  0
  8 11  1  0  0  0  0
  9  8  2  0  0  0  0
 10  7  2  0  0  0  0
 10  9  1  0  0  0  0
 11  5  1  1  0  0  0
 12  9  1  0  0  0  0
 12 13  1  0  0  0  0
 13 14  1  0  0  0  0
 14 15  1  0  0  0  0
 15 16  1  0  0  0  0
 17 15  2  0  0  0  0
 18  3  1  0  0  0  0
 19 24  1  0  0  0  0
 20 21  1  0  0  0  0
 20 19  2  0  0  0  0
 21 22  2  0  0  0  0
 22 18  1  0  0  0  0
 22 23  1  0  0  0  0
 24 23  2  0  0  0  0
 25 26  1  0  0  0  0
 26 27  1  0  0  0  0
 27 29  1  0  0  0  0
 28 32  1  0  0  0  0
 28 30  2  0  0  0  0
 29 28  1  0  0  0  0
 32 31  1  6  0  0  0
 33 36  1  6  0  0  0
 33 34  1  0  0  0  0
 33 39  1  0  0  0  0
 34 35  1  0  0  0  0
 35 37  2  0  0  0  0
 35 32  1  0  0  0  0
 38 37  1  0  0  0  0
 39 36  1  6  0  0  0
 39 38  1  0  0  0  0
M  END
>  <MODEL>
5

>  <REMARK>
 VINA RESULT:      -7.4      2.190      8.331
  Name = 
  13 active torsions:
  status: ('A' for Active; 'I' for Inactive)
    1  A    between atoms: C_6  and  C_33
    2  A    between atoms: C_7  and  C_31
    3  A    between atoms: C_8  and  C_22
    4  A    between atoms: C_11  and  N_35
    5  A    between atoms: C_13  and  C_31
    6  A    between atoms: N_15  and  C_16
    7  A    between atoms: N_15  and  C_21
    8  A    between atoms: C_18  and  N_25
    9  A    between atoms: C_18  and  C_34
   10  A    between atoms: C_20  and  C_23
   11  A    between atoms: C_22  and  C_34
   12  A    between atoms: C_29  and  C_33
   13  A    between atoms: C_29  and  N_35
                            x       y       z     vdW  Elec       q    Type
                         _______ _______ _______ _____ _____    ______ ____

>  <TORSDO>
F 13

$$$$
=
 OpenBabel11052410013D

 39 43  0  0  1  0  0  0  0  0999 V2000
  160.8600  202.6180  150.1720 C   0  0  0  0  0  3  0  0  0  0  0  0
  161.0890  204.4050  151.7840 C   0  0  0  0  0  0  0  0  0  0  0  0
  160.8250  203.5450  149.1190 C   0  0  0  0  0  0  0  0  0  0  0  0
  160.9910  203.0420  151.4950 C   0  0  0  0  0  3  0  0  0  0  0  0
  160.9150  204.9200  149.4130 C   0  0  0  0  0  0  0  0  0  0  0  0
  161.0460  205.3400  150.7480 C   0  0  0  0  0  3  0  0  0  0  0  0
  162.0820  205.8890  147.4980 N   0  0  0  0  0  0  0  0  0  0  0  0
  160.8310  207.3350  148.8360 C   0  0  0  0  0  3  0  0  0  0  0  0
  161.8870  207.9530  148.3420 C   0  0  0  0  0  0  0  0  0  0  0  0
  162.6580  207.0450  147.5160 C   0  0  0  0  0  3  0  0  0  0  0  0
  160.8650  205.9330  148.3030 C   0  0  2  0  0  3  0  0  0  0  0  0
  162.2140  209.3140  148.6170 N   0  0  0  0  0  2  0  0  0  0  0  0
  161.9880  209.9100  149.9250 C   0  0  0  0  0  2  0  0  0  0  0  0
  161.9650  211.4250  149.8150 C   0  0  0  0  0  2  0  0  0  0  0  0
  162.1560  211.8710  148.4030 C   0  0  0  0  0  0  0  0  0  0  0  0
  163.4270  212.1600  147.9210 O   0  0  0  0  0  1  0  0  0  0  0  0
  161.1560  212.0140  147.6530 O   0  0  0  0  0  0  0  0  0  0  0  0
  160.6880  203.1250  147.7500 N   0  0  0  0  0  2  0  0  0  0  0  0
  161.2110  199.3270  146.0670 N   0  0  0  0  0  0  0  0  0  0  0  0
  160.6370  200.3110  145.3250 C   0  0  0  0  0  3  0  0  0  0  0  0
  160.4590  201.5750  145.8820 C   0  0  0  0  0  3  0  0  0  0  0  0
  160.8710  201.8130  147.1920 C   0  0  0  0  0  0  0  0  0  0  0  0
  161.4560  200.7640  147.9090 C   0  0  0  0  0  3  0  0  0  0  0  0
  161.6090  199.5480  147.3220 N   0  0  0  0  0  0  0  0  0  0  0  0
  161.2150  204.8610  153.1960 C   0  0  0  0  0  2  0  0  0  0  0  0
  161.2150  206.3760  153.2550 C   0  0  0  0  0  2  0  0  0  0  0  0
  160.8280  206.8290  154.6480 C   0  0  0  0  0  2  0  0  0  0  0  0
  160.4920  209.1950  155.4800 C   0  0  0  0  0  0  0  0  0  0  0  0
  161.3070  208.1840  154.8790 N   0  0  0  0  0  2  0  0  0  0  0  0
  159.3270  208.9210  155.8780 O   0  0  0  0  0  0  0  0  0  0  0  0
  162.5150  210.6550  155.4990 C   0  0  0  0  0  1  0  0  0  0  0  0
  160.9990  210.5960  155.6170 C   0  0  1  0  0  3  0  0  0  0  0  0
  159.0580  211.4640  152.5030 C   0  0  2  0  0  3  0  0  0  0  0  0
  160.4290  211.2850  153.1810 C   0  0  0  0  0  2  0  0  0  0  0  0
  160.3260  211.5340  154.6560 C   0  0  0  0  0  0  0  0  0  0  0  0
  159.0110  212.7320  151.7820 C   0  0  0  0  0  2  0  0  0  0  0  0
  159.6000  212.5780  155.0720 C   0  0  0  0  0  3  0  0  0  0  0  0
  158.9450  213.4330  154.0300 C   0  0  0  0  0  2  0  0  0  0  0  0
  158.2480  212.6040  153.0360 N   0  0  2  0  0  0  0  0  0  0  0  0
  1  4  1  0  0  0  0
  2 25  1  0  0  0  0
  3  5  1  0  0  0  0
  3  1  2  0  0  0  0
  4  2  2  0  0  0  0
  5  6  2  0  0  0  0
  6  2  1  0  0  0  0
  7 10  2  0  0  0  0
  7 11  1  0  0  0  0
  9 12  1  0  0  0  0
  9  8  2  0  0  0  0
 10  9  1  0  0  0  0
 11  8  1  0  0  0  0
 11  5  1  1  0  0  0
 12 13  1  0  0  0  0
 14 13  1  0  0  0  0
 15 14  1  0  0  0  0
 16 15  1  0  0  0  0
 17 15  2  0  0  0  0
 18  3  1  0  0  0  0
 19 24  1  0  0  0  0
 20 21  1  0  0  0  0
 20 19  2  0  0  0  0
 21 22  2  0  0  0  0
 22 18  1  0  0  0  0
 22 23  1  0  0  0  0
 24 23  2  0  0  0  0
 25 26  1  0  0  0  0
 26 27  1  0  0  0  0
 27 29  1  0  0  0  0
 28 32  1  0  0  0  0
 28 30  2  0  0  0  0
 29 28  1  0  0  0  0
 32 31  1  6  0  0  0
 33 36  1  6  0  0  0
 33 39  1  0  0  0  0
 33 34  1  0  0  0  0
 34 35  1  0  0  0  0
 35 37  2  0  0  0  0
 35 32  1  0  0  0  0
 38 37  1  0  0  0  0
 39 36  1  6  0  0  0
 39 38  1  0  0  0  0
M  END
>  <MODEL>
6

>  <REMARK>
 VINA RESULT:      -7.3      2.579      8.834
  Name = 
  13 active torsions:
  status: ('A' for Active; 'I' for Inactive)
    1  A    between atoms: C_6  and  C_33
    2  A    between atoms: C_7  and  C_31
    3  A    between atoms: C_8  and  C_22
    4  A    between atoms: C_11  and  N_35
    5  A    between atoms: C_13  and  C_31
    6  A    between atoms: N_15  and  C_16
    7  A    between atoms: N_15  and  C_21
    8  A    between atoms: C_18  and  N_25
    9  A    between atoms: C_18  and  C_34
   10  A    between atoms: C_20  and  C_23
   11  A    between atoms: C_22  and  C_34
   12  A    between atoms: C_29  and  C_33
   13  A    between atoms: C_29  and  N_35
                            x       y       z     vdW  Elec       q    Type
                         _______ _______ _______ _____ _____    ______ ____

>  <TORSDO>
F 13

$$$$
=
 OpenBabel11052410013D

 39 43  0  0  1  0  0  0  0  0999 V2000
  160.9180  205.7540  153.1430 C   0  0  0  0  0  3  0  0  0  0  0  0
  160.9320  204.8850  150.8870 C   0  0  0  0  0  0  0  0  0  0  0  0
  161.6020  206.9060  152.7250 C   0  0  0  0  0  0  0  0  0  0  0  0
  160.5860  204.7500  152.2330 C   0  0  0  0  0  3  0  0  0  0  0  0
  161.9590  207.0360  151.3680 C   0  0  0  0  0  0  0  0  0  0  0  0
  161.6210  206.0210  150.4580 C   0  0  0  0  0  3  0  0  0  0  0  0
  162.3290  209.4320  151.6770 N   0  0  0  0  0  0  0  0  0  0  0  0
  162.3390  208.6190  149.4900 C   0  0  0  0  0  3  0  0  0  0  0  0
  161.8580  209.8470  149.5290 C   0  0  0  0  0  0  0  0  0  0  0  0
  161.8540  210.3400  150.8920 C   0  0  0  0  0  3  0  0  0  0  0  0
  162.7040  208.2550  150.8990 C   0  0  2  0  0  3  0  0  0  0  0  0
  161.3940  210.5570  148.3820 N   0  0  0  0  0  2  0  0  0  0  0  0
  161.5860  211.9920  148.2380 C   0  0  0  0  0  2  0  0  0  0  0  0
  161.4300  212.3990  146.7820 C   0  0  0  0  0  2  0  0  0  0  0  0
  160.0030  212.3360  146.3490 C   0  0  0  0  0  0  0  0  0  0  0  0
  158.9910  212.7800  147.1920 O   0  0  0  0  0  1  0  0  0  0  0  0
  159.7120  211.8520  145.2240 O   0  0  0  0  0  0  0  0  0  0  0  0
  161.9550  207.9500  153.6500 N   0  0  0  0  0  2  0  0  0  0  0  0
  159.7020  209.4470  156.8450 N   0  0  0  0  0  0  0  0  0  0  0  0
  159.4130  209.8520  155.5800 C   0  0  0  0  0  3  0  0  0  0  0  0
  160.1620  209.3580  154.5140 C   0  0  0  0  0  3  0  0  0  0  0  0
  161.1970  208.4570  154.7600 C   0  0  0  0  0  0  0  0  0  0  0  0
  161.4490  208.0750  156.0820 C   0  0  0  0  0  3  0  0  0  0  0  0
  160.6900  208.5840  157.0880 N   0  0  0  0  0  0  0  0  0  0  0  0
  160.5900  203.8080  149.9170 C   0  0  0  0  0  2  0  0  0  0  0  0
  160.8310  202.4480  150.5430 C   0  0  0  0  0  2  0  0  0  0  0  0
  160.2800  201.3670  149.6360 C   0  0  0  0  0  2  0  0  0  0  0  0
  160.9520  201.1710  147.2050 C   0  0  0  0  0  0  0  0  0  0  0  0
  160.2550  201.8400  148.2600 N   0  0  0  0  0  2  0  0  0  0  0  0
  161.5820  200.1030  147.4340 O   0  0  0  0  0  0  0  0  0  0  0  0
  159.7440  201.3150  145.0270 C   0  0  0  0  0  1  0  0  0  0  0  0
  160.9670  201.7440  145.8230 C   0  0  1  0  0  3  0  0  0  0  0  0
  162.8630  204.9560  146.3780 C   0  0  2  0  0  3  0  0  0  0  0  0
  161.9070  203.8890  146.9420 C   0  0  0  0  0  2  0  0  0  0  0  0
  161.1310  203.2380  145.8370 C   0  0  0  0  0  0  0  0  0  0  0  0
  162.3360  206.2940  146.6320 C   0  0  0  0  0  2  0  0  0  0  0  0
  160.6320  204.0170  144.8690 C   0  0  0  0  0  3  0  0  0  0  0  0
  160.8790  205.4920  144.9630 C   0  0  0  0  0  2  0  0  0  0  0  0
  162.2920  205.7680  145.2570 N   0  0  2  0  0  0  0  0  0  0  0  0
  2  4  1  0  0  0  0
  3  1  1  0  0  0  0
  3 18  1  0  0  0  0
  4  1  2  0  0  0  0
  5  3  2  0  0  0  0
  6  2  2  0  0  0  0
  6  5  1  0  0  0  0
  8  9  2  0  0  0  0
  8 11  1  0  0  0  0
  9 10  1  0  0  0  0
 10  7  2  0  0  0  0
 11  5  1  1  0  0  0
 11  7  1  0  0  0  0
 12  9  1  0  0  0  0
 13 12  1  0  0  0  0
 14 13  1  0  0  0  0
 15 14  1  0  0  0  0
 15 16  1  0  0  0  0
 17 15  2  0  0  0  0
 18 22  1  0  0  0  0
 19 24  1  0  0  0  0
 20 19  2  0  0  0  0
 21 22  2  0  0  0  0
 21 20  1  0  0  0  0
 22 23  1  0  0  0  0
 23 24  2  0  0  0  0
 25 26  1  0  0  0  0
 25  2  1  0  0  0  0
 27 26  1  0  0  0  0
 28 30  2  0  0  0  0
 28 29  1  0  0  0  0
 29 27  1  0  0  0  0
 32 31  1  1  0  0  0
 32 35  1  0  0  0  0
 32 28  1  0  0  0  0
 33 36  1  1  0  0  0
 33 34  1  0  0  0  0
 35 34  1  0  0  0  0
 37 38  1  0  0  0  0
 37 35  2  0  0  0  0
 39 38  1  1  0  0  0
 39 33  1  0  0  0  0
 39 36  1  0  0  0  0
M  END
>  <MODEL>
7

>  <REMARK>
 VINA RESULT:      -7.3      2.260      4.955
  Name = 
  13 active torsions:
  status: ('A' for Active; 'I' for Inactive)
    1  A    between atoms: C_6  and  C_33
    2  A    between atoms: C_7  and  C_31
    3  A    between atoms: C_8  and  C_22
    4  A    between atoms: C_11  and  N_35
    5  A    between atoms: C_13  and  C_31
    6  A    between atoms: N_15  and  C_16
    7  A    between atoms: N_15  and  C_21
    8  A    between atoms: C_18  and  N_25
    9  A    between atoms: C_18  and  C_34
   10  A    between atoms: C_20  and  C_23
   11  A    between atoms: C_22  and  C_34
   12  A    between atoms: C_29  and  C_33
   13  A    between atoms: C_29  and  N_35
                            x       y       z     vdW  Elec       q    Type
                         _______ _______ _______ _____ _____    ______ ____

>  <TORSDO>
F 13

$$$$
=
 OpenBabel11052410013D

 39 43  0  0  1  0  0  0  0  0999 V2000
  161.6040  207.9510  151.1870 C   0  0  0  0  0  3  0  0  0  0  0  0
  161.4500  207.6980  148.7870 C   0  0  0  0  0  0  0  0  0  0  0  0
  161.9090  209.3130  151.0440 C   0  0  0  0  0  0  0  0  0  0  0  0
  161.3770  207.1480  150.0690 C   0  0  0  0  0  3  0  0  0  0  0  0
  161.9920  209.8650  149.7500 C   0  0  0  0  0  0  0  0  0  0  0  0
  161.7620  209.0500  148.6290 C   0  0  0  0  0  3  0  0  0  0  0  0
  161.1430  212.1560  149.7180 N   0  0  0  0  0  0  0  0  0  0  0  0
  162.8100  211.6080  148.1790 C   0  0  0  0  0  3  0  0  0  0  0  0
  161.9880  212.5080  147.6750 C   0  0  0  0  0  0  0  0  0  0  0  0
  160.9560  212.8390  148.6380 C   0  0  0  0  0  3  0  0  0  0  0  0
  162.3310  211.3190  149.5710 C   0  0  2  0  0  3  0  0  0  0  0  0
  162.1060  213.0460  146.3590 N   0  0  0  0  0  2  0  0  0  0  0  0
  160.9710  213.1090  145.4510 C   0  0  0  0  0  2  0  0  0  0  0  0
  161.3430  213.8870  144.1990 C   0  0  0  0  0  2  0  0  0  0  0  0
  162.5000  213.2610  143.4940 C   0  0  0  0  0  0  0  0  0  0  0  0
  163.7570  213.8530  143.5390 O   0  0  0  0  0  1  0  0  0  0  0  0
  162.3300  212.2050  142.8300 O   0  0  0  0  0  0  0  0  0  0  0  0
  162.1490  210.1550  152.1860 N   0  0  0  0  0  2  0  0  0  0  0  0
  159.3970  211.3740  155.0960 N   0  0  0  0  0  0  0  0  0  0  0  0
  158.9980  211.2830  153.8000 C   0  0  0  0  0  3  0  0  0  0  0  0
  159.9120  210.8810  152.8280 C   0  0  0  0  0  3  0  0  0  0  0  0
  161.2210  210.5780  153.1980 C   0  0  0  0  0  0  0  0  0  0  0  0
  161.5760  210.6880  154.5470 C   0  0  0  0  0  3  0  0  0  0  0  0
  160.6490  211.0840  155.4580 N   0  0  0  0  0  0  0  0  0  0  0  0
  161.2210  206.8400  147.5920 C   0  0  0  0  0  2  0  0  0  0  0  0
  162.5420  206.3050  147.0760 C   0  0  0  0  0  2  0  0  0  0  0  0
  162.3050  205.0170  146.3130 C   0  0  0  0  0  2  0  0  0  0  0  0
  161.2050  202.8010  146.8420 C   0  0  0  0  0  0  0  0  0  0  0  0
  161.9610  203.9490  147.2400 N   0  0  0  0  0  2  0  0  0  0  0  0
  160.8490  202.6560  145.6420 O   0  0  0  0  0  0  0  0  0  0  0  0
  161.4050  200.4110  147.5320 C   0  0  0  0  0  1  0  0  0  0  0  0
  160.8020  201.7720  147.8510 C   0  0  1  0  0  3  0  0  0  0  0  0
  160.4560  203.9810  150.8870 C   0  0  2  0  0  3  0  0  0  0  0  0
  161.2000  203.6710  149.5750 C   0  0  0  0  0  2  0  0  0  0  0  0
  161.1160  202.2080  149.2540 C   0  0  0  0  0  0  0  0  0  0  0  0
  161.4080  204.1970  151.9720 C   0  0  0  0  0  2  0  0  0  0  0  0
  161.2930  201.3310  150.2490 C   0  0  0  0  0  3  0  0  0  0  0  0
  161.5720  201.8730  151.6180 C   0  0  0  0  0  2  0  0  0  0  0  0
  160.6280  202.9480  151.9570 N   0  0  2  0  0  0  0  0  0  0  0  0
  2  4  1  0  0  0  0
  3  1  1  0  0  0  0
  3 18  1  0  0  0  0
  4  1  2  0  0  0  0
  5  3  2  0  0  0  0
  6  2  2  0  0  0  0
  6  5  1  0  0  0  0
  8 11  1  0  0  0  0
  9  8  2  0  0  0  0
  9 10  1  0  0  0  0
 10  7  2  0  0  0  0
 11  7  1  0  0  0  0
 11  5  1  6  0  0  0
 12  9  1  0  0  0  0
 13 12  1  0  0  0  0
 14 13  1  0  0  0  0
 15 16  1  0  0  0  0
 15 14  1  0  0  0  0
 17 15  2  0  0  0  0
 18 22  1  0  0  0  0
 19 24  1  0  0  0  0
 20 19  2  0  0  0  0
 21 22  2  0  0  0  0
 21 20  1  0  0  0  0
 22 23  1  0  0  0  0
 23 24  2  0  0  0  0
 25  2  1  0  0  0  0
 26 25  1  0  0  0  0
 27 26  1  0  0  0  0
 27 29  1  0  0  0  0
 28 29  1  0  0  0  0
 28 32  1  0  0  0  0
 30 28  2  0  0  0  0
 32 31  1  6  0  0  0
 32 35  1  0  0  0  0
 33 34  1  6  0  0  0
 33 39  1  0  0  0  0
 33 36  1  0  0  0  0
 35 34  1  0  0  0  0
 35 37  2  0  0  0  0
 37 38  1  0  0  0  0
 39 38  1  6  0  0  0
 39 36  1  0  0  0  0
M  END
>  <MODEL>
8

>  <REMARK>
 VINA RESULT:      -7.2      2.669      5.724
  Name = 
  13 active torsions:
  status: ('A' for Active; 'I' for Inactive)
    1  A    between atoms: C_6  and  C_33
    2  A    between atoms: C_7  and  C_31
    3  A    between atoms: C_8  and  C_22
    4  A    between atoms: C_11  and  N_35
    5  A    between atoms: C_13  and  C_31
    6  A    between atoms: N_15  and  C_16
    7  A    between atoms: N_15  and  C_21
    8  A    between atoms: C_18  and  N_25
    9  A    between atoms: C_18  and  C_34
   10  A    between atoms: C_20  and  C_23
   11  A    between atoms: C_22  and  C_34
   12  A    between atoms: C_29  and  C_33
   13  A    between atoms: C_29  and  N_35
                            x       y       z     vdW  Elec       q    Type
                         _______ _______ _______ _____ _____    ______ ____

>  <TORSDO>
F 13

$$$$
=
 OpenBabel11052410013D

 39 43  0  0  1  0  0  0  0  0999 V2000
  160.1310  210.2840  155.0110 C   0  0  0  0  0  3  0  0  0  0  0  0
  160.7180  209.5380  152.7870 C   0  0  0  0  0  0  0  0  0  0  0  0
  159.6970  211.5180  154.5050 C   0  0  0  0  0  0  0  0  0  0  0  0
  160.6390  209.3010  154.1610 C   0  0  0  0  0  3  0  0  0  0  0  0
  159.7850  211.7600  153.1200 C   0  0  0  0  0  0  0  0  0  0  0  0
  160.2970  210.7650  152.2700 C   0  0  0  0  0  3  0  0  0  0  0  0
  157.9630  213.0050  152.0700 N   0  0  0  0  0  0  0  0  0  0  0  0
  160.1320  213.4590  151.3400 C   0  0  0  0  0  3  0  0  0  0  0  0
  159.2700  213.5930  150.3510 C   0  0  0  0  0  0  0  0  0  0  0  0
  157.9270  213.3060  150.8150 C   0  0  0  0  0  3  0  0  0  0  0  0
  159.3380  213.0800  152.5550 C   0  0  2  0  0  3  0  0  0  0  0  0
  159.6350  213.9480  149.0180 N   0  0  0  0  0  2  0  0  0  0  0  0
  160.0540  212.9520  148.0450 C   0  0  0  0  0  2  0  0  0  0  0  0
  161.4730  213.2340  147.5810 C   0  0  0  0  0  2  0  0  0  0  0  0
  162.4210  212.1870  148.0650 C   0  0  0  0  0  0  0  0  0  0  0  0
  161.9510  211.0710  148.7470 O   0  0  0  0  0  1  0  0  0  0  0  0
  163.6580  212.3300  147.8780 O   0  0  0  0  0  0  0  0  0  0  0  0
  159.1730  212.5440  155.3670 N   0  0  0  0  0  2  0  0  0  0  0  0
  155.2300  213.1330  156.6440 N   0  0  0  0  0  0  0  0  0  0  0  0
  155.8350  214.0880  155.8900 C   0  0  0  0  0  3  0  0  0  0  0  0
  157.1480  213.8970  155.4640 C   0  0  0  0  0  3  0  0  0  0  0  0
  157.8220  212.7300  155.8200 C   0  0  0  0  0  0  0  0  0  0  0  0
  157.1510  211.7810  156.5980 C   0  0  0  0  0  3  0  0  0  0  0  0
  155.8690  212.0130  156.9880 N   0  0  0  0  0  0  0  0  0  0  0  0
  161.2710  208.4960  151.8800 C   0  0  0  0  0  2  0  0  0  0  0  0
  160.8310  207.1190  152.3400 C   0  0  0  0  0  2  0  0  0  0  0  0
  162.0180  206.1780  152.3330 C   0  0  0  0  0  2  0  0  0  0  0  0
  161.2680  204.0650  151.1620 C   0  0  0  0  0  0  0  0  0  0  0  0
  161.9610  205.3170  151.1620 N   0  0  0  0  0  2  0  0  0  0  0  0
  160.6330  203.6880  152.1830 O   0  0  0  0  0  0  0  0  0  0  0  0
  160.2630  202.0750  150.0410 C   0  0  0  0  0  1  0  0  0  0  0  0
  161.3110  203.1750  149.9600 C   0  0  1  0  0  3  0  0  0  0  0  0
  161.4550  206.3010  147.8560 C   0  0  2  0  0  3  0  0  0  0  0  0
  160.6050  205.3290  148.6950 C   0  0  0  0  0  2  0  0  0  0  0  0
  161.2050  203.9540  148.6800 C   0  0  0  0  0  0  0  0  0  0  0  0
  160.8020  206.5720  146.5790 C   0  0  0  0  0  2  0  0  0  0  0  0
  161.6620  203.4770  147.5160 C   0  0  0  0  0  3  0  0  0  0  0  0
  161.5340  204.3490  146.3040 C   0  0  0  0  0  2  0  0  0  0  0  0
  161.9990  205.7140  146.5910 N   0  0  2  0  0  0  0  0  0  0  0  0
  2  4  1  0  0  0  0
  3  1  1  0  0  0  0
  3 18  1  0  0  0  0
  4  1  2  0  0  0  0
  5  3  2  0  0  0  0
  6  2  2  0  0  0  0
  6  5  1  0  0  0  0
  7 11  1  0  0  0  0
  8 11  1  0  0  0  0
  9 10  1  0  0  0  0
  9  8  2  0  0  0  0
 10  7  2  0  0  0  0
 11  5  1  6  0  0  0
 12  9  1  0  0  0  0
 13 12  1  0  0  0  0
 14 13  1  0  0  0  0
 14 15  1  0  0  0  0
 15 16  1  0  0  0  0
 17 15  2  0  0  0  0
 18 22  1  0  0  0  0
 19 24  1  0  0  0  0
 20 19  2  0  0  0  0
 21 22  2  0  0  0  0
 21 20  1  0  0  0  0
 22 23  1  0  0  0  0
 23 24  2  0  0  0  0
 25 26  1  0  0  0  0
 25  2  1  0  0  0  0
 27 26  1  0  0  0  0
 28 29  1  0  0  0  0
 28 30  2  0  0  0  0
 29 27  1  0  0  0  0
 32 31  1  1  0  0  0
 32 28  1  0  0  0  0
 33 36  1  6  0  0  0
 33 34  1  0  0  0  0
 35 34  1  0  0  0  0
 35 32  1  0  0  0  0
 36 39  1  0  0  0  0
 37 35  2  0  0  0  0
 38 37  1  0  0  0  0
 39 38  1  1  0  0  0
 39 33  1  0  0  0  0
M  END
>  <MODEL>
9

>  <REMARK>
 VINA RESULT:      -7.0      2.281      5.455
  Name = 
  13 active torsions:
  status: ('A' for Active; 'I' for Inactive)
    1  A    between atoms: C_6  and  C_33
    2  A    between atoms: C_7  and  C_31
    3  A    between atoms: C_8  and  C_22
    4  A    between atoms: C_11  and  N_35
    5  A    between atoms: C_13  and  C_31
    6  A    between atoms: N_15  and  C_16
    7  A    between atoms: N_15  and  C_21
    8  A    between atoms: C_18  and  N_25
    9  A    between atoms: C_18  and  C_34
   10  A    between atoms: C_20  and  C_23
   11  A    between atoms: C_22  and  C_34
   12  A    between atoms: C_29  and  C_33
   13  A    between atoms: C_29  and  N_35
                            x       y       z     vdW  Elec       q    Type
                         _______ _______ _______ _____ _____    ______ ____

>  <TORSDO>
F 13

$$$$
