=
 OpenBabel11052410133D

 25 28  0  0  1  0  0  0  0  0999 V2000
  161.2300  206.3170  151.5230 C   0  0  0  0  0  0  0  0  0  0  0  0
  161.1280  202.7490  152.3220 O   0  0  0  0  0  0  0  0  0  0  0  0
  161.0380  203.8990  151.9260 C   0  0  0  0  0  0  0  0  0  0  0  0
  161.3870  205.2900  152.9850 S   0  0  0  0  0  0  0  0  0  0  0  0
  160.6610  204.2190  150.5250 C   0  0  0  0  0  2  0  0  0  0  0  0
  160.8670  205.6860  150.4000 C   0  0  0  0  0  0  0  0  0  0  0  0
  160.6880  206.3450  149.0570 C   0  0  1  0  0  3  0  0  0  0  0  0
  162.8180  205.6720  146.1440 C   0  0  0  0  0  3  0  0  0  0  0  0
  160.8560  204.2220  147.5700 C   0  0  0  0  0  3  0  0  0  0  0  0
  162.1630  206.2200  147.2460 C   0  0  0  0  0  0  0  0  0  0  0  0
  161.4960  207.6580  148.9420 C   0  0  0  0  0  3  0  0  0  0  0  0
  161.2170  205.5190  147.9390 C   0  0  0  0  0  0  0  0  0  0  0  0
  162.4780  204.3670  145.7550 C   0  0  0  0  0  3  0  0  0  0  0  0
  162.3750  207.5090  147.7810 N   0  0  0  0  0  0  0  0  0  0  0  0
  161.4990  203.6440  146.4650 C   0  0  0  0  0  3  0  0  0  0  0  0
  161.5120  207.7210  151.5460 N   0  0  0  0  0  2  0  0  0  0  0  0
  161.6820  209.2370  156.0130 C   0  0  0  0  0  0  0  0  0  0  0  0
  161.3630  208.0590  156.7470 N   0  0  0  0  0  1  0  0  0  0  0  0
  161.8450  210.4220  153.7820 C   0  0  0  0  0  2  0  0  0  0  0  0
  161.4910  209.2780  154.5950 N   0  0  0  0  0  0  0  0  0  0  0  0
  160.6620  210.9720  151.7920 O   0  0  0  0  0  1  0  0  0  0  0  0
  160.8240  208.6680  152.4080 C   0  0  1  0  0  3  0  0  0  0  0  0
  160.9100  208.1860  153.8430 C   0  0  0  0  0  2  0  0  0  0  0  0
  161.5200  210.0270  152.3540 C   0  0  2  0  0  3  0  0  0  0  0  0
  162.1440  210.2380  156.6200 O   0  0  0  0  0  0  0  0  0  0  0  0
  1 16  1  0  0  0  0
  1  4  1  0  0  0  0
  3  2  2  0  0  0  0
  3  4  1  0  0  0  0
  5  3  1  0  0  0  0
  6  5  1  0  0  0  0
  6  1  2  0  0  0  0
  7  6  1  1  0  0  0
  8 10  1  0  0  0  0
  9 12  1  0  0  0  0
 10 14  1  0  0  0  0
 10 12  2  0  0  0  0
 11  7  1  0  0  0  0
 12  7  1  0  0  0  0
 13  8  2  0  0  0  0
 13 15  1  0  0  0  0
 14 11  2  0  0  0  0
 15  9  2  0  0  0  0
 17 25  2  0  0  0  0
 17 18  1  0  0  0  0
 19 20  1  0  0  0  0
 20 17  1  0  0  0  0
 22 16  1  6  0  0  0
 22 23  1  0  0  0  0
 23 20  1  0  0  0  0
 24 21  1  1  0  0  0
 24 22  1  0  0  0  0
 24 19  1  0  0  0  0
M  END
>  <MODEL>
1

>  <REMARK>
 VINA RESULT:      -8.8      0.000      0.000
  Name = 
  3 active torsions:
  status: ('A' for Active; 'I' for Inactive)
    1  A    between atoms: C_1  and  N_13
    2  A    between atoms: C_8  and  C_21
    3  A    between atoms: N_13  and  C_14
                            x       y       z     vdW  Elec       q    Type
                         _______ _______ _______ _____ _____    ______ ____

>  <TORSDO>
F 3

$$$$
=
 OpenBabel11052410133D

 25 28  0  0  1  0  0  0  0  0999 V2000
  160.8470  205.9030  151.3790 C   0  0  0  0  0  0  0  0  0  0  0  0
  162.0010  202.4770  151.9340 O   0  0  0  0  0  0  0  0  0  0  0  0
  161.5350  203.5520  151.5980 C   0  0  0  0  0  0  0  0  0  0  0  0
  161.1850  204.8380  152.7820 S   0  0  0  0  0  0  0  0  0  0  0  0
  161.2550  203.8760  150.1760 C   0  0  0  0  0  2  0  0  0  0  0  0
  160.9030  205.3210  150.1760 C   0  0  0  0  0  0  0  0  0  0  0  0
  160.6680  206.0240  148.8630 C   0  0  1  0  0  3  0  0  0  0  0  0
  162.7510  205.5420  145.8800 C   0  0  0  0  0  3  0  0  0  0  0  0
  160.8770  203.9670  147.2910 C   0  0  0  0  0  3  0  0  0  0  0  0
  162.1030  206.0220  147.0160 C   0  0  0  0  0  0  0  0  0  0  0  0
  161.4250  207.3700  148.7820 C   0  0  0  0  0  3  0  0  0  0  0  0
  161.2000  205.2610  147.7030 C   0  0  0  0  0  0  0  0  0  0  0  0
  162.4500  204.2410  145.4470 C   0  0  0  0  0  3  0  0  0  0  0  0
  162.2820  207.2970  147.5970 N   0  0  0  0  0  0  0  0  0  0  0  0
  161.5140  203.4560  146.1500 C   0  0  0  0  0  3  0  0  0  0  0  0
  160.5690  207.2990  151.5340 N   0  0  0  0  0  2  0  0  0  0  0  0
  160.2170  211.6590  153.3080 C   0  0  0  0  0  0  0  0  0  0  0  0
  160.3590  212.4730  152.1480 N   0  0  0  0  0  1  0  0  0  0  0  0
  160.3430  209.3680  154.3760 C   0  0  0  0  0  2  0  0  0  0  0  0
  160.5170  210.2610  153.2510 N   0  0  0  0  0  0  0  0  0  0  0  0
  161.7220  207.4550  154.6960 O   0  0  0  0  0  1  0  0  0  0  0  0
  161.2820  208.1670  152.4570 C   0  0  1  0  0  3  0  0  0  0  0  0
  161.0400  209.6120  152.0670 C   0  0  0  0  0  2  0  0  0  0  0  0
  160.7330  207.9910  153.8720 C   0  0  2  0  0  3  0  0  0  0  0  0
  159.8140  212.1780  154.3810 O   0  0  0  0  0  0  0  0  0  0  0  0
  1 16  1  0  0  0  0
  1  4  1  0  0  0  0
  3  2  2  0  0  0  0
  3  4  1  0  0  0  0
  5  6  1  0  0  0  0
  5  3  1  0  0  0  0
  6  1  2  0  0  0  0
  7  6  1  1  0  0  0
  8 10  1  0  0  0  0
  9 12  1  0  0  0  0
 10 14  1  0  0  0  0
 10 12  2  0  0  0  0
 11  7  1  0  0  0  0
 12  7  1  0  0  0  0
 13  8  2  0  0  0  0
 13 15  1  0  0  0  0
 14 11  2  0  0  0  0
 15  9  2  0  0  0  0
 17 25  2  0  0  0  0
 18 17  1  0  0  0  0
 20 17  1  0  0  0  0
 20 19  1  0  0  0  0
 22 16  1  6  0  0  0
 22 24  1  0  0  0  0
 23 22  1  0  0  0  0
 23 20  1  0  0  0  0
 24 19  1  0  0  0  0
 24 21  1  1  0  0  0
M  END
>  <MODEL>
2

>  <REMARK>
 VINA RESULT:      -8.5      1.500      2.175
  Name = 
  3 active torsions:
  status: ('A' for Active; 'I' for Inactive)
    1  A    between atoms: C_1  and  N_13
    2  A    between atoms: C_8  and  C_21
    3  A    between atoms: N_13  and  C_14
                            x       y       z     vdW  Elec       q    Type
                         _______ _______ _______ _____ _____    ______ ____

>  <TORSDO>
F 3

$$$$
=
 OpenBabel11052410133D

 25 28  0  0  1  0  0  0  0  0999 V2000
  161.5970  206.5720  151.3240 C   0  0  0  0  0  0  0  0  0  0  0  0
  160.9870  203.2630  152.7600 O   0  0  0  0  0  0  0  0  0  0  0  0
  161.0400  204.3340  152.1800 C   0  0  0  0  0  0  0  0  0  0  0  0
  161.8170  205.7630  152.9100 S   0  0  0  0  0  0  0  0  0  0  0  0
  160.4880  204.5140  150.8130 C   0  0  0  0  0  2  0  0  0  0  0  0
  160.9330  205.8710  150.3970 C   0  0  0  0  0  0  0  0  0  0  0  0
  160.6440  206.3460  148.9960 C   0  0  1  0  0  3  0  0  0  0  0  0
  162.7060  205.5010  146.0800 C   0  0  0  0  0  3  0  0  0  0  0  0
  160.9350  204.0800  147.7620 C   0  0  0  0  0  3  0  0  0  0  0  0
  162.0520  206.1220  147.1410 C   0  0  0  0  0  0  0  0  0  0  0  0
  161.3310  207.6970  148.6880 C   0  0  0  0  0  3  0  0  0  0  0  0
  161.1980  205.4360  147.9580 C   0  0  0  0  0  0  0  0  0  0  0  0
  162.4660  204.1350  145.8630 C   0  0  0  0  0  3  0  0  0  0  0  0
  162.1730  207.4800  147.5110 N   0  0  0  0  0  0  0  0  0  0  0  0
  161.5810  203.4260  146.7010 C   0  0  0  0  0  3  0  0  0  0  0  0
  162.1290  207.8720  151.0540 N   0  0  0  0  0  2  0  0  0  0  0  0
  160.1750  212.1630  151.2910 C   0  0  0  0  0  0  0  0  0  0  0  0
  160.8310  212.8560  150.2340 N   0  0  0  0  0  1  0  0  0  0  0  0
  160.0100  210.1090  152.7610 C   0  0  0  0  0  2  0  0  0  0  0  0
  160.6600  210.8900  151.7310 N   0  0  0  0  0  0  0  0  0  0  0  0
  161.2250  208.6580  154.2030 O   0  0  0  0  0  1  0  0  0  0  0  0
  162.0460  208.9880  151.9830 C   0  0  1  0  0  3  0  0  0  0  0  0
  161.8560  210.2720  151.1990 C   0  0  0  0  0  2  0  0  0  0  0  0
  160.8190  208.8310  152.8800 C   0  0  2  0  0  3  0  0  0  0  0  0
  159.1570  212.6740  151.8280 O   0  0  0  0  0  0  0  0  0  0  0  0
  1  4  1  0  0  0  0
  3  2  2  0  0  0  0
  3  4  1  0  0  0  0
  5  3  1  0  0  0  0
  6  5  1  0  0  0  0
  6  1  2  0  0  0  0
  7  6  1  1  0  0  0
  8 10  1  0  0  0  0
  9 12  1  0  0  0  0
 10 14  1  0  0  0  0
 10 12  2  0  0  0  0
 11  7  1  0  0  0  0
 12  7  1  0  0  0  0
 13  8  2  0  0  0  0
 13 15  1  0  0  0  0
 14 11  2  0  0  0  0
 15  9  2  0  0  0  0
 16  1  1  0  0  0  0
 17 20  1  0  0  0  0
 17 25  2  0  0  0  0
 18 17  1  0  0  0  0
 19 24  1  0  0  0  0
 20 19  1  0  0  0  0
 22 16  1  6  0  0  0
 22 24  1  0  0  0  0
 23 20  1  0  0  0  0
 23 22  1  0  0  0  0
 24 21  1  1  0  0  0
M  END
>  <MODEL>
3

>  <REMARK>
 VINA RESULT:      -8.0      1.788      2.707
  Name = 
  3 active torsions:
  status: ('A' for Active; 'I' for Inactive)
    1  A    between atoms: C_1  and  N_13
    2  A    between atoms: C_8  and  C_21
    3  A    between atoms: N_13  and  C_14
                            x       y       z     vdW  Elec       q    Type
                         _______ _______ _______ _____ _____    ______ ____

>  <TORSDO>
F 3

$$$$
=
 OpenBabel11052410133D

 25 28  0  0  1  0  0  0  0  0999 V2000
  161.3490  204.9340  149.8720 C   0  0  0  0  0  0  0  0  0  0  0  0
  160.2460  202.7990  152.6290 O   0  0  0  0  0  0  0  0  0  0  0  0
  160.7450  203.5670  151.8250 C   0  0  0  0  0  0  0  0  0  0  0  0
  160.5940  203.3190  150.0660 S   0  0  0  0  0  0  0  0  0  0  0  0
  161.4890  204.7790  152.2550 C   0  0  0  0  0  2  0  0  0  0  0  0
  161.7460  205.5340  150.9990 C   0  0  0  0  0  0  0  0  0  0  0  0
  162.3910  206.8950  151.0750 C   0  0  1  0  0  3  0  0  0  0  0  0
  160.6320  209.9390  152.1280 C   0  0  0  0  0  3  0  0  0  0  0  0
  161.5260  207.5920  153.4220 C   0  0  0  0  0  3  0  0  0  0  0  0
  161.2920  208.9290  151.4320 C   0  0  0  0  0  0  0  0  0  0  0  0
  162.2680  207.6700  149.7420 C   0  0  0  0  0  3  0  0  0  0  0  0
  161.7210  207.7910  152.0550 C   0  0  0  0  0  0  0  0  0  0  0  0
  160.4160  209.7630  153.5040 C   0  0  0  0  0  3  0  0  0  0  0  0
  161.5920  208.9310  150.0520 N   0  0  0  0  0  0  0  0  0  0  0  0
  160.8630  208.5930  154.1500 C   0  0  0  0  0  3  0  0  0  0  0  0
  161.4850  205.5610  148.5920 N   0  0  0  0  0  2  0  0  0  0  0  0
  160.7510  201.7200  145.9470 C   0  0  0  0  0  0  0  0  0  0  0  0
  160.9660  200.6630  146.8770 N   0  0  0  0  0  1  0  0  0  0  0  0
  160.8820  204.1880  145.4040 C   0  0  0  0  0  2  0  0  0  0  0  0
  161.1220  203.0610  146.2790 N   0  0  0  0  0  0  0  0  0  0  0  0
  162.3130  206.0900  145.3680 O   0  0  0  0  0  1  0  0  0  0  0  0
  162.0620  204.9050  147.4290 C   0  0  1  0  0  3  0  0  0  0  0  0
  161.7890  203.4150  147.5140 C   0  0  0  0  0  2  0  0  0  0  0  0
  161.3850  205.4070  146.1550 C   0  0  2  0  0  3  0  0  0  0  0  0
  160.2200  201.4660  144.8350 O   0  0  0  0  0  0  0  0  0  0  0  0
  1  4  1  0  0  0  0
  1  6  2  0  0  0  0
  3  5  1  0  0  0  0
  3  2  2  0  0  0  0
  4  3  1  0  0  0  0
  6  5  1  0  0  0  0
  7  6  1  6  0  0  0
  7 12  1  0  0  0  0
  8 13  1  0  0  0  0
  9 15  1  0  0  0  0
 10 12  1  0  0  0  0
 10  8  2  0  0  0  0
 11 14  2  0  0  0  0
 11  7  1  0  0  0  0
 12  9  2  0  0  0  0
 13 15  2  0  0  0  0
 14 10  1  0  0  0  0
 16  1  1  0  0  0  0
 17 20  1  0  0  0  0
 17 18  1  0  0  0  0
 19 24  1  0  0  0  0
 19 20  1  0  0  0  0
 20 23  1  0  0  0  0
 22 23  1  0  0  0  0
 22 16  1  1  0  0  0
 24 21  1  6  0  0  0
 24 22  1  0  0  0  0
 25 17  2  0  0  0  0
M  END
>  <MODEL>
4

>  <REMARK>
 VINA RESULT:      -7.9      3.224      7.386
  Name = 
  3 active torsions:
  status: ('A' for Active; 'I' for Inactive)
    1  A    between atoms: C_1  and  N_13
    2  A    between atoms: C_8  and  C_21
    3  A    between atoms: N_13  and  C_14
                            x       y       z     vdW  Elec       q    Type
                         _______ _______ _______ _____ _____    ______ ____

>  <TORSDO>
F 3

$$$$
=
 OpenBabel11052410133D

 25 28  0  0  1  0  0  0  0  0999 V2000
  161.1980  207.7310  149.8730 C   0  0  0  0  0  0  0  0  0  0  0  0
  162.7840  211.0260  149.8000 O   0  0  0  0  0  0  0  0  0  0  0  0
  162.1610  209.9920  149.9680 C   0  0  0  0  0  0  0  0  0  0  0  0
  161.8520  208.8510  148.6330 S   0  0  0  0  0  0  0  0  0  0  0  0
  161.6420  209.5970  151.3020 C   0  0  0  0  0  2  0  0  0  0  0  0
  161.1400  208.2090  151.1210 C   0  0  0  0  0  0  0  0  0  0  0  0
  160.6410  207.4420  152.3190 C   0  0  1  0  0  3  0  0  0  0  0  0
  161.5490  208.2370  155.7850 C   0  0  0  0  0  3  0  0  0  0  0  0
  159.9530  209.4610  153.8000 C   0  0  0  0  0  3  0  0  0  0  0  0
  161.3950  207.6710  154.5210 C   0  0  0  0  0  0  0  0  0  0  0  0
  161.5740  206.2630  152.6830 C   0  0  0  0  0  3  0  0  0  0  0  0
  160.6270  208.2630  153.5590 C   0  0  0  0  0  0  0  0  0  0  0  0
  160.8870  209.4460  156.0530 C   0  0  0  0  0  3  0  0  0  0  0  0
  161.9840  206.4680  154.0730 N   0  0  0  0  0  0  0  0  0  0  0  0
  160.0900  210.0560  155.0640 C   0  0  0  0  0  3  0  0  0  0  0  0
  160.7970  206.3940  149.5540 N   0  0  0  0  0  2  0  0  0  0  0  0
  160.8250  201.7440  148.7440 C   0  0  0  0  0  0  0  0  0  0  0  0
  160.6380  201.2060  150.0480 N   0  0  0  0  0  1  0  0  0  0  0  0
  161.2810  203.7530  147.2730 C   0  0  0  0  0  2  0  0  0  0  0  0
  161.1320  203.1310  148.5710 N   0  0  0  0  0  0  0  0  0  0  0  0
  162.7390  205.6000  146.9160 O   0  0  0  0  0  1  0  0  0  0  0  0
  161.7090  205.3740  149.0610 C   0  0  1  0  0  3  0  0  0  0  0  0
  161.3390  204.0390  149.6790 C   0  0  0  0  0  2  0  0  0  0  0  0
  161.5550  205.2200  147.5490 C   0  0  2  0  0  3  0  0  0  0  0  0
  160.7080  200.9910  147.7410 O   0  0  0  0  0  0  0  0  0  0  0  0
  1  6  2  0  0  0  0
  2  3  2  0  0  0  0
  3  5  1  0  0  0  0
  4  1  1  0  0  0  0
  4  3  1  0  0  0  0
  6  5  1  0  0  0  0
  7  6  1  6  0  0  0
  7 11  1  0  0  0  0
  7 12  1  0  0  0  0
  8 13  1  0  0  0  0
  9 15  1  0  0  0  0
 10  8  2  0  0  0  0
 11 14  2  0  0  0  0
 12  9  2  0  0  0  0
 12 10  1  0  0  0  0
 14 10  1  0  0  0  0
 15 13  2  0  0  0  0
 16  1  1  0  0  0  0
 17 18  1  0  0  0  0
 19 24  1  0  0  0  0
 19 20  1  0  0  0  0
 20 17  1  0  0  0  0
 20 23  1  0  0  0  0
 22 16  1  1  0  0  0
 22 23  1  0  0  0  0
 24 21  1  6  0  0  0
 24 22  1  0  0  0  0
 25 17  2  0  0  0  0
M  END
>  <MODEL>
5

>  <REMARK>
 VINA RESULT:      -7.9      2.964      7.678
  Name = 
  3 active torsions:
  status: ('A' for Active; 'I' for Inactive)
    1  A    between atoms: C_1  and  N_13
    2  A    between atoms: C_8  and  C_21
    3  A    between atoms: N_13  and  C_14
                            x       y       z     vdW  Elec       q    Type
                         _______ _______ _______ _____ _____    ______ ____

>  <TORSDO>
F 3

$$$$
=
 OpenBabel11052410133D

 25 28  0  0  1  0  0  0  0  0999 V2000
  161.8940  209.0580  150.6730 C   0  0  0  0  0  0  0  0  0  0  0  0
  162.0310  212.1840  148.7780 O   0  0  0  0  0  0  0  0  0  0  0  0
  161.8450  211.2190  149.5000 C   0  0  0  0  0  0  0  0  0  0  0  0
  162.3020  209.5690  149.0030 S   0  0  0  0  0  0  0  0  0  0  0  0
  161.2520  211.3560  150.8550 C   0  0  0  0  0  2  0  0  0  0  0  0
  161.3880  210.0070  151.4690 C   0  0  0  0  0  0  0  0  0  0  0  0
  160.9880  209.8080  152.9080 C   0  0  1  0  0  3  0  0  0  0  0  0
  159.8320  212.5090  155.1070 C   0  0  0  0  0  3  0  0  0  0  0  0
  158.7650  211.1500  152.8720 C   0  0  0  0  0  3  0  0  0  0  0  0
  160.5380  211.4930  154.4660 C   0  0  0  0  0  0  0  0  0  0  0  0
  162.1870  209.9700  153.8710 C   0  0  0  0  0  3  0  0  0  0  0  0
  160.0260  210.8380  153.3820 C   0  0  0  0  0  0  0  0  0  0  0  0
  158.5640  212.8490  154.6110 C   0  0  0  0  0  3  0  0  0  0  0  0
  161.8210  211.0220  154.8210 N   0  0  0  0  0  0  0  0  0  0  0  0
  158.0310  212.1700  153.4970 C   0  0  0  0  0  3  0  0  0  0  0  0
  162.1290  207.7250  151.1390 N   0  0  0  0  0  2  0  0  0  0  0  0
  160.9180  203.2250  150.3880 C   0  0  0  0  0  0  0  0  0  0  0  0
  160.7010  203.1980  148.9810 N   0  0  0  0  0  1  0  0  0  0  0  0
  161.3340  204.5710  152.4900 C   0  0  0  0  0  2  0  0  0  0  0  0
  161.0580  204.4730  151.0730 N   0  0  0  0  0  0  0  0  0  0  0  0
  160.5580  206.3950  153.8070 O   0  0  0  0  0  1  0  0  0  0  0  0
  161.0690  206.8000  151.5070 C   0  0  1  0  0  3  0  0  0  0  0  0
  160.9210  205.7560  150.4170 C   0  0  0  0  0  2  0  0  0  0  0  0
  161.4460  206.0550  152.7860 C   0  0  2  0  0  3  0  0  0  0  0  0
  160.9960  202.1400  151.0220 O   0  0  0  0  0  0  0  0  0  0  0  0
  1 16  1  0  0  0  0
  1  6  2  0  0  0  0
  2  3  2  0  0  0  0
  3  5  1  0  0  0  0
  4  3  1  0  0  0  0
  4  1  1  0  0  0  0
  5  6  1  0  0  0  0
  7  6  1  6  0  0  0
  7 12  1  0  0  0  0
  7 11  1  0  0  0  0
  9 12  2  0  0  0  0
  9 15  1  0  0  0  0
 10 14  1  0  0  0  0
 10  8  2  0  0  0  0
 11 14  2  0  0  0  0
 12 10  1  0  0  0  0
 13  8  1  0  0  0  0
 15 13  2  0  0  0  0
 17 25  2  0  0  0  0
 17 20  1  0  0  0  0
 18 17  1  0  0  0  0
 19 24  1  0  0  0  0
 20 19  1  0  0  0  0
 22 16  1  6  0  0  0
 22 24  1  0  0  0  0
 23 20  1  0  0  0  0
 23 22  1  0  0  0  0
 24 21  1  1  0  0  0
M  END
>  <MODEL>
6

>  <REMARK>
 VINA RESULT:      -7.7      2.923      7.594
  Name = 
  3 active torsions:
  status: ('A' for Active; 'I' for Inactive)
    1  A    between atoms: C_1  and  N_13
    2  A    between atoms: C_8  and  C_21
    3  A    between atoms: N_13  and  C_14
                            x       y       z     vdW  Elec       q    Type
                         _______ _______ _______ _____ _____    ______ ____

>  <TORSDO>
F 3

$$$$
=
 OpenBabel11052410133D

 25 28  0  0  1  0  0  0  0  0999 V2000
  161.7110  207.5800  150.2530 C   0  0  0  0  0  0  0  0  0  0  0  0
  162.3320  211.1480  149.7380 O   0  0  0  0  0  0  0  0  0  0  0  0
  161.9850  210.0130  150.0160 C   0  0  0  0  0  0  0  0  0  0  0  0
  162.3210  208.6340  148.9370 S   0  0  0  0  0  0  0  0  0  0  0  0
  161.2850  209.6950  151.2870 C   0  0  0  0  0  2  0  0  0  0  0  0
  161.2290  208.2090  151.3310 C   0  0  0  0  0  0  0  0  0  0  0  0
  160.6790  207.5280  152.5570 C   0  0  1  0  0  3  0  0  0  0  0  0
  161.5820  208.4490  155.9940 C   0  0  0  0  0  3  0  0  0  0  0  0
  160.0720  209.6480  153.9280 C   0  0  0  0  0  3  0  0  0  0  0  0
  161.4160  207.8290  154.7570 C   0  0  0  0  0  0  0  0  0  0  0  0
  161.5490  206.3250  152.9920 C   0  0  0  0  0  3  0  0  0  0  0  0
  160.6900  208.4090  153.7550 C   0  0  0  0  0  0  0  0  0  0  0  0
  160.9770  209.7000  156.1930 C   0  0  0  0  0  3  0  0  0  0  0  0
  161.9520  206.5790  154.3770 N   0  0  0  0  0  0  0  0  0  0  0  0
  160.2220  210.2980  155.1630 C   0  0  0  0  0  3  0  0  0  0  0  0
  161.7690  206.1520  150.1730 N   0  0  0  0  0  2  0  0  0  0  0  0
  161.3530  204.3510  145.8290 C   0  0  0  0  0  0  0  0  0  0  0  0
  161.2950  205.5200  145.0180 N   0  0  0  0  0  1  0  0  0  0  0  0
  161.3300  203.3110  148.1360 C   0  0  0  0  0  2  0  0  0  0  0  0
  161.2250  204.4510  147.2510 N   0  0  0  0  0  0  0  0  0  0  0  0
  160.1450  203.1990  150.1980 O   0  0  0  0  0  1  0  0  0  0  0  0
  160.8310  205.3480  149.4050 C   0  0  1  0  0  3  0  0  0  0  0  0
  160.9640  205.6990  147.9360 C   0  0  0  0  0  2  0  0  0  0  0  0
  161.1790  203.8670  149.5400 C   0  0  2  0  0  3  0  0  0  0  0  0
  161.5290  203.2300  145.2850 O   0  0  0  0  0  0  0  0  0  0  0  0
  1  6  2  0  0  0  0
  2  3  2  0  0  0  0
  3  5  1  0  0  0  0
  4  3  1  0  0  0  0
  4  1  1  0  0  0  0
  5  6  1  0  0  0  0
  7  6  1  6  0  0  0
  7 11  1  0  0  0  0
  7 12  1  0  0  0  0
  8 13  1  0  0  0  0
  9 15  1  0  0  0  0
 10  8  2  0  0  0  0
 11 14  2  0  0  0  0
 12  9  2  0  0  0  0
 12 10  1  0  0  0  0
 14 10  1  0  0  0  0
 15 13  2  0  0  0  0
 16  1  1  0  0  0  0
 17 20  1  0  0  0  0
 18 17  1  0  0  0  0
 19 24  1  0  0  0  0
 20 23  1  0  0  0  0
 20 19  1  0  0  0  0
 22 24  1  0  0  0  0
 22 16  1  1  0  0  0
 23 22  1  0  0  0  0
 24 21  1  6  0  0  0
 25 17  2  0  0  0  0
M  END
>  <MODEL>
7

>  <REMARK>
 VINA RESULT:      -7.6      2.490      7.979
  Name = 
  3 active torsions:
  status: ('A' for Active; 'I' for Inactive)
    1  A    between atoms: C_1  and  N_13
    2  A    between atoms: C_8  and  C_21
    3  A    between atoms: N_13  and  C_14
                            x       y       z     vdW  Elec       q    Type
                         _______ _______ _______ _____ _____    ______ ____

>  <TORSDO>
F 3

$$$$
=
 OpenBabel11052410133D

 25 28  0  0  1  0  0  0  0  0999 V2000
  161.4040  204.7090  150.2330 C   0  0  0  0  0  0  0  0  0  0  0  0
  160.1220  201.3270  149.6890 O   0  0  0  0  0  0  0  0  0  0  0  0
  160.5090  202.4830  149.6930 C   0  0  0  0  0  0  0  0  0  0  0  0
  160.5260  203.4650  151.1810 S   0  0  0  0  0  0  0  0  0  0  0  0
  161.0220  203.1430  148.4650 C   0  0  0  0  0  2  0  0  0  0  0  0
  161.5730  204.4430  148.9320 C   0  0  0  0  0  0  0  0  0  0  0  0
  162.2900  205.3360  147.9530 C   0  0  1  0  0  3  0  0  0  0  0  0
  161.7470  205.2480  144.3240 C   0  0  0  0  0  3  0  0  0  0  0  0
  160.2350  206.0910  146.5560 C   0  0  0  0  0  3  0  0  0  0  0  0
  162.2450  205.1490  145.6210 C   0  0  0  0  0  0  0  0  0  0  0  0
  163.6080  204.7030  147.4470 C   0  0  0  0  0  3  0  0  0  0  0  0
  161.5140  205.5530  146.7030 C   0  0  0  0  0  0  0  0  0  0  0  0
  160.4600  205.7790  144.1480 C   0  0  0  0  0  3  0  0  0  0  0  0
  163.5100  204.6400  145.9880 N   0  0  0  0  0  0  0  0  0  0  0  0
  159.7060  206.2010  145.2610 C   0  0  0  0  0  3  0  0  0  0  0  0
  161.9240  205.8980  150.8360 N   0  0  0  0  0  2  0  0  0  0  0  0
  161.1900  209.5520  153.7340 C   0  0  0  0  0  0  0  0  0  0  0  0
  160.4660  208.9530  154.8030 N   0  0  0  0  0  1  0  0  0  0  0  0
  162.1670  209.3660  151.4060 C   0  0  0  0  0  2  0  0  0  0  0  0
  161.3950  208.8390  152.5100 N   0  0  0  0  0  0  0  0  0  0  0  0
  161.6860  208.8030  149.1440 O   0  0  0  0  0  1  0  0  0  0  0  0
  161.2280  207.1760  150.8340 C   0  0  1  0  0  3  0  0  0  0  0  0
  160.8350  207.5280  152.2560 C   0  0  0  0  0  2  0  0  0  0  0  0
  162.1640  208.2800  150.3460 C   0  0  2  0  0  3  0  0  0  0  0  0
  161.6600  210.7120  153.8780 O   0  0  0  0  0  0  0  0  0  0  0  0
  1 16  1  0  0  0  0
  1  4  1  0  0  0  0
  2  3  2  0  0  0  0
  3  4  1  0  0  0  0
  5  6  1  0  0  0  0
  5  3  1  0  0  0  0
  6  1  2  0  0  0  0
  7  6  1  1  0  0  0
  8 10  1  0  0  0  0
  9 12  1  0  0  0  0
 10 14  1  0  0  0  0
 10 12  2  0  0  0  0
 11  7  1  0  0  0  0
 12  7  1  0  0  0  0
 13  8  2  0  0  0  0
 13 15  1  0  0  0  0
 14 11  2  0  0  0  0
 15  9  2  0  0  0  0
 17 25  2  0  0  0  0
 17 18  1  0  0  0  0
 19 20  1  0  0  0  0
 20 17  1  0  0  0  0
 22 16  1  1  0  0  0
 22 23  1  0  0  0  0
 23 20  1  0  0  0  0
 24 21  1  6  0  0  0
 24 22  1  0  0  0  0
 24 19  1  0  0  0  0
M  END
>  <MODEL>
8

>  <REMARK>
 VINA RESULT:      -7.4      2.041      2.598
  Name = 
  3 active torsions:
  status: ('A' for Active; 'I' for Inactive)
    1  A    between atoms: C_1  and  N_13
    2  A    between atoms: C_8  and  C_21
    3  A    between atoms: N_13  and  C_14
                            x       y       z     vdW  Elec       q    Type
                         _______ _______ _______ _____ _____    ______ ____

>  <TORSDO>
F 3

$$$$
=
 OpenBabel11052410133D

 25 28  0  0  1  0  0  0  0  0999 V2000
  161.3660  208.8680  150.3350 C   0  0  0  0  0  0  0  0  0  0  0  0
  162.6910  211.9210  148.8170 O   0  0  0  0  0  0  0  0  0  0  0  0
  162.1440  211.0160  149.4230 C   0  0  0  0  0  0  0  0  0  0  0  0
  161.9840  209.3800  148.7310 S   0  0  0  0  0  0  0  0  0  0  0  0
  161.6000  211.2050  150.7920 C   0  0  0  0  0  2  0  0  0  0  0  0
  161.2160  209.8400  151.2430 C   0  0  0  0  0  0  0  0  0  0  0  0
  160.7260  209.6390  152.6530 C   0  0  1  0  0  3  0  0  0  0  0  0
  159.9620  212.3830  154.9680 C   0  0  0  0  0  3  0  0  0  0  0  0
  158.7720  211.3490  152.6230 C   0  0  0  0  0  3  0  0  0  0  0  0
  160.5080  211.2940  154.2920 C   0  0  0  0  0  0  0  0  0  0  0  0
  161.8930  209.5390  153.6640 C   0  0  0  0  0  3  0  0  0  0  0  0
  159.9370  210.7950  153.1560 C   0  0  0  0  0  0  0  0  0  0  0  0
  158.7930  212.9640  154.4510 C   0  0  0  0  0  3  0  0  0  0  0  0
  161.6740  210.5880  154.6610 N   0  0  0  0  0  0  0  0  0  0  0  0
  158.1990  212.4480  153.2820 C   0  0  0  0  0  3  0  0  0  0  0  0
  161.0860  207.4980  150.6400 N   0  0  0  0  0  2  0  0  0  0  0  0
  160.9050  202.7810  150.6030 C   0  0  0  0  0  0  0  0  0  0  0  0
  161.1140  202.4570  151.9740 N   0  0  0  0  0  1  0  0  0  0  0  0
  160.8950  204.5220  148.7650 C   0  0  0  0  0  2  0  0  0  0  0  0
  161.1380  204.1120  150.1310 N   0  0  0  0  0  0  0  0  0  0  0  0
  162.1700  206.2320  147.7110 O   0  0  0  0  0  1  0  0  0  0  0  0
  161.8190  206.3780  150.0710 C   0  0  1  0  0  3  0  0  0  0  0  0
  161.6560  205.1700  150.9730 C   0  0  0  0  0  2  0  0  0  0  0  0
  161.2280  206.0010  148.7140 C   0  0  2  0  0  3  0  0  0  0  0  0
  160.5030  201.8890  149.8110 O   0  0  0  0  0  0  0  0  0  0  0  0
  1 16  1  0  0  0  0
  1  6  2  0  0  0  0
  2  3  2  0  0  0  0
  3  5  1  0  0  0  0
  4  3  1  0  0  0  0
  4  1  1  0  0  0  0
  5  6  1  0  0  0  0
  7  6  1  6  0  0  0
  7 12  1  0  0  0  0
  7 11  1  0  0  0  0
  9 12  2  0  0  0  0
  9 15  1  0  0  0  0
 10 14  1  0  0  0  0
 10  8  2  0  0  0  0
 11 14  2  0  0  0  0
 12 10  1  0  0  0  0
 13  8  1  0  0  0  0
 15 13  2  0  0  0  0
 17 18  1  0  0  0  0
 19 20  1  0  0  0  0
 20 17  1  0  0  0  0
 20 23  1  0  0  0  0
 22 16  1  1  0  0  0
 22 23  1  0  0  0  0
 24 21  1  6  0  0  0
 24 19  1  0  0  0  0
 24 22  1  0  0  0  0
 25 17  2  0  0  0  0
M  END
>  <MODEL>
9

>  <REMARK>
 VINA RESULT:      -7.3      2.985      7.677
  Name = 
  3 active torsions:
  status: ('A' for Active; 'I' for Inactive)
    1  A    between atoms: C_1  and  N_13
    2  A    between atoms: C_8  and  C_21
    3  A    between atoms: N_13  and  C_14
                            x       y       z     vdW  Elec       q    Type
                         _______ _______ _______ _____ _____    ______ ____

>  <TORSDO>
F 3

$$$$
