=
 OpenBabel11042421523D

 47 53  0  0  1  0  0  0  0  0999 V2000
  160.5450  207.5040  154.5600 C   0  0  2  0  0  3  0  0  0  0  0  0
  160.5710  205.0580  153.9520 C   0  0  0  0  0  3  0  0  0  0  0  0
  160.9590  204.7330  150.8920 C   0  0  0  0  0  3  0  0  0  0  0  0
  162.3640  210.5650  152.5840 S   0  0  0  0  0  0  0  0  0  0  0  0
  162.6990  208.8840  151.9170 C   0  0  1  0  0  3  0  0  0  0  0  0
  161.0740  206.2840  153.8370 C   0  0  0  0  0  0  0  0  0  0  0  0
  161.7420  207.3600  150.2380 O   0  0  0  0  0  0  0  0  0  0  0  0
  161.3600  207.0210  148.9330 C   0  0  0  0  0  0  0  0  0  0  0  0
  162.2880  207.9850  152.9810 N   0  0  0  0  0  0  0  0  0  0  0  0
  161.1350  207.6520  146.5910 C   0  0  0  0  0  3  0  0  0  0  0  0
  162.1000  206.6100  152.8970 N   0  0  0  0  0  2  0  0  0  0  0  0
  161.3950  208.5410  153.8980 C   0  0  0  0  0  0  0  0  0  0  0  0
  160.8210  205.7440  148.6290 C   0  0  0  0  0  0  0  0  0  0  0  0
  161.8320  208.7160  150.6680 C   0  0  0  0  0  2  0  0  0  0  0  0
  161.2380  209.8460  153.8040 C   0  0  0  0  0  0  0  0  0  0  0  0
  160.5580  204.6890  149.6270 C   0  0  0  0  0  3  0  0  0  0  0  0
  161.5070  207.9620  147.8990 C   0  0  0  0  0  3  0  0  0  0  0  0
  161.1100  203.9730  153.1940 N   0  0  0  0  0  2  0  0  0  0  0  0
  160.4470  205.4520  147.3120 C   0  0  0  0  0  3  0  0  0  0  0  0
  160.6020  206.3920  146.2900 C   0  0  0  0  0  0  0  0  0  0  0  0
  160.6250  203.6360  151.8610 C   0  0  2  0  0  3  0  0  0  0  0  0
  158.8950  212.5190  153.2710 C   0  0  0  0  0  3  0  0  0  0  0  0
  159.5210  211.5490  153.8720 C   0  0  0  0  0  0  0  0  0  0  0  0
  160.1530  210.5760  154.4690 C   0  0  0  0  0  3  0  0  0  0  0  0
  157.0710  214.4420  149.5320 C   0  0  0  0  0  1  0  0  0  0  0  0
  157.7950  214.4210  150.8040 N   0  0  0  0  0  0  0  0  0  0  0  0
  159.2080  214.0420  150.6200 C   0  0  2  0  0  3  0  0  0  0  0  0
  157.1930  213.3320  151.5820 C   0  0  1  0  0  3  0  0  0  0  0  0
  158.2850  212.3020  151.9210 C   0  0  1  0  0  3  0  0  0  0  0  0
  159.7510  214.4100  149.3150 N   0  0  0  0  0  1  0  0  0  0  0  0
  159.3380  212.5560  150.8760 C   0  0  0  0  0  2  0  0  0  0  0  0
  154.9370  214.1990  152.3900 C   0  0  0  0  0  2  0  0  0  0  0  0
  156.3770  213.8440  152.7810 C   0  0  0  0  0  3  0  0  0  0  0  0
  154.8090  214.4150  154.8230 O   0  0  0  0  0  0  0  0  0  0  0  0
  156.3870  212.8090  153.9190 C   0  0  0  0  0  2  0  0  0  0  0  0
  154.0590  214.4510  153.6280 C   0  0  0  0  0  2  0  0  0  0  0  0
  155.2910  213.0980  154.9560 C   0  0  0  0  0  2  0  0  0  0  0  0
  161.2240  202.3320  151.4380 C   0  0  0  0  0  0  0  0  0  0  0  0
  162.4340  202.0980  151.7010 O   0  0  0  0  0  0  0  0  0  0  0  0
  160.6680  201.1930  149.3270 C   0  0  0  0  0  1  0  0  0  0  0  0
  160.4600  201.4130  150.7130 O   0  0  0  0  0  0  0  0  0  0  0  0
  160.8800  207.4450  156.0440 C   0  0  0  0  0  2  0  0  0  0  0  0
  159.6830  206.9540  156.8350 C   0  0  0  0  0  1  0  0  0  0  0  0
  160.2200  206.0480  144.9900 O   0  0  0  0  0  0  0  0  0  0  0  0
  160.9170  205.0840  144.2130 C   0  0  2  0  0  3  0  0  0  0  0  0
  160.8150  203.7580  144.8550 C   0  0  0  0  0  2  0  0  0  0  0  0
  161.9720  204.5480  144.9760 O   0  0  0  0  0  0  0  0  0  0  0  0
  1 42  1  1  0  0  0
  3 21  1  0  0  0  0
  4 15  1  0  0  0  0
  5 14  1  6  0  0  0
  5  4  1  0  0  0  0
  5  9  1  0  0  0  0
  6  2  2  0  0  0  0
  6  1  1  0  0  0  0
  7 14  1  0  0  0  0
  8  7  1  0  0  0  0
  9 12  1  0  0  0  0
 10 17  1  0  0  0  0
 11  9  1  0  0  0  0
 11  6  1  0  0  0  0
 12  1  1  0  0  0  0
 13  8  1  0  0  0  0
 13 16  1  0  0  0  0
 15 12  2  0  0  0  0
 15 24  1  0  0  0  0
 16  3  2  0  0  0  0
 17  8  2  0  0  0  0
 18  2  1  0  0  0  0
 19 13  2  0  0  0  0
 20 10  2  0  0  0  0
 20 19  1  0  0  0  0
 21 38  1  6  0  0  0
 21 18  1  0  0  0  0
 22 23  2  0  0  0  0
 23 24  2  0  0  0  0
 25 26  1  0  0  0  0
 26 28  1  0  0  0  0
 27 30  1  6  0  0  0
 27 26  1  0  0  0  0
 27 31  1  0  0  0  0
 28 29  1  0  0  0  0
 28 33  1  1  0  0  0
 29 22  1  1  0  0  0
 31 29  1  0  0  0  0
 32 33  1  0  0  0  0
 32 36  1  0  0  0  0
 33 35  1  0  0  0  0
 34 37  1  0  0  0  0
 35 37  1  0  0  0  0
 36 34  1  0  0  0  0
 38 39  2  0  0  0  0
 40 41  1  0  0  0  0
 41 38  1  0  0  0  0
 42 43  1  0  0  0  0
 44 20  1  0  0  0  0
 45 46  1  0  0  0  0
 45 47  1  0  0  0  0
 45 44  1  1  0  0  0
 46 47  1  0  0  0  0
M  END
>  <MODEL>
1

>  <REMARK>
 VINA RESULT:      -4.3      0.000      0.000
  Name = 
  8 active torsions:
  status: ('A' for Active; 'I' for Inactive)
    1  A    between atoms: C_1  and  C_28
    2  A    between atoms: C_16  and  O_44
    3  A    between atoms: C_18  and  C_19
    4  A    between atoms: C_20  and  C_26
    5  A    between atoms: C_22  and  O_32
    6  A    between atoms: C_22  and  C_45
    7  A    between atoms: C_31  and  C_43
    8  A    between atoms: C_42  and  O_44
                            x       y       z     vdW  Elec       q    Type
                         _______ _______ _______ _____ _____    ______ ____

>  <TORSDO>
F 8

$$$$
=
 OpenBabel11042421523D

 47 53  0  0  1  0  0  0  0  0999 V2000
  160.6080  207.2150  153.0790 C   0  0  2  0  0  3  0  0  0  0  0  0
  160.8500  206.0450  150.8610 C   0  0  0  0  0  3  0  0  0  0  0  0
  161.4950  208.1110  148.6400 C   0  0  0  0  0  3  0  0  0  0  0  0
  162.3570  210.7050  154.2420 S   0  0  0  0  0  0  0  0  0  0  0  0
  162.8590  210.0820  152.5840 C   0  0  1  0  0  3  0  0  0  0  0  0
  161.2740  206.9390  151.7500 C   0  0  0  0  0  0  0  0  0  0  0  0
  162.1420  210.3350  150.2440 O   0  0  0  0  0  0  0  0  0  0  0  0
  161.8860  211.0900  149.0910 C   0  0  0  0  0  0  0  0  0  0  0  0
  162.4300  208.6950  152.5760 N   0  0  0  0  0  0  0  0  0  0  0  0
  161.7990  213.2630  147.9920 C   0  0  0  0  0  3  0  0  0  0  0  0
  162.3450  207.8460  151.4770 N   0  0  0  0  0  2  0  0  0  0  0  0
  161.4320  208.3890  153.5030 C   0  0  0  0  0  0  0  0  0  0  0  0
  161.4620  210.4750  147.8850 C   0  0  0  0  0  0  0  0  0  0  0  0
  162.1040  210.9140  151.5460 C   0  0  0  0  0  2  0  0  0  0  0  0
  161.1920  209.3280  154.3950 C   0  0  0  0  0  0  0  0  0  0  0  0
  161.1970  209.0320  147.7300 C   0  0  0  0  0  3  0  0  0  0  0  0
  162.0470  212.4860  149.1240 C   0  0  0  0  0  3  0  0  0  0  0  0
  161.5200  205.8840  149.6090 N   0  0  0  0  0  2  0  0  0  0  0  0
  161.2120  211.2700  146.7590 C   0  0  0  0  0  3  0  0  0  0  0  0
  161.3800  212.6560  146.8000 C   0  0  0  0  0  0  0  0  0  0  0  0
  161.1640  206.6620  148.4290 C   0  0  2  0  0  3  0  0  0  0  0  0
  158.1900  211.1830  155.0750 C   0  0  0  0  0  3  0  0  0  0  0  0
  159.0980  210.2550  155.1720 C   0  0  0  0  0  0  0  0  0  0  0  0
  160.0120  209.3280  155.2650 C   0  0  0  0  0  3  0  0  0  0  0  0
  157.1500  214.3620  151.9420 C   0  0  0  0  0  1  0  0  0  0  0  0
  157.8160  213.8270  153.1300 N   0  0  0  0  0  0  0  0  0  0  0  0
  159.0180  213.0480  152.7780 C   0  0  2  0  0  3  0  0  0  0  0  0
  156.8750  212.8600  153.7080 C   0  0  1  0  0  3  0  0  0  0  0  0
  157.5500  211.4780  153.7540 C   0  0  1  0  0  3  0  0  0  0  0  0
  159.6610  213.4870  151.5420 N   0  0  0  0  0  1  0  0  0  0  0  0
  158.6330  211.5860  152.7140 C   0  0  0  0  0  2  0  0  0  0  0  0
  155.0200  214.2000  154.8290 C   0  0  0  0  0  2  0  0  0  0  0  0
  156.2750  213.3430  155.0390 C   0  0  0  0  0  3  0  0  0  0  0  0
  154.9860  213.9410  157.2610 O   0  0  0  0  0  0  0  0  0  0  0  0
  155.9610  212.1460  155.9530 C   0  0  0  0  0  2  0  0  0  0  0  0
  154.2780  214.4530  156.1530 C   0  0  0  0  0  2  0  0  0  0  0  0
  155.0240  212.5430  157.1030 C   0  0  0  0  0  2  0  0  0  0  0  0
  161.8830  206.1050  147.2410 C   0  0  0  0  0  0  0  0  0  0  0  0
  163.1300  205.9300  147.3030 O   0  0  0  0  0  0  0  0  0  0  0  0
  161.4040  204.6490  145.3130 C   0  0  0  0  0  1  0  0  0  0  0  0
  161.1830  205.8350  146.0620 O   0  0  0  0  0  0  0  0  0  0  0  0
  160.8300  206.0640  154.0500 C   0  0  0  0  0  2  0  0  0  0  0  0
  161.1420  204.7880  153.2910 C   0  0  0  0  0  1  0  0  0  0  0  0
  161.1240  213.4040  145.6470 O   0  0  0  0  0  0  0  0  0  0  0  0
  161.8990  213.2790  144.4620 C   0  0  2  0  0  3  0  0  0  0  0  0
  161.0990  213.7060  143.2970 C   0  0  0  0  0  2  0  0  0  0  0  0
  161.2870  212.3460  143.6040 O   0  0  0  0  0  0  0  0  0  0  0  0
  1 12  1  0  0  0  0
  1 42  1  1  0  0  0
  2  6  2  0  0  0  0
  4 15  1  0  0  0  0
  5 14  1  6  0  0  0
  5  4  1  0  0  0  0
  6  1  1  0  0  0  0
  7 14  1  0  0  0  0
  8 17  1  0  0  0  0
  8  7  1  0  0  0  0
  9  5  1  0  0  0  0
  9 12  1  0  0  0  0
 10 17  2  0  0  0  0
 11  6  1  0  0  0  0
 11  9  1  0  0  0  0
 12 15  2  0  0  0  0
 13  8  2  0  0  0  0
 15 24  1  0  0  0  0
 16 13  1  0  0  0  0
 16  3  2  0  0  0  0
 18  2  1  0  0  0  0
 19 20  2  0  0  0  0
 19 13  1  0  0  0  0
 20 10  1  0  0  0  0
 21 38  1  6  0  0  0
 21  3  1  0  0  0  0
 21 18  1  0  0  0  0
 22 23  2  0  0  0  0
 23 24  2  0  0  0  0
 25 26  1  0  0  0  0
 26 28  1  0  0  0  0
 27 30  1  6  0  0  0
 27 26  1  0  0  0  0
 28 29  1  0  0  0  0
 28 33  1  1  0  0  0
 29 22  1  1  0  0  0
 31 27  1  0  0  0  0
 31 29  1  0  0  0  0
 32 33  1  0  0  0  0
 32 36  1  0  0  0  0
 33 35  1  0  0  0  0
 35 37  1  0  0  0  0
 36 34  1  0  0  0  0
 37 34  1  0  0  0  0
 38 39  2  0  0  0  0
 40 41  1  0  0  0  0
 41 38  1  0  0  0  0
 43 42  1  0  0  0  0
 44 20  1  0  0  0  0
 45 44  1  1  0  0  0
 46 47  1  0  0  0  0
 46 45  1  0  0  0  0
 47 45  1  0  0  0  0
M  END
>  <MODEL>
2

>  <REMARK>
 VINA RESULT:      -4.1      2.763      4.187
  Name = 
  8 active torsions:
  status: ('A' for Active; 'I' for Inactive)
    1  A    between atoms: C_1  and  C_28
    2  A    between atoms: C_16  and  O_44
    3  A    between atoms: C_18  and  C_19
    4  A    between atoms: C_20  and  C_26
    5  A    between atoms: C_22  and  O_32
    6  A    between atoms: C_22  and  C_45
    7  A    between atoms: C_31  and  C_43
    8  A    between atoms: C_42  and  O_44
                            x       y       z     vdW  Elec       q    Type
                         _______ _______ _______ _____ _____    ______ ____

>  <TORSDO>
F 8

$$$$
=
 OpenBabel11042421523D

 47 53  0  0  1  0  0  0  0  0999 V2000
  160.8520  210.4130  151.3260 C   0  0  2  0  0  3  0  0  0  0  0  0
  160.6360  208.2210  152.5520 C   0  0  0  0  0  3  0  0  0  0  0  0
  161.2390  205.8680  150.6240 C   0  0  0  0  0  3  0  0  0  0  0  0
  163.1850  211.2190  148.0870 S   0  0  0  0  0  0  0  0  0  0  0  0
  163.3720  209.5310  148.7950 C   0  0  1  0  0  3  0  0  0  0  0  0
  161.2900  209.0170  151.7090 C   0  0  0  0  0  0  0  0  0  0  0  0
  162.3830  207.2990  148.4830 O   0  0  0  0  0  0  0  0  0  0  0  0
  162.0750  206.1660  147.7170 C   0  0  0  0  0  0  0  0  0  0  0  0
  162.7680  209.6240  150.1130 N   0  0  0  0  0  0  0  0  0  0  0  0
  162.1250  205.0180  145.5700 C   0  0  0  0  0  3  0  0  0  0  0  0
  162.4240  208.5750  150.9580 N   0  0  0  0  0  2  0  0  0  0  0  0
  161.8730  210.6850  150.2680 C   0  0  0  0  0  0  0  0  0  0  0  0
  161.4140  205.0470  148.2880 C   0  0  0  0  0  0  0  0  0  0  0  0
  162.5990  208.5750  147.8850 C   0  0  0  0  0  2  0  0  0  0  0  0
  161.8820  211.5700  149.2920 C   0  0  0  0  0  0  0  0  0  0  0  0
  160.9440  204.9770  149.6850 C   0  0  0  0  0  3  0  0  0  0  0  0
  162.4200  206.1320  146.3550 C   0  0  0  0  0  3  0  0  0  0  0  0
  161.1030  206.8980  152.8190 N   0  0  0  0  0  2  0  0  0  0  0  0
  161.1200  203.9400  147.4830 C   0  0  0  0  0  3  0  0  0  0  0  0
  161.4730  203.9130  146.1310 C   0  0  0  0  0  0  0  0  0  0  0  0
  160.6960  205.7510  152.0180 C   0  0  2  0  0  3  0  0  0  0  0  0
  160.4320  213.7320  146.8140 C   0  0  0  0  0  3  0  0  0  0  0  0
  160.6330  213.1620  147.9670 C   0  0  0  0  0  0  0  0  0  0  0  0
  160.8410  212.5890  149.1210 C   0  0  0  0  0  3  0  0  0  0  0  0
  158.8980  213.6020  142.4970 C   0  0  0  0  0  1  0  0  0  0  0  0
  159.3250  214.2400  143.7430 N   0  0  0  0  0  0  0  0  0  0  0  0
  160.7940  214.3480  143.8250 C   0  0  2  0  0  3  0  0  0  0  0  0
  158.9370  213.3140  144.8130 C   0  0  1  0  0  3  0  0  0  0  0  0
  160.1990  212.9000  145.5910 C   0  0  1  0  0  3  0  0  0  0  0  0
  161.4490  214.4520  142.5230 N   0  0  0  0  0  1  0  0  0  0  0  0
  161.3120  213.1660  144.6140 C   0  0  0  0  0  2  0  0  0  0  0  0
  156.4580  213.8930  144.9020 C   0  0  0  0  0  2  0  0  0  0  0  0
  157.7830  213.8550  145.6740 C   0  0  0  0  0  3  0  0  0  0  0  0
  155.6840  214.4530  147.1540 O   0  0  0  0  0  0  0  0  0  0  0  0
  157.6340  213.0230  146.9580 C   0  0  0  0  0  2  0  0  0  0  0  0
  155.2670  214.1770  145.8350 C   0  0  0  0  0  2  0  0  0  0  0  0
  156.2820  213.2750  147.6420 C   0  0  0  0  0  2  0  0  0  0  0  0
  161.1680  204.4970  152.6840 C   0  0  0  0  0  0  0  0  0  0  0  0
  161.1030  204.4060  153.9400 O   0  0  0  0  0  0  0  0  0  0  0  0
  160.9490  202.3600  151.4790 C   0  0  0  0  0  1  0  0  0  0  0  0
  161.7220  203.4650  151.9210 O   0  0  0  0  0  0  0  0  0  0  0  0
  161.0520  211.3830  152.4830 C   0  0  0  0  0  2  0  0  0  0  0  0
  159.7550  212.1070  152.7930 C   0  0  0  0  0  1  0  0  0  0  0  0
  161.1630  202.7800  145.3740 O   0  0  0  0  0  0  0  0  0  0  0  0
  160.4820  201.6560  145.9140 C   0  0  2  0  0  3  0  0  0  0  0  0
  160.5580  200.5250  144.9660 C   0  0  0  0  0  2  0  0  0  0  0  0
  159.4020  201.3200  145.0750 O   0  0  0  0  0  0  0  0  0  0  0  0
  1  6  1  0  0  0  0
  1 42  1  1  0  0  0
  2 18  1  0  0  0  0
  3 21  1  0  0  0  0
  4  5  1  0  0  0  0
  4 15  1  0  0  0  0
  5 14  1  6  0  0  0
  5  9  1  0  0  0  0
  6  2  2  0  0  0  0
  8 13  1  0  0  0  0
  8  7  1  0  0  0  0
  9 12  1  0  0  0  0
  9 11  1  0  0  0  0
 10 20  2  0  0  0  0
 10 17  1  0  0  0  0
 11  6  1  0  0  0  0
 12  1  1  0  0  0  0
 13 16  1  0  0  0  0
 14  7  1  0  0  0  0
 15 12  2  0  0  0  0
 16  3  2  0  0  0  0
 17  8  2  0  0  0  0
 19 13  2  0  0  0  0
 20 19  1  0  0  0  0
 21 38  1  1  0  0  0
 21 18  1  0  0  0  0
 22 23  2  0  0  0  0
 23 24  2  0  0  0  0
 24 15  1  0  0  0  0
 25 26  1  0  0  0  0
 26 27  1  0  0  0  0
 26 28  1  0  0  0  0
 27 30  1  6  0  0  0
 27 31  1  0  0  0  0
 28 29  1  0  0  0  0
 28 33  1  1  0  0  0
 29 22  1  1  0  0  0
 31 29  1  0  0  0  0
 32 33  1  0  0  0  0
 32 36  1  0  0  0  0
 33 35  1  0  0  0  0
 34 37  1  0  0  0  0
 35 37  1  0  0  0  0
 36 34  1  0  0  0  0
 38 39  2  0  0  0  0
 40 41  1  0  0  0  0
 41 38  1  0  0  0  0
 42 43  1  0  0  0  0
 44 20  1  0  0  0  0
 45 44  1  6  0  0  0
 46 47  1  0  0  0  0
 46 45  1  0  0  0  0
 47 45  1  0  0  0  0
M  END
>  <MODEL>
3

>  <REMARK>
 VINA RESULT:      -3.4      3.510      4.931
  Name = 
  8 active torsions:
  status: ('A' for Active; 'I' for Inactive)
    1  A    between atoms: C_1  and  C_28
    2  A    between atoms: C_16  and  O_44
    3  A    between atoms: C_18  and  C_19
    4  A    between atoms: C_20  and  C_26
    5  A    between atoms: C_22  and  O_32
    6  A    between atoms: C_22  and  C_45
    7  A    between atoms: C_31  and  C_43
    8  A    between atoms: C_42  and  O_44
                            x       y       z     vdW  Elec       q    Type
                         _______ _______ _______ _____ _____    ______ ____

>  <TORSDO>
F 8

$$$$
=
 OpenBabel11042421523D

 47 53  0  0  1  0  0  0  0  0999 V2000
  161.8500  207.8770  149.9510 C   0  0  2  0  0  3  0  0  0  0  0  0
  161.9100  210.0860  148.7370 C   0  0  0  0  0  3  0  0  0  0  0  0
  160.3660  212.2270  150.3650 C   0  0  0  0  0  3  0  0  0  0  0  0
  161.4990  207.2640  153.9610 S   0  0  0  0  0  0  0  0  0  0  0  0
  161.6280  209.0240  153.4390 C   0  0  1  0  0  3  0  0  0  0  0  0
  162.0150  209.3780  149.8590 C   0  0  0  0  0  0  0  0  0  0  0  0
  160.1140  210.8610  152.8160 O   0  0  0  0  0  0  0  0  0  0  0  0
  159.0700  211.7600  153.0730 C   0  0  0  0  0  0  0  0  0  0  0  0
  162.1260  208.9590  152.0760 N   0  0  0  0  0  0  0  0  0  0  0  0
  157.3390  212.5770  154.5800 C   0  0  0  0  0  3  0  0  0  0  0  0
  162.1640  209.9900  151.1430 N   0  0  0  0  0  2  0  0  0  0  0  0
  161.9150  207.7350  151.4380 C   0  0  0  0  0  0  0  0  0  0  0  0
  158.6870  212.7380  152.1190 C   0  0  0  0  0  0  0  0  0  0  0  0
  160.2190  209.6140  153.4990 C   0  0  0  0  0  2  0  0  0  0  0  0
  161.5140  206.7570  152.2240 C   0  0  0  0  0  0  0  0  0  0  0  0
  159.2830  212.8750  150.7760 C   0  0  0  0  0  3  0  0  0  0  0  0
  158.3820  211.6950  154.2970 C   0  0  0  0  0  3  0  0  0  0  0  0
  162.0370  211.5080  148.7560 N   0  0  0  0  0  2  0  0  0  0  0  0
  157.6330  213.6110  152.4170 C   0  0  0  0  0  3  0  0  0  0  0  0
  156.9590  213.5420  153.6390 C   0  0  0  0  0  0  0  0  0  0  0  0
  160.8980  212.3910  148.9700 C   0  0  2  0  0  3  0  0  0  0  0  0
  160.4080  205.1680  149.1960 C   0  0  0  0  0  3  0  0  0  0  0  0
  160.6890  205.3260  150.4570 C   0  0  0  0  0  0  0  0  0  0  0  0
  160.9720  205.4910  151.7210 C   0  0  0  0  0  3  0  0  0  0  0  0
  161.9090  204.3120  144.9510 C   0  0  0  0  0  1  0  0  0  0  0  0
  160.9550  204.2830  146.0600 N   0  0  0  0  0  0  0  0  0  0  0  0
  160.1880  205.5390  146.1540 C   0  0  2  0  0  3  0  0  0  0  0  0
  161.7690  204.2280  147.2800 C   0  0  1  0  0  3  0  0  0  0  0  0
  161.4420  205.4530  148.1510 C   0  0  1  0  0  3  0  0  0  0  0  0
  160.0120  206.2170  144.8710 N   0  0  0  0  0  1  0  0  0  0  0  0
  160.8660  206.4350  147.1670 C   0  0  0  0  0  2  0  0  0  0  0  0
  160.4750  202.8050  148.9510 C   0  0  0  0  0  2  0  0  0  0  0  0
  161.6730  202.8690  147.9940 C   0  0  0  0  0  3  0  0  0  0  0  0
  161.2280  200.4780  149.0140 O   0  0  0  0  0  0  0  0  0  0  0  0
  161.6030  201.7260  146.9670 C   0  0  0  0  0  2  0  0  0  0  0  0
  160.2280  201.3710  149.4540 C   0  0  0  0  0  2  0  0  0  0  0  0
  161.1230  200.4160  147.6110 C   0  0  0  0  0  2  0  0  0  0  0  0
  161.3160  213.8030  148.7080 C   0  0  0  0  0  0  0  0  0  0  0  0
  161.8930  214.4530  149.6210 O   0  0  0  0  0  0  0  0  0  0  0  0
  159.8590  214.0630  146.7390 C   0  0  0  0  0  1  0  0  0  0  0  0
  161.0200  214.4040  147.4810 O   0  0  0  0  0  0  0  0  0  0  0  0
  163.0370  207.1590  149.3210 C   0  0  0  0  0  2  0  0  0  0  0  0
  163.3090  207.7090  147.9340 C   0  0  0  0  0  1  0  0  0  0  0  0
  155.9190  214.4430  153.8890 O   0  0  0  0  0  0  0  0  0  0  0  0
  154.6890  214.0510  154.4830 C   0  0  2  0  0  3  0  0  0  0  0  0
  154.6760  214.4450  155.9070 C   0  0  0  0  0  2  0  0  0  0  0  0
  154.9450  213.1230  155.5100 O   0  0  0  0  0  0  0  0  0  0  0  0
  1 42  1  6  0  0  0
  1 12  1  0  0  0  0
  2 18  1  0  0  0  0
  2  6  2  0  0  0  0
  3 16  2  0  0  0  0
  5 14  1  6  0  0  0
  5  4  1  0  0  0  0
  6  1  1  0  0  0  0
  6 11  1  0  0  0  0
  7  8  1  0  0  0  0
  7 14  1  0  0  0  0
  8 17  1  0  0  0  0
  9  5  1  0  0  0  0
 11  9  1  0  0  0  0
 12  9  1  0  0  0  0
 12 15  2  0  0  0  0
 13 19  1  0  0  0  0
 13  8  2  0  0  0  0
 15  4  1  0  0  0  0
 16 13  1  0  0  0  0
 17 10  2  0  0  0  0
 18 21  1  0  0  0  0
 19 20  2  0  0  0  0
 20 44  1  0  0  0  0
 20 10  1  0  0  0  0
 21 38  1  1  0  0  0
 21  3  1  0  0  0  0
 22 23  2  0  0  0  0
 23 24  2  0  0  0  0
 24 15  1  0  0  0  0
 25 26  1  0  0  0  0
 26 27  1  0  0  0  0
 26 28  1  0  0  0  0
 27 30  1  6  0  0  0
 27 31  1  0  0  0  0
 28 33  1  1  0  0  0
 28 29  1  0  0  0  0
 29 22  1  1  0  0  0
 31 29  1  0  0  0  0
 32 36  1  0  0  0  0
 33 32  1  0  0  0  0
 34 36  1  0  0  0  0
 35 37  1  0  0  0  0
 35 33  1  0  0  0  0
 37 34  1  0  0  0  0
 38 39  2  0  0  0  0
 40 41  1  0  0  0  0
 41 38  1  0  0  0  0
 43 42  1  0  0  0  0
 45 44  1  6  0  0  0
 45 47  1  0  0  0  0
 45 46  1  0  0  0  0
 47 46  1  0  0  0  0
M  END
>  <MODEL>
4

>  <REMARK>
 VINA RESULT:      -2.3      2.865     10.129
  Name = 
  8 active torsions:
  status: ('A' for Active; 'I' for Inactive)
    1  A    between atoms: C_1  and  C_28
    2  A    between atoms: C_16  and  O_44
    3  A    between atoms: C_18  and  C_19
    4  A    between atoms: C_20  and  C_26
    5  A    between atoms: C_22  and  O_32
    6  A    between atoms: C_22  and  C_45
    7  A    between atoms: C_31  and  C_43
    8  A    between atoms: C_42  and  O_44
                            x       y       z     vdW  Elec       q    Type
                         _______ _______ _______ _____ _____    ______ ____

>  <TORSDO>
F 8

$$$$
