=
 OpenBabel11042421363D

 45 51  0  0  1  0  0  0  0  0999 V2000
  161.2610  209.8900  151.2020 C   0  0  0  0  0  0  0  0  0  0  0  0
  161.0780  207.7490  151.4510 C   0  0  0  0  0  0  0  0  0  0  0  0
  160.4730  208.1900  152.5060 N   0  0  0  0  0  0  0  0  0  0  0  0
  160.5230  209.6460  152.4740 C   0  0  1  0  0  3  0  0  0  0  0  0
  161.5850  208.7850  150.6200 N   0  0  0  0  0  0  0  0  0  0  0  0
  161.3590  203.5490  150.7610 N   0  0  0  0  0  0  0  0  0  0  0  0
  161.5140  204.0540  152.0100 C   0  0  0  0  0  3  0  0  0  0  0  0
  161.1310  204.3570  149.6940 C   0  0  0  0  0  3  0  0  0  0  0  0
  161.4320  205.4280  152.2230 C   0  0  0  0  0  3  0  0  0  0  0  0
  161.1980  206.2990  151.1490 C   0  0  0  0  0  0  0  0  0  0  0  0
  161.0640  205.7520  149.8440 C   0  0  0  0  0  0  0  0  0  0  0  0
  162.0460  206.7610  147.8130 C   0  0  0  0  0  2  0  0  0  0  0  0
  160.7770  206.6070  148.6350 C   0  0  0  0  0  3  0  0  0  0  0  0
  160.9490  205.8480  147.3260 C   0  0  0  0  0  2  0  0  0  0  0  0
  162.3230  211.2200  149.3140 C   0  0  0  0  0  1  0  0  0  0  0  0
  161.6110  211.2480  150.6600 C   0  0  1  0  0  3  0  0  0  0  0  0
  160.4540  212.2090  150.6900 C   0  0  0  0  0  0  0  0  0  0  0  0
  160.3420  213.3450  149.8150 N   0  0  0  0  0  2  0  0  0  0  0  0
  159.5710  212.0390  151.5680 O   0  0  0  0  0  0  0  0  0  0  0  0
  162.1390  214.2770  148.3900 C   0  0  0  0  0  3  0  0  0  0  0  0
  160.9540  213.5470  148.5360 C   0  0  0  0  0  0  0  0  0  0  0  0
  162.1460  213.8310  146.0140 C   0  0  0  0  0  3  0  0  0  0  0  0
  162.7320  214.4240  147.1340 C   0  0  0  0  0  3  0  0  0  0  0  0
  160.3860  212.9380  147.4120 C   0  0  0  0  0  3  0  0  0  0  0  0
  160.9730  213.0830  146.1470 C   0  0  0  0  0  0  0  0  0  0  0  0
  160.3890  212.4870  144.9840 N   0  0  0  0  0  2  0  0  0  0  0  0
  162.4800  213.1440  142.0600 O   0  0  0  0  0  1  0  0  0  0  0  0
  160.6670  212.9310  143.6250 C   0  0  1  0  0  0  0  0  0  0  0  0
  160.4310  214.2790  143.3430 O   0  0  0  0  0  1  0  0  0  0  0  0
  161.8610  212.2700  142.9570 C   0  0  1  0  0  3  0  0  0  0  0  0
  160.4170  211.8940  142.5440 C   0  0  2  0  0  3  0  0  0  0  0  0
  158.2060  212.9560  141.0530 O   0  0  0  0  0  1  0  0  0  0  0  0
  160.0270  211.3580  139.7500 O   0  0  0  0  0  0  0  0  0  0  0  0
  160.6100  213.7920  140.4860 O   0  0  0  0  0  1  0  0  0  0  0  0
  159.8460  212.5630  140.9240 P   0  0  0  0  0  0  0  0  0  0  0  0
  161.3290  210.1680  153.6540 C   0  0  0  0  0  2  0  0  0  0  0  0
  160.4090  210.6070  154.7880 C   0  0  1  0  0  3  0  0  0  0  0  0
  160.7120  209.8590  156.0220 N   0  0  0  0  0  0  0  0  0  0  0  0
  159.6690  208.9040  156.3410 C   0  0  0  0  0  2  0  0  0  0  0  0
  161.5810  207.6900  155.7890 O   0  0  0  0  0  0  0  0  0  0  0  0
  161.9130  209.0550  155.8220 C   0  0  0  0  0  2  0  0  0  0  0  0
  160.3720  207.5850  156.4810 C   0  0  0  0  0  2  0  0  0  0  0  0
  159.0860  212.6720  154.9270 N   0  0  0  0  0  2  0  0  0  0  0  0
  159.8050  212.5210  156.1990 C   0  0  0  0  0  2  0  0  0  0  0  0
  160.4560  212.1330  154.9530 C   0  0  1  0  0  3  0  0  0  0  0  0
  1  4  1  0  0  0  0
  2  3  2  0  0  0  0
  4  3  1  0  0  0  0
  4 36  1  1  0  0  0
  5  1  2  0  0  0  0
  5  2  1  0  0  0  0
  6  7  1  0  0  0  0
  7  9  2  0  0  0  0
  8 11  1  0  0  0  0
  8  6  2  0  0  0  0
 10  2  1  0  0  0  0
 10  9  1  0  0  0  0
 11 10  2  0  0  0  0
 12 13  1  0  0  0  0
 13 11  1  0  0  0  0
 14 12  1  0  0  0  0
 14 13  1  0  0  0  0
 16 15  1  6  0  0  0
 16 17  1  0  0  0  0
 16  1  1  0  0  0  0
 17 19  2  0  0  0  0
 18 17  1  0  0  0  0
 20 21  1  0  0  0  0
 21 18  1  0  0  0  0
 22 25  2  0  0  0  0
 22 23  1  0  0  0  0
 23 20  2  0  0  0  0
 24 21  2  0  0  0  0
 25 24  1  0  0  0  0
 26 25  1  0  0  0  0
 28 29  1  6  0  0  0
 28 26  1  0  0  0  0
 30 27  1  6  0  0  0
 30 28  1  0  0  0  0
 31 35  1  6  0  0  0
 31 30  1  0  0  0  0
 31 28  1  0  0  0  0
 33 35  2  0  0  0  0
 34 35  1  0  0  0  0
 35 32  1  0  0  0  0
 37 36  1  6  0  0  0
 37 38  1  0  0  0  0
 38 39  1  0  0  0  0
 39 42  1  0  0  0  0
 40 41  1  0  0  0  0
 40 42  1  0  0  0  0
 41 38  1  0  0  0  0
 43 45  1  0  0  0  0
 43 44  1  0  0  0  0
 45 37  1  1  0  0  0
 45 44  1  0  0  0  0
M  END
>  <MODEL>
1

>  <REMARK>
 VINA RESULT:      -7.0      0.000      0.000
  Name = 
  12 active torsions:
  status: ('A' for Active; 'I' for Inactive)
    1  A    between atoms: C_6  and  C_44
    2  A    between atoms: N_7  and  C_41
    3  A    between atoms: C_9  and  C_24
    4  A    between atoms: C_14  and  N_16
    5  A    between atoms: N_16  and  C_39
    6  A    between atoms: C_18  and  N_43
    7  A    between atoms: C_19  and  C_24
    8  A    between atoms: C_22  and  C_26
    9  A    between atoms: C_31  and  C_41
   10  A    between atoms: C_32  and  C_35
   11  A    between atoms: C_35  and  C_41
   12  A    between atoms: P_36  and  C_38
                            x       y       z     vdW  Elec       q    Type
                         _______ _______ _______ _____ _____    ______ ____

>  <TORSDO>
F 12

$$$$
=
 OpenBabel11042421363D

 45 51  0  0  1  0  0  0  0  0999 V2000
  161.2320  208.0740  150.2410 C   0  0  0  0  0  0  0  0  0  0  0  0
  161.7460  209.8470  149.1140 C   0  0  0  0  0  0  0  0  0  0  0  0
  161.5040  208.9960  148.1700 N   0  0  0  0  0  0  0  0  0  0  0  0
  161.1420  207.7300  148.7930 C   0  0  1  0  0  3  0  0  0  0  0  0
  161.5910  209.3010  150.4170 N   0  0  0  0  0  0  0  0  0  0  0  0
  162.9130  213.8360  148.1510 N   0  0  0  0  0  0  0  0  0  0  0  0
  163.6270  212.7790  147.6900 C   0  0  0  0  0  3  0  0  0  0  0  0
  161.8250  213.6630  148.9450 C   0  0  0  0  0  3  0  0  0  0  0  0
  163.2440  211.4810  148.0200 C   0  0  0  0  0  3  0  0  0  0  0  0
  162.1260  211.2570  148.8360 C   0  0  0  0  0  0  0  0  0  0  0  0
  161.4070  212.3790  149.3300 C   0  0  0  0  0  0  0  0  0  0  0  0
  160.0280  213.4600  151.0740 C   0  0  0  0  0  2  0  0  0  0  0  0
  160.1730  212.2340  150.1860 C   0  0  0  0  0  3  0  0  0  0  0  0
  159.1200  213.2920  149.8800 C   0  0  0  0  0  2  0  0  0  0  0  0
  160.3240  205.8050  150.9370 C   0  0  0  0  0  1  0  0  0  0  0  0
  160.9640  207.1170  151.3690 C   0  0  1  0  0  3  0  0  0  0  0  0
  162.1530  206.9200  152.2690 C   0  0  0  0  0  0  0  0  0  0  0  0
  162.3220  207.6020  153.5230 N   0  0  0  0  0  2  0  0  0  0  0  0
  163.0730  206.1630  151.8690 O   0  0  0  0  0  0  0  0  0  0  0  0
  160.4520  207.3920  155.1320 C   0  0  0  0  0  3  0  0  0  0  0  0
  161.3170  208.1800  154.3650 C   0  0  0  0  0  0  0  0  0  0  0  0
  159.4290  209.3780  156.0570 C   0  0  0  0  0  3  0  0  0  0  0  0
  159.5080  207.9860  155.9720 C   0  0  0  0  0  3  0  0  0  0  0  0
  161.2460  209.5730  154.4710 C   0  0  0  0  0  3  0  0  0  0  0  0
  160.2990  210.1780  155.3100 C   0  0  0  0  0  0  0  0  0  0  0  0
  160.1980  211.6030  155.4110 N   0  0  0  0  0  2  0  0  0  0  0  0
  157.9360  214.4530  155.0790 O   0  0  0  0  0  1  0  0  0  0  0  0
  158.9340  212.3130  155.5380 C   0  0  1  0  0  0  0  0  0  0  0  0
  158.4470  212.5060  156.8340 O   0  0  0  0  0  1  0  0  0  0  0  0
  158.7120  213.4280  154.5290 C   0  0  1  0  0  3  0  0  0  0  0  0
  157.9500  212.0870  154.4040 C   0  0  2  0  0  3  0  0  0  0  0  0
  155.5310  210.5710  154.7030 O   0  0  0  0  0  1  0  0  0  0  0  0
  155.3540  213.1740  153.8330 O   0  0  0  0  0  0  0  0  0  0  0  0
  155.9470  212.5870  156.3040 O   0  0  0  0  0  1  0  0  0  0  0  0
  156.1700  212.1270  154.8810 P   0  0  0  0  0  0  0  0  0  0  0  0
  162.1690  206.6620  148.4450 C   0  0  0  0  0  2  0  0  0  0  0  0
  161.5870  205.6480  147.4670 C   0  0  1  0  0  3  0  0  0  0  0  0
  161.6640  206.1570  146.0840 N   0  0  0  0  0  0  0  0  0  0  0  0
  162.3350  205.2200  145.2040 C   0  0  0  0  0  2  0  0  0  0  0  0
  160.1040  205.3280  144.5360 O   0  0  0  0  0  0  0  0  0  0  0  0
  160.3170  206.2910  145.5390 C   0  0  0  0  0  2  0  0  0  0  0  0
  161.3770  204.9880  144.0720 C   0  0  0  0  0  2  0  0  0  0  0  0
  161.5050  203.5220  148.6920 N   0  0  0  0  0  2  0  0  0  0  0  0
  161.3240  203.2170  147.2670 C   0  0  0  0  0  2  0  0  0  0  0  0
  162.2450  204.2750  147.6670 C   0  0  1  0  0  3  0  0  0  0  0  0
  1  5  2  0  0  0  0
  1 16  1  0  0  0  0
  2  5  1  0  0  0  0
  3  4  1  0  0  0  0
  3  2  2  0  0  0  0
  4 36  1  1  0  0  0
  4  1  1  0  0  0  0
  6  8  1  0  0  0  0
  7  9  1  0  0  0  0
  7  6  2  0  0  0  0
  8 11  2  0  0  0  0
  9 10  2  0  0  0  0
 10  2  1  0  0  0  0
 10 11  1  0  0  0  0
 11 13  1  0  0  0  0
 13 12  1  0  0  0  0
 14 13  1  0  0  0  0
 14 12  1  0  0  0  0
 16 15  1  6  0  0  0
 16 17  1  0  0  0  0
 17 18  1  0  0  0  0
 18 21  1  0  0  0  0
 19 17  2  0  0  0  0
 20 23  1  0  0  0  0
 21 24  1  0  0  0  0
 21 20  2  0  0  0  0
 23 22  2  0  0  0  0
 24 25  2  0  0  0  0
 25 26  1  0  0  0  0
 25 22  1  0  0  0  0
 26 28  1  0  0  0  0
 28 29  1  1  0  0  0
 30 27  1  1  0  0  0
 30 28  1  0  0  0  0
 31 30  1  0  0  0  0
 31 35  1  1  0  0  0
 31 28  1  0  0  0  0
 32 35  1  0  0  0  0
 33 35  2  0  0  0  0
 35 34  1  0  0  0  0
 37 36  1  1  0  0  0
 38 37  1  0  0  0  0
 39 38  1  0  0  0  0
 40 41  1  0  0  0  0
 41 38  1  0  0  0  0
 42 40  1  0  0  0  0
 42 39  1  0  0  0  0
 44 45  1  0  0  0  0
 44 43  1  0  0  0  0
 45 37  1  6  0  0  0
 45 43  1  0  0  0  0
M  END
>  <MODEL>
2

>  <REMARK>
 VINA RESULT:      -6.4      4.276      9.934
  Name = 
  12 active torsions:
  status: ('A' for Active; 'I' for Inactive)
    1  A    between atoms: C_6  and  C_44
    2  A    between atoms: N_7  and  C_41
    3  A    between atoms: C_9  and  C_24
    4  A    between atoms: C_14  and  N_16
    5  A    between atoms: N_16  and  C_39
    6  A    between atoms: C_18  and  N_43
    7  A    between atoms: C_19  and  C_24
    8  A    between atoms: C_22  and  C_26
    9  A    between atoms: C_31  and  C_41
   10  A    between atoms: C_32  and  C_35
   11  A    between atoms: C_35  and  C_41
   12  A    between atoms: P_36  and  C_38
                            x       y       z     vdW  Elec       q    Type
                         _______ _______ _______ _____ _____    ______ ____

>  <TORSDO>
F 12

$$$$
=
 OpenBabel11042421363D

 45 51  0  0  1  0  0  0  0  0999 V2000
  161.4600  209.2400  150.7250 C   0  0  0  0  0  0  0  0  0  0  0  0
  161.5940  207.8110  149.1060 C   0  0  0  0  0  0  0  0  0  0  0  0
  162.0260  208.8920  148.5410 N   0  0  0  0  0  0  0  0  0  0  0  0
  161.9870  209.9600  149.5300 C   0  0  1  0  0  3  0  0  0  0  0  0
  161.2280  207.9970  150.4660 N   0  0  0  0  0  0  0  0  0  0  0  0
  161.5190  204.1410  146.9320 N   0  0  0  0  0  0  0  0  0  0  0  0
  161.9060  205.2920  146.3280 C   0  0  0  0  0  3  0  0  0  0  0  0
  161.1260  204.1220  148.2320 C   0  0  0  0  0  3  0  0  0  0  0  0
  161.9160  206.4870  147.0440 C   0  0  0  0  0  3  0  0  0  0  0  0
  161.5180  206.5120  148.3880 C   0  0  0  0  0  0  0  0  0  0  0  0
  161.0910  205.3000  148.9960 C   0  0  0  0  0  0  0  0  0  0  0  0
  160.7110  203.7750  150.9040 C   0  0  0  0  0  2  0  0  0  0  0  0
  160.6780  205.2240  150.4450 C   0  0  0  0  0  3  0  0  0  0  0  0
  161.7980  204.7230  151.3480 C   0  0  0  0  0  2  0  0  0  0  0  0
  160.2180  209.1090  152.9380 C   0  0  0  0  0  1  0  0  0  0  0  0
  161.2050  209.8720  152.0640 C   0  0  1  0  0  3  0  0  0  0  0  0
  162.4690  210.2390  152.7920 C   0  0  0  0  0  0  0  0  0  0  0  0
  162.5040  210.6380  154.1730 N   0  0  0  0  0  2  0  0  0  0  0  0
  163.5420  210.2530  152.1370 O   0  0  0  0  0  0  0  0  0  0  0  0
  161.7630  209.3220  156.1350 C   0  0  0  0  0  3  0  0  0  0  0  0
  161.5560  210.3490  155.2070 C   0  0  0  0  0  0  0  0  0  0  0  0
  159.6990  209.8930  157.2590 C   0  0  0  0  0  3  0  0  0  0  0  0
  160.8370  209.0890  157.1550 C   0  0  0  0  0  3  0  0  0  0  0  0
  160.4240  211.1620  155.3310 C   0  0  0  0  0  3  0  0  0  0  0  0
  159.4880  210.9340  156.3510 C   0  0  0  0  0  0  0  0  0  0  0  0
  158.3130  211.7420  156.4750 N   0  0  0  0  0  2  0  0  0  0  0  0
  155.8490  213.8560  154.7990 O   0  0  0  0  0  1  0  0  0  0  0  0
  157.5730  212.2680  155.3370 C   0  0  1  0  0  0  0  0  0  0  0  0
  156.7830  211.3600  154.6260 O   0  0  0  0  0  1  0  0  0  0  0  0
  157.0430  213.6820  155.5060 C   0  0  1  0  0  3  0  0  0  0  0  0
  158.2570  213.3980  154.5900 C   0  0  2  0  0  3  0  0  0  0  0  0
  156.3110  213.8950  152.5390 O   0  0  0  0  0  1  0  0  0  0  0  0
  158.1790  211.9180  152.1300 O   0  0  0  0  0  1  0  0  0  0  0  0
  158.8110  214.4470  152.0470 O   0  0  0  0  0  0  0  0  0  0  0  0
  157.9280  213.4610  152.7770 P   0  0  0  0  0  0  0  0  0  0  0  0
  161.0060  211.0400  149.0970 C   0  0  0  0  0  2  0  0  0  0  0  0
  161.6220  211.9340  148.0270 C   0  0  1  0  0  3  0  0  0  0  0  0
  160.6640  212.9720  147.6020 N   0  0  0  0  0  0  0  0  0  0  0  0
  159.7390  212.4730  146.6040 C   0  0  0  0  0  2  0  0  0  0  0  0
  158.5110  212.9070  148.5380 O   0  0  0  0  0  0  0  0  0  0  0  0
  159.8280  213.3560  148.7350 C   0  0  0  0  0  2  0  0  0  0  0  0
  158.3730  212.7600  147.1550 C   0  0  0  0  0  2  0  0  0  0  0  0
  164.0260  212.1000  147.5550 N   0  0  0  0  0  2  0  0  0  0  0  0
  163.4810  213.4640  147.5500 C   0  0  0  0  0  2  0  0  0  0  0  0
  162.9720  212.4870  148.5060 C   0  0  1  0  0  3  0  0  0  0  0  0
  1 16  1  0  0  0  0
  2  5  1  0  0  0  0
  3  2  2  0  0  0  0
  3  4  1  0  0  0  0
  4 36  1  6  0  0  0
  4  1  1  0  0  0  0
  5  1  2  0  0  0  0
  6  8  1  0  0  0  0
  7  6  2  0  0  0  0
  7  9  1  0  0  0  0
  8 11  2  0  0  0  0
  9 10  2  0  0  0  0
 10 11  1  0  0  0  0
 10  2  1  0  0  0  0
 11 13  1  0  0  0  0
 12 14  1  0  0  0  0
 13 12  1  0  0  0  0
 13 14  1  0  0  0  0
 16 17  1  0  0  0  0
 16 15  1  1  0  0  0
 17 18  1  0  0  0  0
 18 21  1  0  0  0  0
 19 17  2  0  0  0  0
 20 23  1  0  0  0  0
 21 24  1  0  0  0  0
 21 20  2  0  0  0  0
 23 22  2  0  0  0  0
 24 25  2  0  0  0  0
 25 26  1  0  0  0  0
 25 22  1  0  0  0  0
 28 29  1  6  0  0  0
 28 30  1  0  0  0  0
 28 26  1  0  0  0  0
 30 27  1  6  0  0  0
 31 35  1  6  0  0  0
 31 28  1  0  0  0  0
 31 30  1  0  0  0  0
 32 35  1  0  0  0  0
 33 35  1  0  0  0  0
 34 35  2  0  0  0  0
 37 36  1  1  0  0  0
 38 37  1  0  0  0  0
 38 41  1  0  0  0  0
 39 42  1  0  0  0  0
 39 38  1  0  0  0  0
 40 41  1  0  0  0  0
 42 40  1  0  0  0  0
 43 45  1  0  0  0  0
 44 43  1  0  0  0  0
 44 45  1  0  0  0  0
 45 37  1  6  0  0  0
M  END
>  <MODEL>
3

>  <REMARK>
 VINA RESULT:      -6.2      3.669      8.379
  Name = 
  12 active torsions:
  status: ('A' for Active; 'I' for Inactive)
    1  A    between atoms: C_6  and  C_44
    2  A    between atoms: N_7  and  C_41
    3  A    between atoms: C_9  and  C_24
    4  A    between atoms: C_14  and  N_16
    5  A    between atoms: N_16  and  C_39
    6  A    between atoms: C_18  and  N_43
    7  A    between atoms: C_19  and  C_24
    8  A    between atoms: C_22  and  C_26
    9  A    between atoms: C_31  and  C_41
   10  A    between atoms: C_32  and  C_35
   11  A    between atoms: C_35  and  C_41
   12  A    between atoms: P_36  and  C_38
                            x       y       z     vdW  Elec       q    Type
                         _______ _______ _______ _____ _____    ______ ____

>  <TORSDO>
F 12

$$$$
=
 OpenBabel11042421363D

 45 51  0  0  1  0  0  0  0  0999 V2000
  161.6840  210.2440  149.3960 C   0  0  0  0  0  0  0  0  0  0  0  0
  161.4160  212.0080  148.1740 C   0  0  0  0  0  0  0  0  0  0  0  0
  161.3410  212.5000  149.3680 N   0  0  0  0  0  0  0  0  0  0  0  0
  161.5030  211.4050  150.3150 C   0  0  1  0  0  3  0  0  0  0  0  0
  161.6240  210.6030  148.1580 N   0  0  0  0  0  0  0  0  0  0  0  0
  161.2820  214.3570  144.6150 N   0  0  0  0  0  0  0  0  0  0  0  0
  162.4700  213.9540  145.1310 C   0  0  0  0  0  3  0  0  0  0  0  0
  160.1060  214.0460  145.2210 C   0  0  0  0  0  3  0  0  0  0  0  0
  162.5030  213.1970  146.2990 C   0  0  0  0  0  3  0  0  0  0  0  0
  161.3130  212.8540  146.9570 C   0  0  0  0  0  0  0  0  0  0  0  0
  160.0800  213.3080  146.4150 C   0  0  0  0  0  0  0  0  0  0  0  0
  157.6840  213.9080  146.5060 C   0  0  0  0  0  2  0  0  0  0  0  0
  158.7490  212.9600  147.0330 C   0  0  0  0  0  3  0  0  0  0  0  0
  157.7300  212.4860  146.0040 C   0  0  0  0  0  2  0  0  0  0  0  0
  162.7070  207.9770  148.8720 C   0  0  0  0  0  1  0  0  0  0  0  0
  161.8900  208.8220  149.8400 C   0  0  1  0  0  3  0  0  0  0  0  0
  162.3720  208.7140  151.2610 C   0  0  0  0  0  0  0  0  0  0  0  0
  162.0220  207.6300  152.1390 N   0  0  0  0  0  2  0  0  0  0  0  0
  163.0700  209.6550  151.7190 O   0  0  0  0  0  0  0  0  0  0  0  0
  160.9490  205.4740  152.7110 C   0  0  0  0  0  3  0  0  0  0  0  0
  161.5990  206.3060  151.7930 C   0  0  0  0  0  0  0  0  0  0  0  0
  160.7210  203.7570  151.0230 C   0  0  0  0  0  3  0  0  0  0  0  0
  160.5150  204.2020  152.3310 C   0  0  0  0  0  3  0  0  0  0  0  0
  161.7820  205.8610  150.4790 C   0  0  0  0  0  3  0  0  0  0  0  0
  161.3520  204.5840  150.0900 C   0  0  0  0  0  0  0  0  0  0  0  0
  161.5550  204.1060  148.7560 N   0  0  0  0  0  2  0  0  0  0  0  0
  162.5970  206.5070  146.2070 O   0  0  0  0  0  1  0  0  0  0  0  0
  161.3920  204.9340  147.5700 C   0  0  1  0  0  0  0  0  0  0  0  0
  160.4090  205.9270  147.6250 O   0  0  0  0  0  1  0  0  0  0  0  0
  162.6750  205.2540  146.8210 C   0  0  1  0  0  3  0  0  0  0  0  0
  161.6620  204.2320  146.2520 C   0  0  2  0  0  3  0  0  0  0  0  0
  159.6490  206.0700  145.3520 O   0  0  0  0  0  1  0  0  0  0  0  0
  159.6830  203.5330  144.2910 O   0  0  0  0  0  1  0  0  0  0  0  0
  161.4880  205.3090  143.6670 O   0  0  0  0  0  0  0  0  0  0  0  0
  160.6500  204.8130  144.8240 P   0  0  0  0  0  0  0  0  0  0  0  0
  160.2330  211.2280  151.1350 C   0  0  0  0  0  2  0  0  0  0  0  0
  160.3690  211.9020  152.4950 C   0  0  1  0  0  3  0  0  0  0  0  0
  159.3510  212.9570  152.6570 N   0  0  0  0  0  0  0  0  0  0  0  0
  159.7040  214.1610  151.9300 C   0  0  0  0  0  2  0  0  0  0  0  0
  157.8140  213.2570  150.9060 O   0  0  0  0  0  0  0  0  0  0  0  0
  158.0930  212.5130  152.0660 C   0  0  0  0  0  2  0  0  0  0  0  0
  158.5200  214.4530  151.0550 C   0  0  0  0  0  2  0  0  0  0  0  0
  161.5080  211.0850  154.5120 N   0  0  0  0  0  2  0  0  0  0  0  0
  160.1540  211.4960  154.9050 C   0  0  0  0  0  2  0  0  0  0  0  0
  160.3650  210.8510  153.6140 C   0  0  1  0  0  3  0  0  0  0  0  0
  1 16  1  0  0  0  0
  1  4  1  0  0  0  0
  2  3  2  0  0  0  0
  3  4  1  0  0  0  0
  4 36  1  6  0  0  0
  5  2  1  0  0  0  0
  5  1  2  0  0  0  0
  6  7  2  0  0  0  0
  6  8  1  0  0  0  0
  7  9  1  0  0  0  0
  8 11  2  0  0  0  0
  9 10  2  0  0  0  0
 10  2  1  0  0  0  0
 11 10  1  0  0  0  0
 11 13  1  0  0  0  0
 12 13  1  0  0  0  0
 14 12  1  0  0  0  0
 14 13  1  0  0  0  0
 16 15  1  6  0  0  0
 16 17  1  0  0  0  0
 17 19  2  0  0  0  0
 17 18  1  0  0  0  0
 21 18  1  0  0  0  0
 21 20  2  0  0  0  0
 22 23  2  0  0  0  0
 23 20  1  0  0  0  0
 24 21  1  0  0  0  0
 25 24  2  0  0  0  0
 25 22  1  0  0  0  0
 26 25  1  0  0  0  0
 28 29  1  1  0  0  0
 28 26  1  0  0  0  0
 30 27  1  6  0  0  0
 30 28  1  0  0  0  0
 31 35  1  6  0  0  0
 31 30  1  0  0  0  0
 31 28  1  0  0  0  0
 33 35  1  0  0  0  0
 34 35  2  0  0  0  0
 35 32  1  0  0  0  0
 37 36  1  6  0  0  0
 37 38  1  0  0  0  0
 39 38  1  0  0  0  0
 40 42  1  0  0  0  0
 40 41  1  0  0  0  0
 41 38  1  0  0  0  0
 42 39  1  0  0  0  0
 43 44  1  0  0  0  0
 45 37  1  6  0  0  0
 45 43  1  0  0  0  0
 45 44  1  0  0  0  0
M  END
>  <MODEL>
4

>  <REMARK>
 VINA RESULT:      -6.1      3.537      7.628
  Name = 
  12 active torsions:
  status: ('A' for Active; 'I' for Inactive)
    1  A    between atoms: C_6  and  C_44
    2  A    between atoms: N_7  and  C_41
    3  A    between atoms: C_9  and  C_24
    4  A    between atoms: C_14  and  N_16
    5  A    between atoms: N_16  and  C_39
    6  A    between atoms: C_18  and  N_43
    7  A    between atoms: C_19  and  C_24
    8  A    between atoms: C_22  and  C_26
    9  A    between atoms: C_31  and  C_41
   10  A    between atoms: C_32  and  C_35
   11  A    between atoms: C_35  and  C_41
   12  A    between atoms: P_36  and  C_38
                            x       y       z     vdW  Elec       q    Type
                         _______ _______ _______ _____ _____    ______ ____

>  <TORSDO>
F 12

$$$$
=
 OpenBabel11042421363D

 45 51  0  0  1  0  0  0  0  0999 V2000
  161.1900  208.5370  151.4240 C   0  0  0  0  0  0  0  0  0  0  0  0
  161.5070  210.5550  150.7160 C   0  0  0  0  0  0  0  0  0  0  0  0
  161.6240  210.7040  151.9950 N   0  0  0  0  0  0  0  0  0  0  0  0
  161.4260  209.4010  152.6160 C   0  0  1  0  0  3  0  0  0  0  0  0
  161.2310  209.2170  150.3280 N   0  0  0  0  0  0  0  0  0  0  0  0
  162.0130  213.6740  147.8480 N   0  0  0  0  0  0  0  0  0  0  0  0
  162.6700  212.4950  147.7080 C   0  0  0  0  0  3  0  0  0  0  0  0
  161.1950  213.9060  148.9070 C   0  0  0  0  0  3  0  0  0  0  0  0
  162.5070  211.4880  148.6560 C   0  0  0  0  0  3  0  0  0  0  0  0
  161.6720  211.6860  149.7650 C   0  0  0  0  0  0  0  0  0  0  0  0
  161.0120  212.9370  149.9070 C   0  0  0  0  0  0  0  0  0  0  0  0
  159.1590  214.3860  150.6680 C   0  0  0  0  0  2  0  0  0  0  0  0
  160.0680  213.2280  151.0480 C   0  0  0  0  0  3  0  0  0  0  0  0
  158.6110  212.9810  150.6810 C   0  0  0  0  0  2  0  0  0  0  0  0
  160.7890  206.3990  150.1090 C   0  0  0  0  0  1  0  0  0  0  0  0
  160.9150  207.0590  151.4760 C   0  0  1  0  0  3  0  0  0  0  0  0
  161.8450  206.3200  152.3990 C   0  0  0  0  0  0  0  0  0  0  0  0
  161.8470  204.8900  152.5470 N   0  0  0  0  0  2  0  0  0  0  0  0
  162.6170  206.9990  153.1230 O   0  0  0  0  0  0  0  0  0  0  0  0
  160.4730  202.9050  151.9950 C   0  0  0  0  0  3  0  0  0  0  0  0
  161.3850  203.8990  151.6210 C   0  0  0  0  0  0  0  0  0  0  0  0
  160.4550  202.0430  149.7360 C   0  0  0  0  0  3  0  0  0  0  0  0
  160.0120  201.9770  151.0590 C   0  0  0  0  0  3  0  0  0  0  0  0
  161.8060  203.9720  150.2890 C   0  0  0  0  0  3  0  0  0  0  0  0
  161.3510  203.0410  149.3440 C   0  0  0  0  0  0  0  0  0  0  0  0
  161.7920  203.0880  147.9830 N   0  0  0  0  0  2  0  0  0  0  0  0
  162.6920  206.1970  146.2870 O   0  0  0  0  0  1  0  0  0  0  0  0
  161.5770  204.2290  147.1050 C   0  0  1  0  0  0  0  0  0  0  0  0
  160.5510  205.1100  147.4570 O   0  0  0  0  0  1  0  0  0  0  0  0
  162.8350  204.8210  146.4900 C   0  0  1  0  0  3  0  0  0  0  0  0
  161.8620  203.9740  145.6350 C   0  0  2  0  0  3  0  0  0  0  0  0
  160.0910  206.2050  145.2760 O   0  0  0  0  0  1  0  0  0  0  0  0
  159.5890  203.8870  143.8820 O   0  0  0  0  0  1  0  0  0  0  0  0
  161.5800  205.4570  143.2700 O   0  0  0  0  0  0  0  0  0  0  0  0
  160.8070  204.9140  144.4500 P   0  0  0  0  0  0  0  0  0  0  0  0
  160.1860  209.4230  153.4980 C   0  0  0  0  0  2  0  0  0  0  0  0
  160.5660  209.6210  154.9610 C   0  0  1  0  0  3  0  0  0  0  0  0
  159.6700  210.6010  155.6030 N   0  0  0  0  0  0  0  0  0  0  0  0
  160.3960  211.7630  156.0780 C   0  0  0  0  0  2  0  0  0  0  0  0
  159.0170  212.4660  154.3330 O   0  0  0  0  0  0  0  0  0  0  0  0
  158.7290  211.1200  154.6160 C   0  0  0  0  0  2  0  0  0  0  0  0
  159.7050  212.9400  155.4530 C   0  0  0  0  0  2  0  0  0  0  0  0
  161.8530  208.2080  156.5030 N   0  0  0  0  0  2  0  0  0  0  0  0
  160.5480  208.4650  157.1260 C   0  0  0  0  0  2  0  0  0  0  0  0
  160.6330  208.2670  155.6830 C   0  0  1  0  0  3  0  0  0  0  0  0
  1 16  1  0  0  0  0
  1  4  1  0  0  0  0
  2  3  2  0  0  0  0
  3  4  1  0  0  0  0
  4 36  1  1  0  0  0
  5  2  1  0  0  0  0
  5  1  2  0  0  0  0
  6  8  1  0  0  0  0
  7  6  2  0  0  0  0
  7  9  1  0  0  0  0
  8 11  2  0  0  0  0
  9 10  2  0  0  0  0
 10 11  1  0  0  0  0
 10  2  1  0  0  0  0
 11 13  1  0  0  0  0
 12 14  1  0  0  0  0
 12 13  1  0  0  0  0
 14 13  1  0  0  0  0
 16 15  1  6  0  0  0
 16 17  1  0  0  0  0
 17 18  1  0  0  0  0
 17 19  2  0  0  0  0
 21 20  1  0  0  0  0
 21 18  1  0  0  0  0
 22 23  1  0  0  0  0
 23 20  2  0  0  0  0
 24 21  2  0  0  0  0
 25 22  2  0  0  0  0
 25 24  1  0  0  0  0
 26 25  1  0  0  0  0
 28 29  1  1  0  0  0
 28 26  1  0  0  0  0
 30 27  1  6  0  0  0
 30 28  1  0  0  0  0
 31 35  1  6  0  0  0
 31 30  1  0  0  0  0
 31 28  1  0  0  0  0
 33 35  1  0  0  0  0
 34 35  2  0  0  0  0
 35 32  1  0  0  0  0
 37 36  1  6  0  0  0
 37 38  1  0  0  0  0
 38 39  1  0  0  0  0
 40 41  1  0  0  0  0
 40 42  1  0  0  0  0
 41 38  1  0  0  0  0
 42 39  1  0  0  0  0
 43 44  1  0  0  0  0
 45 37  1  6  0  0  0
 45 43  1  0  0  0  0
 45 44  1  0  0  0  0
M  END
>  <MODEL>
5

>  <REMARK>
 VINA RESULT:      -5.9      3.582      7.555
  Name = 
  12 active torsions:
  status: ('A' for Active; 'I' for Inactive)
    1  A    between atoms: C_6  and  C_44
    2  A    between atoms: N_7  and  C_41
    3  A    between atoms: C_9  and  C_24
    4  A    between atoms: C_14  and  N_16
    5  A    between atoms: N_16  and  C_39
    6  A    between atoms: C_18  and  N_43
    7  A    between atoms: C_19  and  C_24
    8  A    between atoms: C_22  and  C_26
    9  A    between atoms: C_31  and  C_41
   10  A    between atoms: C_32  and  C_35
   11  A    between atoms: C_35  and  C_41
   12  A    between atoms: P_36  and  C_38
                            x       y       z     vdW  Elec       q    Type
                         _______ _______ _______ _____ _____    ______ ____

>  <TORSDO>
F 12

$$$$
=
 OpenBabel11042421363D

 45 51  0  0  1  0  0  0  0  0999 V2000
  161.7190  208.8200  150.7580 C   0  0  0  0  0  0  0  0  0  0  0  0
  161.7500  210.8720  150.0740 C   0  0  0  0  0  0  0  0  0  0  0  0
  161.5470  211.0200  151.3430 N   0  0  0  0  0  0  0  0  0  0  0  0
  161.4980  209.6940  151.9450 C   0  0  1  0  0  3  0  0  0  0  0  0
  161.8560  209.5120  149.6770 N   0  0  0  0  0  0  0  0  0  0  0  0
  162.1980  214.0730  147.2900 N   0  0  0  0  0  0  0  0  0  0  0  0
  163.0820  213.0450  147.3060 C   0  0  0  0  0  3  0  0  0  0  0  0
  161.1610  214.1290  148.1660 C   0  0  0  0  0  3  0  0  0  0  0  0
  162.9330  212.0100  148.2260 C   0  0  0  0  0  3  0  0  0  0  0  0
  161.8770  212.0280  149.1480 C   0  0  0  0  0  0  0  0  0  0  0  0
  160.9760  213.1270  149.1330 C   0  0  0  0  0  0  0  0  0  0  0  0
  159.9260  214.4520  150.9360 C   0  0  0  0  0  2  0  0  0  0  0  0
  159.7920  213.2150  150.0630 C   0  0  0  0  0  3  0  0  0  0  0  0
  158.9310  214.4440  149.8020 C   0  0  0  0  0  2  0  0  0  0  0  0
  162.7140  206.6930  149.7840 C   0  0  0  0  0  1  0  0  0  0  0  0
  161.7590  207.3180  150.7930 C   0  0  1  0  0  3  0  0  0  0  0  0
  161.9330  206.7670  152.1820 C   0  0  0  0  0  0  0  0  0  0  0  0
  161.4530  205.4740  152.5900 N   0  0  0  0  0  2  0  0  0  0  0  0
  162.4760  207.5040  153.0440 O   0  0  0  0  0  0  0  0  0  0  0  0
  160.4610  203.2290  152.2650 C   0  0  0  0  0  3  0  0  0  0  0  0
  161.1710  204.3310  151.7740 C   0  0  0  0  0  0  0  0  0  0  0  0
  160.5800  202.1630  150.0970 C   0  0  0  0  0  3  0  0  0  0  0  0
  160.1700  202.1460  151.4320 C   0  0  0  0  0  3  0  0  0  0  0  0
  161.5600  204.3490  150.4310 C   0  0  0  0  0  3  0  0  0  0  0  0
  161.2740  203.2640  149.5890 C   0  0  0  0  0  0  0  0  0  0  0  0
  161.6870  203.2580  148.2180 N   0  0  0  0  0  2  0  0  0  0  0  0
  162.6000  206.2860  146.3870 O   0  0  0  0  0  1  0  0  0  0  0  0
  161.4690  204.3720  147.3070 C   0  0  1  0  0  0  0  0  0  0  0  0
  160.4720  205.2880  147.6560 O   0  0  0  0  0  1  0  0  0  0  0  0
  162.7200  204.9150  146.6360 C   0  0  1  0  0  3  0  0  0  0  0  0
  161.7050  204.0600  145.8400 C   0  0  2  0  0  3  0  0  0  0  0  0
  159.4180  203.9400  144.1090 O   0  0  0  0  0  1  0  0  0  0  0  0
  161.5790  205.4530  143.3310 O   0  0  0  0  0  0  0  0  0  0  0  0
  159.9940  206.2070  145.2610 O   0  0  0  0  0  1  0  0  0  0  0  0
  160.6350  204.9800  144.6530 P   0  0  0  0  0  0  0  0  0  0  0  0
  160.1180  209.4360  152.5330 C   0  0  0  0  0  2  0  0  0  0  0  0
  160.0120  210.0120  153.9400 C   0  0  1  0  0  3  0  0  0  0  0  0
  161.2830  209.8370  154.6700 N   0  0  0  0  0  0  0  0  0  0  0  0
  161.7140  211.0690  155.3010 C   0  0  0  0  0  2  0  0  0  0  0  0
  161.1660  209.5690  157.0000 O   0  0  0  0  0  0  0  0  0  0  0  0
  161.0880  208.8960  155.7680 C   0  0  0  0  0  2  0  0  0  0  0  0
  161.9160  210.7200  156.7470 C   0  0  0  0  0  2  0  0  0  0  0  0
  158.1130  211.4870  153.4410 N   0  0  0  0  0  2  0  0  0  0  0  0
  158.4470  211.6620  154.8610 C   0  0  0  0  0  2  0  0  0  0  0  0
  159.5150  211.4640  153.8880 C   0  0  1  0  0  3  0  0  0  0  0  0
  1 16  1  0  0  0  0
  1  4  1  0  0  0  0
  2  3  2  0  0  0  0
  3  4  1  0  0  0  0
  4 36  1  6  0  0  0
  5  2  1  0  0  0  0
  5  1  2  0  0  0  0
  6  7  2  0  0  0  0
  6  8  1  0  0  0  0
  7  9  1  0  0  0  0
  8 11  2  0  0  0  0
  9 10  2  0  0  0  0
 10  2  1  0  0  0  0
 11 10  1  0  0  0  0
 11 13  1  0  0  0  0
 13 12  1  0  0  0  0
 14 13  1  0  0  0  0
 14 12  1  0  0  0  0
 16 15  1  6  0  0  0
 16 17  1  0  0  0  0
 17 18  1  0  0  0  0
 17 19  2  0  0  0  0
 21 20  1  0  0  0  0
 21 18  1  0  0  0  0
 22 23  1  0  0  0  0
 23 20  2  0  0  0  0
 24 21  2  0  0  0  0
 25 22  2  0  0  0  0
 25 24  1  0  0  0  0
 26 25  1  0  0  0  0
 28 29  1  1  0  0  0
 28 26  1  0  0  0  0
 30 27  1  6  0  0  0
 30 28  1  0  0  0  0
 31 35  1  6  0  0  0
 31 30  1  0  0  0  0
 31 28  1  0  0  0  0
 32 35  1  0  0  0  0
 33 35  2  0  0  0  0
 35 34  1  0  0  0  0
 37 36  1  6  0  0  0
 37 38  1  0  0  0  0
 38 39  1  0  0  0  0
 38 41  1  0  0  0  0
 39 42  1  0  0  0  0
 41 40  1  0  0  0  0
 42 40  1  0  0  0  0
 43 45  1  0  0  0  0
 43 44  1  0  0  0  0
 45 37  1  1  0  0  0
 45 44  1  0  0  0  0
M  END
>  <MODEL>
6

>  <REMARK>
 VINA RESULT:      -5.6      3.659      7.418
  Name = 
  12 active torsions:
  status: ('A' for Active; 'I' for Inactive)
    1  A    between atoms: C_6  and  C_44
    2  A    between atoms: N_7  and  C_41
    3  A    between atoms: C_9  and  C_24
    4  A    between atoms: C_14  and  N_16
    5  A    between atoms: N_16  and  C_39
    6  A    between atoms: C_18  and  N_43
    7  A    between atoms: C_19  and  C_24
    8  A    between atoms: C_22  and  C_26
    9  A    between atoms: C_31  and  C_41
   10  A    between atoms: C_32  and  C_35
   11  A    between atoms: C_35  and  C_41
   12  A    between atoms: P_36  and  C_38
                            x       y       z     vdW  Elec       q    Type
                         _______ _______ _______ _____ _____    ______ ____

>  <TORSDO>
F 12

$$$$
=
 OpenBabel11042421363D

 45 51  0  0  1  0  0  0  0  0999 V2000
  161.4150  208.8640  150.0190 C   0  0  0  0  0  0  0  0  0  0  0  0
  161.6800  207.3180  148.5300 C   0  0  0  0  0  0  0  0  0  0  0  0
  162.2080  208.3420  147.9430 N   0  0  0  0  0  0  0  0  0  0  0  0
  162.0960  209.4810  148.8450 C   0  0  1  0  0  3  0  0  0  0  0  0
  161.1710  207.6120  149.8230 N   0  0  0  0  0  0  0  0  0  0  0  0
  161.7190  203.5040  146.6180 N   0  0  0  0  0  0  0  0  0  0  0  0
  162.1710  204.6060  145.9680 C   0  0  0  0  0  3  0  0  0  0  0  0
  161.2240  203.5810  147.8810 C   0  0  0  0  0  3  0  0  0  0  0  0
  162.1430  205.8480  146.5970 C   0  0  0  0  0  3  0  0  0  0  0  0
  161.6400  205.9720  147.9000 C   0  0  0  0  0  0  0  0  0  0  0  0
  161.1480  204.8100  148.5550 C   0  0  0  0  0  0  0  0  0  0  0  0
  160.6540  203.4370  150.5500 C   0  0  0  0  0  2  0  0  0  0  0  0
  160.6210  204.8410  149.9680 C   0  0  0  0  0  3  0  0  0  0  0  0
  161.6760  204.4520  150.9960 C   0  0  0  0  0  2  0  0  0  0  0  0
  160.8030  208.6990  152.4800 C   0  0  0  0  0  1  0  0  0  0  0  0
  161.0330  209.5990  151.2730 C   0  0  1  0  0  3  0  0  0  0  0  0
  161.9400  210.7600  151.5740 C   0  0  0  0  0  0  0  0  0  0  0  0
  161.5690  212.1340  151.3640 N   0  0  0  0  0  2  0  0  0  0  0  0
  163.1050  210.5090  151.9730 O   0  0  0  0  0  0  0  0  0  0  0  0
  159.7760  213.3330  150.1480 C   0  0  0  0  0  3  0  0  0  0  0  0
  160.2550  212.7010  151.3010 C   0  0  0  0  0  0  0  0  0  0  0  0
  157.6420  213.7130  151.2180 C   0  0  0  0  0  3  0  0  0  0  0  0
  158.4770  213.8420  150.1060 C   0  0  0  0  0  3  0  0  0  0  0  0
  159.4060  212.5580  152.4030 C   0  0  0  0  0  3  0  0  0  0  0  0
  158.1000  213.0690  152.3700 C   0  0  0  0  0  0  0  0  0  0  0  0
  157.2270  212.9520  153.4990 N   0  0  0  0  0  2  0  0  0  0  0  0
  156.8300  211.4490  156.8060 O   0  0  0  0  0  1  0  0  0  0  0  0
  157.6660  212.5050  154.8130 C   0  0  1  0  0  0  0  0  0  0  0  0
  158.1420  213.4870  155.6860 O   0  0  0  0  0  1  0  0  0  0  0  0
  156.8640  211.3610  155.4110 C   0  0  1  0  0  3  0  0  0  0  0  0
  158.2850  211.1200  154.8500 C   0  0  2  0  0  3  0  0  0  0  0  0
  161.1130  211.0350  155.3360 O   0  0  0  0  0  0  0  0  0  0  0  0
  159.4850  209.3160  156.7350 O   0  0  0  0  0  1  0  0  0  0  0  0
  159.5430  211.8740  157.2420 O   0  0  0  0  0  1  0  0  0  0  0  0
  159.6140  210.8800  156.1050 P   0  0  0  0  0  0  0  0  0  0  0  0
  161.2060  210.5510  148.2280 C   0  0  0  0  0  2  0  0  0  0  0  0
  162.0430  211.6090  147.5180 C   0  0  1  0  0  3  0  0  0  0  0  0
  161.1750  212.6200  146.8850 N   0  0  0  0  0  0  0  0  0  0  0  0
  161.5110  212.8170  145.4880 C   0  0  0  0  0  2  0  0  0  0  0  0
  159.3930  211.8450  145.5650 O   0  0  0  0  0  0  0  0  0  0  0  0
  159.7960  212.1430  146.8790 C   0  0  0  0  0  2  0  0  0  0  0  0
  160.2270  212.6050  144.7410 C   0  0  0  0  0  2  0  0  0  0  0  0
  164.1960  212.7760  147.7000 N   0  0  0  0  0  2  0  0  0  0  0  0
  163.1730  213.6400  148.3040 C   0  0  0  0  0  2  0  0  0  0  0  0
  163.0900  212.1940  148.4760 C   0  0  1  0  0  3  0  0  0  0  0  0
  1 16  1  0  0  0  0
  2  5  1  0  0  0  0
  3  2  2  0  0  0  0
  3  4  1  0  0  0  0
  4 36  1  6  0  0  0
  4  1  1  0  0  0  0
  5  1  2  0  0  0  0
  6  8  1  0  0  0  0
  7  9  1  0  0  0  0
  7  6  2  0  0  0  0
  8 11  2  0  0  0  0
  9 10  2  0  0  0  0
 10  2  1  0  0  0  0
 10 11  1  0  0  0  0
 11 13  1  0  0  0  0
 12 14  1  0  0  0  0
 13 12  1  0  0  0  0
 13 14  1  0  0  0  0
 16 17  1  0  0  0  0
 16 15  1  1  0  0  0
 17 19  2  0  0  0  0
 18 17  1  0  0  0  0
 20 21  1  0  0  0  0
 21 18  1  0  0  0  0
 21 24  2  0  0  0  0
 22 25  2  0  0  0  0
 23 20  2  0  0  0  0
 23 22  1  0  0  0  0
 25 24  1  0  0  0  0
 25 26  1  0  0  0  0
 26 28  1  0  0  0  0
 28 31  1  0  0  0  0
 28 30  1  0  0  0  0
 28 29  1  1  0  0  0
 30 27  1  1  0  0  0
 31 30  1  0  0  0  0
 31 35  1  1  0  0  0
 32 35  2  0  0  0  0
 35 33  1  0  0  0  0
 35 34  1  0  0  0  0
 37 36  1  1  0  0  0
 38 37  1  0  0  0  0
 39 38  1  0  0  0  0
 40 41  1  0  0  0  0
 41 38  1  0  0  0  0
 42 39  1  0  0  0  0
 42 40  1  0  0  0  0
 43 44  1  0  0  0  0
 43 45  1  0  0  0  0
 44 45  1  0  0  0  0
 45 37  1  6  0  0  0
M  END
>  <MODEL>
7

>  <REMARK>
 VINA RESULT:      -5.5      3.507      8.570
  Name = 
  12 active torsions:
  status: ('A' for Active; 'I' for Inactive)
    1  A    between atoms: C_6  and  C_44
    2  A    between atoms: N_7  and  C_41
    3  A    between atoms: C_9  and  C_24
    4  A    between atoms: C_14  and  N_16
    5  A    between atoms: N_16  and  C_39
    6  A    between atoms: C_18  and  N_43
    7  A    between atoms: C_19  and  C_24
    8  A    between atoms: C_22  and  C_26
    9  A    between atoms: C_31  and  C_41
   10  A    between atoms: C_32  and  C_35
   11  A    between atoms: C_35  and  C_41
   12  A    between atoms: P_36  and  C_38
                            x       y       z     vdW  Elec       q    Type
                         _______ _______ _______ _____ _____    ______ ____

>  <TORSDO>
F 12

$$$$
=
 OpenBabel11042421363D

 45 51  0  0  1  0  0  0  0  0999 V2000
  161.2620  207.6960  152.5180 C   0  0  0  0  0  0  0  0  0  0  0  0
  160.8580  209.4270  153.7510 C   0  0  0  0  0  0  0  0  0  0  0  0
  160.6720  209.9010  152.5610 N   0  0  0  0  0  0  0  0  0  0  0  0
  160.9170  208.8270  151.6090 C   0  0  1  0  0  3  0  0  0  0  0  0
  161.2330  208.0570  153.7570 N   0  0  0  0  0  0  0  0  0  0  0  0
  160.5100  211.8270  157.2610 N   0  0  0  0  0  0  0  0  0  0  0  0
  161.6560  211.1490  157.0000 C   0  0  0  0  0  3  0  0  0  0  0  0
  159.4370  211.7490  156.4310 C   0  0  0  0  0  3  0  0  0  0  0  0
  161.7550  210.3590  155.8570 C   0  0  0  0  0  3  0  0  0  0  0  0
  160.6720  210.2510  154.9740 C   0  0  0  0  0  0  0  0  0  0  0  0
  159.4710  210.9490  155.2780 C   0  0  0  0  0  0  0  0  0  0  0  0
  157.2410  211.9290  154.8580 C   0  0  0  0  0  2  0  0  0  0  0  0
  158.2670  210.9190  154.3700 C   0  0  0  0  0  3  0  0  0  0  0  0
  158.0590  212.2330  153.6280 C   0  0  0  0  0  2  0  0  0  0  0  0
  163.0710  206.1530  151.6200 C   0  0  0  0  0  1  0  0  0  0  0  0
  161.6230  206.3090  152.0650 C   0  0  1  0  0  3  0  0  0  0  0  0
  161.1900  205.2430  153.0340 C   0  0  0  0  0  0  0  0  0  0  0  0
  160.5380  204.0250  152.6360 N   0  0  0  0  0  2  0  0  0  0  0  0
  161.3570  205.4610  154.2610 O   0  0  0  0  0  0  0  0  0  0  0  0
  159.7480  202.2800  151.0670 C   0  0  0  0  0  3  0  0  0  0  0  0
  160.5750  203.3700  151.3630 C   0  0  0  0  0  0  0  0  0  0  0  0
  160.6380  202.1900  148.8190 C   0  0  0  0  0  3  0  0  0  0  0  0
  159.7820  201.6880  149.8020 C   0  0  0  0  0  3  0  0  0  0  0  0
  161.4140  203.8810  150.3660 C   0  0  0  0  0  3  0  0  0  0  0  0
  161.4550  203.2900  149.0950 C   0  0  0  0  0  0  0  0  0  0  0  0
  162.3270  203.7850  148.0730 N   0  0  0  0  0  2  0  0  0  0  0  0
  162.7170  206.2090  145.3670 O   0  0  0  0  0  1  0  0  0  0  0  0
  161.8800  204.6250  146.9710 C   0  0  1  0  0  0  0  0  0  0  0  0
  160.9440  205.6170  147.2730 O   0  0  0  0  0  1  0  0  0  0  0  0
  162.9400  204.9500  145.9320 C   0  0  1  0  0  3  0  0  0  0  0  0
  161.8150  203.9340  145.6200 C   0  0  2  0  0  3  0  0  0  0  0  0
  159.6140  205.7440  145.2800 O   0  0  0  0  0  1  0  0  0  0  0  0
  159.4440  203.2390  144.1570 O   0  0  0  0  0  1  0  0  0  0  0  0
  161.0180  205.0790  143.1860 O   0  0  0  0  0  0  0  0  0  0  0  0
  160.4860  204.5290  144.4900 P   0  0  0  0  0  0  0  0  0  0  0  0
  162.1100  209.1700  150.7280 C   0  0  0  0  0  2  0  0  0  0  0  0
  161.6650  209.9410  149.4900 C   0  0  1  0  0  3  0  0  0  0  0  0
  162.2040  211.3140  149.5120 N   0  0  0  0  0  0  0  0  0  0  0  0
  162.8390  211.6620  148.2560 C   0  0  0  0  0  2  0  0  0  0  0  0
  160.9360  212.9930  148.4690 O   0  0  0  0  0  0  0  0  0  0  0  0
  161.1080  212.2660  149.6590 C   0  0  0  0  0  2  0  0  0  0  0  0
  162.1700  212.9320  147.8160 C   0  0  0  0  0  2  0  0  0  0  0  0
  162.7060  207.9100  148.5840 N   0  0  0  0  0  2  0  0  0  0  0  0
  161.2880  207.8860  148.2040 C   0  0  0  0  0  2  0  0  0  0  0  0
  162.0090  209.1530  148.2180 C   0  0  1  0  0  3  0  0  0  0  0  0
  1  5  2  0  0  0  0
  2  5  1  0  0  0  0
  2 10  1  0  0  0  0
  3  2  2  0  0  0  0
  4 36  1  6  0  0  0
  4  1  1  0  0  0  0
  4  3  1  0  0  0  0
  7  6  1  0  0  0  0
  8  6  2  0  0  0  0
  9  7  2  0  0  0  0
 10 11  2  0  0  0  0
 10  9  1  0  0  0  0
 11  8  1  0  0  0  0
 13 12  1  0  0  0  0
 13 11  1  0  0  0  0
 14 13  1  0  0  0  0
 14 12  1  0  0  0  0
 16 15  1  1  0  0  0
 16  1  1  0  0  0  0
 16 17  1  0  0  0  0
 17 19  2  0  0  0  0
 18 17  1  0  0  0  0
 20 21  1  0  0  0  0
 21 18  1  0  0  0  0
 22 25  2  0  0  0  0
 22 23  1  0  0  0  0
 23 20  2  0  0  0  0
 24 21  2  0  0  0  0
 25 24  1  0  0  0  0
 26 25  1  0  0  0  0
 28 29  1  1  0  0  0
 28 26  1  0  0  0  0
 30 27  1  6  0  0  0
 30 28  1  0  0  0  0
 31 35  1  6  0  0  0
 31 30  1  0  0  0  0
 31 28  1  0  0  0  0
 33 35  1  0  0  0  0
 34 35  2  0  0  0  0
 35 32  1  0  0  0  0
 37 38  1  0  0  0  0
 37 36  1  1  0  0  0
 38 41  1  0  0  0  0
 39 38  1  0  0  0  0
 40 41  1  0  0  0  0
 42 39  1  0  0  0  0
 42 40  1  0  0  0  0
 44 45  1  0  0  0  0
 44 43  1  0  0  0  0
 45 43  1  0  0  0  0
 45 37  1  1  0  0  0
M  END
>  <MODEL>
8

>  <REMARK>
 VINA RESULT:      -5.4      3.507      8.364
  Name = 
  12 active torsions:
  status: ('A' for Active; 'I' for Inactive)
    1  A    between atoms: C_6  and  C_44
    2  A    between atoms: N_7  and  C_41
    3  A    between atoms: C_9  and  C_24
    4  A    between atoms: C_14  and  N_16
    5  A    between atoms: N_16  and  C_39
    6  A    between atoms: C_18  and  N_43
    7  A    between atoms: C_19  and  C_24
    8  A    between atoms: C_22  and  C_26
    9  A    between atoms: C_31  and  C_41
   10  A    between atoms: C_32  and  C_35
   11  A    between atoms: C_35  and  C_41
   12  A    between atoms: P_36  and  C_38
                            x       y       z     vdW  Elec       q    Type
                         _______ _______ _______ _____ _____    ______ ____

>  <TORSDO>
F 12

$$$$
=
 OpenBabel11042421363D

 45 51  0  0  1  0  0  0  0  0999 V2000
  160.4470  211.4530  152.5810 C   0  0  0  0  0  0  0  0  0  0  0  0
  159.2970  212.7730  151.3110 C   0  0  0  0  0  0  0  0  0  0  0  0
  159.1860  213.3520  152.4620 N   0  0  0  0  0  0  0  0  0  0  0  0
  159.9220  212.5570  153.4360 C   0  0  1  0  0  3  0  0  0  0  0  0
  160.0730  211.5840  151.3530 N   0  0  0  0  0  0  0  0  0  0  0  0
  157.3990  214.4520  147.8790 N   0  0  0  0  0  0  0  0  0  0  0  0
  156.6760  214.1390  148.9820 C   0  0  0  0  0  3  0  0  0  0  0  0
  158.7370  214.2250  147.8220 C   0  0  0  0  0  3  0  0  0  0  0  0
  157.3030  213.5810  150.0930 C   0  0  0  0  0  3  0  0  0  0  0  0
  158.6820  213.3300  150.0770 C   0  0  0  0  0  0  0  0  0  0  0  0
  159.4190  213.6410  148.9020 C   0  0  0  0  0  0  0  0  0  0  0  0
  161.2090  212.3890  147.7460 C   0  0  0  0  0  2  0  0  0  0  0  0
  160.9100  213.4380  148.8050 C   0  0  0  0  0  3  0  0  0  0  0  0
  161.4700  213.8450  147.4480 C   0  0  0  0  0  2  0  0  0  0  0  0
  162.7170  210.7010  153.4430 C   0  0  0  0  0  1  0  0  0  0  0  0
  161.2910  210.3120  153.0760 C   0  0  1  0  0  3  0  0  0  0  0  0
  160.6130  209.5000  154.1450 C   0  0  0  0  0  0  0  0  0  0  0  0
  160.2550  208.1160  153.9850 N   0  0  0  0  0  2  0  0  0  0  0  0
  160.2900  210.0830  155.2110 O   0  0  0  0  0  0  0  0  0  0  0  0
  161.0790  205.8340  153.4920 C   0  0  0  0  0  3  0  0  0  0  0  0
  160.8180  207.1490  153.0900 C   0  0  0  0  0  0  0  0  0  0  0  0
  161.8410  205.2840  151.2630 C   0  0  0  0  0  3  0  0  0  0  0  0
  161.5930  204.9040  152.5850 C   0  0  0  0  0  3  0  0  0  0  0  0
  161.0500  207.5150  151.7600 C   0  0  0  0  0  3  0  0  0  0  0  0
  161.5690  206.5880  150.8440 C   0  0  0  0  0  0  0  0  0  0  0  0
  161.8340  206.9550  149.4860 N   0  0  0  0  0  2  0  0  0  0  0  0
  159.9270  206.2230  146.4550 O   0  0  0  0  0  1  0  0  0  0  0  0
  161.4190  206.1570  148.3400 C   0  0  1  0  0  0  0  0  0  0  0  0
  160.8150  204.9270  148.6150 O   0  0  0  0  0  1  0  0  0  0  0  0
  160.8970  206.9490  147.1530 C   0  0  1  0  0  3  0  0  0  0  0  0
  162.2980  206.2920  147.1090 C   0  0  2  0  0  3  0  0  0  0  0  0
  161.6330  205.0460  144.6100 O   0  0  0  0  0  0  0  0  0  0  0  0
  161.6920  203.4940  146.8810 O   0  0  0  0  0  1  0  0  0  0  0  0
  163.8740  204.3940  145.7730 O   0  0  0  0  0  1  0  0  0  0  0  0
  162.4420  204.7750  146.0710 P   0  0  0  0  0  0  0  0  0  0  0  0
  158.9690  211.9970  154.4830 C   0  0  0  0  0  2  0  0  0  0  0  0
  158.0650  213.0940  155.0330 C   0  0  1  0  0  3  0  0  0  0  0  0
  156.6460  212.7590  154.8100 N   0  0  0  0  0  0  0  0  0  0  0  0
  156.4920  211.4430  154.2200 C   0  0  0  0  0  2  0  0  0  0  0  0
  155.6050  211.3500  156.3750 O   0  0  0  0  0  0  0  0  0  0  0  0
  155.9560  212.6820  156.0930 C   0  0  0  0  0  2  0  0  0  0  0  0
  155.5530  210.7100  155.1340 C   0  0  0  0  0  2  0  0  0  0  0  0
  159.5080  212.5030  156.9300 N   0  0  0  0  0  2  0  0  0  0  0  0
  159.7750  213.9070  156.5940 C   0  0  0  0  0  2  0  0  0  0  0  0
  158.4150  213.3890  156.4990 C   0  0  1  0  0  3  0  0  0  0  0  0
  1 16  1  0  0  0  0
  1  4  1  0  0  0  0
  2  5  1  0  0  0  0
  2  3  2  0  0  0  0
  3  4  1  0  0  0  0
  4 36  1  1  0  0  0
  5  1  2  0  0  0  0
  6  7  1  0  0  0  0
  7  9  2  0  0  0  0
  8  6  2  0  0  0  0
  8 11  1  0  0  0  0
 10  9  1  0  0  0  0
 10  2  1  0  0  0  0
 11 10  2  0  0  0  0
 12 13  1  0  0  0  0
 13 11  1  0  0  0  0
 14 12  1  0  0  0  0
 14 13  1  0  0  0  0
 16 15  1  1  0  0  0
 16 17  1  0  0  0  0
 17 19  2  0  0  0  0
 18 17  1  0  0  0  0
 21 20  1  0  0  0  0
 21 18  1  0  0  0  0
 22 23  1  0  0  0  0
 23 20  2  0  0  0  0
 24 21  2  0  0  0  0
 25 22  2  0  0  0  0
 25 24  1  0  0  0  0
 26 25  1  0  0  0  0
 28 29  1  1  0  0  0
 28 26  1  0  0  0  0
 30 27  1  6  0  0  0
 30 28  1  0  0  0  0
 31 35  1  6  0  0  0
 31 30  1  0  0  0  0
 31 28  1  0  0  0  0
 32 35  2  0  0  0  0
 34 35  1  0  0  0  0
 35 33  1  0  0  0  0
 37 36  1  1  0  0  0
 38 37  1  0  0  0  0
 38 41  1  0  0  0  0
 39 38  1  0  0  0  0
 39 42  1  0  0  0  0
 41 40  1  0  0  0  0
 42 40  1  0  0  0  0
 44 43  1  0  0  0  0
 45 37  1  6  0  0  0
 45 44  1  0  0  0  0
 45 43  1  0  0  0  0
M  END
>  <MODEL>
9

>  <REMARK>
 VINA RESULT:      -5.2      3.925      7.416
  Name = 
  12 active torsions:
  status: ('A' for Active; 'I' for Inactive)
    1  A    between atoms: C_6  and  C_44
    2  A    between atoms: N_7  and  C_41
    3  A    between atoms: C_9  and  C_24
    4  A    between atoms: C_14  and  N_16
    5  A    between atoms: N_16  and  C_39
    6  A    between atoms: C_18  and  N_43
    7  A    between atoms: C_19  and  C_24
    8  A    between atoms: C_22  and  C_26
    9  A    between atoms: C_31  and  C_41
   10  A    between atoms: C_32  and  C_35
   11  A    between atoms: C_35  and  C_41
   12  A    between atoms: P_36  and  C_38
                            x       y       z     vdW  Elec       q    Type
                         _______ _______ _______ _____ _____    ______ ____

>  <TORSDO>
F 12

$$$$
