=
 OpenBabel11042421313D

 27 31  0  0  1  0  0  0  0  0999 V2000
  161.0490  208.1600  150.7830 N   0  0  0  0  0  0  0  0  0  0  0  0
  160.7120  209.0170  153.1790 C   0  0  1  0  0  3  0  0  0  0  0  0
  161.7500  205.6780  152.0400 C   0  0  2  0  0  3  0  0  0  0  0  0
  161.0300  204.0820  152.5640 S   0  0  0  0  0  0  0  0  0  0  0  0
  160.9190  207.9800  152.2000 C   0  0  0  0  0  0  0  0  0  0  0  0
  161.4430  209.2850  155.3340 N   0  0  0  0  0  0  0  0  0  0  0  0
  161.0690  204.6300  149.9840 C   0  0  0  0  0  2  0  0  0  0  0  0
  161.8520  210.2740  154.6060 C   0  0  0  0  0  3  0  0  0  0  0  0
  160.8570  203.6450  150.8320 C   0  0  0  0  0  0  0  0  0  0  0  0
  161.3120  207.1420  150.0160 C   0  0  0  0  0  0  0  0  0  0  0  0
  160.6290  208.3970  154.5200 C   0  0  2  0  0  3  0  0  0  0  0  0
  161.1960  206.8380  152.8120 C   0  0  0  0  0  0  0  0  0  0  0  0
  161.4490  210.1150  153.2130 C   0  0  0  0  0  2  0  0  0  0  0  0
  161.4710  205.8360  150.6120 N   0  0  0  0  0  0  0  0  0  0  0  0
  161.2600  207.0120  154.3030 C   0  0  0  0  0  2  0  0  0  0  0  0
  162.7300  206.9730  147.9770 C   0  0  0  0  0  2  0  0  0  0  0  0
  161.3730  207.3470  148.5340 C   0  0  1  0  0  3  0  0  0  0  0  0
  160.3540  206.5530  147.8570 N   0  0  0  0  0  2  0  0  0  0  0  0
  162.4170  206.4040  146.6240 C   0  0  0  0  0  2  0  0  0  0  0  0
  161.0210  205.8380  146.7750 C   0  0  2  0  0  3  0  0  0  0  0  0
  160.2370  206.0030  145.4860 C   0  0  0  0  0  2  0  0  0  0  0  0
  160.8260  205.1900  144.4370 N   0  0  0  0  0  2  0  0  0  0  0  0
  160.7580  203.8120  144.8890 C   0  0  0  0  0  1  0  0  0  0  0  0
  160.4840  202.3430  150.3900 N   0  0  0  0  0  0  0  0  0  0  0  0
  160.3500  202.0550  149.0260 N   0  0  0  0  0  2  0  0  0  0  0  0
  161.2050  200.9140  148.7540 C   0  0  0  0  0  2  0  0  0  0  0  0
  161.2250  200.6420  147.2650 C   0  0  0  0  0  1  0  0  0  0  0  0
  1  5  1  0  0  0  0
  2 13  1  1  0  0  0
  2 11  1  0  0  0  0
  3  4  1  1  0  0  0
  3 12  1  0  0  0  0
  5 12  2  0  0  0  0
  5  2  1  0  0  0  0
  7 14  1  0  0  0  0
  7  9  1  0  0  0  0
  8  6  2  0  0  0  0
  9  4  1  0  0  0  0
 10 14  1  0  0  0  0
 10  1  2  0  0  0  0
 11 15  1  6  0  0  0
 11  6  1  0  0  0  0
 12 15  1  0  0  0  0
 13  8  1  0  0  0  0
 14  3  1  0  0  0  0
 16 17  1  0  0  0  0
 17 10  1  1  0  0  0
 18 17  1  0  0  0  0
 19 20  1  0  0  0  0
 19 16  1  0  0  0  0
 20 21  1  6  0  0  0
 20 18  1  0  0  0  0
 22 23  1  0  0  0  0
 22 21  1  0  0  0  0
 24  9  2  0  0  0  0
 25 24  1  0  0  0  0
 26 25  1  0  0  0  0
 27 26  1  0  0  0  0
M  END
>  <MODEL>
1

>  <REMARK>
 VINA RESULT:      -8.1      0.000      0.000
  Name = 
  6 active torsions:
  status: ('A' for Active; 'I' for Inactive)
    1  A    between atoms: N_3  and  C_6
    2  A    between atoms: C_5  and  N_18
    3  A    between atoms: C_6  and  C_19
    4  A    between atoms: C_7  and  C_20
    5  A    between atoms: N_11  and  C_15
    6  A    between atoms: N_11  and  N_18
                            x       y       z     vdW  Elec       q    Type
                         _______ _______ _______ _____ _____    ______ ____

>  <TORSDO>
F 6

$$$$
=
 OpenBabel11042421313D

 27 31  0  0  1  0  0  0  0  0999 V2000
  160.9900  206.8020  152.3620 N   0  0  0  0  0  0  0  0  0  0  0  0
  160.4300  204.5410  151.2830 C   0  0  1  0  0  3  0  0  0  0  0  0
  162.3360  207.3600  149.8910 C   0  0  2  0  0  3  0  0  0  0  0  0
  162.0760  208.1450  148.2610 S   0  0  0  0  0  0  0  0  0  0  0  0
  160.9120  205.8990  151.2500 C   0  0  0  0  0  0  0  0  0  0  0  0
  161.0580  202.6440  150.1620 N   0  0  0  0  0  0  0  0  0  0  0  0
  161.9680  209.6830  150.4010 C   0  0  0  0  0  2  0  0  0  0  0  0
  161.1850  202.4620  151.4380 C   0  0  0  0  0  3  0  0  0  0  0  0
  162.0300  209.7370  149.0870 C   0  0  2  0  0  3  0  0  0  0  0  0
  161.5210  207.9810  152.2100 C   0  0  0  0  0  0  0  0  0  0  0  0
  160.5170  203.9720  149.9210 C   0  0  2  0  0  3  0  0  0  0  0  0
  161.4870  206.1390  150.0820 C   0  0  0  0  0  0  0  0  0  0  0  0
  160.8420  203.6660  152.1860 C   0  0  0  0  0  2  0  0  0  0  0  0
  162.0270  208.3620  150.9130 N   0  0  0  0  0  0  0  0  0  0  0  0
  161.5000  204.9160  149.2100 C   0  0  0  0  0  2  0  0  0  0  0  0
  160.3990  209.9330  153.2710 C   0  0  0  0  0  2  0  0  0  0  0  0
  161.5260  208.9290  153.3700 C   0  0  1  0  0  3  0  0  0  0  0  0
  161.4010  208.2070  154.6310 N   0  0  0  0  0  2  0  0  0  0  0  0
  159.9950  210.1610  154.6980 C   0  0  0  0  0  2  0  0  0  0  0  0
  160.3420  208.8620  155.3920 C   0  0  2  0  0  3  0  0  0  0  0  0
  160.8130  209.1240  156.8110 C   0  0  0  0  0  2  0  0  0  0  0  0
  162.2490  208.9260  156.9030 N   0  0  0  0  0  2  0  0  0  0  0  0
  162.8270  210.2140  157.2360 C   0  0  0  0  0  1  0  0  0  0  0  0
  162.0250  210.9790  148.3870 N   0  0  0  0  0  2  0  0  0  0  0  0
  161.6270  212.1630  149.0210 N   0  0  0  0  0  2  0  0  0  0  0  0
  161.7090  213.2160  148.0260 C   0  0  0  0  0  2  0  0  0  0  0  0
  162.8430  212.9180  147.0690 C   0  0  0  0  0  1  0  0  0  0  0  0
  2 13  1  1  0  0  0
  3  4  1  6  0  0  0
  3 12  1  0  0  0  0
  3 14  1  0  0  0  0
  4  9  1  0  0  0  0
  5  2  1  0  0  0  0
  5  1  1  0  0  0  0
  6  8  2  0  0  0  0
  7 14  1  0  0  0  0
  8 13  1  0  0  0  0
  9 24  1  6  0  0  0
  9  7  1  0  0  0  0
 10  1  2  0  0  0  0
 11 15  1  6  0  0  0
 11  6  1  0  0  0  0
 11  2  1  0  0  0  0
 12  5  2  0  0  0  0
 14 10  1  0  0  0  0
 15 12  1  0  0  0  0
 16 17  1  0  0  0  0
 16 19  1  0  0  0  0
 17 10  1  6  0  0  0
 17 18  1  0  0  0  0
 18 20  1  0  0  0  0
 19 20  1  0  0  0  0
 20 21  1  1  0  0  0
 21 22  1  0  0  0  0
 22 23  1  0  0  0  0
 24 25  1  0  0  0  0
 26 25  1  0  0  0  0
 27 26  1  0  0  0  0
M  END
>  <MODEL>
2

>  <REMARK>
 VINA RESULT:      -7.6      2.765      7.951
  Name = 
  6 active torsions:
  status: ('A' for Active; 'I' for Inactive)
    1  A    between atoms: N_3  and  C_6
    2  A    between atoms: C_5  and  N_18
    3  A    between atoms: C_6  and  C_19
    4  A    between atoms: C_7  and  C_20
    5  A    between atoms: N_11  and  C_15
    6  A    between atoms: N_11  and  N_18
                            x       y       z     vdW  Elec       q    Type
                         _______ _______ _______ _____ _____    ______ ____

>  <TORSDO>
F 6

$$$$
=
 OpenBabel11042421313D

 27 31  0  0  1  0  0  0  0  0999 V2000
  161.6520  206.4810  153.4170 N   0  0  0  0  0  0  0  0  0  0  0  0
  161.3850  207.8030  155.6010 C   0  0  1  0  0  3  0  0  0  0  0  0
  160.6970  208.8720  152.1510 C   0  0  2  0  0  3  0  0  0  0  0  0
  161.2880  210.4060  151.3530 S   0  0  0  0  0  0  0  0  0  0  0  0
  161.4350  207.6850  154.1660 C   0  0  0  0  0  0  0  0  0  0  0  0
  160.1480  209.1230  157.0070 N   0  0  0  0  0  0  0  0  0  0  0  0
  161.8720  208.1110  150.1930 C   0  0  0  0  0  2  0  0  0  0  0  0
  159.9160  207.8750  157.2610 C   0  0  0  0  0  3  0  0  0  0  0  0
  161.8830  209.4110  149.9840 C   0  0  2  0  0  3  0  0  0  0  0  0
  161.5970  206.5010  152.1170 C   0  0  0  0  0  0  0  0  0  0  0  0
  161.1470  209.2200  155.9550 C   0  0  2  0  0  3  0  0  0  0  0  0
  161.0320  208.8190  153.6110 C   0  0  0  0  0  0  0  0  0  0  0  0
  160.6480  207.0000  156.3510 C   0  0  0  0  0  2  0  0  0  0  0  0
  161.3140  207.7470  151.4450 N   0  0  0  0  0  0  0  0  0  0  0  0
  160.6050  209.8190  154.6470 C   0  0  0  0  0  2  0  0  0  0  0  0
  161.3460  204.0250  152.0670 C   0  0  0  0  0  2  0  0  0  0  0  0
  161.8960  205.2440  151.3590 C   0  0  1  0  0  3  0  0  0  0  0  0
  161.3320  205.3010  150.0150 N   0  0  0  0  0  2  0  0  0  0  0  0
  160.9350  203.1150  150.9460 C   0  0  0  0  0  2  0  0  0  0  0  0
  160.5970  204.0570  149.8100 C   0  0  2  0  0  3  0  0  0  0  0  0
  160.9810  203.4450  148.4760 C   0  0  0  0  0  2  0  0  0  0  0  0
  161.6920  204.4190  147.6670 N   0  0  0  0  0  2  0  0  0  0  0  0
  161.6850  203.9160  146.3060 C   0  0  0  0  0  1  0  0  0  0  0  0
  162.3690  209.9700  148.7660 N   0  0  0  0  0  2  0  0  0  0  0  0
  161.8260  211.1530  148.2480 N   0  0  0  0  0  2  0  0  0  0  0  0
  162.9130  212.1110  148.1710 C   0  0  0  0  0  2  0  0  0  0  0  0
  162.3560  213.4790  147.8420 C   0  0  0  0  0  1  0  0  0  0  0  0
  1  5  1  0  0  0  0
  2 11  1  0  0  0  0
  2 13  1  6  0  0  0
  3  4  1  6  0  0  0
  3 12  1  0  0  0  0
  5  2  1  0  0  0  0
  6  8  2  0  0  0  0
  7 14  1  0  0  0  0
  9 24  1  1  0  0  0
  9  7  1  0  0  0  0
  9  4  1  0  0  0  0
 10  1  2  0  0  0  0
 11 15  1  6  0  0  0
 11  6  1  0  0  0  0
 12  5  2  0  0  0  0
 12 15  1  0  0  0  0
 13  8  1  0  0  0  0
 14 10  1  0  0  0  0
 14  3  1  0  0  0  0
 17 16  1  0  0  0  0
 17 10  1  1  0  0  0
 18 17  1  0  0  0  0
 19 16  1  0  0  0  0
 20 21  1  6  0  0  0
 20 18  1  0  0  0  0
 20 19  1  0  0  0  0
 22 21  1  0  0  0  0
 23 22  1  0  0  0  0
 25 24  1  0  0  0  0
 26 25  1  0  0  0  0
 27 26  1  0  0  0  0
M  END
>  <MODEL>
3

>  <REMARK>
 VINA RESULT:      -7.1      2.655      5.293
  Name = 
  6 active torsions:
  status: ('A' for Active; 'I' for Inactive)
    1  A    between atoms: N_3  and  C_6
    2  A    between atoms: C_5  and  N_18
    3  A    between atoms: C_6  and  C_19
    4  A    between atoms: C_7  and  C_20
    5  A    between atoms: N_11  and  C_15
    6  A    between atoms: N_11  and  N_18
                            x       y       z     vdW  Elec       q    Type
                         _______ _______ _______ _____ _____    ______ ____

>  <TORSDO>
F 6

$$$$
=
 OpenBabel11042421313D

 27 31  0  0  1  0  0  0  0  0999 V2000
  161.3760  204.8520  151.8950 N   0  0  0  0  0  0  0  0  0  0  0  0
  161.5330  206.8740  153.4700 C   0  0  1  0  0  3  0  0  0  0  0  0
  160.7470  206.7940  149.8790 C   0  0  2  0  0  3  0  0  0  0  0  0
  161.5260  207.8130  148.5770 S   0  0  0  0  0  0  0  0  0  0  0  0
  161.4380  206.2590  152.1700 C   0  0  0  0  0  0  0  0  0  0  0  0
  160.6700  208.8120  154.3370 N   0  0  0  0  0  0  0  0  0  0  0  0
  161.5980  205.1910  148.2980 C   0  0  0  0  0  2  0  0  0  0  0  0
  160.2460  207.7980  155.0220 C   0  0  0  0  0  3  0  0  0  0  0  0
  161.8180  206.3100  147.6410 C   0  0  0  0  0  0  0  0  0  0  0  0
  161.2130  204.4320  150.6740 C   0  0  0  0  0  0  0  0  0  0  0  0
  161.5760  208.3430  153.3010 C   0  0  2  0  0  3  0  0  0  0  0  0
  161.1920  207.1860  151.2560 C   0  0  0  0  0  0  0  0  0  0  0  0
  160.7340  206.5380  154.4700 C   0  0  0  0  0  2  0  0  0  0  0  0
  161.0960  205.3980  149.6080 N   0  0  0  0  0  0  0  0  0  0  0  0
  161.0360  208.5460  151.8760 C   0  0  0  0  0  2  0  0  0  0  0  0
  159.8440  202.3560  150.5700 C   0  0  0  0  0  2  0  0  0  0  0  0
  161.2230  202.9580  150.4080 C   0  0  1  0  0  3  0  0  0  0  0  0
  161.7030  202.6760  149.0600 N   0  0  0  0  0  2  0  0  0  0  0  0
  159.8010  201.2750  149.5300 C   0  0  0  0  0  2  0  0  0  0  0  0
  160.7420  201.7640  148.4490 C   0  0  2  0  0  3  0  0  0  0  0  0
  161.4720  200.5980  147.8090 C   0  0  0  0  0  2  0  0  0  0  0  0
  160.9910  200.3930  146.4540 N   0  0  0  0  0  2  0  0  0  0  0  0
  160.7000  201.7070  145.9110 C   0  0  0  0  0  1  0  0  0  0  0  0
  162.2870  206.3080  146.2950 N   0  0  0  0  0  0  0  0  0  0  0  0
  162.4640  205.1090  145.5930 N   0  0  0  0  0  2  0  0  0  0  0  0
  161.5250  205.1310  144.4870 C   0  0  0  0  0  2  0  0  0  0  0  0
  160.2880  205.9040  144.8920 C   0  0  0  0  0  1  0  0  0  0  0  0
  1  5  1  0  0  0  0
  2 13  1  1  0  0  0
  3  4  1  6  0  0  0
  3 12  1  0  0  0  0
  5  2  1  0  0  0  0
  6  8  2  0  0  0  0
  7 14  1  0  0  0  0
  9  7  1  0  0  0  0
  9  4  1  0  0  0  0
 10  1  2  0  0  0  0
 11 15  1  6  0  0  0
 11  2  1  0  0  0  0
 11  6  1  0  0  0  0
 12 15  1  0  0  0  0
 12  5  2  0  0  0  0
 13  8  1  0  0  0  0
 14  3  1  0  0  0  0
 14 10  1  0  0  0  0
 17 16  1  0  0  0  0
 17 10  1  6  0  0  0
 18 17  1  0  0  0  0
 19 16  1  0  0  0  0
 20 21  1  1  0  0  0
 20 18  1  0  0  0  0
 20 19  1  0  0  0  0
 22 21  1  0  0  0  0
 23 22  1  0  0  0  0
 24  9  2  0  0  0  0
 25 24  1  0  0  0  0
 26 27  1  0  0  0  0
 26 25  1  0  0  0  0
M  END
>  <MODEL>
4

>  <REMARK>
 VINA RESULT:      -7.0      1.751      4.156
  Name = 
  6 active torsions:
  status: ('A' for Active; 'I' for Inactive)
    1  A    between atoms: N_3  and  C_6
    2  A    between atoms: C_5  and  N_18
    3  A    between atoms: C_6  and  C_19
    4  A    between atoms: C_7  and  C_20
    5  A    between atoms: N_11  and  C_15
    6  A    between atoms: N_11  and  N_18
                            x       y       z     vdW  Elec       q    Type
                         _______ _______ _______ _____ _____    ______ ____

>  <TORSDO>
F 6

$$$$
=
 OpenBabel11042421313D

 27 31  0  0  1  0  0  0  0  0999 V2000
  161.6370  207.1970  148.1080 N   0  0  0  0  0  0  0  0  0  0  0  0
  162.0820  205.1590  146.6120 C   0  0  1  0  0  3  0  0  0  0  0  0
  160.6280  205.2770  149.9870 C   0  0  2  0  0  3  0  0  0  0  0  0
  161.1390  204.2710  151.4240 S   0  0  0  0  0  0  0  0  0  0  0  0
  161.7440  205.7870  147.8640 C   0  0  0  0  0  0  0  0  0  0  0  0
  161.3940  203.2130  145.6160 N   0  0  0  0  0  0  0  0  0  0  0  0
  161.1670  206.8950  151.6850 C   0  0  0  0  0  2  0  0  0  0  0  0
  161.1120  204.2210  144.8530 C   0  0  0  0  0  3  0  0  0  0  0  0
  161.2540  205.7830  152.3830 C   0  0  0  0  0  0  0  0  0  0  0  0
  161.2460  207.6300  149.2710 C   0  0  0  0  0  0  0  0  0  0  0  0
  162.0870  203.6910  146.8010 C   0  0  2  0  0  3  0  0  0  0  0  0
  161.3250  204.8700  148.7240 C   0  0  0  0  0  0  0  0  0  0  0  0
  161.4900  205.4850  145.4750 C   0  0  0  0  0  2  0  0  0  0  0  0
  160.9230  206.6750  150.3050 N   0  0  0  0  0  0  0  0  0  0  0  0
  161.2850  203.5040  148.1000 C   0  0  0  0  0  2  0  0  0  0  0  0
  162.1200  209.5000  150.6620 C   0  0  0  0  0  2  0  0  0  0  0  0
  161.2100  209.1070  149.5200 C   0  0  1  0  0  3  0  0  0  0  0  0
  161.6090  209.8440  148.3270 N   0  0  0  0  0  2  0  0  0  0  0  0
  162.6430  210.8470  150.2570 C   0  0  0  0  0  2  0  0  0  0  0  0
  162.6170  210.8130  148.7440 C   0  0  2  0  0  3  0  0  0  0  0  0
  162.2780  212.1830  148.1850 C   0  0  0  0  0  2  0  0  0  0  0  0
  161.0120  212.1320  147.4760 N   0  0  0  0  0  2  0  0  0  0  0  0
  161.1780  212.9200  146.2690 C   0  0  0  0  0  1  0  0  0  0  0  0
  161.4580  205.7980  153.7940 N   0  0  0  0  0  0  0  0  0  0  0  0
  161.3680  206.9900  154.5240 N   0  0  0  0  0  2  0  0  0  0  0  0
  160.1160  206.9390  155.2540 C   0  0  0  0  0  2  0  0  0  0  0  0
  160.3640  207.2940  156.7050 C   0  0  0  0  0  1  0  0  0  0  0  0
  1 10  2  0  0  0  0
  2 13  1  6  0  0  0
  2 11  1  0  0  0  0
  2  5  1  0  0  0  0
  3 12  1  6  0  0  0
  3 14  1  0  0  0  0
  3  4  1  0  0  0  0
  4  9  1  0  0  0  0
  5  1  1  0  0  0  0
  5 12  2  0  0  0  0
  6 11  1  0  0  0  0
  7  9  1  0  0  0  0
  8 13  1  0  0  0  0
  8  6  2  0  0  0  0
  9 24  2  0  0  0  0
 10 14  1  0  0  0  0
 11 15  1  1  0  0  0
 14  7  1  0  0  0  0
 15 12  1  0  0  0  0
 17 10  1  6  0  0  0
 17 16  1  0  0  0  0
 18 20  1  0  0  0  0
 18 17  1  0  0  0  0
 19 16  1  0  0  0  0
 20 21  1  6  0  0  0
 20 19  1  0  0  0  0
 22 21  1  0  0  0  0
 23 22  1  0  0  0  0
 24 25  1  0  0  0  0
 25 26  1  0  0  0  0
 26 27  1  0  0  0  0
M  END
>  <MODEL>
5

>  <REMARK>
 VINA RESULT:      -6.6      2.624      6.660
  Name = 
  6 active torsions:
  status: ('A' for Active; 'I' for Inactive)
    1  A    between atoms: N_3  and  C_6
    2  A    between atoms: C_5  and  N_18
    3  A    between atoms: C_6  and  C_19
    4  A    between atoms: C_7  and  C_20
    5  A    between atoms: N_11  and  C_15
    6  A    between atoms: N_11  and  N_18
                            x       y       z     vdW  Elec       q    Type
                         _______ _______ _______ _____ _____    ______ ____

>  <TORSDO>
F 6

$$$$
=
 OpenBabel11042421313D

 27 31  0  0  1  0  0  0  0  0999 V2000
  161.3620  209.0650  152.5460 N   0  0  0  0  0  0  0  0  0  0  0  0
  160.2830  209.2160  154.8700 C   0  0  1  0  0  3  0  0  0  0  0  0
  161.6620  206.2760  153.1460 C   0  0  2  0  0  3  0  0  0  0  0  0
  160.8320  204.6630  152.9220 S   0  0  0  0  0  0  0  0  0  0  0  0
  160.7980  208.4940  153.7350 C   0  0  0  0  0  0  0  0  0  0  0  0
  160.3000  208.7850  157.1210 N   0  0  0  0  0  0  0  0  0  0  0  0
  161.6700  205.9290  150.7650 C   0  0  0  0  0  2  0  0  0  0  0  0
  160.9060  209.9050  156.8840 C   0  0  0  0  0  3  0  0  0  0  0  0
  161.2140  204.7630  151.1710 C   0  0  0  0  0  0  0  0  0  0  0  0
  161.8630  208.2940  151.6250 C   0  0  0  0  0  0  0  0  0  0  0  0
  159.7920  208.2430  155.8710 C   0  0  2  0  0  3  0  0  0  0  0  0
  160.8820  207.2040  154.0270 C   0  0  0  0  0  0  0  0  0  0  0  0
  160.9610  210.1910  155.4540 C   0  0  0  0  0  2  0  0  0  0  0  0
  161.8420  206.8640  151.8180 N   0  0  0  0  0  0  0  0  0  0  0  0
  160.4750  206.9330  155.4480 C   0  0  0  0  0  2  0  0  0  0  0  0
  161.5910  208.4620  149.1560 C   0  0  0  0  0  2  0  0  0  0  0  0
  162.3820  208.9140  150.3640 C   0  0  1  0  0  3  0  0  0  0  0  0
  162.3300  210.3700  150.4410 N   0  0  0  0  0  2  0  0  0  0  0  0
  161.5820  209.6680  148.2620 C   0  0  0  0  0  2  0  0  0  0  0  0
  161.6870  210.8370  149.2180 C   0  0  2  0  0  3  0  0  0  0  0  0
  162.5030  211.9580  148.6020 C   0  0  0  0  0  2  0  0  0  0  0  0
  161.7370  213.1920  148.6070 N   0  0  0  0  0  2  0  0  0  0  0  0
  161.0410  213.2560  147.3350 C   0  0  0  0  0  1  0  0  0  0  0  0
  161.0130  203.6800  150.2660 N   0  0  0  0  0  0  0  0  0  0  0  0
  161.0550  203.8810  148.8800 N   0  0  0  0  0  2  0  0  0  0  0  0
  161.1800  202.5690  148.2730 C   0  0  0  0  0  2  0  0  0  0  0  0
  160.5990  201.5260  149.2030 C   0  0  0  0  0  1  0  0  0  0  0  0
  1  5  1  0  0  0  0
  2 13  1  1  0  0  0
  2 11  1  0  0  0  0
  3  4  1  6  0  0  0
  3 12  1  0  0  0  0
  5 12  2  0  0  0  0
  5  2  1  0  0  0  0
  7  9  1  0  0  0  0
  7 14  1  0  0  0  0
  8  6  2  0  0  0  0
  9  4  1  0  0  0  0
 10 14  1  0  0  0  0
 10  1  2  0  0  0  0
 11 15  1  6  0  0  0
 11  6  1  0  0  0  0
 12 15  1  0  0  0  0
 13  8  1  0  0  0  0
 14  3  1  0  0  0  0
 16 17  1  0  0  0  0
 17 18  1  0  0  0  0
 17 10  1  1  0  0  0
 19 16  1  0  0  0  0
 19 20  1  0  0  0  0
 20 21  1  6  0  0  0
 20 18  1  0  0  0  0
 21 22  1  0  0  0  0
 23 22  1  0  0  0  0
 24  9  2  0  0  0  0
 25 24  1  0  0  0  0
 26 25  1  0  0  0  0
 26 27  1  0  0  0  0
M  END
>  <MODEL>
6

>  <REMARK>
 VINA RESULT:      -6.4      2.445      3.698
  Name = 
  6 active torsions:
  status: ('A' for Active; 'I' for Inactive)
    1  A    between atoms: N_3  and  C_6
    2  A    between atoms: C_5  and  N_18
    3  A    between atoms: C_6  and  C_19
    4  A    between atoms: C_7  and  C_20
    5  A    between atoms: N_11  and  C_15
    6  A    between atoms: N_11  and  N_18
                            x       y       z     vdW  Elec       q    Type
                         _______ _______ _______ _____ _____    ______ ____

>  <TORSDO>
F 6

$$$$
=
 OpenBabel11042421313D

 27 31  0  0  1  0  0  0  0  0999 V2000
  161.4520  205.5570  152.9930 N   0  0  0  0  0  0  0  0  0  0  0  0
  161.3310  207.5060  154.6590 C   0  0  1  0  0  3  0  0  0  0  0  0
  160.7710  207.5310  151.0250 C   0  0  2  0  0  3  0  0  0  0  0  0
  161.5310  208.6750  149.8190 S   0  0  0  0  0  0  0  0  0  0  0  0
  161.3700  206.9490  153.3310 C   0  0  0  0  0  0  0  0  0  0  0  0
  160.2470  209.3180  155.5510 N   0  0  0  0  0  0  0  0  0  0  0  0
  161.8560  206.0860  149.4350 C   0  0  0  0  0  2  0  0  0  0  0  0
  159.8770  208.2390  156.1640 C   0  0  0  0  0  3  0  0  0  0  0  0
  162.0120  207.2500  148.8410 C   0  0  2  0  0  3  0  0  0  0  0  0
  161.4000  205.1830  151.7480 C   0  0  0  0  0  0  0  0  0  0  0  0
  161.2520  208.9800  154.5550 C   0  0  2  0  0  3  0  0  0  0  0  0
  161.0960  207.8930  152.4430 C   0  0  0  0  0  0  0  0  0  0  0  0
  160.5080  207.0550  155.5910 C   0  0  0  0  0  2  0  0  0  0  0  0
  161.2600  206.1850  150.7180 N   0  0  0  0  0  0  0  0  0  0  0  0
  160.7820  209.2030  153.1080 C   0  0  0  0  0  2  0  0  0  0  0  0
  160.6380  202.8690  152.2570 C   0  0  0  0  0  2  0  0  0  0  0  0
  161.5590  203.7300  151.4200 C   0  0  1  0  0  3  0  0  0  0  0  0
  161.2800  203.4810  150.0100 N   0  0  0  0  0  2  0  0  0  0  0  0
  160.2570  201.7490  151.3330 C   0  0  0  0  0  2  0  0  0  0  0  0
  160.3470  202.3620  149.9520 C   0  0  2  0  0  3  0  0  0  0  0  0
  160.8320  201.3370  148.9430 C   0  0  0  0  0  2  0  0  0  0  0  0
  161.2290  201.9990  147.7130 N   0  0  0  0  0  2  0  0  0  0  0  0
  160.7050  201.1990  146.6220 C   0  0  0  0  0  1  0  0  0  0  0  0
  162.5590  207.3530  147.5280 N   0  0  0  0  0  2  0  0  0  0  0  0
  162.2950  206.3790  146.5570 N   0  0  0  0  0  2  0  0  0  0  0  0
  160.8700  206.4310  146.2920 C   0  0  0  0  0  2  0  0  0  0  0  0
  160.5780  205.7510  144.9710 C   0  0  0  0  0  1  0  0  0  0  0  0
  1  5  1  0  0  0  0
  2 13  1  6  0  0  0
  3  4  1  6  0  0  0
  3 12  1  0  0  0  0
  5  2  1  0  0  0  0
  6  8  2  0  0  0  0
  7 14  1  0  0  0  0
  9 24  1  1  0  0  0
  9  7  1  0  0  0  0
  9  4  1  0  0  0  0
 10  1  2  0  0  0  0
 11 15  1  6  0  0  0
 11  2  1  0  0  0  0
 11  6  1  0  0  0  0
 12 15  1  0  0  0  0
 12  5  2  0  0  0  0
 13  8  1  0  0  0  0
 14  3  1  0  0  0  0
 14 10  1  0  0  0  0
 17 10  1  1  0  0  0
 17 16  1  0  0  0  0
 18 17  1  0  0  0  0
 19 16  1  0  0  0  0
 20 21  1  6  0  0  0
 20 18  1  0  0  0  0
 20 19  1  0  0  0  0
 22 21  1  0  0  0  0
 23 22  1  0  0  0  0
 25 24  1  0  0  0  0
 26 25  1  0  0  0  0
 27 26  1  0  0  0  0
M  END
>  <MODEL>
7

>  <REMARK>
 VINA RESULT:      -6.3      1.678      4.149
  Name = 
  6 active torsions:
  status: ('A' for Active; 'I' for Inactive)
    1  A    between atoms: N_3  and  C_6
    2  A    between atoms: C_5  and  N_18
    3  A    between atoms: C_6  and  C_19
    4  A    between atoms: C_7  and  C_20
    5  A    between atoms: N_11  and  C_15
    6  A    between atoms: N_11  and  N_18
                            x       y       z     vdW  Elec       q    Type
                         _______ _______ _______ _____ _____    ______ ____

>  <TORSDO>
F 6

$$$$
=
 OpenBabel11042421313D

 27 31  0  0  1  0  0  0  0  0999 V2000
  160.7580  206.6780  152.2650 N   0  0  0  0  0  0  0  0  0  0  0  0
  160.3950  204.4120  151.1140 C   0  0  1  0  0  3  0  0  0  0  0  0
  162.3250  207.3160  149.9480 C   0  0  2  0  0  3  0  0  0  0  0  0
  162.2010  208.1120  148.3080 S   0  0  0  0  0  0  0  0  0  0  0  0
  160.8270  205.7860  151.1430 C   0  0  0  0  0  0  0  0  0  0  0  0
  161.2040  202.5540  150.0450 N   0  0  0  0  0  0  0  0  0  0  0  0
  161.8210  209.6180  150.4400 C   0  0  0  0  0  2  0  0  0  0  0  0
  161.2070  202.3600  151.3250 C   0  0  0  0  0  3  0  0  0  0  0  0
  162.0130  209.6910  149.1390 C   0  0  0  0  0  0  0  0  0  0  0  0
  161.2570  207.8770  152.1780 C   0  0  0  0  0  0  0  0  0  0  0  0
  160.6400  203.8640  149.7620 C   0  0  2  0  0  3  0  0  0  0  0  0
  161.5070  206.0630  150.0410 C   0  0  0  0  0  0  0  0  0  0  0  0
  160.7460  203.5410  152.0460 C   0  0  0  0  0  2  0  0  0  0  0  0
  161.8760  208.2930  150.9430 N   0  0  0  0  0  0  0  0  0  0  0  0
  161.6540  204.8520  149.1640 C   0  0  0  0  0  2  0  0  0  0  0  0
  162.2020  209.8550  153.3570 C   0  0  0  0  0  2  0  0  0  0  0  0
  161.1090  208.8090  153.3410 C   0  0  1  0  0  3  0  0  0  0  0  0
  159.8150  209.4830  153.3060 N   0  0  0  0  0  2  0  0  0  0  0  0
  161.5210  211.0780  153.8980 C   0  0  0  0  0  2  0  0  0  0  0  0
  160.0740  210.9080  153.4850 C   0  0  2  0  0  3  0  0  0  0  0  0
  159.1460  211.4710  154.5460 C   0  0  0  0  0  2  0  0  0  0  0  0
  157.7790  211.4830  154.0560 N   0  0  0  0  0  2  0  0  0  0  0  0
  156.9210  211.2870  155.2090 C   0  0  0  0  0  1  0  0  0  0  0  0
  162.0320  210.9410  148.4540 N   0  0  0  0  0  0  0  0  0  0  0  0
  161.7190  212.1330  149.1190 N   0  0  0  0  0  2  0  0  0  0  0  0
  161.3760  213.1030  148.0960 C   0  0  0  0  0  2  0  0  0  0  0  0
  162.4630  214.1530  148.0120 C   0  0  0  0  0  1  0  0  0  0  0  0
  2  5  1  0  0  0  0
  2 13  1  1  0  0  0
  3  4  1  6  0  0  0
  3 12  1  0  0  0  0
  3 14  1  0  0  0  0
  4  9  1  0  0  0  0
  5  1  1  0  0  0  0
  6  8  2  0  0  0  0
  7 14  1  0  0  0  0
  8 13  1  0  0  0  0
  9  7  1  0  0  0  0
 10  1  2  0  0  0  0
 11 15  1  1  0  0  0
 11  6  1  0  0  0  0
 11  2  1  0  0  0  0
 12  5  2  0  0  0  0
 14 10  1  0  0  0  0
 15 12  1  0  0  0  0
 16 19  1  0  0  0  0
 17 10  1  6  0  0  0
 17 16  1  0  0  0  0
 18 17  1  0  0  0  0
 18 20  1  0  0  0  0
 20 19  1  0  0  0  0
 20 21  1  1  0  0  0
 22 21  1  0  0  0  0
 22 23  1  0  0  0  0
 24 25  1  0  0  0  0
 24  9  2  0  0  0  0
 26 25  1  0  0  0  0
 27 26  1  0  0  0  0
M  END
>  <MODEL>
8

>  <REMARK>
 VINA RESULT:      -6.2      2.968      7.769
  Name = 
  6 active torsions:
  status: ('A' for Active; 'I' for Inactive)
    1  A    between atoms: N_3  and  C_6
    2  A    between atoms: C_5  and  N_18
    3  A    between atoms: C_6  and  C_19
    4  A    between atoms: C_7  and  C_20
    5  A    between atoms: N_11  and  C_15
    6  A    between atoms: N_11  and  N_18
                            x       y       z     vdW  Elec       q    Type
                         _______ _______ _______ _____ _____    ______ ____

>  <TORSDO>
F 6

$$$$
=
 OpenBabel11042421313D

 27 31  0  0  1  0  0  0  0  0999 V2000
  161.5670  209.9990  152.1410 N   0  0  0  0  0  0  0  0  0  0  0  0
  160.8050  209.0290  154.3920 C   0  0  1  0  0  3  0  0  0  0  0  0
  162.0150  207.2630  151.4040 C   0  0  2  0  0  3  0  0  0  0  0  0
  161.2050  205.8490  150.5780 S   0  0  0  0  0  0  0  0  0  0  0  0
  161.1810  208.9210  153.0060 C   0  0  0  0  0  0  0  0  0  0  0  0
  161.1340  207.6610  156.2010 N   0  0  0  0  0  0  0  0  0  0  0  0
  161.7140  207.9940  149.1310 C   0  0  0  0  0  2  0  0  0  0  0  0
  161.6740  208.8180  156.4220 C   0  0  0  0  0  3  0  0  0  0  0  0
  161.3460  206.7340  149.0240 C   0  0  2  0  0  3  0  0  0  0  0  0
  161.9590  209.7520  150.9250 C   0  0  0  0  0  0  0  0  0  0  0  0
  160.4770  207.6800  154.9040 C   0  0  2  0  0  3  0  0  0  0  0  0
  161.3360  207.6450  152.6840 C   0  0  0  0  0  0  0  0  0  0  0  0
  161.5290  209.7030  155.2710 C   0  0  0  0  0  2  0  0  0  0  0  0
  162.0010  208.3850  150.4630 N   0  0  0  0  0  0  0  0  0  0  0  0
  161.1300  206.7480  153.8710 C   0  0  0  0  0  2  0  0  0  0  0  0
  162.1870  210.5100  148.5650 C   0  0  0  0  0  2  0  0  0  0  0  0
  162.2890  210.9020  150.0230 C   0  0  1  0  0  3  0  0  0  0  0  0
  161.3960  212.0290  150.2690 N   0  0  0  0  0  2  0  0  0  0  0  0
  161.6830  211.7540  147.8940 C   0  0  0  0  0  2  0  0  0  0  0  0
  160.8880  212.4590  148.9720 C   0  0  2  0  0  3  0  0  0  0  0  0
  161.0240  213.9650  148.8380 C   0  0  0  0  0  2  0  0  0  0  0  0
  160.2510  214.4360  147.7020 N   0  0  0  0  0  2  0  0  0  0  0  0
  158.8600  214.1380  147.9930 C   0  0  0  0  0  1  0  0  0  0  0  0
  161.0530  206.1440  147.7600 N   0  0  0  0  0  2  0  0  0  0  0  0
  161.9270  206.2910  146.6750 N   0  0  0  0  0  2  0  0  0  0  0  0
  161.8130  205.0810  145.8820 C   0  0  0  0  0  2  0  0  0  0  0  0
  161.5880  203.8980  146.7980 C   0  0  0  0  0  1  0  0  0  0  0  0
  1  5  1  0  0  0  0
  2 11  1  0  0  0  0
  2 13  1  1  0  0  0
  3  4  1  6  0  0  0
  3 12  1  0  0  0  0
  5  2  1  0  0  0  0
  6  8  2  0  0  0  0
  7 14  1  0  0  0  0
  9 24  1  1  0  0  0
  9  7  1  0  0  0  0
  9  4  1  0  0  0  0
 10  1  2  0  0  0  0
 11 15  1  6  0  0  0
 11  6  1  0  0  0  0
 12  5  2  0  0  0  0
 12 15  1  0  0  0  0
 13  8  1  0  0  0  0
 14 10  1  0  0  0  0
 14  3  1  0  0  0  0
 16 17  1  0  0  0  0
 17 18  1  0  0  0  0
 17 10  1  1  0  0  0
 19 16  1  0  0  0  0
 19 20  1  0  0  0  0
 20 21  1  6  0  0  0
 20 18  1  0  0  0  0
 22 23  1  0  0  0  0
 22 21  1  0  0  0  0
 25 24  1  0  0  0  0
 26 25  1  0  0  0  0
 26 27  1  0  0  0  0
M  END
>  <MODEL>
9

>  <REMARK>
 VINA RESULT:      -6.1      3.105      4.696
  Name = 
  6 active torsions:
  status: ('A' for Active; 'I' for Inactive)
    1  A    between atoms: N_3  and  C_6
    2  A    between atoms: C_5  and  N_18
    3  A    between atoms: C_6  and  C_19
    4  A    between atoms: C_7  and  C_20
    5  A    between atoms: N_11  and  C_15
    6  A    between atoms: N_11  and  N_18
                            x       y       z     vdW  Elec       q    Type
                         _______ _______ _______ _____ _____    ______ ____

>  <TORSDO>
F 6

$$$$
