=
 OpenBabel11042422133D

 50 55  0  0  1  0  0  0  0  0999 V2000
  160.6250  208.3490  154.5910 C   0  0  0  0  0  0  0  0  0  0  0  0
  160.6990  208.4670  153.1040 C   0  0  2  0  0  3  0  0  0  0  0  0
  161.2090  206.3080  153.8170 C   0  0  0  0  0  3  0  0  0  0  0  0
  161.1180  207.0810  152.7420 C   0  0  0  0  0  0  0  0  0  0  0  0
  160.9150  207.1160  154.9890 C   0  0  0  0  0  3  0  0  0  0  0  0
  158.7660  210.2980  155.3640 S   0  0  0  0  0  0  0  0  0  0  0  0
  160.2120  209.4410  155.4940 C   0  0  0  0  0  0  0  0  0  0  0  0
  160.9100  209.9500  156.5960 C   0  0  0  0  0  0  0  0  0  0  0  0
  162.1840  209.4670  157.0110 N   0  0  0  0  0  1  0  0  0  0  0  0
  158.2350  212.2700  157.1990 N   0  0  0  0  0  1  0  0  0  0  0  0
  160.2920  210.9640  157.2610 N   0  0  0  0  0  0  0  0  0  0  0  0
  159.1030  211.2610  156.6990 C   0  0  0  0  0  0  0  0  0  0  0  0
  161.2210  206.5970  151.3250 C   0  0  0  0  0  2  0  0  0  0  0  0
  160.9450  205.1070  151.1780 C   0  0  2  0  0  3  0  0  0  0  0  0
  162.0140  204.3680  151.6880 O   0  0  0  0  0  1  0  0  0  0  0  0
  160.7660  204.7900  149.7690 N   0  0  0  0  0  2  0  0  0  0  0  0
  160.8970  203.4710  149.2300 C   0  0  0  0  0  0  0  0  0  0  0  0
  160.6340  202.1480  150.1750 S   0  0  0  0  0  0  0  0  0  0  0  0
  162.4250  203.8660  147.2260 C   0  0  1  0  0  3  0  0  0  0  0  0
  160.8580  201.7970  145.6940 C   0  0  0  0  0  2  0  0  0  0  0  0
  161.1080  204.2610  145.1400 N   0  0  0  0  0  2  0  0  0  0  0  0
  161.5850  200.8370  147.8630 C   0  0  0  0  0  1  0  0  0  0  0  0
  160.7350  201.9190  147.2170 C   0  0  1  0  0  3  0  0  0  0  0  0
  162.3060  205.2300  146.9070 O   0  0  0  0  0  0  0  0  0  0  0  0
  160.3820  203.0330  145.0010 C   0  0  0  0  0  0  0  0  0  0  0  0
  161.0840  203.3300  147.7460 C   0  0  1  0  0  3  0  0  0  0  0  0
  159.2820  203.0220  144.3920 O   0  0  0  0  0  0  0  0  0  0  0  0
  162.4090  204.3560  145.8070 C   0  0  1  0  0  3  0  0  0  0  0  0
  161.7360  209.4200  152.7280 N   0  0  0  0  0  2  0  0  0  0  0  0
  160.6710  211.5390  152.1890 C   0  0  0  0  0  1  0  0  0  0  0  0
  161.2070  210.2250  151.6400 C   0  0  1  0  0  3  0  0  0  0  0  0
  162.3000  210.4840  150.6130 C   0  0  0  0  0  2  0  0  0  0  0  0
  162.0260  209.0050  148.6320 C   0  0  0  0  0  1  0  0  0  0  0  0
  161.7420  210.3820  149.2000 C   0  0  2  0  0  3  0  0  0  0  0  0
  162.3780  211.4300  148.2980 C   0  0  0  0  0  2  0  0  0  0  0  0
  161.7420  212.7950  148.5040 C   0  0  0  0  0  2  0  0  0  0  0  0
  161.0490  213.2110  147.2930 N   0  0  0  0  0  2  0  0  0  0  0  0
  162.0690  213.4910  146.2940 C   0  0  0  0  0  2  0  0  0  0  0  0
  160.4850  212.3630  142.3810 C   0  0  2  0  0  3  0  0  0  0  0  0
  161.6180  212.9950  145.0040 N   0  0  0  0  0  2  0  0  0  0  0  0
  160.7430  213.3290  140.0680 C   0  0  0  0  0  2  0  0  0  0  0  0
  162.7450  212.6210  141.3600 C   0  0  0  0  0  2  0  0  0  0  0  0
  161.9140  212.6600  142.5680 N   0  0  0  0  0  0  0  0  0  0  0  0
  162.4400  213.0640  143.8370 C   0  0  0  0  0  0  0  0  0  0  0  0
  160.3560  211.0610  141.8050 O   0  0  0  0  0  0  0  0  0  0  0  0
  163.6360  213.4640  143.9270 O   0  0  0  0  0  0  0  0  0  0  0  0
  161.8270  212.2470  140.1920 C   0  0  1  0  0  0  0  0  0  0  0  0
  159.9250  213.3970  141.3790 C   0  0  0  0  0  2  0  0  0  0  0  0
  161.1140  210.9390  140.5920 C   0  0  0  0  0  2  0  0  0  0  0  0
  162.5440  212.1000  139.0050 O   0  0  0  0  0  1  0  0  0  0  0  0
  1  5  2  0  0  0  0
  1  7  1  0  0  0  0
  2 29  1  1  0  0  0
  2  1  1  0  0  0  0
  3  5  1  0  0  0  0
  4  2  1  0  0  0  0
  4  3  2  0  0  0  0
  6  7  1  0  0  0  0
  6 12  1  0  0  0  0
  7  8  2  0  0  0  0
  8  9  1  0  0  0  0
  8 11  1  0  0  0  0
 12 10  1  0  0  0  0
 12 11  2  0  0  0  0
 13  4  1  0  0  0  0
 14 13  1  0  0  0  0
 14 15  1  6  0  0  0
 16 14  1  0  0  0  0
 17 16  1  0  0  0  0
 17 18  2  0  0  0  0
 19 24  1  1  0  0  0
 19 26  1  0  0  0  0
 20 23  1  0  0  0  0
 23 26  1  0  0  0  0
 23 22  1  1  0  0  0
 25 21  1  0  0  0  0
 25 20  1  0  0  0  0
 26 17  1  1  0  0  0
 27 25  2  0  0  0  0
 28 21  1  6  0  0  0
 28 24  1  0  0  0  0
 28 19  1  0  0  0  0
 31 30  1  1  0  0  0
 31 29  1  0  0  0  0
 32 31  1  0  0  0  0
 34 33  1  6  0  0  0
 34 32  1  0  0  0  0
 35 36  1  0  0  0  0
 35 34  1  0  0  0  0
 37 36  1  0  0  0  0
 38 37  1  0  0  0  0
 39 48  1  6  0  0  0
 39 43  1  0  0  0  0
 40 38  1  0  0  0  0
 41 47  1  0  0  0  0
 41 48  1  0  0  0  0
 42 43  1  0  0  0  0
 43 44  1  0  0  0  0
 44 46  2  0  0  0  0
 44 40  1  0  0  0  0
 45 39  1  0  0  0  0
 47 50  1  6  0  0  0
 47 49  1  0  0  0  0
 47 42  1  0  0  0  0
 49 45  1  0  0  0  0
M  END
>  <MODEL>
1

>  <REMARK>
 VINA RESULT:      -8.3      0.000      0.000
  Name = 
  15 active torsions:
  status: ('A' for Active; 'I' for Inactive)
    1  A    between atoms: C_1  and  C_24
    2  A    between atoms: C_1  and  C_30
    3  A    between atoms: C_2  and  N_12
    4  A    between atoms: C_2  and  N_39
    5  A    between atoms: C_5  and  N_13
    6  A    between atoms: C_5  and  C_41
    7  A    between atoms: C_8  and  C_9
    8  A    between atoms: C_10  and  N_31
    9  A    between atoms: N_13  and  C_36
   10  A    between atoms: C_18  and  C_36
   11  A    between atoms: C_18  and  C_38
   12  A    between atoms: C_24  and  C_33
   13  A    between atoms: C_30  and  N_39
   14  A    between atoms: N_31  and  C_44
   15  A    between atoms: C_33  and  C_44
                            x       y       z     vdW  Elec       q    Type
                         _______ _______ _______ _____ _____    ______ ____

>  <TORSDO>
F 15

$$$$
=
 OpenBabel11042422133D

 50 55  0  0  1  0  0  0  0  0999 V2000
  160.0240  210.0940  154.0860 C   0  0  0  0  0  0  0  0  0  0  0  0
  160.0990  210.1740  152.5960 C   0  0  2  0  0  3  0  0  0  0  0  0
  161.0950  208.2260  153.3990 C   0  0  0  0  0  3  0  0  0  0  0  0
  160.8450  208.9170  152.2930 C   0  0  0  0  0  0  0  0  0  0  0  0
  160.5920  208.9800  154.5350 C   0  0  0  0  0  3  0  0  0  0  0  0
  157.7180  211.5110  154.8080 S   0  0  0  0  0  0  0  0  0  0  0  0
  159.3440  211.0850  154.9410 C   0  0  0  0  0  0  0  0  0  0  0  0
  159.8940  211.8290  155.9930 C   0  0  0  0  0  0  0  0  0  0  0  0
  161.2570  211.7340  156.3940 N   0  0  0  0  0  1  0  0  0  0  0  0
  156.6990  213.3730  156.5490 N   0  0  0  0  0  1  0  0  0  0  0  0
  159.0330  212.6770  156.6200 N   0  0  0  0  0  0  0  0  0  0  0  0
  157.8000  212.6070  156.0790 C   0  0  0  0  0  0  0  0  0  0  0  0
  161.0910  208.4220  150.8980 C   0  0  0  0  0  2  0  0  0  0  0  0
  161.4090  206.9350  150.8350 C   0  0  2  0  0  3  0  0  0  0  0  0
  162.7890  206.7350  150.9330 O   0  0  0  0  0  1  0  0  0  0  0  0
  160.9310  206.3950  149.5710 N   0  0  0  0  0  2  0  0  0  0  0  0
  160.9790  205.0060  149.2330 C   0  0  0  0  0  0  0  0  0  0  0  0
  160.5150  203.8610  150.3220 S   0  0  0  0  0  0  0  0  0  0  0  0
  162.6440  205.0980  147.3030 C   0  0  1  0  0  3  0  0  0  0  0  0
  161.1890  202.7970  146.0100 C   0  0  0  0  0  2  0  0  0  0  0  0
  161.4770  205.1470  145.0940 N   0  0  0  0  0  2  0  0  0  0  0  0
  161.7610  202.1980  148.3480 C   0  0  0  0  0  1  0  0  0  0  0  0
  160.9590  203.1550  147.4830 C   0  0  1  0  0  3  0  0  0  0  0  0
  162.5470  206.3940  146.7660 O   0  0  0  0  0  0  0  0  0  0  0  0
  160.7630  203.9040  145.1010 C   0  0  0  0  0  0  0  0  0  0  0  0
  161.2690  204.6360  147.8060 C   0  0  1  0  0  3  0  0  0  0  0  0
  159.7090  203.7850  144.4260 O   0  0  0  0  0  0  0  0  0  0  0  0
  162.7280  205.3600  145.8270 C   0  0  1  0  0  3  0  0  0  0  0  0
  160.8870  211.3330  152.1970 N   0  0  0  0  0  2  0  0  0  0  0  0
  159.1210  212.9600  151.8080 C   0  0  0  0  0  1  0  0  0  0  0  0
  160.1360  212.0280  151.1640 C   0  0  1  0  0  3  0  0  0  0  0  0
  161.0900  212.8130  150.2740 C   0  0  0  0  0  2  0  0  0  0  0  0
  162.1300  211.2020  148.6900 C   0  0  0  0  0  1  0  0  0  0  0  0
  161.0660  212.2700  148.8520 C   0  0  2  0  0  3  0  0  0  0  0  0
  161.3270  213.3840  147.8500 C   0  0  0  0  0  2  0  0  0  0  0  0
  162.5470  213.0820  146.9940 C   0  0  0  0  0  2  0  0  0  0  0  0
  162.3490  213.5940  145.6460 N   0  0  0  0  0  2  0  0  0  0  0  0
  161.1710  212.9320  145.1080 C   0  0  0  0  0  2  0  0  0  0  0  0
  161.8400  211.7720  140.9480 C   0  0  2  0  0  3  0  0  0  0  0  0
  161.3710  212.6830  143.6890 N   0  0  0  0  0  2  0  0  0  0  0  0
  160.5970  210.2720  139.3500 C   0  0  0  0  0  2  0  0  0  0  0  0
  159.4430  212.2000  140.4130 C   0  0  0  0  0  2  0  0  0  0  0  0
  160.5190  212.2280  141.4100 N   0  0  0  0  0  0  0  0  0  0  0  0
  160.2780  212.5770  142.7770 C   0  0  0  0  0  0  0  0  0  0  0  0
  162.2480  212.5830  139.8450 O   0  0  0  0  0  0  0  0  0  0  0  0
  159.0990  212.8100  143.1710 O   0  0  0  0  0  0  0  0  0  0  0  0
  160.0510  211.6880  139.1040 C   0  0  1  0  0  0  0  0  0  0  0  0
  161.6810  210.3180  140.4530 C   0  0  0  0  0  2  0  0  0  0  0  0
  161.2640  212.5900  138.7980 C   0  0  0  0  0  2  0  0  0  0  0  0
  159.1210  211.7060  138.0670 O   0  0  0  0  0  1  0  0  0  0  0  0
  1  5  2  0  0  0  0
  1  7  1  0  0  0  0
  2 29  1  1  0  0  0
  2  1  1  0  0  0  0
  3  5  1  0  0  0  0
  4  2  1  0  0  0  0
  4  3  2  0  0  0  0
  6  7  1  0  0  0  0
  6 12  1  0  0  0  0
  7  8  2  0  0  0  0
  8  9  1  0  0  0  0
  8 11  1  0  0  0  0
 12 10  1  0  0  0  0
 12 11  2  0  0  0  0
 13  4  1  0  0  0  0
 14 13  1  0  0  0  0
 14 15  1  6  0  0  0
 16 14  1  0  0  0  0
 17 16  1  0  0  0  0
 17 18  2  0  0  0  0
 19 24  1  1  0  0  0
 19 26  1  0  0  0  0
 20 23  1  0  0  0  0
 21 25  1  0  0  0  0
 23 26  1  0  0  0  0
 23 22  1  1  0  0  0
 25 20  1  0  0  0  0
 26 17  1  1  0  0  0
 27 25  2  0  0  0  0
 28 21  1  6  0  0  0
 28 24  1  0  0  0  0
 28 19  1  0  0  0  0
 31 30  1  1  0  0  0
 31 29  1  0  0  0  0
 32 31  1  0  0  0  0
 34 33  1  1  0  0  0
 34 32  1  0  0  0  0
 35 34  1  0  0  0  0
 36 35  1  0  0  0  0
 37 36  1  0  0  0  0
 38 37  1  0  0  0  0
 39 48  1  6  0  0  0
 39 43  1  0  0  0  0
 40 38  1  0  0  0  0
 41 48  1  0  0  0  0
 42 43  1  0  0  0  0
 43 44  1  0  0  0  0
 44 46  2  0  0  0  0
 44 40  1  0  0  0  0
 45 39  1  0  0  0  0
 47 50  1  6  0  0  0
 47 41  1  0  0  0  0
 47 42  1  0  0  0  0
 49 47  1  0  0  0  0
 49 45  1  0  0  0  0
M  END
>  <MODEL>
2

>  <REMARK>
 VINA RESULT:      -7.1      1.598      2.169
  Name = 
  15 active torsions:
  status: ('A' for Active; 'I' for Inactive)
    1  A    between atoms: C_1  and  C_24
    2  A    between atoms: C_1  and  C_30
    3  A    between atoms: C_2  and  N_12
    4  A    between atoms: C_2  and  N_39
    5  A    between atoms: C_5  and  N_13
    6  A    between atoms: C_5  and  C_41
    7  A    between atoms: C_8  and  C_9
    8  A    between atoms: C_10  and  N_31
    9  A    between atoms: N_13  and  C_36
   10  A    between atoms: C_18  and  C_36
   11  A    between atoms: C_18  and  C_38
   12  A    between atoms: C_24  and  C_33
   13  A    between atoms: C_30  and  N_39
   14  A    between atoms: N_31  and  C_44
   15  A    between atoms: C_33  and  C_44
                            x       y       z     vdW  Elec       q    Type
                         _______ _______ _______ _____ _____    ______ ____

>  <TORSDO>
F 15

$$$$
=
 OpenBabel11042422133D

 50 55  0  0  1  0  0  0  0  0999 V2000
  161.2270  204.6550  150.4100 C   0  0  0  0  0  0  0  0  0  0  0  0
  161.8180  206.0110  150.6150 C   0  0  2  0  0  3  0  0  0  0  0  0
  161.0680  205.0930  152.6210 C   0  0  0  0  0  3  0  0  0  0  0  0
  161.6180  206.1760  152.0850 C   0  0  0  0  0  0  0  0  0  0  0  0
  160.8040  204.1380  151.5580 C   0  0  0  0  0  3  0  0  0  0  0  0
  161.2990  204.7040  147.6090 S   0  0  0  0  0  0  0  0  0  0  0  0
  161.1850  203.9510  149.1140 C   0  0  0  0  0  0  0  0  0  0  0  0
  161.0560  202.5750  148.8910 C   0  0  0  0  0  0  0  0  0  0  0  0
  160.9310  201.6170  149.9380 N   0  0  0  0  0  1  0  0  0  0  0  0
  161.2170  203.1480  145.3490 N   0  0  0  0  0  1  0  0  0  0  0  0
  161.0490  202.1930  147.5850 N   0  0  0  0  0  0  0  0  0  0  0  0
  161.1770  203.2560  146.7660 C   0  0  0  0  0  0  0  0  0  0  0  0
  162.1580  207.3400  152.8630 C   0  0  0  0  0  2  0  0  0  0  0  0
  161.2920  208.5880  152.7550 C   0  0  2  0  0  3  0  0  0  0  0  0
  162.0960  209.7130  152.5540 O   0  0  0  0  0  1  0  0  0  0  0  0
  160.5300  208.7510  153.9840 N   0  0  0  0  0  2  0  0  0  0  0  0
  160.6670  209.8730  154.8600 C   0  0  0  0  0  0  0  0  0  0  0  0
  162.1400  210.2870  155.4700 S   0  0  0  0  0  0  0  0  0  0  0  0
  159.7570  212.0140  155.9050 C   0  0  1  0  0  3  0  0  0  0  0  0
  157.4880  211.9530  153.9230 C   0  0  0  0  0  2  0  0  0  0  0  0
  157.3280  211.8000  156.4510 N   0  0  0  0  0  2  0  0  0  0  0  0
  159.6440  211.7730  152.7090 C   0  0  0  0  0  1  0  0  0  0  0  0
  158.7400  211.0920  153.7230 C   0  0  1  0  0  3  0  0  0  0  0  0
  159.5270  211.7190  157.2610 O   0  0  0  0  0  0  0  0  0  0  0  0
  156.7470  211.5690  155.1620 C   0  0  0  0  0  0  0  0  0  0  0  0
  159.4790  210.7740  155.0450 C   0  0  1  0  0  3  0  0  0  0  0  0
  155.6630  210.9360  155.0700 O   0  0  0  0  0  0  0  0  0  0  0  0
  158.5700  212.5530  156.6500 C   0  0  1  0  0  3  0  0  0  0  0  0
  161.0430  207.0100  149.8880 N   0  0  0  0  0  2  0  0  0  0  0  0
  162.7800  207.2760  148.2060 C   0  0  0  0  0  1  0  0  0  0  0  0
  161.9890  207.9530  149.3140 C   0  0  1  0  0  3  0  0  0  0  0  0
  161.2430  209.1640  148.7730 C   0  0  0  0  0  2  0  0  0  0  0  0
  162.2490  210.9980  150.1180 C   0  0  0  0  0  1  0  0  0  0  0  0
  162.1550  210.3830  148.7350 C   0  0  2  0  0  3  0  0  0  0  0  0
  161.6160  211.4240  147.7660 C   0  0  0  0  0  2  0  0  0  0  0  0
  162.4440  212.6980  147.8060 C   0  0  0  0  0  2  0  0  0  0  0  0
  162.6310  213.2140  146.4580 N   0  0  0  0  0  2  0  0  0  0  0  0
  161.3760  213.0180  145.7490 C   0  0  0  0  0  2  0  0  0  0  0  0
  162.2690  212.4710  141.5060 C   0  0  2  0  0  3  0  0  0  0  0  0
  161.6410  212.9740  144.3200 N   0  0  0  0  0  2  0  0  0  0  0  0
  161.2080  211.0950  139.6800 C   0  0  0  0  0  2  0  0  0  0  0  0
  159.8600  212.7670  140.9330 C   0  0  0  0  0  2  0  0  0  0  0  0
  160.8990  212.7520  141.9680 N   0  0  0  0  0  0  0  0  0  0  0  0
  160.5880  212.8990  143.3570 C   0  0  0  0  0  0  0  0  0  0  0  0
  162.6370  213.4490  140.5330 O   0  0  0  0  0  0  0  0  0  0  0  0
  159.3820  212.9810  143.7290 O   0  0  0  0  0  0  0  0  0  0  0  0
  160.5500  212.4810  139.5950 C   0  0  1  0  0  0  0  0  0  0  0  0
  162.2510  211.0850  140.8240 C   0  0  0  0  0  2  0  0  0  0  0  0
  161.6880  213.5120  139.4560 C   0  0  0  0  0  2  0  0  0  0  0  0
  159.6530  212.5590  138.5310 O   0  0  0  0  0  1  0  0  0  0  0  0
  1  2  1  0  0  0  0
  1  5  2  0  0  0  0
  2 29  1  6  0  0  0
  2  4  1  0  0  0  0
  4  3  2  0  0  0  0
  4 13  1  0  0  0  0
  5  3  1  0  0  0  0
  6  7  1  0  0  0  0
  7  1  1  0  0  0  0
  8  7  2  0  0  0  0
  8  9  1  0  0  0  0
 10 12  1  0  0  0  0
 11  8  1  0  0  0  0
 12 11  2  0  0  0  0
 12  6  1  0  0  0  0
 14 15  1  1  0  0  0
 14 13  1  0  0  0  0
 14 16  1  0  0  0  0
 16 17  1  0  0  0  0
 17 18  2  0  0  0  0
 19 28  1  0  0  0  0
 19 24  1  1  0  0  0
 20 25  1  0  0  0  0
 23 22  1  6  0  0  0
 23 20  1  0  0  0  0
 23 26  1  0  0  0  0
 25 21  1  0  0  0  0
 26 17  1  6  0  0  0
 26 19  1  0  0  0  0
 27 25  2  0  0  0  0
 28 21  1  6  0  0  0
 28 24  1  0  0  0  0
 31 30  1  6  0  0  0
 31 29  1  0  0  0  0
 32 31  1  0  0  0  0
 34 32  1  0  0  0  0
 34 33  1  1  0  0  0
 35 36  1  0  0  0  0
 35 34  1  0  0  0  0
 37 36  1  0  0  0  0
 38 37  1  0  0  0  0
 39 48  1  6  0  0  0
 39 43  1  0  0  0  0
 40 38  1  0  0  0  0
 41 48  1  0  0  0  0
 42 43  1  0  0  0  0
 43 44  1  0  0  0  0
 44 46  2  0  0  0  0
 44 40  1  0  0  0  0
 45 39  1  0  0  0  0
 47 50  1  6  0  0  0
 47 41  1  0  0  0  0
 47 42  1  0  0  0  0
 49 47  1  0  0  0  0
 49 45  1  0  0  0  0
M  END
>  <MODEL>
3

>  <REMARK>
 VINA RESULT:      -6.8      2.677      7.886
  Name = 
  15 active torsions:
  status: ('A' for Active; 'I' for Inactive)
    1  A    between atoms: C_1  and  C_24
    2  A    between atoms: C_1  and  C_30
    3  A    between atoms: C_2  and  N_12
    4  A    between atoms: C_2  and  N_39
    5  A    between atoms: C_5  and  N_13
    6  A    between atoms: C_5  and  C_41
    7  A    between atoms: C_8  and  C_9
    8  A    between atoms: C_10  and  N_31
    9  A    between atoms: N_13  and  C_36
   10  A    between atoms: C_18  and  C_36
   11  A    between atoms: C_18  and  C_38
   12  A    between atoms: C_24  and  C_33
   13  A    between atoms: C_30  and  N_39
   14  A    between atoms: N_31  and  C_44
   15  A    between atoms: C_33  and  C_44
                            x       y       z     vdW  Elec       q    Type
                         _______ _______ _______ _____ _____    ______ ____

>  <TORSDO>
F 15

$$$$
=
 OpenBabel11042422133D

 50 55  0  0  1  0  0  0  0  0999 V2000
  158.9430  213.4950  148.1050 C   0  0  0  0  0  0  0  0  0  0  0  0
  159.5450  212.8700  149.3210 C   0  0  2  0  0  3  0  0  0  0  0  0
  157.9270  214.4500  149.8830 C   0  0  0  0  0  3  0  0  0  0  0  0
  158.8150  213.6070  150.3950 C   0  0  0  0  0  0  0  0  0  0  0  0
  158.0210  214.3920  148.4340 C   0  0  0  0  0  3  0  0  0  0  0  0
  160.7760  213.3670  145.9890 S   0  0  0  0  0  0  0  0  0  0  0  0
  159.2770  213.1120  146.7190 C   0  0  0  0  0  0  0  0  0  0  0  0
  158.4500  212.4800  145.7830 C   0  0  0  0  0  0  0  0  0  0  0  0
  157.1000  212.1120  146.0490 N   0  0  0  0  0  1  0  0  0  0  0  0
  161.1350  212.5320  143.3990 N   0  0  0  0  0  1  0  0  0  0  0  0
  159.0180  212.2400  144.5700 N   0  0  0  0  0  0  0  0  0  0  0  0
  160.2960  212.6710  144.5370 C   0  0  0  0  0  0  0  0  0  0  0  0
  158.9450  213.2760  151.8530 C   0  0  0  0  0  2  0  0  0  0  0  0
  159.4360  211.8570  152.1060 C   0  0  2  0  0  3  0  0  0  0  0  0
  158.3880  211.0640  152.5790 O   0  0  0  0  0  1  0  0  0  0  0  0
  160.5030  211.8890  153.0940 N   0  0  0  0  0  2  0  0  0  0  0  0
  160.2760  211.9190  154.5060 C   0  0  0  0  0  0  0  0  0  0  0  0
  159.5690  213.2270  155.2150 S   0  0  0  0  0  0  0  0  0  0  0  0
  161.4560  210.8280  156.4870 C   0  0  1  0  0  3  0  0  0  0  0  0
  159.4610  208.5720  156.3620 C   0  0  0  0  0  2  0  0  0  0  0  0
  161.9740  208.4270  156.0300 N   0  0  0  0  0  2  0  0  0  0  0  0
  158.2500  210.7350  156.4490 C   0  0  0  0  0  1  0  0  0  0  0  0
  159.2120  209.8940  155.6270 C   0  0  1  0  0  3  0  0  0  0  0  0
  162.7880  210.6250  156.0840 O   0  0  0  0  0  0  0  0  0  0  0  0
  160.6690  207.8670  155.8340 C   0  0  0  0  0  0  0  0  0  0  0  0
  160.5140  210.6570  155.2870 C   0  0  1  0  0  3  0  0  0  0  0  0
  160.5290  206.8420  155.1190 O   0  0  0  0  0  0  0  0  0  0  0  0
  162.2280  209.5990  156.8710 C   0  0  1  0  0  3  0  0  0  0  0  0
  160.9700  213.1700  149.3850 N   0  0  0  0  0  2  0  0  0  0  0  0
  162.9730  212.2870  148.3260 C   0  0  0  0  0  1  0  0  0  0  0  0
  161.6820  211.9470  149.0530 C   0  0  1  0  0  3  0  0  0  0  0  0
  161.9780  211.1630  150.3250 C   0  0  0  0  0  2  0  0  0  0  0  0
  161.8370  209.3600  148.6180 C   0  0  0  0  0  1  0  0  0  0  0  0
  162.3620  209.7280  149.9920 C   0  0  2  0  0  3  0  0  0  0  0  0
  161.7780  208.7670  151.0180 C   0  0  0  0  0  2  0  0  0  0  0  0
  162.3100  207.3570  150.8190 C   0  0  0  0  0  2  0  0  0  0  0  0
  161.8470  206.4930  151.8950 N   0  0  0  0  0  2  0  0  0  0  0  0
  161.0020  205.4760  151.2890 C   0  0  0  0  0  2  0  0  0  0  0  0
  162.2460  204.2700  147.2760 C   0  0  2  0  0  3  0  0  0  0  0  0
  161.4790  205.2030  149.9420 N   0  0  0  0  0  2  0  0  0  0  0  0
  160.9830  203.7380  145.1620 C   0  0  0  0  0  2  0  0  0  0  0  0
  160.7060  205.9500  146.2640 C   0  0  0  0  0  2  0  0  0  0  0  0
  161.2730  205.3560  147.4790 N   0  0  0  0  0  0  0  0  0  0  0  0
  160.8310  205.7370  148.7860 C   0  0  0  0  0  0  0  0  0  0  0  0
  163.3300  204.7630  146.4870 O   0  0  0  0  0  0  0  0  0  0  0  0
  159.8810  206.5620  148.9170 O   0  0  0  0  0  0  0  0  0  0  0  0
  161.3420  205.2300  145.0700 C   0  0  1  0  0  0  0  0  0  0  0  0
  161.5330  203.1520  146.4840 C   0  0  0  0  0  2  0  0  0  0  0  0
  162.8700  205.3370  145.2530 C   0  0  0  0  0  2  0  0  0  0  0  0
  160.9290  205.7840  143.8600 O   0  0  0  0  0  1  0  0  0  0  0  0
  1  5  2  0  0  0  0
  1  2  1  0  0  0  0
  2 29  1  1  0  0  0
  2  4  1  0  0  0  0
  3  4  2  0  0  0  0
  4 13  1  0  0  0  0
  5  3  1  0  0  0  0
  6  7  1  0  0  0  0
  7  1  1  0  0  0  0
  8  9  1  0  0  0  0
  8  7  2  0  0  0  0
 10 12  1  0  0  0  0
 11  8  1  0  0  0  0
 12 11  2  0  0  0  0
 12  6  1  0  0  0  0
 13 14  1  0  0  0  0
 14 15  1  1  0  0  0
 14 16  1  0  0  0  0
 16 17  1  0  0  0  0
 17 18  2  0  0  0  0
 19 24  1  6  0  0  0
 19 28  1  0  0  0  0
 23 20  1  0  0  0  0
 23 22  1  1  0  0  0
 24 28  1  0  0  0  0
 25 21  1  0  0  0  0
 25 20  1  0  0  0  0
 26 17  1  1  0  0  0
 26 23  1  0  0  0  0
 26 19  1  0  0  0  0
 27 25  2  0  0  0  0
 28 21  1  6  0  0  0
 31 30  1  1  0  0  0
 31 29  1  0  0  0  0
 31 32  1  0  0  0  0
 34 33  1  6  0  0  0
 34 32  1  0  0  0  0
 34 35  1  0  0  0  0
 36 35  1  0  0  0  0
 36 37  1  0  0  0  0
 38 37  1  0  0  0  0
 39 48  1  6  0  0  0
 39 43  1  0  0  0  0
 40 38  1  0  0  0  0
 41 48  1  0  0  0  0
 42 43  1  0  0  0  0
 43 44  1  0  0  0  0
 44 46  2  0  0  0  0
 44 40  1  0  0  0  0
 45 39  1  0  0  0  0
 47 50  1  6  0  0  0
 47 41  1  0  0  0  0
 47 49  1  0  0  0  0
 47 42  1  0  0  0  0
 49 45  1  0  0  0  0
M  END
>  <MODEL>
4

>  <REMARK>
 VINA RESULT:      -6.8      3.365      9.479
  Name = 
  15 active torsions:
  status: ('A' for Active; 'I' for Inactive)
    1  A    between atoms: C_1  and  C_24
    2  A    between atoms: C_1  and  C_30
    3  A    between atoms: C_2  and  N_12
    4  A    between atoms: C_2  and  N_39
    5  A    between atoms: C_5  and  N_13
    6  A    between atoms: C_5  and  C_41
    7  A    between atoms: C_8  and  C_9
    8  A    between atoms: C_10  and  N_31
    9  A    between atoms: N_13  and  C_36
   10  A    between atoms: C_18  and  C_36
   11  A    between atoms: C_18  and  C_38
   12  A    between atoms: C_24  and  C_33
   13  A    between atoms: C_30  and  N_39
   14  A    between atoms: N_31  and  C_44
   15  A    between atoms: C_33  and  C_44
                            x       y       z     vdW  Elec       q    Type
                         _______ _______ _______ _____ _____    ______ ____

>  <TORSDO>
F 15

$$$$
=
 OpenBabel11042422133D

 50 55  0  0  1  0  0  0  0  0999 V2000
  160.5550  209.1170  153.5950 C   0  0  0  0  0  0  0  0  0  0  0  0
  161.0240  208.7610  152.2220 C   0  0  2  0  0  3  0  0  0  0  0  0
  160.9540  206.8930  153.6130 C   0  0  0  0  0  3  0  0  0  0  0  0
  161.2750  207.2990  152.3910 C   0  0  0  0  0  0  0  0  0  0  0  0
  160.5160  208.0470  154.3800 C   0  0  0  0  0  3  0  0  0  0  0  0
  158.8060  211.2920  153.3460 S   0  0  0  0  0  0  0  0  0  0  0  0
  160.1220  210.4670  154.0030 C   0  0  0  0  0  0  0  0  0  0  0  0
  160.6910  211.2880  154.9850 C   0  0  0  0  0  0  0  0  0  0  0  0
  161.8320  210.9190  155.7540 N   0  0  0  0  0  1  0  0  0  0  0  0
  158.2040  213.7900  154.3110 N   0  0  0  0  0  1  0  0  0  0  0  0
  160.0850  212.4930  155.1610 N   0  0  0  0  0  0  0  0  0  0  0  0
  159.0310  212.6350  154.3300 C   0  0  0  0  0  0  0  0  0  0  0  0
  161.6490  206.3920  151.2550 C   0  0  0  0  0  2  0  0  0  0  0  0
  161.1830  204.9570  151.4530 C   0  0  2  0  0  3  0  0  0  0  0  0
  162.2840  204.1140  151.6250 O   0  0  0  0  0  1  0  0  0  0  0  0
  160.4260  204.5330  150.2850 N   0  0  0  0  0  2  0  0  0  0  0  0
  160.8210  203.4550  149.4330 C   0  0  0  0  0  0  0  0  0  0  0  0
  160.6240  201.8910  149.9120 S   0  0  0  0  0  0  0  0  0  0  0  0
  160.4090  203.0550  146.9480 C   0  0  1  0  0  3  0  0  0  0  0  0
  161.8630  205.6260  146.3490 C   0  0  0  0  0  2  0  0  0  0  0  0
  162.5170  203.2820  145.6260 N   0  0  0  0  0  2  0  0  0  0  0  0
  160.0890  206.0580  148.0280 C   0  0  0  0  0  1  0  0  0  0  0  0
  161.3800  205.2980  147.7660 C   0  0  1  0  0  3  0  0  0  0  0  0
  161.0010  201.8150  146.6480 O   0  0  0  0  0  0  0  0  0  0  0  0
  162.8860  204.6440  145.8750 C   0  0  0  0  0  0  0  0  0  0  0  0
  161.2280  203.7800  148.0240 C   0  0  1  0  0  3  0  0  0  0  0  0
  164.0940  204.9870  145.8070 O   0  0  0  0  0  0  0  0  0  0  0  0
  161.1310  202.8050  145.6560 C   0  0  1  0  0  3  0  0  0  0  0  0
  162.2710  209.4530  151.9240 N   0  0  0  0  0  2  0  0  0  0  0  0
  161.2720  208.8090  149.8020 C   0  0  0  0  0  1  0  0  0  0  0  0
  162.2950  209.6990  150.4910 C   0  0  1  0  0  3  0  0  0  0  0  0
  161.9940  211.1660  150.2170 C   0  0  0  0  0  2  0  0  0  0  0  0
  163.2310  211.9530  148.2080 C   0  0  0  0  0  1  0  0  0  0  0  0
  161.9050  211.4230  148.7190 C   0  0  2  0  0  3  0  0  0  0  0  0
  160.8160  212.4410  148.4160 C   0  0  0  0  0  2  0  0  0  0  0  0
  161.1420  213.2430  147.1660 C   0  0  0  0  0  2  0  0  0  0  0  0
  160.2810  212.8290  146.0680 N   0  0  0  0  0  2  0  0  0  0  0  0
  160.3560  213.8680  145.0530 C   0  0  0  0  0  2  0  0  0  0  0  0
  160.1040  212.4050  140.9430 C   0  0  2  0  0  3  0  0  0  0  0  0
  160.3020  213.2510  143.7370 N   0  0  0  0  0  2  0  0  0  0  0  0
  161.4600  212.8450  138.8650 C   0  0  0  0  0  2  0  0  0  0  0  0
  162.5590  211.9710  140.9170 C   0  0  0  0  0  2  0  0  0  0  0  0
  161.3820  212.4140  141.6720 N   0  0  0  0  0  0  0  0  0  0  0  0
  161.4850  212.9220  143.0060 C   0  0  0  0  0  0  0  0  0  0  0  0
  159.8480  211.0790  140.4760 O   0  0  0  0  0  0  0  0  0  0  0  0
  162.6210  213.0620  143.5440 O   0  0  0  0  0  0  0  0  0  0  0  0
  162.0790  211.5950  139.5110 C   0  0  1  0  0  0  0  0  0  0  0  0
  160.2640  213.3310  139.7180 C   0  0  0  0  0  2  0  0  0  0  0  0
  160.9400  210.5710  139.6930 C   0  0  0  0  0  2  0  0  0  0  0  0
  163.1180  211.0780  138.7380 O   0  0  0  0  0  1  0  0  0  0  0  0
  1  7  1  0  0  0  0
  1  5  2  0  0  0  0
  2 29  1  1  0  0  0
  2  4  1  0  0  0  0
  2  1  1  0  0  0  0
  3  5  1  0  0  0  0
  4  3  2  0  0  0  0
  6  7  1  0  0  0  0
  6 12  1  0  0  0  0
  7  8  2  0  0  0  0
  8 11  1  0  0  0  0
  8  9  1  0  0  0  0
 10 12  1  0  0  0  0
 12 11  2  0  0  0  0
 13 14  1  0  0  0  0
 13  4  1  0  0  0  0
 14 15  1  6  0  0  0
 16 14  1  0  0  0  0
 17 18  2  0  0  0  0
 17 16  1  0  0  0  0
 19 24  1  1  0  0  0
 19 26  1  0  0  0  0
 20 23  1  0  0  0  0
 21 25  1  0  0  0  0
 23 26  1  0  0  0  0
 23 22  1  6  0  0  0
 25 20  1  0  0  0  0
 26 17  1  1  0  0  0
 27 25  2  0  0  0  0
 28 21  1  1  0  0  0
 28 24  1  0  0  0  0
 28 19  1  0  0  0  0
 31 30  1  6  0  0  0
 31 29  1  0  0  0  0
 32 31  1  0  0  0  0
 34 33  1  1  0  0  0
 34 32  1  0  0  0  0
 35 34  1  0  0  0  0
 36 35  1  0  0  0  0
 37 36  1  0  0  0  0
 38 37  1  0  0  0  0
 39 48  1  6  0  0  0
 39 43  1  0  0  0  0
 40 38  1  0  0  0  0
 41 47  1  0  0  0  0
 41 48  1  0  0  0  0
 42 43  1  0  0  0  0
 43 44  1  0  0  0  0
 44 46  2  0  0  0  0
 44 40  1  0  0  0  0
 45 39  1  0  0  0  0
 47 50  1  6  0  0  0
 47 49  1  0  0  0  0
 47 42  1  0  0  0  0
 49 45  1  0  0  0  0
M  END
>  <MODEL>
5

>  <REMARK>
 VINA RESULT:      -6.6      1.491      2.157
  Name = 
  15 active torsions:
  status: ('A' for Active; 'I' for Inactive)
    1  A    between atoms: C_1  and  C_24
    2  A    between atoms: C_1  and  C_30
    3  A    between atoms: C_2  and  N_12
    4  A    between atoms: C_2  and  N_39
    5  A    between atoms: C_5  and  N_13
    6  A    between atoms: C_5  and  C_41
    7  A    between atoms: C_8  and  C_9
    8  A    between atoms: C_10  and  N_31
    9  A    between atoms: N_13  and  C_36
   10  A    between atoms: C_18  and  C_36
   11  A    between atoms: C_18  and  C_38
   12  A    between atoms: C_24  and  C_33
   13  A    between atoms: C_30  and  N_39
   14  A    between atoms: N_31  and  C_44
   15  A    between atoms: C_33  and  C_44
                            x       y       z     vdW  Elec       q    Type
                         _______ _______ _______ _____ _____    ______ ____

>  <TORSDO>
F 15

$$$$
=
 OpenBabel11042422133D

 50 55  0  0  1  0  0  0  0  0999 V2000
  159.5890  213.6420  146.9080 C   0  0  0  0  0  0  0  0  0  0  0  0
  159.8010  212.9500  148.2140 C   0  0  2  0  0  3  0  0  0  0  0  0
  157.9630  214.3800  148.2930 C   0  0  0  0  0  3  0  0  0  0  0  0
  158.6970  213.5480  149.0220 C   0  0  0  0  0  0  0  0  0  0  0  0
  158.5390  214.4530  146.9610 C   0  0  0  0  0  3  0  0  0  0  0  0
  161.9100  214.0800  145.4020 S   0  0  0  0  0  0  0  0  0  0  0  0
  160.3950  213.4010  145.6960 C   0  0  0  0  0  0  0  0  0  0  0  0
  160.0750  212.5870  144.6030 C   0  0  0  0  0  0  0  0  0  0  0  0
  158.8600  211.8510  144.5000 N   0  0  0  0  0  1  0  0  0  0  0  0
  163.2080  213.4410  143.0680 N   0  0  0  0  0  1  0  0  0  0  0  0
  161.0090  212.5430  143.6140 N   0  0  0  0  0  0  0  0  0  0  0  0
  162.0740  213.3130  143.9160 C   0  0  0  0  0  0  0  0  0  0  0  0
  158.3610  213.1000  150.4140 C   0  0  0  0  0  2  0  0  0  0  0  0
  159.2660  213.7090  151.4760 C   0  0  2  0  0  3  0  0  0  0  0  0
  159.9970  212.7060  152.1160 O   0  0  0  0  0  1  0  0  0  0  0  0
  158.4500  214.4130  152.4540 N   0  0  0  0  0  2  0  0  0  0  0  0
  157.5590  213.7580  153.3620 C   0  0  0  0  0  0  0  0  0  0  0  0
  155.9340  213.7560  153.0880 S   0  0  0  0  0  0  0  0  0  0  0  0
  158.4630  213.6750  155.7450 C   0  0  1  0  0  3  0  0  0  0  0  0
  158.0410  210.6910  155.7430 C   0  0  0  0  0  2  0  0  0  0  0  0
  160.2400  211.9350  155.9850 N   0  0  0  0  0  2  0  0  0  0  0  0
  155.9380  211.8190  155.0640 C   0  0  0  0  0  1  0  0  0  0  0  0
  157.3910  211.5860  154.6820 C   0  0  1  0  0  3  0  0  0  0  0  0
  159.7620  214.2110  155.6880 O   0  0  0  0  0  0  0  0  0  0  0  0
  159.5320  210.7320  155.6600 C   0  0  0  0  0  0  0  0  0  0  0  0
  158.1550  212.9110  154.4500 C   0  0  1  0  0  3  0  0  0  0  0  0
  160.1580  209.7450  155.1940 O   0  0  0  0  0  0  0  0  0  0  0  0
  159.5940  213.1180  156.5610 C   0  0  1  0  0  3  0  0  0  0  0  0
  161.0930  213.3250  148.7750 N   0  0  0  0  0  2  0  0  0  0  0  0
  163.3420  212.5420  148.2820 C   0  0  0  0  0  1  0  0  0  0  0  0
  161.9420  212.1460  148.7240 C   0  0  1  0  0  3  0  0  0  0  0  0
  161.9830  211.4830  150.0940 C   0  0  0  0  0  2  0  0  0  0  0  0
  161.7890  209.4250  148.7100 C   0  0  0  0  0  1  0  0  0  0  0  0
  162.3890  210.0200  149.9690 C   0  0  2  0  0  3  0  0  0  0  0  0
  161.9030  209.2260  151.1720 C   0  0  0  0  0  2  0  0  0  0  0  0
  162.3070  207.7640  151.0690 C   0  0  0  0  0  2  0  0  0  0  0  0
  161.7140  207.0050  152.1600 N   0  0  0  0  0  2  0  0  0  0  0  0
  161.5190  205.6470  151.6750 C   0  0  0  0  0  2  0  0  0  0  0  0
  161.8900  205.6700  147.3210 C   0  0  2  0  0  3  0  0  0  0  0  0
  161.4990  205.6600  150.2210 N   0  0  0  0  0  2  0  0  0  0  0  0
  162.7540  203.9920  145.6510 C   0  0  0  0  0  2  0  0  0  0  0  0
  160.9040  203.3830  147.1970 C   0  0  0  0  0  2  0  0  0  0  0  0
  161.2940  204.5250  148.0300 N   0  0  0  0  0  0  0  0  0  0  0  0
  161.1990  204.4900  149.4570 C   0  0  0  0  0  0  0  0  0  0  0  0
  160.9610  206.1410  146.3430 O   0  0  0  0  0  0  0  0  0  0  0  0
  160.8300  203.4300  150.0400 O   0  0  0  0  0  0  0  0  0  0  0  0
  161.2390  203.7450  145.7460 C   0  0  1  0  0  0  0  0  0  0  0  0
  163.1500  205.1560  146.5900 C   0  0  0  0  0  2  0  0  0  0  0  0
  160.5450  205.0910  145.4560 C   0  0  0  0  0  2  0  0  0  0  0  0
  160.8250  202.7500  144.8620 O   0  0  0  0  0  1  0  0  0  0  0  0
  1  5  2  0  0  0  0
  1  2  1  0  0  0  0
  2 29  1  1  0  0  0
  2  4  1  0  0  0  0
  3  4  2  0  0  0  0
  4 13  1  0  0  0  0
  5  3  1  0  0  0  0
  6  7  1  0  0  0  0
  7  1  1  0  0  0  0
  8  7  2  0  0  0  0
  9  8  1  0  0  0  0
 10 12  1  0  0  0  0
 11 12  2  0  0  0  0
 11  8  1  0  0  0  0
 12  6  1  0  0  0  0
 13 14  1  0  0  0  0
 14 15  1  1  0  0  0
 14 16  1  0  0  0  0
 16 17  1  0  0  0  0
 18 17  2  0  0  0  0
 19 24  1  6  0  0  0
 19 28  1  0  0  0  0
 21 28  1  0  0  0  0
 23 22  1  1  0  0  0
 23 20  1  0  0  0  0
 25 20  1  0  0  0  0
 25 21  1  0  0  0  0
 26 17  1  6  0  0  0
 26 23  1  0  0  0  0
 26 19  1  0  0  0  0
 27 25  2  0  0  0  0
 28 24  1  6  0  0  0
 31 30  1  1  0  0  0
 31 29  1  0  0  0  0
 31 32  1  0  0  0  0
 34 33  1  6  0  0  0
 34 32  1  0  0  0  0
 34 35  1  0  0  0  0
 36 35  1  0  0  0  0
 36 37  1  0  0  0  0
 38 37  1  0  0  0  0
 39 48  1  6  0  0  0
 39 43  1  0  0  0  0
 40 38  1  0  0  0  0
 41 47  1  0  0  0  0
 41 48  1  0  0  0  0
 42 43  1  0  0  0  0
 43 44  1  0  0  0  0
 44 46  2  0  0  0  0
 44 40  1  0  0  0  0
 45 39  1  0  0  0  0
 47 50  1  6  0  0  0
 47 42  1  0  0  0  0
 49 47  1  0  0  0  0
 49 45  1  0  0  0  0
M  END
>  <MODEL>
6

>  <REMARK>
 VINA RESULT:      -6.5      3.501     10.388
  Name = 
  15 active torsions:
  status: ('A' for Active; 'I' for Inactive)
    1  A    between atoms: C_1  and  C_24
    2  A    between atoms: C_1  and  C_30
    3  A    between atoms: C_2  and  N_12
    4  A    between atoms: C_2  and  N_39
    5  A    between atoms: C_5  and  N_13
    6  A    between atoms: C_5  and  C_41
    7  A    between atoms: C_8  and  C_9
    8  A    between atoms: C_10  and  N_31
    9  A    between atoms: N_13  and  C_36
   10  A    between atoms: C_18  and  C_36
   11  A    between atoms: C_18  and  C_38
   12  A    between atoms: C_24  and  C_33
   13  A    between atoms: C_30  and  N_39
   14  A    between atoms: N_31  and  C_44
   15  A    between atoms: C_33  and  C_44
                            x       y       z     vdW  Elec       q    Type
                         _______ _______ _______ _____ _____    ______ ____

>  <TORSDO>
F 15

$$$$
=
 OpenBabel11042422133D

 50 55  0  0  1  0  0  0  0  0999 V2000
  161.2420  206.7890  152.5870 C   0  0  0  0  0  0  0  0  0  0  0  0
  161.2350  206.4430  151.1340 C   0  0  2  0  0  3  0  0  0  0  0  0
  161.5590  204.5560  152.4610 C   0  0  0  0  0  3  0  0  0  0  0  0
  161.4830  204.9730  151.2030 C   0  0  0  0  0  0  0  0  0  0  0  0
  161.4250  205.7080  153.3360 C   0  0  0  0  0  3  0  0  0  0  0  0
  160.8010  209.5260  152.1790 S   0  0  0  0  0  0  0  0  0  0  0  0
  161.0040  208.1440  153.1220 C   0  0  0  0  0  0  0  0  0  0  0  0
  160.8940  208.5260  154.4650 C   0  0  0  0  0  0  0  0  0  0  0  0
  161.0160  207.6160  155.5540 N   0  0  0  0  0  1  0  0  0  0  0  0
  160.3450  211.9230  153.4370 N   0  0  0  0  0  1  0  0  0  0  0  0
  160.6690  209.8510  154.6780 N   0  0  0  0  0  0  0  0  0  0  0  0
  160.5910  210.5250  153.5130 C   0  0  0  0  0  0  0  0  0  0  0  0
  161.4460  204.0750  150.0010 C   0  0  0  0  0  2  0  0  0  0  0  0
  160.5070  202.8880  150.1660 C   0  0  2  0  0  3  0  0  0  0  0  0
  161.1660  201.8430  150.8190 O   0  0  0  0  0  1  0  0  0  0  0  0
  160.0670  202.4390  148.8540 N   0  0  0  0  0  2  0  0  0  0  0  0
  160.9600  202.1410  147.7770 C   0  0  0  0  0  0  0  0  0  0  0  0
  161.5910  200.6300  147.6030 S   0  0  0  0  0  0  0  0  0  0  0  0
  162.5850  203.2930  146.1840 C   0  0  1  0  0  3  0  0  0  0  0  0
  160.2350  204.2010  144.5300 C   0  0  0  0  0  2  0  0  0  0  0  0
  161.9150  205.6600  145.7520 N   0  0  0  0  0  2  0  0  0  0  0  0
  160.0920  201.7490  144.8830 C   0  0  0  0  0  1  0  0  0  0  0  0
  160.0860  203.0980  145.5840 C   0  0  1  0  0  3  0  0  0  0  0  0
  163.3080  204.2140  146.9620 O   0  0  0  0  0  0  0  0  0  0  0  0
  160.6240  205.5050  145.1490 C   0  0  0  0  0  0  0  0  0  0  0  0
  161.1470  203.1790  146.7070 C   0  0  1  0  0  3  0  0  0  0  0  0
  159.7750  206.4280  145.2410 O   0  0  0  0  0  0  0  0  0  0  0  0
  162.9700  204.6480  145.6650 C   0  0  1  0  0  3  0  0  0  0  0  0
  162.3410  207.1080  150.4560 N   0  0  0  0  0  2  0  0  0  0  0  0
  160.5120  207.1170  148.8530 C   0  0  0  0  0  1  0  0  0  0  0  0
  162.0210  207.1360  149.0380 C   0  0  1  0  0  3  0  0  0  0  0  0
  162.6200  208.3830  148.4010 C   0  0  0  0  0  2  0  0  0  0  0  0
  161.1320  210.0400  147.2940 C   0  0  0  0  0  1  0  0  0  0  0  0
  161.7110  209.5850  148.6200 C   0  0  2  0  0  3  0  0  0  0  0  0
  162.4870  210.7360  149.2420 C   0  0  0  0  0  2  0  0  0  0  0  0
  162.0040  212.0770  148.7140 C   0  0  0  0  0  2  0  0  0  0  0  0
  163.0840  212.7540  148.0110 N   0  0  0  0  0  2  0  0  0  0  0  0
  162.5540  214.0260  147.5420 C   0  0  0  0  0  2  0  0  0  0  0  0
  162.0140  213.3800  143.2540 C   0  0  2  0  0  3  0  0  0  0  0  0
  162.3190  213.9430  146.1090 N   0  0  0  0  0  2  0  0  0  0  0  0
  160.5910  211.7910  141.9110 C   0  0  0  0  0  2  0  0  0  0  0  0
  159.5370  213.3420  143.5430 C   0  0  0  0  0  2  0  0  0  0  0  0
  160.8590  213.5100  144.1570 N   0  0  0  0  0  0  0  0  0  0  0  0
  161.0220  213.6870  145.5680 C   0  0  0  0  0  0  0  0  0  0  0  0
  161.8940  214.3460  142.2080 O   0  0  0  0  0  0  0  0  0  0  0  0
  160.0160  213.6370  146.3320 O   0  0  0  0  0  0  0  0  0  0  0  0
  159.7620  213.0780  142.0510 C   0  0  1  0  0  0  0  0  0  0  0  0
  161.9520  211.9700  142.6260 C   0  0  0  0  0  2  0  0  0  0  0  0
  160.6350  214.2350  141.5240 C   0  0  0  0  0  2  0  0  0  0  0  0
  158.5550  212.9880  141.3600 O   0  0  0  0  0  1  0  0  0  0  0  0
  1  7  1  0  0  0  0
  1  5  2  0  0  0  0
  2 29  1  6  0  0  0
  2  4  1  0  0  0  0
  2  1  1  0  0  0  0
  3  5  1  0  0  0  0
  4  3  2  0  0  0  0
  6  7  1  0  0  0  0
  6 12  1  0  0  0  0
  7  8  2  0  0  0  0
  8 11  1  0  0  0  0
  8  9  1  0  0  0  0
 10 12  1  0  0  0  0
 12 11  2  0  0  0  0
 13 14  1  0  0  0  0
 13  4  1  0  0  0  0
 14 15  1  6  0  0  0
 16 14  1  0  0  0  0
 17 16  1  0  0  0  0
 18 17  2  0  0  0  0
 19 26  1  0  0  0  0
 19 24  1  1  0  0  0
 20 25  1  0  0  0  0
 20 23  1  0  0  0  0
 23 22  1  6  0  0  0
 23 26  1  0  0  0  0
 25 27  2  0  0  0  0
 25 21  1  0  0  0  0
 26 17  1  6  0  0  0
 28 21  1  1  0  0  0
 28 19  1  0  0  0  0
 28 24  1  0  0  0  0
 31 30  1  1  0  0  0
 31 29  1  0  0  0  0
 32 34  1  0  0  0  0
 32 31  1  0  0  0  0
 34 33  1  6  0  0  0
 34 35  1  0  0  0  0
 36 35  1  0  0  0  0
 37 36  1  0  0  0  0
 38 37  1  0  0  0  0
 39 48  1  6  0  0  0
 39 43  1  0  0  0  0
 40 38  1  0  0  0  0
 41 47  1  0  0  0  0
 41 48  1  0  0  0  0
 42 43  1  0  0  0  0
 43 44  1  0  0  0  0
 44 40  1  0  0  0  0
 44 46  2  0  0  0  0
 45 39  1  0  0  0  0
 47 50  1  6  0  0  0
 47 42  1  0  0  0  0
 49 47  1  0  0  0  0
 49 45  1  0  0  0  0
M  END
>  <MODEL>
7

>  <REMARK>
 VINA RESULT:      -6.4      1.980      2.841
  Name = 
  15 active torsions:
  status: ('A' for Active; 'I' for Inactive)
    1  A    between atoms: C_1  and  C_24
    2  A    between atoms: C_1  and  C_30
    3  A    between atoms: C_2  and  N_12
    4  A    between atoms: C_2  and  N_39
    5  A    between atoms: C_5  and  N_13
    6  A    between atoms: C_5  and  C_41
    7  A    between atoms: C_8  and  C_9
    8  A    between atoms: C_10  and  N_31
    9  A    between atoms: N_13  and  C_36
   10  A    between atoms: C_18  and  C_36
   11  A    between atoms: C_18  and  C_38
   12  A    between atoms: C_24  and  C_33
   13  A    between atoms: C_30  and  N_39
   14  A    between atoms: N_31  and  C_44
   15  A    between atoms: C_33  and  C_44
                            x       y       z     vdW  Elec       q    Type
                         _______ _______ _______ _____ _____    ______ ____

>  <TORSDO>
F 15

$$$$
=
 OpenBabel11042422133D

 50 55  0  0  1  0  0  0  0  0999 V2000
  157.2120  213.3940  152.8340 C   0  0  0  0  0  0  0  0  0  0  0  0
  158.4910  212.9720  152.1880 C   0  0  2  0  0  3  0  0  0  0  0  0
  157.2900  214.4350  150.8300 C   0  0  0  0  0  3  0  0  0  0  0  0
  158.3910  213.6970  150.8870 C   0  0  0  0  0  0  0  0  0  0  0  0
  156.5350  214.2290  152.0550 C   0  0  0  0  0  3  0  0  0  0  0  0
  155.5820  211.8660  154.5250 S   0  0  0  0  0  0  0  0  0  0  0  0
  156.7910  212.9930  154.1900 C   0  0  0  0  0  0  0  0  0  0  0  0
  157.3000  213.4460  155.4130 C   0  0  0  0  0  0  0  0  0  0  0  0
  158.3400  214.4140  155.5220 N   0  0  0  0  0  1  0  0  0  0  0  0
  155.0150  211.2870  157.1480 N   0  0  0  0  0  1  0  0  0  0  0  0
  156.7260  212.9040  156.5210 N   0  0  0  0  0  0  0  0  0  0  0  0
  155.7670  212.0170  156.1890 C   0  0  0  0  0  0  0  0  0  0  0  0
  159.5000  213.7280  149.8760 C   0  0  0  0  0  2  0  0  0  0  0  0
  159.0210  214.0620  148.4700 C   0  0  2  0  0  3  0  0  0  0  0  0
  158.2920  212.9920  147.9450 O   0  0  0  0  0  1  0  0  0  0  0  0
  160.1730  214.3250  147.6210 N   0  0  0  0  0  2  0  0  0  0  0  0
  160.8410  213.3170  146.8560 C   0  0  0  0  0  0  0  0  0  0  0  0
  161.6760  212.1110  147.6050 S   0  0  0  0  0  0  0  0  0  0  0  0
  159.6830  214.3950  144.8560 C   0  0  1  0  0  3  0  0  0  0  0  0
  161.6320  212.9890  143.0380 C   0  0  0  0  0  2  0  0  0  0  0  0
  159.1110  212.7000  143.1120 N   0  0  0  0  0  2  0  0  0  0  0  0
  162.8850  214.2260  144.7870 C   0  0  0  0  0  1  0  0  0  0  0  0
  161.8910  213.1020  144.5450 C   0  0  1  0  0  3  0  0  0  0  0  0
  158.3390  213.9840  144.9150 O   0  0  0  0  0  0  0  0  0  0  0  0
  160.4010  212.1930  142.7480 C   0  0  0  0  0  0  0  0  0  0  0  0
  160.5960  213.2760  145.3740 C   0  0  1  0  0  3  0  0  0  0  0  0
  160.5080  211.0260  142.2900 O   0  0  0  0  0  0  0  0  0  0  0  0
  158.8960  214.0570  143.6230 C   0  0  1  0  0  3  0  0  0  0  0  0
  158.4860  211.5320  151.9620 N   0  0  0  0  0  2  0  0  0  0  0  0
  159.9660  211.5810  153.8920 C   0  0  0  0  0  1  0  0  0  0  0  0
  159.7290  211.0080  152.5030 C   0  0  1  0  0  3  0  0  0  0  0  0
  159.6650  209.4880  152.5580 C   0  0  0  0  0  2  0  0  0  0  0  0
  162.1390  209.3530  152.7780 C   0  0  0  0  0  1  0  0  0  0  0  0
  160.8160  208.9330  153.3880 C   0  0  2  0  0  3  0  0  0  0  0  0
  160.7540  207.4140  153.4380 C   0  0  0  0  0  2  0  0  0  0  0  0
  162.1320  206.8120  153.6600 C   0  0  0  0  0  2  0  0  0  0  0  0
  162.5250  206.0220  152.5030 N   0  0  0  0  0  2  0  0  0  0  0  0
  161.3170  205.7640  151.7340 C   0  0  0  0  0  2  0  0  0  0  0  0
  162.2820  204.4540  147.6780 C   0  0  2  0  0  3  0  0  0  0  0  0
  161.6840  205.4610  150.3600 N   0  0  0  0  0  2  0  0  0  0  0  0
  160.8820  203.6530  145.7420 C   0  0  0  0  0  2  0  0  0  0  0  0
  160.4610  205.8850  146.7530 C   0  0  0  0  0  2  0  0  0  0  0  0
  161.2140  205.4360  147.9290 N   0  0  0  0  0  0  0  0  0  0  0  0
  160.8650  205.8470  149.2550 C   0  0  0  0  0  0  0  0  0  0  0  0
  163.2140  205.0140  146.7520 O   0  0  0  0  0  0  0  0  0  0  0  0
  159.8420  206.5660  149.4450 O   0  0  0  0  0  0  0  0  0  0  0  0
  161.0530  205.1670  145.5360 C   0  0  1  0  0  0  0  0  0  0  0  0
  161.6280  203.2170  147.0250 C   0  0  0  0  0  2  0  0  0  0  0  0
  162.5680  205.4550  145.5470 C   0  0  0  0  0  2  0  0  0  0  0  0
  160.4560  205.5940  144.3510 O   0  0  0  0  0  1  0  0  0  0  0  0
  1  7  1  0  0  0  0
  2 29  1  6  0  0  0
  2  1  1  0  0  0  0
  3  4  2  0  0  0  0
  3  5  1  0  0  0  0
  4  2  1  0  0  0  0
  5  1  2  0  0  0  0
  6 12  1  0  0  0  0
  7  6  1  0  0  0  0
  7  8  2  0  0  0  0
  8  9  1  0  0  0  0
  8 11  1  0  0  0  0
 12 11  2  0  0  0  0
 12 10  1  0  0  0  0
 13  4  1  0  0  0  0
 14 15  1  6  0  0  0
 14 13  1  0  0  0  0
 16 14  1  0  0  0  0
 17 18  2  0  0  0  0
 17 16  1  0  0  0  0
 19 24  1  1  0  0  0
 19 26  1  0  0  0  0
 20 23  1  0  0  0  0
 23 22  1  6  0  0  0
 23 26  1  0  0  0  0
 25 20  1  0  0  0  0
 25 21  1  0  0  0  0
 26 17  1  1  0  0  0
 27 25  2  0  0  0  0
 28 21  1  1  0  0  0
 28 19  1  0  0  0  0
 28 24  1  0  0  0  0
 29 31  1  0  0  0  0
 31 32  1  0  0  0  0
 31 30  1  1  0  0  0
 32 34  1  0  0  0  0
 34 33  1  6  0  0  0
 34 35  1  0  0  0  0
 35 36  1  0  0  0  0
 37 36  1  0  0  0  0
 38 37  1  0  0  0  0
 39 48  1  6  0  0  0
 39 43  1  0  0  0  0
 40 38  1  0  0  0  0
 41 48  1  0  0  0  0
 42 43  1  0  0  0  0
 43 44  1  0  0  0  0
 44 46  2  0  0  0  0
 44 40  1  0  0  0  0
 45 39  1  0  0  0  0
 47 50  1  6  0  0  0
 47 49  1  0  0  0  0
 47 41  1  0  0  0  0
 47 42  1  0  0  0  0
 49 45  1  0  0  0  0
M  END
>  <MODEL>
8

>  <REMARK>
 VINA RESULT:      -6.0      2.933      8.409
  Name = 
  15 active torsions:
  status: ('A' for Active; 'I' for Inactive)
    1  A    between atoms: C_1  and  C_24
    2  A    between atoms: C_1  and  C_30
    3  A    between atoms: C_2  and  N_12
    4  A    between atoms: C_2  and  N_39
    5  A    between atoms: C_5  and  N_13
    6  A    between atoms: C_5  and  C_41
    7  A    between atoms: C_8  and  C_9
    8  A    between atoms: C_10  and  N_31
    9  A    between atoms: N_13  and  C_36
   10  A    between atoms: C_18  and  C_36
   11  A    between atoms: C_18  and  C_38
   12  A    between atoms: C_24  and  C_33
   13  A    between atoms: C_30  and  N_39
   14  A    between atoms: N_31  and  C_44
   15  A    between atoms: C_33  and  C_44
                            x       y       z     vdW  Elec       q    Type
                         _______ _______ _______ _____ _____    ______ ____

>  <TORSDO>
F 15

$$$$
