=
 OpenBabel11042420053D

 42 43  0  0  1  0  0  0  0  0999 V2000
  161.3280  207.2810  151.5560 C   0  0  0  0  0  0  0  0  0  0  0  0
  161.0670  205.9110  151.4550 C   0  0  0  0  0  3  0  0  0  0  0  0
  161.1080  207.1480  153.9700 C   0  0  0  0  0  0  0  0  0  0  0  0
  161.3490  207.8990  152.8090 C   0  0  0  0  0  3  0  0  0  0  0  0
  160.8210  205.1590  152.6090 C   0  0  0  0  0  0  0  0  0  0  0  0
  160.8480  205.7770  153.8640 C   0  0  0  0  0  3  0  0  0  0  0  0
  161.5680  208.0270  150.4090 O   0  0  0  0  0  1  0  0  0  0  0  0
  159.7840  207.6350  156.0040 C   0  0  0  0  0  1  0  0  0  0  0  0
  161.1410  207.7830  155.3280 C   0  0  2  0  0  3  0  0  0  0  0  0
  161.5790  209.2540  155.2640 C   0  0  1  0  0  3  0  0  0  0  0  0
  159.8250  210.5390  156.5470 N   0  0  0  0  0  2  0  0  0  0  0  0
  160.3940  210.1710  155.2930 C   0  0  0  0  0  0  0  0  0  0  0  0
  159.9110  210.6210  154.2180 O   0  0  0  0  0  0  0  0  0  0  0  0
  158.7180  211.3920  156.6150 N   0  0  0  0  0  0  0  0  0  0  0  0
  157.6130  211.0630  156.0350 C   0  0  0  0  0  3  0  0  0  0  0  0
  156.2020  212.1540  156.1160 P   0  0  1  0  0  0  0  0  0  0  0  0
  154.8030  211.2390  156.3690 O   0  0  0  0  0  0  0  0  0  0  0  0
  156.3790  213.1260  157.2610 O   0  0  0  0  0  1  0  0  0  0  0  0
  156.0570  213.0480  154.5760 C   0  0  0  0  0  0  0  0  0  0  0  0
  154.9360  213.5000  154.2180 O   0  0  0  0  0  0  0  0  0  0  0  0
  157.2200  213.2670  153.7760 N   0  0  0  0  0  2  0  0  0  0  0  0
  157.1880  214.0340  152.5400 C   0  0  0  0  0  2  0  0  0  0  0  0
  158.3730  213.6610  151.6660 C   0  0  0  0  0  2  0  0  0  0  0  0
  158.7910  213.3330  149.3460 O   0  0  0  0  0  0  0  0  0  0  0  0
  157.9550  213.6260  150.2390 C   0  0  0  0  0  0  0  0  0  0  0  0
  156.6350  213.8830  149.8950 O   0  0  0  0  0  1  0  0  0  0  0  0
  163.0910  210.7250  155.9450 C   0  0  0  0  0  1  0  0  0  0  0  0
  162.4280  209.5590  156.3330 O   0  0  0  0  0  0  0  0  0  0  0  0
  160.5620  203.6970  152.5020 C   0  0  0  0  0  2  0  0  0  0  0  0
  161.6990  203.0180  151.7580 C   0  0  0  0  0  2  0  0  0  0  0  0
  161.2220  202.2550  149.3910 C   0  0  0  0  0  0  0  0  0  0  0  0
  160.9550  201.0930  149.8050 O   0  0  0  0  0  0  0  0  0  0  0  0
  161.5820  203.2720  150.3310 N   0  0  0  0  0  2  0  0  0  0  0  0
  160.7530  200.2140  147.3170 O   0  0  0  0  0  1  0  0  0  0  0  0
  161.2610  204.2170  146.1540 C   0  0  0  0  0  0  0  0  0  0  0  0
  161.1530  202.5470  147.9380 C   0  0  0  0  0  0  0  0  0  0  0  0
  161.3160  203.8760  147.5130 C   0  0  0  0  0  3  0  0  0  0  0  0
  160.9270  201.5480  146.9630 C   0  0  0  0  0  0  0  0  0  0  0  0
  161.0380  203.2160  145.2070 C   0  0  0  0  0  3  0  0  0  0  0  0
  160.8730  201.8910  145.6090 C   0  0  0  0  0  3  0  0  0  0  0  0
  161.4240  205.5340  145.7210 O   0  0  0  0  0  0  0  0  0  0  0  0
  160.3510  206.3120  145.2070 C   0  0  0  0  0  1  0  0  0  0  0  0
  1  4  1  0  0  0  0
  2  1  2  0  0  0  0
  2  5  1  0  0  0  0
  3  9  1  0  0  0  0
  4  3  2  0  0  0  0
  5  6  2  0  0  0  0
  6  3  1  0  0  0  0
  7  1  1  0  0  0  0
  9  8  1  6  0  0  0
 10 12  1  1  0  0  0
 10  9  1  0  0  0  0
 10 28  1  0  0  0  0
 11 14  1  0  0  0  0
 12 11  1  0  0  0  0
 13 12  2  0  0  0  0
 15 16  1  0  0  0  0
 15 14  2  0  0  0  0
 16 17  2  1  0  0  0
 16 18  1  0  0  0  0
 19 16  1  0  0  0  0
 20 19  2  0  0  0  0
 21 19  1  0  0  0  0
 22 21  1  0  0  0  0
 23 22  1  0  0  0  0
 24 25  2  0  0  0  0
 25 23  1  0  0  0  0
 26 25  1  0  0  0  0
 27 28  1  0  0  0  0
 29  5  1  0  0  0  0
 30 29  1  0  0  0  0
 31 32  2  0  0  0  0
 31 33  1  0  0  0  0
 33 30  1  0  0  0  0
 35 37  1  0  0  0  0
 36 31  1  0  0  0  0
 37 36  2  0  0  0  0
 38 34  1  0  0  0  0
 38 36  1  0  0  0  0
 39 40  1  0  0  0  0
 39 35  2  0  0  0  0
 40 38  2  0  0  0  0
 41 35  1  0  0  0  0
 42 41  1  0  0  0  0
M  END
>  <MODEL>
1

>  <REMARK>
 VINA RESULT:      -7.0      0.000      0.000
  Name = 
  15 active torsions:
  status: ('A' for Active; 'I' for Inactive)
    1  A    between atoms: C_1  and  P_20
    2  A    between atoms: C_4  and  C_32
    3  A    between atoms: C_4  and  N_42
    4  A    between atoms: C_5  and  C_32
    5  A    between atoms: C_6  and  O_21
    6  A    between atoms: C_9  and  C_12
    7  A    between atoms: C_10  and  C_19
    8  A    between atoms: C_10  and  C_23
    9  A    between atoms: C_10  and  O_38
   10  A    between atoms: N_11  and  N_37
   11  A    between atoms: C_14  and  C_25
   12  A    between atoms: C_14  and  C_26
   13  A    between atoms: C_16  and  C_19
   14  A    between atoms: P_20  and  C_41
   15  A    between atoms: C_26  and  N_29
                            x       y       z     vdW  Elec       q    Type
                         _______ _______ _______ _____ _____    ______ ____

>  <TORSDO>
F 15

$$$$
=
 OpenBabel11042420053D

 42 43  0  0  1  0  0  0  0  0999 V2000
  160.3630  211.5560  152.4810 C   0  0  0  0  0  0  0  0  0  0  0  0
  160.3140  211.9360  153.8250 C   0  0  0  0  0  3  0  0  0  0  0  0
  160.6770  209.2420  153.1450 C   0  0  0  0  0  0  0  0  0  0  0  0
  160.5440  210.2130  152.1400 C   0  0  0  0  0  3  0  0  0  0  0  0
  160.4520  210.9730  154.8310 C   0  0  0  0  0  0  0  0  0  0  0  0
  160.6270  209.6280  154.4890 C   0  0  0  0  0  3  0  0  0  0  0  0
  160.2300  212.5130  151.4840 O   0  0  0  0  0  1  0  0  0  0  0  0
  161.4120  207.0420  154.0110 C   0  0  0  0  0  1  0  0  0  0  0  0
  160.8550  207.7920  152.8070 C   0  0  2  0  0  3  0  0  0  0  0  0
  161.7400  207.5960  151.5670 C   0  0  1  0  0  3  0  0  0  0  0  0
  161.1400  205.6360  150.0920 N   0  0  0  0  0  2  0  0  0  0  0  0
  161.8600  206.1450  151.2130 C   0  0  0  0  0  0  0  0  0  0  0  0
  162.5980  205.3830  151.8950 O   0  0  0  0  0  0  0  0  0  0  0  0
  161.2260  204.2870  149.7320 N   0  0  0  0  0  0  0  0  0  0  0  0
  160.2130  203.5070  149.9040 C   0  0  0  0  0  3  0  0  0  0  0  0
  160.3240  201.7840  149.4490 P   0  0  1  0  0  0  0  0  0  0  0  0
  161.4350  201.0090  150.4620 O   0  0  0  0  0  1  0  0  0  0  0  0
  158.9680  201.1320  149.6000 O   0  0  0  0  0  0  0  0  0  0  0  0
  160.8750  201.6550  147.7540 C   0  0  0  0  0  0  0  0  0  0  0  0
  161.2430  200.5390  147.2990 O   0  0  0  0  0  0  0  0  0  0  0  0
  160.8660  202.8150  146.9210 N   0  0  0  0  0  2  0  0  0  0  0  0
  161.2460  202.7740  145.5160 C   0  0  0  0  0  2  0  0  0  0  0  0
  161.1530  204.1640  144.9110 C   0  0  0  0  0  2  0  0  0  0  0  0
  161.5500  206.1570  146.1500 O   0  0  0  0  0  1  0  0  0  0  0  0
  162.0300  205.1010  145.6640 C   0  0  0  0  0  0  0  0  0  0  0  0
  163.3700  204.7940  145.8590 O   0  0  0  0  0  0  0  0  0  0  0  0
  162.3020  208.5060  149.6250 C   0  0  0  0  0  1  0  0  0  0  0  0
  161.2150  208.2970  150.4750 O   0  0  0  0  0  0  0  0  0  0  0  0
  160.3810  211.3770  156.2610 C   0  0  0  0  0  2  0  0  0  0  0  0
  158.9510  211.2730  156.7630 C   0  0  0  0  0  2  0  0  0  0  0  0
  157.6540  213.1390  155.6440 C   0  0  0  0  0  0  0  0  0  0  0  0
  158.1630  213.9830  156.4320 O   0  0  0  0  0  0  0  0  0  0  0  0
  158.0300  211.7620  155.7490 N   0  0  0  0  0  2  0  0  0  0  0  0
  154.8260  213.7450  156.2080 O   0  0  0  0  0  1  0  0  0  0  0  0
  156.2510  214.1650  152.2810 C   0  0  0  0  0  0  0  0  0  0  0  0
  156.6800  213.5890  154.6190 C   0  0  0  0  0  0  0  0  0  0  0  0
  157.1230  213.7420  153.2960 C   0  0  0  0  0  3  0  0  0  0  0  0
  155.3270  213.8730  154.9180 C   0  0  0  0  0  0  0  0  0  0  0  0
  154.9190  214.4380  152.5950 C   0  0  0  0  0  3  0  0  0  0  0  0
  154.4610  214.2930  153.9040 C   0  0  0  0  0  3  0  0  0  0  0  0
  156.6820  214.3190  150.9620 O   0  0  0  0  0  0  0  0  0  0  0  0
  156.0820  213.6300  149.8730 C   0  0  0  0  0  1  0  0  0  0  0  0
  1  2  1  0  0  0  0
  2  5  2  0  0  0  0
  3  6  2  0  0  0  0
  4  1  2  0  0  0  0
  4  3  1  0  0  0  0
  5 29  1  0  0  0  0
  6  5  1  0  0  0  0
  7  1  1  0  0  0  0
  9  3  1  0  0  0  0
  9  8  1  1  0  0  0
 10 28  1  6  0  0  0
 10  9  1  0  0  0  0
 11 12  1  0  0  0  0
 12 10  1  0  0  0  0
 12 13  2  0  0  0  0
 14 15  2  0  0  0  0
 14 11  1  0  0  0  0
 16 18  2  1  0  0  0
 16 15  1  0  0  0  0
 16 17  1  0  0  0  0
 19 16  1  0  0  0  0
 20 19  2  0  0  0  0
 21 19  1  0  0  0  0
 22 21  1  0  0  0  0
 23 22  1  0  0  0  0
 23 25  1  0  0  0  0
 25 26  2  0  0  0  0
 25 24  1  0  0  0  0
 27 28  1  0  0  0  0
 29 30  1  0  0  0  0
 31 33  1  0  0  0  0
 31 32  2  0  0  0  0
 33 30  1  0  0  0  0
 35 39  2  0  0  0  0
 35 37  1  0  0  0  0
 36 38  1  0  0  0  0
 36 31  1  0  0  0  0
 37 36  2  0  0  0  0
 38 34  1  0  0  0  0
 39 40  1  0  0  0  0
 40 38  2  0  0  0  0
 41 35  1  0  0  0  0
 42 41  1  0  0  0  0
M  END
>  <MODEL>
2

>  <REMARK>
 VINA RESULT:      -6.7      2.783     10.776
  Name = 
  15 active torsions:
  status: ('A' for Active; 'I' for Inactive)
    1  A    between atoms: C_1  and  P_20
    2  A    between atoms: C_4  and  C_32
    3  A    between atoms: C_4  and  N_42
    4  A    between atoms: C_5  and  C_32
    5  A    between atoms: C_6  and  O_21
    6  A    between atoms: C_9  and  C_12
    7  A    between atoms: C_10  and  C_19
    8  A    between atoms: C_10  and  C_23
    9  A    between atoms: C_10  and  O_38
   10  A    between atoms: N_11  and  N_37
   11  A    between atoms: C_14  and  C_25
   12  A    between atoms: C_14  and  C_26
   13  A    between atoms: C_16  and  C_19
   14  A    between atoms: P_20  and  C_41
   15  A    between atoms: C_26  and  N_29
                            x       y       z     vdW  Elec       q    Type
                         _______ _______ _______ _____ _____    ______ ____

>  <TORSDO>
F 15

$$$$
=
 OpenBabel11042420053D

 42 43  0  0  1  0  0  0  0  0999 V2000
  161.1360  200.0950  146.2760 C   0  0  0  0  0  0  0  0  0  0  0  0
  161.3610  200.2210  147.6500 C   0  0  0  0  0  3  0  0  0  0  0  0
  160.7310  202.4840  146.1210 C   0  0  0  0  0  0  0  0  0  0  0  0
  160.8210  201.2220  145.5130 C   0  0  0  0  0  3  0  0  0  0  0  0
  161.2680  201.4750  148.2630 C   0  0  0  0  0  0  0  0  0  0  0  0
  160.9580  202.6050  147.4960 C   0  0  0  0  0  3  0  0  0  0  0  0
  161.2260  198.8490  145.6700 O   0  0  0  0  0  1  0  0  0  0  0  0
  159.5300  203.3460  144.1360 C   0  0  0  0  0  1  0  0  0  0  0  0
  160.4120  203.7120  145.3230 C   0  0  2  0  0  3  0  0  0  0  0  0
  161.6810  204.4500  144.8720 C   0  0  1  0  0  3  0  0  0  0  0  0
  161.8940  205.6480  142.6600 N   0  0  0  0  0  2  0  0  0  0  0  0
  161.3460  205.6020  143.9750 C   0  0  0  0  0  0  0  0  0  0  0  0
  160.5770  206.5180  144.3770 O   0  0  0  0  0  0  0  0  0  0  0  0
  161.6040  206.7080  141.7940 N   0  0  0  0  0  0  0  0  0  0  0  0
  162.0550  206.6960  140.5850 C   0  0  0  0  0  3  0  0  0  0  0  0
  161.6890  208.0510  139.4810 P   0  0  1  0  0  0  0  0  0  0  0  0
  162.5800  207.8650  138.0560 O   0  0  0  0  0  0  0  0  0  0  0  0
  160.2130  208.0530  139.1540 O   0  0  0  0  0  1  0  0  0  0  0  0
  162.1400  209.5910  140.2660 C   0  0  0  0  0  0  0  0  0  0  0  0
  163.3560  209.8850  140.4170 O   0  0  0  0  0  0  0  0  0  0  0  0
  161.1150  210.4900  140.6930 N   0  0  0  0  0  2  0  0  0  0  0  0
  161.4060  211.7860  141.2870 C   0  0  0  0  0  2  0  0  0  0  0  0
  160.7640  211.8860  142.6590 C   0  0  0  0  0  2  0  0  0  0  0  0
  160.9420  213.6540  144.2420 O   0  0  0  0  0  1  0  0  0  0  0  0
  161.5420  212.8230  143.5130 C   0  0  0  0  0  0  0  0  0  0  0  0
  162.9280  212.7580  143.5320 O   0  0  0  0  0  0  0  0  0  0  0  0
  163.6940  204.4360  145.8020 C   0  0  0  0  0  1  0  0  0  0  0  0
  162.3960  204.9180  145.9810 O   0  0  0  0  0  0  0  0  0  0  0  0
  161.5270  201.6100  149.7220 C   0  0  0  0  0  2  0  0  0  0  0  0
  160.3960  202.3770  150.3850 C   0  0  0  0  0  2  0  0  0  0  0  0
  160.9460  204.6020  151.4660 C   0  0  0  0  0  0  0  0  0  0  0  0
  161.0250  204.0480  152.5960 O   0  0  0  0  0  0  0  0  0  0  0  0
  160.6540  203.8070  150.3110 N   0  0  0  0  0  2  0  0  0  0  0  0
  161.5500  205.9870  148.9360 O   0  0  0  0  0  1  0  0  0  0  0  0
  161.2700  208.2370  152.4700 C   0  0  0  0  0  0  0  0  0  0  0  0
  161.1640  206.0640  151.3510 C   0  0  0  0  0  0  0  0  0  0  0  0
  161.0750  206.8480  152.5130 C   0  0  0  0  0  3  0  0  0  0  0  0
  161.4520  206.7040  150.1230 C   0  0  0  0  0  0  0  0  0  0  0  0
  161.5560  208.8490  151.2490 C   0  0  0  0  0  3  0  0  0  0  0  0
  161.6470  208.0880  150.0840 C   0  0  0  0  0  3  0  0  0  0  0  0
  161.1850  209.0250  153.6190 O   0  0  0  0  0  0  0  0  0  0  0  0
  161.7560  210.3240  153.7040 C   0  0  0  0  0  1  0  0  0  0  0  0
  1  2  1  0  0  0  0
  2  5  2  0  0  0  0
  3  6  2  0  0  0  0
  4  3  1  0  0  0  0
  4  1  2  0  0  0  0
  5 29  1  0  0  0  0
  6  5  1  0  0  0  0
  7  1  1  0  0  0  0
  9  8  1  6  0  0  0
  9  3  1  0  0  0  0
 10 12  1  6  0  0  0
 10  9  1  0  0  0  0
 10 28  1  0  0  0  0
 11 12  1  0  0  0  0
 12 13  2  0  0  0  0
 14 11  1  0  0  0  0
 15 14  2  0  0  0  0
 16 17  2  6  0  0  0
 16 19  1  0  0  0  0
 16 15  1  0  0  0  0
 18 16  1  0  0  0  0
 19 20  2  0  0  0  0
 19 21  1  0  0  0  0
 21 22  1  0  0  0  0
 22 23  1  0  0  0  0
 23 25  1  0  0  0  0
 25 26  2  0  0  0  0
 25 24  1  0  0  0  0
 27 28  1  0  0  0  0
 29 30  1  0  0  0  0
 31 32  2  0  0  0  0
 33 30  1  0  0  0  0
 33 31  1  0  0  0  0
 34 38  1  0  0  0  0
 35 37  1  0  0  0  0
 35 41  1  0  0  0  0
 36 31  1  0  0  0  0
 36 37  2  0  0  0  0
 38 36  1  0  0  0  0
 39 35  2  0  0  0  0
 40 38  2  0  0  0  0
 40 39  1  0  0  0  0
 41 42  1  0  0  0  0
M  END
>  <MODEL>
3

>  <REMARK>
 VINA RESULT:      -6.6      5.207     10.852
  Name = 
  15 active torsions:
  status: ('A' for Active; 'I' for Inactive)
    1  A    between atoms: C_1  and  P_20
    2  A    between atoms: C_4  and  C_32
    3  A    between atoms: C_4  and  N_42
    4  A    between atoms: C_5  and  C_32
    5  A    between atoms: C_6  and  O_21
    6  A    between atoms: C_9  and  C_12
    7  A    between atoms: C_10  and  C_19
    8  A    between atoms: C_10  and  C_23
    9  A    between atoms: C_10  and  O_38
   10  A    between atoms: N_11  and  N_37
   11  A    between atoms: C_14  and  C_25
   12  A    between atoms: C_14  and  C_26
   13  A    between atoms: C_16  and  C_19
   14  A    between atoms: P_20  and  C_41
   15  A    between atoms: C_26  and  N_29
                            x       y       z     vdW  Elec       q    Type
                         _______ _______ _______ _____ _____    ______ ____

>  <TORSDO>
F 15

$$$$
=
 OpenBabel11042420053D

 42 43  0  0  1  0  0  0  0  0999 V2000
  161.0690  202.2350  148.6600 C   0  0  0  0  0  0  0  0  0  0  0  0
  160.6970  202.3440  150.0020 C   0  0  0  0  0  3  0  0  0  0  0  0
  161.2850  204.6490  148.5210 C   0  0  0  0  0  0  0  0  0  0  0  0
  161.3630  203.3830  147.9200 C   0  0  0  0  0  3  0  0  0  0  0  0
  160.6120  203.6040  150.6060 C   0  0  0  0  0  0  0  0  0  0  0  0
  160.9120  204.7530  149.8650 C   0  0  0  0  0  3  0  0  0  0  0  0
  161.1490  200.9840  148.0610 O   0  0  0  0  0  1  0  0  0  0  0  0
  162.5570  205.5690  146.6070 C   0  0  0  0  0  1  0  0  0  0  0  0
  161.6110  205.8960  147.7550 C   0  0  2  0  0  3  0  0  0  0  0  0
  162.1880  206.9930  148.6620 C   0  0  1  0  0  3  0  0  0  0  0  0
  162.4880  209.5000  148.6730 N   0  0  0  0  0  2  0  0  0  0  0  0
  161.7990  208.3560  148.1750 C   0  0  0  0  0  0  0  0  0  0  0  0
  160.8770  208.4880  147.3250 O   0  0  0  0  0  0  0  0  0  0  0  0
  162.1530  210.7880  148.2430 N   0  0  0  0  0  0  0  0  0  0  0  0
  161.4000  211.5380  148.9750 C   0  0  0  0  0  3  0  0  0  0  0  0
  160.9670  213.1800  148.4240 P   0  0  1  0  0  0  0  0  0  0  0  0
  159.4160  213.5650  148.9780 O   0  0  0  0  0  1  0  0  0  0  0  0
  161.9590  214.1770  148.9770 O   0  0  0  0  0  0  0  0  0  0  0  0
  160.9880  213.2290  146.6380 C   0  0  0  0  0  0  0  0  0  0  0  0
  160.1450  212.5590  145.9830 O   0  0  0  0  0  0  0  0  0  0  0  0
  161.9450  214.0500  145.9670 N   0  0  0  0  0  2  0  0  0  0  0  0
  161.9850  214.1850  144.5190 C   0  0  0  0  0  2  0  0  0  0  0  0
  162.7930  213.0500  143.9130 C   0  0  0  0  0  2  0  0  0  0  0  0
  162.6050  212.8120  141.5520 O   0  0  0  0  0  0  0  0  0  0  0  0
  162.1190  212.5530  142.6830 C   0  0  0  0  0  0  0  0  0  0  0  0
  160.9740  211.7750  142.7840 O   0  0  0  0  0  1  0  0  0  0  0  0
  162.7090  207.4520  150.7680 C   0  0  0  0  0  1  0  0  0  0  0  0
  161.7420  206.8260  149.9780 O   0  0  0  0  0  0  0  0  0  0  0  0
  160.2340  203.7170  152.0400 C   0  0  0  0  0  2  0  0  0  0  0  0
  161.2420  204.5780  152.7810 C   0  0  0  0  0  2  0  0  0  0  0  0
  161.3120  206.8490  153.9010 C   0  0  0  0  0  0  0  0  0  0  0  0
  162.4440  206.5850  154.3940 O   0  0  0  0  0  0  0  0  0  0  0  0
  160.6680  205.8850  153.0620 N   0  0  0  0  0  2  0  0  0  0  0  0
  159.9370  207.4820  156.4290 O   0  0  0  0  0  1  0  0  0  0  0  0
  160.1370  210.4170  153.4330 C   0  0  0  0  0  0  0  0  0  0  0  0
  160.6730  208.1550  154.1950 C   0  0  0  0  0  0  0  0  0  0  0  0
  160.7220  209.1600  153.2160 C   0  0  0  0  0  3  0  0  0  0  0  0
  160.0190  208.4320  155.4170 C   0  0  0  0  0  0  0  0  0  0  0  0
  159.4940  210.6700  154.6460 C   0  0  0  0  0  3  0  0  0  0  0  0
  159.4360  209.6850  155.6310 C   0  0  0  0  0  3  0  0  0  0  0  0
  160.1790  211.4220  152.4650 O   0  0  0  0  0  0  0  0  0  0  0  0
  159.2130  212.4620  152.3940 C   0  0  0  0  0  1  0  0  0  0  0  0
  1  2  1  0  0  0  0
  2  5  2  0  0  0  0
  3  6  2  0  0  0  0
  4  3  1  0  0  0  0
  4  1  2  0  0  0  0
  5 29  1  0  0  0  0
  6  5  1  0  0  0  0
  7  1  1  0  0  0  0
  9  8  1  6  0  0  0
  9  3  1  0  0  0  0
  9 10  1  0  0  0  0
 10 12  1  6  0  0  0
 10 28  1  0  0  0  0
 12 11  1  0  0  0  0
 13 12  2  0  0  0  0
 14 11  1  0  0  0  0
 14 15  2  0  0  0  0
 16 15  1  0  0  0  0
 16 18  2  1  0  0  0
 16 17  1  0  0  0  0
 19 16  1  0  0  0  0
 20 19  2  0  0  0  0
 21 19  1  0  0  0  0
 22 21  1  0  0  0  0
 23 22  1  0  0  0  0
 24 25  2  0  0  0  0
 25 26  1  0  0  0  0
 25 23  1  0  0  0  0
 28 27  1  0  0  0  0
 29 30  1  0  0  0  0
 30 33  1  0  0  0  0
 31 36  1  0  0  0  0
 31 32  2  0  0  0  0
 33 31  1  0  0  0  0
 35 39  1  0  0  0  0
 36 38  2  0  0  0  0
 37 35  2  0  0  0  0
 37 36  1  0  0  0  0
 38 40  1  0  0  0  0
 38 34  1  0  0  0  0
 39 40  2  0  0  0  0
 41 35  1  0  0  0  0
 42 41  1  0  0  0  0
M  END
>  <MODEL>
4

>  <REMARK>
 VINA RESULT:      -6.5      4.135      8.212
  Name = 
  15 active torsions:
  status: ('A' for Active; 'I' for Inactive)
    1  A    between atoms: C_1  and  P_20
    2  A    between atoms: C_4  and  C_32
    3  A    between atoms: C_4  and  N_42
    4  A    between atoms: C_5  and  C_32
    5  A    between atoms: C_6  and  O_21
    6  A    between atoms: C_9  and  C_12
    7  A    between atoms: C_10  and  C_19
    8  A    between atoms: C_10  and  C_23
    9  A    between atoms: C_10  and  O_38
   10  A    between atoms: N_11  and  N_37
   11  A    between atoms: C_14  and  C_25
   12  A    between atoms: C_14  and  C_26
   13  A    between atoms: C_16  and  C_19
   14  A    between atoms: P_20  and  C_41
   15  A    between atoms: C_26  and  N_29
                            x       y       z     vdW  Elec       q    Type
                         _______ _______ _______ _____ _____    ______ ____

>  <TORSDO>
F 15

$$$$
=
 OpenBabel11042420053D

 42 43  0  0  1  0  0  0  0  0999 V2000
  161.1170  202.8740  146.0250 C   0  0  0  0  0  0  0  0  0  0  0  0
  160.9870  203.8220  145.0060 C   0  0  0  0  0  3  0  0  0  0  0  0
  161.4640  204.6540  147.6400 C   0  0  0  0  0  0  0  0  0  0  0  0
  161.3550  203.2870  147.3390 C   0  0  0  0  0  3  0  0  0  0  0  0
  161.1010  205.1860  145.3000 C   0  0  0  0  0  0  0  0  0  0  0  0
  161.3340  205.5990  146.6160 C   0  0  0  0  0  3  0  0  0  0  0  0
  161.0070  201.5220  145.7310 O   0  0  0  0  0  1  0  0  0  0  0  0
  160.7480  204.4190  149.9980 C   0  0  0  0  0  1  0  0  0  0  0  0
  161.7030  205.1250  149.0430 C   0  0  2  0  0  3  0  0  0  0  0  0
  161.5900  206.6520  149.1640 C   0  0  1  0  0  3  0  0  0  0  0  0
  160.7790  207.9110  151.1970 N   0  0  0  0  0  2  0  0  0  0  0  0
  161.7760  207.0960  150.5820 C   0  0  0  0  0  0  0  0  0  0  0  0
  162.7990  206.7450  151.2300 O   0  0  0  0  0  0  0  0  0  0  0  0
  160.9180  208.3460  152.5190 N   0  0  0  0  0  0  0  0  0  0  0  0
  160.4840  209.5110  152.8640 C   0  0  0  0  0  3  0  0  0  0  0  0
  160.6650  210.0680  154.5500 P   0  0  1  0  0  0  0  0  0  0  0  0
  160.1640  208.8420  155.6010 O   0  0  0  0  0  1  0  0  0  0  0  0
  162.1150  210.3990  154.8210 O   0  0  0  0  0  0  0  0  0  0  0  0
  159.6520  211.5180  154.8050 C   0  0  0  0  0  0  0  0  0  0  0  0
  159.9880  212.3730  155.6680 O   0  0  0  0  0  0  0  0  0  0  0  0
  158.4830  211.7100  154.0070 N   0  0  0  0  0  2  0  0  0  0  0  0
  157.6430  212.8930  154.1180 C   0  0  0  0  0  2  0  0  0  0  0  0
  156.2020  212.4860  154.3730 C   0  0  0  0  0  2  0  0  0  0  0  0
  155.5150  210.6810  155.7650 O   0  0  0  0  0  0  0  0  0  0  0  0
  156.0990  211.7930  155.6860 C   0  0  0  0  0  0  0  0  0  0  0  0
  156.6760  212.3560  156.8160 O   0  0  0  0  0  1  0  0  0  0  0  0
  162.2290  208.6380  148.4150 C   0  0  0  0  0  1  0  0  0  0  0  0
  162.5420  207.2800  148.3520 O   0  0  0  0  0  0  0  0  0  0  0  0
  160.9440  206.1950  144.2170 C   0  0  0  0  0  2  0  0  0  0  0  0
  161.6720  205.7360  142.9660 C   0  0  0  0  0  2  0  0  0  0  0  0
  162.1900  206.6520  140.6610 C   0  0  0  0  0  0  0  0  0  0  0  0
  163.0590  205.7550  140.4860 O   0  0  0  0  0  0  0  0  0  0  0  0
  161.4430  206.6800  141.8830 N   0  0  0  0  0  2  0  0  0  0  0  0
  162.3340  206.0720  137.7760 O   0  0  0  0  0  1  0  0  0  0  0  0
  161.3960  209.9700  139.0210 C   0  0  0  0  0  0  0  0  0  0  0  0
  161.9510  207.6590  139.5980 C   0  0  0  0  0  0  0  0  0  0  0  0
  161.6330  208.9730  139.9790 C   0  0  0  0  0  3  0  0  0  0  0  0
  162.0270  207.3530  138.2200 C   0  0  0  0  0  0  0  0  0  0  0  0
  161.4780  209.6490  137.6650 C   0  0  0  0  0  3  0  0  0  0  0  0
  161.7910  208.3490  137.2680 C   0  0  0  0  0  3  0  0  0  0  0  0
  161.0810  211.2800  139.3890 O   0  0  0  0  0  0  0  0  0  0  0  0
  159.8370  211.6340  139.9790 C   0  0  0  0  0  1  0  0  0  0  0  0
  1  4  1  0  0  0  0
  2  5  1  0  0  0  0
  2  1  2  0  0  0  0
  3  9  1  0  0  0  0
  4  3  2  0  0  0  0
  5  6  2  0  0  0  0
  6  3  1  0  0  0  0
  7  1  1  0  0  0  0
  9 10  1  0  0  0  0
  9  8  1  1  0  0  0
 10 28  1  6  0  0  0
 10 12  1  0  0  0  0
 11 14  1  0  0  0  0
 12 11  1  0  0  0  0
 12 13  2  0  0  0  0
 14 15  2  0  0  0  0
 15 16  1  0  0  0  0
 16 19  1  0  0  0  0
 16 18  2  1  0  0  0
 16 17  1  0  0  0  0
 19 20  2  0  0  0  0
 21 22  1  0  0  0  0
 21 19  1  0  0  0  0
 22 23  1  0  0  0  0
 23 25  1  0  0  0  0
 25 24  2  0  0  0  0
 25 26  1  0  0  0  0
 28 27  1  0  0  0  0
 29  5  1  0  0  0  0
 30 29  1  0  0  0  0
 31 33  1  0  0  0  0
 32 31  2  0  0  0  0
 33 30  1  0  0  0  0
 34 38  1  0  0  0  0
 35 41  1  0  0  0  0
 35 37  1  0  0  0  0
 36 37  2  0  0  0  0
 36 31  1  0  0  0  0
 38 36  1  0  0  0  0
 39 35  2  0  0  0  0
 40 39  1  0  0  0  0
 40 38  2  0  0  0  0
 41 42  1  0  0  0  0
M  END
>  <MODEL>
5

>  <REMARK>
 VINA RESULT:      -6.4      4.382      7.561
  Name = 
  15 active torsions:
  status: ('A' for Active; 'I' for Inactive)
    1  A    between atoms: C_1  and  P_20
    2  A    between atoms: C_4  and  C_32
    3  A    between atoms: C_4  and  N_42
    4  A    between atoms: C_5  and  C_32
    5  A    between atoms: C_6  and  O_21
    6  A    between atoms: C_9  and  C_12
    7  A    between atoms: C_10  and  C_19
    8  A    between atoms: C_10  and  C_23
    9  A    between atoms: C_10  and  O_38
   10  A    between atoms: N_11  and  N_37
   11  A    between atoms: C_14  and  C_25
   12  A    between atoms: C_14  and  C_26
   13  A    between atoms: C_16  and  C_19
   14  A    between atoms: P_20  and  C_41
   15  A    between atoms: C_26  and  N_29
                            x       y       z     vdW  Elec       q    Type
                         _______ _______ _______ _____ _____    ______ ____

>  <TORSDO>
F 15

$$$$
=
 OpenBabel11042420053D

 42 43  0  0  1  0  0  0  0  0999 V2000
  161.6880  204.3140  146.3460 C   0  0  0  0  0  0  0  0  0  0  0  0
  162.2440  205.5810  146.5390 C   0  0  0  0  0  3  0  0  0  0  0  0
  161.1820  204.1730  148.7160 C   0  0  0  0  0  0  0  0  0  0  0  0
  161.1580  203.6100  147.4300 C   0  0  0  0  0  3  0  0  0  0  0  0
  162.2760  206.1450  147.8200 C   0  0  0  0  0  0  0  0  0  0  0  0
  161.7400  205.4420  148.9040 C   0  0  0  0  0  3  0  0  0  0  0  0
  161.6610  203.7550  145.0750 O   0  0  0  0  0  1  0  0  0  0  0  0
  159.3620  204.1700  150.3950 C   0  0  0  0  0  1  0  0  0  0  0  0
  160.6050  203.4460  149.8940 C   0  0  2  0  0  3  0  0  0  0  0  0
  161.6370  203.2620  151.0170 C   0  0  1  0  0  3  0  0  0  0  0  0
  161.6130  205.3000  152.5070 N   0  0  0  0  0  2  0  0  0  0  0  0
  161.2000  203.9560  152.2700 C   0  0  0  0  0  0  0  0  0  0  0  0
  160.4660  203.3600  153.1050 O   0  0  0  0  0  0  0  0  0  0  0  0
  161.2250  205.9810  153.6660 N   0  0  0  0  0  0  0  0  0  0  0  0
  161.2840  207.2690  153.7080 C   0  0  0  0  0  3  0  0  0  0  0  0
  160.7940  208.1380  155.1890 P   0  0  1  0  0  0  0  0  0  0  0  0
  159.4150  207.4040  155.8360 O   0  0  0  0  0  0  0  0  0  0  0  0
  161.9140  208.0820  156.2030 O   0  0  0  0  0  1  0  0  0  0  0  0
  160.4270  209.8380  154.7820 C   0  0  0  0  0  0  0  0  0  0  0  0
  161.0880  210.4240  153.8830 O   0  0  0  0  0  0  0  0  0  0  0  0
  159.3660  210.5120  155.4620 N   0  0  0  0  0  2  0  0  0  0  0  0
  158.9730  211.8760  155.1440 C   0  0  0  0  0  2  0  0  0  0  0  0
  157.9280  211.8740  154.0410 C   0  0  0  0  0  2  0  0  0  0  0  0
  156.3120  213.5910  153.7250 O   0  0  0  0  0  0  0  0  0  0  0  0
  156.7470  212.6720  154.4650 C   0  0  0  0  0  0  0  0  0  0  0  0
  156.1040  212.3800  155.6600 O   0  0  0  0  0  1  0  0  0  0  0  0
  161.0590  201.2330  150.3350 C   0  0  0  0  0  1  0  0  0  0  0  0
  161.8340  201.9020  151.2840 O   0  0  0  0  0  0  0  0  0  0  0  0
  162.8510  207.5020  148.0200 C   0  0  0  0  0  2  0  0  0  0  0  0
  161.9760  208.3070  148.9660 C   0  0  0  0  0  2  0  0  0  0  0  0
  161.7900  210.8330  148.9920 C   0  0  0  0  0  0  0  0  0  0  0  0
  162.3350  210.8740  150.1290 O   0  0  0  0  0  0  0  0  0  0  0  0
  161.6030  209.5690  148.3470 N   0  0  0  0  0  2  0  0  0  0  0  0
  160.2790  212.9620  150.3580 O   0  0  0  0  0  1  0  0  0  0  0  0
  161.3090  213.4700  146.3190 C   0  0  0  0  0  0  0  0  0  0  0  0
  161.3580  212.0940  148.3410 C   0  0  0  0  0  0  0  0  0  0  0  0
  161.6880  212.2980  146.9910 C   0  0  0  0  0  3  0  0  0  0  0  0
  160.6330  213.1000  149.0200 C   0  0  0  0  0  0  0  0  0  0  0  0
  160.5920  214.4500  147.0070 C   0  0  0  0  0  3  0  0  0  0  0  0
  160.2570  214.2660  148.3480 C   0  0  0  0  0  3  0  0  0  0  0  0
  161.6300  213.6810  144.9770 O   0  0  0  0  0  0  0  0  0  0  0  0
  162.8590  213.2540  144.4040 C   0  0  0  0  0  1  0  0  0  0  0  0
  1  2  2  0  0  0  0
  1  4  1  0  0  0  0
  2  5  1  0  0  0  0
  3  6  1  0  0  0  0
  3  9  1  0  0  0  0
  4  3  2  0  0  0  0
  5 29  1  0  0  0  0
  5  6  2  0  0  0  0
  7  1  1  0  0  0  0
  9  8  1  1  0  0  0
  9 10  1  0  0  0  0
 10 28  1  1  0  0  0
 10 12  1  0  0  0  0
 11 14  1  0  0  0  0
 12 11  1  0  0  0  0
 12 13  2  0  0  0  0
 14 15  2  0  0  0  0
 15 16  1  0  0  0  0
 16 17  2  1  0  0  0
 16 18  1  0  0  0  0
 19 16  1  0  0  0  0
 19 21  1  0  0  0  0
 20 19  2  0  0  0  0
 22 21  1  0  0  0  0
 23 25  1  0  0  0  0
 23 22  1  0  0  0  0
 24 25  2  0  0  0  0
 25 26  1  0  0  0  0
 27 28  1  0  0  0  0
 29 30  1  0  0  0  0
 31 32  2  0  0  0  0
 33 30  1  0  0  0  0
 33 31  1  0  0  0  0
 35 37  2  0  0  0  0
 35 39  1  0  0  0  0
 36 31  1  0  0  0  0
 36 38  2  0  0  0  0
 37 36  1  0  0  0  0
 38 34  1  0  0  0  0
 39 40  2  0  0  0  0
 40 38  1  0  0  0  0
 41 35  1  0  0  0  0
 42 41  1  0  0  0  0
M  END
>  <MODEL>
6

>  <REMARK>
 VINA RESULT:      -6.3      3.223      7.587
  Name = 
  15 active torsions:
  status: ('A' for Active; 'I' for Inactive)
    1  A    between atoms: C_1  and  P_20
    2  A    between atoms: C_4  and  C_32
    3  A    between atoms: C_4  and  N_42
    4  A    between atoms: C_5  and  C_32
    5  A    between atoms: C_6  and  O_21
    6  A    between atoms: C_9  and  C_12
    7  A    between atoms: C_10  and  C_19
    8  A    between atoms: C_10  and  C_23
    9  A    between atoms: C_10  and  O_38
   10  A    between atoms: N_11  and  N_37
   11  A    between atoms: C_14  and  C_25
   12  A    between atoms: C_14  and  C_26
   13  A    between atoms: C_16  and  C_19
   14  A    between atoms: P_20  and  C_41
   15  A    between atoms: C_26  and  N_29
                            x       y       z     vdW  Elec       q    Type
                         _______ _______ _______ _____ _____    ______ ____

>  <TORSDO>
F 15

$$$$
=
 OpenBabel11042420053D

 42 43  0  0  1  0  0  0  0  0999 V2000
  161.4000  203.6900  146.6720 C   0  0  0  0  0  0  0  0  0  0  0  0
  161.9140  204.9790  146.5040 C   0  0  0  0  0  3  0  0  0  0  0  0
  161.0800  204.1230  149.0390 C   0  0  0  0  0  0  0  0  0  0  0  0
  160.9830  203.2620  147.9350 C   0  0  0  0  0  3  0  0  0  0  0  0
  162.0170  205.8400  147.6030 C   0  0  0  0  0  0  0  0  0  0  0  0
  161.5950  205.4120  148.8660 C   0  0  0  0  0  3  0  0  0  0  0  0
  161.3010  202.8360  145.5820 O   0  0  0  0  0  1  0  0  0  0  0  0
  159.4350  204.5370  150.8420 C   0  0  0  0  0  1  0  0  0  0  0  0
  160.6250  203.6950  150.4020 C   0  0  2  0  0  3  0  0  0  0  0  0
  161.7640  203.7520  151.4320 C   0  0  1  0  0  3  0  0  0  0  0  0
  161.9350  206.1090  152.3190 N   0  0  0  0  0  2  0  0  0  0  0  0
  161.4800  204.7690  152.4940 C   0  0  0  0  0  0  0  0  0  0  0  0
  160.8370  204.4460  153.5290 O   0  0  0  0  0  0  0  0  0  0  0  0
  161.6910  207.0870  153.2890 N   0  0  0  0  0  0  0  0  0  0  0  0
  161.3130  208.2690  152.9340 C   0  0  0  0  0  3  0  0  0  0  0  0
  161.0050  209.5180  154.1710 P   0  0  1  0  0  0  0  0  0  0  0  0
  160.4990  208.7740  155.6030 O   0  0  0  0  0  1  0  0  0  0  0  0
  162.2750  210.2960  154.4320 O   0  0  0  0  0  0  0  0  0  0  0  0
  159.7260  210.6210  153.5910 C   0  0  0  0  0  0  0  0  0  0  0  0
  159.3540  210.5720  152.3880 O   0  0  0  0  0  0  0  0  0  0  0  0
  159.1140  211.5330  154.5050 N   0  0  0  0  0  2  0  0  0  0  0  0
  158.0270  212.4200  154.1180 C   0  0  0  0  0  2  0  0  0  0  0  0
  156.7010  211.8630  154.6050 C   0  0  0  0  0  2  0  0  0  0  0  0
  155.6920  212.8260  156.5330 O   0  0  0  0  0  1  0  0  0  0  0  0
  155.9320  212.9280  155.3030 C   0  0  0  0  0  0  0  0  0  0  0  0
  155.5090  214.0500  154.6040 O   0  0  0  0  0  0  0  0  0  0  0  0
  161.2360  201.6090  151.2220 C   0  0  0  0  0  1  0  0  0  0  0  0
  161.9490  202.4990  152.0270 O   0  0  0  0  0  0  0  0  0  0  0  0
  162.5470  207.2180  147.4190 C   0  0  0  0  0  2  0  0  0  0  0  0
  162.2310  208.0670  148.6380 C   0  0  0  0  0  2  0  0  0  0  0  0
  161.9660  210.5410  149.1120 C   0  0  0  0  0  0  0  0  0  0  0  0
  162.3870  210.3740  150.2890 O   0  0  0  0  0  0  0  0  0  0  0  0
  161.8860  209.4190  148.2270 N   0  0  0  0  0  2  0  0  0  0  0  0
  163.8310  212.5240  147.9850 O   0  0  0  0  0  1  0  0  0  0  0  0
  159.7750  213.5370  148.3670 C   0  0  0  0  0  0  0  0  0  0  0  0
  161.5660  211.8980  148.6630 C   0  0  0  0  0  0  0  0  0  0  0  0
  160.2160  212.2690  148.7740 C   0  0  0  0  0  3  0  0  0  0  0  0
  162.4820  212.8300  148.1260 C   0  0  0  0  0  0  0  0  0  0  0  0
  160.6950  214.4440  147.8410 C   0  0  0  0  0  3  0  0  0  0  0  0
  162.0400  214.0930  147.7220 C   0  0  0  0  0  3  0  0  0  0  0  0
  158.4350  213.9170  148.4750 O   0  0  0  0  0  0  0  0  0  0  0  0
  157.3800  213.1950  147.8540 C   0  0  0  0  0  1  0  0  0  0  0  0
  1  4  1  0  0  0  0
  2  1  2  0  0  0  0
  2  5  1  0  0  0  0
  3  9  1  0  0  0  0
  4  3  2  0  0  0  0
  5  6  2  0  0  0  0
  6  3  1  0  0  0  0
  7  1  1  0  0  0  0
  9  8  1  1  0  0  0
  9 10  1  0  0  0  0
 10 28  1  1  0  0  0
 10 12  1  0  0  0  0
 11 12  1  0  0  0  0
 11 14  1  0  0  0  0
 12 13  2  0  0  0  0
 15 14  2  0  0  0  0
 15 16  1  0  0  0  0
 16 18  2  1  0  0  0
 16 17  1  0  0  0  0
 19 16  1  0  0  0  0
 19 21  1  0  0  0  0
 20 19  2  0  0  0  0
 22 21  1  0  0  0  0
 22 23  1  0  0  0  0
 23 25  1  0  0  0  0
 25 24  1  0  0  0  0
 26 25  2  0  0  0  0
 27 28  1  0  0  0  0
 29  5  1  0  0  0  0
 29 30  1  0  0  0  0
 31 32  2  0  0  0  0
 33 30  1  0  0  0  0
 33 31  1  0  0  0  0
 34 38  1  0  0  0  0
 35 41  1  0  0  0  0
 35 37  1  0  0  0  0
 36 37  2  0  0  0  0
 36 31  1  0  0  0  0
 38 36  1  0  0  0  0
 39 35  2  0  0  0  0
 40 39  1  0  0  0  0
 40 38  2  0  0  0  0
 42 41  1  0  0  0  0
M  END
>  <MODEL>
7

>  <REMARK>
 VINA RESULT:      -6.0      3.012      7.425
  Name = 
  15 active torsions:
  status: ('A' for Active; 'I' for Inactive)
    1  A    between atoms: C_1  and  P_20
    2  A    between atoms: C_4  and  C_32
    3  A    between atoms: C_4  and  N_42
    4  A    between atoms: C_5  and  C_32
    5  A    between atoms: C_6  and  O_21
    6  A    between atoms: C_9  and  C_12
    7  A    between atoms: C_10  and  C_19
    8  A    between atoms: C_10  and  C_23
    9  A    between atoms: C_10  and  O_38
   10  A    between atoms: N_11  and  N_37
   11  A    between atoms: C_14  and  C_25
   12  A    between atoms: C_14  and  C_26
   13  A    between atoms: C_16  and  C_19
   14  A    between atoms: P_20  and  C_41
   15  A    between atoms: C_26  and  N_29
                            x       y       z     vdW  Elec       q    Type
                         _______ _______ _______ _____ _____    ______ ____

>  <TORSDO>
F 15

$$$$
=
 OpenBabel11042420053D

 42 43  0  0  1  0  0  0  0  0999 V2000
  162.0880  206.7520  151.7530 C   0  0  0  0  0  0  0  0  0  0  0  0
  161.6340  205.4360  151.6360 C   0  0  0  0  0  3  0  0  0  0  0  0
  161.1490  206.8790  153.9890 C   0  0  0  0  0  0  0  0  0  0  0  0
  161.8470  207.4730  152.9260 C   0  0  0  0  0  3  0  0  0  0  0  0
  160.9330  204.8400  152.6910 C   0  0  0  0  0  0  0  0  0  0  0  0
  160.6970  205.5600  153.8660 C   0  0  0  0  0  3  0  0  0  0  0  0
  162.7800  207.3430  150.7050 O   0  0  0  0  0  1  0  0  0  0  0  0
  159.4380  208.0760  155.3180 C   0  0  0  0  0  1  0  0  0  0  0  0
  160.8920  207.6240  155.2640 C   0  0  2  0  0  3  0  0  0  0  0  0
  161.8540  208.8080  155.4420 C   0  0  1  0  0  3  0  0  0  0  0  0
  160.0520  210.5760  155.4720 N   0  0  0  0  0  2  0  0  0  0  0  0
  161.2580  210.0730  154.9030 C   0  0  0  0  0  0  0  0  0  0  0  0
  161.8240  210.6920  153.9620 O   0  0  0  0  0  0  0  0  0  0  0  0
  159.4650  211.7530  154.9960 N   0  0  0  0  0  0  0  0  0  0  0  0
  158.9410  211.7820  153.8170 C   0  0  0  0  0  3  0  0  0  0  0  0
  158.1970  213.2860  153.2070 P   0  0  1  0  0  0  0  0  0  0  0  0
  156.5130  213.1470  153.2820 O   0  0  0  0  0  0  0  0  0  0  0  0
  158.6420  214.4530  154.0580 O   0  0  0  0  0  1  0  0  0  0  0  0
  158.6950  213.5450  151.5110 C   0  0  0  0  0  0  0  0  0  0  0  0
  157.8650  213.3690  150.5800 O   0  0  0  0  0  0  0  0  0  0  0  0
  160.0270  213.9780  151.2260 N   0  0  0  0  0  2  0  0  0  0  0  0
  160.4870  214.2650  149.8760 C   0  0  0  0  0  2  0  0  0  0  0  0
  160.1460  213.1070  148.9530 C   0  0  0  0  0  2  0  0  0  0  0  0
  161.9050  211.6580  149.6380 O   0  0  0  0  0  1  0  0  0  0  0  0
  161.3630  212.2920  148.6970 C   0  0  0  0  0  0  0  0  0  0  0  0
  161.8820  212.2030  147.4120 O   0  0  0  0  0  0  0  0  0  0  0  0
  162.9950  210.1090  156.8270 C   0  0  0  0  0  1  0  0  0  0  0  0
  162.1710  208.9830  156.7940 O   0  0  0  0  0  0  0  0  0  0  0  0
  160.4680  203.4310  152.5710 C   0  0  0  0  0  2  0  0  0  0  0  0
  161.3570  202.6670  151.6060 C   0  0  0  0  0  2  0  0  0  0  0  0
  161.2340  202.4720  149.0830 C   0  0  0  0  0  0  0  0  0  0  0  0
  161.2270  201.2140  149.1680 O   0  0  0  0  0  0  0  0  0  0  0  0
  161.2760  203.2580  150.2800 N   0  0  0  0  0  2  0  0  0  0  0  0
  161.0030  200.9940  146.5450 O   0  0  0  0  0  1  0  0  0  0  0  0
  161.2260  205.1850  146.4440 C   0  0  0  0  0  0  0  0  0  0  0  0
  161.1910  203.1160  147.7480 C   0  0  0  0  0  0  0  0  0  0  0  0
  161.2610  204.5170  147.6770 C   0  0  0  0  0  3  0  0  0  0  0  0
  161.0800  202.3820  146.5440 C   0  0  0  0  0  0  0  0  0  0  0  0
  161.1170  204.4430  145.2670 C   0  0  0  0  0  3  0  0  0  0  0  0
  161.0450  203.0510  145.3170 C   0  0  0  0  0  3  0  0  0  0  0  0
  161.2960  206.5780  146.3630 O   0  0  0  0  0  0  0  0  0  0  0  0
  161.5820  207.3990  147.4870 C   0  0  0  0  0  1  0  0  0  0  0  0
  1  4  1  0  0  0  0
  2  1  2  0  0  0  0
  2  5  1  0  0  0  0
  3  9  1  0  0  0  0
  4  3  2  0  0  0  0
  5  6  2  0  0  0  0
  6  3  1  0  0  0  0
  7  1  1  0  0  0  0
  9  8  1  6  0  0  0
  9 10  1  0  0  0  0
 10 12  1  1  0  0  0
 10 28  1  0  0  0  0
 12 11  1  0  0  0  0
 13 12  2  0  0  0  0
 14 11  1  0  0  0  0
 15 14  2  0  0  0  0
 16 17  2  1  0  0  0
 16 15  1  0  0  0  0
 16 18  1  0  0  0  0
 19 16  1  0  0  0  0
 20 19  2  0  0  0  0
 21 19  1  0  0  0  0
 22 21  1  0  0  0  0
 23 22  1  0  0  0  0
 25 23  1  0  0  0  0
 25 24  1  0  0  0  0
 26 25  2  0  0  0  0
 28 27  1  0  0  0  0
 29  5  1  0  0  0  0
 30 29  1  0  0  0  0
 31 32  2  0  0  0  0
 31 33  1  0  0  0  0
 33 30  1  0  0  0  0
 35 37  1  0  0  0  0
 36 31  1  0  0  0  0
 37 36  2  0  0  0  0
 38 34  1  0  0  0  0
 38 36  1  0  0  0  0
 39 40  1  0  0  0  0
 39 35  2  0  0  0  0
 40 38  2  0  0  0  0
 41 35  1  0  0  0  0
 41 42  1  0  0  0  0
M  END
>  <MODEL>
8

>  <REMARK>
 VINA RESULT:      -6.0      1.854      2.365
  Name = 
  15 active torsions:
  status: ('A' for Active; 'I' for Inactive)
    1  A    between atoms: C_1  and  P_20
    2  A    between atoms: C_4  and  C_32
    3  A    between atoms: C_4  and  N_42
    4  A    between atoms: C_5  and  C_32
    5  A    between atoms: C_6  and  O_21
    6  A    between atoms: C_9  and  C_12
    7  A    between atoms: C_10  and  C_19
    8  A    between atoms: C_10  and  C_23
    9  A    between atoms: C_10  and  O_38
   10  A    between atoms: N_11  and  N_37
   11  A    between atoms: C_14  and  C_25
   12  A    between atoms: C_14  and  C_26
   13  A    between atoms: C_16  and  C_19
   14  A    between atoms: P_20  and  C_41
   15  A    between atoms: C_26  and  N_29
                            x       y       z     vdW  Elec       q    Type
                         _______ _______ _______ _____ _____    ______ ____

>  <TORSDO>
F 15

$$$$
=
 OpenBabel11042420053D

 42 43  0  0  1  0  0  0  0  0999 V2000
  160.7640  212.9370  147.2900 C   0  0  0  0  0  0  0  0  0  0  0  0
  160.1820  213.7390  148.2760 C   0  0  0  0  0  3  0  0  0  0  0  0
  161.6340  211.4560  149.0060 C   0  0  0  0  0  0  0  0  0  0  0  0
  161.4880  211.7980  147.6530 C   0  0  0  0  0  3  0  0  0  0  0  0
  160.3290  213.4060  149.6270 C   0  0  0  0  0  0  0  0  0  0  0  0
  161.0500  212.2620  149.9890 C   0  0  0  0  0  3  0  0  0  0  0  0
  160.6200  213.2710  145.9500 O   0  0  0  0  0  1  0  0  0  0  0  0
  162.2200  209.1340  148.3780 C   0  0  0  0  0  1  0  0  0  0  0  0
  162.3910  210.2310  149.4220 C   0  0  2  0  0  3  0  0  0  0  0  0
  161.9760  209.7440  150.8180 C   0  0  1  0  0  3  0  0  0  0  0  0
  160.7390  207.5490  150.9760 N   0  0  0  0  0  2  0  0  0  0  0  0
  161.9790  208.2480  150.8920 C   0  0  0  0  0  0  0  0  0  0  0  0
  163.0680  207.6120  150.8700 O   0  0  0  0  0  0  0  0  0  0  0  0
  160.7020  206.1520  151.0470 N   0  0  0  0  0  0  0  0  0  0  0  0
  160.8150  205.4480  149.9720 C   0  0  0  0  0  3  0  0  0  0  0  0
  160.7630  203.6660  150.0610 P   0  0  1  0  0  0  0  0  0  0  0  0
  161.9260  203.1280  151.1640 O   0  0  0  0  0  1  0  0  0  0  0  0
  159.3920  203.2220  150.5210 O   0  0  0  0  0  0  0  0  0  0  0  0
  161.1130  202.9830  148.4480 C   0  0  0  0  0  0  0  0  0  0  0  0
  160.9880  201.7440  148.2510 O   0  0  0  0  0  0  0  0  0  0  0  0
  161.5070  203.8530  147.3850 N   0  0  0  0  0  2  0  0  0  0  0  0
  161.7530  203.3760  146.0320 C   0  0  0  0  0  2  0  0  0  0  0  0
  160.6620  203.8700  145.0990 C   0  0  0  0  0  2  0  0  0  0  0  0
  161.8350  205.7390  144.2080 O   0  0  0  0  0  0  0  0  0  0  0  0
  160.8350  205.3260  144.8480 C   0  0  0  0  0  0  0  0  0  0  0  0
  159.8740  206.2260  145.2900 O   0  0  0  0  0  1  0  0  0  0  0  0
  162.1260  210.1670  152.9890 C   0  0  0  0  0  1  0  0  0  0  0  0
  162.8390  210.2590  151.7930 O   0  0  0  0  0  0  0  0  0  0  0  0
  159.6930  214.2510  150.6740 C   0  0  0  0  0  2  0  0  0  0  0  0
  158.3610  213.6530  151.0900 C   0  0  0  0  0  2  0  0  0  0  0  0
  158.6620  212.0730  153.0480 C   0  0  0  0  0  0  0  0  0  0  0  0
  158.9700  211.1360  152.2610 O   0  0  0  0  0  0  0  0  0  0  0  0
  158.3660  213.3690  152.5170 N   0  0  0  0  0  2  0  0  0  0  0  0
  157.3790  213.8700  154.9990 O   0  0  0  0  0  1  0  0  0  0  0  0
  159.2090  210.3490  156.3730 C   0  0  0  0  0  0  0  0  0  0  0  0
  158.6170  211.8170  154.5080 C   0  0  0  0  0  0  0  0  0  0  0  0
  159.2180  210.6480  155.0020 C   0  0  0  0  0  3  0  0  0  0  0  0
  157.9940  212.6970  155.4230 C   0  0  0  0  0  0  0  0  0  0  0  0
  158.5900  211.2310  157.2610 C   0  0  0  0  0  3  0  0  0  0  0  0
  157.9880  212.3970  156.7880 C   0  0  0  0  0  3  0  0  0  0  0  0
  159.8040  209.1900  156.8750 O   0  0  0  0  0  0  0  0  0  0  0  0
  159.7080  207.9320  156.2200 C   0  0  0  0  0  1  0  0  0  0  0  0
  1  4  2  0  0  0  0
  1  2  1  0  0  0  0
  2  5  2  0  0  0  0
  3  9  1  0  0  0  0
  3  6  2  0  0  0  0
  4  3  1  0  0  0  0
  5  6  1  0  0  0  0
  5 29  1  0  0  0  0
  7  1  1  0  0  0  0
  9  8  1  6  0  0  0
  9 10  1  0  0  0  0
 10 12  1  6  0  0  0
 10 28  1  0  0  0  0
 11 14  1  0  0  0  0
 12 11  1  0  0  0  0
 13 12  2  0  0  0  0
 15 16  1  0  0  0  0
 15 14  2  0  0  0  0
 16 18  2  1  0  0  0
 16 17  1  0  0  0  0
 19 16  1  0  0  0  0
 20 19  2  0  0  0  0
 21 19  1  0  0  0  0
 22 21  1  0  0  0  0
 23 22  1  0  0  0  0
 24 25  2  0  0  0  0
 25 23  1  0  0  0  0
 25 26  1  0  0  0  0
 28 27  1  0  0  0  0
 29 30  1  0  0  0  0
 30 33  1  0  0  0  0
 31 36  1  0  0  0  0
 32 31  2  0  0  0  0
 33 31  1  0  0  0  0
 34 38  1  0  0  0  0
 35 41  1  0  0  0  0
 35 39  1  0  0  0  0
 36 37  1  0  0  0  0
 36 38  2  0  0  0  0
 37 35  2  0  0  0  0
 38 40  1  0  0  0  0
 40 39  2  0  0  0  0
 42 41  1  0  0  0  0
M  END
>  <MODEL>
9

>  <REMARK>
 VINA RESULT:      -5.8      3.077     10.357
  Name = 
  15 active torsions:
  status: ('A' for Active; 'I' for Inactive)
    1  A    between atoms: C_1  and  P_20
    2  A    between atoms: C_4  and  C_32
    3  A    between atoms: C_4  and  N_42
    4  A    between atoms: C_5  and  C_32
    5  A    between atoms: C_6  and  O_21
    6  A    between atoms: C_9  and  C_12
    7  A    between atoms: C_10  and  C_19
    8  A    between atoms: C_10  and  C_23
    9  A    between atoms: C_10  and  O_38
   10  A    between atoms: N_11  and  N_37
   11  A    between atoms: C_14  and  C_25
   12  A    between atoms: C_14  and  C_26
   13  A    between atoms: C_16  and  C_19
   14  A    between atoms: P_20  and  C_41
   15  A    between atoms: C_26  and  N_29
                            x       y       z     vdW  Elec       q    Type
                         _______ _______ _______ _____ _____    ______ ____

>  <TORSDO>
F 15

$$$$
