=
 OpenBabel11042420443D

 27 30  0  0  1  0  0  0  0  0999 V2000
  160.3220  209.2550  154.4170 C   0  0  0  0  0  3  0  0  0  0  0  0
  161.2140  207.6890  152.7150 C   0  0  0  0  0  0  0  0  0  0  0  0
  161.4960  206.4320  150.5650 C   0  0  0  0  0  0  0  0  0  0  0  0
  161.0430  202.9190  148.3100 C   0  0  0  0  0  0  0  0  0  0  0  0
  162.1410  208.8520  150.0750 C   0  0  2  0  0  3  0  0  0  0  0  0
  161.6760  206.8750  148.0880 S   0  0  0  0  0  0  0  0  0  0  0  0
  161.6770  207.4880  149.6730 C   0  0  0  0  0  0  0  0  0  0  0  0
  161.2620  204.1730  147.7100 C   0  0  0  0  0  3  0  0  0  0  0  0
  161.3310  205.1980  149.9160 C   0  0  0  0  0  0  0  0  0  0  0  0
  161.2880  209.4680  151.0880 N   0  0  0  0  0  0  0  0  0  0  0  0
  160.9690  208.9940  152.2580 C   0  0  0  0  0  0  0  0  0  0  0  0
  160.9700  202.8210  149.7170 C   0  0  0  0  0  3  0  0  0  0  0  0
  161.3970  205.2860  148.5350 C   0  0  0  0  0  0  0  0  0  0  0  0
  160.8380  207.6580  154.3480 S   0  0  0  0  0  0  0  0  0  0  0  0
  161.4370  206.5650  152.0280 C   0  0  0  0  0  3  0  0  0  0  0  0
  160.4520  209.8300  153.2000 N   0  0  0  0  0  0  0  0  0  0  0  0
  161.1150  203.9590  150.5260 C   0  0  0  0  0  3  0  0  0  0  0  0
  160.4500  201.8310  146.1210 N   0  0  0  0  0  2  0  0  0  0  0  0
  160.8920  201.7140  147.4760 C   0  0  0  0  0  0  0  0  0  0  0  0
  161.1520  200.5770  147.9560 O   0  0  0  0  0  0  0  0  0  0  0  0
  160.2860  200.6730  145.2600 C   0  0  0  0  0  1  0  0  0  0  0  0
  162.2670  209.7920  148.8830 C   0  0  0  0  0  2  0  0  0  0  0  0
  161.9570  211.2190  149.2990 C   0  0  0  0  0  2  0  0  0  0  0  0
  162.5380  212.2020  148.2980 C   0  0  0  0  0  2  0  0  0  0  0  0
  161.5220  212.5760  147.2720 C   0  0  0  0  0  0  0  0  0  0  0  0
  161.9280  212.9640  146.0020 O   0  0  0  0  0  0  0  0  0  0  0  0
  160.2980  212.5710  147.5660 O   0  0  0  0  0  1  0  0  0  0  0  0
  2 14  1  0  0  0  0
  3 15  1  0  0  0  0
  4 12  1  0  0  0  0
  5 22  1  6  0  0  0
  5 10  1  0  0  0  0
  6 13  1  0  0  0  0
  6  7  1  0  0  0  0
  7  5  1  0  0  0  0
  7  3  2  0  0  0  0
  8  4  2  0  0  0  0
  8 13  1  0  0  0  0
  9 17  1  0  0  0  0
  9  3  1  0  0  0  0
 10 11  2  0  0  0  0
 11  2  1  0  0  0  0
 11 16  1  0  0  0  0
 12 17  2  0  0  0  0
 13  9  2  0  0  0  0
 14  1  1  0  0  0  0
 15  2  2  0  0  0  0
 16  1  2  0  0  0  0
 18 19  1  0  0  0  0
 19 20  2  0  0  0  0
 19  4  1  0  0  0  0
 21 18  1  0  0  0  0
 22 23  1  0  0  0  0
 24 23  1  0  0  0  0
 25 27  1  0  0  0  0
 25 24  1  0  0  0  0
 26 25  2  0  0  0  0
M  END
>  <MODEL>
1

>  <REMARK>
 VINA RESULT:      -8.9      0.000      0.000
  Name = 
  5 active torsions:
  status: ('A' for Active; 'I' for Inactive)
    1  A    between atoms: C_1  and  C_14
    2  A    between atoms: C_1  and  C_18
    3  A    between atoms: C_6  and  C_7
    4  A    between atoms: C_8  and  C_11
    5  A    between atoms: C_11  and  C_14
                            x       y       z     vdW  Elec       q    Type
                         _______ _______ _______ _____ _____    ______ ____

>  <TORSDO>
F 5

$$$$
=
 OpenBabel11042420443D

 27 30  0  0  1  0  0  0  0  0999 V2000
  161.2210  200.9800  149.0380 C   0  0  0  0  0  3  0  0  0  0  0  0
  160.6560  203.1810  150.0290 C   0  0  0  0  0  0  0  0  0  0  0  0
  160.8460  205.5680  150.7690 C   0  0  0  0  0  0  0  0  0  0  0  0
  161.4210  208.4070  153.8080 C   0  0  0  0  0  0  0  0  0  0  0  0
  160.7510  205.6090  148.2180 C   0  0  2  0  0  3  0  0  0  0  0  0
  161.4870  207.8240  149.8390 S   0  0  0  0  0  0  0  0  0  0  0  0
  161.1030  206.1940  149.5490 C   0  0  0  0  0  0  0  0  0  0  0  0
  161.5840  208.7230  152.4460 C   0  0  0  0  0  3  0  0  0  0  0  0
  161.0110  206.4300  151.8640 C   0  0  0  0  0  0  0  0  0  0  0  0
  161.3420  204.2910  148.0010 N   0  0  0  0  0  0  0  0  0  0  0  0
  161.2200  203.2290  148.7430 C   0  0  0  0  0  0  0  0  0  0  0  0
  161.0520  207.0970  154.1820 C   0  0  0  0  0  3  0  0  0  0  0  0
  161.3760  207.7170  151.5060 C   0  0  0  0  0  0  0  0  0  0  0  0
  160.5150  201.5630  150.4460 S   0  0  0  0  0  0  0  0  0  0  0  0
  160.4820  204.1520  150.9290 C   0  0  0  0  0  3  0  0  0  0  0  0
  161.5500  202.0120  148.2310 N   0  0  0  0  0  0  0  0  0  0  0  0
  160.8440  206.1030  153.2130 C   0  0  0  0  0  3  0  0  0  0  0  0
  161.8600  209.0580  156.1980 N   0  0  0  0  0  2  0  0  0  0  0  0
  161.6320  209.4390  154.8380 C   0  0  0  0  0  0  0  0  0  0  0  0
  161.6130  210.6600  154.5220 O   0  0  0  0  0  0  0  0  0  0  0  0
  162.0730  210.0390  157.2480 C   0  0  0  0  0  1  0  0  0  0  0  0
  161.1320  206.5290  147.0660 C   0  0  0  0  0  2  0  0  0  0  0  0
  160.2330  206.2770  145.8680 C   0  0  0  0  0  2  0  0  0  0  0  0
  161.0520  205.8000  144.6810 C   0  0  0  0  0  2  0  0  0  0  0  0
  161.5140  204.3970  144.8870 C   0  0  0  0  0  0  0  0  0  0  0  0
  162.8560  204.1370  145.1360 O   0  0  0  0  0  1  0  0  0  0  0  0
  160.6950  203.4450  144.8060 O   0  0  0  0  0  0  0  0  0  0  0  0
  1 14  1  0  0  0  0
  2 14  1  0  0  0  0
  2 15  2  0  0  0  0
  3 15  1  0  0  0  0
  3  9  1  0  0  0  0
  4 12  1  0  0  0  0
  4 19  1  0  0  0  0
  5 22  1  6  0  0  0
  5  7  1  0  0  0  0
  6 13  1  0  0  0  0
  7  6  1  0  0  0  0
  7  3  2  0  0  0  0
  8  4  2  0  0  0  0
  9 17  1  0  0  0  0
 10  5  1  0  0  0  0
 10 11  2  0  0  0  0
 11  2  1  0  0  0  0
 13  9  2  0  0  0  0
 13  8  1  0  0  0  0
 16 11  1  0  0  0  0
 16  1  2  0  0  0  0
 17 12  2  0  0  0  0
 18 21  1  0  0  0  0
 19 18  1  0  0  0  0
 20 19  2  0  0  0  0
 23 22  1  0  0  0  0
 24 25  1  0  0  0  0
 24 23  1  0  0  0  0
 25 26  1  0  0  0  0
 27 25  2  0  0  0  0
M  END
>  <MODEL>
2

>  <REMARK>
 VINA RESULT:      -8.8      3.592      7.592
  Name = 
  5 active torsions:
  status: ('A' for Active; 'I' for Inactive)
    1  A    between atoms: C_1  and  C_14
    2  A    between atoms: C_1  and  C_18
    3  A    between atoms: C_6  and  C_7
    4  A    between atoms: C_8  and  C_11
    5  A    between atoms: C_11  and  C_14
                            x       y       z     vdW  Elec       q    Type
                         _______ _______ _______ _____ _____    ______ ____

>  <TORSDO>
F 5

$$$$
=
 OpenBabel11042420443D

 27 30  0  0  1  0  0  0  0  0999 V2000
  160.2420  208.9180  156.6920 C   0  0  0  0  0  3  0  0  0  0  0  0
  161.0870  207.6690  154.7240 C   0  0  0  0  0  0  0  0  0  0  0  0
  161.2200  206.6620  152.4330 C   0  0  0  0  0  0  0  0  0  0  0  0
  160.9580  203.3260  149.8980 C   0  0  0  0  0  0  0  0  0  0  0  0
  161.4110  209.1880  152.1220 C   0  0  2  0  0  3  0  0  0  0  0  0
  160.9480  207.3360  150.0170 S   0  0  0  0  0  0  0  0  0  0  0  0
  161.1000  207.8050  151.6440 C   0  0  0  0  0  0  0  0  0  0  0  0
  160.8910  204.6450  149.4110 C   0  0  0  0  0  3  0  0  0  0  0  0
  161.1440  205.4770  151.6840 C   0  0  0  0  0  0  0  0  0  0  0  0
  160.6420  209.5680  153.3040 N   0  0  0  0  0  0  0  0  0  0  0  0
  160.5820  208.9510  154.4490 C   0  0  0  0  0  0  0  0  0  0  0  0
  161.1180  203.0990  151.2810 C   0  0  0  0  0  3  0  0  0  0  0  0
  160.9830  205.6910  150.3250 C   0  0  0  0  0  0  0  0  0  0  0  0
  160.9760  207.4390  156.3810 S   0  0  0  0  0  0  0  0  0  0  0  0
  161.3680  206.6600  153.8960 C   0  0  0  0  0  3  0  0  0  0  0  0
  160.0960  209.6070  155.5380 N   0  0  0  0  0  0  0  0  0  0  0  0
  161.2130  204.1730  152.1810 C   0  0  0  0  0  3  0  0  0  0  0  0
  161.0140  202.3960  147.5600 N   0  0  0  0  0  2  0  0  0  0  0  0
  160.8620  202.1870  148.9670 C   0  0  0  0  0  0  0  0  0  0  0  0
  160.6480  201.0260  149.4110 O   0  0  0  0  0  0  0  0  0  0  0  0
  160.9290  201.3060  146.6050 C   0  0  0  0  0  1  0  0  0  0  0  0
  161.2090  210.2330  151.0330 C   0  0  0  0  0  2  0  0  0  0  0  0
  162.5090  210.4770  150.2870 C   0  0  0  0  0  2  0  0  0  0  0  0
  162.2480  210.6100  148.7960 C   0  0  0  0  0  2  0  0  0  0  0  0
  162.1710  212.0460  148.3980 C   0  0  0  0  0  0  0  0  0  0  0  0
  161.3760  212.9250  149.1220 O   0  0  0  0  0  1  0  0  0  0  0  0
  162.8010  212.4550  147.3880 O   0  0  0  0  0  0  0  0  0  0  0  0
  2 14  1  0  0  0  0
  3 15  1  0  0  0  0
  4 12  1  0  0  0  0
  5 22  1  6  0  0  0
  5 10  1  0  0  0  0
  6 13  1  0  0  0  0
  6  7  1  0  0  0  0
  7  5  1  0  0  0  0
  7  3  2  0  0  0  0
  8  4  2  0  0  0  0
  8 13  1  0  0  0  0
  9 17  1  0  0  0  0
  9  3  1  0  0  0  0
 10 11  2  0  0  0  0
 11  2  1  0  0  0  0
 11 16  1  0  0  0  0
 12 17  2  0  0  0  0
 13  9  2  0  0  0  0
 14  1  1  0  0  0  0
 15  2  2  0  0  0  0
 16  1  2  0  0  0  0
 18 19  1  0  0  0  0
 19 20  2  0  0  0  0
 19  4  1  0  0  0  0
 21 18  1  0  0  0  0
 23 22  1  0  0  0  0
 24 23  1  0  0  0  0
 25 24  1  0  0  0  0
 25 26  1  0  0  0  0
 27 25  2  0  0  0  0
M  END
>  <MODEL>
3

>  <REMARK>
 VINA RESULT:      -8.0      1.413      1.996
  Name = 
  5 active torsions:
  status: ('A' for Active; 'I' for Inactive)
    1  A    between atoms: C_1  and  C_14
    2  A    between atoms: C_1  and  C_18
    3  A    between atoms: C_6  and  C_7
    4  A    between atoms: C_8  and  C_11
    5  A    between atoms: C_11  and  C_14
                            x       y       z     vdW  Elec       q    Type
                         _______ _______ _______ _____ _____    ______ ____

>  <TORSDO>
F 5

$$$$
=
 OpenBabel11042420443D

 27 30  0  0  1  0  0  0  0  0999 V2000
  159.9270  208.8990  156.0630 C   0  0  0  0  0  3  0  0  0  0  0  0
  160.9030  207.5450  154.2290 C   0  0  0  0  0  0  0  0  0  0  0  0
  161.2750  206.5370  151.9650 C   0  0  0  0  0  0  0  0  0  0  0  0
  160.9650  203.2840  149.3290 C   0  0  0  0  0  0  0  0  0  0  0  0
  161.8800  209.0080  151.7620 C   0  0  2  0  0  3  0  0  0  0  0  0
  161.5160  207.2520  149.5580 S   0  0  0  0  0  0  0  0  0  0  0  0
  161.4580  207.6880  151.2000 C   0  0  0  0  0  0  0  0  0  0  0  0
  161.1740  204.6000  148.8760 C   0  0  0  0  0  3  0  0  0  0  0  0
  161.1560  205.3790  151.1810 C   0  0  0  0  0  0  0  0  0  0  0  0
  160.9850  209.4930  152.8090 N   0  0  0  0  0  0  0  0  0  0  0  0
  160.6430  208.8890  153.9100 C   0  0  0  0  0  0  0  0  0  0  0  0
  160.8540  203.0320  150.7140 C   0  0  0  0  0  3  0  0  0  0  0  0
  161.2600  205.6180  149.8210 C   0  0  0  0  0  0  0  0  0  0  0  0
  160.4810  207.3300  155.8380 S   0  0  0  0  0  0  0  0  0  0  0  0
  161.1710  206.5080  153.4320 C   0  0  0  0  0  3  0  0  0  0  0  0
  160.0800  209.6060  154.9210 N   0  0  0  0  0  0  0  0  0  0  0  0
  160.9500  204.0770  151.6460 C   0  0  0  0  0  3  0  0  0  0  0  0
  160.8420  202.4460  146.9600 N   0  0  0  0  0  2  0  0  0  0  0  0
  160.8650  202.1740  148.3640 C   0  0  0  0  0  0  0  0  0  0  0  0
  160.8000  200.9840  148.7760 O   0  0  0  0  0  0  0  0  0  0  0  0
  160.7450  201.3860  145.9720 C   0  0  0  0  0  1  0  0  0  0  0  0
  162.0180  210.0750  150.6840 C   0  0  0  0  0  2  0  0  0  0  0  0
  161.4660  211.4010  151.1770 C   0  0  0  0  0  2  0  0  0  0  0  0
  160.7380  212.1230  150.0550 C   0  0  0  0  0  2  0  0  0  0  0  0
  159.9780  213.2920  150.5840 C   0  0  0  0  0  0  0  0  0  0  0  0
  159.7270  214.3850  149.7650 O   0  0  0  0  0  0  0  0  0  0  0  0
  159.5890  213.3020  151.7810 O   0  0  0  0  0  1  0  0  0  0  0  0
  2 14  1  0  0  0  0
  3 15  1  0  0  0  0
  4 12  1  0  0  0  0
  5 22  1  6  0  0  0
  5 10  1  0  0  0  0
  6 13  1  0  0  0  0
  6  7  1  0  0  0  0
  7  5  1  0  0  0  0
  7  3  2  0  0  0  0
  8  4  2  0  0  0  0
  8 13  1  0  0  0  0
  9 17  1  0  0  0  0
  9  3  1  0  0  0  0
 10 11  2  0  0  0  0
 11  2  1  0  0  0  0
 11 16  1  0  0  0  0
 12 17  2  0  0  0  0
 13  9  2  0  0  0  0
 14  1  1  0  0  0  0
 15  2  2  0  0  0  0
 16  1  2  0  0  0  0
 18 19  1  0  0  0  0
 19 20  2  0  0  0  0
 19  4  1  0  0  0  0
 21 18  1  0  0  0  0
 22 23  1  0  0  0  0
 24 25  1  0  0  0  0
 24 23  1  0  0  0  0
 25 27  1  0  0  0  0
 26 25  2  0  0  0  0
M  END
>  <MODEL>
4

>  <REMARK>
 VINA RESULT:      -7.9      1.687      2.008
  Name = 
  5 active torsions:
  status: ('A' for Active; 'I' for Inactive)
    1  A    between atoms: C_1  and  C_14
    2  A    between atoms: C_1  and  C_18
    3  A    between atoms: C_6  and  C_7
    4  A    between atoms: C_8  and  C_11
    5  A    between atoms: C_11  and  C_14
                            x       y       z     vdW  Elec       q    Type
                         _______ _______ _______ _____ _____    ______ ____

>  <TORSDO>
F 5

$$$$
=
 OpenBabel11042420443D

 27 30  0  0  1  0  0  0  0  0999 V2000
  161.0900  206.2350  146.6230 C   0  0  0  0  0  3  0  0  0  0  0  0
  161.6720  206.7860  148.9690 C   0  0  0  0  0  0  0  0  0  0  0  0
  161.5230  207.0040  151.4610 C   0  0  0  0  0  0  0  0  0  0  0  0
  160.8710  209.3490  154.8820 C   0  0  0  0  0  0  0  0  0  0  0  0
  161.7700  204.5110  150.9690 C   0  0  2  0  0  3  0  0  0  0  0  0
  161.0170  205.5890  153.4880 S   0  0  0  0  0  0  0  0  0  0  0  0
  161.3600  205.6680  151.8260 C   0  0  0  0  0  0  0  0  0  0  0  0
  160.8000  207.9440  154.9110 C   0  0  0  0  0  3  0  0  0  0  0  0
  161.3250  207.8850  152.5360 C   0  0  0  0  0  0  0  0  0  0  0  0
  161.1460  204.5320  149.6490 N   0  0  0  0  0  0  0  0  0  0  0  0
  161.1870  205.4840  148.7620 C   0  0  0  0  0  0  0  0  0  0  0  0
  161.1710  210.0080  153.6700 C   0  0  0  0  0  3  0  0  0  0  0  0
  161.0260  207.2460  153.7280 C   0  0  0  0  0  0  0  0  0  0  0  0
  161.7320  207.5350  147.4710 S   0  0  0  0  0  0  0  0  0  0  0  0
  161.8270  207.4750  150.1020 C   0  0  0  0  0  3  0  0  0  0  0  0
  160.8450  205.2130  147.4720 N   0  0  0  0  0  0  0  0  0  0  0  0
  161.4000  209.2800  152.4920 C   0  0  0  0  0  3  0  0  0  0  0  0
  160.7060  211.5570  156.0760 N   0  0  0  0  0  2  0  0  0  0  0  0
  160.6360  210.1290  156.1100 C   0  0  0  0  0  0  0  0  0  0  0  0
  160.3720  209.5370  157.1920 O   0  0  0  0  0  0  0  0  0  0  0  0
  160.4810  212.3680  157.2600 C   0  0  0  0  0  1  0  0  0  0  0  0
  161.4890  203.1720  151.6380 C   0  0  0  0  0  2  0  0  0  0  0  0
  160.5080  202.3620  150.8090 C   0  0  0  0  0  2  0  0  0  0  0  0
  161.2050  201.1700  150.1760 C   0  0  0  0  0  2  0  0  0  0  0  0
  160.8760  201.0740  148.7250 C   0  0  0  0  0  0  0  0  0  0  0  0
  161.5850  200.2020  147.9090 O   0  0  0  0  0  0  0  0  0  0  0  0
  159.9770  201.8040  148.2320 O   0  0  0  0  0  1  0  0  0  0  0  0
  1 14  1  0  0  0  0
  1 16  2  0  0  0  0
  2 15  2  0  0  0  0
  3  7  2  0  0  0  0
  3  9  1  0  0  0  0
  4  8  1  0  0  0  0
  4 19  1  0  0  0  0
  5 22  1  1  0  0  0
  5  7  1  0  0  0  0
  6 13  1  0  0  0  0
  7  6  1  0  0  0  0
  9 13  1  0  0  0  0
 10  5  1  0  0  0  0
 11  2  1  0  0  0  0
 11 10  2  0  0  0  0
 12  4  2  0  0  0  0
 13  8  2  0  0  0  0
 14  2  1  0  0  0  0
 15  3  1  0  0  0  0
 16 11  1  0  0  0  0
 17  9  2  0  0  0  0
 17 12  1  0  0  0  0
 18 19  1  0  0  0  0
 18 21  1  0  0  0  0
 19 20  2  0  0  0  0
 23 22  1  0  0  0  0
 24 23  1  0  0  0  0
 25 24  1  0  0  0  0
 26 25  2  0  0  0  0
 27 25  1  0  0  0  0
M  END
>  <MODEL>
5

>  <REMARK>
 VINA RESULT:      -7.8      3.868      8.746
  Name = 
  5 active torsions:
  status: ('A' for Active; 'I' for Inactive)
    1  A    between atoms: C_1  and  C_14
    2  A    between atoms: C_1  and  C_18
    3  A    between atoms: C_6  and  C_7
    4  A    between atoms: C_8  and  C_11
    5  A    between atoms: C_11  and  C_14
                            x       y       z     vdW  Elec       q    Type
                         _______ _______ _______ _____ _____    ______ ____

>  <TORSDO>
F 5

$$$$
=
 OpenBabel11042420443D

 27 30  0  0  1  0  0  0  0  0999 V2000
  162.6270  210.6860  150.4090 C   0  0  0  0  0  3  0  0  0  0  0  0
  161.5710  208.4750  150.0320 C   0  0  0  0  0  0  0  0  0  0  0  0
  161.1650  206.0020  150.0770 C   0  0  0  0  0  0  0  0  0  0  0  0
  161.2110  202.2660  148.1620 C   0  0  0  0  0  0  0  0  0  0  0  0
  160.8320  206.8310  152.4680 C   0  0  2  0  0  3  0  0  0  0  0  0
  161.0760  204.0980  151.7290 S   0  0  0  0  0  0  0  0  0  0  0  0
  161.1290  205.7740  151.4520 C   0  0  0  0  0  0  0  0  0  0  0  0
  161.1570  202.3900  149.5630 C   0  0  0  0  0  3  0  0  0  0  0  0
  161.1850  204.8120  149.3320 C   0  0  0  0  0  0  0  0  0  0  0  0
  161.7400  207.9720  152.3850 N   0  0  0  0  0  0  0  0  0  0  0  0
  161.9820  208.7260  151.3520 C   0  0  0  0  0  0  0  0  0  0  0  0
  161.2520  203.4260  147.3590 C   0  0  0  0  0  3  0  0  0  0  0  0
  161.1490  203.6690  150.1130 C   0  0  0  0  0  0  0  0  0  0  0  0
  161.9180  209.8490  149.1370 S   0  0  0  0  0  0  0  0  0  0  0  0
  161.2200  207.3280  149.4440 C   0  0  0  0  0  3  0  0  0  0  0  0
  162.5850  209.9330  151.5310 N   0  0  0  0  0  0  0  0  0  0  0  0
  161.2380  204.7040  147.9390 C   0  0  0  0  0  3  0  0  0  0  0  0
  160.8340  200.7780  146.1690 N   0  0  0  0  0  2  0  0  0  0  0  0
  161.2240  200.9310  147.5370 C   0  0  0  0  0  0  0  0  0  0  0  0
  161.5780  199.9240  148.2070 O   0  0  0  0  0  0  0  0  0  0  0  0
  160.8310  199.4840  145.5090 C   0  0  0  0  0  1  0  0  0  0  0  0
  160.8400  206.2820  153.8880 C   0  0  0  0  0  2  0  0  0  0  0  0
  161.2500  207.3650  154.8710 C   0  0  0  0  0  2  0  0  0  0  0  0
  160.0560  207.8140  155.6960 C   0  0  0  0  0  2  0  0  0  0  0  0
  159.9560  209.3020  155.7160 C   0  0  0  0  0  0  0  0  0  0  0  0
  159.7070  209.9640  156.9110 O   0  0  0  0  0  1  0  0  0  0  0  0
  160.0660  209.9560  154.6470 O   0  0  0  0  0  0  0  0  0  0  0  0
  1 16  2  0  0  0  0
  2 11  1  0  0  0  0
  3  7  2  0  0  0  0
  4  8  1  0  0  0  0
  5 22  1  1  0  0  0
  7  6  1  0  0  0  0
  7  5  1  0  0  0  0
  8 13  2  0  0  0  0
  9  3  1  0  0  0  0
  9 13  1  0  0  0  0
 10  5  1  0  0  0  0
 11 16  1  0  0  0  0
 11 10  2  0  0  0  0
 12 17  1  0  0  0  0
 12  4  2  0  0  0  0
 13  6  1  0  0  0  0
 14  2  1  0  0  0  0
 14  1  1  0  0  0  0
 15  2  2  0  0  0  0
 15  3  1  0  0  0  0
 17  9  2  0  0  0  0
 18 19  1  0  0  0  0
 19  4  1  0  0  0  0
 19 20  2  0  0  0  0
 21 18  1  0  0  0  0
 22 23  1  0  0  0  0
 23 24  1  0  0  0  0
 24 25  1  0  0  0  0
 25 26  1  0  0  0  0
 27 25  2  0  0  0  0
M  END
>  <MODEL>
6

>  <REMARK>
 VINA RESULT:      -7.8      2.867      4.698
  Name = 
  5 active torsions:
  status: ('A' for Active; 'I' for Inactive)
    1  A    between atoms: C_1  and  C_14
    2  A    between atoms: C_1  and  C_18
    3  A    between atoms: C_6  and  C_7
    4  A    between atoms: C_8  and  C_11
    5  A    between atoms: C_11  and  C_14
                            x       y       z     vdW  Elec       q    Type
                         _______ _______ _______ _____ _____    ______ ____

>  <TORSDO>
F 5

$$$$
=
 OpenBabel11042420443D

 27 30  0  0  1  0  0  0  0  0999 V2000
  161.2880  204.9180  144.2760 C   0  0  0  0  0  3  0  0  0  0  0  0
  161.8450  205.3980  146.6440 C   0  0  0  0  0  0  0  0  0  0  0  0
  161.6270  205.6460  149.1280 C   0  0  0  0  0  0  0  0  0  0  0  0
  161.1530  208.0730  152.5210 C   0  0  0  0  0  0  0  0  0  0  0  0
  161.5630  203.1400  148.6450 C   0  0  2  0  0  3  0  0  0  0  0  0
  160.8600  204.3200  151.1330 S   0  0  0  0  0  0  0  0  0  0  0  0
  161.2760  204.3450  149.4850 C   0  0  0  0  0  0  0  0  0  0  0  0
  160.8970  206.6890  152.5470 C   0  0  0  0  0  3  0  0  0  0  0  0
  161.5030  206.5510  150.1940 C   0  0  0  0  0  0  0  0  0  0  0  0
  161.0000  203.2360  147.3010 N   0  0  0  0  0  0  0  0  0  0  0  0
  161.2010  204.1700  146.4170 C   0  0  0  0  0  0  0  0  0  0  0  0
  161.5840  208.6810  151.3230 C   0  0  0  0  0  3  0  0  0  0  0  0
  161.0770  205.9620  151.3730 C   0  0  0  0  0  0  0  0  0  0  0  0
  162.0610  206.1270  145.1490 S   0  0  0  0  0  0  0  0  0  0  0  0
  162.0430  206.0670  147.7820 C   0  0  0  0  0  3  0  0  0  0  0  0
  160.8780  203.9400  145.1140 N   0  0  0  0  0  0  0  0  0  0  0  0
  161.7620  207.9240  150.1540 C   0  0  0  0  0  3  0  0  0  0  0  0
  161.3400  210.2650  153.7410 N   0  0  0  0  0  2  0  0  0  0  0  0
  160.9740  208.8830  153.7390 C   0  0  0  0  0  0  0  0  0  0  0  0
  160.4960  208.3570  154.7820 O   0  0  0  0  0  0  0  0  0  0  0  0
  161.1810  211.1030  154.9160 C   0  0  0  0  0  1  0  0  0  0  0  0
  161.0830  201.8530  149.3020 C   0  0  0  0  0  2  0  0  0  0  0  0
  160.4690  200.9280  148.2650 C   0  0  0  0  0  2  0  0  0  0  0  0
  161.5520  200.1340  147.5550 C   0  0  0  0  0  2  0  0  0  0  0  0
  161.1210  199.7670  146.1750 C   0  0  0  0  0  0  0  0  0  0  0  0
  161.3860  198.4970  145.6790 O   0  0  0  0  0  1  0  0  0  0  0  0
  160.5440  200.6170  145.4480 O   0  0  0  0  0  0  0  0  0  0  0  0
  1 16  2  0  0  0  0
  1 14  1  0  0  0  0
  2 15  2  0  0  0  0
  3  7  2  0  0  0  0
  3  9  1  0  0  0  0
  4  8  1  0  0  0  0
  4 19  1  0  0  0  0
  5 22  1  1  0  0  0
  5  7  1  0  0  0  0
  6 13  1  0  0  0  0
  7  6  1  0  0  0  0
  9 13  1  0  0  0  0
 10  5  1  0  0  0  0
 11  2  1  0  0  0  0
 11 10  2  0  0  0  0
 12  4  2  0  0  0  0
 13  8  2  0  0  0  0
 14  2  1  0  0  0  0
 15  3  1  0  0  0  0
 16 11  1  0  0  0  0
 17  9  2  0  0  0  0
 17 12  1  0  0  0  0
 18 21  1  0  0  0  0
 19 18  1  0  0  0  0
 19 20  2  0  0  0  0
 23 22  1  0  0  0  0
 24 23  1  0  0  0  0
 25 24  1  0  0  0  0
 26 25  1  0  0  0  0
 27 25  2  0  0  0  0
M  END
>  <MODEL>
7

>  <REMARK>
 VINA RESULT:      -7.7      3.349      8.735
  Name = 
  5 active torsions:
  status: ('A' for Active; 'I' for Inactive)
    1  A    between atoms: C_1  and  C_14
    2  A    between atoms: C_1  and  C_18
    3  A    between atoms: C_6  and  C_7
    4  A    between atoms: C_8  and  C_11
    5  A    between atoms: C_11  and  C_14
                            x       y       z     vdW  Elec       q    Type
                         _______ _______ _______ _____ _____    ______ ____

>  <TORSDO>
F 5

$$$$
=
 OpenBabel11042420443D

 27 30  0  0  1  0  0  0  0  0999 V2000
  160.0240  211.3160  154.2440 C   0  0  0  0  0  3  0  0  0  0  0  0
  161.0650  209.6010  152.7880 C   0  0  0  0  0  0  0  0  0  0  0  0
  161.5250  208.1290  150.8120 C   0  0  0  0  0  0  0  0  0  0  0  0
  161.3030  204.3840  148.9280 C   0  0  0  0  0  0  0  0  0  0  0  0
  162.1540  210.5000  150.1060 C   0  0  2  0  0  3  0  0  0  0  0  0
  161.8710  208.3090  148.3200 S   0  0  0  0  0  0  0  0  0  0  0  0
  161.7470  209.0880  149.8250 C   0  0  0  0  0  0  0  0  0  0  0  0
  161.5390  205.5720  148.2110 C   0  0  0  0  0  3  0  0  0  0  0  0
  161.4310  206.8290  150.2910 C   0  0  0  0  0  0  0  0  0  0  0  0
  161.2190  211.1980  150.9860 N   0  0  0  0  0  0  0  0  0  0  0  0
  160.8280  210.8430  152.1760 C   0  0  0  0  0  0  0  0  0  0  0  0
  161.1330  204.4360  150.3280 C   0  0  0  0  0  3  0  0  0  0  0  0
  161.5930  206.7700  148.9170 C   0  0  0  0  0  0  0  0  0  0  0  0
  160.5750  209.7360  154.3850 S   0  0  0  0  0  0  0  0  0  0  0  0
  161.3590  208.4180  152.2450 C   0  0  0  0  0  3  0  0  0  0  0  0
  160.2280  211.7600  152.9840 N   0  0  0  0  0  0  0  0  0  0  0  0
  161.1970  205.6580  151.0170 C   0  0  0  0  0  3  0  0  0  0  0  0
  161.2040  201.8700  148.9640 N   0  0  0  0  0  2  0  0  0  0  0  0
  161.2360  203.0920  148.2220 C   0  0  0  0  0  0  0  0  0  0  0  0
  161.2060  203.0630  146.9610 O   0  0  0  0  0  0  0  0  0  0  0  0
  161.1370  200.5740  148.3130 C   0  0  0  0  0  1  0  0  0  0  0  0
  162.3440  211.3100  148.8300 C   0  0  0  0  0  2  0  0  0  0  0  0
  161.4250  212.5180  148.8280 C   0  0  0  0  0  2  0  0  0  0  0  0
  161.0130  212.8690  147.4080 C   0  0  0  0  0  2  0  0  0  0  0  0
  159.5360  213.0530  147.3160 C   0  0  0  0  0  0  0  0  0  0  0  0
  158.8540  213.7180  148.3270 O   0  0  0  0  0  1  0  0  0  0  0  0
  158.9020  212.5790  146.3370 O   0  0  0  0  0  0  0  0  0  0  0  0
  1 14  1  0  0  0  0
  2 14  1  0  0  0  0
  3 15  1  0  0  0  0
  4 12  1  0  0  0  0
  5 22  1  6  0  0  0
  5 10  1  0  0  0  0
  6 13  1  0  0  0  0
  6  7  1  0  0  0  0
  7  5  1  0  0  0  0
  7  3  2  0  0  0  0
  8 13  1  0  0  0  0
  8  4  2  0  0  0  0
  9  3  1  0  0  0  0
  9 17  1  0  0  0  0
 10 11  2  0  0  0  0
 11  2  1  0  0  0  0
 11 16  1  0  0  0  0
 12 17  2  0  0  0  0
 13  9  2  0  0  0  0
 15  2  2  0  0  0  0
 16  1  2  0  0  0  0
 19  4  1  0  0  0  0
 19 18  1  0  0  0  0
 20 19  2  0  0  0  0
 21 18  1  0  0  0  0
 23 22  1  0  0  0  0
 24 23  1  0  0  0  0
 25 24  1  0  0  0  0
 25 26  1  0  0  0  0
 27 25  2  0  0  0  0
M  END
>  <MODEL>
8

>  <REMARK>
 VINA RESULT:      -7.7      1.618      2.040
  Name = 
  5 active torsions:
  status: ('A' for Active; 'I' for Inactive)
    1  A    between atoms: C_1  and  C_14
    2  A    between atoms: C_1  and  C_18
    3  A    between atoms: C_6  and  C_7
    4  A    between atoms: C_8  and  C_11
    5  A    between atoms: C_11  and  C_14
                            x       y       z     vdW  Elec       q    Type
                         _______ _______ _______ _____ _____    ______ ____

>  <TORSDO>
F 5

$$$$
=
 OpenBabel11042420443D

 27 30  0  0  1  0  0  0  0  0999 V2000
  162.5500  210.0530  149.7770 C   0  0  0  0  0  3  0  0  0  0  0  0
  161.4450  207.9010  149.2330 C   0  0  0  0  0  0  0  0  0  0  0  0
  161.0250  205.4400  149.0110 C   0  0  0  0  0  0  0  0  0  0  0  0
  160.8570  201.9700  146.6540 C   0  0  0  0  0  0  0  0  0  0  0  0
  160.9300  205.9660  151.5070 C   0  0  2  0  0  3  0  0  0  0  0  0
  161.0800  203.3460  150.4170 S   0  0  0  0  0  0  0  0  0  0  0  0
  161.1200  205.0440  150.3440 C   0  0  0  0  0  0  0  0  0  0  0  0
  160.9390  201.9200  148.0590 C   0  0  0  0  0  3  0  0  0  0  0  0
  160.9640  204.3520  148.1260 C   0  0  0  0  0  0  0  0  0  0  0  0
  161.8360  207.1120  151.4780 N   0  0  0  0  0  0  0  0  0  0  0  0
  161.9830  207.9890  150.5280 C   0  0  0  0  0  0  0  0  0  0  0  0
  160.8290  203.2200  146.0000 C   0  0  0  0  0  3  0  0  0  0  0  0
  160.9940  203.1210  148.7600 C   0  0  0  0  0  0  0  0  0  0  0  0
  161.7150  209.3770  148.4850 S   0  0  0  0  0  0  0  0  0  0  0  0
  161.0300  206.8350  148.5450 C   0  0  0  0  0  3  0  0  0  0  0  0
  162.6110  209.1670  150.7950 N   0  0  0  0  0  0  0  0  0  0  0  0
  160.8820  204.4170  146.7320 C   0  0  0  0  0  3  0  0  0  0  0  0
  161.5230  199.5690  146.3050 N   0  0  0  0  0  2  0  0  0  0  0  0
  160.7980  200.7230  145.8700 C   0  0  0  0  0  0  0  0  0  0  0  0
  160.1090  200.6730  144.8160 O   0  0  0  0  0  0  0  0  0  0  0  0
  161.4950  198.3190  145.5660 C   0  0  0  0  0  1  0  0  0  0  0  0
  161.0710  205.2460  152.8410 C   0  0  0  0  0  2  0  0  0  0  0  0
  161.5550  206.2070  153.9130 C   0  0  0  0  0  2  0  0  0  0  0  0
  160.4080  206.6070  154.8250 C   0  0  0  0  0  2  0  0  0  0  0  0
  160.4450  208.0700  155.1120 C   0  0  0  0  0  0  0  0  0  0  0  0
  159.9440  208.5550  156.3130 O   0  0  0  0  0  1  0  0  0  0  0  0
  160.9020  208.8690  154.2540 O   0  0  0  0  0  0  0  0  0  0  0  0
  1 16  2  0  0  0  0
  2 11  1  0  0  0  0
  3  7  2  0  0  0  0
  4  8  1  0  0  0  0
  5 22  1  1  0  0  0
  7  6  1  0  0  0  0
  7  5  1  0  0  0  0
  8 13  2  0  0  0  0
  9 13  1  0  0  0  0
  9  3  1  0  0  0  0
 10  5  1  0  0  0  0
 11 16  1  0  0  0  0
 11 10  2  0  0  0  0
 12  4  2  0  0  0  0
 12 17  1  0  0  0  0
 13  6  1  0  0  0  0
 14  2  1  0  0  0  0
 14  1  1  0  0  0  0
 15  3  1  0  0  0  0
 15  2  2  0  0  0  0
 17  9  2  0  0  0  0
 19 18  1  0  0  0  0
 19  4  1  0  0  0  0
 20 19  2  0  0  0  0
 21 18  1  0  0  0  0
 22 23  1  0  0  0  0
 23 24  1  0  0  0  0
 24 25  1  0  0  0  0
 25 26  1  0  0  0  0
 27 25  2  0  0  0  0
M  END
>  <MODEL>
9

>  <REMARK>
 VINA RESULT:      -7.5      3.088      4.947
  Name = 
  5 active torsions:
  status: ('A' for Active; 'I' for Inactive)
    1  A    between atoms: C_1  and  C_14
    2  A    between atoms: C_1  and  C_18
    3  A    between atoms: C_6  and  C_7
    4  A    between atoms: C_8  and  C_11
    5  A    between atoms: C_11  and  C_14
                            x       y       z     vdW  Elec       q    Type
                         _______ _______ _______ _____ _____    ______ ____

>  <TORSDO>
F 5

$$$$
