=
 OpenBabel11042420263D

 31 37  0  0  1  0  0  0  0  0999 V2000
  161.5280  207.4300  153.0970 C   0  0  2  0  0  3  0  0  0  0  0  0
  161.1600  202.7040  148.0940 C   0  0  0  0  0  1  0  0  0  0  0  0
  161.3290  209.3440  154.8650 C   0  0  0  0  0  2  0  0  0  0  0  0
  162.4310  209.2390  149.2240 C   0  0  1  0  0  3  0  0  0  0  0  0
  161.1890  202.2080  151.6500 C   0  0  0  0  0  3  0  0  0  0  0  0
  161.3410  206.3230  147.6440 C   0  0  0  0  0  3  0  0  0  0  0  0
  161.6000  205.7060  151.1860 C   0  0  1  0  0  3  0  0  0  0  0  0
  161.5670  206.9540  155.5890 C   0  0  0  0  0  2  0  0  0  0  0  0
  161.2730  201.7380  150.4470 N   0  0  0  0  0  0  0  0  0  0  0  0
  161.1260  208.8430  153.4620 C   0  0  0  0  0  0  0  0  0  0  0  0
  160.8530  202.7560  149.5520 C   0  0  1  0  0  3  0  0  0  0  0  0
  160.9220  205.1970  149.9540 C   0  0  0  0  0  0  0  0  0  0  0  0
  161.1290  205.7140  148.7730 C   0  0  0  0  0  0  0  0  0  0  0  0
  160.9090  206.9710  151.7550 C   0  0  2  0  0  3  0  0  0  0  0  0
  160.8560  209.7530  152.5240 C   0  0  0  0  0  3  0  0  0  0  0  0
  160.5040  203.8460  150.2250 C   0  0  2  0  0  3  0  0  0  0  0  0
  161.1030  206.4720  154.2170 C   0  0  0  0  0  2  0  0  0  0  0  0
  162.0990  208.8650  150.6180 N   0  0  2  0  0  0  0  0  0  0  0  0
  160.9500  208.3130  155.9300 C   0  0  2  0  0  0  0  0  0  0  0  0
  162.6950  208.1350  148.3740 O   0  0  0  0  0  0  0  0  0  0  0  0
  160.8580  208.0600  150.6460 C   0  0  2  0  0  3  0  0  0  0  0  0
  160.8140  209.4700  151.0510 C   0  0  1  0  0  3  0  0  0  0  0  0
  159.4340  208.2080  156.0380 C   0  0  0  0  0  1  0  0  0  0  0  0
  161.5300  207.8040  147.6570 C   0  0  0  0  0  2  0  0  0  0  0  0
  161.6060  204.5860  152.1500 N   0  0  0  0  0  2  0  0  0  0  0  0
  160.6350  203.5990  151.6650 C   0  0  2  0  0  3  0  0  0  0  0  0
  162.0970  211.7090  149.3910 C   0  0  0  0  0  2  0  0  0  0  0  0
  162.7800  211.4280  148.0690 C   0  0  0  0  0  2  0  0  0  0  0  0
  161.7350  210.4650  148.6000 C   0  0  0  0  0  3  0  0  0  0  0  0
  161.5060  208.8000  157.2610 C   0  0  0  0  0  2  0  0  0  0  0  0
  162.8120  209.2470  157.1270 F   0  0  0  0  0  0  0  0  0  0  0  0
  1 10  1  0  0  0  0
  1 17  1  1  0  0  0
  3 19  1  0  0  0  0
  4 29  1  6  0  0  0
  4 18  1  0  0  0  0
  5 26  1  0  0  0  0
  6 24  1  0  0  0  0
  6 13  2  0  0  0  0
  7 12  1  6  0  0  0
  7 14  1  0  0  0  0
  7 25  1  0  0  0  0
  8 19  1  0  0  0  0
  9  5  2  0  0  0  0
 10  3  1  0  0  0  0
 11  2  1  6  0  0  0
 11 16  1  0  0  0  0
 11  9  1  0  0  0  0
 12 16  1  0  0  0  0
 13 12  2  0  0  0  0
 14  1  1  0  0  0  0
 15 10  2  0  0  0  0
 16 26  1  0  0  0  0
 17  8  1  0  0  0  0
 18 21  1  0  0  0  0
 18 22  1  0  0  0  0
 19 23  1  0  0  0  0
 19 30  1  0  0  0  0
 20  4  1  0  0  0  0
 21 22  1  0  0  0  0
 21 14  1  0  0  0  0
 22 15  1  0  0  0  0
 24 20  1  0  0  0  0
 26 25  1  0  0  0  0
 28 29  1  0  0  0  0
 28 27  1  0  0  0  0
 29 27  1  0  0  0  0
 31 30  1  0  0  0  0
M  END
>  <MODEL>
1

>  <REMARK>
 VINA RESULT:      -8.4      0.000      0.000
  Name = 
  2 active torsions:
  status: ('A' for Active; 'I' for Inactive)
    1  A    between atoms: C_4  and  C_24
    2  A    between atoms: C_5  and  C_21
                            x       y       z     vdW  Elec       q    Type
                         _______ _______ _______ _____ _____    ______ ____

>  <TORSDO>
F 2

$$$$
=
 OpenBabel11042420263D

 31 37  0  0  1  0  0  0  0  0999 V2000
  161.4020  209.4770  149.3270 C   0  0  2  0  0  3  0  0  0  0  0  0
  161.2630  202.6930  148.1210 C   0  0  0  0  0  1  0  0  0  0  0  0
  161.8030  211.9870  149.9310 C   0  0  0  0  0  2  0  0  0  0  0  0
  160.6470  207.2860  153.0320 C   0  0  1  0  0  3  0  0  0  0  0  0
  161.2170  205.3920  145.7550 C   0  0  0  0  0  3  0  0  0  0  0  0
  161.4330  204.3060  151.3920 C   0  0  0  0  0  3  0  0  0  0  0  0
  161.1460  206.9420  148.9500 C   0  0  1  0  0  3  0  0  0  0  0  0
  161.3400  211.3000  147.5640 C   0  0  0  0  0  2  0  0  0  0  0  0
  161.0770  204.1360  146.0320 N   0  0  0  0  0  0  0  0  0  0  0  0
  161.9440  210.5290  150.2700 C   0  0  0  0  0  0  0  0  0  0  0  0
  161.5870  203.9200  147.3390 C   0  0  1  0  0  3  0  0  0  0  0  0
  161.7600  205.5950  149.1530 C   0  0  0  0  0  0  0  0  0  0  0  0
  161.5940  204.9040  150.2480 C   0  0  0  0  0  0  0  0  0  0  0  0
  161.9620  208.0670  149.6360 C   0  0  2  0  0  3  0  0  0  0  0  0
  162.2940  210.2270  151.5220 C   0  0  0  0  0  3  0  0  0  0  0  0
  162.0460  205.0570  147.8480 C   0  0  2  0  0  3  0  0  0  0  0  0
  161.7420  209.8620  147.8820 C   0  0  0  0  0  2  0  0  0  0  0  0
  160.9530  208.2260  151.9280 N   0  0  2  0  0  0  0  0  0  0  0  0
  162.0890  212.2900  148.4590 C   0  0  2  0  0  0  0  0  0  0  0  0
  160.2690  205.9900  152.6010 O   0  0  0  0  0  0  0  0  0  0  0  0
  162.1100  207.7340  151.1480 C   0  0  2  0  0  3  0  0  0  0  0  0
  162.2940  208.8400  152.0940 C   0  0  1  0  0  3  0  0  0  0  0  0
  163.5890  212.2300  148.1960 C   0  0  0  0  0  1  0  0  0  0  0  0
  161.3900  205.1380  152.6310 C   0  0  0  0  0  2  0  0  0  0  0  0
  161.0390  207.1360  147.4890 N   0  0  0  0  0  2  0  0  0  0  0  0
  161.9040  206.1310  146.8600 C   0  0  2  0  0  3  0  0  0  0  0  0
  160.8160  208.4340  155.2440 C   0  0  0  0  0  2  0  0  0  0  0  0
  160.5880  206.9610  155.5090 C   0  0  0  0  0  2  0  0  0  0  0  0
  161.4530  207.3940  154.3410 C   0  0  0  0  0  3  0  0  0  0  0  0
  161.5960  213.7020  148.1750 C   0  0  0  0  0  2  0  0  0  0  0  0
  161.0590  213.8000  146.9010 F   0  0  0  0  0  0  0  0  0  0  0  0
  1 17  1  6  0  0  0
  1 14  1  0  0  0  0
  1 10  1  0  0  0  0
  3 10  1  0  0  0  0
  4 29  1  1  0  0  0
  5  9  2  0  0  0  0
  5 26  1  0  0  0  0
  6 24  1  0  0  0  0
  7 25  1  6  0  0  0
  7 12  1  0  0  0  0
  7 14  1  0  0  0  0
  8 17  1  0  0  0  0
  8 19  1  0  0  0  0
  9 11  1  0  0  0  0
 10 15  2  0  0  0  0
 11 16  1  0  0  0  0
 11  2  1  1  0  0  0
 12 13  2  0  0  0  0
 13  6  2  0  0  0  0
 14 21  1  0  0  0  0
 15 22  1  0  0  0  0
 16 12  1  0  0  0  0
 18 22  1  0  0  0  0
 18  4  1  0  0  0  0
 19  3  1  0  0  0  0
 20 24  1  0  0  0  0
 20  4  1  0  0  0  0
 21 18  1  0  0  0  0
 21 22  1  0  0  0  0
 23 19  1  0  0  0  0
 26 25  1  0  0  0  0
 26 16  1  0  0  0  0
 27 28  1  0  0  0  0
 29 27  1  0  0  0  0
 29 28  1  0  0  0  0
 30 19  1  0  0  0  0
 31 30  1  0  0  0  0
M  END
>  <MODEL>
2

>  <REMARK>
 VINA RESULT:      -7.1      2.805      5.813
  Name = 
  2 active torsions:
  status: ('A' for Active; 'I' for Inactive)
    1  A    between atoms: C_4  and  C_24
    2  A    between atoms: C_5  and  C_21
                            x       y       z     vdW  Elec       q    Type
                         _______ _______ _______ _____ _____    ______ ____

>  <TORSDO>
F 2

$$$$
=
 OpenBabel11042420263D

 31 37  0  0  1  0  0  0  0  0999 V2000
  160.7930  208.1030  152.9460 C   0  0  2  0  0  3  0  0  0  0  0  0
  161.8460  211.5120  147.0490 C   0  0  0  0  0  1  0  0  0  0  0  0
  160.7580  206.6970  155.1490 C   0  0  0  0  0  2  0  0  0  0  0  0
  160.7700  205.3370  149.5630 C   0  0  1  0  0  3  0  0  0  0  0  0
  161.0970  212.8350  150.3020 C   0  0  0  0  0  3  0  0  0  0  0  0
  161.9710  207.8920  147.5080 C   0  0  0  0  0  3  0  0  0  0  0  0
  160.9920  209.3040  150.6770 C   0  0  1  0  0  3  0  0  0  0  0  0
  160.2430  209.1510  155.1900 C   0  0  0  0  0  2  0  0  0  0  0  0
  161.2200  212.9920  149.0230 N   0  0  0  0  0  0  0  0  0  0  0  0
  161.2000  206.8680  153.7220 C   0  0  0  0  0  0  0  0  0  0  0  0
  161.8660  211.8410  148.5030 C   0  0  1  0  0  3  0  0  0  0  0  0
  161.8650  209.5730  149.4940 C   0  0  0  0  0  0  0  0  0  0  0  0
  161.9230  208.7710  148.4650 C   0  0  0  0  0  0  0  0  0  0  0  0
  161.6330  208.2910  151.6600 C   0  0  2  0  0  3  0  0  0  0  0  0
  161.7010  205.7950  153.1070 C   0  0  0  0  0  3  0  0  0  0  0  0
  162.1410  210.9870  149.4810 C   0  0  2  0  0  3  0  0  0  0  0  0
  160.9350  209.3390  153.8420 C   0  0  0  0  0  2  0  0  0  0  0  0
  160.8020  206.0660  150.8520 N   0  0  2  0  0  0  0  0  0  0  0  0
  160.8600  207.9860  155.9660 C   0  0  2  0  0  0  0  0  0  0  0  0
  160.6110  206.1730  148.4290 O   0  0  0  0  0  0  0  0  0  0  0  0
  161.9640  206.9810  150.8900 C   0  0  2  0  0  3  0  0  0  0  0  0
  162.0110  205.7210  151.6410 C   0  0  1  0  0  3  0  0  0  0  0  0
  162.3180  208.2740  156.3050 C   0  0  0  0  0  1  0  0  0  0  0  0
  161.8720  206.4440  147.8640 C   0  0  0  0  0  2  0  0  0  0  0  0
  160.7320  210.6140  151.3090 N   0  0  0  0  0  2  0  0  0  0  0  0
  161.7180  211.5540  150.7650 C   0  0  2  0  0  3  0  0  0  0  0  0
  160.8010  202.8410  149.6450 C   0  0  0  0  0  2  0  0  0  0  0  0
  161.1430  203.2560  148.2300 C   0  0  0  0  0  2  0  0  0  0  0  0
  161.6450  204.0780  149.4020 C   0  0  0  0  0  3  0  0  0  0  0  0
  160.0870  207.7740  157.2600 C   0  0  0  0  0  2  0  0  0  0  0  0
  159.4290  206.5530  157.2570 F   0  0  0  0  0  0  0  0  0  0  0  0
  1 10  1  0  0  0  0
  1 17  1  1  0  0  0
  3 19  1  0  0  0  0
  4 29  1  6  0  0  0
  4 18  1  0  0  0  0
  5 26  1  0  0  0  0
  6 24  1  0  0  0  0
  6 13  2  0  0  0  0
  7 12  1  6  0  0  0
  7 25  1  0  0  0  0
  7 14  1  0  0  0  0
  8 19  1  0  0  0  0
  9  5  2  0  0  0  0
 10  3  1  0  0  0  0
 11  2  1  6  0  0  0
 11  9  1  0  0  0  0
 11 16  1  0  0  0  0
 13 12  2  0  0  0  0
 14  1  1  0  0  0  0
 15 10  2  0  0  0  0
 16 12  1  0  0  0  0
 16 26  1  0  0  0  0
 17  8  1  0  0  0  0
 18 21  1  0  0  0  0
 18 22  1  0  0  0  0
 19 23  1  0  0  0  0
 19 30  1  0  0  0  0
 20  4  1  0  0  0  0
 21 22  1  0  0  0  0
 21 14  1  0  0  0  0
 22 15  1  0  0  0  0
 24 20  1  0  0  0  0
 26 25  1  0  0  0  0
 28 29  1  0  0  0  0
 28 27  1  0  0  0  0
 29 27  1  0  0  0  0
 31 30  1  0  0  0  0
M  END
>  <MODEL>
3

>  <REMARK>
 VINA RESULT:      -6.2      1.664      5.494
  Name = 
  2 active torsions:
  status: ('A' for Active; 'I' for Inactive)
    1  A    between atoms: C_4  and  C_24
    2  A    between atoms: C_5  and  C_21
                            x       y       z     vdW  Elec       q    Type
                         _______ _______ _______ _____ _____    ______ ____

>  <TORSDO>
F 2

$$$$
=
 OpenBabel11042420263D

 31 37  0  0  1  0  0  0  0  0999 V2000
  159.7680  210.8680  153.3200 C   0  0  2  0  0  3  0  0  0  0  0  0
  161.7720  212.3490  146.8940 C   0  0  0  0  0  1  0  0  0  0  0  0
  159.3820  210.2700  155.8340 C   0  0  0  0  0  2  0  0  0  0  0  0
  160.9640  207.2280  151.2200 C   0  0  1  0  0  3  0  0  0  0  0  0
  160.0660  214.4510  149.2510 C   0  0  0  0  0  3  0  0  0  0  0  0
  162.2750  209.1830  148.6420 C   0  0  0  0  0  3  0  0  0  0  0  0
  160.3570  211.2920  150.8490 C   0  0  1  0  0  3  0  0  0  0  0  0
  158.5400  212.4370  154.8910 C   0  0  0  0  0  2  0  0  0  0  0  0
  160.4790  214.2130  148.0490 N   0  0  0  0  0  0  0  0  0  0  0  0
  160.1360  210.0650  154.5490 C   0  0  0  0  0  0  0  0  0  0  0  0
  161.3860  213.1230  148.1080 C   0  0  1  0  0  3  0  0  0  0  0  0
  161.4510  211.3480  149.8320 C   0  0  0  0  0  0  0  0  0  0  0  0
  161.8710  210.2910  149.1910 C   0  0  0  0  0  0  0  0  0  0  0  0
  160.8670  210.8110  152.2310 C   0  0  2  0  0  3  0  0  0  0  0  0
  160.9160  208.9860  154.4680 C   0  0  0  0  0  3  0  0  0  0  0  0
  161.5240  212.7080  149.3610 C   0  0  2  0  0  3  0  0  0  0  0  0
  159.5120  212.3260  153.7190 C   0  0  0  0  0  2  0  0  0  0  0  0
  160.5750  208.3200  152.1420 N   0  0  2  0  0  0  0  0  0  0  0  0
  159.1000  211.7440  156.1350 C   0  0  2  0  0  0  0  0  0  0  0  0
  160.9790  207.6000  149.8530 O   0  0  0  0  0  0  0  0  0  0  0  0
  161.5550  209.4260  152.0620 C   0  0  2  0  0  3  0  0  0  0  0  0
  161.5870  208.5150  153.2110 C   0  0  1  0  0  3  0  0  0  0  0  0
  160.3750  212.4310  156.6110 C   0  0  0  0  0  1  0  0  0  0  0  0
  162.2900  207.9410  149.4710 C   0  0  0  0  0  2  0  0  0  0  0  0
  159.7710  212.6470  150.9070 N   0  0  0  0  0  2  0  0  0  0  0  0
  160.7230  213.5520  150.2520 C   0  0  2  0  0  3  0  0  0  0  0  0
  161.3410  205.1280  152.5200 C   0  0  0  0  0  2  0  0  0  0  0  0
  161.7130  204.8470  151.0800 C   0  0  0  0  0  2  0  0  0  0  0  0
  162.0170  206.2020  151.6890 C   0  0  0  0  0  3  0  0  0  0  0  0
  158.0670  211.7960  157.2520 C   0  0  0  0  0  2  0  0  0  0  0  0
  156.8160  211.4070  156.7970 F   0  0  0  0  0  0  0  0  0  0  0  0
  1 17  1  1  0  0  0
  1 10  1  0  0  0  0
  3 19  1  0  0  0  0
  4 29  1  1  0  0  0
  4 18  1  0  0  0  0
  5 26  1  0  0  0  0
  6 13  2  0  0  0  0
  6 24  1  0  0  0  0
  7 12  1  6  0  0  0
  7 25  1  0  0  0  0
  7 14  1  0  0  0  0
  8 19  1  0  0  0  0
  9 11  1  0  0  0  0
  9  5  2  0  0  0  0
 10  3  1  0  0  0  0
 11  2  1  6  0  0  0
 11 16  1  0  0  0  0
 13 12  2  0  0  0  0
 14  1  1  0  0  0  0
 15 10  2  0  0  0  0
 16 12  1  0  0  0  0
 16 26  1  0  0  0  0
 17  8  1  0  0  0  0
 18 22  1  0  0  0  0
 19 23  1  0  0  0  0
 19 30  1  0  0  0  0
 20  4  1  0  0  0  0
 21 18  1  0  0  0  0
 21 14  1  0  0  0  0
 21 22  1  0  0  0  0
 22 15  1  0  0  0  0
 24 20  1  0  0  0  0
 26 25  1  0  0  0  0
 28 29  1  0  0  0  0
 28 27  1  0  0  0  0
 29 27  1  0  0  0  0
 31 30  1  0  0  0  0
M  END
>  <MODEL>
4

>  <REMARK>
 VINA RESULT:      -6.1      2.709      6.385
  Name = 
  2 active torsions:
  status: ('A' for Active; 'I' for Inactive)
    1  A    between atoms: C_4  and  C_24
    2  A    between atoms: C_5  and  C_21
                            x       y       z     vdW  Elec       q    Type
                         _______ _______ _______ _____ _____    ______ ____

>  <TORSDO>
F 2

$$$$
=
 OpenBabel11042420263D

 31 37  0  0  1  0  0  0  0  0999 V2000
  162.0810  209.4040  150.2910 C   0  0  2  0  0  3  0  0  0  0  0  0
  160.9380  206.9530  156.6310 C   0  0  0  0  0  1  0  0  0  0  0  0
  162.1460  210.2520  147.8200 C   0  0  0  0  0  2  0  0  0  0  0  0
  161.9260  205.0380  150.2310 C   0  0  1  0  0  3  0  0  0  0  0  0
  161.8220  210.2900  155.6420 C   0  0  0  0  0  3  0  0  0  0  0  0
  160.7310  205.0670  153.5110 C   0  0  0  0  0  3  0  0  0  0  0  0
  161.8440  208.3840  152.6440 C   0  0  1  0  0  3  0  0  0  0  0  0
  162.7270  211.7890  149.7150 C   0  0  0  0  0  2  0  0  0  0  0  0
  161.6630  209.3920  156.5610 N   0  0  0  0  0  0  0  0  0  0  0  0
  161.6650  209.2600  148.8430 C   0  0  0  0  0  0  0  0  0  0  0  0
  160.9710  208.2960  155.9840 C   0  0  1  0  0  3  0  0  0  0  0  0
  160.9420  207.6610  153.5920 C   0  0  0  0  0  0  0  0  0  0  0  0
  160.8320  206.3610  153.6040 C   0  0  0  0  0  0  0  0  0  0  0  0
  161.2060  208.5500  151.2410 C   0  0  2  0  0  3  0  0  0  0  0  0
  161.1170  208.1330  148.3860 C   0  0  0  0  0  3  0  0  0  0  0  0
  160.7040  208.5410  154.7070 C   0  0  2  0  0  3  0  0  0  0  0  0
  161.9990  210.8790  150.7020 C   0  0  0  0  0  2  0  0  0  0  0  0
  161.9530  206.5010  150.0000 N   0  0  2  0  0  0  0  0  0  0  0  0
  162.1030  211.6970  148.3210 C   0  0  2  0  0  0  0  0  0  0  0  0
  162.0720  204.6630  151.5900 O   0  0  0  0  0  0  0  0  0  0  0  0
  160.8180  207.1460  150.6940 C   0  0  2  0  0  3  0  0  0  0  0  0
  160.7600  206.9530  149.2410 C   0  0  1  0  0  3  0  0  0  0  0  0
  160.6640  212.2010  148.3380 C   0  0  0  0  0  1  0  0  0  0  0  0
  160.8020  204.4420  152.1570 C   0  0  0  0  0  2  0  0  0  0  0  0
  162.1580  209.6830  153.2760 N   0  0  0  0  0  2  0  0  0  0  0  0
  161.1810  209.8810  154.3520 C   0  0  2  0  0  3  0  0  0  0  0  0
  161.7740  203.7280  148.1100 C   0  0  0  0  0  2  0  0  0  0  0  0
  161.5810  202.7610  149.2590 C   0  0  0  0  0  2  0  0  0  0  0  0
  161.0130  204.1650  149.3470 C   0  0  0  0  0  3  0  0  0  0  0  0
  162.9100  212.5460  147.3490 C   0  0  0  0  0  2  0  0  0  0  0  0
  163.0830  213.8340  147.8310 F   0  0  0  0  0  0  0  0  0  0  0  0
  1 17  1  1  0  0  0
  1 14  1  0  0  0  0
  3 19  1  0  0  0  0
  3 10  1  0  0  0  0
  4 29  1  1  0  0  0
  4 20  1  0  0  0  0
  5  9  2  0  0  0  0
  6 13  2  0  0  0  0
  7 25  1  1  0  0  0
  7 12  1  0  0  0  0
  8 17  1  0  0  0  0
 10  1  1  0  0  0  0
 11  9  1  0  0  0  0
 11  2  1  6  0  0  0
 12 13  2  0  0  0  0
 12 16  1  0  0  0  0
 14  7  1  0  0  0  0
 15 10  2  0  0  0  0
 15 22  1  0  0  0  0
 16 11  1  0  0  0  0
 18  4  1  0  0  0  0
 18 21  1  0  0  0  0
 19 23  1  0  0  0  0
 19  8  1  0  0  0  0
 20 24  1  0  0  0  0
 21 14  1  0  0  0  0
 22 18  1  0  0  0  0
 22 21  1  0  0  0  0
 24  6  1  0  0  0  0
 25 26  1  0  0  0  0
 26 16  1  0  0  0  0
 26  5  1  0  0  0  0
 27 28  1  0  0  0  0
 27 29  1  0  0  0  0
 28 29  1  0  0  0  0
 30 31  1  0  0  0  0
 30 19  1  0  0  0  0
M  END
>  <MODEL>
5

>  <REMARK>
 VINA RESULT:      -5.5      2.607      6.695
  Name = 
  2 active torsions:
  status: ('A' for Active; 'I' for Inactive)
    1  A    between atoms: C_4  and  C_24
    2  A    between atoms: C_5  and  C_21
                            x       y       z     vdW  Elec       q    Type
                         _______ _______ _______ _____ _____    ______ ____

>  <TORSDO>
F 2

$$$$
