=
 OpenBabel11052410363D

 40 44  0  0  1  0  0  0  0  0999 V2000
  162.9050  206.4340  152.0780 F   0  0  0  0  0  0  0  0  0  0  0  0
  158.7960  211.5040  154.2460 C   0  0  0  0  0  3  0  0  0  0  0  0
  160.2360  211.0940  156.5570 N   0  0  0  0  0  0  0  0  0  0  0  0
  159.8270  209.6050  153.1510 N   0  0  0  0  0  2  0  0  0  0  0  0
  161.2850  209.1240  151.2760 C   0  0  1  0  0  3  0  0  0  0  0  0
  161.2070  209.0150  155.7790 C   0  0  0  0  0  0  0  0  0  0  0  0
  161.4290  206.9590  154.3070 C   0  0  0  0  0  2  0  0  0  0  0  0
  158.6600  212.3830  155.3160 C   0  0  0  0  0  3  0  0  0  0  0  0
  161.5840  206.7410  151.7790 C   0  0  1  0  0  0  0  0  0  0  0  0
  159.4080  212.1670  156.4720 C   0  0  0  0  0  3  0  0  0  0  0  0
  159.6680  210.4170  154.3250 C   0  0  0  0  0  0  0  0  0  0  0  0
  160.8820  207.4160  152.9540 C   0  0  2  0  0  3  0  0  0  0  0  0
  161.5770  207.7610  150.6560 C   0  0  0  0  0  2  0  0  0  0  0  0
  160.3750  210.2040  155.5370 C   0  0  0  0  0  0  0  0  0  0  0  0
  162.3420  209.1510  156.3080 O   0  0  0  0  0  0  0  0  0  0  0  0
  161.0500  208.9130  152.7590 C   0  0  2  0  0  3  0  0  0  0  0  0
  160.7390  207.6700  155.4200 C   0  0  0  0  0  0  0  0  0  0  0  0
  159.5380  207.2540  155.8090 C   0  0  0  0  0  2  0  0  0  0  0  0
  162.4590  210.0710  151.0730 C   0  0  0  0  0  2  0  0  0  0  0  0
  162.3630  210.3920  148.2460 O   0  0  0  0  0  0  0  0  0  0  0  0
  161.9680  211.3540  148.9590 C   0  0  0  0  0  0  0  0  0  0  0  0
  162.0110  211.2700  150.3820 N   0  0  0  0  0  2  0  0  0  0  0  0
  161.4910  212.6050  148.3090 C   0  0  0  0  0  2  0  0  0  0  0  0
  160.1010  212.5500  148.1450 O   0  0  0  0  0  0  0  0  0  0  0  0
  159.5990  212.3700  144.2560 O   0  0  0  0  0  0  0  0  0  0  0  0
  157.5150  212.2520  146.8790 N   0  0  0  0  0  1  0  0  0  0  0  0
  158.5470  214.4460  146.9550 C   0  0  0  0  0  1  0  0  0  0  0  0
  161.0650  212.9310  146.1100 C   0  0  0  0  0  2  0  0  0  0  0  0
  158.5680  213.1130  144.8660 C   0  0  0  0  0  2  0  0  0  0  0  0
  160.8060  213.0050  144.5980 C   0  0  0  0  0  2  0  0  0  0  0  0
  158.6500  213.0260  146.3990 C   0  0  2  0  0  0  0  0  0  0  0  0
  159.9080  212.3580  146.8140 N   0  0  0  0  0  0  0  0  0  0  0  0
  160.8280  205.4970  151.3070 C   0  0  0  0  0  2  0  0  0  0  0  0
  160.8250  205.3200  149.7880 C   0  0  0  0  0  2  0  0  0  0  0  0
  161.1680  203.5430  148.1890 N   0  0  0  0  0  0  0  0  0  0  0  0
  160.7990  201.4890  150.0600 C   0  0  0  0  0  3  0  0  0  0  0  0
  160.6070  202.8660  150.3890 N   0  0  0  0  0  2  0  0  0  0  0  0
  161.1000  201.1360  148.8110 C   0  0  0  0  0  3  0  0  0  0  0  0
  161.1850  202.1570  147.7030 C   0  0  0  0  0  2  0  0  0  0  0  0
  160.8530  203.8770  149.4050 C   0  0  0  0  0  0  0  0  0  0  0  0
  2 11  2  0  0  0  0
  2  8  1  0  0  0  0
  4 11  1  0  0  0  0
  5 19  1  1  0  0  0
  5 16  1  0  0  0  0
  6 15  2  0  0  0  0
  7 17  1  0  0  0  0
  8 10  2  0  0  0  0
  9  1  1  1  0  0  0
  9 12  1  0  0  0  0
 10  3  1  0  0  0  0
 11 14  1  0  0  0  0
 12  7  1  1  0  0  0
 13  5  1  0  0  0  0
 13  9  1  0  0  0  0
 14  6  1  0  0  0  0
 14  3  2  0  0  0  0
 16 12  1  0  0  0  0
 16  4  1  6  0  0  0
 17  6  1  0  0  0  0
 17 18  2  0  0  0  0
 20 21  2  0  0  0  0
 21 22  1  0  0  0  0
 22 19  1  0  0  0  0
 23 21  1  0  0  0  0
 24 23  1  0  0  0  0
 25 30  1  0  0  0  0
 25 29  1  0  0  0  0
 28 32  1  0  0  0  0
 29 31  1  0  0  0  0
 30 28  1  0  0  0  0
 31 32  1  0  0  0  0
 31 26  1  0  0  0  0
 31 27  1  1  0  0  0
 32 24  1  0  0  0  0
 33  9  1  0  0  0  0
 34 33  1  0  0  0  0
 35 40  2  0  0  0  0
 36 37  1  0  0  0  0
 38 36  2  0  0  0  0
 39 35  1  0  0  0  0
 39 38  1  0  0  0  0
 40 34  1  0  0  0  0
 40 37  1  0  0  0  0
M  END
>  <MODEL>
1

>  <REMARK>
 VINA RESULT:      -8.9      0.000      0.000
  Name = 
  8 active torsions:
  status: ('A' for Active; 'I' for Inactive)
    1  A    between atoms: C_3  and  C_14
    2  A    between atoms: C_3  and  N_38
    3  A    between atoms: O_4  and  C_16
    4  A    between atoms: O_4  and  N_37
    5  A    between atoms: C_12  and  C_33
    6  A    between atoms: C_12  and  C_40
    7  A    between atoms: C_16  and  C_21
    8  A    between atoms: C_22  and  C_33
                            x       y       z     vdW  Elec       q    Type
                         _______ _______ _______ _____ _____    ______ ____

>  <TORSDO>
F 8

$$$$
=
 OpenBabel11052410363D

 40 44  0  0  1  0  0  0  0  0999 V2000
  163.3650  207.3710  151.1740 F   0  0  0  0  0  0  0  0  0  0  0  0
  158.5420  211.5150  153.7910 C   0  0  0  0  0  3  0  0  0  0  0  0
  160.0930  211.1790  156.0420 N   0  0  0  0  0  0  0  0  0  0  0  0
  159.8400  209.9000  152.5370 N   0  0  0  0  0  2  0  0  0  0  0  0
  161.3040  209.8070  150.6080 C   0  0  1  0  0  3  0  0  0  0  0  0
  161.3710  209.3530  155.0890 C   0  0  0  0  0  0  0  0  0  0  0  0
  161.8860  207.4770  153.4590 C   0  0  0  0  0  2  0  0  0  0  0  0
  158.2930  212.2780  154.9290 C   0  0  0  0  0  3  0  0  0  0  0  0
  162.0040  207.4760  150.9200 C   0  0  1  0  0  0  0  0  0  0  0  0
  159.0990  212.1030  156.0530 C   0  0  0  0  0  3  0  0  0  0  0  0
  159.5820  210.5850  153.7730 C   0  0  0  0  0  0  0  0  0  0  0  0
  161.2340  207.9360  152.1550 C   0  0  2  0  0  3  0  0  0  0  0  0
  161.7980  208.5610  149.8800 C   0  0  0  0  0  2  0  0  0  0  0  0
  160.3490  210.4030  154.9540 C   0  0  0  0  0  0  0  0  0  0  0  0
  162.4820  209.6360  155.6100 O   0  0  0  0  0  0  0  0  0  0  0  0
  161.1480  209.4500  152.0740 C   0  0  2  0  0  3  0  0  0  0  0  0
  161.1200  207.9800  154.6340 C   0  0  0  0  0  0  0  0  0  0  0  0
  160.0150  207.3420  155.0090 C   0  0  0  0  0  2  0  0  0  0  0  0
  162.3010  210.9490  150.4610 C   0  0  0  0  0  2  0  0  0  0  0  0
  161.7800  213.3790  149.0740 O   0  0  0  0  0  0  0  0  0  0  0  0
  162.3100  212.4360  148.4260 C   0  0  0  0  0  0  0  0  0  0  0  0
  162.5760  211.1830  149.0530 N   0  0  0  0  0  2  0  0  0  0  0  0
  162.6210  212.6190  146.9830 C   0  0  0  0  0  2  0  0  0  0  0  0
  161.7400  213.5560  146.4260 O   0  0  0  0  0  0  0  0  0  0  0  0
  159.9320  212.0510  143.2840 O   0  0  0  0  0  0  0  0  0  0  0  0
  159.2270  212.1250  146.5600 N   0  0  0  0  0  1  0  0  0  0  0  0
  159.2310  214.4390  145.8330 C   0  0  0  0  0  1  0  0  0  0  0  0
  161.6260  213.5650  144.1450 C   0  0  0  0  0  2  0  0  0  0  0  0
  159.0020  212.6010  144.1880 C   0  0  0  0  0  2  0  0  0  0  0  0
  160.8120  213.0900  142.9320 C   0  0  0  0  0  2  0  0  0  0  0  0
  159.6820  213.0170  145.5030 C   0  0  2  0  0  0  0  0  0  0  0  0
  161.1560  212.9160  145.3790 N   0  0  0  0  0  0  0  0  0  0  0  0
  161.4500  206.1620  150.3650 C   0  0  0  0  0  2  0  0  0  0  0  0
  160.4410  206.3520  149.2320 C   0  0  0  0  0  2  0  0  0  0  0  0
  161.2130  204.4120  148.0180 N   0  0  0  0  0  0  0  0  0  0  0  0
  161.1540  205.6790  145.5190 C   0  0  0  0  0  3  0  0  0  0  0  0
  160.8880  206.3770  146.7360 N   0  0  0  0  0  2  0  0  0  0  0  0
  161.5100  204.3950  145.5490 C   0  0  0  0  0  3  0  0  0  0  0  0
  161.7030  203.6620  146.8530 C   0  0  0  0  0  2  0  0  0  0  0  0
  160.8880  205.6700  147.9810 C   0  0  0  0  0  0  0  0  0  0  0  0
  2  8  1  0  0  0  0
  3 10  1  0  0  0  0
  4 11  1  0  0  0  0
  5 19  1  1  0  0  0
  5 16  1  0  0  0  0
  6 15  2  0  0  0  0
  7 17  1  0  0  0  0
  8 10  2  0  0  0  0
  9  1  1  1  0  0  0
  9 12  1  0  0  0  0
 11  2  2  0  0  0  0
 11 14  1  0  0  0  0
 12  7  1  1  0  0  0
 13  5  1  0  0  0  0
 13  9  1  0  0  0  0
 14  6  1  0  0  0  0
 14  3  2  0  0  0  0
 16 12  1  0  0  0  0
 16  4  1  6  0  0  0
 17 18  2  0  0  0  0
 17  6  1  0  0  0  0
 21 22  1  0  0  0  0
 21 20  2  0  0  0  0
 22 19  1  0  0  0  0
 23 21  1  0  0  0  0
 24 23  1  0  0  0  0
 25 29  1  0  0  0  0
 28 32  1  0  0  0  0
 29 31  1  0  0  0  0
 30 25  1  0  0  0  0
 30 28  1  0  0  0  0
 31 27  1  1  0  0  0
 31 26  1  0  0  0  0
 32 31  1  0  0  0  0
 32 24  1  0  0  0  0
 33  9  1  0  0  0  0
 34 33  1  0  0  0  0
 36 38  2  0  0  0  0
 36 37  1  0  0  0  0
 37 40  1  0  0  0  0
 38 39  1  0  0  0  0
 39 35  1  0  0  0  0
 40 35  2  0  0  0  0
 40 34  1  0  0  0  0
M  END
>  <MODEL>
2

>  <REMARK>
 VINA RESULT:      -7.2      1.522      1.978
  Name = 
  8 active torsions:
  status: ('A' for Active; 'I' for Inactive)
    1  A    between atoms: C_3  and  C_14
    2  A    between atoms: C_3  and  N_38
    3  A    between atoms: O_4  and  C_16
    4  A    between atoms: O_4  and  N_37
    5  A    between atoms: C_12  and  C_33
    6  A    between atoms: C_12  and  C_40
    7  A    between atoms: C_16  and  C_21
    8  A    between atoms: C_22  and  C_33
                            x       y       z     vdW  Elec       q    Type
                         _______ _______ _______ _____ _____    ______ ____

>  <TORSDO>
F 8

$$$$
=
 OpenBabel11052410363D

 40 44  0  0  1  0  0  0  0  0999 V2000
  162.6230  206.2360  153.0750 F   0  0  0  0  0  0  0  0  0  0  0  0
  158.9660  211.8630  154.5770 C   0  0  0  0  0  3  0  0  0  0  0  0
  160.8980  212.0670  156.5290 N   0  0  0  0  0  0  0  0  0  0  0  0
  159.7780  209.6950  153.8640 N   0  0  0  0  0  2  0  0  0  0  0  0
  160.7910  208.6500  151.9260 C   0  0  1  0  0  3  0  0  0  0  0  0
  161.7270  209.8170  156.1750 C   0  0  0  0  0  0  0  0  0  0  0  0
  161.6700  207.4230  155.3350 C   0  0  0  0  0  2  0  0  0  0  0  0
  159.0490  213.0130  155.3580 C   0  0  0  0  0  3  0  0  0  0  0  0
  161.2600  206.4960  153.0030 C   0  0  1  0  0  0  0  0  0  0  0  0
  160.0430  213.1030  156.3300 C   0  0  0  0  0  3  0  0  0  0  0  0
  159.8630  210.8110  154.7650 C   0  0  0  0  0  0  0  0  0  0  0  0
  160.8210  207.5010  154.0650 C   0  0  2  0  0  3  0  0  0  0  0  0
  160.9740  207.1580  151.6680 C   0  0  0  0  0  2  0  0  0  0  0  0
  160.8300  210.9210  155.7990 C   0  0  0  0  0  0  0  0  0  0  0  0
  162.9470  210.0540  156.3780 O   0  0  0  0  0  0  0  0  0  0  0  0
  160.9000  208.8750  153.4220 C   0  0  2  0  0  3  0  0  0  0  0  0
  161.2270  208.4450  156.3250 C   0  0  0  0  0  0  0  0  0  0  0  0
  160.1560  208.2010  157.0740 C   0  0  0  0  0  2  0  0  0  0  0  0
  161.8630  209.4570  151.2070 C   0  0  0  0  0  2  0  0  0  0  0  0
  161.2880  209.3100  148.4240 O   0  0  0  0  0  0  0  0  0  0  0  0
  162.2340  208.6020  148.8650 C   0  0  0  0  0  0  0  0  0  0  0  0
  162.5600  208.6100  150.2530 N   0  0  0  0  0  2  0  0  0  0  0  0
  162.9880  207.7190  147.9350 C   0  0  0  0  0  2  0  0  0  0  0  0
  162.3940  206.4500  147.9070 O   0  0  0  0  0  0  0  0  0  0  0  0
  161.2240  205.5870  144.2600 O   0  0  0  0  0  0  0  0  0  0  0  0
  163.8510  204.6840  146.1350 N   0  0  0  0  0  1  0  0  0  0  0  0
  161.8930  203.8420  147.2940 C   0  0  0  0  0  1  0  0  0  0  0  0
  160.6460  206.4990  146.4370 C   0  0  0  0  0  2  0  0  0  0  0  0
  161.7740  204.4560  144.8960 C   0  0  0  0  0  2  0  0  0  0  0  0
  160.1530  206.0180  145.0640 C   0  0  0  0  0  2  0  0  0  0  0  0
  162.4080  204.8290  146.2470 C   0  0  2  0  0  0  0  0  0  0  0  0
  162.0830  206.2330  146.6010 N   0  0  0  0  0  0  0  0  0  0  0  0
  160.4530  205.1990  153.0830 C   0  0  0  0  0  2  0  0  0  0  0  0
  161.3100  203.9360  152.9930 C   0  0  0  0  0  2  0  0  0  0  0  0
  161.3780  201.9230  151.6590 N   0  0  0  0  0  0  0  0  0  0  0  0
  159.9130  203.0180  149.5360 C   0  0  0  0  0  3  0  0  0  0  0  0
  160.3240  203.7960  150.6620 N   0  0  0  0  0  2  0  0  0  0  0  0
  160.2820  201.7420  149.4340 C   0  0  0  0  0  3  0  0  0  0  0  0
  161.1850  201.1000  150.4580 C   0  0  0  0  0  2  0  0  0  0  0  0
  161.0310  203.1740  151.7390 C   0  0  0  0  0  0  0  0  0  0  0  0
  2 11  2  0  0  0  0
  2  8  1  0  0  0  0
  4 11  1  0  0  0  0
  5 19  1  6  0  0  0
  5 16  1  0  0  0  0
  6 17  1  0  0  0  0
  6 15  2  0  0  0  0
  7 17  1  0  0  0  0
  8 10  2  0  0  0  0
  9  1  1  1  0  0  0
  9 33  1  0  0  0  0
  9 12  1  0  0  0  0
 10  3  1  0  0  0  0
 11 14  1  0  0  0  0
 12  7  1  1  0  0  0
 13  5  1  0  0  0  0
 13  9  1  0  0  0  0
 14  6  1  0  0  0  0
 14  3  2  0  0  0  0
 16  4  1  1  0  0  0
 16 12  1  0  0  0  0
 17 18  2  0  0  0  0
 20 21  2  0  0  0  0
 21 22  1  0  0  0  0
 22 19  1  0  0  0  0
 23 21  1  0  0  0  0
 24 23  1  0  0  0  0
 25 29  1  0  0  0  0
 25 30  1  0  0  0  0
 26 31  1  0  0  0  0
 28 32  1  0  0  0  0
 29 31  1  0  0  0  0
 30 28  1  0  0  0  0
 31 32  1  0  0  0  0
 31 27  1  1  0  0  0
 32 24  1  0  0  0  0
 34 33  1  0  0  0  0
 35 40  2  0  0  0  0
 36 37  1  0  0  0  0
 37 40  1  0  0  0  0
 38 36  2  0  0  0  0
 38 39  1  0  0  0  0
 39 35  1  0  0  0  0
 40 34  1  0  0  0  0
M  END
>  <MODEL>
3

>  <REMARK>
 VINA RESULT:      -7.1      3.192      4.268
  Name = 
  8 active torsions:
  status: ('A' for Active; 'I' for Inactive)
    1  A    between atoms: C_3  and  C_14
    2  A    between atoms: C_3  and  N_38
    3  A    between atoms: O_4  and  C_16
    4  A    between atoms: O_4  and  N_37
    5  A    between atoms: C_12  and  C_33
    6  A    between atoms: C_12  and  C_40
    7  A    between atoms: C_16  and  C_21
    8  A    between atoms: C_22  and  C_33
                            x       y       z     vdW  Elec       q    Type
                         _______ _______ _______ _____ _____    ______ ____

>  <TORSDO>
F 8

$$$$
=
 OpenBabel11052410363D

 40 44  0  0  1  0  0  0  0  0999 V2000
  163.3900  208.8410  148.3480 F   0  0  0  0  0  0  0  0  0  0  0  0
  159.8410  203.0580  149.4690 C   0  0  0  0  0  3  0  0  0  0  0  0
  161.6130  202.1210  147.5820 N   0  0  0  0  0  0  0  0  0  0  0  0
  160.6240  205.3360  149.2140 N   0  0  0  0  0  2  0  0  0  0  0  0
  161.7510  207.0540  150.4990 C   0  0  1  0  0  3  0  0  0  0  0  0
  162.3820  204.3340  146.9640 C   0  0  0  0  0  0  0  0  0  0  0  0
  162.3030  206.8670  146.8170 C   0  0  0  0  0  2  0  0  0  0  0  0
  159.9040  201.6960  149.1890 C   0  0  0  0  0  3  0  0  0  0  0  0
  162.0490  208.6240  148.6360 C   0  0  1  0  0  0  0  0  0  0  0  0
  160.8180  201.2400  148.2410 C   0  0  0  0  0  3  0  0  0  0  0  0
  160.6790  203.9590  148.8100 C   0  0  0  0  0  0  0  0  0  0  0  0
  161.5630  207.2840  148.0890 C   0  0  2  0  0  3  0  0  0  0  0  0
  161.8980  208.5310  150.1430 C   0  0  0  0  0  2  0  0  0  0  0  0
  161.5620  203.4600  147.8170 C   0  0  0  0  0  0  0  0  0  0  0  0
  163.5900  204.0420  146.7600 O   0  0  0  0  0  0  0  0  0  0  0  0
  161.7470  206.2680  149.2020 C   0  0  2  0  0  3  0  0  0  0  0  0
  161.8200  205.5400  146.3420 C   0  0  0  0  0  0  0  0  0  0  0  0
  160.6830  205.4700  145.6560 C   0  0  0  0  0  2  0  0  0  0  0  0
  162.9090  206.5930  151.3740 C   0  0  0  0  0  2  0  0  0  0  0  0
  160.8140  205.2580  152.7630 O   0  0  0  0  0  0  0  0  0  0  0  0
  161.5240  206.0700  153.4150 C   0  0  0  0  0  0  0  0  0  0  0  0
  162.5760  206.7920  152.7750 N   0  0  0  0  0  2  0  0  0  0  0  0
  161.2350  206.3110  154.8540 C   0  0  0  0  0  2  0  0  0  0  0  0
  160.5190  207.5070  154.9970 O   0  0  0  0  0  0  0  0  0  0  0  0
  162.9680  210.3340  156.1890 O   0  0  0  0  0  0  0  0  0  0  0  0
  160.9830  209.9510  153.5160 N   0  0  0  0  0  1  0  0  0  0  0  0
  159.5020  209.9960  155.4360 C   0  0  0  0  0  1  0  0  0  0  0  0
  161.7030  208.3400  156.7630 C   0  0  0  0  0  2  0  0  0  0  0  0
  161.8100  210.8820  155.6020 C   0  0  0  0  0  2  0  0  0  0  0  0
  162.5340  209.5340  157.2610 C   0  0  0  0  0  2  0  0  0  0  0  0
  160.9390  209.7880  154.9610 C   0  0  2  0  0  0  0  0  0  0  0  0
  161.4510  208.4420  155.3180 N   0  0  0  0  0  0  0  0  0  0  0  0
  161.1890  209.7850  148.1350 C   0  0  0  0  0  2  0  0  0  0  0  0
  161.7310  211.1620  148.5200 C   0  0  0  0  0  2  0  0  0  0  0  0
  162.4570  212.9770  147.1010 N   0  0  0  0  0  0  0  0  0  0  0  0
  160.1000  213.0260  145.5850 C   0  0  0  0  0  3  0  0  0  0  0  0
  160.2570  212.1810  146.7270 N   0  0  0  0  0  2  0  0  0  0  0  0
  161.0670  213.8780  145.2460 C   0  0  0  0  0  3  0  0  0  0  0  0
  162.3160  214.0230  146.0790 C   0  0  0  0  0  2  0  0  0  0  0  0
  161.5000  212.1650  147.4370 C   0  0  0  0  0  0  0  0  0  0  0  0
  3 14  2  0  0  0  0
  3 10  1  0  0  0  0
  5 19  1  1  0  0  0
  6 14  1  0  0  0  0
  8  2  1  0  0  0  0
  9  1  1  6  0  0  0
  9 13  1  0  0  0  0
 10  8  2  0  0  0  0
 11  4  1  0  0  0  0
 11  2  2  0  0  0  0
 12  7  1  6  0  0  0
 12  9  1  0  0  0  0
 12 16  1  0  0  0  0
 13  5  1  0  0  0  0
 14 11  1  0  0  0  0
 15  6  2  0  0  0  0
 16  4  1  1  0  0  0
 16  5  1  0  0  0  0
 17  7  1  0  0  0  0
 17  6  1  0  0  0  0
 18 17  2  0  0  0  0
 19 22  1  0  0  0  0
 20 21  2  0  0  0  0
 21 23  1  0  0  0  0
 22 21  1  0  0  0  0
 23 24  1  0  0  0  0
 24 32  1  0  0  0  0
 25 30  1  0  0  0  0
 26 31  1  0  0  0  0
 28 30  1  0  0  0  0
 29 25  1  0  0  0  0
 31 32  1  0  0  0  0
 31 27  1  1  0  0  0
 31 29  1  0  0  0  0
 32 28  1  0  0  0  0
 33 34  1  0  0  0  0
 33  9  1  0  0  0  0
 35 40  2  0  0  0  0
 36 37  1  0  0  0  0
 37 40  1  0  0  0  0
 38 36  2  0  0  0  0
 38 39  1  0  0  0  0
 39 35  1  0  0  0  0
 40 34  1  0  0  0  0
M  END
>  <MODEL>
4

>  <REMARK>
 VINA RESULT:      -6.0      2.920      9.216
  Name = 
  8 active torsions:
  status: ('A' for Active; 'I' for Inactive)
    1  A    between atoms: C_3  and  C_14
    2  A    between atoms: C_3  and  N_38
    3  A    between atoms: O_4  and  C_16
    4  A    between atoms: O_4  and  N_37
    5  A    between atoms: C_12  and  C_33
    6  A    between atoms: C_12  and  C_40
    7  A    between atoms: C_16  and  C_21
    8  A    between atoms: C_22  and  C_33
                            x       y       z     vdW  Elec       q    Type
                         _______ _______ _______ _____ _____    ______ ____

>  <TORSDO>
F 8

$$$$
