=
 OpenBabel11042421183D

 39 41  0  0  1  0  0  0  0  0999 V2000
  161.9080  210.6980  149.1670 C   0  0  0  0  0  0  0  0  0  0  0  0
  161.7900  210.5250  150.5490 C   0  0  0  0  0  3  0  0  0  0  0  0
  161.8180  208.1230  150.2600 C   0  0  0  0  0  3  0  0  0  0  0  0
  161.9290  208.2880  148.8760 C   0  0  0  0  0  0  0  0  0  0  0  0
  161.9660  209.5730  148.3300 C   0  0  0  0  0  3  0  0  0  0  0  0
  161.7290  209.2380  151.1100 C   0  0  0  0  0  0  0  0  0  0  0  0
  163.3430  212.4950  148.1920 C   0  0  0  0  0  1  0  0  0  0  0  0
  161.9350  212.0840  148.6050 C   0  0  1  0  0  3  0  0  0  0  0  0
  161.0280  212.1800  147.4710 N   0  0  0  0  0  2  0  0  0  0  0  0
  161.1610  213.5240  146.9350 C   0  0  0  0  0  2  0  0  0  0  0  0
  160.8430  213.5230  145.5150 N   0  0  0  0  0  2  0  0  0  0  0  0
  163.0510  213.1910  144.8180 O   0  0  0  0  0  0  0  0  0  0  0  0
  161.8420  213.3550  144.5030 C   0  0  0  0  0  0  0  0  0  0  0  0
  162.4580  212.7940  142.2650 O   0  0  0  0  0  0  0  0  0  0  0  0
  161.4640  213.4010  143.0600 C   0  0  1  0  0  3  0  0  0  0  0  0
  160.1520  212.7050  142.8300 C   0  0  0  0  0  2  0  0  0  0  0  0
  160.4940  211.7900  141.7090 C   0  0  0  0  0  2  0  0  0  0  0  0
  161.9320  211.6250  141.7860 N   0  0  0  0  0  0  0  0  0  0  0  0
  162.4130  211.4640  140.4230 C   0  0  0  0  0  2  0  0  0  0  0  0
  162.1170  212.7170  139.6220 C   0  0  0  0  0  1  0  0  0  0  0  0
  161.3030  207.8440  153.1290 C   0  0  0  0  0  0  0  0  0  0  0  0
  161.6410  209.0420  152.5830 C   0  0  0  0  0  0  0  0  0  0  0  0
  161.1780  207.6470  154.5500 N   0  0  0  0  0  2  0  0  0  0  0  0
  159.9630  207.4820  156.5600 N   0  0  0  0  0  2  0  0  0  0  0  0
  159.9480  207.6070  155.2750 C   0  0  0  0  0  3  0  0  0  0  0  0
  160.8110  210.9940  153.8730 C   0  0  0  0  0  1  0  0  0  0  0  0
  162.0380  210.2030  153.4530 C   0  0  0  0  0  2  0  0  0  0  0  0
  161.4620  205.3530  152.7280 C   0  0  0  0  0  1  0  0  0  0  0  0
  161.1550  206.7010  152.2800 N   0  0  0  0  0  2  0  0  0  0  0  0
  162.1050  207.1030  147.9880 C   0  0  0  0  0  2  0  0  0  0  0  0
  160.9400  201.6240  147.2090 C   0  0  0  0  0  0  0  0  0  0  0  0
  161.6330  205.8990  148.6630 N   0  0  0  0  0  2  0  0  0  0  0  0
  161.1740  203.5520  148.7990 C   0  0  0  0  0  3  0  0  0  0  0  0
  160.7350  200.3830  147.1680 O   0  0  0  0  0  0  0  0  0  0  0  0
  161.1350  202.2750  146.0010 C   0  0  0  0  0  3  0  0  0  0  0  0
  161.4910  204.6250  146.6360 N   0  0  0  0  0  0  0  0  0  0  0  0
  161.4260  204.6520  147.9920 C   0  0  0  0  0  0  0  0  0  0  0  0
  161.3740  203.6160  145.7420 C   0  0  0  0  0  3  0  0  0  0  0  0
  160.9570  202.2250  148.4600 C   0  0  0  0  0  3  0  0  0  0  0  0
  1  2  1  0  0  0  0
  2  6  2  0  0  0  0
  3  6  1  0  0  0  0
  4  3  2  0  0  0  0
  5  4  1  0  0  0  0
  5  1  2  0  0  0  0
  6 22  1  0  0  0  0
  8  7  1  6  0  0  0
  8  1  1  0  0  0  0
  9  8  1  0  0  0  0
 10  9  1  0  0  0  0
 11 10  1  0  0  0  0
 13 12  2  0  0  0  0
 13 11  1  0  0  0  0
 14 15  1  0  0  0  0
 15 13  1  1  0  0  0
 16 15  1  0  0  0  0
 17 18  1  0  0  0  0
 17 16  1  0  0  0  0
 18 14  1  0  0  0  0
 19 18  1  0  0  0  0
 20 19  1  0  0  0  0
 21 23  1  0  0  0  0
 22 21  2  0  0  0  0
 22 27  1  0  0  0  0
 23 25  1  0  0  0  0
 25 24  2  0  0  0  0
 27 26  1  0  0  0  0
 29 28  1  0  0  0  0
 29 21  1  0  0  0  0
 30 32  1  0  0  0  0
 30  4  1  0  0  0  0
 31 39  1  0  0  0  0
 34 31  2  0  0  0  0
 35 31  1  0  0  0  0
 36 37  2  0  0  0  0
 37 32  1  0  0  0  0
 37 33  1  0  0  0  0
 38 35  2  0  0  0  0
 38 36  1  0  0  0  0
 39 33  2  0  0  0  0
M  END
>  <MODEL>
1

>  <REMARK>
 VINA RESULT:      -7.8      0.000      0.000
  Name = 
  12 active torsions:
  status: ('A' for Active; 'I' for Inactive)
    1  A    between atoms: N_2  and  C_27
    2  A    between atoms: N_3  and  C_9
    3  A    between atoms: N_6  and  C_9
    4  A    between atoms: N_6  and  C_11
    5  A    between atoms: C_7  and  C_11
    6  A    between atoms: C_10  and  N_17
    7  A    between atoms: C_10  and  N_34
    8  A    between atoms: C_15  and  N_36
    9  A    between atoms: C_19  and  C_30
   10  A    between atoms: C_21  and  C_32
   11  A    between atoms: C_27  and  C_29
   12  A    between atoms: C_30  and  C_39
                            x       y       z     vdW  Elec       q    Type
                         _______ _______ _______ _____ _____    ______ ____

>  <TORSDO>
F 12

$$$$
=
 OpenBabel11042421183D

 39 41  0  0  1  0  0  0  0  0999 V2000
  161.7550  208.3230  150.9010 C   0  0  0  0  0  0  0  0  0  0  0  0
  161.3830  208.8350  152.1480 C   0  0  0  0  0  3  0  0  0  0  0  0
  161.5770  211.0890  151.2910 C   0  0  0  0  0  3  0  0  0  0  0  0
  161.9570  210.5840  150.0430 C   0  0  0  0  0  0  0  0  0  0  0  0
  162.0530  209.2050  149.8520 C   0  0  0  0  0  3  0  0  0  0  0  0
  161.3040  210.2220  152.3620 C   0  0  0  0  0  0  0  0  0  0  0  0
  162.3280  206.1550  152.0010 C   0  0  0  0  0  1  0  0  0  0  0  0
  161.8620  206.8420  150.7230 C   0  0  1  0  0  3  0  0  0  0  0  0
  160.5820  206.2980  150.2970 N   0  0  0  0  0  2  0  0  0  0  0  0
  160.5100  206.4650  148.8540 C   0  0  0  0  0  2  0  0  0  0  0  0
  161.0190  205.2730  148.1930 N   0  0  0  0  0  2  0  0  0  0  0  0
  160.8990  206.1770  146.0390 O   0  0  0  0  0  0  0  0  0  0  0  0
  161.1860  205.1930  146.7730 C   0  0  0  0  0  0  0  0  0  0  0  0
  161.7100  202.8850  147.0890 O   0  0  0  0  0  0  0  0  0  0  0  0
  161.6770  203.9320  146.1450 C   0  0  1  0  0  3  0  0  0  0  0  0
  160.7990  203.5330  144.9930 C   0  0  0  0  0  2  0  0  0  0  0  0
  160.5090  202.1110  145.3180 C   0  0  0  0  0  2  0  0  0  0  0  0
  160.7190  202.0050  146.7490 N   0  0  0  0  0  0  0  0  0  0  0  0
  161.2270  200.6660  147.0040 C   0  0  0  0  0  2  0  0  0  0  0  0
  161.4790  200.4860  148.4880 C   0  0  0  0  0  1  0  0  0  0  0  0
  159.6620  211.3730  153.8380 C   0  0  0  0  0  0  0  0  0  0  0  0
  160.8730  210.7760  153.6740 C   0  0  0  0  0  0  0  0  0  0  0  0
  159.2430  211.9470  155.0900 N   0  0  0  0  0  2  0  0  0  0  0  0
  157.9850  211.9840  157.0790 N   0  0  0  0  0  2  0  0  0  0  0  0
  158.3320  211.3470  156.0120 C   0  0  0  0  0  3  0  0  0  0  0  0
  161.4420  209.2750  155.5660 C   0  0  0  0  0  1  0  0  0  0  0  0
  161.7930  210.5640  154.8430 C   0  0  0  0  0  2  0  0  0  0  0  0
  158.3470  212.5540  152.0300 C   0  0  0  0  0  1  0  0  0  0  0  0
  158.7180  211.3550  152.7620 N   0  0  0  0  0  2  0  0  0  0  0  0
  162.1660  211.5070  148.8900 C   0  0  0  0  0  2  0  0  0  0  0  0
  157.8590  213.8980  146.1130 C   0  0  0  0  0  0  0  0  0  0  0  0
  161.2010  212.6000  148.9440 N   0  0  0  0  0  2  0  0  0  0  0  0
  159.2780  213.8080  148.1810 C   0  0  0  0  0  3  0  0  0  0  0  0
  156.8400  214.4530  145.6250 O   0  0  0  0  0  0  0  0  0  0  0  0
  158.5160  212.9700  145.3220 C   0  0  0  0  0  3  0  0  0  0  0  0
  160.3860  212.2010  146.7240 N   0  0  0  0  0  0  0  0  0  0  0  0
  160.2600  212.8690  147.8990 C   0  0  0  0  0  0  0  0  0  0  0  0
  159.6480  212.2150  145.5890 C   0  0  0  0  0  3  0  0  0  0  0  0
  158.2260  214.2630  147.4000 C   0  0  0  0  0  3  0  0  0  0  0  0
  1  2  1  0  0  0  0
  2  6  2  0  0  0  0
  3  6  1  0  0  0  0
  4  3  2  0  0  0  0
  5  4  1  0  0  0  0
  5  1  2  0  0  0  0
  6 22  1  0  0  0  0
  8  1  1  0  0  0  0
  8  7  1  1  0  0  0
  9  8  1  0  0  0  0
 10  9  1  0  0  0  0
 11 10  1  0  0  0  0
 12 13  2  0  0  0  0
 13 11  1  0  0  0  0
 15 13  1  1  0  0  0
 15 14  1  0  0  0  0
 16 17  1  0  0  0  0
 16 15  1  0  0  0  0
 17 18  1  0  0  0  0
 18 19  1  0  0  0  0
 18 14  1  0  0  0  0
 19 20  1  0  0  0  0
 21 23  1  0  0  0  0
 22 21  2  0  0  0  0
 22 27  1  0  0  0  0
 23 25  1  0  0  0  0
 25 24  2  0  0  0  0
 27 26  1  0  0  0  0
 28 29  1  0  0  0  0
 29 21  1  0  0  0  0
 30 32  1  0  0  0  0
 30  4  1  0  0  0  0
 31 39  1  0  0  0  0
 34 31  2  0  0  0  0
 35 38  2  0  0  0  0
 35 31  1  0  0  0  0
 36 37  2  0  0  0  0
 37 33  1  0  0  0  0
 37 32  1  0  0  0  0
 38 36  1  0  0  0  0
 39 33  2  0  0  0  0
M  END
>  <MODEL>
2

>  <REMARK>
 VINA RESULT:      -7.6      2.939      8.106
  Name = 
  12 active torsions:
  status: ('A' for Active; 'I' for Inactive)
    1  A    between atoms: N_2  and  C_27
    2  A    between atoms: N_3  and  C_9
    3  A    between atoms: N_6  and  C_9
    4  A    between atoms: N_6  and  C_11
    5  A    between atoms: C_7  and  C_11
    6  A    between atoms: C_10  and  N_17
    7  A    between atoms: C_10  and  N_34
    8  A    between atoms: C_15  and  N_36
    9  A    between atoms: C_19  and  C_30
   10  A    between atoms: C_21  and  C_32
   11  A    between atoms: C_27  and  C_29
   12  A    between atoms: C_30  and  C_39
                            x       y       z     vdW  Elec       q    Type
                         _______ _______ _______ _____ _____    ______ ____

>  <TORSDO>
F 12

$$$$
=
 OpenBabel11042421183D

 39 41  0  0  1  0  0  0  0  0999 V2000
  161.1170  208.4950  152.8040 C   0  0  0  0  0  0  0  0  0  0  0  0
  161.0120  207.1640  152.3890 C   0  0  0  0  0  3  0  0  0  0  0  0
  161.7340  207.7910  150.1660 C   0  0  0  0  0  3  0  0  0  0  0  0
  161.8350  209.1260  150.5730 C   0  0  0  0  0  0  0  0  0  0  0  0
  161.5190  209.4770  151.8870 C   0  0  0  0  0  3  0  0  0  0  0  0
  161.3050  206.7990  151.0640 C   0  0  0  0  0  0  0  0  0  0  0  0
  160.9560  207.6650  155.1550 C   0  0  0  0  0  1  0  0  0  0  0  0
  160.7630  208.8490  154.2140 C   0  0  1  0  0  3  0  0  0  0  0  0
  161.5600  209.9810  154.6580 N   0  0  0  0  0  2  0  0  0  0  0  0
  160.6690  210.8640  155.3930 C   0  0  0  0  0  2  0  0  0  0  0  0
  160.3660  212.0400  154.5920 N   0  0  0  0  0  2  0  0  0  0  0  0
  158.1480  211.4290  154.1740 O   0  0  0  0  0  0  0  0  0  0  0  0
  159.0800  212.2600  154.0040 C   0  0  0  0  0  0  0  0  0  0  0  0
  159.2210  213.2250  151.8240 O   0  0  0  0  0  0  0  0  0  0  0  0
  158.8360  213.4660  153.1590 C   0  0  1  0  0  3  0  0  0  0  0  0
  157.3870  213.8590  153.1950 C   0  0  0  0  0  2  0  0  0  0  0  0
  157.0760  213.9810  151.7460 C   0  0  0  0  0  2  0  0  0  0  0  0
  158.0740  213.1660  151.0800 N   0  0  0  0  0  0  0  0  0  0  0  0
  158.3560  213.8030  149.8030 C   0  0  0  0  0  2  0  0  0  0  0  0
  157.4030  213.2820  148.7460 C   0  0  0  0  0  1  0  0  0  0  0  0
  160.6940  205.0290  149.4220 C   0  0  0  0  0  0  0  0  0  0  0  0
  161.2320  205.3800  150.6210 C   0  0  0  0  0  0  0  0  0  0  0  0
  160.5840  203.6590  148.9940 N   0  0  0  0  0  2  0  0  0  0  0  0
  161.1410  201.8210  147.6320 N   0  0  0  0  0  2  0  0  0  0  0  0
  161.3710  203.0450  147.9720 C   0  0  0  0  0  3  0  0  0  0  0  0
  160.8050  203.6000  152.2970 C   0  0  0  0  0  1  0  0  0  0  0  0
  161.8680  204.3500  151.5130 C   0  0  0  0  0  2  0  0  0  0  0  0
  161.1080  206.3930  147.3340 C   0  0  0  0  0  1  0  0  0  0  0  0
  160.3070  206.0510  148.4990 N   0  0  0  0  0  2  0  0  0  0  0  0
  162.3700  210.1580  149.6400 C   0  0  0  0  0  2  0  0  0  0  0  0
  161.2380  213.7530  145.4230 C   0  0  0  0  0  0  0  0  0  0  0  0
  161.2970  210.6690  148.7930 N   0  0  0  0  0  2  0  0  0  0  0  0
  160.4300  211.9370  146.9540 C   0  0  0  0  0  3  0  0  0  0  0  0
  160.8940  214.4530  144.4360 O   0  0  0  0  0  0  0  0  0  0  0  0
  162.5100  213.9590  145.9350 C   0  0  0  0  0  3  0  0  0  0  0  0
  162.6720  212.3680  147.8040 N   0  0  0  0  0  0  0  0  0  0  0  0
  161.4890  211.7010  147.8200 C   0  0  0  0  0  0  0  0  0  0  0  0
  163.1500  213.3470  147.0010 C   0  0  0  0  0  3  0  0  0  0  0  0
  160.3150  212.8370  145.9050 C   0  0  0  0  0  3  0  0  0  0  0  0
  1  8  1  0  0  0  0
  2  1  1  0  0  0  0
  3  4  2  0  0  0  0
  3  6  1  0  0  0  0
  4  5  1  0  0  0  0
  5  1  2  0  0  0  0
  6  2  2  0  0  0  0
  8  9  1  0  0  0  0
  8  7  1  1  0  0  0
  9 10  1  0  0  0  0
 11 10  1  0  0  0  0
 13 12  2  0  0  0  0
 13 11  1  0  0  0  0
 14 15  1  0  0  0  0
 15 16  1  0  0  0  0
 15 13  1  1  0  0  0
 17 16  1  0  0  0  0
 18 17  1  0  0  0  0
 18 14  1  0  0  0  0
 19 18  1  0  0  0  0
 20 19  1  0  0  0  0
 21 22  2  0  0  0  0
 22  6  1  0  0  0  0
 22 27  1  0  0  0  0
 23 21  1  0  0  0  0
 24 25  2  0  0  0  0
 25 23  1  0  0  0  0
 27 26  1  0  0  0  0
 28 29  1  0  0  0  0
 29 21  1  0  0  0  0
 30  4  1  0  0  0  0
 31 39  1  0  0  0  0
 31 35  1  0  0  0  0
 32 30  1  0  0  0  0
 33 37  1  0  0  0  0
 34 31  2  0  0  0  0
 35 38  2  0  0  0  0
 36 37  2  0  0  0  0
 37 32  1  0  0  0  0
 38 36  1  0  0  0  0
 39 33  2  0  0  0  0
M  END
>  <MODEL>
3

>  <REMARK>
 VINA RESULT:      -7.5      3.318      8.363
  Name = 
  12 active torsions:
  status: ('A' for Active; 'I' for Inactive)
    1  A    between atoms: N_2  and  C_27
    2  A    between atoms: N_3  and  C_9
    3  A    between atoms: N_6  and  C_9
    4  A    between atoms: N_6  and  C_11
    5  A    between atoms: C_7  and  C_11
    6  A    between atoms: C_10  and  N_17
    7  A    between atoms: C_10  and  N_34
    8  A    between atoms: C_15  and  N_36
    9  A    between atoms: C_19  and  C_30
   10  A    between atoms: C_21  and  C_32
   11  A    between atoms: C_27  and  C_29
   12  A    between atoms: C_30  and  C_39
                            x       y       z     vdW  Elec       q    Type
                         _______ _______ _______ _____ _____    ______ ____

>  <TORSDO>
F 12

$$$$
=
 OpenBabel11042421183D

 39 41  0  0  1  0  0  0  0  0999 V2000
  161.7680  207.4810  150.9470 C   0  0  0  0  0  0  0  0  0  0  0  0
  161.5450  206.2470  150.3280 C   0  0  0  0  0  3  0  0  0  0  0  0
  161.0640  205.2450  152.4770 C   0  0  0  0  0  3  0  0  0  0  0  0
  161.2920  206.4750  153.1040 C   0  0  0  0  0  0  0  0  0  0  0  0
  161.6510  207.5880  152.3410 C   0  0  0  0  0  3  0  0  0  0  0  0
  161.2050  205.1130  151.0860 C   0  0  0  0  0  0  0  0  0  0  0  0
  161.8980  208.4040  148.6300 C   0  0  0  0  0  1  0  0  0  0  0  0
  162.1630  208.6560  150.1100 C   0  0  1  0  0  3  0  0  0  0  0  0
  161.4530  209.8450  150.5550 N   0  0  0  0  0  2  0  0  0  0  0  0
  162.2490  210.9910  150.1460 C   0  0  0  0  0  2  0  0  0  0  0  0
  161.4940  211.8060  149.2060 N   0  0  0  0  0  2  0  0  0  0  0  0
  163.3150  212.2180  147.7960 O   0  0  0  0  0  0  0  0  0  0  0  0
  162.0930  212.3970  148.0470 C   0  0  0  0  0  0  0  0  0  0  0  0
  161.0940  212.6240  145.8900 O   0  0  0  0  0  0  0  0  0  0  0  0
  161.2800  213.2560  147.1370 C   0  0  1  0  0  3  0  0  0  0  0  0
  159.9390  213.5580  147.7450 C   0  0  0  0  0  2  0  0  0  0  0  0
  159.0210  213.1950  146.6330 C   0  0  0  0  0  2  0  0  0  0  0  0
  159.7750  212.2670  145.8120 N   0  0  0  0  0  0  0  0  0  0  0  0
  159.3530  212.4800  144.4370 C   0  0  0  0  0  2  0  0  0  0  0  0
  160.1310  213.6330  143.8330 C   0  0  0  0  0  1  0  0  0  0  0  0
  160.9150  203.6650  149.0810 C   0  0  0  0  0  0  0  0  0  0  0  0
  160.9290  203.8040  150.4330 C   0  0  0  0  0  0  0  0  0  0  0  0
  160.6150  202.4150  148.4330 N   0  0  0  0  0  2  0  0  0  0  0  0
  161.1750  200.3000  147.5620 N   0  0  0  0  0  2  0  0  0  0  0  0
  161.5450  201.3550  148.2080 C   0  0  0  0  0  3  0  0  0  0  0  0
  162.1140  202.0390  151.7140 C   0  0  0  0  0  1  0  0  0  0  0  0
  160.7600  202.6120  151.3340 C   0  0  0  0  0  2  0  0  0  0  0  0
  162.0250  204.5890  147.0060 C   0  0  0  0  0  1  0  0  0  0  0  0
  161.3060  204.7680  148.2570 N   0  0  0  0  0  2  0  0  0  0  0  0
  161.0600  206.6270  154.5700 C   0  0  0  0  0  2  0  0  0  0  0  0
  160.9400  211.7960  156.8610 C   0  0  0  0  0  0  0  0  0  0  0  0
  160.1970  207.7760  154.8230 N   0  0  0  0  0  2  0  0  0  0  0  0
  159.7630  210.0230  155.5310 C   0  0  0  0  0  3  0  0  0  0  0  0
  160.8270  212.9840  157.2610 O   0  0  0  0  0  0  0  0  0  0  0  0
  162.0990  211.1180  157.2060 C   0  0  0  0  0  3  0  0  0  0  0  0
  161.8190  208.8940  156.1900 N   0  0  0  0  0  0  0  0  0  0  0  0
  160.6230  208.9340  155.5480 C   0  0  0  0  0  0  0  0  0  0  0  0
  162.4900  209.8200  156.9130 C   0  0  0  0  0  3  0  0  0  0  0  0
  159.8970  211.2770  156.1080 C   0  0  0  0  0  3  0  0  0  0  0  0
  1  5  1  0  0  0  0
  2  1  2  0  0  0  0
  2  6  1  0  0  0  0
  3  4  1  0  0  0  0
  4 30  1  0  0  0  0
  5  4  2  0  0  0  0
  6  3  2  0  0  0  0
  8  7  1  6  0  0  0
  8  9  1  0  0  0  0
  8  1  1  0  0  0  0
 10  9  1  0  0  0  0
 11 10  1  0  0  0  0
 12 13  2  0  0  0  0
 13 11  1  0  0  0  0
 14 15  1  0  0  0  0
 15 16  1  0  0  0  0
 15 13  1  1  0  0  0
 17 16  1  0  0  0  0
 18 14  1  0  0  0  0
 18 17  1  0  0  0  0
 19 18  1  0  0  0  0
 20 19  1  0  0  0  0
 21 22  2  0  0  0  0
 22  6  1  0  0  0  0
 22 27  1  0  0  0  0
 23 21  1  0  0  0  0
 24 25  2  0  0  0  0
 25 23  1  0  0  0  0
 27 26  1  0  0  0  0
 28 29  1  0  0  0  0
 29 21  1  0  0  0  0
 30 32  1  0  0  0  0
 31 35  1  0  0  0  0
 31 34  2  0  0  0  0
 32 37  1  0  0  0  0
 33 37  1  0  0  0  0
 33 39  2  0  0  0  0
 36 38  1  0  0  0  0
 37 36  2  0  0  0  0
 38 35  2  0  0  0  0
 39 31  1  0  0  0  0
M  END
>  <MODEL>
4

>  <REMARK>
 VINA RESULT:      -7.5      2.902      7.610
  Name = 
  12 active torsions:
  status: ('A' for Active; 'I' for Inactive)
    1  A    between atoms: N_2  and  C_27
    2  A    between atoms: N_3  and  C_9
    3  A    between atoms: N_6  and  C_9
    4  A    between atoms: N_6  and  C_11
    5  A    between atoms: C_7  and  C_11
    6  A    between atoms: C_10  and  N_17
    7  A    between atoms: C_10  and  N_34
    8  A    between atoms: C_15  and  N_36
    9  A    between atoms: C_19  and  C_30
   10  A    between atoms: C_21  and  C_32
   11  A    between atoms: C_27  and  C_29
   12  A    between atoms: C_30  and  C_39
                            x       y       z     vdW  Elec       q    Type
                         _______ _______ _______ _____ _____    ______ ____

>  <TORSDO>
F 12

$$$$
=
 OpenBabel11042421183D

 39 41  0  0  1  0  0  0  0  0999 V2000
  161.8340  206.9230  152.1960 C   0  0  0  0  0  0  0  0  0  0  0  0
  161.2660  208.0030  152.8780 C   0  0  0  0  0  3  0  0  0  0  0  0
  161.6400  209.4250  150.9560 C   0  0  0  0  0  3  0  0  0  0  0  0
  162.2170  208.3500  150.2700 C   0  0  0  0  0  0  0  0  0  0  0  0
  162.3200  207.1040  150.8930 C   0  0  0  0  0  3  0  0  0  0  0  0
  161.1750  209.2680  152.2720 C   0  0  0  0  0  0  0  0  0  0  0  0
  160.9170  205.4650  154.0050 C   0  0  0  0  0  1  0  0  0  0  0  0
  161.9440  205.6010  152.8870 C   0  0  1  0  0  3  0  0  0  0  0  0
  161.7880  204.5210  151.9250 N   0  0  0  0  0  2  0  0  0  0  0  0
  160.3600  204.3080  151.7540 C   0  0  0  0  0  2  0  0  0  0  0  0
  160.1290  203.0760  151.0150 N   0  0  0  0  0  2  0  0  0  0  0  0
  161.0020  203.8860  149.0020 O   0  0  0  0  0  0  0  0  0  0  0  0
  160.4710  202.9320  149.6320 C   0  0  0  0  0  0  0  0  0  0  0  0
  160.0930  201.8770  147.5230 O   0  0  0  0  0  0  0  0  0  0  0  0
  160.1770  201.6580  148.9140 C   0  0  1  0  0  3  0  0  0  0  0  0
  161.2390  200.6320  149.1920 C   0  0  0  0  0  2  0  0  0  0  0  0
  161.5910  200.1900  147.8170 C   0  0  0  0  0  2  0  0  0  0  0  0
  161.1900  201.2870  146.9570 N   0  0  0  0  0  0  0  0  0  0  0  0
  160.7600  200.7010  145.6970 C   0  0  0  0  0  2  0  0  0  0  0  0
  161.2070  199.2540  145.6240 C   0  0  0  0  0  1  0  0  0  0  0  0
  161.0420  210.9160  154.1340 C   0  0  0  0  0  0  0  0  0  0  0  0
  160.5380  210.4150  152.9750 C   0  0  0  0  0  0  0  0  0  0  0  0
  160.4180  212.0010  154.8460 N   0  0  0  0  0  2  0  0  0  0  0  0
  158.8390  212.9220  156.3290 N   0  0  0  0  0  2  0  0  0  0  0  0
  159.3600  211.8690  155.7960 C   0  0  0  0  0  3  0  0  0  0  0  0
  159.7750  212.3930  151.6850 C   0  0  0  0  0  1  0  0  0  0  0  0
  159.3640  211.0660  152.2980 C   0  0  0  0  0  2  0  0  0  0  0  0
  162.6080  210.3910  156.0490 C   0  0  0  0  0  1  0  0  0  0  0  0
  162.2900  210.4220  154.6300 N   0  0  0  0  0  2  0  0  0  0  0  0
  162.6330  208.5020  148.8460 C   0  0  0  0  0  2  0  0  0  0  0  0
  160.9290  204.4770  145.2580 C   0  0  0  0  0  0  0  0  0  0  0  0
  161.5420  208.1070  147.9620 N   0  0  0  0  0  2  0  0  0  0  0  0
  160.3950  206.5830  146.5120 C   0  0  0  0  0  3  0  0  0  0  0  0
  160.4170  203.6010  144.5130 O   0  0  0  0  0  0  0  0  0  0  0  0
  162.2670  204.3250  145.5880 C   0  0  0  0  0  3  0  0  0  0  0  0
  162.7510  206.2560  147.0340 N   0  0  0  0  0  0  0  0  0  0  0  0
  161.5810  206.9360  147.1410 C   0  0  0  0  0  0  0  0  0  0  0  0
  163.0840  205.1220  146.3750 C   0  0  0  0  0  3  0  0  0  0  0  0
  160.1060  205.5090  145.6840 C   0  0  0  0  0  3  0  0  0  0  0  0
  1  2  1  0  0  0  0
  1  8  1  0  0  0  0
  3  6  1  0  0  0  0
  4  5  1  0  0  0  0
  4  3  2  0  0  0  0
  5  1  2  0  0  0  0
  6  2  2  0  0  0  0
  6 22  1  0  0  0  0
  8  7  1  1  0  0  0
  9  8  1  0  0  0  0
 10  9  1  0  0  0  0
 11 10  1  0  0  0  0
 12 13  2  0  0  0  0
 13 11  1  0  0  0  0
 14 15  1  0  0  0  0
 15 16  1  0  0  0  0
 15 13  1  1  0  0  0
 17 16  1  0  0  0  0
 18 14  1  0  0  0  0
 18 17  1  0  0  0  0
 19 18  1  0  0  0  0
 20 19  1  0  0  0  0
 21 29  1  0  0  0  0
 21 23  1  0  0  0  0
 22 21  2  0  0  0  0
 23 25  1  0  0  0  0
 25 24  2  0  0  0  0
 26 27  1  0  0  0  0
 27 22  1  0  0  0  0
 29 28  1  0  0  0  0
 30  4  1  0  0  0  0
 31 35  1  0  0  0  0
 31 39  1  0  0  0  0
 32 30  1  0  0  0  0
 33 37  1  0  0  0  0
 34 31  2  0  0  0  0
 35 38  2  0  0  0  0
 36 37  2  0  0  0  0
 37 32  1  0  0  0  0
 38 36  1  0  0  0  0
 39 33  2  0  0  0  0
M  END
>  <MODEL>
5

>  <REMARK>
 VINA RESULT:      -7.4      4.488      7.535
  Name = 
  12 active torsions:
  status: ('A' for Active; 'I' for Inactive)
    1  A    between atoms: N_2  and  C_27
    2  A    between atoms: N_3  and  C_9
    3  A    between atoms: N_6  and  C_9
    4  A    between atoms: N_6  and  C_11
    5  A    between atoms: C_7  and  C_11
    6  A    between atoms: C_10  and  N_17
    7  A    between atoms: C_10  and  N_34
    8  A    between atoms: C_15  and  N_36
    9  A    between atoms: C_19  and  C_30
   10  A    between atoms: C_21  and  C_32
   11  A    between atoms: C_27  and  C_29
   12  A    between atoms: C_30  and  C_39
                            x       y       z     vdW  Elec       q    Type
                         _______ _______ _______ _____ _____    ______ ____

>  <TORSDO>
F 12

$$$$
=
 OpenBabel11042421183D

 39 41  0  0  1  0  0  0  0  0999 V2000
  161.5350  208.4840  150.5820 C   0  0  0  0  0  0  0  0  0  0  0  0
  161.1700  208.9530  151.8480 C   0  0  0  0  0  3  0  0  0  0  0  0
  161.5570  211.2290  151.1270 C   0  0  0  0  0  3  0  0  0  0  0  0
  161.9300  210.7670  149.8600 C   0  0  0  0  0  0  0  0  0  0  0  0
  161.9260  209.3970  149.5920 C   0  0  0  0  0  3  0  0  0  0  0  0
  161.1900  210.3270  152.1390 C   0  0  0  0  0  0  0  0  0  0  0  0
  161.9820  206.6920  148.9010 C   0  0  0  0  0  1  0  0  0  0  0  0
  161.5330  207.0110  150.3220 C   0  0  1  0  0  3  0  0  0  0  0  0
  162.3880  206.3340  151.2850 N   0  0  0  0  0  2  0  0  0  0  0  0
  161.5830  205.2970  151.9100 C   0  0  0  0  0  2  0  0  0  0  0  0
  160.9450  204.4820  150.8860 N   0  0  0  0  0  2  0  0  0  0  0  0
  161.5960  202.4410  151.8240 O   0  0  0  0  0  0  0  0  0  0  0  0
  160.9940  203.0520  150.9000 C   0  0  0  0  0  0  0  0  0  0  0  0
  160.5090  202.9250  148.5650 O   0  0  0  0  0  0  0  0  0  0  0  0
  160.3540  202.2680  149.8040 C   0  0  1  0  0  3  0  0  0  0  0  0
  160.9510  200.8920  149.7130 C   0  0  0  0  0  2  0  0  0  0  0  0
  161.2780  200.8050  148.2650 C   0  0  0  0  0  2  0  0  0  0  0  0
  161.3850  202.1820  147.8230 N   0  0  0  0  0  0  0  0  0  0  0  0
  160.9200  202.2200  146.4440 C   0  0  0  0  0  2  0  0  0  0  0  0
  161.4450  203.4670  145.7600 C   0  0  0  0  0  1  0  0  0  0  0  0
  159.5970  211.5080  153.6450 C   0  0  0  0  0  0  0  0  0  0  0  0
  160.7680  210.8400  153.4720 C   0  0  0  0  0  0  0  0  0  0  0  0
  159.1900  212.0420  154.9190 N   0  0  0  0  0  2  0  0  0  0  0  0
  157.8890  212.0620  156.8810 N   0  0  0  0  0  2  0  0  0  0  0  0
  158.2160  211.4600  155.7870 C   0  0  0  0  0  3  0  0  0  0  0  0
  161.1710  209.2240  155.3120 C   0  0  0  0  0  1  0  0  0  0  0  0
  161.6460  210.5030  154.6440 C   0  0  0  0  0  2  0  0  0  0  0  0
  158.1560  212.8870  152.0900 C   0  0  0  0  0  1  0  0  0  0  0  0
  158.6770  211.6110  152.5530 N   0  0  0  0  0  2  0  0  0  0  0  0
  162.2380  211.7340  148.7670 C   0  0  0  0  0  2  0  0  0  0  0  0
  160.3320  213.4410  143.7240 C   0  0  0  0  0  0  0  0  0  0  0  0
  161.0250  212.0440  148.0170 N   0  0  0  0  0  2  0  0  0  0  0  0
  159.8110  212.5890  146.0260 C   0  0  0  0  0  3  0  0  0  0  0  0
  159.7990  213.7280  142.6210 O   0  0  0  0  0  0  0  0  0  0  0  0
  161.7060  213.5980  143.8240 C   0  0  0  0  0  3  0  0  0  0  0  0
  162.2240  212.9060  146.1270 N   0  0  0  0  0  0  0  0  0  0  0  0
  161.0370  212.5350  146.6730 C   0  0  0  0  0  0  0  0  0  0  0  0
  162.5520  213.3660  144.8980 C   0  0  0  0  0  3  0  0  0  0  0  0
  159.4980  212.9880  144.7350 C   0  0  0  0  0  3  0  0  0  0  0  0
  1  2  1  0  0  0  0
  2  6  2  0  0  0  0
  3  6  1  0  0  0  0
  4  3  2  0  0  0  0
  5  4  1  0  0  0  0
  5  1  2  0  0  0  0
  6 22  1  0  0  0  0
  8  7  1  6  0  0  0
  8  1  1  0  0  0  0
  8  9  1  0  0  0  0
  9 10  1  0  0  0  0
 11 13  1  0  0  0  0
 11 10  1  0  0  0  0
 13 12  2  0  0  0  0
 14 15  1  0  0  0  0
 15 13  1  1  0  0  0
 16 15  1  0  0  0  0
 17 16  1  0  0  0  0
 18 17  1  0  0  0  0
 18 14  1  0  0  0  0
 19 18  1  0  0  0  0
 20 19  1  0  0  0  0
 21 23  1  0  0  0  0
 22 21  2  0  0  0  0
 22 27  1  0  0  0  0
 23 25  1  0  0  0  0
 25 24  2  0  0  0  0
 27 26  1  0  0  0  0
 28 29  1  0  0  0  0
 29 21  1  0  0  0  0
 30  4  1  0  0  0  0
 31 35  1  0  0  0  0
 31 39  1  0  0  0  0
 32 30  1  0  0  0  0
 33 37  1  0  0  0  0
 34 31  2  0  0  0  0
 35 38  2  0  0  0  0
 36 37  2  0  0  0  0
 37 32  1  0  0  0  0
 38 36  1  0  0  0  0
 39 33  2  0  0  0  0
M  END
>  <MODEL>
6

>  <REMARK>
 VINA RESULT:      -7.4      2.281      8.618
  Name = 
  12 active torsions:
  status: ('A' for Active; 'I' for Inactive)
    1  A    between atoms: N_2  and  C_27
    2  A    between atoms: N_3  and  C_9
    3  A    between atoms: N_6  and  C_9
    4  A    between atoms: N_6  and  C_11
    5  A    between atoms: C_7  and  C_11
    6  A    between atoms: C_10  and  N_17
    7  A    between atoms: C_10  and  N_34
    8  A    between atoms: C_15  and  N_36
    9  A    between atoms: C_19  and  C_30
   10  A    between atoms: C_21  and  C_32
   11  A    between atoms: C_27  and  C_29
   12  A    between atoms: C_30  and  C_39
                            x       y       z     vdW  Elec       q    Type
                         _______ _______ _______ _____ _____    ______ ____

>  <TORSDO>
F 12

$$$$
=
 OpenBabel11042421183D

 39 41  0  0  1  0  0  0  0  0999 V2000
  161.6720  211.3610  149.2230 C   0  0  0  0  0  0  0  0  0  0  0  0
  161.3100  211.6220  150.5480 C   0  0  0  0  0  3  0  0  0  0  0  0
  161.5960  209.2830  151.0970 C   0  0  0  0  0  3  0  0  0  0  0  0
  161.9530  209.0130  149.7710 C   0  0  0  0  0  0  0  0  0  0  0  0
  161.9820  210.0490  148.8350 C   0  0  0  0  0  3  0  0  0  0  0  0
  161.2540  210.5860  151.4960 C   0  0  0  0  0  0  0  0  0  0  0  0
  161.5200  213.8350  148.9210 C   0  0  0  0  0  1  0  0  0  0  0  0
  161.6870  212.4840  148.2360 C   0  0  1  0  0  3  0  0  0  0  0  0
  162.9220  212.4570  147.4680 N   0  0  0  0  0  2  0  0  0  0  0  0
  162.9270  213.6460  146.6310 C   0  0  0  0  0  2  0  0  0  0  0  0
  162.0460  213.4490  145.4890 N   0  0  0  0  0  2  0  0  0  0  0  0
  163.7380  213.6860  143.8920 O   0  0  0  0  0  0  0  0  0  0  0  0
  162.5180  213.4860  144.1380 C   0  0  0  0  0  0  0  0  0  0  0  0
  162.2480  212.9410  141.8290 O   0  0  0  0  0  0  0  0  0  0  0  0
  161.5640  213.3160  143.0040 C   0  0  1  0  0  3  0  0  0  0  0  0
  160.5290  212.2770  143.3290 C   0  0  0  0  0  2  0  0  0  0  0  0
  160.5960  211.4040  142.1270 C   0  0  0  0  0  2  0  0  0  0  0  0
  161.9130  211.6400  141.5680 N   0  0  0  0  0  0  0  0  0  0  0  0
  161.7890  211.5100  140.1240 C   0  0  0  0  0  2  0  0  0  0  0  0
  163.1580  211.6100  139.4790 C   0  0  0  0  0  1  0  0  0  0  0  0
  159.7520  211.4890  153.2650 C   0  0  0  0  0  0  0  0  0  0  0  0
  160.9060  210.8600  152.9170 C   0  0  0  0  0  0  0  0  0  0  0  0
  159.4170  211.7930  154.6320 N   0  0  0  0  0  2  0  0  0  0  0  0
  158.1450  211.5500  156.5980 N   0  0  0  0  0  2  0  0  0  0  0  0
  158.3960  211.1510  155.3960 C   0  0  0  0  0  3  0  0  0  0  0  0
  161.3100  209.0160  154.5280 C   0  0  0  0  0  1  0  0  0  0  0  0
  161.8400  210.3230  153.9660 C   0  0  0  0  0  2  0  0  0  0  0  0
  158.2070  213.1070  152.0870 C   0  0  0  0  0  1  0  0  0  0  0  0
  158.7790  211.7810  152.2570 N   0  0  0  0  0  2  0  0  0  0  0  0
  162.3930  207.6450  149.3750 C   0  0  0  0  0  2  0  0  0  0  0  0
  160.6250  202.2750  149.2530 C   0  0  0  0  0  0  0  0  0  0  0  0
  161.6430  206.6420  150.1230 N   0  0  0  0  0  2  0  0  0  0  0  0
  160.8400  204.4220  150.5330 C   0  0  0  0  0  3  0  0  0  0  0  0
  160.2570  201.0760  149.3680 O   0  0  0  0  0  0  0  0  0  0  0  0
  161.1220  202.6700  148.0210 C   0  0  0  0  0  3  0  0  0  0  0  0
  161.6870  205.0440  148.3350 N   0  0  0  0  0  0  0  0  0  0  0  0
  161.3850  205.3240  149.6290 C   0  0  0  0  0  0  0  0  0  0  0  0
  161.5910  203.9080  147.6070 C   0  0  0  0  0  3  0  0  0  0  0  0
  160.5020  203.0870  150.3710 C   0  0  0  0  0  3  0  0  0  0  0  0
  1  2  1  0  0  0  0
  2  6  2  0  0  0  0
  3  6  1  0  0  0  0
  4  3  2  0  0  0  0
  5  1  2  0  0  0  0
  5  4  1  0  0  0  0
  6 22  1  0  0  0  0
  8  7  1  1  0  0  0
  8  1  1  0  0  0  0
  9  8  1  0  0  0  0
 10  9  1  0  0  0  0
 11 10  1  0  0  0  0
 12 13  2  0  0  0  0
 13 11  1  0  0  0  0
 14 15  1  0  0  0  0
 15 16  1  0  0  0  0
 15 13  1  1  0  0  0
 17 16  1  0  0  0  0
 18 14  1  0  0  0  0
 18 17  1  0  0  0  0
 19 18  1  0  0  0  0
 20 19  1  0  0  0  0
 21 23  1  0  0  0  0
 22 21  2  0  0  0  0
 22 27  1  0  0  0  0
 23 25  1  0  0  0  0
 25 24  2  0  0  0  0
 27 26  1  0  0  0  0
 28 29  1  0  0  0  0
 29 21  1  0  0  0  0
 30  4  1  0  0  0  0
 30 32  1  0  0  0  0
 31 34  2  0  0  0  0
 31 39  1  0  0  0  0
 35 31  1  0  0  0  0
 36 37  2  0  0  0  0
 37 32  1  0  0  0  0
 37 33  1  0  0  0  0
 38 35  2  0  0  0  0
 38 36  1  0  0  0  0
 39 33  2  0  0  0  0
M  END
>  <MODEL>
7

>  <REMARK>
 VINA RESULT:      -7.2      1.902      2.525
  Name = 
  12 active torsions:
  status: ('A' for Active; 'I' for Inactive)
    1  A    between atoms: N_2  and  C_27
    2  A    between atoms: N_3  and  C_9
    3  A    between atoms: N_6  and  C_9
    4  A    between atoms: N_6  and  C_11
    5  A    between atoms: C_7  and  C_11
    6  A    between atoms: C_10  and  N_17
    7  A    between atoms: C_10  and  N_34
    8  A    between atoms: C_15  and  N_36
    9  A    between atoms: C_19  and  C_30
   10  A    between atoms: C_21  and  C_32
   11  A    between atoms: C_27  and  C_29
   12  A    between atoms: C_30  and  C_39
                            x       y       z     vdW  Elec       q    Type
                         _______ _______ _______ _____ _____    ______ ____

>  <TORSDO>
F 12

$$$$
=
 OpenBabel11042421183D

 39 41  0  0  1  0  0  0  0  0999 V2000
  161.5820  208.0620  149.2710 C   0  0  0  0  0  0  0  0  0  0  0  0
  161.2860  208.0790  150.6380 C   0  0  0  0  0  3  0  0  0  0  0  0
  161.7730  210.4470  150.7230 C   0  0  0  0  0  3  0  0  0  0  0  0
  162.0770  210.4360  149.3580 C   0  0  0  0  0  0  0  0  0  0  0  0
  161.9900  209.2440  148.6360 C   0  0  0  0  0  3  0  0  0  0  0  0
  161.3920  209.2660  151.3820 C   0  0  0  0  0  0  0  0  0  0  0  0
  160.4560  205.8370  149.1360 C   0  0  0  0  0  1  0  0  0  0  0  0
  161.4920  206.7710  148.5210 C   0  0  1  0  0  3  0  0  0  0  0  0
  161.1750  207.0270  147.1250 N   0  0  0  0  0  2  0  0  0  0  0  0
  162.0630  206.1940  146.3300 C   0  0  0  0  0  2  0  0  0  0  0  0
  162.1590  204.8680  146.9210 N   0  0  0  0  0  2  0  0  0  0  0  0
  160.9430  203.8080  145.2280 O   0  0  0  0  0  0  0  0  0  0  0  0
  161.5690  203.7120  146.3170 C   0  0  0  0  0  0  0  0  0  0  0  0
  161.7200  202.5340  148.3890 O   0  0  0  0  0  0  0  0  0  0  0  0
  161.6670  202.3830  146.9880 C   0  0  1  0  0  3  0  0  0  0  0  0
  160.4950  201.5150  146.6260 C   0  0  0  0  0  2  0  0  0  0  0  0
  160.0310  201.0690  147.9670 C   0  0  0  0  0  2  0  0  0  0  0  0
  160.5330  202.0690  148.8880 N   0  0  0  0  0  0  0  0  0  0  0  0
  160.8310  201.3830  150.1360 C   0  0  0  0  0  2  0  0  0  0  0  0
  161.2060  202.3940  151.2020 C   0  0  0  0  0  1  0  0  0  0  0  0
  161.2060  208.2200  153.6340 C   0  0  0  0  0  0  0  0  0  0  0  0
  161.0430  209.3030  152.8280 C   0  0  0  0  0  0  0  0  0  0  0  0
  160.8410  208.2280  155.0260 N   0  0  0  0  0  2  0  0  0  0  0  0
  160.0900  207.2200  157.0170 N   0  0  0  0  0  2  0  0  0  0  0  0
  160.4540  207.0820  155.7870 C   0  0  0  0  0  3  0  0  0  0  0  0
  159.1540  210.9060  152.9830 C   0  0  0  0  0  1  0  0  0  0  0  0
  160.5900  210.6220  153.3900 C   0  0  0  0  0  2  0  0  0  0  0  0
  161.2060  205.7510  153.0890 C   0  0  0  0  0  1  0  0  0  0  0  0
  161.8540  207.0520  153.1190 N   0  0  0  0  0  2  0  0  0  0  0  0
  162.4010  211.7080  148.6490 C   0  0  0  0  0  2  0  0  0  0  0  0
  160.4500  213.8690  143.8010 C   0  0  0  0  0  0  0  0  0  0  0  0
  161.2060  212.2370  148.0000 N   0  0  0  0  0  2  0  0  0  0  0  0
  159.9600  213.0380  146.1170 C   0  0  0  0  0  3  0  0  0  0  0  0
  159.8940  214.2760  142.7480 O   0  0  0  0  0  0  0  0  0  0  0  0
  161.8340  213.7960  143.8000 C   0  0  0  0  0  3  0  0  0  0  0  0
  162.3930  212.9540  146.0430 N   0  0  0  0  0  0  0  0  0  0  0  0
  161.2040  212.7630  146.6690 C   0  0  0  0  0  0  0  0  0  0  0  0
  162.7040  213.3940  144.8020 C   0  0  0  0  0  3  0  0  0  0  0  0
  159.6260  213.5260  144.8630 C   0  0  0  0  0  3  0  0  0  0  0  0
  1  2  1  0  0  0  0
  2  6  2  0  0  0  0
  3  6  1  0  0  0  0
  4  3  2  0  0  0  0
  5  1  2  0  0  0  0
  5  4  1  0  0  0  0
  6 22  1  0  0  0  0
  8  7  1  1  0  0  0
  8  1  1  0  0  0  0
  9  8  1  0  0  0  0
 10 11  1  0  0  0  0
 10  9  1  0  0  0  0
 12 13  2  0  0  0  0
 13 11  1  0  0  0  0
 14 18  1  0  0  0  0
 15 13  1  6  0  0  0
 15 14  1  0  0  0  0
 16 15  1  0  0  0  0
 16 17  1  0  0  0  0
 17 18  1  0  0  0  0
 18 19  1  0  0  0  0
 19 20  1  0  0  0  0
 21 23  1  0  0  0  0
 22 27  1  0  0  0  0
 22 21  2  0  0  0  0
 23 25  1  0  0  0  0
 25 24  2  0  0  0  0
 26 27  1  0  0  0  0
 28 29  1  0  0  0  0
 29 21  1  0  0  0  0
 30  4  1  0  0  0  0
 31 39  1  0  0  0  0
 32 30  1  0  0  0  0
 33 37  1  0  0  0  0
 34 31  2  0  0  0  0
 35 31  1  0  0  0  0
 35 38  2  0  0  0  0
 36 37  2  0  0  0  0
 37 32  1  0  0  0  0
 38 36  1  0  0  0  0
 39 33  2  0  0  0  0
M  END
>  <MODEL>
8

>  <REMARK>
 VINA RESULT:      -7.1      1.845      8.284
  Name = 
  12 active torsions:
  status: ('A' for Active; 'I' for Inactive)
    1  A    between atoms: N_2  and  C_27
    2  A    between atoms: N_3  and  C_9
    3  A    between atoms: N_6  and  C_9
    4  A    between atoms: N_6  and  C_11
    5  A    between atoms: C_7  and  C_11
    6  A    between atoms: C_10  and  N_17
    7  A    between atoms: C_10  and  N_34
    8  A    between atoms: C_15  and  N_36
    9  A    between atoms: C_19  and  C_30
   10  A    between atoms: C_21  and  C_32
   11  A    between atoms: C_27  and  C_29
   12  A    between atoms: C_30  and  C_39
                            x       y       z     vdW  Elec       q    Type
                         _______ _______ _______ _____ _____    ______ ____

>  <TORSDO>
F 12

$$$$
=
 OpenBabel11042421183D

 39 41  0  0  1  0  0  0  0  0999 V2000
  160.7190  208.3070  154.1490 C   0  0  0  0  0  0  0  0  0  0  0  0
  160.9450  207.1560  153.3870 C   0  0  0  0  0  3  0  0  0  0  0  0
  161.2160  208.5130  151.4020 C   0  0  0  0  0  3  0  0  0  0  0  0
  160.9850  209.6680  152.1570 C   0  0  0  0  0  0  0  0  0  0  0  0
  160.7290  209.5630  153.5250 C   0  0  0  0  0  3  0  0  0  0  0  0
  161.1810  207.2440  152.0040 C   0  0  0  0  0  0  0  0  0  0  0  0
  160.4830  206.7120  156.0570 C   0  0  0  0  0  1  0  0  0  0  0  0
  160.4370  208.1690  155.6110 C   0  0  1  0  0  3  0  0  0  0  0  0
  161.3840  208.9620  156.3780 N   0  0  0  0  0  2  0  0  0  0  0  0
  160.6060  209.8160  157.2610 C   0  0  0  0  0  2  0  0  0  0  0  0
  160.4360  211.1280  156.6550 N   0  0  0  0  0  2  0  0  0  0  0  0
  158.1830  210.8080  156.1170 O   0  0  0  0  0  0  0  0  0  0  0  0
  159.1930  211.5620  156.0950 C   0  0  0  0  0  0  0  0  0  0  0  0
  158.7000  212.7810  154.1020 O   0  0  0  0  0  0  0  0  0  0  0  0
  159.0860  212.9040  155.4530 C   0  0  1  0  0  3  0  0  0  0  0  0
  158.0900  213.7650  156.1770 C   0  0  0  0  0  2  0  0  0  0  0  0
  157.2360  214.2380  155.0550 C   0  0  0  0  0  2  0  0  0  0  0  0
  157.4200  213.2560  154.0050 N   0  0  0  0  0  0  0  0  0  0  0  0
  157.3210  213.9670  152.7390 C   0  0  0  0  0  2  0  0  0  0  0  0
  158.1640  213.2690  151.6900 C   0  0  0  0  0  1  0  0  0  0  0  0
  161.3610  206.0350  149.8350 C   0  0  0  0  0  0  0  0  0  0  0  0
  161.4590  206.0290  151.1910 C   0  0  0  0  0  0  0  0  0  0  0  0
  161.5910  204.8600  149.0350 N   0  0  0  0  0  2  0  0  0  0  0  0
  161.5810  203.6420  147.0200 N   0  0  0  0  0  2  0  0  0  0  0  0
  161.3970  204.7690  147.6230 C   0  0  0  0  0  3  0  0  0  0  0  0
  160.8200  203.8140  152.1110 C   0  0  0  0  0  1  0  0  0  0  0  0
  161.9500  204.8110  151.9240 C   0  0  0  0  0  2  0  0  0  0  0  0
  162.1490  207.9680  148.4080 C   0  0  0  0  0  1  0  0  0  0  0  0
  161.1150  207.2690  149.1530 N   0  0  0  0  0  2  0  0  0  0  0  0
  161.1050  211.0140  151.5270 C   0  0  0  0  0  2  0  0  0  0  0  0
  162.2860  213.7520  146.7220 C   0  0  0  0  0  0  0  0  0  0  0  0
  161.8510  210.9170  150.2770 N   0  0  0  0  0  2  0  0  0  0  0  0
  162.7130  211.7820  148.2160 C   0  0  0  0  0  3  0  0  0  0  0  0
  162.6820  214.3080  145.6650 O   0  0  0  0  0  0  0  0  0  0  0  0
  161.2470  214.3620  147.4090 C   0  0  0  0  0  3  0  0  0  0  0  0
  160.8770  212.9060  149.3560 N   0  0  0  0  0  0  0  0  0  0  0  0
  161.7980  211.9140  149.2510 C   0  0  0  0  0  0  0  0  0  0  0  0
  160.6130  213.9830  148.5810 C   0  0  0  0  0  3  0  0  0  0  0  0
  162.9270  212.5840  147.1050 C   0  0  0  0  0  3  0  0  0  0  0  0
  1  8  1  0  0  0  0
  2  1  2  0  0  0  0
  3  6  2  0  0  0  0
  3  4  1  0  0  0  0
  4  5  2  0  0  0  0
  5  1  1  0  0  0  0
  6  2  1  0  0  0  0
  8  7  1  1  0  0  0
  8  9  1  0  0  0  0
  9 10  1  0  0  0  0
 11 10  1  0  0  0  0
 13 12  2  0  0  0  0
 13 11  1  0  0  0  0
 14 15  1  0  0  0  0
 15 13  1  1  0  0  0
 15 16  1  0  0  0  0
 17 16  1  0  0  0  0
 18 14  1  0  0  0  0
 18 17  1  0  0  0  0
 19 18  1  0  0  0  0
 20 19  1  0  0  0  0
 21 22  2  0  0  0  0
 22 27  1  0  0  0  0
 22  6  1  0  0  0  0
 23 21  1  0  0  0  0
 24 25  2  0  0  0  0
 25 23  1  0  0  0  0
 27 26  1  0  0  0  0
 28 29  1  0  0  0  0
 29 21  1  0  0  0  0
 30  4  1  0  0  0  0
 31 39  1  0  0  0  0
 31 35  1  0  0  0  0
 32 30  1  0  0  0  0
 33 37  1  0  0  0  0
 34 31  2  0  0  0  0
 35 38  2  0  0  0  0
 37 36  2  0  0  0  0
 37 32  1  0  0  0  0
 38 36  1  0  0  0  0
 39 33  2  0  0  0  0
M  END
>  <MODEL>
9

>  <REMARK>
 VINA RESULT:      -7.1      3.706      9.433
  Name = 
  12 active torsions:
  status: ('A' for Active; 'I' for Inactive)
    1  A    between atoms: N_2  and  C_27
    2  A    between atoms: N_3  and  C_9
    3  A    between atoms: N_6  and  C_9
    4  A    between atoms: N_6  and  C_11
    5  A    between atoms: C_7  and  C_11
    6  A    between atoms: C_10  and  N_17
    7  A    between atoms: C_10  and  N_34
    8  A    between atoms: C_15  and  N_36
    9  A    between atoms: C_19  and  C_30
   10  A    between atoms: C_21  and  C_32
   11  A    between atoms: C_27  and  C_29
   12  A    between atoms: C_30  and  C_39
                            x       y       z     vdW  Elec       q    Type
                         _______ _______ _______ _____ _____    ______ ____

>  <TORSDO>
F 12

$$$$
