=
 OpenBabel11052411043D

 34 36  0  0  1  0  0  0  0  0999 V2000
  161.2010  206.6850  153.5920 C   0  0  0  0  0  3  0  0  0  0  0  0
  161.5310  208.5750  152.1360 C   0  0  0  0  0  0  0  0  0  0  0  0
  162.0700  208.7940  150.8160 C   0  0  0  0  0  0  0  0  0  0  0  0
  161.6320  207.2340  152.3850 C   0  0  0  0  0  0  0  0  0  0  0  0
  160.5450  208.9330  154.2880 C   0  0  0  0  0  3  0  0  0  0  0  0
  162.2520  206.5670  151.2000 C   0  0  2  0  0  3  0  0  0  0  0  0
  162.4770  207.6860  150.2730 N   0  0  0  0  0  0  0  0  0  0  0  0
  160.6480  207.5520  154.5610 C   0  0  0  0  0  0  0  0  0  0  0  0
  160.9890  209.4610  153.0650 C   0  0  0  0  0  3  0  0  0  0  0  0
  162.2330  210.1930  148.8910 C   0  0  0  0  0  3  0  0  0  0  0  0
  162.1500  210.0690  150.1760 N   0  0  0  0  0  0  0  0  0  0  0  0
  162.3050  211.4560  148.3180 O   0  0  0  0  0  0  0  0  0  0  0  0
  161.1300  212.1120  147.8660 C   0  0  2  0  0  3  0  0  0  0  0  0
  161.2920  212.5120  146.5490 F   0  0  0  0  0  0  0  0  0  0  0  0
  161.9320  214.1580  148.7910 F   0  0  0  0  0  0  0  0  0  0  0  0
  160.8320  213.3190  148.7460 C   0  0  0  0  0  0  0  0  0  0  0  0
  160.5270  212.8950  150.0260 F   0  0  0  0  0  0  0  0  0  0  0  0
  159.7510  214.0100  148.2310 F   0  0  0  0  0  0  0  0  0  0  0  0
  160.1960  207.0730  155.7930 O   0  0  0  0  0  0  0  0  0  0  0  0
  160.4650  207.7380  157.0200 C   0  0  0  0  0  1  0  0  0  0  0  0
  161.3420  205.5730  150.6150 N   0  0  0  0  0  0  0  0  0  0  0  0
  161.8120  204.3160  148.5370 C   0  0  0  0  0  3  0  0  0  0  0  0
  160.5410  206.2780  147.0130 C   0  0  0  0  0  3  0  0  0  0  0  0
  160.6240  206.4150  148.4010 C   0  0  0  0  0  3  0  0  0  0  0  0
  161.7320  204.1800  147.1490 C   0  0  0  0  0  3  0  0  0  0  0  0
  161.2580  205.4340  149.1810 C   0  0  0  0  0  0  0  0  0  0  0  0
  161.0950  205.1590  146.3760 C   0  0  0  0  0  0  0  0  0  0  0  0
  161.7690  205.6730  144.1630 O   0  0  0  0  0  0  0  0  0  0  0  0
  160.9990  205.0110  144.9140 C   0  0  0  0  0  0  0  0  0  0  0  0
  159.9820  202.8620  144.6780 C   0  0  0  0  0  2  0  0  0  0  0  0
  160.0380  204.1120  144.3490 N   0  0  0  0  0  0  0  0  0  0  0  0
  160.5750  204.6790  151.4890 C   0  0  0  0  0  2  0  0  0  0  0  0
  161.3770  203.4730  151.8610 C   0  0  0  0  0  3  0  0  0  0  0  0
  161.0510  202.3130  151.4230 N   0  0  0  0  0  2  0  0  0  0  0  0
  1  8  1  0  0  0  0
  2  4  1  0  0  0  0
  2  9  2  0  0  0  0
  3  2  1  0  0  0  0
  4  1  2  0  0  0  0
  5  8  2  0  0  0  0
  6 21  1  6  0  0  0
  6  4  1  0  0  0  0
  7  3  2  0  0  0  0
  7  6  1  0  0  0  0
  8 19  1  0  0  0  0
  9  5  1  0  0  0  0
 10 11  2  0  0  0  0
 11  3  1  0  0  0  0
 12 10  1  0  0  0  0
 13 14  1  6  0  0  0
 13 12  1  0  0  0  0
 13 16  1  0  0  0  0
 16 15  1  0  0  0  0
 16 17  1  0  0  0  0
 18 16  1  0  0  0  0
 19 20  1  0  0  0  0
 21 32  1  0  0  0  0
 22 26  1  0  0  0  0
 23 24  1  0  0  0  0
 24 26  2  0  0  0  0
 25 22  2  0  0  0  0
 26 21  1  0  0  0  0
 27 23  2  0  0  0  0
 27 25  1  0  0  0  0
 28 29  2  0  0  0  0
 29 27  1  0  0  0  0
 31 30  2  0  0  0  0
 31 29  1  0  0  0  0
 32 33  1  0  0  0  0
 34 33  2  0  0  0  0
M  END
>  <MODEL>
1

>  <REMARK>
 VINA RESULT:      -7.8      0.000      0.000
  Name = 
  11 active torsions:
  status: ('A' for Active; 'I' for Inactive)
    1  A    between atoms: C_1  and  O_11
    2  A    between atoms: N_2  and  C_17
    3  A    between atoms: O_3  and  C_30
    4  A    between atoms: C_8  and  C_9
    5  A    between atoms: C_8  and  O_11
    6  A    between atoms: C_10  and  C_13
    7  A    between atoms: C_10  and  N_21
    8  A    between atoms: N_21  and  C_24
    9  A    between atoms: N_21  and  C_28
   10  A    between atoms: N_22  and  C_26
   11  A    between atoms: C_26  and  C_34
                            x       y       z     vdW  Elec       q    Type
                         _______ _______ _______ _____ _____    ______ ____

>  <TORSDO>
F 11

$$$$
=
 OpenBabel11052411043D

 34 36  0  0  1  0  0  0  0  0999 V2000
  160.9840  204.4220  148.8800 C   0  0  0  0  0  3  0  0  0  0  0  0
  161.7440  206.6320  148.3010 C   0  0  0  0  0  0  0  0  0  0  0  0
  161.6780  207.9480  148.8910 C   0  0  0  0  0  0  0  0  0  0  0  0
  161.1060  205.7830  149.1610 C   0  0  0  0  0  0  0  0  0  0  0  0
  162.2050  204.8230  146.8020 C   0  0  0  0  0  3  0  0  0  0  0  0
  160.6130  206.5630  150.3360 C   0  0  2  0  0  3  0  0  0  0  0  0
  161.0530  207.9320  150.0300 N   0  0  0  0  0  0  0  0  0  0  0  0
  161.5440  203.9350  147.6780 C   0  0  0  0  0  0  0  0  0  0  0  0
  162.3110  206.1900  147.1070 C   0  0  0  0  0  3  0  0  0  0  0  0
  162.1050  210.2930  148.8460 C   0  0  0  0  0  3  0  0  0  0  0  0
  162.2320  209.1270  148.3030 N   0  0  0  0  0  0  0  0  0  0  0  0
  162.6640  211.4080  148.2360 O   0  0  0  0  0  0  0  0  0  0  0  0
  161.9750  212.6500  148.2280 C   0  0  2  0  0  3  0  0  0  0  0  0
  160.9860  212.6450  149.1990 F   0  0  0  0  0  0  0  0  0  0  0  0
  160.4160  211.9290  146.5750 F   0  0  0  0  0  0  0  0  0  0  0  0
  161.3610  212.9000  146.8580 C   0  0  0  0  0  0  0  0  0  0  0  0
  162.3510  212.8690  145.8930 F   0  0  0  0  0  0  0  0  0  0  0  0
  160.7570  214.1440  146.8420 F   0  0  0  0  0  0  0  0  0  0  0  0
  161.4600  202.5840  147.3310 O   0  0  0  0  0  0  0  0  0  0  0  0
  160.8360  201.6150  148.1630 C   0  0  0  0  0  1  0  0  0  0  0  0
  161.2210  206.0810  151.5840 N   0  0  0  0  0  0  0  0  0  0  0  0
  161.2840  208.2830  152.7090 C   0  0  0  0  0  3  0  0  0  0  0  0
  160.8430  207.0770  155.1860 C   0  0  0  0  0  3  0  0  0  0  0  0
  160.9220  206.2940  154.0320 C   0  0  0  0  0  3  0  0  0  0  0  0
  161.2080  209.0660  153.8640 C   0  0  0  0  0  3  0  0  0  0  0  0
  161.1420  206.8880  152.7780 C   0  0  0  0  0  0  0  0  0  0  0  0
  160.9850  208.4700  155.1110 C   0  0  0  0  0  0  0  0  0  0  0  0
  159.7890  209.8180  156.6490 O   0  0  0  0  0  0  0  0  0  0  0  0
  160.8920  209.2950  156.3270 C   0  0  0  0  0  0  0  0  0  0  0  0
  162.9260  210.4150  156.8920 C   0  0  0  0  0  2  0  0  0  0  0  0
  162.0520  209.4950  157.1450 N   0  0  0  0  0  0  0  0  0  0  0  0
  161.8430  204.7530  151.6310 C   0  0  0  0  0  2  0  0  0  0  0  0
  160.8840  203.7280  152.1470 C   0  0  0  0  0  3  0  0  0  0  0  0
  161.0400  202.4880  151.8600 N   0  0  0  0  0  2  0  0  0  0  0  0
  1  4  1  0  0  0  0
  2  3  1  0  0  0  0
  2  4  2  0  0  0  0
  3  7  2  0  0  0  0
  4  6  1  0  0  0  0
  5  9  2  0  0  0  0
  5  8  1  0  0  0  0
  6 21  1  1  0  0  0
  7  6  1  0  0  0  0
  8  1  2  0  0  0  0
  9  2  1  0  0  0  0
 11 10  2  0  0  0  0
 11  3  1  0  0  0  0
 12 10  1  0  0  0  0
 13 12  1  0  0  0  0
 13 14  1  1  0  0  0
 15 16  1  0  0  0  0
 16 13  1  0  0  0  0
 17 16  1  0  0  0  0
 18 16  1  0  0  0  0
 19  8  1  0  0  0  0
 19 20  1  0  0  0  0
 21 32  1  0  0  0  0
 21 26  1  0  0  0  0
 22 26  2  0  0  0  0
 22 25  1  0  0  0  0
 24 23  2  0  0  0  0
 25 27  2  0  0  0  0
 26 24  1  0  0  0  0
 27 23  1  0  0  0  0
 27 29  1  0  0  0  0
 29 28  2  0  0  0  0
 29 31  1  0  0  0  0
 30 31  2  0  0  0  0
 32 33  1  0  0  0  0
 34 33  2  0  0  0  0
M  END
>  <MODEL>
2

>  <REMARK>
 VINA RESULT:      -7.7      2.018      6.775
  Name = 
  11 active torsions:
  status: ('A' for Active; 'I' for Inactive)
    1  A    between atoms: C_1  and  O_11
    2  A    between atoms: N_2  and  C_17
    3  A    between atoms: O_3  and  C_30
    4  A    between atoms: C_8  and  C_9
    5  A    between atoms: C_8  and  O_11
    6  A    between atoms: C_10  and  C_13
    7  A    between atoms: C_10  and  N_21
    8  A    between atoms: N_21  and  C_24
    9  A    between atoms: N_21  and  C_28
   10  A    between atoms: N_22  and  C_26
   11  A    between atoms: C_26  and  C_34
                            x       y       z     vdW  Elec       q    Type
                         _______ _______ _______ _____ _____    ______ ____

>  <TORSDO>
F 11

$$$$
=
 OpenBabel11052411043D

 34 36  0  0  1  0  0  0  0  0999 V2000
  161.9790  206.4530  151.7210 C   0  0  0  0  0  3  0  0  0  0  0  0
  161.4380  208.4430  152.9640 C   0  0  0  0  0  0  0  0  0  0  0  0
  161.6410  209.8630  152.8030 C   0  0  0  0  0  0  0  0  0  0  0  0
  161.9970  207.8400  151.8720 C   0  0  0  0  0  0  0  0  0  0  0  0
  160.7830  206.3160  153.8460 C   0  0  0  0  0  3  0  0  0  0  0  0
  162.5770  208.8900  150.9820 C   0  0  2  0  0  3  0  0  0  0  0  0
  162.2730  210.1360  151.7020 N   0  0  0  0  0  0  0  0  0  0  0  0
  161.3610  205.6790  152.7270 C   0  0  0  0  0  0  0  0  0  0  0  0
  160.8170  207.7140  153.9760 C   0  0  0  0  0  3  0  0  0  0  0  0
  160.0680  211.4630  153.6110 C   0  0  0  0  0  3  0  0  0  0  0  0
  161.2020  210.8530  153.7350 N   0  0  0  0  0  0  0  0  0  0  0  0
  159.6860  212.4160  154.5460 O   0  0  0  0  0  0  0  0  0  0  0  0
  158.6450  212.1440  155.4720 C   0  0  2  0  0  3  0  0  0  0  0  0
  158.6220  210.7900  155.7690 F   0  0  0  0  0  0  0  0  0  0  0  0
  156.4820  213.0470  155.9050 F   0  0  0  0  0  0  0  0  0  0  0  0
  157.3050  212.5760  154.8960 C   0  0  0  0  0  0  0  0  0  0  0  0
  156.6980  211.5010  154.2750 F   0  0  0  0  0  0  0  0  0  0  0  0
  157.5040  213.5790  153.9640 F   0  0  0  0  0  0  0  0  0  0  0  0
  161.3060  204.2860  152.6420 O   0  0  0  0  0  0  0  0  0  0  0  0
  161.2710  203.5930  151.4020 C   0  0  0  0  0  1  0  0  0  0  0  0
  161.9380  208.8760  149.6590 N   0  0  0  0  0  0  0  0  0  0  0  0
  162.8410  207.1650  148.1190 C   0  0  0  0  0  3  0  0  0  0  0  0
  160.5060  205.6560  148.3580 C   0  0  0  0  0  3  0  0  0  0  0  0
  160.6330  206.8630  149.0510 C   0  0  0  0  0  3  0  0  0  0  0  0
  162.7130  205.9600  147.4220 C   0  0  0  0  0  3  0  0  0  0  0  0
  161.8040  207.6310  148.9420 C   0  0  0  0  0  0  0  0  0  0  0  0
  161.5450  205.1960  147.5380 C   0  0  0  0  0  0  0  0  0  0  0  0
  161.2460  202.8460  147.4590 O   0  0  0  0  0  0  0  0  0  0  0  0
  161.4140  203.9190  146.8150 C   0  0  0  0  0  0  0  0  0  0  0  0
  160.8210  204.7490  144.6540 C   0  0  0  0  0  2  0  0  0  0  0  0
  161.4700  203.9000  145.3840 N   0  0  0  0  0  0  0  0  0  0  0  0
  161.3750  210.1120  149.1050 C   0  0  0  0  0  2  0  0  0  0  0  0
  162.4330  210.9330  148.4380 C   0  0  0  0  0  3  0  0  0  0  0  0
  162.4140  212.2120  148.5210 N   0  0  0  0  0  2  0  0  0  0  0  0
  1  4  2  0  0  0  0
  1  8  1  0  0  0  0
  2  9  2  0  0  0  0
  3  2  1  0  0  0  0
  3 11  1  0  0  0  0
  4  2  1  0  0  0  0
  5  9  1  0  0  0  0
  6 21  1  6  0  0  0
  6  7  1  0  0  0  0
  6  4  1  0  0  0  0
  7  3  2  0  0  0  0
  8  5  2  0  0  0  0
 10 11  2  0  0  0  0
 10 12  1  0  0  0  0
 12 13  1  0  0  0  0
 13 14  1  6  0  0  0
 16 13  1  0  0  0  0
 16 15  1  0  0  0  0
 17 16  1  0  0  0  0
 18 16  1  0  0  0  0
 19  8  1  0  0  0  0
 20 19  1  0  0  0  0
 22 26  1  0  0  0  0
 23 24  1  0  0  0  0
 25 27  1  0  0  0  0
 25 22  2  0  0  0  0
 26 24  2  0  0  0  0
 26 21  1  0  0  0  0
 27 23  2  0  0  0  0
 29 28  2  0  0  0  0
 29 27  1  0  0  0  0
 30 31  2  0  0  0  0
 31 29  1  0  0  0  0
 32 21  1  0  0  0  0
 33 34  2  0  0  0  0
 33 32  1  0  0  0  0
M  END
>  <MODEL>
3

>  <REMARK>
 VINA RESULT:      -7.2      3.275      4.983
  Name = 
  11 active torsions:
  status: ('A' for Active; 'I' for Inactive)
    1  A    between atoms: C_1  and  O_11
    2  A    between atoms: N_2  and  C_17
    3  A    between atoms: O_3  and  C_30
    4  A    between atoms: C_8  and  C_9
    5  A    between atoms: C_8  and  O_11
    6  A    between atoms: C_10  and  C_13
    7  A    between atoms: C_10  and  N_21
    8  A    between atoms: N_21  and  C_24
    9  A    between atoms: N_21  and  C_28
   10  A    between atoms: N_22  and  C_26
   11  A    between atoms: C_26  and  C_34
                            x       y       z     vdW  Elec       q    Type
                         _______ _______ _______ _____ _____    ______ ____

>  <TORSDO>
F 11

$$$$
=
 OpenBabel11052411043D

 34 36  0  0  1  0  0  0  0  0999 V2000
  161.6430  204.3330  150.2670 C   0  0  0  0  0  3  0  0  0  0  0  0
  161.2790  205.4410  152.3740 C   0  0  0  0  0  0  0  0  0  0  0  0
  161.6360  206.7090  152.9630 C   0  0  0  0  0  0  0  0  0  0  0  0
  161.8040  205.4320  151.1110 C   0  0  0  0  0  0  0  0  0  0  0  0
  160.3740  203.2480  152.0500 C   0  0  0  0  0  3  0  0  0  0  0  0
  162.5200  206.7220  150.8750 C   0  0  2  0  0  3  0  0  0  0  0  0
  162.3270  207.4420  152.1430 N   0  0  0  0  0  0  0  0  0  0  0  0
  160.9150  203.2220  150.7460 C   0  0  0  0  0  0  0  0  0  0  0  0
  160.5520  204.3660  152.8820 C   0  0  0  0  0  3  0  0  0  0  0  0
  161.2160  208.3620  154.6300 C   0  0  0  0  0  3  0  0  0  0  0  0
  161.2760  207.1170  154.2840 N   0  0  0  0  0  0  0  0  0  0  0  0
  160.8580  208.7060  155.9270 O   0  0  0  0  0  0  0  0  0  0  0  0
  160.0920  209.8750  156.1790 C   0  0  2  0  0  3  0  0  0  0  0  0
  159.0980  210.0010  155.2210 F   0  0  0  0  0  0  0  0  0  0  0  0
  162.2720  210.7600  156.5570 F   0  0  0  0  0  0  0  0  0  0  0  0
  160.9900  211.1030  156.1670 C   0  0  0  0  0  0  0  0  0  0  0  0
  160.4870  212.0540  157.0350 F   0  0  0  0  0  0  0  0  0  0  0  0
  161.0280  211.6350  154.8910 F   0  0  0  0  0  0  0  0  0  0  0  0
  160.7150  202.0880  149.9570 O   0  0  0  0  0  0  0  0  0  0  0  0
  160.7280  202.1290  148.5360 C   0  0  0  0  0  1  0  0  0  0  0  0
  161.9230  207.4610  149.7540 N   0  0  0  0  0  0  0  0  0  0  0  0
  160.4060  206.6400  147.9810 C   0  0  0  0  0  3  0  0  0  0  0  0
  162.5720  205.6450  146.5300 C   0  0  0  0  0  3  0  0  0  0  0  0
  162.7850  206.2860  147.7520 C   0  0  0  0  0  3  0  0  0  0  0  0
  160.1920  205.9950  146.7600 C   0  0  0  0  0  3  0  0  0  0  0  0
  161.7040  206.7940  148.4930 C   0  0  0  0  0  0  0  0  0  0  0  0
  161.2730  205.4940  146.0250 C   0  0  0  0  0  0  0  0  0  0  0  0
  161.4270  205.3820  143.6630 O   0  0  0  0  0  0  0  0  0  0  0  0
  161.0500  204.8250  144.7310 C   0  0  0  0  0  0  0  0  0  0  0  0
  160.8520  202.5300  145.3650 C   0  0  0  0  0  2  0  0  0  0  0  0
  160.4130  203.5430  144.6910 N   0  0  0  0  0  0  0  0  0  0  0  0
  161.4880  208.8490  149.9400 C   0  0  0  0  0  2  0  0  0  0  0  0
  162.1330  209.7540  148.9390 C   0  0  0  0  0  3  0  0  0  0  0  0
  162.0040  211.0260  149.0330 N   0  0  0  0  0  2  0  0  0  0  0  0
  1  8  2  0  0  0  0
  1  4  1  0  0  0  0
  2  9  1  0  0  0  0
  2  3  1  0  0  0  0
  3 11  1  0  0  0  0
  4  2  2  0  0  0  0
  5  9  2  0  0  0  0
  6 21  1  6  0  0  0
  6  4  1  0  0  0  0
  6  7  1  0  0  0  0
  7  3  2  0  0  0  0
  8  5  1  0  0  0  0
 10 12  1  0  0  0  0
 11 10  2  0  0  0  0
 12 13  1  0  0  0  0
 13 14  1  6  0  0  0
 16 13  1  0  0  0  0
 16 15  1  0  0  0  0
 16 17  1  0  0  0  0
 18 16  1  0  0  0  0
 19  8  1  0  0  0  0
 20 19  1  0  0  0  0
 21 32  1  0  0  0  0
 22 26  1  0  0  0  0
 23 24  1  0  0  0  0
 24 26  2  0  0  0  0
 25 22  2  0  0  0  0
 26 21  1  0  0  0  0
 27 23  2  0  0  0  0
 27 25  1  0  0  0  0
 28 29  2  0  0  0  0
 29 27  1  0  0  0  0
 31 29  1  0  0  0  0
 31 30  2  0  0  0  0
 33 34  2  0  0  0  0
 33 32  1  0  0  0  0
M  END
>  <MODEL>
4

>  <REMARK>
 VINA RESULT:      -7.0      3.187      5.465
  Name = 
  11 active torsions:
  status: ('A' for Active; 'I' for Inactive)
    1  A    between atoms: C_1  and  O_11
    2  A    between atoms: N_2  and  C_17
    3  A    between atoms: O_3  and  C_30
    4  A    between atoms: C_8  and  C_9
    5  A    between atoms: C_8  and  O_11
    6  A    between atoms: C_10  and  C_13
    7  A    between atoms: C_10  and  N_21
    8  A    between atoms: N_21  and  C_24
    9  A    between atoms: N_21  and  C_28
   10  A    between atoms: N_22  and  C_26
   11  A    between atoms: C_26  and  C_34
                            x       y       z     vdW  Elec       q    Type
                         _______ _______ _______ _____ _____    ______ ____

>  <TORSDO>
F 11

$$$$
=
 OpenBabel11052411043D

 34 36  0  0  1  0  0  0  0  0999 V2000
  159.3230  210.4170  154.8730 C   0  0  0  0  0  3  0  0  0  0  0  0
  160.1590  210.9500  152.6780 C   0  0  0  0  0  0  0  0  0  0  0  0
  161.2640  210.5280  151.8500 C   0  0  0  0  0  0  0  0  0  0  0  0
  160.2470  210.2390  153.8430 C   0  0  0  0  0  0  0  0  0  0  0  0
  158.2000  212.0730  153.4720 C   0  0  0  0  0  3  0  0  0  0  0  0
  161.4360  209.3370  153.7720 C   0  0  2  0  0  3  0  0  0  0  0  0
  161.9890  209.6260  152.4400 N   0  0  0  0  0  0  0  0  0  0  0  0
  158.2810  211.3510  154.6820 C   0  0  0  0  0  0  0  0  0  0  0  0
  159.1450  211.8780  152.4520 C   0  0  0  0  0  3  0  0  0  0  0  0
  162.0150  210.2900  149.5990 C   0  0  0  0  0  3  0  0  0  0  0  0
  161.5330  211.0340  150.5410 N   0  0  0  0  0  0  0  0  0  0  0  0
  162.2560  210.8310  148.3430 O   0  0  0  0  0  0  0  0  0  0  0  0
  161.6960  212.0820  147.9750 C   0  0  2  0  0  3  0  0  0  0  0  0
  160.8130  211.9100  146.9200 F   0  0  0  0  0  0  0  0  0  0  0  0
  162.8370  213.1990  146.2050 F   0  0  0  0  0  0  0  0  0  0  0  0
  162.7980  213.0550  147.5810 C   0  0  0  0  0  0  0  0  0  0  0  0
  164.0170  212.5790  148.0260 F   0  0  0  0  0  0  0  0  0  0  0  0
  162.5570  214.2860  148.1620 F   0  0  0  0  0  0  0  0  0  0  0  0
  157.3210  211.5820  155.6700 O   0  0  0  0  0  0  0  0  0  0  0  0
  157.6620  211.8740  157.0180 C   0  0  0  0  0  1  0  0  0  0  0  0
  161.0380  207.9270  153.8820 N   0  0  0  0  0  0  0  0  0  0  0  0
  161.5420  205.7610  152.7980 C   0  0  0  0  0  3  0  0  0  0  0  0
  160.6490  206.7380  150.3400 C   0  0  0  0  0  3  0  0  0  0  0  0
  160.6240  207.5590  151.4700 C   0  0  0  0  0  3  0  0  0  0  0  0
  161.5710  204.9410  151.6670 C   0  0  0  0  0  3  0  0  0  0  0  0
  161.0670  207.0810  152.7140 C   0  0  0  0  0  0  0  0  0  0  0  0
  161.1240  205.4220  150.4300 C   0  0  0  0  0  0  0  0  0  0  0  0
  161.1980  203.3000  149.3780 O   0  0  0  0  0  0  0  0  0  0  0  0
  161.1430  204.5530  149.2410 C   0  0  0  0  0  0  0  0  0  0  0  0
  162.1480  205.3050  147.2080 C   0  0  0  0  0  2  0  0  0  0  0  0
  161.0900  205.1340  147.9320 N   0  0  0  0  0  0  0  0  0  0  0  0
  160.6800  207.3670  155.1900 C   0  0  0  0  0  2  0  0  0  0  0  0
  161.6350  207.8200  156.2480 C   0  0  0  0  0  3  0  0  0  0  0  0
  161.2170  208.4880  157.2590 N   0  0  0  0  0  2  0  0  0  0  0  0
  2  4  1  0  0  0  0
  3  7  2  0  0  0  0
  3  2  1  0  0  0  0
  4  1  2  0  0  0  0
  5  8  2  0  0  0  0
  6  4  1  0  0  0  0
  6 21  1  6  0  0  0
  7  6  1  0  0  0  0
  8  1  1  0  0  0  0
  8 19  1  0  0  0  0
  9  2  2  0  0  0  0
  9  5  1  0  0  0  0
 10 11  2  0  0  0  0
 11  3  1  0  0  0  0
 12 10  1  0  0  0  0
 13 14  1  6  0  0  0
 13 12  1  0  0  0  0
 15 16  1  0  0  0  0
 16 13  1  0  0  0  0
 16 17  1  0  0  0  0
 16 18  1  0  0  0  0
 19 20  1  0  0  0  0
 21 32  1  0  0  0  0
 23 27  2  0  0  0  0
 23 24  1  0  0  0  0
 24 26  2  0  0  0  0
 25 22  2  0  0  0  0
 26 22  1  0  0  0  0
 26 21  1  0  0  0  0
 27 25  1  0  0  0  0
 29 28  2  0  0  0  0
 29 27  1  0  0  0  0
 30 31  2  0  0  0  0
 31 29  1  0  0  0  0
 32 33  1  0  0  0  0
 33 34  2  0  0  0  0
M  END
>  <MODEL>
5

>  <REMARK>
 VINA RESULT:      -6.9      2.690      3.970
  Name = 
  11 active torsions:
  status: ('A' for Active; 'I' for Inactive)
    1  A    between atoms: C_1  and  O_11
    2  A    between atoms: N_2  and  C_17
    3  A    between atoms: O_3  and  C_30
    4  A    between atoms: C_8  and  C_9
    5  A    between atoms: C_8  and  O_11
    6  A    between atoms: C_10  and  C_13
    7  A    between atoms: C_10  and  N_21
    8  A    between atoms: N_21  and  C_24
    9  A    between atoms: N_21  and  C_28
   10  A    between atoms: N_22  and  C_26
   11  A    between atoms: C_26  and  C_34
                            x       y       z     vdW  Elec       q    Type
                         _______ _______ _______ _____ _____    ______ ____

>  <TORSDO>
F 11

$$$$
=
 OpenBabel11052411043D

 34 36  0  0  1  0  0  0  0  0999 V2000
  162.0070  209.8650  151.3390 C   0  0  0  0  0  3  0  0  0  0  0  0
  161.8620  207.5180  150.8180 C   0  0  0  0  0  0  0  0  0  0  0  0
  161.8320  206.2830  151.5640 C   0  0  0  0  0  0  0  0  0  0  0  0
  161.9490  208.5290  151.7350 C   0  0  0  0  0  0  0  0  0  0  0  0
  161.8690  209.1010  149.0230 C   0  0  0  0  0  3  0  0  0  0  0  0
  161.9790  207.9370  153.1070 C   0  0  2  0  0  3  0  0  0  0  0  0
  161.8940  206.4930  152.8440 N   0  0  0  0  0  0  0  0  0  0  0  0
  161.9660  210.1550  149.9580 C   0  0  0  0  0  0  0  0  0  0  0  0
  161.8170  207.7640  149.4470 C   0  0  0  0  0  3  0  0  0  0  0  0
  160.6780  204.2570  151.0620 C   0  0  0  0  0  3  0  0  0  0  0  0
  161.7440  204.9840  150.9740 N   0  0  0  0  0  0  0  0  0  0  0  0
  160.6420  203.0020  150.4680 O   0  0  0  0  0  0  0  0  0  0  0  0
  161.1930  202.7990  149.1750 C   0  0  2  0  0  3  0  0  0  0  0  0
  160.8890  203.8780  148.3600 F   0  0  0  0  0  0  0  0  0  0  0  0
  161.3540  200.4240  149.0440 F   0  0  0  0  0  0  0  0  0  0  0  0
  160.6460  201.5140  148.5690 C   0  0  0  0  0  0  0  0  0  0  0  0
  160.7570  201.5670  147.1920 F   0  0  0  0  0  0  0  0  0  0  0  0
  159.3120  201.3750  148.9070 F   0  0  0  0  0  0  0  0  0  0  0  0
  162.0190  211.4690  149.4880 O   0  0  0  0  0  0  0  0  0  0  0  0
  162.6700  211.8250  148.2760 C   0  0  0  0  0  1  0  0  0  0  0  0
  160.8340  208.3950  153.9060 N   0  0  0  0  0  0  0  0  0  0  0  0
  160.8980  210.7860  154.5380 C   0  0  0  0  0  3  0  0  0  0  0  0
  158.8780  211.3680  152.7010 C   0  0  0  0  0  3  0  0  0  0  0  0
  159.3380  210.0560  152.8420 C   0  0  0  0  0  3  0  0  0  0  0  0
  160.4350  212.0980  154.3990 C   0  0  0  0  0  3  0  0  0  0  0  0
  160.3560  209.7490  153.7610 C   0  0  0  0  0  0  0  0  0  0  0  0
  159.4240  212.3990  153.4790 C   0  0  0  0  0  0  0  0  0  0  0  0
  159.1220  214.3900  152.2300 O   0  0  0  0  0  0  0  0  0  0  0  0
  158.9440  213.7830  153.3220 C   0  0  0  0  0  0  0  0  0  0  0  0
  157.2950  213.8770  155.0490 C   0  0  0  0  0  2  0  0  0  0  0  0
  158.2720  214.4330  154.4080 N   0  0  0  0  0  0  0  0  0  0  0  0
  160.1380  207.4580  154.7940 C   0  0  0  0  0  2  0  0  0  0  0  0
  160.3780  207.7990  156.2300 C   0  0  0  0  0  3  0  0  0  0  0  0
  160.0920  206.9590  157.1550 N   0  0  0  0  0  2  0  0  0  0  0  0
  1  4  1  0  0  0  0
  2  3  1  0  0  0  0
  2  4  2  0  0  0  0
  3  7  2  0  0  0  0
  4  6  1  0  0  0  0
  5  9  2  0  0  0  0
  5  8  1  0  0  0  0
  6 21  1  1  0  0  0
  7  6  1  0  0  0  0
  8  1  2  0  0  0  0
  9  2  1  0  0  0  0
 11 10  2  0  0  0  0
 11  3  1  0  0  0  0
 12 10  1  0  0  0  0
 13 14  1  6  0  0  0
 13 12  1  0  0  0  0
 16 18  1  0  0  0  0
 16 15  1  0  0  0  0
 16 13  1  0  0  0  0
 17 16  1  0  0  0  0
 19  8  1  0  0  0  0
 20 19  1  0  0  0  0
 21 32  1  0  0  0  0
 23 24  2  0  0  0  0
 23 27  1  0  0  0  0
 24 26  1  0  0  0  0
 25 22  1  0  0  0  0
 26 21  1  0  0  0  0
 26 22  2  0  0  0  0
 27 25  2  0  0  0  0
 28 29  2  0  0  0  0
 29 27  1  0  0  0  0
 29 31  1  0  0  0  0
 31 30  2  0  0  0  0
 32 33  1  0  0  0  0
 33 34  2  0  0  0  0
M  END
>  <MODEL>
6

>  <REMARK>
 VINA RESULT:      -6.7      4.873      8.633
  Name = 
  11 active torsions:
  status: ('A' for Active; 'I' for Inactive)
    1  A    between atoms: C_1  and  O_11
    2  A    between atoms: N_2  and  C_17
    3  A    between atoms: O_3  and  C_30
    4  A    between atoms: C_8  and  C_9
    5  A    between atoms: C_8  and  O_11
    6  A    between atoms: C_10  and  C_13
    7  A    between atoms: C_10  and  N_21
    8  A    between atoms: N_21  and  C_24
    9  A    between atoms: N_21  and  C_28
   10  A    between atoms: N_22  and  C_26
   11  A    between atoms: C_26  and  C_34
                            x       y       z     vdW  Elec       q    Type
                         _______ _______ _______ _____ _____    ______ ____

>  <TORSDO>
F 11

$$$$
=
 OpenBabel11052411043D

 34 36  0  0  1  0  0  0  0  0999 V2000
  159.9650  210.4030  154.0990 C   0  0  0  0  0  3  0  0  0  0  0  0
  160.7310  210.6280  151.8270 C   0  0  0  0  0  0  0  0  0  0  0  0
  161.6920  209.9640  150.9780 C   0  0  0  0  0  0  0  0  0  0  0  0
  160.7750  209.9970  153.0390 C   0  0  0  0  0  0  0  0  0  0  0  0
  159.0460  212.1260  152.6310 C   0  0  0  0  0  3  0  0  0  0  0  0
  161.7880  208.8990  152.9780 C   0  0  2  0  0  3  0  0  0  0  0  0
  162.2930  208.9940  151.5990 N   0  0  0  0  0  0  0  0  0  0  0  0
  159.0850  211.4880  153.8890 C   0  0  0  0  0  0  0  0  0  0  0  0
  159.8760  211.7000  151.5810 C   0  0  0  0  0  3  0  0  0  0  0  0
  162.3580  211.5050  149.2850 C   0  0  0  0  0  3  0  0  0  0  0  0
  161.9560  210.3230  149.6210 N   0  0  0  0  0  0  0  0  0  0  0  0
  162.6030  211.8030  147.9500 O   0  0  0  0  0  0  0  0  0  0  0  0
  162.3090  213.0910  147.4310 C   0  0  2  0  0  3  0  0  0  0  0  0
  162.3470  214.0290  148.4520 F   0  0  0  0  0  0  0  0  0  0  0  0
  161.0410  213.4950  145.4540 F   0  0  0  0  0  0  0  0  0  0  0  0
  160.9360  213.0900  146.7730 C   0  0  0  0  0  0  0  0  0  0  0  0
  160.0960  213.9540  147.4510 F   0  0  0  0  0  0  0  0  0  0  0  0
  160.4030  211.8150  146.8190 F   0  0  0  0  0  0  0  0  0  0  0  0
  158.2450  211.9500  154.9050 O   0  0  0  0  0  0  0  0  0  0  0  0
  157.3780  213.0640  154.7360 C   0  0  0  0  0  1  0  0  0  0  0  0
  161.1670  207.5910  153.2230 N   0  0  0  0  0  0  0  0  0  0  0  0
  160.7240  206.9180  150.8830 C   0  0  0  0  0  3  0  0  0  0  0  0
  161.5840  204.3190  151.4250 C   0  0  0  0  0  3  0  0  0  0  0  0
  161.5880  205.2820  152.4380 C   0  0  0  0  0  3  0  0  0  0  0  0
  160.7170  205.9540  149.8720 C   0  0  0  0  0  3  0  0  0  0  0  0
  161.1600  206.5950  152.1790 C   0  0  0  0  0  0  0  0  0  0  0  0
  161.1480  204.6480  150.1340 C   0  0  0  0  0  0  0  0  0  0  0  0
  161.8380  203.8250  148.0220 O   0  0  0  0  0  0  0  0  0  0  0  0
  161.1530  203.6350  149.0650 C   0  0  0  0  0  0  0  0  0  0  0  0
  160.8780  201.3600  149.7440 C   0  0  0  0  0  2  0  0  0  0  0  0
  160.3860  202.4340  149.2160 N   0  0  0  0  0  0  0  0  0  0  0  0
  160.6190  207.2770  154.5470 C   0  0  0  0  0  2  0  0  0  0  0  0
  161.5810  207.6490  155.6290 C   0  0  0  0  0  3  0  0  0  0  0  0
  161.1730  207.8180  156.8330 N   0  0  0  0  0  2  0  0  0  0  0  0
  2  4  1  0  0  0  0
  3  7  2  0  0  0  0
  3  2  1  0  0  0  0
  4  1  2  0  0  0  0
  5  8  2  0  0  0  0
  6  4  1  0  0  0  0
  6 21  1  6  0  0  0
  7  6  1  0  0  0  0
  8  1  1  0  0  0  0
  8 19  1  0  0  0  0
  9  2  2  0  0  0  0
  9  5  1  0  0  0  0
 10 11  2  0  0  0  0
 11  3  1  0  0  0  0
 12 10  1  0  0  0  0
 13 12  1  0  0  0  0
 13 14  1  1  0  0  0
 15 16  1  0  0  0  0
 16 18  1  0  0  0  0
 16 13  1  0  0  0  0
 16 17  1  0  0  0  0
 20 19  1  0  0  0  0
 21 32  1  0  0  0  0
 22 26  1  0  0  0  0
 23 24  1  0  0  0  0
 25 27  1  0  0  0  0
 25 22  2  0  0  0  0
 26 24  2  0  0  0  0
 26 21  1  0  0  0  0
 27 23  2  0  0  0  0
 28 29  2  0  0  0  0
 29 31  1  0  0  0  0
 29 27  1  0  0  0  0
 31 30  2  0  0  0  0
 32 33  1  0  0  0  0
 33 34  2  0  0  0  0
M  END
>  <MODEL>
7

>  <REMARK>
 VINA RESULT:      -6.5      2.464      3.851
  Name = 
  11 active torsions:
  status: ('A' for Active; 'I' for Inactive)
    1  A    between atoms: C_1  and  O_11
    2  A    between atoms: N_2  and  C_17
    3  A    between atoms: O_3  and  C_30
    4  A    between atoms: C_8  and  C_9
    5  A    between atoms: C_8  and  O_11
    6  A    between atoms: C_10  and  C_13
    7  A    between atoms: C_10  and  N_21
    8  A    between atoms: N_21  and  C_24
    9  A    between atoms: N_21  and  C_28
   10  A    between atoms: N_22  and  C_26
   11  A    between atoms: C_26  and  C_34
                            x       y       z     vdW  Elec       q    Type
                         _______ _______ _______ _____ _____    ______ ____

>  <TORSDO>
F 11

$$$$
=
 OpenBabel11052411043D

 34 36  0  0  1  0  0  0  0  0999 V2000
  160.7240  209.4650  153.8810 C   0  0  0  0  0  3  0  0  0  0  0  0
  160.9080  210.8950  151.9520 C   0  0  0  0  0  0  0  0  0  0  0  0
  161.5760  210.8440  150.6730 C   0  0  0  0  0  0  0  0  0  0  0  0
  161.2120  209.7310  152.6010 C   0  0  0  0  0  0  0  0  0  0  0  0
  159.5870  211.6260  153.8100 C   0  0  0  0  0  3  0  0  0  0  0  0
  162.0980  208.9050  151.7260 C   0  0  2  0  0  3  0  0  0  0  0  0
  162.2450  209.7400  150.5250 N   0  0  0  0  0  0  0  0  0  0  0  0
  159.8970  210.4310  154.4950 C   0  0  0  0  0  0  0  0  0  0  0  0
  160.0940  211.8710  152.5230 C   0  0  0  0  0  3  0  0  0  0  0  0
  161.5590  211.6210  148.4190 C   0  0  0  0  0  3  0  0  0  0  0  0
  161.5130  211.8750  149.6860 N   0  0  0  0  0  0  0  0  0  0  0  0
  161.4920  212.6590  147.4990 O   0  0  0  0  0  0  0  0  0  0  0  0
  160.3270  213.4650  147.4040 C   0  0  2  0  0  3  0  0  0  0  0  0
  159.7560  213.6170  148.6590 F   0  0  0  0  0  0  0  0  0  0  0  0
  158.2810  212.2680  147.1590 F   0  0  0  0  0  0  0  0  0  0  0  0
  159.3270  212.8310  146.4480 C   0  0  0  0  0  0  0  0  0  0  0  0
  159.9550  211.8490  145.7050 F   0  0  0  0  0  0  0  0  0  0  0  0
  158.8300  213.7960  145.5920 F   0  0  0  0  0  0  0  0  0  0  0  0
  159.3730  210.2330  155.7740 O   0  0  0  0  0  0  0  0  0  0  0  0
  160.0520  209.4850  156.7740 C   0  0  0  0  0  1  0  0  0  0  0  0
  161.4690  207.6180  151.4000 N   0  0  0  0  0  0  0  0  0  0  0  0
  162.3860  207.5610  149.1030 C   0  0  0  0  0  3  0  0  0  0  0  0
  160.2670  205.9570  148.2520 C   0  0  0  0  0  3  0  0  0  0  0  0
  160.3340  206.3780  149.5830 C   0  0  0  0  0  3  0  0  0  0  0  0
  162.3170  207.1430  147.7720 C   0  0  0  0  0  3  0  0  0  0  0  0
  161.3960  207.1840  150.0250 C   0  0  0  0  0  0  0  0  0  0  0  0
  161.2580  206.3360  147.3370 C   0  0  0  0  0  0  0  0  0  0  0  0
  160.3740  206.4240  145.1400 O   0  0  0  0  0  0  0  0  0  0  0  0
  161.1910  205.8830  145.9360 C   0  0  0  0  0  0  0  0  0  0  0  0
  163.2370  204.6510  145.9770 C   0  0  0  0  0  2  0  0  0  0  0  0
  162.0570  204.8370  145.4820 N   0  0  0  0  0  0  0  0  0  0  0  0
  160.9820  206.7470  152.4750 C   0  0  0  0  0  2  0  0  0  0  0  0
  161.7640  205.4740  152.5320 C   0  0  0  0  0  3  0  0  0  0  0  0
  161.1820  204.3440  152.3590 N   0  0  0  0  0  2  0  0  0  0  0  0
  1  8  1  0  0  0  0
  2  9  2  0  0  0  0
  2  4  1  0  0  0  0
  3  2  1  0  0  0  0
  4  1  2  0  0  0  0
  5  8  2  0  0  0  0
  6 21  1  6  0  0  0
  6  4  1  0  0  0  0
  7  3  2  0  0  0  0
  7  6  1  0  0  0  0
  8 19  1  0  0  0  0
  9  5  1  0  0  0  0
 10 11  2  0  0  0  0
 11  3  1  0  0  0  0
 12 10  1  0  0  0  0
 13 12  1  0  0  0  0
 13 14  1  1  0  0  0
 16 15  1  0  0  0  0
 16 13  1  0  0  0  0
 17 16  1  0  0  0  0
 18 16  1  0  0  0  0
 19 20  1  0  0  0  0
 21 32  1  0  0  0  0
 22 26  1  0  0  0  0
 23 24  1  0  0  0  0
 24 26  2  0  0  0  0
 25 22  2  0  0  0  0
 26 21  1  0  0  0  0
 27 25  1  0  0  0  0
 27 23  2  0  0  0  0
 28 29  2  0  0  0  0
 29 27  1  0  0  0  0
 31 29  1  0  0  0  0
 31 30  2  0  0  0  0
 32 33  1  0  0  0  0
 34 33  2  0  0  0  0
M  END
>  <MODEL>
8

>  <REMARK>
 VINA RESULT:      -6.4      1.800      2.572
  Name = 
  11 active torsions:
  status: ('A' for Active; 'I' for Inactive)
    1  A    between atoms: C_1  and  O_11
    2  A    between atoms: N_2  and  C_17
    3  A    between atoms: O_3  and  C_30
    4  A    between atoms: C_8  and  C_9
    5  A    between atoms: C_8  and  O_11
    6  A    between atoms: C_10  and  C_13
    7  A    between atoms: C_10  and  N_21
    8  A    between atoms: N_21  and  C_24
    9  A    between atoms: N_21  and  C_28
   10  A    between atoms: N_22  and  C_26
   11  A    between atoms: C_26  and  C_34
                            x       y       z     vdW  Elec       q    Type
                         _______ _______ _______ _____ _____    ______ ____

>  <TORSDO>
F 11

$$$$
=
 OpenBabel11052411043D

 34 36  0  0  1  0  0  0  0  0999 V2000
  161.5300  211.6160  150.6480 C   0  0  0  0  0  3  0  0  0  0  0  0
  161.9810  209.7820  149.1550 C   0  0  0  0  0  0  0  0  0  0  0  0
  162.4220  208.4130  149.2840 C   0  0  0  0  0  0  0  0  0  0  0  0
  161.9190  210.2960  150.4200 C   0  0  0  0  0  0  0  0  0  0  0  0
  161.2550  211.8690  148.2340 C   0  0  0  0  0  3  0  0  0  0  0  0
  162.3310  209.2400  151.3930 C   0  0  2  0  0  3  0  0  0  0  0  0
  162.6210  208.0890  150.5260 N   0  0  0  0  0  0  0  0  0  0  0  0
  161.1920  212.4160  149.5340 C   0  0  0  0  0  0  0  0  0  0  0  0
  161.6530  210.5370  148.0310 C   0  0  0  0  0  3  0  0  0  0  0  0
  161.8080  206.5390  147.9440 C   0  0  0  0  0  3  0  0  0  0  0  0
  162.6160  207.5190  148.1870 N   0  0  0  0  0  0  0  0  0  0  0  0
  162.0400  205.6990  146.8620 O   0  0  0  0  0  0  0  0  0  0  0  0
  161.3710  204.4510  146.7600 C   0  0  2  0  0  3  0  0  0  0  0  0
  161.8470  203.5810  147.7280 F   0  0  0  0  0  0  0  0  0  0  0  0
  162.9120  203.9550  145.0100 F   0  0  0  0  0  0  0  0  0  0  0  0
  161.5800  203.8570  145.3740 C   0  0  0  0  0  0  0  0  0  0  0  0
  160.8030  204.5370  144.4550 F   0  0  0  0  0  0  0  0  0  0  0  0
  161.2060  202.5250  145.3820 F   0  0  0  0  0  0  0  0  0  0  0  0
  160.7940  213.7460  149.6860 O   0  0  0  0  0  0  0  0  0  0  0  0
  159.9650  214.1810  150.7550 C   0  0  0  0  0  1  0  0  0  0  0  0
  161.2430  208.9320  152.3320 N   0  0  0  0  0  0  0  0  0  0  0  0
  161.4350  210.4450  154.2800 C   0  0  0  0  0  3  0  0  0  0  0  0
  158.9330  211.5480  153.7220 C   0  0  0  0  0  3  0  0  0  0  0  0
  159.4480  210.5370  152.9070 C   0  0  0  0  0  3  0  0  0  0  0  0
  160.9170  211.4530  155.0970 C   0  0  0  0  0  3  0  0  0  0  0  0
  160.7070  209.9740  153.1740 C   0  0  0  0  0  0  0  0  0  0  0  0
  159.6640  212.0130  154.8240 C   0  0  0  0  0  0  0  0  0  0  0  0
  159.8610  214.0510  156.0170 O   0  0  0  0  0  0  0  0  0  0  0  0
  159.1230  213.0850  155.6770 C   0  0  0  0  0  0  0  0  0  0  0  0
  156.8550  213.8380  155.6570 C   0  0  0  0  0  2  0  0  0  0  0  0
  157.7590  213.0320  156.1120 N   0  0  0  0  0  0  0  0  0  0  0  0
  160.6580  207.5870  152.3590 C   0  0  0  0  0  2  0  0  0  0  0  0
  161.1770  206.7980  153.5180 C   0  0  0  0  0  3  0  0  0  0  0  0
  161.2060  205.5170  153.4740 N   0  0  0  0  0  2  0  0  0  0  0  0
  2  3  1  0  0  0  0
  2  4  2  0  0  0  0
  3  7  2  0  0  0  0
  4  1  1  0  0  0  0
  4  6  1  0  0  0  0
  5  8  1  0  0  0  0
  6 21  1  1  0  0  0
  7  6  1  0  0  0  0
  8 19  1  0  0  0  0
  8  1  2  0  0  0  0
  9  5  2  0  0  0  0
  9  2  1  0  0  0  0
 10 11  2  0  0  0  0
 11  3  1  0  0  0  0
 12 10  1  0  0  0  0
 13 12  1  0  0  0  0
 13 14  1  1  0  0  0
 15 16  1  0  0  0  0
 16 18  1  0  0  0  0
 16 13  1  0  0  0  0
 17 16  1  0  0  0  0
 19 20  1  0  0  0  0
 21 32  1  0  0  0  0
 21 26  1  0  0  0  0
 22 25  1  0  0  0  0
 23 27  1  0  0  0  0
 24 26  1  0  0  0  0
 24 23  2  0  0  0  0
 26 22  2  0  0  0  0
 27 25  2  0  0  0  0
 27 29  1  0  0  0  0
 29 28  2  0  0  0  0
 29 31  1  0  0  0  0
 30 31  2  0  0  0  0
 32 33  1  0  0  0  0
 34 33  2  0  0  0  0
M  END
>  <MODEL>
9

>  <REMARK>
 VINA RESULT:      -6.3      4.189      8.404
  Name = 
  11 active torsions:
  status: ('A' for Active; 'I' for Inactive)
    1  A    between atoms: C_1  and  O_11
    2  A    between atoms: N_2  and  C_17
    3  A    between atoms: O_3  and  C_30
    4  A    between atoms: C_8  and  C_9
    5  A    between atoms: C_8  and  O_11
    6  A    between atoms: C_10  and  C_13
    7  A    between atoms: C_10  and  N_21
    8  A    between atoms: N_21  and  C_24
    9  A    between atoms: N_21  and  C_28
   10  A    between atoms: N_22  and  C_26
   11  A    between atoms: C_26  and  C_34
                            x       y       z     vdW  Elec       q    Type
                         _______ _______ _______ _____ _____    ______ ____

>  <TORSDO>
F 11

$$$$
