=
 OpenBabel11042421553D

 47 52  0  0  1  0  0  0  0  0999 V2000
  158.8180  213.0670  147.4800 C   0  0  0  0  0  2  0  0  0  0  0  0
  160.8120  212.8510  145.9120 C   0  0  0  0  0  0  0  0  0  0  0  0
  162.1250  212.0710  147.8550 C   0  0  0  0  0  3  0  0  0  0  0  0
  161.9870  212.7320  146.5430 C   0  0  0  0  0  3  0  0  0  0  0  0
  159.5850  212.2020  146.4760 C   0  0  0  0  0  2  0  0  0  0  0  0
  161.4950  212.4640  148.9690 C   0  0  0  0  0  0  0  0  0  0  0  0
  159.6220  214.0130  148.3340 C   0  0  0  0  0  3  0  0  0  0  0  0
  160.7410  213.7360  149.0120 C   0  0  0  0  0  3  0  0  0  0  0  0
  159.1040  214.4530  143.0500 C   0  0  0  0  0  2  0  0  0  0  0  0
  159.5260  213.0990  142.5060 C   0  0  2  0  0  3  0  0  0  0  0  0
  160.7070  213.5490  144.5890 C   0  0  2  0  0  3  0  0  0  0  0  0
  159.4930  214.4530  144.5100 C   0  0  0  0  0  2  0  0  0  0  0  0
  160.5940  212.5600  143.4410 C   0  0  0  0  0  2  0  0  0  0  0  0
  160.1000  213.2490  141.1070 C   0  0  0  0  0  2  0  0  0  0  0  0
  161.4070  212.4700  140.9640 C   0  0  1  0  0  3  0  0  0  0  0  0
  159.8020  210.9060  139.7850 C   0  0  0  0  0  2  0  0  0  0  0  0
  159.6440  209.7520  138.7770 C   0  0  0  0  0  2  0  0  0  0  0  0
  162.1410  210.1360  140.2970 C   0  0  0  0  0  2  0  0  0  0  0  0
  161.6920  208.8470  139.5930 C   0  0  0  0  0  2  0  0  0  0  0  0
  161.2640  211.3430  139.9300 C   0  0  0  0  0  3  0  0  0  0  0  0
  160.9260  209.1560  138.3890 N   0  0  0  0  0  2  0  0  0  0  0  0
  162.5140  213.4140  140.6000 C   0  0  0  0  0  0  0  0  0  0  0  0
  162.8190  213.6300  139.2620 O   0  0  0  0  0  0  0  0  0  0  0  0
  163.1720  214.0100  141.4950 O   0  0  0  0  0  1  0  0  0  0  0  0
  161.7460  211.7130  150.1640 N   0  0  0  0  0  2  0  0  0  0  0  0
  161.7110  209.5030  149.2840 N   0  0  0  0  0  0  0  0  0  0  0  0
  161.9030  210.2930  150.2990 C   0  0  0  0  0  0  0  0  0  0  0  0
  162.3030  209.7500  151.6360 C   0  0  0  0  0  2  0  0  0  0  0  0
  161.1690  209.9280  152.6360 C   0  0  0  0  0  2  0  0  0  0  0  0
  160.9850  211.2850  152.9040 O   0  0  0  0  0  0  0  0  0  0  0  0
  160.3990  211.3210  154.1720 C   0  0  0  0  0  2  0  0  0  0  0  0
  159.7110  209.3620  155.7790 C   0  0  2  0  0  3  0  0  0  0  0  0
  160.4080  208.2020  156.3390 N   0  0  0  0  0  0  0  0  0  0  0  0
  160.2970  207.1000  155.3940 C   0  0  0  0  0  1  0  0  0  0  0  0
  160.7610  210.0680  154.9470 C   0  0  2  0  0  0  0  0  0  0  0  0
  161.8340  208.6180  156.3940 C   0  0  0  0  0  2  0  0  0  0  0  0
  160.5000  210.5200  156.3340 C   0  0  2  0  0  3  0  0  0  0  0  0
  161.8840  210.0770  155.9480 C   0  0  2  0  0  3  0  0  0  0  0  0
  161.8450  208.0560  149.3570 C   0  0  0  0  0  2  0  0  0  0  0  0
  162.4430  207.5350  148.0680 C   0  0  0  0  0  2  0  0  0  0  0  0
  162.5090  204.9980  147.0970 O   0  0  0  0  0  1  0  0  0  0  0  0
  160.5310  206.4760  146.2250 O   0  0  0  0  0  0  0  0  0  0  0  0
  161.5290  206.0650  147.5270 P   0  0  2  0  0  0  0  0  0  0  0  0
  160.5720  205.4820  148.8340 O   0  0  0  0  0  0  0  0  0  0  0  0
  160.9840  204.4520  149.6860 C   0  0  0  0  0  0  0  0  0  0  0  0
  160.7750  203.0120  149.3510 C   0  0  0  0  0  1  0  0  0  0  0  0
  161.5510  204.7450  150.7700 O   0  0  0  0  0  0  0  0  0  0  0  0
  1  7  1  0  0  0  0
  2  5  1  0  0  0  0
  2  4  2  0  0  0  0
  3  6  2  0  0  0  0
  4  3  1  0  0  0  0
  5  1  1  0  0  0  0
  6  8  1  0  0  0  0
  6 25  1  0  0  0  0
  7  8  2  0  0  0  0
  9 12  1  0  0  0  0
 10 14  1  6  0  0  0
 10  9  1  0  0  0  0
 10 13  1  0  0  0  0
 11  2  1  1  0  0  0
 12 11  1  0  0  0  0
 13 11  1  0  0  0  0
 15 14  1  6  0  0  0
 16 20  1  0  0  0  0
 17 16  1  0  0  0  0
 19 18  1  0  0  0  0
 20 18  1  0  0  0  0
 20 15  1  0  0  0  0
 21 17  1  0  0  0  0
 21 19  1  0  0  0  0
 22 15  1  0  0  0  0
 22 24  1  0  0  0  0
 23 22  2  0  0  0  0
 25 27  1  0  0  0  0
 26 39  1  0  0  0  0
 26 27  2  0  0  0  0
 27 28  1  0  0  0  0
 28 29  1  0  0  0  0
 29 30  1  0  0  0  0
 30 31  1  0  0  0  0
 32 37  1  0  0  0  0
 32 33  1  1  0  0  0
 33 36  1  0  0  0  0
 34 33  1  0  0  0  0
 35 31  1  6  0  0  0
 35 32  1  0  0  0  0
 35 38  1  0  0  0  0
 35 37  1  0  0  0  0
 38 37  1  0  0  0  0
 38 36  1  0  0  0  0
 40 39  1  0  0  0  0
 41 43  1  0  0  0  0
 42 43  2  0  0  0  0
 43 40  1  0  0  0  0
 43 44  1  0  0  0  0
 44 45  1  0  0  0  0
 45 47  2  0  0  0  0
 46 45  1  0  0  0  0
M  END
>  <MODEL>
1

>  <REMARK>
 VINA RESULT:      -6.8      0.000      0.000
  Name = 
  16 active torsions:
  status: ('A' for Active; 'I' for Inactive)
    1  A    between atoms: C_4  and  C_33
    2  A    between atoms: C_5  and  O_21
    3  A    between atoms: C_6  and  C_23
    4  A    between atoms: C_9  and  C_22
    5  A    between atoms: C_9  and  C_33
    6  A    between atoms: N_12  and  C_18
    7  A    between atoms: C_13  and  C_36
    8  A    between atoms: C_13  and  C_40
    9  A    between atoms: O_21  and  P_42
   10  A    between atoms: C_28  and  C_33
   11  A    between atoms: C_32  and  C_35
   12  A    between atoms: C_32  and  O_46
   13  A    between atoms: C_36  and  O_46
   14  A    between atoms: N_39  and  C_41
   15  A    between atoms: C_41  and  C_45
   16  A    between atoms: P_42  and  C_45
                            x       y       z     vdW  Elec       q    Type
                         _______ _______ _______ _____ _____    ______ ____

>  <TORSDO>
F 16

$$$$
=
 OpenBabel11042421553D

 47 52  0  0  1  0  0  0  0  0999 V2000
  162.6180  214.4520  147.5980 C   0  0  0  0  0  2  0  0  0  0  0  0
  160.8350  213.3440  146.1600 C   0  0  0  0  0  0  0  0  0  0  0  0
  160.7630  211.5250  147.8310 C   0  0  0  0  0  3  0  0  0  0  0  0
  160.6160  212.0580  146.4630 C   0  0  0  0  0  3  0  0  0  0  0  0
  161.1340  214.3340  147.2440 C   0  0  0  0  0  2  0  0  0  0  0  0
  161.8980  211.5640  148.5400 C   0  0  0  0  0  0  0  0  0  0  0  0
  163.4620  213.2110  147.4670 C   0  0  0  0  0  3  0  0  0  0  0  0
  163.1720  211.9860  147.9170 C   0  0  0  0  0  3  0  0  0  0  0  0
  159.4470  213.4910  142.7350 C   0  0  0  0  0  2  0  0  0  0  0  0
  160.7900  212.8060  142.5510 C   0  0  2  0  0  3  0  0  0  0  0  0
  160.6970  213.8440  144.7530 C   0  0  2  0  0  3  0  0  0  0  0  0
  159.2840  213.6910  144.2240 C   0  0  0  0  0  2  0  0  0  0  0  0
  161.6080  213.0910  143.7970 C   0  0  0  0  0  2  0  0  0  0  0  0
  161.5040  213.3650  141.3320 C   0  0  0  0  0  2  0  0  0  0  0  0
  162.1850  212.2520  140.5370 C   0  0  1  0  0  3  0  0  0  0  0  0
  161.8510  210.0330  139.3630 C   0  0  0  0  0  2  0  0  0  0  0  0
  160.8380  208.9830  138.8710 C   0  0  0  0  0  2  0  0  0  0  0  0
  160.0880  211.8180  139.1770 C   0  0  0  0  0  2  0  0  0  0  0  0
  159.3500  210.7660  138.3370 C   0  0  0  0  0  2  0  0  0  0  0  0
  161.1640  211.1980  140.0840 C   0  0  0  0  0  3  0  0  0  0  0  0
  159.4490  209.4470  138.9570 N   0  0  0  0  0  2  0  0  0  0  0  0
  162.9160  212.8470  139.3690 C   0  0  0  0  0  0  0  0  0  0  0  0
  164.1780  212.3720  139.0360 O   0  0  0  0  0  1  0  0  0  0  0  0
  162.3980  213.7750  138.6910 O   0  0  0  0  0  0  0  0  0  0  0  0
  161.8700  210.9940  149.8540 N   0  0  0  0  0  2  0  0  0  0  0  0
  162.0020  208.6820  149.3100 N   0  0  0  0  0  0  0  0  0  0  0  0
  161.9760  209.6100  150.2200 C   0  0  0  0  0  0  0  0  0  0  0  0
  162.0650  209.2680  151.6750 C   0  0  0  0  0  2  0  0  0  0  0  0
  161.1790  210.2000  152.4890 C   0  0  0  0  0  2  0  0  0  0  0  0
  161.8790  210.6650  153.6030 O   0  0  0  0  0  0  0  0  0  0  0  0
  161.0020  210.4840  154.6760 C   0  0  0  0  0  2  0  0  0  0  0  0
  159.5410  212.6660  154.6710 C   0  0  2  0  0  3  0  0  0  0  0  0
  158.1750  212.9840  154.2510 N   0  0  0  0  0  0  0  0  0  0  0  0
  158.1970  213.3230  152.8350 C   0  0  0  0  0  1  0  0  0  0  0  0
  159.6860  211.1840  154.3940 C   0  0  2  0  0  0  0  0  0  0  0  0
  157.4330  211.7060  154.4050 C   0  0  0  0  0  2  0  0  0  0  0  0
  159.3240  211.6430  155.7550 C   0  0  2  0  0  3  0  0  0  0  0  0
  158.4060  210.7040  155.0220 C   0  0  2  0  0  3  0  0  0  0  0  0
  162.1000  207.2620  149.6150 C   0  0  0  0  0  2  0  0  0  0  0  0
  162.6480  206.5200  148.4150 C   0  0  0  0  0  2  0  0  0  0  0  0
  162.1720  204.1310  147.2120 O   0  0  0  0  0  1  0  0  0  0  0  0
  160.3870  205.9900  146.7490 O   0  0  0  0  0  0  0  0  0  0  0  0
  161.4420  205.2830  147.8650 P   0  0  2  0  0  0  0  0  0  0  0  0
  160.5560  204.7120  149.2260 O   0  0  0  0  0  0  0  0  0  0  0  0
  160.6940  203.4200  149.7440 C   0  0  0  0  0  0  0  0  0  0  0  0
  161.0510  203.1710  151.1720 C   0  0  0  0  0  1  0  0  0  0  0  0
  160.5140  202.4340  148.9840 O   0  0  0  0  0  0  0  0  0  0  0  0
  2  4  2  0  0  0  0
  2  5  1  0  0  0  0
  3  6  2  0  0  0  0
  4  3  1  0  0  0  0
  5  1  1  0  0  0  0
  6 25  1  0  0  0  0
  7  1  1  0  0  0  0
  7  8  2  0  0  0  0
  8  6  1  0  0  0  0
  9 12  1  0  0  0  0
 10 14  1  6  0  0  0
 10  9  1  0  0  0  0
 10 13  1  0  0  0  0
 11  2  1  1  0  0  0
 12 11  1  0  0  0  0
 13 11  1  0  0  0  0
 15 14  1  6  0  0  0
 16 20  1  0  0  0  0
 17 21  1  0  0  0  0
 17 16  1  0  0  0  0
 18 20  1  0  0  0  0
 19 21  1  0  0  0  0
 19 18  1  0  0  0  0
 20 15  1  0  0  0  0
 22 15  1  0  0  0  0
 23 22  1  0  0  0  0
 24 22  2  0  0  0  0
 25 27  1  0  0  0  0
 26 39  1  0  0  0  0
 26 27  2  0  0  0  0
 27 28  1  0  0  0  0
 28 29  1  0  0  0  0
 29 30  1  0  0  0  0
 30 31  1  0  0  0  0
 32 33  1  6  0  0  0
 32 37  1  0  0  0  0
 33 36  1  0  0  0  0
 34 33  1  0  0  0  0
 35 32  1  0  0  0  0
 35 31  1  6  0  0  0
 35 38  1  0  0  0  0
 35 37  1  0  0  0  0
 36 38  1  0  0  0  0
 38 37  1  0  0  0  0
 40 39  1  0  0  0  0
 41 43  1  0  0  0  0
 42 43  2  0  0  0  0
 43 40  1  0  0  0  0
 43 44  1  0  0  0  0
 44 45  1  0  0  0  0
 45 46  1  0  0  0  0
 47 45  2  0  0  0  0
M  END
>  <MODEL>
2

>  <REMARK>
 VINA RESULT:      -6.2      1.588      2.429
  Name = 
  16 active torsions:
  status: ('A' for Active; 'I' for Inactive)
    1  A    between atoms: C_4  and  C_33
    2  A    between atoms: C_5  and  O_21
    3  A    between atoms: C_6  and  C_23
    4  A    between atoms: C_9  and  C_22
    5  A    between atoms: C_9  and  C_33
    6  A    between atoms: N_12  and  C_18
    7  A    between atoms: C_13  and  C_36
    8  A    between atoms: C_13  and  C_40
    9  A    between atoms: O_21  and  P_42
   10  A    between atoms: C_28  and  C_33
   11  A    between atoms: C_32  and  C_35
   12  A    between atoms: C_32  and  O_46
   13  A    between atoms: C_36  and  O_46
   14  A    between atoms: N_39  and  C_41
   15  A    between atoms: C_41  and  C_45
   16  A    between atoms: P_42  and  C_45
                            x       y       z     vdW  Elec       q    Type
                         _______ _______ _______ _____ _____    ______ ____

>  <TORSDO>
F 16

$$$$
=
 OpenBabel11042421553D

 47 52  0  0  1  0  0  0  0  0999 V2000
  162.5200  214.4530  147.8250 C   0  0  0  0  0  2  0  0  0  0  0  0
  160.8130  213.2690  146.3560 C   0  0  0  0  0  0  0  0  0  0  0  0
  160.7190  211.4930  148.0710 C   0  0  0  0  0  3  0  0  0  0  0  0
  160.6100  211.9870  146.6850 C   0  0  0  0  0  3  0  0  0  0  0  0
  161.0520  214.2930  147.4230 C   0  0  0  0  0  2  0  0  0  0  0  0
  161.8280  211.5750  148.8180 C   0  0  0  0  0  0  0  0  0  0  0  0
  163.3940  213.2280  147.7570 C   0  0  0  0  0  3  0  0  0  0  0  0
  163.1130  212.0080  148.2290 C   0  0  0  0  0  3  0  0  0  0  0  0
  159.5320  213.3090  142.8870 C   0  0  0  0  0  2  0  0  0  0  0  0
  160.8870  212.6340  142.7630 C   0  0  2  0  0  3  0  0  0  0  0  0
  160.7140  213.7300  144.9320 C   0  0  2  0  0  3  0  0  0  0  0  0
  159.3210  213.5470  144.3630 C   0  0  0  0  0  2  0  0  0  0  0  0
  161.6620  212.9610  144.0260 C   0  0  0  0  0  2  0  0  0  0  0  0
  161.6340  213.1670  141.5520 C   0  0  0  0  0  2  0  0  0  0  0  0
  162.3310  212.0370  140.7970 C   0  0  1  0  0  3  0  0  0  0  0  0
  161.9070  209.6740  139.9930 C   0  0  0  0  0  2  0  0  0  0  0  0
  160.9030  208.6990  139.3490 C   0  0  0  0  0  2  0  0  0  0  0  0
  160.7680  211.6020  138.8480 C   0  0  0  0  0  2  0  0  0  0  0  0
  160.1300  210.4980  137.9920 C   0  0  0  0  0  2  0  0  0  0  0  0
  161.3060  211.0700  140.1860 C   0  0  0  0  0  3  0  0  0  0  0  0
  159.7110  209.3740  138.8250 N   0  0  0  0  0  2  0  0  0  0  0  0
  163.2320  212.6190  139.7470 C   0  0  0  0  0  0  0  0  0  0  0  0
  164.1480  211.8010  139.0980 O   0  0  0  0  0  0  0  0  0  0  0  0
  163.1680  213.8430  139.4520 O   0  0  0  0  0  1  0  0  0  0  0  0
  161.7650  211.0380  150.1450 N   0  0  0  0  0  2  0  0  0  0  0  0
  162.2010  208.7450  149.6900 N   0  0  0  0  0  0  0  0  0  0  0  0
  162.0000  209.6860  150.5640 C   0  0  0  0  0  0  0  0  0  0  0  0
  162.0160  209.3930  152.0320 C   0  0  0  0  0  2  0  0  0  0  0  0
  160.6630  209.7200  152.6480 C   0  0  0  0  0  2  0  0  0  0  0  0
  160.4600  211.1000  152.6370 O   0  0  0  0  0  0  0  0  0  0  0  0
  159.6980  211.3570  153.7810 C   0  0  0  0  0  2  0  0  0  0  0  0
  159.2650  210.0170  155.9970 C   0  0  2  0  0  3  0  0  0  0  0  0
  160.1150  209.2670  156.9240 N   0  0  0  0  0  0  0  0  0  0  0  0
  160.2250  207.8980  156.4410 C   0  0  0  0  0  1  0  0  0  0  0  0
  160.2230  210.5430  154.9480 C   0  0  2  0  0  0  0  0  0  0  0  0
  161.4510  209.9060  156.8010 C   0  0  0  0  0  2  0  0  0  0  0  0
  159.8310  211.4110  156.0830 C   0  0  2  0  0  3  0  0  0  0  0  0
  161.2850  211.0960  155.8590 C   0  0  2  0  0  3  0  0  0  0  0  0
  162.4360  207.3540  150.0490 C   0  0  0  0  0  2  0  0  0  0  0  0
  162.6370  206.5310  148.7940 C   0  0  0  0  0  2  0  0  0  0  0  0
  159.9860  206.5640  148.2000 O   0  0  0  0  0  0  0  0  0  0  0  0
  160.7590  204.5990  149.7490 O   0  0  0  0  0  1  0  0  0  0  0  0
  161.1250  205.5980  148.4340 P   0  0  2  0  0  0  0  0  0  0  0  0
  161.3730  204.6410  147.0240 O   0  0  0  0  0  0  0  0  0  0  0  0
  161.6280  205.1870  145.7620 C   0  0  0  0  0  0  0  0  0  0  0  0
  160.5350  205.6990  144.8840 C   0  0  0  0  0  1  0  0  0  0  0  0
  162.8150  205.2500  145.3520 O   0  0  0  0  0  0  0  0  0  0  0  0
  2  4  2  0  0  0  0
  2  5  1  0  0  0  0
  3  6  2  0  0  0  0
  4  3  1  0  0  0  0
  5  1  1  0  0  0  0
  6 25  1  0  0  0  0
  7  1  1  0  0  0  0
  7  8  2  0  0  0  0
  8  6  1  0  0  0  0
  9 12  1  0  0  0  0
 10 14  1  6  0  0  0
 10  9  1  0  0  0  0
 10 13  1  0  0  0  0
 11  2  1  1  0  0  0
 12 11  1  0  0  0  0
 13 11  1  0  0  0  0
 15 14  1  6  0  0  0
 16 20  1  0  0  0  0
 17 16  1  0  0  0  0
 18 20  1  0  0  0  0
 19 21  1  0  0  0  0
 19 18  1  0  0  0  0
 20 15  1  0  0  0  0
 21 17  1  0  0  0  0
 22 15  1  0  0  0  0
 23 22  2  0  0  0  0
 24 22  1  0  0  0  0
 25 27  1  0  0  0  0
 26 39  1  0  0  0  0
 26 27  2  0  0  0  0
 27 28  1  0  0  0  0
 28 29  1  0  0  0  0
 30 29  1  0  0  0  0
 30 31  1  0  0  0  0
 32 37  1  0  0  0  0
 32 33  1  1  0  0  0
 34 33  1  0  0  0  0
 35 31  1  6  0  0  0
 35 38  1  0  0  0  0
 35 32  1  0  0  0  0
 35 37  1  0  0  0  0
 36 33  1  0  0  0  0
 38 37  1  0  0  0  0
 38 36  1  0  0  0  0
 40 39  1  0  0  0  0
 41 43  2  0  0  0  0
 43 40  1  0  0  0  0
 43 42  1  0  0  0  0
 44 43  1  0  0  0  0
 45 44  1  0  0  0  0
 46 45  1  0  0  0  0
 47 45  2  0  0  0  0
M  END
>  <MODEL>
3

>  <REMARK>
 VINA RESULT:      -6.1      1.364      2.173
  Name = 
  16 active torsions:
  status: ('A' for Active; 'I' for Inactive)
    1  A    between atoms: C_4  and  C_33
    2  A    between atoms: C_5  and  O_21
    3  A    between atoms: C_6  and  C_23
    4  A    between atoms: C_9  and  C_22
    5  A    between atoms: C_9  and  C_33
    6  A    between atoms: N_12  and  C_18
    7  A    between atoms: C_13  and  C_36
    8  A    between atoms: C_13  and  C_40
    9  A    between atoms: O_21  and  P_42
   10  A    between atoms: C_28  and  C_33
   11  A    between atoms: C_32  and  C_35
   12  A    between atoms: C_32  and  O_46
   13  A    between atoms: C_36  and  O_46
   14  A    between atoms: N_39  and  C_41
   15  A    between atoms: C_41  and  C_45
   16  A    between atoms: P_42  and  C_45
                            x       y       z     vdW  Elec       q    Type
                         _______ _______ _______ _____ _____    ______ ____

>  <TORSDO>
F 16

$$$$
=
 OpenBabel11042421553D

 47 52  0  0  1  0  0  0  0  0999 V2000
  162.8880  214.3960  147.7340 C   0  0  0  0  0  2  0  0  0  0  0  0
  160.9790  213.4710  146.3290 C   0  0  0  0  0  0  0  0  0  0  0  0
  160.6790  211.7350  148.0630 C   0  0  0  0  0  3  0  0  0  0  0  0
  160.6000  212.2340  146.6770 C   0  0  0  0  0  3  0  0  0  0  0  0
  161.4000  214.4530  147.3790 C   0  0  0  0  0  2  0  0  0  0  0  0
  161.8100  211.6560  148.7740 C   0  0  0  0  0  0  0  0  0  0  0  0
  163.5690  213.0540  147.6510 C   0  0  0  0  0  3  0  0  0  0  0  0
  163.1270  211.8920  148.1420 C   0  0  0  0  0  3  0  0  0  0  0  0
  159.5880  213.7100  142.9110 C   0  0  0  0  0  2  0  0  0  0  0  0
  160.8030  212.8140  142.7440 C   0  0  2  0  0  3  0  0  0  0  0  0
  160.9030  213.9350  144.9050 C   0  0  2  0  0  3  0  0  0  0  0  0
  159.4780  213.9880  144.3920 C   0  0  0  0  0  2  0  0  0  0  0  0
  161.6710  213.0120  143.9730 C   0  0  0  0  0  2  0  0  0  0  0  0
  161.5810  213.2080  141.5000 C   0  0  0  0  0  2  0  0  0  0  0  0
  161.6750  212.0390  140.5200 C   0  0  1  0  0  3  0  0  0  0  0  0
  160.0410  213.5180  139.2750 C   0  0  0  0  0  2  0  0  0  0  0  0
  158.8660  213.5790  138.2810 C   0  0  0  0  0  2  0  0  0  0  0  0
  159.3550  211.1930  139.9430 C   0  0  0  0  0  2  0  0  0  0  0  0
  158.0410  211.5580  139.2370 C   0  0  0  0  0  2  0  0  0  0  0  0
  160.5280  212.0830  139.5010 C   0  0  0  0  0  3  0  0  0  0  0  0
  158.3060  212.2570  137.9820 N   0  0  0  0  0  2  0  0  0  0  0  0
  163.0140  212.0610  139.8430 C   0  0  0  0  0  0  0  0  0  0  0  0
  163.7270  213.2510  139.7710 O   0  0  0  0  0  1  0  0  0  0  0  0
  163.4960  211.0110  139.3370 O   0  0  0  0  0  0  0  0  0  0  0  0
  161.7120  211.1410  150.1080 N   0  0  0  0  0  2  0  0  0  0  0  0
  162.2860  208.8650  149.7200 N   0  0  0  0  0  0  0  0  0  0  0  0
  161.9960  209.8100  150.5640 C   0  0  0  0  0  0  0  0  0  0  0  0
  161.9560  209.5450  152.0380 C   0  0  0  0  0  2  0  0  0  0  0  0
  160.9990  210.5110  152.7200 C   0  0  0  0  0  2  0  0  0  0  0  0
  161.4000  210.7190  154.0410 O   0  0  0  0  0  0  0  0  0  0  0  0
  160.3280  210.2660  154.8150 C   0  0  0  0  0  2  0  0  0  0  0  0
  159.3750  212.7120  154.7930 C   0  0  2  0  0  3  0  0  0  0  0  0
  158.0470  213.2930  154.5850 N   0  0  0  0  0  0  0  0  0  0  0  0
  157.8540  213.4980  153.1560 C   0  0  0  0  0  1  0  0  0  0  0  0
  159.1540  211.2180  154.6840 C   0  0  2  0  0  0  0  0  0  0  0  0
  157.1050  212.2340  155.0280 C   0  0  0  0  0  2  0  0  0  0  0  0
  159.1750  211.8600  156.0190 C   0  0  2  0  0  3  0  0  0  0  0  0
  157.9550  211.0940  155.5840 C   0  0  2  0  0  3  0  0  0  0  0  0
  162.5750  207.4950  150.1180 C   0  0  0  0  0  2  0  0  0  0  0  0
  162.5440  206.5940  148.9010 C   0  0  0  0  0  2  0  0  0  0  0  0
  159.9330  206.3230  148.2020 O   0  0  0  0  0  0  0  0  0  0  0  0
  160.5730  205.3230  150.5360 O   0  0  0  0  0  1  0  0  0  0  0  0
  161.0350  205.5890  148.9310 P   0  0  2  0  0  0  0  0  0  0  0  0
  161.3430  204.0840  148.1540 O   0  0  0  0  0  0  0  0  0  0  0  0
  161.7180  203.9770  146.8110 C   0  0  0  0  0  0  0  0  0  0  0  0
  161.3110  202.8170  145.9630 C   0  0  0  0  0  1  0  0  0  0  0  0
  162.4210  204.8850  146.2990 O   0  0  0  0  0  0  0  0  0  0  0  0
  2  4  2  0  0  0  0
  2  5  1  0  0  0  0
  3  6  2  0  0  0  0
  4  3  1  0  0  0  0
  5  1  1  0  0  0  0
  6 25  1  0  0  0  0
  7  1  1  0  0  0  0
  7  8  2  0  0  0  0
  8  6  1  0  0  0  0
  9 12  1  0  0  0  0
 10 14  1  6  0  0  0
 10  9  1  0  0  0  0
 10 13  1  0  0  0  0
 11  2  1  1  0  0  0
 12 11  1  0  0  0  0
 13 11  1  0  0  0  0
 15 14  1  1  0  0  0
 16 20  1  0  0  0  0
 17 16  1  0  0  0  0
 19 18  1  0  0  0  0
 20 18  1  0  0  0  0
 20 15  1  0  0  0  0
 21 17  1  0  0  0  0
 21 19  1  0  0  0  0
 22 15  1  0  0  0  0
 23 22  1  0  0  0  0
 24 22  2  0  0  0  0
 25 27  1  0  0  0  0
 26 39  1  0  0  0  0
 26 27  2  0  0  0  0
 27 28  1  0  0  0  0
 28 29  1  0  0  0  0
 29 30  1  0  0  0  0
 30 31  1  0  0  0  0
 32 33  1  6  0  0  0
 32 37  1  0  0  0  0
 33 36  1  0  0  0  0
 34 33  1  0  0  0  0
 35 32  1  0  0  0  0
 35 31  1  6  0  0  0
 35 38  1  0  0  0  0
 35 37  1  0  0  0  0
 36 38  1  0  0  0  0
 38 37  1  0  0  0  0
 40 43  1  0  0  0  0
 40 39  1  0  0  0  0
 41 43  2  0  0  0  0
 43 42  1  0  0  0  0
 44 43  1  0  0  0  0
 45 44  1  0  0  0  0
 46 45  1  0  0  0  0
 47 45  2  0  0  0  0
M  END
>  <MODEL>
4

>  <REMARK>
 VINA RESULT:      -5.6      1.950      2.922
  Name = 
  16 active torsions:
  status: ('A' for Active; 'I' for Inactive)
    1  A    between atoms: C_4  and  C_33
    2  A    between atoms: C_5  and  O_21
    3  A    between atoms: C_6  and  C_23
    4  A    between atoms: C_9  and  C_22
    5  A    between atoms: C_9  and  C_33
    6  A    between atoms: N_12  and  C_18
    7  A    between atoms: C_13  and  C_36
    8  A    between atoms: C_13  and  C_40
    9  A    between atoms: O_21  and  P_42
   10  A    between atoms: C_28  and  C_33
   11  A    between atoms: C_32  and  C_35
   12  A    between atoms: C_32  and  O_46
   13  A    between atoms: C_36  and  O_46
   14  A    between atoms: N_39  and  C_41
   15  A    between atoms: C_41  and  C_45
   16  A    between atoms: P_42  and  C_45
                            x       y       z     vdW  Elec       q    Type
                         _______ _______ _______ _____ _____    ______ ____

>  <TORSDO>
F 16

$$$$
=
 OpenBabel11042421553D

 47 52  0  0  1  0  0  0  0  0999 V2000
  159.1890  212.4000  145.8860 C   0  0  0  0  0  2  0  0  0  0  0  0
  161.4550  213.0360  144.9190 C   0  0  0  0  0  0  0  0  0  0  0  0
  162.4200  212.5830  147.1480 C   0  0  0  0  0  3  0  0  0  0  0  0
  162.3920  213.2750  145.8450 C   0  0  0  0  0  3  0  0  0  0  0  0
  160.4430  211.9520  145.1310 C   0  0  0  0  0  2  0  0  0  0  0  0
  161.4300  212.6270  148.0480 C   0  0  0  0  0  0  0  0  0  0  0  0
  159.3530  213.4810  146.9220 C   0  0  0  0  0  3  0  0  0  0  0  0
  160.2860  213.5480  147.8790 C   0  0  0  0  0  3  0  0  0  0  0  0
  159.9880  214.4530  141.8340 C   0  0  0  0  0  2  0  0  0  0  0  0
  160.7470  213.2320  141.3440 C   0  0  2  0  0  3  0  0  0  0  0  0
  161.4480  213.7750  143.6140 C   0  0  2  0  0  3  0  0  0  0  0  0
  160.1150  214.4440  143.3390 C   0  0  0  0  0  2  0  0  0  0  0  0
  161.7230  212.8480  142.4420 C   0  0  0  0  0  2  0  0  0  0  0  0
  161.5120  213.5620  140.0730 C   0  0  0  0  0  2  0  0  0  0  0  0
  160.9420  212.8000  138.8780 C   0  0  1  0  0  3  0  0  0  0  0  0
  162.1370  210.6870  139.5960 C   0  0  0  0  0  2  0  0  0  0  0  0
  162.0130  209.1800  139.8900 C   0  0  0  0  0  2  0  0  0  0  0  0
  160.1880  210.5380  138.0130 C   0  0  0  0  0  2  0  0  0  0  0  0
  160.4520  209.0270  138.0950 C   0  0  0  0  0  2  0  0  0  0  0  0
  160.7930  211.3060  139.2000 C   0  0  0  0  0  3  0  0  0  0  0  0
  160.7210  208.6240  139.4730 N   0  0  0  0  0  2  0  0  0  0  0  0
  159.6320  213.4100  138.4750 C   0  0  0  0  0  0  0  0  0  0  0  0
  158.4520  212.9330  139.0340 O   0  0  0  0  0  1  0  0  0  0  0  0
  159.5900  214.3470  137.6330 O   0  0  0  0  0  0  0  0  0  0  0  0
  161.6210  211.9010  149.2690 N   0  0  0  0  0  2  0  0  0  0  0  0
  161.8310  209.6910  148.4140 N   0  0  0  0  0  0  0  0  0  0  0  0
  161.8690  210.4970  149.4340 C   0  0  0  0  0  0  0  0  0  0  0  0
  162.1780  209.9900  150.8080 C   0  0  0  0  0  2  0  0  0  0  0  0
  161.2250  210.6050  151.8230 C   0  0  0  0  0  2  0  0  0  0  0  0
  160.4450  209.6050  152.4050 O   0  0  0  0  0  0  0  0  0  0  0  0
  161.1450  209.2320  153.5560 C   0  0  0  0  0  2  0  0  0  0  0  0
  160.3500  211.2900  154.9800 C   0  0  2  0  0  3  0  0  0  0  0  0
  159.6070  211.4440  156.2330 N   0  0  0  0  0  0  0  0  0  0  0  0
  158.1840  211.4560  155.9250 C   0  0  0  0  0  1  0  0  0  0  0  0
  160.4550  209.7920  154.7860 C   0  0  2  0  0  0  0  0  0  0  0  0
  159.9020  210.2030  156.9940 C   0  0  0  0  0  2  0  0  0  0  0  0
  161.5760  210.5300  155.4150 C   0  0  2  0  0  3  0  0  0  0  0  0
  160.9120  209.4100  156.1680 C   0  0  2  0  0  3  0  0  0  0  0  0
  162.0640  208.2590  148.5160 C   0  0  0  0  0  2  0  0  0  0  0  0
  161.0870  207.5190  147.6260 C   0  0  0  0  0  2  0  0  0  0  0  0
  162.9610  205.5580  147.7720 O   0  0  0  0  0  1  0  0  0  0  0  0
  160.9190  205.0370  146.2180 O   0  0  0  0  0  0  0  0  0  0  0  0
  161.4660  205.7470  147.6520 P   0  0  2  0  0  0  0  0  0  0  0  0
  160.6790  205.0200  149.0000 O   0  0  0  0  0  0  0  0  0  0  0  0
  161.0240  203.7590  149.5000 C   0  0  0  0  0  0  0  0  0  0  0  0
  160.9720  202.5290  148.6550 C   0  0  0  0  0  1  0  0  0  0  0  0
  161.3890  203.6550  150.6990 O   0  0  0  0  0  0  0  0  0  0  0  0
  1  7  1  0  0  0  0
  2  5  1  0  0  0  0
  2  4  2  0  0  0  0
  3  6  2  0  0  0  0
  4  3  1  0  0  0  0
  5  1  1  0  0  0  0
  6 25  1  0  0  0  0
  7  8  2  0  0  0  0
  8  6  1  0  0  0  0
  9 12  1  0  0  0  0
 10 14  1  6  0  0  0
 10  9  1  0  0  0  0
 10 13  1  0  0  0  0
 11  2  1  1  0  0  0
 12 11  1  0  0  0  0
 13 11  1  0  0  0  0
 15 20  1  0  0  0  0
 15 14  1  1  0  0  0
 16 17  1  0  0  0  0
 18 19  1  0  0  0  0
 18 20  1  0  0  0  0
 19 21  1  0  0  0  0
 20 16  1  0  0  0  0
 21 17  1  0  0  0  0
 22 15  1  0  0  0  0
 22 23  1  0  0  0  0
 24 22  2  0  0  0  0
 25 27  1  0  0  0  0
 26 39  1  0  0  0  0
 26 27  2  0  0  0  0
 27 28  1  0  0  0  0
 28 29  1  0  0  0  0
 29 30  1  0  0  0  0
 30 31  1  0  0  0  0
 32 37  1  0  0  0  0
 32 33  1  1  0  0  0
 33 36  1  0  0  0  0
 34 33  1  0  0  0  0
 35 31  1  6  0  0  0
 35 32  1  0  0  0  0
 35 37  1  0  0  0  0
 35 38  1  0  0  0  0
 37 38  1  0  0  0  0
 38 36  1  0  0  0  0
 40 43  1  0  0  0  0
 40 39  1  0  0  0  0
 42 43  2  0  0  0  0
 43 41  1  0  0  0  0
 43 44  1  0  0  0  0
 44 45  1  0  0  0  0
 45 47  2  0  0  0  0
 46 45  1  0  0  0  0
M  END
>  <MODEL>
5

>  <REMARK>
 VINA RESULT:      -5.4      1.494      2.023
  Name = 
  16 active torsions:
  status: ('A' for Active; 'I' for Inactive)
    1  A    between atoms: C_4  and  C_33
    2  A    between atoms: C_5  and  O_21
    3  A    between atoms: C_6  and  C_23
    4  A    between atoms: C_9  and  C_22
    5  A    between atoms: C_9  and  C_33
    6  A    between atoms: N_12  and  C_18
    7  A    between atoms: C_13  and  C_36
    8  A    between atoms: C_13  and  C_40
    9  A    between atoms: O_21  and  P_42
   10  A    between atoms: C_28  and  C_33
   11  A    between atoms: C_32  and  C_35
   12  A    between atoms: C_32  and  O_46
   13  A    between atoms: C_36  and  O_46
   14  A    between atoms: N_39  and  C_41
   15  A    between atoms: C_41  and  C_45
   16  A    between atoms: P_42  and  C_45
                            x       y       z     vdW  Elec       q    Type
                         _______ _______ _______ _____ _____    ______ ____

>  <TORSDO>
F 16

$$$$
=
 OpenBabel11042421553D

 47 52  0  0  1  0  0  0  0  0999 V2000
  158.7550  213.1610  147.6290 C   0  0  0  0  0  2  0  0  0  0  0  0
  160.8350  212.7320  146.2260 C   0  0  0  0  0  0  0  0  0  0  0  0
  161.9080  211.8510  148.2710 C   0  0  0  0  0  3  0  0  0  0  0  0
  161.9400  212.5070  146.9490 C   0  0  0  0  0  3  0  0  0  0  0  0
  159.5090  212.2130  146.6930 C   0  0  0  0  0  2  0  0  0  0  0  0
  161.2350  212.3180  149.3300 C   0  0  0  0  0  0  0  0  0  0  0  0
  159.5790  214.0340  148.5400 C   0  0  0  0  0  3  0  0  0  0  0  0
  160.6090  213.6580  149.3060 C   0  0  0  0  0  3  0  0  0  0  0  0
  159.5230  214.4530  143.2270 C   0  0  0  0  0  2  0  0  0  0  0  0
  159.8570  213.0590  142.7260 C   0  0  2  0  0  3  0  0  0  0  0  0
  160.9050  213.4200  144.8960 C   0  0  2  0  0  3  0  0  0  0  0  0
  159.7930  214.4350  144.7140 C   0  0  0  0  0  2  0  0  0  0  0  0
  160.7900  212.4330  143.7460 C   0  0  0  0  0  2  0  0  0  0  0  0
  160.5530  213.1370  141.3770 C   0  0  0  0  0  2  0  0  0  0  0  0
  160.1610  211.9550  140.4900 C   0  0  1  0  0  3  0  0  0  0  0  0
  160.4140  213.3000  138.3600 C   0  0  0  0  0  2  0  0  0  0  0  0
  159.7280  213.8230  137.0840 C   0  0  0  0  0  2  0  0  0  0  0  0
  158.1870  213.2210  139.5250 C   0  0  0  0  0  2  0  0  0  0  0  0
  157.7320  214.1050  138.3550 C   0  0  0  0  0  2  0  0  0  0  0  0
  159.4710  212.4390  139.2060 C   0  0  0  0  0  3  0  0  0  0  0  0
  158.2760  213.6130  137.0920 N   0  0  0  0  0  2  0  0  0  0  0  0
  161.3790  211.1340  140.1840 C   0  0  0  0  0  0  0  0  0  0  0  0
  161.2830  210.0650  139.3030 O   0  0  0  0  0  0  0  0  0  0  0  0
  162.4870  211.4030  140.7220 O   0  0  0  0  0  1  0  0  0  0  0  0
  161.3150  211.5610  150.5440 N   0  0  0  0  0  2  0  0  0  0  0  0
  161.9390  209.4370  149.6720 N   0  0  0  0  0  0  0  0  0  0  0  0
  161.7080  210.1900  150.7060 C   0  0  0  0  0  0  0  0  0  0  0  0
  161.8530  209.6560  152.0980 C   0  0  0  0  0  2  0  0  0  0  0  0
  161.6640  210.7750  153.1120 C   0  0  0  0  0  2  0  0  0  0  0  0
  162.2240  210.4020  154.3360 O   0  0  0  0  0  0  0  0  0  0  0  0
  161.3630  210.9370  155.2980 C   0  0  0  0  0  2  0  0  0  0  0  0
  159.6960  212.9190  154.8670 C   0  0  2  0  0  3  0  0  0  0  0  0
  158.4920  213.0870  154.0500 N   0  0  0  0  0  0  0  0  0  0  0  0
  158.8980  213.5000  152.7140 C   0  0  0  0  0  1  0  0  0  0  0  0
  160.1140  211.4830  154.6320 C   0  0  2  0  0  0  0  0  0  0  0  0
  157.9160  211.7210  153.9540 C   0  0  0  0  0  2  0  0  0  0  0  0
  159.2970  211.8230  155.8210 C   0  0  2  0  0  3  0  0  0  0  0  0
  158.7800  210.8160  154.8290 C   0  0  2  0  0  3  0  0  0  0  0  0
  162.3320  208.0390  149.7690 C   0  0  0  0  0  2  0  0  0  0  0  0
  162.4790  207.4540  148.3800 C   0  0  0  0  0  2  0  0  0  0  0  0
  162.3810  204.8690  147.5510 O   0  0  0  0  0  1  0  0  0  0  0  0
  160.1110  206.1690  147.4240 O   0  0  0  0  0  0  0  0  0  0  0  0
  161.5480  205.9020  148.2750 P   0  0  2  0  0  0  0  0  0  0  0  0
  161.1900  205.3490  149.8660 O   0  0  0  0  0  0  0  0  0  0  0  0
  161.1190  203.9940  150.2080 C   0  0  0  0  0  0  0  0  0  0  0  0
  160.6050  202.9620  149.2600 C   0  0  0  0  0  1  0  0  0  0  0  0
  161.5000  203.6310  151.3500 O   0  0  0  0  0  0  0  0  0  0  0  0
  1  7  1  0  0  0  0
  2  5  1  0  0  0  0
  2  4  2  0  0  0  0
  3  6  2  0  0  0  0
  4  3  1  0  0  0  0
  5  1  1  0  0  0  0
  6 25  1  0  0  0  0
  7  8  2  0  0  0  0
  8  6  1  0  0  0  0
  9 12  1  0  0  0  0
 10 14  1  6  0  0  0
 10  9  1  0  0  0  0
 10 13  1  0  0  0  0
 11  2  1  1  0  0  0
 12 11  1  0  0  0  0
 13 11  1  0  0  0  0
 15 14  1  1  0  0  0
 16 20  1  0  0  0  0
 17 21  1  0  0  0  0
 17 16  1  0  0  0  0
 19 18  1  0  0  0  0
 20 18  1  0  0  0  0
 20 15  1  0  0  0  0
 21 19  1  0  0  0  0
 22 15  1  0  0  0  0
 22 24  1  0  0  0  0
 23 22  2  0  0  0  0
 25 27  1  0  0  0  0
 26 39  1  0  0  0  0
 26 27  2  0  0  0  0
 27 28  1  0  0  0  0
 28 29  1  0  0  0  0
 29 30  1  0  0  0  0
 30 31  1  0  0  0  0
 32 33  1  6  0  0  0
 32 37  1  0  0  0  0
 34 33  1  0  0  0  0
 35 38  1  0  0  0  0
 35 32  1  0  0  0  0
 35 31  1  6  0  0  0
 35 37  1  0  0  0  0
 36 33  1  0  0  0  0
 36 38  1  0  0  0  0
 38 37  1  0  0  0  0
 40 39  1  0  0  0  0
 41 43  1  0  0  0  0
 42 43  2  0  0  0  0
 43 40  1  0  0  0  0
 43 44  1  0  0  0  0
 44 45  1  0  0  0  0
 45 47  2  0  0  0  0
 46 45  1  0  0  0  0
M  END
>  <MODEL>
6

>  <REMARK>
 VINA RESULT:      -5.4      1.894      2.633
  Name = 
  16 active torsions:
  status: ('A' for Active; 'I' for Inactive)
    1  A    between atoms: C_4  and  C_33
    2  A    between atoms: C_5  and  O_21
    3  A    between atoms: C_6  and  C_23
    4  A    between atoms: C_9  and  C_22
    5  A    between atoms: C_9  and  C_33
    6  A    between atoms: N_12  and  C_18
    7  A    between atoms: C_13  and  C_36
    8  A    between atoms: C_13  and  C_40
    9  A    between atoms: O_21  and  P_42
   10  A    between atoms: C_28  and  C_33
   11  A    between atoms: C_32  and  C_35
   12  A    between atoms: C_32  and  O_46
   13  A    between atoms: C_36  and  O_46
   14  A    between atoms: N_39  and  C_41
   15  A    between atoms: C_41  and  C_45
   16  A    between atoms: P_42  and  C_45
                            x       y       z     vdW  Elec       q    Type
                         _______ _______ _______ _____ _____    ______ ____

>  <TORSDO>
F 16

$$$$
=
 OpenBabel11042421553D

 47 52  0  0  1  0  0  0  0  0999 V2000
  162.4680  205.7610  151.0100 C   0  0  0  0  0  2  0  0  0  0  0  0
  162.4160  207.2650  148.9580 C   0  0  0  0  0  0  0  0  0  0  0  0
  161.8860  209.1440  150.4740 C   0  0  0  0  0  3  0  0  0  0  0  0
  161.8350  208.4530  149.1710 C   0  0  0  0  0  3  0  0  0  0  0  0
  163.2540  206.6330  150.0270 C   0  0  0  0  0  2  0  0  0  0  0  0
  161.4110  208.6350  151.6180 C   0  0  0  0  0  0  0  0  0  0  0  0
  161.0500  206.1680  151.3150 C   0  0  0  0  0  3  0  0  0  0  0  0
  160.6100  207.3920  151.6250 C   0  0  0  0  0  3  0  0  0  0  0  0
  160.7330  205.7850  146.0160 C   0  0  0  0  0  2  0  0  0  0  0  0
  161.2140  204.5780  146.8020 C   0  0  2  0  0  3  0  0  0  0  0  0
  162.3240  206.5840  147.6250 C   0  0  2  0  0  3  0  0  0  0  0  0
  161.0840  206.9920  146.8550 C   0  0  0  0  0  2  0  0  0  0  0  0
  162.2740  205.0720  147.7700 C   0  0  0  0  0  2  0  0  0  0  0  0
  161.8190  203.5460  145.8650 C   0  0  0  0  0  2  0  0  0  0  0  0
  161.3310  202.1390  146.2110 C   0  0  1  0  0  3  0  0  0  0  0  0
  161.6460  200.9290  148.4120 C   0  0  0  0  0  2  0  0  0  0  0  0
  161.2040  200.8050  149.8820 C   0  0  0  0  0  2  0  0  0  0  0  0
  159.3850  201.8510  147.8110 C   0  0  0  0  0  2  0  0  0  0  0  0
  158.9790  201.2970  149.1850 C   0  0  0  0  0  2  0  0  0  0  0  0
  160.9030  202.0530  147.6830 C   0  0  0  0  0  3  0  0  0  0  0  0
  160.0030  201.5920  150.1830 N   0  0  0  0  0  2  0  0  0  0  0  0
  160.2100  201.7590  145.2890 C   0  0  0  0  0  0  0  0  0  0  0  0
  159.9450  200.4170  145.0470 O   0  0  0  0  0  1  0  0  0  0  0  0
  159.5080  202.6450  144.7300 O   0  0  0  0  0  0  0  0  0  0  0  0
  161.5350  209.4420  152.7950 N   0  0  0  0  0  2  0  0  0  0  0  0
  160.0340  211.2070  152.2530 N   0  0  0  0  0  0  0  0  0  0  0  0
  160.8280  210.6490  153.1180 C   0  0  0  0  0  0  0  0  0  0  0  0
  161.0250  211.2410  154.4800 C   0  0  0  0  0  2  0  0  0  0  0  0
  160.2470  210.4450  155.5170 C   0  0  0  0  0  2  0  0  0  0  0  0
  159.7510  211.3050  156.4980 O   0  0  0  0  0  0  0  0  0  0  0  0
  158.3960  210.9770  156.6080 C   0  0  0  0  0  2  0  0  0  0  0  0
  156.2380  212.2370  155.8040 C   0  0  2  0  0  3  0  0  0  0  0  0
  155.7050  213.5870  156.0010 N   0  0  0  0  0  0  0  0  0  0  0  0
  154.9210  213.5960  157.2280 C   0  0  0  0  0  1  0  0  0  0  0  0
  157.5520  212.2370  156.5550 C   0  0  2  0  0  0  0  0  0  0  0  0
  156.9070  214.4320  156.2170 C   0  0  0  0  0  2  0  0  0  0  0  0
  157.5420  212.4970  155.0960 C   0  0  2  0  0  3  0  0  0  0  0  0
  158.1220  213.5260  156.0280 C   0  0  2  0  0  3  0  0  0  0  0  0
  159.2960  212.4330  152.5160 C   0  0  0  0  0  2  0  0  0  0  0  0
  158.6270  212.9080  151.2430 C   0  0  0  0  0  2  0  0  0  0  0  0
  160.8310  214.4530  150.8720 O   0  0  0  0  0  1  0  0  0  0  0  0
  159.1210  214.4530  148.8890 O   0  0  0  0  0  0  0  0  0  0  0  0
  159.8810  213.5600  150.1070 P   0  0  2  0  0  0  0  0  0  0  0  0
  160.7520  212.2470  149.4120 O   0  0  0  0  0  0  0  0  0  0  0  0
  161.3060  212.2900  148.1280 C   0  0  0  0  0  0  0  0  0  0  0  0
  160.4650  212.2150  146.8970 C   0  0  0  0  0  1  0  0  0  0  0  0
  162.5540  212.3950  148.0040 O   0  0  0  0  0  0  0  0  0  0  0  0
  1  7  1  0  0  0  0
  2  4  2  0  0  0  0
  2  5  1  0  0  0  0
  3  6  2  0  0  0  0
  4  3  1  0  0  0  0
  5  1  1  0  0  0  0
  6  8  1  0  0  0  0
  6 25  1  0  0  0  0
  7  8  2  0  0  0  0
  9 10  1  0  0  0  0
  9 12  1  0  0  0  0
 10 14  1  6  0  0  0
 10 13  1  0  0  0  0
 11 13  1  0  0  0  0
 11  2  1  1  0  0  0
 12 11  1  0  0  0  0
 15 14  1  6  0  0  0
 15 20  1  0  0  0  0
 16 17  1  0  0  0  0
 17 21  1  0  0  0  0
 18 19  1  0  0  0  0
 19 21  1  0  0  0  0
 20 18  1  0  0  0  0
 20 16  1  0  0  0  0
 22 15  1  0  0  0  0
 23 22  1  0  0  0  0
 24 22  2  0  0  0  0
 25 27  1  0  0  0  0
 26 39  1  0  0  0  0
 26 27  2  0  0  0  0
 27 28  1  0  0  0  0
 28 29  1  0  0  0  0
 29 30  1  0  0  0  0
 30 31  1  0  0  0  0
 32 33  1  1  0  0  0
 32 35  1  0  0  0  0
 33 36  1  0  0  0  0
 33 34  1  0  0  0  0
 35 31  1  1  0  0  0
 37 32  1  0  0  0  0
 37 38  1  0  0  0  0
 37 35  1  0  0  0  0
 38 36  1  0  0  0  0
 38 35  1  0  0  0  0
 40 39  1  0  0  0  0
 42 43  2  0  0  0  0
 43 41  1  0  0  0  0
 43 40  1  0  0  0  0
 44 43  1  0  0  0  0
 45 44  1  0  0  0  0
 46 45  1  0  0  0  0
 47 45  2  0  0  0  0
M  END
>  <MODEL>
7

>  <REMARK>
 VINA RESULT:      -4.6      4.762      8.619
  Name = 
  16 active torsions:
  status: ('A' for Active; 'I' for Inactive)
    1  A    between atoms: C_4  and  C_33
    2  A    between atoms: C_5  and  O_21
    3  A    between atoms: C_6  and  C_23
    4  A    between atoms: C_9  and  C_22
    5  A    between atoms: C_9  and  C_33
    6  A    between atoms: N_12  and  C_18
    7  A    between atoms: C_13  and  C_36
    8  A    between atoms: C_13  and  C_40
    9  A    between atoms: O_21  and  P_42
   10  A    between atoms: C_28  and  C_33
   11  A    between atoms: C_32  and  C_35
   12  A    between atoms: C_32  and  O_46
   13  A    between atoms: C_36  and  O_46
   14  A    between atoms: N_39  and  C_41
   15  A    between atoms: C_41  and  C_45
   16  A    between atoms: P_42  and  C_45
                            x       y       z     vdW  Elec       q    Type
                         _______ _______ _______ _____ _____    ______ ____

>  <TORSDO>
F 16

$$$$
=
 OpenBabel11042421553D

 47 52  0  0  1  0  0  0  0  0999 V2000
  162.9380  213.9030  148.2260 C   0  0  0  0  0  2  0  0  0  0  0  0
  161.9970  211.5490  148.4570 C   0  0  0  0  0  0  0  0  0  0  0  0
  160.4770  212.0820  146.5830 C   0  0  0  0  0  3  0  0  0  0  0  0
  160.8320  211.3670  147.8230 C   0  0  0  0  0  3  0  0  0  0  0  0
  163.0540  212.4230  147.8530 C   0  0  0  0  0  2  0  0  0  0  0  0
  160.3990  213.4140  146.4750 C   0  0  0  0  0  0  0  0  0  0  0  0
  161.5530  214.4530  148.4500 C   0  0  0  0  0  3  0  0  0  0  0  0
  160.4800  214.2830  147.6700 C   0  0  0  0  0  3  0  0  0  0  0  0
  161.8450  208.7800  150.9030 C   0  0  0  0  0  2  0  0  0  0  0  0
  160.9790  209.8600  151.5270 C   0  0  2  0  0  3  0  0  0  0  0  0
  162.3130  210.8190  149.7280 C   0  0  2  0  0  3  0  0  0  0  0  0
  162.2660  209.3140  149.5540 C   0  0  0  0  0  2  0  0  0  0  0  0
  161.3280  211.1640  150.8330 C   0  0  0  0  0  2  0  0  0  0  0  0
  161.2720  209.9780  153.0130 C   0  0  0  0  0  2  0  0  0  0  0  0
  159.9830  209.9200  153.8320 C   0  0  1  0  0  3  0  0  0  0  0  0
  161.2430  209.6460  156.0100 C   0  0  0  0  0  2  0  0  0  0  0  0
  161.4680  208.7750  157.2610 C   0  0  0  0  0  2  0  0  0  0  0  0
  160.5260  207.6080  154.7220 C   0  0  0  0  0  2  0  0  0  0  0  0
  161.1710  206.8480  155.8900 C   0  0  0  0  0  2  0  0  0  0  0  0
  160.1690  209.0580  155.0890 C   0  0  0  0  0  3  0  0  0  0  0  0
  160.8170  207.4640  157.1660 N   0  0  0  0  0  2  0  0  0  0  0  0
  159.5490  211.3140  154.1800 C   0  0  0  0  0  0  0  0  0  0  0  0
  160.1300  212.3950  153.5310 O   0  0  0  0  0  0  0  0  0  0  0  0
  158.6650  211.5120  155.0570 O   0  0  0  0  0  1  0  0  0  0  0  0
  160.0340  213.9490  145.1960 N   0  0  0  0  0  2  0  0  0  0  0  0
  161.6790  212.9120  143.8260 N   0  0  0  0  0  0  0  0  0  0  0  0
  160.6200  213.6600  143.9180 C   0  0  0  0  0  0  0  0  0  0  0  0
  159.9720  214.2360  142.6970 C   0  0  0  0  0  2  0  0  0  0  0  0
  158.7740  213.3900  142.2880 C   0  0  0  0  0  2  0  0  0  0  0  0
  158.2870  213.8260  141.0550 O   0  0  0  0  0  0  0  0  0  0  0  0
  158.5240  212.7600  140.1820 C   0  0  0  0  0  2  0  0  0  0  0  0
  156.6310  211.1910  139.2610 C   0  0  2  0  0  3  0  0  0  0  0  0
  155.5120  211.3690  138.3340 N   0  0  0  0  0  0  0  0  0  0  0  0
  154.3640  211.8540  139.0880 C   0  0  0  0  0  1  0  0  0  0  0  0
  157.3150  212.5410  139.2910 C   0  0  2  0  0  0  0  0  0  0  0  0
  155.9540  212.4560  137.4230 C   0  0  0  0  0  2  0  0  0  0  0  0
  157.8280  211.4800  138.3930 C   0  0  2  0  0  3  0  0  0  0  0  0
  157.3920  212.7970  137.8100 C   0  0  2  0  0  3  0  0  0  0  0  0
  162.3250  212.5900  142.5620 C   0  0  0  0  0  2  0  0  0  0  0  0
  161.5940  211.4440  141.8940 C   0  0  0  0  0  2  0  0  0  0  0  0
  163.5210  210.8070  140.0880 O   0  0  0  0  0  1  0  0  0  0  0  0
  162.0330  212.8660  139.4540 O   0  0  0  0  0  0  0  0  0  0  0  0
  162.1040  211.3300  140.1580 P   0  0  2  0  0  0  0  0  0  0  0  0
  161.0470  210.2560  139.3260 O   0  0  0  0  0  0  0  0  0  0  0  0
  161.2950  208.8860  139.1950 C   0  0  0  0  0  0  0  0  0  0  0  0
  160.7960  208.0980  138.0290 C   0  0  0  0  0  1  0  0  0  0  0  0
  161.9590  208.2960  140.0850 O   0  0  0  0  0  0  0  0  0  0  0  0
  1  7  1  0  0  0  0
  3  4  1  0  0  0  0
  4  2  2  0  0  0  0
  5  1  1  0  0  0  0
  5  2  1  0  0  0  0
  6  3  2  0  0  0  0
  6  8  1  0  0  0  0
  8  7  2  0  0  0  0
  9 10  1  0  0  0  0
 10 14  1  1  0  0  0
 11  2  1  6  0  0  0
 11 13  1  0  0  0  0
 12 11  1  0  0  0  0
 12  9  1  0  0  0  0
 13 10  1  0  0  0  0
 15 14  1  1  0  0  0
 15 22  1  0  0  0  0
 15 20  1  0  0  0  0
 16 17  1  0  0  0  0
 18 20  1  0  0  0  0
 18 19  1  0  0  0  0
 19 21  1  0  0  0  0
 20 16  1  0  0  0  0
 21 17  1  0  0  0  0
 22 24  1  0  0  0  0
 23 22  2  0  0  0  0
 25  6  1  0  0  0  0
 26 27  2  0  0  0  0
 27 25  1  0  0  0  0
 28 27  1  0  0  0  0
 29 28  1  0  0  0  0
 30 29  1  0  0  0  0
 31 30  1  0  0  0  0
 32 33  1  6  0  0  0
 32 35  1  0  0  0  0
 33 34  1  0  0  0  0
 35 31  1  1  0  0  0
 36 38  1  0  0  0  0
 36 33  1  0  0  0  0
 37 32  1  0  0  0  0
 37 35  1  0  0  0  0
 38 37  1  0  0  0  0
 38 35  1  0  0  0  0
 39 26  1  0  0  0  0
 40 39  1  0  0  0  0
 41 43  1  0  0  0  0
 42 43  2  0  0  0  0
 43 40  1  0  0  0  0
 44 43  1  0  0  0  0
 45 44  1  0  0  0  0
 45 47  2  0  0  0  0
 46 45  1  0  0  0  0
M  END
>  <MODEL>
8

>  <REMARK>
 VINA RESULT:      -4.5      3.454     12.199
  Name = 
  16 active torsions:
  status: ('A' for Active; 'I' for Inactive)
    1  A    between atoms: C_4  and  C_33
    2  A    between atoms: C_5  and  O_21
    3  A    between atoms: C_6  and  C_23
    4  A    between atoms: C_9  and  C_22
    5  A    between atoms: C_9  and  C_33
    6  A    between atoms: N_12  and  C_18
    7  A    between atoms: C_13  and  C_36
    8  A    between atoms: C_13  and  C_40
    9  A    between atoms: O_21  and  P_42
   10  A    between atoms: C_28  and  C_33
   11  A    between atoms: C_32  and  C_35
   12  A    between atoms: C_32  and  O_46
   13  A    between atoms: C_36  and  O_46
   14  A    between atoms: N_39  and  C_41
   15  A    between atoms: C_41  and  C_45
   16  A    between atoms: P_42  and  C_45
                            x       y       z     vdW  Elec       q    Type
                         _______ _______ _______ _____ _____    ______ ____

>  <TORSDO>
F 16

$$$$
=
 OpenBabel11042421553D

 47 52  0  0  1  0  0  0  0  0999 V2000
  160.5260  204.8230  149.1460 C   0  0  0  0  0  2  0  0  0  0  0  0
  161.5670  207.0230  149.8880 C   0  0  0  0  0  0  0  0  0  0  0  0
  162.0800  207.4660  147.5120 C   0  0  0  0  0  3  0  0  0  0  0  0
  162.3390  207.5990  148.9580 C   0  0  0  0  0  3  0  0  0  0  0  0
  160.3170  206.3000  149.4890 C   0  0  0  0  0  2  0  0  0  0  0  0
  162.0480  206.3000  146.8540 C   0  0  0  0  0  0  0  0  0  0  0  0
  161.8440  204.4360  148.5260 C   0  0  0  0  0  3  0  0  0  0  0  0
  162.4680  205.0420  147.5100 C   0  0  0  0  0  3  0  0  0  0  0  0
  161.3790  206.1950  153.4880 C   0  0  0  0  0  2  0  0  0  0  0  0
  160.5320  207.4500  153.3610 C   0  0  2  0  0  3  0  0  0  0  0  0
  161.8750  207.1640  151.3490 C   0  0  2  0  0  3  0  0  0  0  0  0
  161.8040  205.8390  152.0830 C   0  0  0  0  0  2  0  0  0  0  0  0
  160.8990  208.1010  152.0410 C   0  0  0  0  0  2  0  0  0  0  0  0
  160.8310  208.4050  154.5040 C   0  0  0  0  0  2  0  0  0  0  0  0
  161.1070  209.8150  153.9820 C   0  0  1  0  0  3  0  0  0  0  0  0
  159.0420  210.1520  155.4060 C   0  0  0  0  0  2  0  0  0  0  0  0
  157.8670  211.0830  155.7610 C   0  0  0  0  0  2  0  0  0  0  0  0
  159.1490  211.1670  153.1070 C   0  0  0  0  0  2  0  0  0  0  0  0
  157.7590  211.7120  153.4650 C   0  0  0  0  0  2  0  0  0  0  0  0
  159.9630  210.7700  154.3490 C   0  0  0  0  0  3  0  0  0  0  0  0
  157.7380  212.2150  154.8370 N   0  0  0  0  0  2  0  0  0  0  0  0
  162.4220  210.2980  154.5200 C   0  0  0  0  0  0  0  0  0  0  0  0
  162.6420  210.3030  155.8910 O   0  0  0  0  0  1  0  0  0  0  0  0
  163.3270  210.7020  153.7400 O   0  0  0  0  0  0  0  0  0  0  0  0
  161.7890  206.3480  145.4460 N   0  0  0  0  0  2  0  0  0  0  0  0
  160.7360  204.2370  145.1420 N   0  0  0  0  0  0  0  0  0  0  0  0
  161.1080  205.3760  144.6380 C   0  0  0  0  0  0  0  0  0  0  0  0
  160.8310  205.7150  143.2060 C   0  0  0  0  0  2  0  0  0  0  0  0
  162.1060  206.1890  142.5230 C   0  0  0  0  0  2  0  0  0  0  0  0
  161.9220  206.2040  141.1390 O   0  0  0  0  0  0  0  0  0  0  0  0
  162.5660  207.3660  140.7070 C   0  0  0  0  0  2  0  0  0  0  0  0
  161.9080  208.5580  138.4620 C   0  0  2  0  0  3  0  0  0  0  0  0
  160.7620  209.3580  138.0230 N   0  0  0  0  0  0  0  0  0  0  0  0
  159.7350  208.4540  137.5250 C   0  0  0  0  0  1  0  0  0  0  0  0
  161.6050  208.2260  139.9080 C   0  0  2  0  0  0  0  0  0  0  0  0
  160.2530  209.9900  139.2670 C   0  0  0  0  0  2  0  0  0  0  0  0
  162.4740  209.3830  139.5880 C   0  0  2  0  0  3  0  0  0  0  0  0
  161.2170  209.5990  140.3860 C   0  0  2  0  0  3  0  0  0  0  0  0
  160.0510  203.2070  144.3750 C   0  0  0  0  0  2  0  0  0  0  0  0
  159.3820  202.2300  145.3190 C   0  0  0  0  0  2  0  0  0  0  0  0
  161.9560  202.1240  146.1830 O   0  0  0  0  0  1  0  0  0  0  0  0
  160.8290  199.8010  145.7430 O   0  0  0  0  0  0  0  0  0  0  0  0
  160.6430  201.3840  146.3090 P   0  0  2  0  0  0  0  0  0  0  0  0
  160.1470  201.3600  147.9580 O   0  0  0  0  0  0  0  0  0  0  0  0
  160.9860  200.9650  149.0050 C   0  0  0  0  0  0  0  0  0  0  0  0
  160.7700  201.4200  150.4100 C   0  0  0  0  0  1  0  0  0  0  0  0
  161.9550  200.2020  148.7570 O   0  0  0  0  0  0  0  0  0  0  0  0
  1  5  1  0  0  0  0
  3  4  1  0  0  0  0
  4  2  2  0  0  0  0
  5  2  1  0  0  0  0
  6  8  1  0  0  0  0
  6  3  2  0  0  0  0
  7  1  1  0  0  0  0
  8  7  2  0  0  0  0
 10  9  1  0  0  0  0
 10 14  1  1  0  0  0
 11  2  1  6  0  0  0
 11 13  1  0  0  0  0
 11 12  1  0  0  0  0
 12  9  1  0  0  0  0
 13 10  1  0  0  0  0
 15 20  1  0  0  0  0
 15 14  1  1  0  0  0
 15 22  1  0  0  0  0
 16 17  1  0  0  0  0
 18 19  1  0  0  0  0
 18 20  1  0  0  0  0
 19 21  1  0  0  0  0
 20 16  1  0  0  0  0
 21 17  1  0  0  0  0
 22 23  1  0  0  0  0
 24 22  2  0  0  0  0
 25  6  1  0  0  0  0
 27 26  2  0  0  0  0
 27 25  1  0  0  0  0
 28 27  1  0  0  0  0
 29 28  1  0  0  0  0
 30 29  1  0  0  0  0
 31 30  1  0  0  0  0
 32 33  1  6  0  0  0
 32 37  1  0  0  0  0
 32 35  1  0  0  0  0
 33 36  1  0  0  0  0
 34 33  1  0  0  0  0
 35 38  1  0  0  0  0
 35 31  1  1  0  0  0
 36 38  1  0  0  0  0
 37 35  1  0  0  0  0
 37 38  1  0  0  0  0
 39 26  1  0  0  0  0
 39 40  1  0  0  0  0
 40 43  1  0  0  0  0
 41 43  1  0  0  0  0
 42 43  2  0  0  0  0
 43 44  1  0  0  0  0
 44 45  1  0  0  0  0
 45 46  1  0  0  0  0
 47 45  2  0  0  0  0
M  END
>  <MODEL>
9

>  <REMARK>
 VINA RESULT:      -4.3      4.055     11.793
  Name = 
  16 active torsions:
  status: ('A' for Active; 'I' for Inactive)
    1  A    between atoms: C_4  and  C_33
    2  A    between atoms: C_5  and  O_21
    3  A    between atoms: C_6  and  C_23
    4  A    between atoms: C_9  and  C_22
    5  A    between atoms: C_9  and  C_33
    6  A    between atoms: N_12  and  C_18
    7  A    between atoms: C_13  and  C_36
    8  A    between atoms: C_13  and  C_40
    9  A    between atoms: O_21  and  P_42
   10  A    between atoms: C_28  and  C_33
   11  A    between atoms: C_32  and  C_35
   12  A    between atoms: C_32  and  O_46
   13  A    between atoms: C_36  and  O_46
   14  A    between atoms: N_39  and  C_41
   15  A    between atoms: C_41  and  C_45
   16  A    between atoms: P_42  and  C_45
                            x       y       z     vdW  Elec       q    Type
                         _______ _______ _______ _____ _____    ______ ____

>  <TORSDO>
F 16

$$$$
