=
 OpenBabel11042421203D

 39 44  0  0  1  0  0  0  0  0999 V2000
  161.0780  205.6320  150.1100 N   0  0  0  0  0  2  0  0  0  0  0  0
  161.4900  207.6930  152.2410 N   0  0  0  0  0  0  0  0  0  0  0  0
  161.6040  204.8230  151.2020 C   0  0  1  0  0  3  0  0  0  0  0  0
  161.4050  207.4000  148.4950 C   0  0  0  0  0  3  0  0  0  0  0  0
  161.5890  207.9880  150.8360 C   0  0  0  0  0  0  0  0  0  0  0  0
  162.1320  206.5650  152.7750 N   0  0  0  0  0  2  0  0  0  0  0  0
  161.6350  208.7290  148.1470 C   0  0  0  0  0  3  0  0  0  0  0  0
  161.7990  209.2820  150.4560 N   0  0  0  0  0  0  0  0  0  0  0  0
  161.8380  209.6720  149.1540 C   0  0  0  0  0  0  0  0  0  0  0  0
  161.2690  205.4240  152.5490 C   0  0  0  0  0  2  0  0  0  0  0  0
  161.3940  207.0030  149.8340 C   0  0  0  0  0  0  0  0  0  0  0  0
  160.8930  208.1870  154.5590 C   0  0  0  0  0  2  0  0  0  0  0  0
  161.7830  210.0180  153.0780 C   0  0  0  0  0  2  0  0  0  0  0  0
  160.6580  210.3730  155.7690 C   0  0  0  0  0  2  0  0  0  0  0  0
  160.9480  211.2000  153.4600 C   0  0  0  0  0  3  0  0  0  0  0  0
  160.9590  208.7290  153.1330 C   0  0  1  0  0  3  0  0  0  0  0  0
  160.4150  211.3730  154.6720 C   0  0  0  0  0  0  0  0  0  0  0  0
  159.9980  209.0380  155.4510 C   0  0  0  0  0  2  0  0  0  0  0  0
  159.6330  212.5550  154.8950 N   0  0  0  0  0  2  0  0  0  0  0  0
  157.7990  213.9570  153.9750 C   0  0  0  0  0  3  0  0  0  0  0  0
  158.2490  212.7790  154.5860 C   0  0  0  0  0  0  0  0  0  0  0  0
  156.4370  214.1230  153.7170 C   0  0  0  0  0  3  0  0  0  0  0  0
  155.9650  211.9980  154.6590 C   0  0  0  0  0  3  0  0  0  0  0  0
  157.3190  211.7960  154.9330 C   0  0  0  0  0  3  0  0  0  0  0  0
  155.5530  213.1480  154.0610 N   0  0  0  0  0  0  0  0  0  0  0  0
  163.1100  212.9640  147.9240 C   0  0  0  0  0  3  0  0  0  0  0  0
  162.0200  213.5870  148.5290 C   0  0  0  0  0  3  0  0  0  0  0  0
  161.1030  212.3830  149.2620 S   0  0  0  0  0  0  0  0  0  0  0  0
  163.1440  211.5720  148.0840 C   0  0  0  0  0  3  0  0  0  0  0  0
  162.0740  211.0860  148.8200 C   0  0  0  0  0  0  0  0  0  0  0  0
  161.0800  203.3940  151.0980 C   0  0  0  0  0  2  0  0  0  0  0  0
  160.2370  203.1800  149.8370 C   0  0  0  0  0  2  0  0  0  0  0  0
  160.9750  202.7350  145.7250 C   0  0  0  0  0  2  0  0  0  0  0  0
  161.9790  201.4860  149.2650 C   0  0  0  0  0  1  0  0  0  0  0  0
  161.8020  203.5600  147.9300 C   0  0  0  0  0  3  0  0  0  0  0  0
  159.9990  201.7930  147.8040 C   0  0  0  0  0  2  0  0  0  0  0  0
  161.0140  202.5170  148.6980 C   0  0  2  0  0  0  0  0  0  0  0  0
  160.6080  201.4460  146.4480 C   0  0  0  0  0  2  0  0  0  0  0  0
  161.8190  203.6330  146.5890 C   0  0  0  0  0  3  0  0  0  0  0  0
  1  3  1  0  0  0  0
  2  6  1  0  0  0  0
  3 31  1  1  0  0  0
  3 10  1  0  0  0  0
  4 11  1  0  0  0  0
  5  2  1  0  0  0  0
  7  4  2  0  0  0  0
  7  9  1  0  0  0  0
  8  5  1  0  0  0  0
  9  8  2  0  0  0  0
 10  6  1  0  0  0  0
 11  1  1  0  0  0  0
 11  5  2  0  0  0  0
 12 18  1  0  0  0  0
 13 16  1  0  0  0  0
 13 15  1  0  0  0  0
 15 17  2  0  0  0  0
 16  2  1  6  0  0  0
 16 12  1  0  0  0  0
 17 19  1  0  0  0  0
 17 14  1  0  0  0  0
 18 14  1  0  0  0  0
 20 21  1  0  0  0  0
 21 19  1  0  0  0  0
 21 24  2  0  0  0  0
 22 20  2  0  0  0  0
 22 25  1  0  0  0  0
 23 24  1  0  0  0  0
 25 23  2  0  0  0  0
 26 29  1  0  0  0  0
 26 27  2  0  0  0  0
 27 28  1  0  0  0  0
 29 30  2  0  0  0  0
 30  9  1  0  0  0  0
 30 28  1  0  0  0  0
 32 31  1  0  0  0  0
 33 38  1  0  0  0  0
 33 39  1  0  0  0  0
 35 37  1  0  0  0  0
 36 37  1  0  0  0  0
 37 34  1  1  0  0  0
 37 32  1  0  0  0  0
 38 36  1  0  0  0  0
 39 35  2  0  0  0  0
M  END
>  <MODEL>
1

>  <REMARK>
 VINA RESULT:      -8.7      0.000      0.000
  Name = 
  7 active torsions:
  status: ('A' for Active; 'I' for Inactive)
    1  A    between atoms: C_3  and  N_13
    2  A    between atoms: N_5  and  C_31
    3  A    between atoms: N_13  and  C_33
    4  A    between atoms: C_15  and  C_18
    5  A    between atoms: C_18  and  C_34
    6  A    between atoms: C_27  and  C_34
    7  A    between atoms: C_30  and  C_32
                            x       y       z     vdW  Elec       q    Type
                         _______ _______ _______ _____ _____    ______ ____

>  <TORSDO>
F 7

$$$$
=
 OpenBabel11042421203D

 39 44  0  0  1  0  0  0  0  0999 V2000
  160.7780  208.2970  152.1430 N   0  0  0  0  0  2  0  0  0  0  0  0
  162.0220  209.9750  150.0000 N   0  0  0  0  0  0  0  0  0  0  0  0
  161.6170  209.1960  152.9260 C   0  0  1  0  0  3  0  0  0  0  0  0
  160.5970  206.5340  150.5000 C   0  0  0  0  0  3  0  0  0  0  0  0
  161.6300  208.6060  149.7950 C   0  0  0  0  0  0  0  0  0  0  0  0
  162.7560  210.3380  151.1410 N   0  0  0  0  0  2  0  0  0  0  0  0
  160.7550  206.0220  149.2150 C   0  0  0  0  0  3  0  0  0  0  0  0
  161.7560  208.0740  148.5440 N   0  0  0  0  0  0  0  0  0  0  0  0
  161.3490  206.8140  148.2330 C   0  0  0  0  0  0  0  0  0  0  0  0
  161.8130  210.5220  152.2250 C   0  0  0  0  0  2  0  0  0  0  0  0
  161.0430  207.8190  150.8180 C   0  0  0  0  0  0  0  0  0  0  0  0
  160.7290  211.8610  149.1380 C   0  0  0  0  0  2  0  0  0  0  0  0
  163.1880  211.6920  148.6270 C   0  0  0  0  0  2  0  0  0  0  0  0
  161.3150  213.6260  147.4520 C   0  0  0  0  0  2  0  0  0  0  0  0
  163.2710  212.1390  147.2010 C   0  0  0  0  0  3  0  0  0  0  0  0
  161.8950  210.9110  148.8780 C   0  0  1  0  0  3  0  0  0  0  0  0
  162.4210  213.0050  146.6440 C   0  0  0  0  0  0  0  0  0  0  0  0
  160.2880  212.5820  147.8700 C   0  0  0  0  0  2  0  0  0  0  0  0
  162.6200  213.3420  145.2630 N   0  0  0  0  0  2  0  0  0  0  0  0
  160.5590  212.5140  144.1500 C   0  0  0  0  0  3  0  0  0  0  0  0
  161.9220  212.8390  144.1140 C   0  0  0  0  0  0  0  0  0  0  0  0
  159.9390  212.0110  143.0040 C   0  0  0  0  0  3  0  0  0  0  0  0
  161.9810  212.1370  141.8040 C   0  0  0  0  0  3  0  0  0  0  0  0
  162.6350  212.6420  142.9300 C   0  0  0  0  0  3  0  0  0  0  0  0
  160.6570  211.8330  141.8620 N   0  0  0  0  0  0  0  0  0  0  0  0
  162.5530  205.3560  145.0100 C   0  0  0  0  0  3  0  0  0  0  0  0
  161.2980  205.5950  144.4560 C   0  0  0  0  0  3  0  0  0  0  0  0
  160.3540  206.3030  145.6550 S   0  0  0  0  0  0  0  0  0  0  0  0
  162.6820  205.7500  146.3500 C   0  0  0  0  0  3  0  0  0  0  0  0
  161.5200  206.3070  146.8620 C   0  0  0  0  0  0  0  0  0  0  0  0
  161.0200  209.3970  154.3150 C   0  0  0  0  0  2  0  0  0  0  0  0
  161.3990  210.7540  154.9150 C   0  0  0  0  0  2  0  0  0  0  0  0
  157.3720  211.9290  154.6810 C   0  0  0  0  0  2  0  0  0  0  0  0
  160.6310  212.2280  156.7770 C   0  0  0  0  0  1  0  0  0  0  0  0
  159.0900  210.5370  155.8370 C   0  0  0  0  0  3  0  0  0  0  0  0
  159.7640  212.5570  154.4770 C   0  0  0  0  0  2  0  0  0  0  0  0
  160.2060  211.5080  155.5050 C   0  0  2  0  0  0  0  0  0  0  0  0
  158.3650  213.0790  154.7880 C   0  0  0  0  0  2  0  0  0  0  0  0
  157.8070  210.7460  155.5050 C   0  0  0  0  0  3  0  0  0  0  0  0
  1  3  1  0  0  0  0
  2  6  1  0  0  0  0
  3 31  1  1  0  0  0
  4 11  1  0  0  0  0
  5  2  1  0  0  0  0
  5 11  2  0  0  0  0
  6 10  1  0  0  0  0
  7  4  2  0  0  0  0
  8  5  1  0  0  0  0
  9  8  2  0  0  0  0
  9  7  1  0  0  0  0
 10  3  1  0  0  0  0
 11  1  1  0  0  0  0
 14 18  1  0  0  0  0
 15 13  1  0  0  0  0
 16 13  1  1  0  0  0
 16 12  1  0  0  0  0
 16  2  1  0  0  0  0
 17 15  2  0  0  0  0
 17 14  1  0  0  0  0
 18 12  1  0  0  0  0
 19 17  1  0  0  0  0
 21 20  1  0  0  0  0
 21 19  1  0  0  0  0
 22 20  2  0  0  0  0
 23 25  2  0  0  0  0
 23 24  1  0  0  0  0
 24 21  2  0  0  0  0
 25 22  1  0  0  0  0
 26 29  1  0  0  0  0
 27 26  2  0  0  0  0
 27 28  1  0  0  0  0
 28 30  1  0  0  0  0
 29 30  2  0  0  0  0
 30  9  1  0  0  0  0
 31 32  1  0  0  0  0
 32 37  1  0  0  0  0
 33 38  1  0  0  0  0
 33 39  1  0  0  0  0
 36 38  1  0  0  0  0
 36 37  1  0  0  0  0
 37 35  1  0  0  0  0
 37 34  1  1  0  0  0
 39 35  2  0  0  0  0
M  END
>  <MODEL>
2

>  <REMARK>
 VINA RESULT:      -7.9      3.120      8.770
  Name = 
  7 active torsions:
  status: ('A' for Active; 'I' for Inactive)
    1  A    between atoms: C_3  and  N_13
    2  A    between atoms: N_5  and  C_31
    3  A    between atoms: N_13  and  C_33
    4  A    between atoms: C_15  and  C_18
    5  A    between atoms: C_18  and  C_34
    6  A    between atoms: C_27  and  C_34
    7  A    between atoms: C_30  and  C_32
                            x       y       z     vdW  Elec       q    Type
                         _______ _______ _______ _____ _____    ______ ____

>  <TORSDO>
F 7

$$$$
=
 OpenBabel11042421203D

 39 44  0  0  1  0  0  0  0  0999 V2000
  160.2990  212.5330  150.3190 N   0  0  0  0  0  2  0  0  0  0  0  0
  161.7850  209.9360  150.2550 N   0  0  0  0  0  0  0  0  0  0  0  0
  161.2000  212.7390  149.1910 C   0  0  1  0  0  3  0  0  0  0  0  0
  159.9920  212.1690  152.6890 C   0  0  0  0  0  3  0  0  0  0  0  0
  161.2600  210.5080  151.4660 C   0  0  0  0  0  0  0  0  0  0  0  0
  162.5130  210.7290  149.3540 N   0  0  0  0  0  2  0  0  0  0  0  0
  160.1400  211.4190  153.8520 C   0  0  0  0  0  3  0  0  0  0  0  0
  161.3720  209.7960  152.6240 N   0  0  0  0  0  0  0  0  0  0  0  0
  160.8470  210.2180  153.8060 C   0  0  0  0  0  0  0  0  0  0  0  0
  161.5580  211.4310  148.5210 C   0  0  0  0  0  2  0  0  0  0  0  0
  160.5580  211.7410  151.4850 C   0  0  0  0  0  0  0  0  0  0  0  0
  161.0660  207.8520  151.3100 C   0  0  0  0  0  2  0  0  0  0  0  0
  161.1800  208.0090  148.8010 C   0  0  0  0  0  2  0  0  0  0  0  0
  160.7010  205.5610  150.3530 C   0  0  0  0  0  2  0  0  0  0  0  0
  161.7260  206.6740  148.4010 C   0  0  0  0  0  3  0  0  0  0  0  0
  161.7950  208.4750  150.1230 C   0  0  1  0  0  3  0  0  0  0  0  0
  161.5330  205.5530  149.1010 C   0  0  0  0  0  0  0  0  0  0  0  0
  161.3760  206.3680  151.4550 C   0  0  0  0  0  2  0  0  0  0  0  0
  162.1200  204.3430  148.5980 N   0  0  0  0  0  2  0  0  0  0  0  0
  161.6020  203.7660  146.2380 C   0  0  0  0  0  3  0  0  0  0  0  0
  161.6020  203.4490  147.6030 C   0  0  0  0  0  0  0  0  0  0  0  0
  161.0640  202.8610  145.3190 C   0  0  0  0  0  3  0  0  0  0  0  0
  160.5250  201.3540  147.0690 C   0  0  0  0  0  3  0  0  0  0  0  0
  161.0530  202.2330  148.0170 C   0  0  0  0  0  3  0  0  0  0  0  0
  160.5410  201.6820  145.7490 N   0  0  0  0  0  0  0  0  0  0  0  0
  160.6700  207.6710  156.5340 C   0  0  0  0  0  3  0  0  0  0  0  0
  161.6650  208.3650  157.2180 C   0  0  0  0  0  3  0  0  0  0  0  0
  162.0810  209.6950  156.2760 S   0  0  0  0  0  0  0  0  0  0  0  0
  160.3020  208.2420  155.3070 C   0  0  0  0  0  3  0  0  0  0  0  0
  161.0120  209.3980  155.0160 C   0  0  0  0  0  0  0  0  0  0  0  0
  160.5790  213.7110  148.1930 C   0  0  0  0  0  2  0  0  0  0  0  0
  159.7230  212.9930  147.1460 C   0  0  0  0  0  2  0  0  0  0  0  0
  158.9360  213.2170  143.0250 C   0  0  0  0  0  2  0  0  0  0  0  0
  161.7330  213.3790  145.7180 C   0  0  0  0  0  1  0  0  0  0  0  0
  159.5780  214.4290  145.1100 C   0  0  0  0  0  3  0  0  0  0  0  0
  159.8870  211.9280  144.9210 C   0  0  0  0  0  2  0  0  0  0  0  0
  160.2220  213.1970  145.7150 C   0  0  2  0  0  0  0  0  0  0  0  0
  159.9770  212.1780  143.4180 C   0  0  0  0  0  2  0  0  0  0  0  0
  159.0360  214.4520  143.8810 C   0  0  0  0  0  3  0  0  0  0  0  0
  1 11  1  0  0  0  0
  2  5  1  0  0  0  0
  3 31  1  6  0  0  0
  3  1  1  0  0  0  0
  4  7  1  0  0  0  0
  5 11  1  0  0  0  0
  5  8  2  0  0  0  0
  6  2  1  0  0  0  0
  8  9  1  0  0  0  0
  9  7  2  0  0  0  0
  9 30  1  0  0  0  0
 10  3  1  0  0  0  0
 10  6  1  0  0  0  0
 11  4  2  0  0  0  0
 12 18  1  0  0  0  0
 14 18  1  0  0  0  0
 15 13  1  0  0  0  0
 15 17  2  0  0  0  0
 16 13  1  6  0  0  0
 16  2  1  0  0  0  0
 16 12  1  0  0  0  0
 17 14  1  0  0  0  0
 19 17  1  0  0  0  0
 20 21  1  0  0  0  0
 21 24  2  0  0  0  0
 21 19  1  0  0  0  0
 22 25  1  0  0  0  0
 22 20  2  0  0  0  0
 23 24  1  0  0  0  0
 25 23  2  0  0  0  0
 26 27  2  0  0  0  0
 28 27  1  0  0  0  0
 29 26  1  0  0  0  0
 30 29  2  0  0  0  0
 30 28  1  0  0  0  0
 32 31  1  0  0  0  0
 33 38  1  0  0  0  0
 33 39  1  0  0  0  0
 35 37  1  0  0  0  0
 36 37  1  0  0  0  0
 37 34  1  1  0  0  0
 37 32  1  0  0  0  0
 38 36  1  0  0  0  0
 39 35  2  0  0  0  0
M  END
>  <MODEL>
3

>  <REMARK>
 VINA RESULT:      -7.2      2.884      9.214
  Name = 
  7 active torsions:
  status: ('A' for Active; 'I' for Inactive)
    1  A    between atoms: C_3  and  N_13
    2  A    between atoms: N_5  and  C_31
    3  A    between atoms: N_13  and  C_33
    4  A    between atoms: C_15  and  C_18
    5  A    between atoms: C_18  and  C_34
    6  A    between atoms: C_27  and  C_34
    7  A    between atoms: C_30  and  C_32
                            x       y       z     vdW  Elec       q    Type
                         _______ _______ _______ _____ _____    ______ ____

>  <TORSDO>
F 7

$$$$
=
 OpenBabel11042421203D

 39 44  0  0  1  0  0  0  0  0999 V2000
  160.8040  208.5820  154.0600 N   0  0  0  0  0  2  0  0  0  0  0  0
  161.5690  210.2110  151.6690 N   0  0  0  0  0  0  0  0  0  0  0  0
  161.5310  209.6840  154.6780 C   0  0  1  0  0  3  0  0  0  0  0  0
  160.8100  206.6510  152.6060 C   0  0  0  0  0  3  0  0  0  0  0  0
  161.4080  208.7820  151.6240 C   0  0  0  0  0  0  0  0  0  0  0  0
  162.3130  210.8080  152.6990 N   0  0  0  0  0  2  0  0  0  0  0  0
  160.9560  206.0420  151.3620 C   0  0  0  0  0  3  0  0  0  0  0  0
  161.5290  208.1510  150.4200 N   0  0  0  0  0  0  0  0  0  0  0  0
  161.3260  206.8150  150.2620 C   0  0  0  0  0  0  0  0  0  0  0  0
  161.4390  210.9440  153.8460 C   0  0  0  0  0  2  0  0  0  0  0  0
  161.0470  208.0190  152.7640 C   0  0  0  0  0  0  0  0  0  0  0  0
  160.7360  212.3810  150.9150 C   0  0  0  0  0  2  0  0  0  0  0  0
  162.3390  211.0860  149.4710 C   0  0  0  0  0  2  0  0  0  0  0  0
  160.9030  213.5260  148.6880 C   0  0  0  0  0  2  0  0  0  0  0  0
  161.8080  211.3080  148.0890 C   0  0  0  0  0  3  0  0  0  0  0  0
  161.1960  210.9900  150.4850 C   0  0  1  0  0  3  0  0  0  0  0  0
  161.1390  212.4020  147.7170 C   0  0  0  0  0  0  0  0  0  0  0  0
  159.9670  213.0940  149.8100 C   0  0  0  0  0  2  0  0  0  0  0  0
  160.6860  212.4780  146.3570 N   0  0  0  0  0  2  0  0  0  0  0  0
  160.9570  212.6320  143.8930 C   0  0  0  0  0  3  0  0  0  0  0  0
  161.4280  212.8640  145.1920 C   0  0  0  0  0  0  0  0  0  0  0  0
  161.7350  213.0140  142.7970 C   0  0  0  0  0  3  0  0  0  0  0  0
  163.4260  213.8350  144.2430 C   0  0  0  0  0  3  0  0  0  0  0  0
  162.6770  213.4670  145.3630 C   0  0  0  0  0  3  0  0  0  0  0  0
  162.9450  213.6030  142.9930 N   0  0  0  0  0  0  0  0  0  0  0  0
  161.4580  204.5750  147.2750 C   0  0  0  0  0  3  0  0  0  0  0  0
  161.8990  205.6530  146.5110 C   0  0  0  0  0  3  0  0  0  0  0  0
  161.9910  206.9830  147.5360 S   0  0  0  0  0  0  0  0  0  0  0  0
  161.2220  204.8760  148.6240 C   0  0  0  0  0  3  0  0  0  0  0  0
  161.4780  206.2030  148.9330 C   0  0  0  0  0  0  0  0  0  0  0  0
  161.0150  209.9270  156.0930 C   0  0  0  0  0  2  0  0  0  0  0  0
  159.4860  209.9880  156.1460 C   0  0  0  0  0  2  0  0  0  0  0  0
  156.3290  212.7230  155.6970 C   0  0  0  0  0  2  0  0  0  0  0  0
  160.0440  212.3390  156.7710 C   0  0  0  0  0  1  0  0  0  0  0  0
  157.7920  211.4430  157.2610 C   0  0  0  0  0  3  0  0  0  0  0  0
  158.5120  211.8730  154.8770 C   0  0  0  0  0  2  0  0  0  0  0  0
  158.9430  211.4120  156.2760 C   0  0  2  0  0  0  0  0  0  0  0  0
  157.6060  213.0980  154.9550 C   0  0  0  0  0  2  0  0  0  0  0  0
  156.6290  212.0690  157.0190 C   0  0  0  0  0  3  0  0  0  0  0  0
  1  3  1  0  0  0  0
  2  6  1  0  0  0  0
  3 31  1  1  0  0  0
  4 11  1  0  0  0  0
  5  2  1  0  0  0  0
  5 11  2  0  0  0  0
  6 10  1  0  0  0  0
  7  4  2  0  0  0  0
  8  5  1  0  0  0  0
  9  8  2  0  0  0  0
  9  7  1  0  0  0  0
 10  3  1  0  0  0  0
 11  1  1  0  0  0  0
 14 18  1  0  0  0  0
 15 13  1  0  0  0  0
 16 13  1  6  0  0  0
 16 12  1  0  0  0  0
 16  2  1  0  0  0  0
 17 15  2  0  0  0  0
 17 14  1  0  0  0  0
 18 12  1  0  0  0  0
 19 17  1  0  0  0  0
 20 21  1  0  0  0  0
 21 24  2  0  0  0  0
 21 19  1  0  0  0  0
 22 25  1  0  0  0  0
 22 20  2  0  0  0  0
 23 24  1  0  0  0  0
 25 23  2  0  0  0  0
 26 29  1  0  0  0  0
 27 26  2  0  0  0  0
 27 28  1  0  0  0  0
 28 30  1  0  0  0  0
 29 30  2  0  0  0  0
 30  9  1  0  0  0  0
 31 32  1  0  0  0  0
 32 37  1  0  0  0  0
 33 39  1  0  0  0  0
 36 38  1  0  0  0  0
 36 37  1  0  0  0  0
 37 34  1  1  0  0  0
 37 35  1  0  0  0  0
 38 33  1  0  0  0  0
 39 35  2  0  0  0  0
M  END
>  <MODEL>
4

>  <REMARK>
 VINA RESULT:      -6.8      2.775      8.780
  Name = 
  7 active torsions:
  status: ('A' for Active; 'I' for Inactive)
    1  A    between atoms: C_3  and  N_13
    2  A    between atoms: N_5  and  C_31
    3  A    between atoms: N_13  and  C_33
    4  A    between atoms: C_15  and  C_18
    5  A    between atoms: C_18  and  C_34
    6  A    between atoms: C_27  and  C_34
    7  A    between atoms: C_30  and  C_32
                            x       y       z     vdW  Elec       q    Type
                         _______ _______ _______ _____ _____    ______ ____

>  <TORSDO>
F 7

$$$$
=
 OpenBabel11042421203D

 39 44  0  0  1  0  0  0  0  0999 V2000
  161.4950  204.5760  151.6240 N   0  0  0  0  0  2  0  0  0  0  0  0
  160.7810  207.2660  150.5250 N   0  0  0  0  0  0  0  0  0  0  0  0
  160.8320  204.2160  150.3760 C   0  0  1  0  0  3  0  0  0  0  0  0
  161.3750  205.5680  153.8240 C   0  0  0  0  0  3  0  0  0  0  0  0
  160.8710  206.9950  151.9350 C   0  0  0  0  0  0  0  0  0  0  0  0
  160.0820  206.3920  149.6780 N   0  0  0  0  0  2  0  0  0  0  0  0
  161.1830  206.6460  154.6840 C   0  0  0  0  0  3  0  0  0  0  0  0
  160.7030  208.0300  152.8080 N   0  0  0  0  0  0  0  0  0  0  0  0
  160.8370  207.8890  154.1550 C   0  0  0  0  0  0  0  0  0  0  0  0
  160.9770  205.3050  149.3370 C   0  0  0  0  0  2  0  0  0  0  0  0
  161.2080  205.7150  152.4450 C   0  0  0  0  0  0  0  0  0  0  0  0
  162.1750  209.2110  151.0230 C   0  0  0  0  0  2  0  0  0  0  0  0
  161.7600  208.5490  148.6310 C   0  0  0  0  0  2  0  0  0  0  0  0
  163.0810  211.0140  149.5300 C   0  0  0  0  0  2  0  0  0  0  0  0
  161.5820  209.8640  147.9390 C   0  0  0  0  0  3  0  0  0  0  0  0
  161.1780  208.5940  150.0460 C   0  0  1  0  0  3  0  0  0  0  0  0
  162.1610  210.9990  148.3410 C   0  0  0  0  0  0  0  0  0  0  0  0
  162.3210  210.7140  150.8160 C   0  0  0  0  0  2  0  0  0  0  0  0
  161.8980  212.1880  147.5810 N   0  0  0  0  0  2  0  0  0  0  0  0
  160.1990  212.5870  145.8130 C   0  0  0  0  0  3  0  0  0  0  0  0
  160.6320  212.7010  147.1410 C   0  0  0  0  0  0  0  0  0  0  0  0
  158.9650  213.1240  145.4410 C   0  0  0  0  0  3  0  0  0  0  0  0
  158.5890  213.8820  147.6560 C   0  0  0  0  0  3  0  0  0  0  0  0
  159.8180  213.3590  148.0660 C   0  0  0  0  0  3  0  0  0  0  0  0
  158.1900  213.7560  146.3630 N   0  0  0  0  0  0  0  0  0  0  0  0
  159.9900  210.2780  156.9000 C   0  0  0  0  0  3  0  0  0  0  0  0
  160.5290  211.3120  156.1390 C   0  0  0  0  0  3  0  0  0  0  0  0
  161.0780  210.6360  154.7010 S   0  0  0  0  0  0  0  0  0  0  0  0
  160.0470  209.0170  156.2900 C   0  0  0  0  0  3  0  0  0  0  0  0
  160.6380  209.0500  155.0360 C   0  0  0  0  0  0  0  0  0  0  0  0
  161.3780  202.8900  149.8540 C   0  0  0  0  0  2  0  0  0  0  0  0
  160.3530  202.1420  148.9980 C   0  0  0  0  0  2  0  0  0  0  0  0
  160.4970  203.1070  144.9110 C   0  0  0  0  0  2  0  0  0  0  0  0
  161.6780  200.5580  147.5960 C   0  0  0  0  0  1  0  0  0  0  0  0
  161.7180  202.9770  147.0830 C   0  0  0  0  0  3  0  0  0  0  0  0
  159.6250  201.6170  146.6940 C   0  0  0  0  0  2  0  0  0  0  0  0
  160.8540  201.8380  147.5850 C   0  0  2  0  0  0  0  0  0  0  0  0
  159.9930  201.7020  145.2150 C   0  0  0  0  0  2  0  0  0  0  0  0
  161.5870  203.5210  145.8630 C   0  0  0  0  0  3  0  0  0  0  0  0
  1 11  1  0  0  0  0
  2  5  1  0  0  0  0
  3 31  1  6  0  0  0
  3  1  1  0  0  0  0
  4  7  1  0  0  0  0
  5 11  1  0  0  0  0
  5  8  2  0  0  0  0
  6  2  1  0  0  0  0
  8  9  1  0  0  0  0
  9  7  2  0  0  0  0
  9 30  1  0  0  0  0
 10  6  1  0  0  0  0
 10  3  1  0  0  0  0
 11  4  2  0  0  0  0
 14 18  1  0  0  0  0
 15 17  2  0  0  0  0
 15 13  1  0  0  0  0
 16 13  1  6  0  0  0
 16  2  1  0  0  0  0
 16 12  1  0  0  0  0
 17 14  1  0  0  0  0
 18 12  1  0  0  0  0
 19 17  1  0  0  0  0
 20 21  1  0  0  0  0
 21 19  1  0  0  0  0
 21 24  2  0  0  0  0
 22 20  2  0  0  0  0
 22 25  1  0  0  0  0
 23 24  1  0  0  0  0
 25 23  2  0  0  0  0
 27 26  2  0  0  0  0
 28 30  1  0  0  0  0
 28 27  1  0  0  0  0
 29 26  1  0  0  0  0
 30 29  2  0  0  0  0
 32 31  1  0  0  0  0
 33 38  1  0  0  0  0
 33 39  1  0  0  0  0
 35 37  1  0  0  0  0
 36 37  1  0  0  0  0
 37 34  1  1  0  0  0
 37 32  1  0  0  0  0
 38 36  1  0  0  0  0
 39 35  2  0  0  0  0
M  END
>  <MODEL>
5

>  <REMARK>
 VINA RESULT:      -6.3      2.624      5.429
  Name = 
  7 active torsions:
  status: ('A' for Active; 'I' for Inactive)
    1  A    between atoms: C_3  and  N_13
    2  A    between atoms: N_5  and  C_31
    3  A    between atoms: N_13  and  C_33
    4  A    between atoms: C_15  and  C_18
    5  A    between atoms: C_18  and  C_34
    6  A    between atoms: C_27  and  C_34
    7  A    between atoms: C_30  and  C_32
                            x       y       z     vdW  Elec       q    Type
                         _______ _______ _______ _____ _____    ______ ____

>  <TORSDO>
F 7

$$$$
=
 OpenBabel11042421203D

 39 44  0  0  1  0  0  0  0  0999 V2000
  160.9900  214.0150  147.0960 N   0  0  0  0  0  2  0  0  0  0  0  0
  162.1610  211.8930  148.8510 N   0  0  0  0  0  0  0  0  0  0  0  0
  162.3720  213.9800  146.6310 C   0  0  1  0  0  3  0  0  0  0  0  0
  159.4100  214.4530  148.8720 C   0  0  0  0  0  3  0  0  0  0  0  0
  161.0770  212.7420  149.2660 C   0  0  0  0  0  0  0  0  0  0  0  0
  163.2960  212.4430  148.2340 N   0  0  0  0  0  2  0  0  0  0  0  0
  158.8610  214.2010  150.1260 C   0  0  0  0  0  3  0  0  0  0  0  0
  160.5020  212.5160  150.4830 N   0  0  0  0  0  0  0  0  0  0  0  0
  159.4280  213.2180  150.9350 C   0  0  0  0  0  0  0  0  0  0  0  0
  162.9890  212.6140  146.8290 C   0  0  0  0  0  2  0  0  0  0  0  0
  160.5300  213.7470  148.4270 C   0  0  0  0  0  0  0  0  0  0  0  0
  161.6540  210.4610  150.7660 C   0  0  0  0  0  2  0  0  0  0  0  0
  161.3940  209.5640  148.4290 C   0  0  0  0  0  2  0  0  0  0  0  0
  161.2060  207.9960  150.9070 C   0  0  0  0  0  2  0  0  0  0  0  0
  161.9060  208.1620  148.5440 C   0  0  0  0  0  3  0  0  0  0  0  0
  162.1860  210.5090  149.3360 C   0  0  1  0  0  3  0  0  0  0  0  0
  161.8450  207.4380  149.6650 C   0  0  0  0  0  0  0  0  0  0  0  0
  162.0170  209.1580  151.4660 C   0  0  0  0  0  2  0  0  0  0  0  0
  162.3790  206.1060  149.6300 N   0  0  0  0  0  2  0  0  0  0  0  0
  161.0630  204.0650  150.1530 C   0  0  0  0  0  3  0  0  0  0  0  0
  161.7220  204.8940  149.2340 C   0  0  0  0  0  0  0  0  0  0  0  0
  160.4580  202.8870  149.7090 C   0  0  0  0  0  3  0  0  0  0  0  0
  161.1500  203.3300  147.4840 C   0  0  0  0  0  3  0  0  0  0  0  0
  161.7670  204.5160  147.8900 C   0  0  0  0  0  3  0  0  0  0  0  0
  160.5130  202.5460  148.3940 N   0  0  0  0  0  0  0  0  0  0  0  0
  158.4450  211.7670  154.2360 C   0  0  0  0  0  3  0  0  0  0  0  0
  157.6470  212.8860  154.4660 C   0  0  0  0  0  3  0  0  0  0  0  0
  157.8000  213.8890  153.1260 S   0  0  0  0  0  0  0  0  0  0  0  0
  159.1250  211.7820  153.0100 C   0  0  0  0  0  3  0  0  0  0  0  0
  158.8640  212.9200  152.2610 C   0  0  0  0  0  0  0  0  0  0  0  0
  162.4450  214.4040  145.1680 C   0  0  0  0  0  2  0  0  0  0  0  0
  162.4320  213.2030  144.2180 C   0  0  0  0  0  2  0  0  0  0  0  0
  161.0540  212.1800  140.3830 C   0  0  0  0  0  2  0  0  0  0  0  0
  160.2650  214.2580  143.5710 C   0  0  0  0  0  1  0  0  0  0  0  0
  160.7650  211.9460  142.8510 C   0  0  0  0  0  3  0  0  0  0  0  0
  162.0400  213.8980  141.8780 C   0  0  0  0  0  2  0  0  0  0  0  0
  161.3680  213.3090  143.1250 C   0  0  2  0  0  0  0  0  0  0  0  0
  161.1860  213.6770  140.6330 C   0  0  0  0  0  2  0  0  0  0  0  0
  160.5830  211.4530  141.6150 C   0  0  0  0  0  3  0  0  0  0  0  0
  1 11  1  0  0  0  0
  2  5  1  0  0  0  0
  2 16  1  0  0  0  0
  3 31  1  6  0  0  0
  3 10  1  0  0  0  0
  3  1  1  0  0  0  0
  4  7  1  0  0  0  0
  5  8  2  0  0  0  0
  6  2  1  0  0  0  0
  7  9  2  0  0  0  0
  8  9  1  0  0  0  0
  9 30  1  0  0  0  0
 10  6  1  0  0  0  0
 11  4  2  0  0  0  0
 11  5  1  0  0  0  0
 12 18  1  0  0  0  0
 13 15  1  0  0  0  0
 14 18  1  0  0  0  0
 15 17  2  0  0  0  0
 16 13  1  6  0  0  0
 16 12  1  0  0  0  0
 17 14  1  0  0  0  0
 19 17  1  0  0  0  0
 21 19  1  0  0  0  0
 21 20  2  0  0  0  0
 22 20  1  0  0  0  0
 23 24  2  0  0  0  0
 23 25  1  0  0  0  0
 24 21  1  0  0  0  0
 25 22  2  0  0  0  0
 26 27  2  0  0  0  0
 28 27  1  0  0  0  0
 29 26  1  0  0  0  0
 30 29  2  0  0  0  0
 30 28  1  0  0  0  0
 32 31  1  0  0  0  0
 33 38  1  0  0  0  0
 33 39  1  0  0  0  0
 35 37  1  0  0  0  0
 36 37  1  0  0  0  0
 37 34  1  1  0  0  0
 37 32  1  0  0  0  0
 38 36  1  0  0  0  0
 39 35  2  0  0  0  0
M  END
>  <MODEL>
6

>  <REMARK>
 VINA RESULT:      -6.1      3.581      9.030
  Name = 
  7 active torsions:
  status: ('A' for Active; 'I' for Inactive)
    1  A    between atoms: C_3  and  N_13
    2  A    between atoms: N_5  and  C_31
    3  A    between atoms: N_13  and  C_33
    4  A    between atoms: C_15  and  C_18
    5  A    between atoms: C_18  and  C_34
    6  A    between atoms: C_27  and  C_34
    7  A    between atoms: C_30  and  C_32
                            x       y       z     vdW  Elec       q    Type
                         _______ _______ _______ _____ _____    ______ ____

>  <TORSDO>
F 7

$$$$
