=
 OpenBabel11052410243D

 36 39  0  0  1  0  0  0  0  0999 V2000
  161.8930  208.0240  150.2450 C   0  0  0  0  0  0  0  0  0  0  0  0
  162.0240  208.4190  148.8940 C   0  0  0  0  0  0  0  0  0  0  0  0
  162.0110  210.3570  150.9150 C   0  0  0  0  0  3  0  0  0  0  0  0
  162.0250  207.4900  147.8620 O   0  0  0  0  0  1  0  0  0  0  0  0
  162.1470  209.7740  148.5740 C   0  0  0  0  0  3  0  0  0  0  0  0
  162.2660  212.0500  149.2610 F   0  0  0  0  0  0  0  0  0  0  0  0
  161.8830  209.0020  151.2510 C   0  0  0  0  0  0  0  0  0  0  0  0
  162.1430  210.7410  149.5800 C   0  0  0  0  0  0  0  0  0  0  0  0
  161.7690  206.6510  150.6410 N   0  0  0  0  0  2  0  0  0  0  0  0
  160.5200  205.9120  150.7730 C   0  0  0  0  0  2  0  0  0  0  0  0
  160.6030  204.5730  150.0360 C   0  0  2  0  0  3  0  0  0  0  0  0
  161.2700  203.4700  150.8530 C   0  0  1  0  0  3  0  0  0  0  0  0
  161.3420  204.7600  148.7970 N   0  0  0  0  0  0  0  0  0  0  0  0
  162.4740  204.3690  146.4640 Cl  0  0  0  0  0  0  0  0  0  0  0  0
  160.9290  203.5450  152.3360 C   0  0  0  0  0  1  0  0  0  0  0  0
  161.1700  202.4940  147.9710 N   0  0  0  0  0  0  0  0  0  0  0  0
  160.8240  202.1840  150.3540 N   0  0  0  0  0  2  0  0  0  0  0  0
  161.6090  203.8620  147.9000 C   0  0  0  0  0  0  0  0  0  0  0  0
  160.8130  201.7610  148.9870 C   0  0  0  0  0  3  0  0  0  0  0  0
  161.7600  208.6030  152.5860 O   0  0  0  0  0  0  0  0  0  0  0  0
  161.7280  209.1330  155.3760 C   0  0  0  0  0  2  0  0  0  0  0  0
  161.3880  206.7570  154.7000 C   0  0  0  0  0  2  0  0  0  0  0  0
  160.2900  207.2290  153.7400 C   0  0  0  0  0  2  0  0  0  0  0  0
  160.5440  208.5920  153.2480 N   0  0  0  0  0  0  0  0  0  0  0  0
  161.4890  207.7150  155.8790 C   0  0  0  0  0  2  0  0  0  0  0  0
  160.6170  209.5190  154.3900 C   0  0  2  0  0  3  0  0  0  0  0  0
  160.7380  210.9710  153.9170 C   0  0  2  0  0  3  0  0  0  0  0  0
  161.4900  211.7280  154.8060 F   0  0  0  0  0  0  0  0  0  0  0  0
  159.3620  211.5920  153.6630 C   0  0  1  0  0  0  0  0  0  0  0  0
  159.1820  212.5090  152.5170 C   0  0  0  0  0  2  0  0  0  0  0  0
  158.7870  211.1530  152.4580 O   0  0  0  0  0  0  0  0  0  0  0  0
  158.7210  211.9890  155.9250 O   0  0  0  0  0  0  0  0  0  0  0  0
  158.3580  211.6550  154.7640 C   0  0  0  0  0  0  0  0  0  0  0  0
  157.0200  211.3620  154.4890 O   0  0  0  0  0  0  0  0  0  0  0  0
  155.1300  210.0400  155.2080 C   0  0  0  0  0  1  0  0  0  0  0  0
  156.0440  211.2170  155.5130 C   0  0  0  0  0  2  0  0  0  0  0  0
  1  9  1  0  0  0  0
  1  7  1  0  0  0  0
  2  1  2  0  0  0  0
  3  7  2  0  0  0  0
  4  2  1  0  0  0  0
  5  2  1  0  0  0  0
  5  8  2  0  0  0  0
  6  8  1  0  0  0  0
  7 20  1  0  0  0  0
  8  3  1  0  0  0  0
  9 10  1  0  0  0  0
 11 10  1  1  0  0  0
 11 12  1  0  0  0  0
 12 15  1  1  0  0  0
 13 11  1  0  0  0  0
 14 18  1  0  0  0  0
 16 19  2  0  0  0  0
 17 12  1  0  0  0  0
 18 16  1  0  0  0  0
 18 13  2  0  0  0  0
 19 17  1  0  0  0  0
 20 24  1  0  0  0  0
 21 25  1  0  0  0  0
 22 25  1  0  0  0  0
 23 22  1  0  0  0  0
 24 23  1  0  0  0  0
 24 26  1  0  0  0  0
 26 27  1  6  0  0  0
 26 21  1  0  0  0  0
 27 28  1  1  0  0  0
 29 27  1  0  0  0  0
 29 33  1  1  0  0  0
 30 29  1  0  0  0  0
 31 30  1  0  0  0  0
 31 29  1  0  0  0  0
 33 32  2  0  0  0  0
 34 33  1  0  0  0  0
 34 36  1  0  0  0  0
 35 36  1  0  0  0  0
M  END
>  <MODEL>
1

>  <REMARK>
 VINA RESULT:      -7.2      0.000      0.000
  Name = 
  10 active torsions:
  status: ('A' for Active; 'I' for Inactive)
    1  A    between atoms: O_2  and  C_27
    2  A    between atoms: O_2  and  C_34
    3  A    between atoms: C_3  and  N_11
    4  A    between atoms: C_5  and  C_25
    5  A    between atoms: C_8  and  C_27
    6  A    between atoms: C_8  and  C_29
    7  A    between atoms: N_11  and  C_25
    8  A    between atoms: N_20  and  O_32
    9  A    between atoms: C_29  and  C_30
   10  A    between atoms: O_32  and  C_33
                            x       y       z     vdW  Elec       q    Type
                         _______ _______ _______ _____ _____    ______ ____

>  <TORSDO>
F 10

$$$$
=
 OpenBabel11052410243D

 36 39  0  0  1  0  0  0  0  0999 V2000
  160.9430  209.3480  151.8540 C   0  0  0  0  0  0  0  0  0  0  0  0
  161.1500  210.7270  151.6280 C   0  0  0  0  0  0  0  0  0  0  0  0
  161.8950  208.8710  149.6700 C   0  0  0  0  0  3  0  0  0  0  0  0
  160.8030  211.6800  152.5780 O   0  0  0  0  0  1  0  0  0  0  0  0
  161.7230  211.1580  150.4290 C   0  0  0  0  0  3  0  0  0  0  0  0
  162.6440  210.6600  148.2900 F   0  0  0  0  0  0  0  0  0  0  0  0
  161.3250  208.4240  150.8700 C   0  0  0  0  0  0  0  0  0  0  0  0
  162.0930  210.2340  149.4510 C   0  0  0  0  0  0  0  0  0  0  0  0
  160.3550  208.8410  153.0600 N   0  0  0  0  0  2  0  0  0  0  0  0
  161.0040  208.7770  154.3630 C   0  0  0  0  0  2  0  0  0  0  0  0
  160.6170  209.9850  155.2200 C   0  0  2  0  0  3  0  0  0  0  0  0
  161.0300  209.8510  156.6830 C   0  0  1  0  0  3  0  0  0  0  0  0
  159.1760  210.1720  155.1490 N   0  0  0  0  0  0  0  0  0  0  0  0
  156.7500  211.1280  155.4320 Cl  0  0  0  0  0  0  0  0  0  0  0  0
  162.3710  209.1470  156.8550 C   0  0  0  0  0  1  0  0  0  0  0  0
  159.0360  212.1460  156.5390 N   0  0  0  0  0  0  0  0  0  0  0  0
  161.1410  211.1760  157.2610 N   0  0  0  0  0  2  0  0  0  0  0  0
  158.4750  211.0970  155.7310 C   0  0  0  0  0  0  0  0  0  0  0  0
  160.1660  212.2200  157.1830 C   0  0  0  0  0  3  0  0  0  0  0  0
  161.1110  207.0600  151.0980 O   0  0  0  0  0  0  0  0  0  0  0  0
  160.4010  204.3150  150.9300 C   0  0  0  0  0  2  0  0  0  0  0  0
  161.3570  205.0760  153.1030 C   0  0  0  0  0  2  0  0  0  0  0  0
  162.5260  205.6940  152.3270 C   0  0  0  0  0  2  0  0  0  0  0  0
  162.1210  206.1210  150.9790 N   0  0  0  0  0  0  0  0  0  0  0  0
  160.8000  203.8860  152.3360 C   0  0  0  0  0  2  0  0  0  0  0  0
  161.6060  204.9610  150.2320 C   0  0  2  0  0  3  0  0  0  0  0  0
  161.3060  205.3300  148.7760 C   0  0  2  0  0  3  0  0  0  0  0  0
  160.0140  205.8230  148.6380 F   0  0  0  0  0  0  0  0  0  0  0  0
  161.5680  204.1510  147.8360 C   0  0  1  0  0  0  0  0  0  0  0  0
  161.5930  202.7780  148.3850 C   0  0  0  0  0  2  0  0  0  0  0  0
  160.4570  203.2970  147.7220 O   0  0  0  0  0  0  0  0  0  0  0  0
  163.4240  204.7700  146.4740 O   0  0  0  0  0  0  0  0  0  0  0  0
  162.2250  204.3810  146.5170 C   0  0  0  0  0  0  0  0  0  0  0  0
  161.5070  204.1420  145.3420 O   0  0  0  0  0  0  0  0  0  0  0  0
  160.2760  206.2180  145.2440 C   0  0  0  0  0  1  0  0  0  0  0  0
  161.0920  205.1890  144.4750 C   0  0  0  0  0  2  0  0  0  0  0  0
  1  9  1  0  0  0  0
  2  1  1  0  0  0  0
  2  4  1  0  0  0  0
  3  7  1  0  0  0  0
  5  2  2  0  0  0  0
  6  8  1  0  0  0  0
  7 20  1  0  0  0  0
  7  1  2  0  0  0  0
  8  3  2  0  0  0  0
  8  5  1  0  0  0  0
  9 10  1  0  0  0  0
 11 10  1  6  0  0  0
 11 12  1  0  0  0  0
 12 15  1  6  0  0  0
 12 17  1  0  0  0  0
 13 11  1  0  0  0  0
 13 18  2  0  0  0  0
 14 18  1  0  0  0  0
 16 19  2  0  0  0  0
 18 16  1  0  0  0  0
 19 17  1  0  0  0  0
 21 25  1  0  0  0  0
 23 22  1  0  0  0  0
 24 20  1  0  0  0  0
 24 23  1  0  0  0  0
 25 22  1  0  0  0  0
 26 27  1  6  0  0  0
 26 21  1  0  0  0  0
 26 24  1  0  0  0  0
 27 28  1  1  0  0  0
 29 33  1  6  0  0  0
 29 30  1  0  0  0  0
 29 27  1  0  0  0  0
 31 29  1  0  0  0  0
 31 30  1  0  0  0  0
 32 33  2  0  0  0  0
 34 33  1  0  0  0  0
 36 35  1  0  0  0  0
 36 34  1  0  0  0  0
M  END
>  <MODEL>
2

>  <REMARK>
 VINA RESULT:      -6.6      3.300      8.304
  Name = 
  10 active torsions:
  status: ('A' for Active; 'I' for Inactive)
    1  A    between atoms: O_2  and  C_27
    2  A    between atoms: O_2  and  C_34
    3  A    between atoms: C_3  and  N_11
    4  A    between atoms: C_5  and  C_25
    5  A    between atoms: C_8  and  C_27
    6  A    between atoms: C_8  and  C_29
    7  A    between atoms: N_11  and  C_25
    8  A    between atoms: N_20  and  O_32
    9  A    between atoms: C_29  and  C_30
   10  A    between atoms: O_32  and  C_33
                            x       y       z     vdW  Elec       q    Type
                         _______ _______ _______ _____ _____    ______ ____

>  <TORSDO>
F 10

$$$$
=
 OpenBabel11052410243D

 36 39  0  0  1  0  0  0  0  0999 V2000
  160.9960  208.8970  152.9040 C   0  0  0  0  0  0  0  0  0  0  0  0
  161.1750  209.7330  154.0300 C   0  0  0  0  0  0  0  0  0  0  0  0
  160.8930  206.9700  154.3810 C   0  0  0  0  0  3  0  0  0  0  0  0
  161.3090  211.1090  153.8990 O   0  0  0  0  0  1  0  0  0  0  0  0
  161.2120  209.1770  155.3110 C   0  0  0  0  0  3  0  0  0  0  0  0
  161.1140  207.2690  156.7320 F   0  0  0  0  0  0  0  0  0  0  0  0
  160.8500  207.5140  153.0900 C   0  0  0  0  0  0  0  0  0  0  0  0
  161.0740  207.8000  155.4880 C   0  0  0  0  0  0  0  0  0  0  0  0
  160.9550  209.4030  151.5630 N   0  0  0  0  0  2  0  0  0  0  0  0
  161.7060  210.5460  151.0600 C   0  0  0  0  0  2  0  0  0  0  0  0
  160.7650  211.5820  150.4400 C   0  0  2  0  0  3  0  0  0  0  0  0
  161.4470  212.4930  149.4240 C   0  0  1  0  0  3  0  0  0  0  0  0
  160.1950  212.3980  151.5020 N   0  0  0  0  0  0  0  0  0  0  0  0
  158.7730  214.1560  152.8300 Cl  0  0  0  0  0  0  0  0  0  0  0  0
  162.4950  211.7660  148.5890 C   0  0  0  0  0  1  0  0  0  0  0  0
  158.7830  213.7900  150.1180 N   0  0  0  0  0  0  0  0  0  0  0  0
  160.4430  213.0230  148.5220 N   0  0  0  0  0  2  0  0  0  0  0  0
  159.3450  213.3700  151.3730 C   0  0  0  0  0  0  0  0  0  0  0  0
  159.2100  213.6430  148.8960 C   0  0  0  0  0  3  0  0  0  0  0  0
  160.6800  206.6920  151.9710 O   0  0  0  0  0  0  0  0  0  0  0  0
  160.2300  204.4910  150.2340 C   0  0  0  0  0  2  0  0  0  0  0  0
  161.4170  203.9880  152.3670 C   0  0  0  0  0  2  0  0  0  0  0  0
  162.3900  205.1280  152.0490 C   0  0  0  0  0  2  0  0  0  0  0  0
  161.7490  206.1860  151.2520 N   0  0  0  0  0  0  0  0  0  0  0  0
  160.8740  203.3960  151.0750 C   0  0  0  0  0  2  0  0  0  0  0  0
  161.2470  205.6150  149.9920 C   0  0  2  0  0  3  0  0  0  0  0  0
  160.6990  206.7070  149.0690 C   0  0  2  0  0  3  0  0  0  0  0  0
  159.4480  206.3640  148.5720 F   0  0  0  0  0  0  0  0  0  0  0  0
  161.6850  207.0350  147.9450 C   0  0  1  0  0  0  0  0  0  0  0  0
  162.4620  208.2920  148.0080 C   0  0  0  0  0  2  0  0  0  0  0  0
  163.0190  207.0500  148.3880 O   0  0  0  0  0  0  0  0  0  0  0  0
  160.5540  206.6240  145.8880 O   0  0  0  0  0  0  0  0  0  0  0  0
  161.5500  206.3700  146.6170 C   0  0  0  0  0  0  0  0  0  0  0  0
  162.5460  205.4870  146.1890 O   0  0  0  0  0  0  0  0  0  0  0  0
  161.5740  203.4110  146.9520 C   0  0  0  0  0  1  0  0  0  0  0  0
  162.2640  204.1460  145.8120 C   0  0  0  0  0  2  0  0  0  0  0  0
  1  7  2  0  0  0  0
  1  2  1  0  0  0  0
  2  5  2  0  0  0  0
  3  8  2  0  0  0  0
  4  2  1  0  0  0  0
  5  8  1  0  0  0  0
  7  3  1  0  0  0  0
  8  6  1  0  0  0  0
  9  1  1  0  0  0  0
 10  9  1  0  0  0  0
 11 10  1  1  0  0  0
 11 13  1  0  0  0  0
 12 15  1  6  0  0  0
 12 11  1  0  0  0  0
 16 18  1  0  0  0  0
 17 19  1  0  0  0  0
 17 12  1  0  0  0  0
 18 13  2  0  0  0  0
 18 14  1  0  0  0  0
 19 16  2  0  0  0  0
 20  7  1  0  0  0  0
 21 25  1  0  0  0  0
 23 22  1  0  0  0  0
 24 20  1  0  0  0  0
 24 23  1  0  0  0  0
 25 22  1  0  0  0  0
 26 27  1  6  0  0  0
 26 21  1  0  0  0  0
 26 24  1  0  0  0  0
 27 28  1  6  0  0  0
 29 33  1  6  0  0  0
 29 30  1  0  0  0  0
 29 31  1  0  0  0  0
 29 27  1  0  0  0  0
 30 31  1  0  0  0  0
 32 33  2  0  0  0  0
 34 33  1  0  0  0  0
 36 34  1  0  0  0  0
 36 35  1  0  0  0  0
M  END
>  <MODEL>
3

>  <REMARK>
 VINA RESULT:      -6.5      3.462      8.191
  Name = 
  10 active torsions:
  status: ('A' for Active; 'I' for Inactive)
    1  A    between atoms: O_2  and  C_27
    2  A    between atoms: O_2  and  C_34
    3  A    between atoms: C_3  and  N_11
    4  A    between atoms: C_5  and  C_25
    5  A    between atoms: C_8  and  C_27
    6  A    between atoms: C_8  and  C_29
    7  A    between atoms: N_11  and  C_25
    8  A    between atoms: N_20  and  O_32
    9  A    between atoms: C_29  and  C_30
   10  A    between atoms: O_32  and  C_33
                            x       y       z     vdW  Elec       q    Type
                         _______ _______ _______ _____ _____    ______ ____

>  <TORSDO>
F 10

$$$$
=
 OpenBabel11052410243D

 36 39  0  0  1  0  0  0  0  0999 V2000
  161.4290  208.4390  150.6410 C   0  0  0  0  0  0  0  0  0  0  0  0
  161.1920  209.0390  151.8980 C   0  0  0  0  0  0  0  0  0  0  0  0
  161.2280  206.2480  151.6750 C   0  0  0  0  0  3  0  0  0  0  0  0
  161.1570  210.4190  152.0500 O   0  0  0  0  0  1  0  0  0  0  0  0
  160.9790  208.2380  153.0240 C   0  0  0  0  0  3  0  0  0  0  0  0
  160.7940  206.0780  154.0090 F   0  0  0  0  0  0  0  0  0  0  0  0
  161.4400  207.0390  150.5370 C   0  0  0  0  0  0  0  0  0  0  0  0
  160.9990  206.8470  152.9140 C   0  0  0  0  0  0  0  0  0  0  0  0
  161.6610  209.2030  149.4500 N   0  0  0  0  0  2  0  0  0  0  0  0
  162.5620  210.3420  149.3300 C   0  0  0  0  0  2  0  0  0  0  0  0
  161.9180  211.4580  148.5040 C   0  0  2  0  0  3  0  0  0  0  0  0
  162.9290  212.4190  147.8850 C   0  0  1  0  0  3  0  0  0  0  0  0
  161.0080  212.2100  149.3540 N   0  0  0  0  0  0  0  0  0  0  0  0
  159.2130  213.9120  150.2250 Cl  0  0  0  0  0  0  0  0  0  0  0  0
  164.2030  211.7190  147.4260 C   0  0  0  0  0  1  0  0  0  0  0  0
  160.2030  213.7580  147.6790 N   0  0  0  0  0  0  0  0  0  0  0  0
  162.3240  213.0540  146.7310 N   0  0  0  0  0  2  0  0  0  0  0  0
  160.2690  213.2210  149.0120 C   0  0  0  0  0  0  0  0  0  0  0  0
  161.0440  213.6900  146.6860 C   0  0  0  0  0  3  0  0  0  0  0  0
  161.6820  206.4530  149.2900 O   0  0  0  0  0  0  0  0  0  0  0  0
  162.3830  204.3210  147.5490 C   0  0  0  0  0  2  0  0  0  0  0  0
  161.8690  206.5070  146.4660 C   0  0  0  0  0  2  0  0  0  0  0  0
  160.5600  206.5480  147.2630 C   0  0  0  0  0  2  0  0  0  0  0  0
  160.6820  205.8460  148.5490 N   0  0  0  0  0  0  0  0  0  0  0  0
  162.2790  205.0610  146.2220 C   0  0  0  0  0  2  0  0  0  0  0  0
  161.0550  204.4420  148.3080 C   0  0  2  0  0  3  0  0  0  0  0  0
  161.0530  203.6380  149.6110 C   0  0  2  0  0  3  0  0  0  0  0  0
  162.2750  203.7380  150.2650 F   0  0  0  0  0  0  0  0  0  0  0  0
  160.6570  202.1790  149.3670 C   0  0  1  0  0  0  0  0  0  0  0  0
  160.3390  201.3120  150.5210 C   0  0  0  0  0  2  0  0  0  0  0  0
  159.3280  201.9140  149.7380 O   0  0  0  0  0  0  0  0  0  0  0  0
  161.9580  200.6790  148.0480 O   0  0  0  0  0  0  0  0  0  0  0  0
  161.0150  201.5150  148.0810 C   0  0  0  0  0  0  0  0  0  0  0  0
  160.2830  201.8140  146.9280 O   0  0  0  0  0  0  0  0  0  0  0  0
  159.7020  201.6380  144.5900 C   0  0  0  0  0  1  0  0  0  0  0  0
  160.8200  201.6570  145.6210 C   0  0  0  0  0  2  0  0  0  0  0  0
  1  2  1  0  0  0  0
  2  4  1  0  0  0  0
  2  5  2  0  0  0  0
  3  8  2  0  0  0  0
  7  1  2  0  0  0  0
  7  3  1  0  0  0  0
  8  5  1  0  0  0  0
  8  6  1  0  0  0  0
  9  1  1  0  0  0  0
 10  9  1  0  0  0  0
 11 10  1  1  0  0  0
 11 13  1  0  0  0  0
 12 15  1  6  0  0  0
 12 11  1  0  0  0  0
 16 18  1  0  0  0  0
 17 12  1  0  0  0  0
 18 13  2  0  0  0  0
 18 14  1  0  0  0  0
 19 17  1  0  0  0  0
 19 16  2  0  0  0  0
 20  7  1  0  0  0  0
 21 26  1  0  0  0  0
 22 23  1  0  0  0  0
 23 24  1  0  0  0  0
 24 20  1  0  0  0  0
 25 22  1  0  0  0  0
 25 21  1  0  0  0  0
 26 24  1  0  0  0  0
 26 27  1  1  0  0  0
 27 28  1  6  0  0  0
 29 33  1  6  0  0  0
 29 27  1  0  0  0  0
 29 31  1  0  0  0  0
 29 30  1  0  0  0  0
 31 30  1  0  0  0  0
 32 33  2  0  0  0  0
 34 33  1  0  0  0  0
 35 36  1  0  0  0  0
 36 34  1  0  0  0  0
M  END
>  <MODEL>
4

>  <REMARK>
 VINA RESULT:      -5.8      4.137      9.047
  Name = 
  10 active torsions:
  status: ('A' for Active; 'I' for Inactive)
    1  A    between atoms: O_2  and  C_27
    2  A    between atoms: O_2  and  C_34
    3  A    between atoms: C_3  and  N_11
    4  A    between atoms: C_5  and  C_25
    5  A    between atoms: C_8  and  C_27
    6  A    between atoms: C_8  and  C_29
    7  A    between atoms: N_11  and  C_25
    8  A    between atoms: N_20  and  O_32
    9  A    between atoms: C_29  and  C_30
   10  A    between atoms: O_32  and  C_33
                            x       y       z     vdW  Elec       q    Type
                         _______ _______ _______ _____ _____    ______ ____

>  <TORSDO>
F 10

$$$$
=
 OpenBabel11052410243D

 36 39  0  0  1  0  0  0  0  0999 V2000
  161.4040  208.9150  151.1760 C   0  0  0  0  0  0  0  0  0  0  0  0
  161.5210  207.9650  150.1370 C   0  0  0  0  0  0  0  0  0  0  0  0
  161.1330  207.1000  152.7700 C   0  0  0  0  0  3  0  0  0  0  0  0
  161.7250  208.3530  148.8180 O   0  0  0  0  0  1  0  0  0  0  0  0
  161.4420  206.6010  150.4260 C   0  0  0  0  0  3  0  0  0  0  0  0
  161.1660  204.8450  152.0110 F   0  0  0  0  0  0  0  0  0  0  0  0
  161.2140  208.4720  152.4950 C   0  0  0  0  0  0  0  0  0  0  0  0
  161.2460  206.1680  151.7390 C   0  0  0  0  0  0  0  0  0  0  0  0
  161.4710  210.3290  150.9450 N   0  0  0  0  0  2  0  0  0  0  0  0
  162.3060  210.9900  149.9520 C   0  0  0  0  0  2  0  0  0  0  0  0
  161.4760  211.9590  149.1040 C   0  0  2  0  0  3  0  0  0  0  0  0
  162.3220  212.8900  148.2410 C   0  0  1  0  0  3  0  0  0  0  0  0
  160.6390  212.7580  149.9860 N   0  0  0  0  0  0  0  0  0  0  0  0
  158.8620  214.4530  150.9060 Cl  0  0  0  0  0  0  0  0  0  0  0  0
  163.5670  212.2110  147.6850 C   0  0  0  0  0  1  0  0  0  0  0  0
  159.5040  214.0410  148.2790 N   0  0  0  0  0  0  0  0  0  0  0  0
  161.5200  213.3440  147.1210 N   0  0  0  0  0  2  0  0  0  0  0  0
  159.7900  213.6770  149.6410 C   0  0  0  0  0  0  0  0  0  0  0  0
  160.2030  213.8980  147.1890 C   0  0  0  0  0  3  0  0  0  0  0  0
  161.0920  209.4180  153.5180 O   0  0  0  0  0  0  0  0  0  0  0  0
  160.9590  211.4580  155.4900 C   0  0  0  0  0  2  0  0  0  0  0  0
  161.9060  209.2720  156.2260 C   0  0  0  0  0  2  0  0  0  0  0  0
  160.6680  208.5840  155.6400 C   0  0  0  0  0  2  0  0  0  0  0  0
  160.1180  209.3300  154.4980 N   0  0  0  0  0  0  0  0  0  0  0  0
  161.5520  210.6870  156.6620 C   0  0  0  0  0  2  0  0  0  0  0  0
  159.7540  210.6890  154.9300 C   0  0  2  0  0  3  0  0  0  0  0  0
  159.0450  211.4550  153.8090 C   0  0  2  0  0  3  0  0  0  0  0  0
  159.9230  212.3040  153.1480 F   0  0  0  0  0  0  0  0  0  0  0  0
  157.8170  212.2030  154.3330 C   0  0  1  0  0  0  0  0  0  0  0  0
  157.8350  213.6810  154.3800 C   0  0  0  0  0  2  0  0  0  0  0  0
  157.1930  212.9750  153.3380 O   0  0  0  0  0  0  0  0  0  0  0  0
  156.0240  210.6700  154.6710 O   0  0  0  0  0  0  0  0  0  0  0  0
  156.8230  211.4960  155.1900 C   0  0  0  0  0  0  0  0  0  0  0  0
  156.8040  211.7430  156.5650 O   0  0  0  0  0  0  0  0  0  0  0  0
  155.2420  213.5410  156.9730 C   0  0  0  0  0  1  0  0  0  0  0  0
  155.6140  212.0940  157.2610 C   0  0  0  0  0  2  0  0  0  0  0  0
  1  7  1  0  0  0  0
  2  5  1  0  0  0  0
  2  1  2  0  0  0  0
  4  2  1  0  0  0  0
  5  8  2  0  0  0  0
  7  3  2  0  0  0  0
  7 20  1  0  0  0  0
  8  6  1  0  0  0  0
  8  3  1  0  0  0  0
  9  1  1  0  0  0  0
 10  9  1  0  0  0  0
 11 10  1  1  0  0  0
 11 13  1  0  0  0  0
 12 15  1  6  0  0  0
 12 11  1  0  0  0  0
 16 18  1  0  0  0  0
 17 19  1  0  0  0  0
 17 12  1  0  0  0  0
 18 13  2  0  0  0  0
 18 14  1  0  0  0  0
 19 16  2  0  0  0  0
 20 24  1  0  0  0  0
 21 25  1  0  0  0  0
 22 25  1  0  0  0  0
 23 22  1  0  0  0  0
 24 26  1  0  0  0  0
 24 23  1  0  0  0  0
 26 27  1  6  0  0  0
 26 21  1  0  0  0  0
 27 28  1  1  0  0  0
 27 29  1  0  0  0  0
 29 30  1  0  0  0  0
 29 33  1  1  0  0  0
 31 29  1  0  0  0  0
 31 30  1  0  0  0  0
 32 33  2  0  0  0  0
 33 34  1  0  0  0  0
 34 36  1  0  0  0  0
 35 36  1  0  0  0  0
M  END
>  <MODEL>
5

>  <REMARK>
 VINA RESULT:      -5.6      3.561      5.888
  Name = 
  10 active torsions:
  status: ('A' for Active; 'I' for Inactive)
    1  A    between atoms: O_2  and  C_27
    2  A    between atoms: O_2  and  C_34
    3  A    between atoms: C_3  and  N_11
    4  A    between atoms: C_5  and  C_25
    5  A    between atoms: C_8  and  C_27
    6  A    between atoms: C_8  and  C_29
    7  A    between atoms: N_11  and  C_25
    8  A    between atoms: N_20  and  O_32
    9  A    between atoms: C_29  and  C_30
   10  A    between atoms: O_32  and  C_33
                            x       y       z     vdW  Elec       q    Type
                         _______ _______ _______ _____ _____    ______ ____

>  <TORSDO>
F 10

$$$$
=
 OpenBabel11052410243D

 36 39  0  0  1  0  0  0  0  0999 V2000
  161.3420  207.8760  150.4270 C   0  0  0  0  0  0  0  0  0  0  0  0
  161.4320  208.2080  149.0560 C   0  0  0  0  0  0  0  0  0  0  0  0
  162.1600  210.0940  150.9920 C   0  0  0  0  0  3  0  0  0  0  0  0
  161.0710  207.3040  148.0640 O   0  0  0  0  0  1  0  0  0  0  0  0
  161.8850  209.4730  148.6730 C   0  0  0  0  0  3  0  0  0  0  0  0
  162.6910  211.6360  149.2590 F   0  0  0  0  0  0  0  0  0  0  0  0
  161.7040  208.8300  151.3910 C   0  0  0  0  0  0  0  0  0  0  0  0
  162.2500  210.4140  149.6370 C   0  0  0  0  0  0  0  0  0  0  0  0
  160.8910  206.5940  150.8850 N   0  0  0  0  0  2  0  0  0  0  0  0
  161.7110  205.3950  151.0030 C   0  0  0  0  0  2  0  0  0  0  0  0
  161.1520  204.2690  150.1290 C   0  0  2  0  0  3  0  0  0  0  0  0
  161.4120  202.8760  150.6930 C   0  0  1  0  0  3  0  0  0  0  0  0
  161.7440  204.3630  148.8030 N   0  0  0  0  0  0  0  0  0  0  0  0
  162.3210  203.9630  146.2760 Cl  0  0  0  0  0  0  0  0  0  0  0  0
  161.3170  202.8270  152.2130 C   0  0  0  0  0  1  0  0  0  0  0  0
  160.5680  202.5080  147.7910 N   0  0  0  0  0  0  0  0  0  0  0  0
  160.4240  201.9620  150.1520 N   0  0  0  0  0  2  0  0  0  0  0  0
  161.5110  203.5940  147.7840 C   0  0  0  0  0  0  0  0  0  0  0  0
  160.0740  201.8100  148.7740 C   0  0  0  0  0  3  0  0  0  0  0  0
  161.6180  208.4920  152.7460 O   0  0  0  0  0  0  0  0  0  0  0  0
  161.6310  209.2090  155.4940 C   0  0  0  0  0  2  0  0  0  0  0  0
  161.3480  206.7850  154.9880 C   0  0  0  0  0  2  0  0  0  0  0  0
  160.2160  207.1590  154.0240 C   0  0  0  0  0  2  0  0  0  0  0  0
  160.4180  208.4920  153.4360 N   0  0  0  0  0  0  0  0  0  0  0  0
  161.4460  207.8230  156.0960 C   0  0  0  0  0  2  0  0  0  0  0  0
  160.4880  209.4960  154.5100 C   0  0  2  0  0  3  0  0  0  0  0  0
  160.5550  210.9150  153.9380 C   0  0  2  0  0  3  0  0  0  0  0  0
  161.7590  211.5300  154.2590 F   0  0  0  0  0  0  0  0  0  0  0  0
  159.3530  211.7530  154.3810 C   0  0  1  0  0  0  0  0  0  0  0  0
  158.6330  211.3900  155.6200 C   0  0  0  0  0  2  0  0  0  0  0  0
  159.5870  212.4320  155.5890 O   0  0  0  0  0  0  0  0  0  0  0  0
  157.3800  212.6590  153.3970 O   0  0  0  0  0  0  0  0  0  0  0  0
  158.6400  212.6120  153.3920 C   0  0  0  0  0  0  0  0  0  0  0  0
  159.3810  213.3720  152.4830 O   0  0  0  0  0  0  0  0  0  0  0  0
  160.2270  214.1330  150.3520 C   0  0  0  0  0  1  0  0  0  0  0  0
  159.3950  213.0940  151.0890 C   0  0  0  0  0  2  0  0  0  0  0  0
  1  9  1  0  0  0  0
  1  7  1  0  0  0  0
  2  1  2  0  0  0  0
  3  7  2  0  0  0  0
  4  2  1  0  0  0  0
  5  2  1  0  0  0  0
  5  8  2  0  0  0  0
  6  8  1  0  0  0  0
  7 20  1  0  0  0  0
  8  3  1  0  0  0  0
  9 10  1  0  0  0  0
 11 12  1  0  0  0  0
 11 10  1  1  0  0  0
 12 15  1  1  0  0  0
 13 11  1  0  0  0  0
 14 18  1  0  0  0  0
 16 19  2  0  0  0  0
 17 12  1  0  0  0  0
 18 16  1  0  0  0  0
 18 13  2  0  0  0  0
 19 17  1  0  0  0  0
 20 24  1  0  0  0  0
 21 25  1  0  0  0  0
 22 25  1  0  0  0  0
 23 22  1  0  0  0  0
 24 23  1  0  0  0  0
 24 26  1  0  0  0  0
 26 27  1  6  0  0  0
 26 21  1  0  0  0  0
 27 28  1  1  0  0  0
 27 29  1  0  0  0  0
 29 33  1  6  0  0  0
 29 31  1  0  0  0  0
 29 30  1  0  0  0  0
 31 30  1  0  0  0  0
 33 32  2  0  0  0  0
 34 33  1  0  0  0  0
 35 36  1  0  0  0  0
 36 34  1  0  0  0  0
M  END
>  <MODEL>
6

>  <REMARK>
 VINA RESULT:      -5.5      1.081      2.101
  Name = 
  10 active torsions:
  status: ('A' for Active; 'I' for Inactive)
    1  A    between atoms: O_2  and  C_27
    2  A    between atoms: O_2  and  C_34
    3  A    between atoms: C_3  and  N_11
    4  A    between atoms: C_5  and  C_25
    5  A    between atoms: C_8  and  C_27
    6  A    between atoms: C_8  and  C_29
    7  A    between atoms: N_11  and  C_25
    8  A    between atoms: N_20  and  O_32
    9  A    between atoms: C_29  and  C_30
   10  A    between atoms: O_32  and  C_33
                            x       y       z     vdW  Elec       q    Type
                         _______ _______ _______ _____ _____    ______ ____

>  <TORSDO>
F 10

$$$$
=
 OpenBabel11052410243D

 36 39  0  0  1  0  0  0  0  0999 V2000
  161.4130  206.7770  151.8340 C   0  0  0  0  0  0  0  0  0  0  0  0
  161.4800  205.5330  152.5010 C   0  0  0  0  0  0  0  0  0  0  0  0
  160.6570  207.8150  153.8980 C   0  0  0  0  0  3  0  0  0  0  0  0
  161.8920  204.3790  151.8470 O   0  0  0  0  0  1  0  0  0  0  0  0
  161.1340  205.4460  153.8520 C   0  0  0  0  0  3  0  0  0  0  0  0
  160.3850  206.4910  155.8570 F   0  0  0  0  0  0  0  0  0  0  0  0
  161.0050  207.9170  152.5440 C   0  0  0  0  0  0  0  0  0  0  0  0
  160.7220  206.5830  154.5490 C   0  0  0  0  0  0  0  0  0  0  0  0
  161.7480  206.9320  150.4490 N   0  0  0  0  0  2  0  0  0  0  0  0
  160.8360  206.7500  149.3260 C   0  0  0  0  0  2  0  0  0  0  0  0
  161.2200  205.5110  148.5120 C   0  0  2  0  0  3  0  0  0  0  0  0
  160.6860  205.5330  147.0830 C   0  0  1  0  0  3  0  0  0  0  0  0
  160.7150  204.3270  149.1900 N   0  0  0  0  0  0  0  0  0  0  0  0
  160.1890  201.8440  149.8500 Cl  0  0  0  0  0  0  0  0  0  0  0  0
  160.7020  206.9280  146.4690 C   0  0  0  0  0  1  0  0  0  0  0  0
  161.5780  202.6780  147.6460 N   0  0  0  0  0  0  0  0  0  0  0  0
  161.5140  204.6710  146.2620 N   0  0  0  0  0  2  0  0  0  0  0  0
  160.8500  203.0920  148.8150 C   0  0  0  0  0  0  0  0  0  0  0  0
  161.8930  203.3240  146.5590 C   0  0  0  0  0  3  0  0  0  0  0  0
  160.9340  209.1440  151.8760 O   0  0  0  0  0  0  0  0  0  0  0  0
  159.9690  211.6880  151.0620 C   0  0  0  0  0  2  0  0  0  0  0  0
  162.0760  210.9100  149.9800 C   0  0  0  0  0  2  0  0  0  0  0  0
  162.6430  210.6300  151.3760 C   0  0  0  0  0  2  0  0  0  0  0  0
  161.5840  210.2770  152.3350 N   0  0  0  0  0  0  0  0  0  0  0  0
  161.0560  212.0370  150.0530 C   0  0  0  0  0  2  0  0  0  0  0  0
  160.6130  211.3800  152.4210 C   0  0  2  0  0  3  0  0  0  0  0  0
  159.5710  211.1160  153.5120 C   0  0  2  0  0  3  0  0  0  0  0  0
  158.2850  211.1110  152.9870 F   0  0  0  0  0  0  0  0  0  0  0  0
  159.7100  212.1080  154.6690 C   0  0  1  0  0  0  0  0  0  0  0  0
  159.2730  213.5080  154.4780 C   0  0  0  0  0  2  0  0  0  0  0  0
  158.4650  212.5580  155.1430 O   0  0  0  0  0  0  0  0  0  0  0  0
  160.3790  212.2020  156.9550 O   0  0  0  0  0  0  0  0  0  0  0  0
  160.6580  211.8250  155.7840 C   0  0  0  0  0  0  0  0  0  0  0  0
  161.8380  211.1240  155.5200 O   0  0  0  0  0  0  0  0  0  0  0  0
  163.5730  210.8960  157.1850 C   0  0  0  0  0  1  0  0  0  0  0  0
  162.4180  210.2260  156.4570 C   0  0  0  0  0  2  0  0  0  0  0  0
  1  2  2  0  0  0  0
  1  7  1  0  0  0  0
  2  5  1  0  0  0  0
  3  8  1  0  0  0  0
  4  2  1  0  0  0  0
  5  8  2  0  0  0  0
  7  3  2  0  0  0  0
  8  6  1  0  0  0  0
  9  1  1  0  0  0  0
 10  9  1  0  0  0  0
 11 13  1  0  0  0  0
 11 10  1  1  0  0  0
 12 15  1  6  0  0  0
 12 11  1  0  0  0  0
 16 18  1  0  0  0  0
 17 19  1  0  0  0  0
 17 12  1  0  0  0  0
 18 13  2  0  0  0  0
 18 14  1  0  0  0  0
 19 16  2  0  0  0  0
 20 24  1  0  0  0  0
 20  7  1  0  0  0  0
 21 26  1  0  0  0  0
 22 25  1  0  0  0  0
 22 23  1  0  0  0  0
 23 24  1  0  0  0  0
 24 26  1  0  0  0  0
 25 21  1  0  0  0  0
 26 27  1  1  0  0  0
 27 28  1  6  0  0  0
 27 29  1  0  0  0  0
 29 31  1  0  0  0  0
 29 33  1  1  0  0  0
 30 29  1  0  0  0  0
 30 31  1  0  0  0  0
 33 32  2  0  0  0  0
 34 33  1  0  0  0  0
 34 36  1  0  0  0  0
 36 35  1  0  0  0  0
M  END
>  <MODEL>
7

>  <REMARK>
 VINA RESULT:      -5.2      2.389      4.452
  Name = 
  10 active torsions:
  status: ('A' for Active; 'I' for Inactive)
    1  A    between atoms: O_2  and  C_27
    2  A    between atoms: O_2  and  C_34
    3  A    between atoms: C_3  and  N_11
    4  A    between atoms: C_5  and  C_25
    5  A    between atoms: C_8  and  C_27
    6  A    between atoms: C_8  and  C_29
    7  A    between atoms: N_11  and  C_25
    8  A    between atoms: N_20  and  O_32
    9  A    between atoms: C_29  and  C_30
   10  A    between atoms: O_32  and  C_33
                            x       y       z     vdW  Elec       q    Type
                         _______ _______ _______ _____ _____    ______ ____

>  <TORSDO>
F 10

$$$$
=
 OpenBabel11052410243D

 36 39  0  0  1  0  0  0  0  0999 V2000
  160.7890  208.3930  153.1740 C   0  0  0  0  0  0  0  0  0  0  0  0
  160.9890  207.1600  153.8340 C   0  0  0  0  0  0  0  0  0  0  0  0
  160.1160  209.3870  155.2870 C   0  0  0  0  0  3  0  0  0  0  0  0
  161.4320  206.0330  153.1510 O   0  0  0  0  0  1  0  0  0  0  0  0
  160.7490  207.0560  155.2070 C   0  0  0  0  0  3  0  0  0  0  0  0
  160.0780  208.0570  157.2610 F   0  0  0  0  0  0  0  0  0  0  0  0
  160.3560  209.5060  153.9110 C   0  0  0  0  0  0  0  0  0  0  0  0
  160.3120  208.1660  155.9320 C   0  0  0  0  0  0  0  0  0  0  0  0
  161.0120  208.5640  151.7680 N   0  0  0  0  0  2  0  0  0  0  0  0
  162.3000  208.4750  151.0920 C   0  0  0  0  0  2  0  0  0  0  0  0
  162.2210  207.5190  149.8990 C   0  0  2  0  0  3  0  0  0  0  0  0
  161.5780  208.1420  148.6630 C   0  0  1  0  0  3  0  0  0  0  0  0
  161.4600  206.3420  150.2870 N   0  0  0  0  0  0  0  0  0  0  0  0
  160.2970  203.9910  150.2890 Cl  0  0  0  0  0  0  0  0  0  0  0  0
  161.9420  209.6110  148.4850 C   0  0  0  0  0  1  0  0  0  0  0  0
  161.6440  205.1340  148.2000 N   0  0  0  0  0  0  0  0  0  0  0  0
  162.0310  207.4220  147.4880 N   0  0  0  0  0  2  0  0  0  0  0  0
  161.1890  205.3060  149.5530 C   0  0  0  0  0  0  0  0  0  0  0  0
  162.0260  206.0030  147.3080 C   0  0  0  0  0  3  0  0  0  0  0  0
  160.1540  210.7220  153.2500 O   0  0  0  0  0  0  0  0  0  0  0  0
  159.6300  213.5010  152.9850 C   0  0  0  0  0  2  0  0  0  0  0  0
  158.5600  212.3560  154.9250 C   0  0  0  0  0  2  0  0  0  0  0  0
  158.0210  211.3000  153.9540 C   0  0  0  0  0  2  0  0  0  0  0  0
  158.9090  211.1210  152.7940 N   0  0  0  0  0  0  0  0  0  0  0  0
  158.7310  213.6840  154.2010 C   0  0  0  0  0  2  0  0  0  0  0  0
  159.0510  212.4020  152.0830 C   0  0  2  0  0  3  0  0  0  0  0  0
  159.8510  212.2300  150.7890 C   0  0  2  0  0  3  0  0  0  0  0  0
  161.1730  211.8950  151.0560 F   0  0  0  0  0  0  0  0  0  0  0  0
  159.7490  213.4720  149.9000 C   0  0  1  0  0  0  0  0  0  0  0  0
  160.8650  214.4410  149.8780 C   0  0  0  0  0  2  0  0  0  0  0  0
  160.6990  213.4710  148.8640 O   0  0  0  0  0  0  0  0  0  0  0  0
  157.5790  214.3940  150.2550 O   0  0  0  0  0  0  0  0  0  0  0  0
  158.4150  213.9410  149.4260 C   0  0  0  0  0  0  0  0  0  0  0  0
  158.1160  213.8930  148.0610 O   0  0  0  0  0  0  0  0  0  0  0  0
  157.0740  212.9750  146.0850 C   0  0  0  0  0  1  0  0  0  0  0  0
  157.7890  212.6810  147.3950 C   0  0  0  0  0  2  0  0  0  0  0  0
  1  2  2  0  0  0  0
  1  7  1  0  0  0  0
  2  5  1  0  0  0  0
  3  8  1  0  0  0  0
  4  2  1  0  0  0  0
  5  8  2  0  0  0  0
  7  3  2  0  0  0  0
  8  6  1  0  0  0  0
  9  1  1  0  0  0  0
 10  9  1  0  0  0  0
 11 13  1  0  0  0  0
 11 10  1  1  0  0  0
 12 15  1  6  0  0  0
 12 11  1  0  0  0  0
 16 18  1  0  0  0  0
 17 12  1  0  0  0  0
 18 13  2  0  0  0  0
 18 14  1  0  0  0  0
 19 17  1  0  0  0  0
 19 16  2  0  0  0  0
 20  7  1  0  0  0  0
 21 25  1  0  0  0  0
 23 22  1  0  0  0  0
 24 20  1  0  0  0  0
 24 23  1  0  0  0  0
 25 22  1  0  0  0  0
 26 27  1  6  0  0  0
 26 24  1  0  0  0  0
 26 21  1  0  0  0  0
 27 28  1  1  0  0  0
 29 33  1  6  0  0  0
 29 27  1  0  0  0  0
 30 29  1  0  0  0  0
 31 30  1  0  0  0  0
 31 29  1  0  0  0  0
 33 32  2  0  0  0  0
 34 33  1  0  0  0  0
 35 36  1  0  0  0  0
 36 34  1  0  0  0  0
M  END
>  <MODEL>
8

>  <REMARK>
 VINA RESULT:      -5.2      2.745      5.345
  Name = 
  10 active torsions:
  status: ('A' for Active; 'I' for Inactive)
    1  A    between atoms: O_2  and  C_27
    2  A    between atoms: O_2  and  C_34
    3  A    between atoms: C_3  and  N_11
    4  A    between atoms: C_5  and  C_25
    5  A    between atoms: C_8  and  C_27
    6  A    between atoms: C_8  and  C_29
    7  A    between atoms: N_11  and  C_25
    8  A    between atoms: N_20  and  O_32
    9  A    between atoms: C_29  and  C_30
   10  A    between atoms: O_32  and  C_33
                            x       y       z     vdW  Elec       q    Type
                         _______ _______ _______ _____ _____    ______ ____

>  <TORSDO>
F 10

$$$$
=
 OpenBabel11052410243D

 36 39  0  0  1  0  0  0  0  0999 V2000
  160.9070  207.5000  153.1320 C   0  0  0  0  0  0  0  0  0  0  0  0
  161.2440  206.2900  153.7790 C   0  0  0  0  0  0  0  0  0  0  0  0
  160.2870  208.4490  155.2820 C   0  0  0  0  0  3  0  0  0  0  0  0
  161.7320  205.1990  153.0710 O   0  0  0  0  0  1  0  0  0  0  0  0
  161.0970  206.1760  155.1640 C   0  0  0  0  0  3  0  0  0  0  0  0
  160.4760  207.1310  157.2550 F   0  0  0  0  0  0  0  0  0  0  0  0
  160.4330  208.5790  153.8940 C   0  0  0  0  0  0  0  0  0  0  0  0
  160.6180  207.2510  155.9140 C   0  0  0  0  0  0  0  0  0  0  0  0
  161.0280  207.6810  151.7150 N   0  0  0  0  0  2  0  0  0  0  0  0
  162.2780  207.7990  150.9750 C   0  0  0  0  0  2  0  0  0  0  0  0
  162.2230  206.9780  149.6830 C   0  0  2  0  0  3  0  0  0  0  0  0
  161.5710  207.7190  148.5200 C   0  0  1  0  0  3  0  0  0  0  0  0
  161.4860  205.7490  149.9360 N   0  0  0  0  0  0  0  0  0  0  0  0
  160.3730  203.3890  149.6740 Cl  0  0  0  0  0  0  0  0  0  0  0  0
  161.9040  209.2070  148.5070 C   0  0  0  0  0  1  0  0  0  0  0  0
  161.7020  204.7830  147.7300 N   0  0  0  0  0  0  0  0  0  0  0  0
  162.0430  207.1430  147.2760 N   0  0  0  0  0  2  0  0  0  0  0  0
  161.2400  204.7950  149.0920 C   0  0  0  0  0  0  0  0  0  0  0  0
  162.0680  205.7530  146.9410 C   0  0  0  0  0  3  0  0  0  0  0  0
  160.0940  209.7720  153.2460 O   0  0  0  0  0  0  0  0  0  0  0  0
  158.6790  212.1920  152.7900 C   0  0  0  0  0  2  0  0  0  0  0  0
  160.4580  211.6260  151.1380 C   0  0  0  0  0  2  0  0  0  0  0  0
  161.4250  211.4240  152.3090 C   0  0  0  0  0  2  0  0  0  0  0  0
  160.7270  210.9720  153.5220 N   0  0  0  0  0  0  0  0  0  0  0  0
  159.3900  212.6410  151.5210 C   0  0  0  0  0  2  0  0  0  0  0  0
  159.7120  211.9680  153.9030 C   0  0  2  0  0  3  0  0  0  0  0  0
  159.0590  211.6090  155.2400 C   0  0  2  0  0  3  0  0  0  0  0  0
  157.8580  210.9370  155.0490 F   0  0  0  0  0  0  0  0  0  0  0  0
  158.8840  212.8440  156.1270 C   0  0  1  0  0  0  0  0  0  0  0  0
  159.8530  213.1000  157.2130 C   0  0  0  0  0  2  0  0  0  0  0  0
  159.9290  213.7700  155.9710 O   0  0  0  0  0  0  0  0  0  0  0  0
  157.2220  214.3590  155.3330 O   0  0  0  0  0  0  0  0  0  0  0  0
  157.5560  213.5180  156.2120 C   0  0  0  0  0  0  0  0  0  0  0  0
  156.6870  213.1900  157.2570 O   0  0  0  0  0  0  0  0  0  0  0  0
  155.0660  211.4420  156.8670 C   0  0  0  0  0  1  0  0  0  0  0  0
  155.3040  212.9340  157.0470 C   0  0  0  0  0  2  0  0  0  0  0  0
  1  2  2  0  0  0  0
  1  7  1  0  0  0  0
  2  5  1  0  0  0  0
  3  8  1  0  0  0  0
  4  2  1  0  0  0  0
  5  8  2  0  0  0  0
  7  3  2  0  0  0  0
  8  6  1  0  0  0  0
  9  1  1  0  0  0  0
 10  9  1  0  0  0  0
 11 13  1  0  0  0  0
 11 10  1  1  0  0  0
 12 15  1  6  0  0  0
 12 11  1  0  0  0  0
 16 18  1  0  0  0  0
 17 12  1  0  0  0  0
 18 14  1  0  0  0  0
 18 13  2  0  0  0  0
 19 17  1  0  0  0  0
 19 16  2  0  0  0  0
 20 24  1  0  0  0  0
 20  7  1  0  0  0  0
 21 26  1  0  0  0  0
 22 25  1  0  0  0  0
 22 23  1  0  0  0  0
 23 24  1  0  0  0  0
 24 26  1  0  0  0  0
 25 21  1  0  0  0  0
 26 27  1  1  0  0  0
 27 28  1  6  0  0  0
 27 29  1  0  0  0  0
 29 33  1  1  0  0  0
 29 30  1  0  0  0  0
 31 29  1  0  0  0  0
 31 30  1  0  0  0  0
 32 33  2  0  0  0  0
 33 34  1  0  0  0  0
 35 36  1  0  0  0  0
 36 34  1  0  0  0  0
M  END
>  <MODEL>
9

>  <REMARK>
 VINA RESULT:      -5.2      2.497      4.524
  Name = 
  10 active torsions:
  status: ('A' for Active; 'I' for Inactive)
    1  A    between atoms: O_2  and  C_27
    2  A    between atoms: O_2  and  C_34
    3  A    between atoms: C_3  and  N_11
    4  A    between atoms: C_5  and  C_25
    5  A    between atoms: C_8  and  C_27
    6  A    between atoms: C_8  and  C_29
    7  A    between atoms: N_11  and  C_25
    8  A    between atoms: N_20  and  O_32
    9  A    between atoms: C_29  and  C_30
   10  A    between atoms: O_32  and  C_33
                            x       y       z     vdW  Elec       q    Type
                         _______ _______ _______ _____ _____    ______ ____

>  <TORSDO>
F 10

$$$$
