=
 OpenBabel11042422403D

 33 35  0  0  1  0  0  0  0  0999 V2000
  160.9640  203.4060  152.1170 O   0  0  0  0  0  1  0  0  0  0  0  0
  161.1480  204.8280  150.1560 C   0  0  0  0  0  0  0  0  0  0  0  0
  160.9480  203.5980  149.3470 C   0  0  0  0  0  3  0  0  0  0  0  0
  161.2010  203.3170  148.0540 C   0  0  0  0  0  0  0  0  0  0  0  0
  161.2940  206.1290  149.6160 C   0  0  0  0  0  0  0  0  0  0  0  0
  161.8430  204.2460  147.0880 C   0  0  0  0  0  0  0  0  0  0  0  0
  161.1240  204.6700  151.5520 C   0  0  0  0  0  0  0  0  0  0  0  0
  161.4480  207.2300  150.4940 C   0  0  0  0  0  0  0  0  0  0  0  0
  161.2620  205.7870  152.3810 C   0  0  0  0  0  0  0  0  0  0  0  0
  162.3230  205.5980  147.4710 C   0  0  0  0  0  2  0  0  0  0  0  0
  161.4130  207.0190  151.8360 N   0  0  0  0  0  0  0  0  0  0  0  0
  162.0190  203.8740  145.8620 N   0  0  0  0  0  2  0  0  0  0  0  0
  161.2060  206.3490  148.1460 C   0  0  0  0  0  2  0  0  0  0  0  0
  162.1260  210.7490  148.9020 C   0  0  0  0  0  0  0  0  0  0  0  0
  161.7840  209.7210  150.8780 C   0  0  0  0  0  3  0  0  0  0  0  0
  161.8820  209.1460  148.4470 S   0  0  0  0  0  0  0  0  0  0  0  0
  162.0450  210.8940  150.2420 N   0  0  0  0  0  0  0  0  0  0  0  0
  161.6360  208.6230  150.0310 C   0  0  0  0  0  0  0  0  0  0  0  0
  162.4290  211.8640  147.9910 C   0  0  0  0  0  0  0  0  0  0  0  0
  163.7480  212.2460  147.7860 O   0  0  0  0  0  1  0  0  0  0  0  0
  161.4600  212.5130  147.3570 C   0  0  0  0  0  2  0  0  0  0  0  0
  160.8370  201.9710  147.5630 C   0  0  0  0  0  3  0  0  0  0  0  0
  161.1820  200.8910  148.1870 N   0  0  0  0  0  2  0  0  0  0  0  0
  161.2180  205.6480  153.8660 C   0  0  0  0  0  2  0  0  0  0  0  0
  161.3810  207.0060  154.5160 C   0  0  0  0  0  2  0  0  0  0  0  0
  160.2720  207.2220  155.5270 C   0  0  0  0  0  2  0  0  0  0  0  0
  159.9910  208.7050  155.6890 C   0  0  0  0  0  2  0  0  0  0  0  0
  160.3290  209.4150  154.4570 N   0  0  0  0  0  2  0  0  0  0  0  0
  160.3840  211.7080  153.7090 C   0  0  0  0  0  1  0  0  0  0  0  0
  162.2900  210.6840  154.6750 O   0  0  0  0  0  1  0  0  0  0  0  0
  160.8940  210.7320  154.7510 C   0  0  2  0  0  0  0  0  0  0  0  0
  159.8250  212.5140  156.0700 N   0  0  0  0  0  1  0  0  0  0  0  0
  160.4540  211.2030  156.1400 C   0  0  0  0  0  2  0  0  0  0  0  0
  2  7  1  0  0  0  0
  3  2  1  0  0  0  0
  4  3  2  0  0  0  0
  5  2  2  0  0  0  0
  5  8  1  0  0  0  0
  6 10  1  0  0  0  0
  6  4  1  0  0  0  0
  7  1  1  0  0  0  0
  7  9  2  0  0  0  0
  8 11  2  0  0  0  0
  9 24  1  0  0  0  0
 10 13  1  0  0  0  0
 11  9  1  0  0  0  0
 12  6  2  0  0  0  0
 13  5  1  0  0  0  0
 14 17  2  0  0  0  0
 16 14  1  0  0  0  0
 16 18  1  0  0  0  0
 17 15  1  0  0  0  0
 18  8  1  0  0  0  0
 18 15  2  0  0  0  0
 19 14  1  0  0  0  0
 20 19  1  0  0  0  0
 21 19  2  0  0  0  0
 22  4  1  0  0  0  0
 22 23  2  0  0  0  0
 24 25  1  0  0  0  0
 25 26  1  0  0  0  0
 26 27  1  0  0  0  0
 28 31  1  0  0  0  0
 28 27  1  0  0  0  0
 30 31  1  0  0  0  0
 31 29  1  6  0  0  0
 31 33  1  0  0  0  0
 32 33  1  0  0  0  0
M  END
>  <MODEL>
1

>  <REMARK>
 VINA RESULT:      -8.3      0.000      0.000
  Name = 
  10 active torsions:
  status: ('A' for Active; 'I' for Inactive)
    1  A    between atoms: C_1  and  C_8
    2  A    between atoms: C_3  and  C_5
    3  A    between atoms: C_9  and  N_17
    4  A    between atoms: C_9  and  C_22
    5  A    between atoms: N_17  and  C_28
    6  A    between atoms: C_18  and  C_33
    7  A    between atoms: C_22  and  C_32
    8  A    between atoms: C_24  and  C_25
    9  A    between atoms: C_24  and  C_32
   10  A    between atoms: C_28  and  C_31
                            x       y       z     vdW  Elec       q    Type
                         _______ _______ _______ _____ _____    ______ ____

>  <TORSDO>
F 10

$$$$
=
 OpenBabel11042422403D

 33 35  0  0  1  0  0  0  0  0999 V2000
  161.8610  206.9430  146.8880 O   0  0  0  0  0  1  0  0  0  0  0  0
  161.4930  205.7080  148.9470 C   0  0  0  0  0  0  0  0  0  0  0  0
  161.5310  204.4750  148.1180 C   0  0  0  0  0  3  0  0  0  0  0  0
  161.1020  203.2190  148.3470 C   0  0  0  0  0  0  0  0  0  0  0  0
  161.3400  205.7240  150.3540 C   0  0  0  0  0  0  0  0  0  0  0  0
  160.3860  202.7720  149.5700 C   0  0  0  0  0  0  0  0  0  0  0  0
  161.6880  206.9240  148.2710 C   0  0  0  0  0  0  0  0  0  0  0  0
  161.3520  206.9640  151.0390 C   0  0  0  0  0  0  0  0  0  0  0  0
  161.7090  208.1230  148.9880 C   0  0  0  0  0  0  0  0  0  0  0  0
  160.0220  203.6980  150.6720 C   0  0  0  0  0  2  0  0  0  0  0  0
  161.5470  208.1090  150.3340 N   0  0  0  0  0  0  0  0  0  0  0  0
  160.0370  201.5320  149.6910 N   0  0  0  0  0  2  0  0  0  0  0  0
  161.2500  204.4470  151.1170 C   0  0  0  0  0  2  0  0  0  0  0  0
  160.9370  207.7340  154.8620 C   0  0  0  0  0  0  0  0  0  0  0  0
  161.4390  206.0760  153.4190 C   0  0  0  0  0  3  0  0  0  0  0  0
  160.7840  208.4880  153.3640 S   0  0  0  0  0  0  0  0  0  0  0  0
  161.2980  206.4400  154.7220 N   0  0  0  0  0  0  0  0  0  0  0  0
  161.1700  207.0910  152.5020 C   0  0  0  0  0  0  0  0  0  0  0  0
  160.7490  208.3770  156.1710 C   0  0  0  0  0  0  0  0  0  0  0  0
  159.7890  209.3700  156.3180 O   0  0  0  0  0  1  0  0  0  0  0  0
  161.4800  208.0220  157.2210 C   0  0  0  0  0  2  0  0  0  0  0  0
  161.3370  202.2130  147.2910 C   0  0  0  0  0  3  0  0  0  0  0  0
  161.1400  202.4670  146.0380 N   0  0  0  0  0  2  0  0  0  0  0  0
  161.9360  209.4250  148.2960 C   0  0  0  0  0  2  0  0  0  0  0  0
  162.0320  210.5410  149.3150 C   0  0  0  0  0  2  0  0  0  0  0  0
  162.3140  211.8520  148.6080 C   0  0  0  0  0  2  0  0  0  0  0  0
  161.1790  212.1910  147.6580 C   0  0  0  0  0  2  0  0  0  0  0  0
  161.7040  212.8700  146.4750 N   0  0  0  0  0  2  0  0  0  0  0  0
  161.2270  214.0080  144.4020 C   0  0  0  0  0  1  0  0  0  0  0  0
  159.8630  214.3170  146.3150 O   0  0  0  0  0  1  0  0  0  0  0  0
  160.6150  213.3580  145.6280 C   0  0  2  0  0  0  0  0  0  0  0  0
  158.3130  212.5280  145.3600 N   0  0  0  0  0  1  0  0  0  0  0  0
  159.7200  212.1970  145.1880 C   0  0  0  0  0  2  0  0  0  0  0  0
  1  7  1  0  0  0  0
  2  5  1  0  0  0  0
  3  4  2  0  0  0  0
  3  2  1  0  0  0  0
  4  6  1  0  0  0  0
  5  8  2  0  0  0  0
  5 13  1  0  0  0  0
  6 12  2  0  0  0  0
  6 10  1  0  0  0  0
  7  2  2  0  0  0  0
  7  9  1  0  0  0  0
  8 18  1  0  0  0  0
  9 11  2  0  0  0  0
 10 13  1  0  0  0  0
 11  8  1  0  0  0  0
 14 19  1  0  0  0  0
 15 17  1  0  0  0  0
 16 14  1  0  0  0  0
 17 14  2  0  0  0  0
 18 16  1  0  0  0  0
 18 15  2  0  0  0  0
 19 20  1  0  0  0  0
 19 21  2  0  0  0  0
 22  4  1  0  0  0  0
 23 22  2  0  0  0  0
 24  9  1  0  0  0  0
 24 25  1  0  0  0  0
 26 25  1  0  0  0  0
 27 26  1  0  0  0  0
 28 27  1  0  0  0  0
 31 29  1  6  0  0  0
 31 30  1  0  0  0  0
 31 28  1  0  0  0  0
 33 32  1  0  0  0  0
 33 31  1  0  0  0  0
M  END
>  <MODEL>
2

>  <REMARK>
 VINA RESULT:      -7.3      2.573      6.558
  Name = 
  10 active torsions:
  status: ('A' for Active; 'I' for Inactive)
    1  A    between atoms: C_1  and  C_8
    2  A    between atoms: C_3  and  C_5
    3  A    between atoms: C_9  and  N_17
    4  A    between atoms: C_9  and  C_22
    5  A    between atoms: N_17  and  C_28
    6  A    between atoms: C_18  and  C_33
    7  A    between atoms: C_22  and  C_32
    8  A    between atoms: C_24  and  C_25
    9  A    between atoms: C_24  and  C_32
   10  A    between atoms: C_28  and  C_31
                            x       y       z     vdW  Elec       q    Type
                         _______ _______ _______ _____ _____    ______ ____

>  <TORSDO>
F 10

$$$$
=
 OpenBabel11042422403D

 33 35  0  0  1  0  0  0  0  0999 V2000
  161.6300  210.9860  151.7610 O   0  0  0  0  0  1  0  0  0  0  0  0
  161.3620  208.6310  151.2330 C   0  0  0  0  0  0  0  0  0  0  0  0
  160.9810  208.4390  152.6560 C   0  0  0  0  0  3  0  0  0  0  0  0
  160.9300  207.3430  153.4380 C   0  0  0  0  0  0  0  0  0  0  0  0
  161.3820  207.6000  150.2620 C   0  0  0  0  0  0  0  0  0  0  0  0
  161.3350  205.9770  153.0190 C   0  0  0  0  0  0  0  0  0  0  0  0
  161.6580  209.9460  150.8350 C   0  0  0  0  0  0  0  0  0  0  0  0
  161.7330  207.9140  148.9260 C   0  0  0  0  0  0  0  0  0  0  0  0
  161.9830  210.2120  149.5030 C   0  0  0  0  0  0  0  0  0  0  0  0
  161.8910  205.6800  151.6740 C   0  0  0  0  0  2  0  0  0  0  0  0
  162.0070  209.2040  148.5970 N   0  0  0  0  0  0  0  0  0  0  0  0
  161.2250  204.9920  153.8510 N   0  0  0  0  0  2  0  0  0  0  0  0
  160.9590  206.2180  150.6210 C   0  0  0  0  0  2  0  0  0  0  0  0
  161.5000  205.2340  146.0730 C   0  0  0  0  0  0  0  0  0  0  0  0
  162.8960  206.0560  147.6390 C   0  0  0  0  0  3  0  0  0  0  0  0
  160.5860  206.4610  146.7750 S   0  0  0  0  0  0  0  0  0  0  0  0
  162.7180  205.1400  146.6500 N   0  0  0  0  0  0  0  0  0  0  0  0
  161.8120  206.9070  147.8440 C   0  0  0  0  0  0  0  0  0  0  0  0
  161.0520  204.3360  144.9970 C   0  0  0  0  0  0  0  0  0  0  0  0
  160.7860  204.8530  143.7360 O   0  0  0  0  0  1  0  0  0  0  0  0
  160.8990  203.0350  145.2090 C   0  0  0  0  0  2  0  0  0  0  0  0
  160.4620  207.5170  154.8290 C   0  0  0  0  0  3  0  0  0  0  0  0
  161.2520  207.8960  155.7820 N   0  0  0  0  0  2  0  0  0  0  0  0
  162.2800  211.6030  149.0510 C   0  0  0  0  0  2  0  0  0  0  0  0
  161.5170  211.9060  147.7790 C   0  0  0  0  0  2  0  0  0  0  0  0
  162.0610  213.1740  147.1500 C   0  0  0  0  0  2  0  0  0  0  0  0
  161.0910  213.7010  146.1080 C   0  0  0  0  0  2  0  0  0  0  0  0
  161.4540  213.1930  144.7860 N   0  0  0  0  0  2  0  0  0  0  0  0
  159.4920  213.9800  143.6220 C   0  0  0  0  0  1  0  0  0  0  0  0
  159.4510  211.9740  144.8830 O   0  0  0  0  0  1  0  0  0  0  0  0
  160.2680  212.7500  144.0530 C   0  0  2  0  0  0  0  0  0  0  0  0
  162.0700  212.1880  142.4740 N   0  0  0  0  0  1  0  0  0  0  0  0
  160.6740  211.9510  142.8120 C   0  0  0  0  0  2  0  0  0  0  0  0
  2  3  1  0  0  0  0
  3  4  2  0  0  0  0
  4 22  1  0  0  0  0
  5 13  1  0  0  0  0
  5  2  2  0  0  0  0
  6  4  1  0  0  0  0
  6 12  2  0  0  0  0
  7  2  1  0  0  0  0
  7  1  1  0  0  0  0
  8  5  1  0  0  0  0
  9  7  2  0  0  0  0
 10  6  1  0  0  0  0
 11  8  2  0  0  0  0
 11  9  1  0  0  0  0
 13 10  1  0  0  0  0
 14 17  2  0  0  0  0
 14 16  1  0  0  0  0
 15 18  2  0  0  0  0
 16 18  1  0  0  0  0
 17 15  1  0  0  0  0
 18  8  1  0  0  0  0
 19 21  2  0  0  0  0
 19 14  1  0  0  0  0
 20 19  1  0  0  0  0
 22 23  2  0  0  0  0
 24  9  1  0  0  0  0
 25 24  1  0  0  0  0
 26 25  1  0  0  0  0
 27 26  1  0  0  0  0
 28 27  1  0  0  0  0
 31 29  1  6  0  0  0
 31 28  1  0  0  0  0
 31 30  1  0  0  0  0
 32 33  1  0  0  0  0
 33 31  1  0  0  0  0
M  END
>  <MODEL>
3

>  <REMARK>
 VINA RESULT:      -7.1      3.146      7.954
  Name = 
  10 active torsions:
  status: ('A' for Active; 'I' for Inactive)
    1  A    between atoms: C_1  and  C_8
    2  A    between atoms: C_3  and  C_5
    3  A    between atoms: C_9  and  N_17
    4  A    between atoms: C_9  and  C_22
    5  A    between atoms: N_17  and  C_28
    6  A    between atoms: C_18  and  C_33
    7  A    between atoms: C_22  and  C_32
    8  A    between atoms: C_24  and  C_25
    9  A    between atoms: C_24  and  C_32
   10  A    between atoms: C_28  and  C_31
                            x       y       z     vdW  Elec       q    Type
                         _______ _______ _______ _____ _____    ______ ____

>  <TORSDO>
F 10

$$$$
=
 OpenBabel11042422403D

 33 35  0  0  1  0  0  0  0  0999 V2000
  161.6870  210.9770  151.6510 O   0  0  0  0  0  1  0  0  0  0  0  0
  161.3890  208.6140  151.1770 C   0  0  0  0  0  0  0  0  0  0  0  0
  161.0190  208.4580  152.6080 C   0  0  0  0  0  3  0  0  0  0  0  0
  160.9630  207.3810  153.4140 C   0  0  0  0  0  0  0  0  0  0  0  0
  161.3890  207.5620  150.2290 C   0  0  0  0  0  0  0  0  0  0  0  0
  161.3500  206.0010  153.0210 C   0  0  0  0  0  0  0  0  0  0  0  0
  161.6960  209.9160  150.7470 C   0  0  0  0  0  0  0  0  0  0  0  0
  161.7320  207.8420  148.8830 C   0  0  0  0  0  0  0  0  0  0  0  0
  162.0120  210.1500  149.4070 C   0  0  0  0  0  0  0  0  0  0  0  0
  161.8900  205.6680  151.6790 C   0  0  0  0  0  2  0  0  0  0  0  0
  162.0170  209.1220  148.5230 N   0  0  0  0  0  0  0  0  0  0  0  0
  161.2370  205.0360  153.8760 N   0  0  0  0  0  2  0  0  0  0  0  0
  160.9550  206.1930  150.6220 C   0  0  0  0  0  2  0  0  0  0  0  0
  161.4510  205.0600  146.1340 C   0  0  0  0  0  0  0  0  0  0  0  0
  162.9200  206.0500  147.5280 C   0  0  0  0  0  3  0  0  0  0  0  0
  160.5080  206.2270  146.8980 S   0  0  0  0  0  0  0  0  0  0  0  0
  162.7240  205.0900  146.5840 N   0  0  0  0  0  0  0  0  0  0  0  0
  161.7910  206.8110  147.8240 C   0  0  0  0  0  0  0  0  0  0  0  0
  160.9780  204.0930  145.1320 C   0  0  0  0  0  0  0  0  0  0  0  0
  160.4050  204.5490  143.9520 O   0  0  0  0  0  1  0  0  0  0  0  0
  161.0920  202.7860  145.3340 C   0  0  0  0  0  2  0  0  0  0  0  0
  160.5100  207.5900  154.8050 C   0  0  0  0  0  3  0  0  0  0  0  0
  160.8960  208.6020  155.5130 N   0  0  0  0  0  2  0  0  0  0  0  0
  162.3200  211.5270  148.9220 C   0  0  0  0  0  2  0  0  0  0  0  0
  161.2000  212.0220  148.0300 C   0  0  0  0  0  2  0  0  0  0  0  0
  160.9570  213.4960  148.2920 C   0  0  0  0  0  2  0  0  0  0  0  0
  159.5150  213.7240  148.7060 C   0  0  0  0  0  2  0  0  0  0  0  0
  158.7390  214.2100  147.5670 N   0  0  0  0  0  2  0  0  0  0  0  0
  157.5100  212.3290  146.6870 C   0  0  0  0  0  1  0  0  0  0  0  0
  156.4890  214.4520  146.9440 O   0  0  0  0  0  1  0  0  0  0  0  0
  157.4160  213.5850  147.5320 C   0  0  2  0  0  0  0  0  0  0  0  0
  156.0810  214.2210  149.5000 N   0  0  0  0  0  1  0  0  0  0  0  0
  156.9660  213.2070  148.9450 C   0  0  0  0  0  2  0  0  0  0  0  0
  2  3  1  0  0  0  0
  3  4  2  0  0  0  0
  4 22  1  0  0  0  0
  5 13  1  0  0  0  0
  5  2  2  0  0  0  0
  6  4  1  0  0  0  0
  6 12  2  0  0  0  0
  7  2  1  0  0  0  0
  7  1  1  0  0  0  0
  8  5  1  0  0  0  0
  9  7  2  0  0  0  0
 10  6  1  0  0  0  0
 11  8  2  0  0  0  0
 11  9  1  0  0  0  0
 13 10  1  0  0  0  0
 14 17  2  0  0  0  0
 14 16  1  0  0  0  0
 15 18  2  0  0  0  0
 16 18  1  0  0  0  0
 17 15  1  0  0  0  0
 18  8  1  0  0  0  0
 19 21  2  0  0  0  0
 19 14  1  0  0  0  0
 20 19  1  0  0  0  0
 22 23  2  0  0  0  0
 24  9  1  0  0  0  0
 25 26  1  0  0  0  0
 25 24  1  0  0  0  0
 26 27  1  0  0  0  0
 28 27  1  0  0  0  0
 30 31  1  0  0  0  0
 31 29  1  6  0  0  0
 31 28  1  0  0  0  0
 31 33  1  0  0  0  0
 33 32  1  0  0  0  0
M  END
>  <MODEL>
4

>  <REMARK>
 VINA RESULT:      -6.9      3.204      7.135
  Name = 
  10 active torsions:
  status: ('A' for Active; 'I' for Inactive)
    1  A    between atoms: C_1  and  C_8
    2  A    between atoms: C_3  and  C_5
    3  A    between atoms: C_9  and  N_17
    4  A    between atoms: C_9  and  C_22
    5  A    between atoms: N_17  and  C_28
    6  A    between atoms: C_18  and  C_33
    7  A    between atoms: C_22  and  C_32
    8  A    between atoms: C_24  and  C_25
    9  A    between atoms: C_24  and  C_32
   10  A    between atoms: C_28  and  C_31
                            x       y       z     vdW  Elec       q    Type
                         _______ _______ _______ _____ _____    ______ ____

>  <TORSDO>
F 10

$$$$
=
 OpenBabel11042422403D

 33 35  0  0  1  0  0  0  0  0999 V2000
  161.7580  210.6680  151.4490 O   0  0  0  0  0  1  0  0  0  0  0  0
  161.1790  208.6120  152.6050 C   0  0  0  0  0  0  0  0  0  0  0  0
  160.8680  209.4610  153.7850 C   0  0  0  0  0  3  0  0  0  0  0  0
  160.7360  209.1740  155.0950 C   0  0  0  0  0  0  0  0  0  0  0  0
  161.0140  207.2070  152.5620 C   0  0  0  0  0  0  0  0  0  0  0  0
  160.9480  207.8330  155.6990 C   0  0  0  0  0  0  0  0  0  0  0  0
  161.6040  209.2830  151.4460 C   0  0  0  0  0  0  0  0  0  0  0  0
  161.3160  206.5100  151.3660 C   0  0  0  0  0  0  0  0  0  0  0  0
  161.8740  208.5580  150.2830 C   0  0  0  0  0  0  0  0  0  0  0  0
  161.3790  206.6530  154.9080 C   0  0  0  0  0  2  0  0  0  0  0  0
  161.7200  207.2110  150.2740 N   0  0  0  0  0  0  0  0  0  0  0  0
  160.7740  207.6690  156.9700 N   0  0  0  0  0  2  0  0  0  0  0  0
  160.4530  206.4770  153.7330 C   0  0  0  0  0  2  0  0  0  0  0  0
  160.8330  202.6930  150.6060 C   0  0  0  0  0  0  0  0  0  0  0  0
  161.1310  204.1530  152.2980 C   0  0  0  0  0  3  0  0  0  0  0  0
  160.9780  204.1670  149.8030 S   0  0  0  0  0  0  0  0  0  0  0  0
  160.9340  202.8550  151.9430 N   0  0  0  0  0  0  0  0  0  0  0  0
  161.2060  205.0410  151.2270 C   0  0  0  0  0  0  0  0  0  0  0  0
  160.5890  201.3890  149.9710 C   0  0  0  0  0  0  0  0  0  0  0  0
  159.4830  200.6370  150.3480 O   0  0  0  0  0  1  0  0  0  0  0  0
  161.4070  200.9160  149.0390 C   0  0  0  0  0  2  0  0  0  0  0  0
  160.3810  210.2810  156.0050 C   0  0  0  0  0  3  0  0  0  0  0  0
  159.1570  210.6610  156.1880 N   0  0  0  0  0  2  0  0  0  0  0  0
  162.3060  209.2490  149.0330 C   0  0  0  0  0  2  0  0  0  0  0  0
  162.7010  208.2260  147.9880 C   0  0  0  0  0  2  0  0  0  0  0  0
  161.4640  207.5070  147.4880 C   0  0  0  0  0  2  0  0  0  0  0  0
  161.8400  206.1540  146.9110 C   0  0  0  0  0  2  0  0  0  0  0  0
  160.8180  205.7130  145.9650 N   0  0  0  0  0  2  0  0  0  0  0  0
  162.7260  204.3070  145.5110 C   0  0  0  0  0  1  0  0  0  0  0  0
  161.5590  205.3980  143.7600 O   0  0  0  0  0  1  0  0  0  0  0  0
  161.3760  204.7680  144.9970 C   0  0  2  0  0  0  0  0  0  0  0  0
  160.9750  202.4090  145.5750 N   0  0  0  0  0  1  0  0  0  0  0  0
  160.4550  203.5550  144.8430 C   0  0  0  0  0  2  0  0  0  0  0  0
  2  3  1  0  0  0  0
  3  4  2  0  0  0  0
  4  6  1  0  0  0  0
  4 22  1  0  0  0  0
  5  2  1  0  0  0  0
  5 13  1  0  0  0  0
  6 12  2  0  0  0  0
  7  1  1  0  0  0  0
  7  2  2  0  0  0  0
  8  5  2  0  0  0  0
  9  7  1  0  0  0  0
 10  6  1  0  0  0  0
 11  9  2  0  0  0  0
 11  8  1  0  0  0  0
 13 10  1  0  0  0  0
 14 17  2  0  0  0  0
 16 14  1  0  0  0  0
 16 18  1  0  0  0  0
 17 15  1  0  0  0  0
 18  8  1  0  0  0  0
 18 15  2  0  0  0  0
 19 20  1  0  0  0  0
 19 14  1  0  0  0  0
 21 19  2  0  0  0  0
 22 23  2  0  0  0  0
 24  9  1  0  0  0  0
 25 24  1  0  0  0  0
 26 25  1  0  0  0  0
 27 26  1  0  0  0  0
 28 27  1  0  0  0  0
 30 31  1  0  0  0  0
 31 29  1  1  0  0  0
 31 28  1  0  0  0  0
 33 31  1  0  0  0  0
 33 32  1  0  0  0  0
M  END
>  <MODEL>
5

>  <REMARK>
 VINA RESULT:      -6.6      2.550      8.938
  Name = 
  10 active torsions:
  status: ('A' for Active; 'I' for Inactive)
    1  A    between atoms: C_1  and  C_8
    2  A    between atoms: C_3  and  C_5
    3  A    between atoms: C_9  and  N_17
    4  A    between atoms: C_9  and  C_22
    5  A    between atoms: N_17  and  C_28
    6  A    between atoms: C_18  and  C_33
    7  A    between atoms: C_22  and  C_32
    8  A    between atoms: C_24  and  C_25
    9  A    between atoms: C_24  and  C_32
   10  A    between atoms: C_28  and  C_31
                            x       y       z     vdW  Elec       q    Type
                         _______ _______ _______ _____ _____    ______ ____

>  <TORSDO>
F 10

$$$$
=
 OpenBabel11042422403D

 33 35  0  0  1  0  0  0  0  0999 V2000
  161.6230  206.6080  151.7910 O   0  0  0  0  0  1  0  0  0  0  0  0
  161.4410  209.0250  151.6280 C   0  0  0  0  0  0  0  0  0  0  0  0
  161.1300  209.0170  153.0810 C   0  0  0  0  0  3  0  0  0  0  0  0
  160.5550  209.9310  153.8870 C   0  0  0  0  0  0  0  0  0  0  0  0
  161.5500  210.1940  150.8380 C   0  0  0  0  0  0  0  0  0  0  0  0
  160.0100  211.2380  153.4410 C   0  0  0  0  0  0  0  0  0  0  0  0
  161.7030  207.7780  151.0370 C   0  0  0  0  0  0  0  0  0  0  0  0
  161.8830  210.0750  149.4660 C   0  0  0  0  0  0  0  0  0  0  0  0
  162.0450  207.7080  149.6840 C   0  0  0  0  0  0  0  0  0  0  0  0
  160.0050  211.6640  152.0180 C   0  0  0  0  0  2  0  0  0  0  0  0
  162.1290  208.8430  148.9470 N   0  0  0  0  0  0  0  0  0  0  0  0
  159.4950  212.0480  154.3080 N   0  0  0  0  0  2  0  0  0  0  0  0
  161.3960  211.5410  151.4570 C   0  0  0  0  0  2  0  0  0  0  0  0
  161.8130  212.9790  146.8310 C   0  0  0  0  0  0  0  0  0  0  0  0
  163.1830  211.8910  148.2520 C   0  0  0  0  0  3  0  0  0  0  0  0
  160.7810  211.8670  147.5610 S   0  0  0  0  0  0  0  0  0  0  0  0
  163.0720  212.8630  147.3080 N   0  0  0  0  0  0  0  0  0  0  0  0
  161.9920  211.2310  148.5480 C   0  0  0  0  0  0  0  0  0  0  0  0
  161.4390  213.9370  145.7800 C   0  0  0  0  0  0  0  0  0  0  0  0
  162.4120  214.4310  144.9200 O   0  0  0  0  0  1  0  0  0  0  0  0
  160.1820  214.3390  145.6350 C   0  0  0  0  0  2  0  0  0  0  0  0
  160.4310  209.5970  155.3210 C   0  0  0  0  0  3  0  0  0  0  0  0
  160.0210  208.4380  155.7280 N   0  0  0  0  0  2  0  0  0  0  0  0
  162.3480  206.3980  149.0380 C   0  0  0  0  0  2  0  0  0  0  0  0
  161.1200  205.8800  148.3190 C   0  0  0  0  0  2  0  0  0  0  0  0
  161.5380  204.9040  147.2370 C   0  0  0  0  0  2  0  0  0  0  0  0
  161.5860  203.4920  147.7940 C   0  0  0  0  0  2  0  0  0  0  0  0
  160.7080  203.3850  148.9570 N   0  0  0  0  0  2  0  0  0  0  0  0
  161.5020  201.1470  148.5250 C   0  0  0  0  0  1  0  0  0  0  0  0
  159.3170  201.5380  149.3570 O   0  0  0  0  0  1  0  0  0  0  0  0
  160.6350  202.0020  149.4300 C   0  0  2  0  0  0  0  0  0  0  0  0
  161.3570  203.2210  151.4430 N   0  0  0  0  0  1  0  0  0  0  0  0
  161.1540  201.9000  150.8660 C   0  0  0  0  0  2  0  0  0  0  0  0
  2  3  1  0  0  0  0
  3  4  2  0  0  0  0
  4 22  1  0  0  0  0
  5 13  1  0  0  0  0
  5  2  2  0  0  0  0
  6  4  1  0  0  0  0
  6 12  2  0  0  0  0
  7  2  1  0  0  0  0
  7  1  1  0  0  0  0
  8  5  1  0  0  0  0
  9  7  2  0  0  0  0
 10  6  1  0  0  0  0
 11  8  2  0  0  0  0
 11  9  1  0  0  0  0
 13 10  1  0  0  0  0
 14 17  2  0  0  0  0
 14 16  1  0  0  0  0
 15 18  2  0  0  0  0
 16 18  1  0  0  0  0
 17 15  1  0  0  0  0
 18  8  1  0  0  0  0
 19 14  1  0  0  0  0
 20 19  1  0  0  0  0
 21 19  2  0  0  0  0
 22 23  2  0  0  0  0
 24  9  1  0  0  0  0
 25 24  1  0  0  0  0
 26 27  1  0  0  0  0
 26 25  1  0  0  0  0
 27 28  1  0  0  0  0
 28 31  1  0  0  0  0
 30 31  1  0  0  0  0
 31 29  1  6  0  0  0
 31 33  1  0  0  0  0
 33 32  1  0  0  0  0
M  END
>  <MODEL>
6

>  <REMARK>
 VINA RESULT:      -6.5      2.229      7.308
  Name = 
  10 active torsions:
  status: ('A' for Active; 'I' for Inactive)
    1  A    between atoms: C_1  and  C_8
    2  A    between atoms: C_3  and  C_5
    3  A    between atoms: C_9  and  N_17
    4  A    between atoms: C_9  and  C_22
    5  A    between atoms: N_17  and  C_28
    6  A    between atoms: C_18  and  C_33
    7  A    between atoms: C_22  and  C_32
    8  A    between atoms: C_24  and  C_25
    9  A    between atoms: C_24  and  C_32
   10  A    between atoms: C_28  and  C_31
                            x       y       z     vdW  Elec       q    Type
                         _______ _______ _______ _____ _____    ______ ____

>  <TORSDO>
F 10

$$$$
=
 OpenBabel11042422403D

 33 35  0  0  1  0  0  0  0  0999 V2000
  161.0440  207.9230  153.2490 O   0  0  0  0  0  1  0  0  0  0  0  0
  160.6880  210.1600  152.3720 C   0  0  0  0  0  0  0  0  0  0  0  0
  160.0030  210.4650  153.6550 C   0  0  0  0  0  3  0  0  0  0  0  0
  159.1510  211.4450  154.0130 C   0  0  0  0  0  0  0  0  0  0  0  0
  160.8940  211.0960  151.3300 C   0  0  0  0  0  0  0  0  0  0  0  0
  158.6250  212.4940  153.1010 C   0  0  0  0  0  0  0  0  0  0  0  0
  161.2130  208.8640  152.2350 C   0  0  0  0  0  0  0  0  0  0  0  0
  161.5910  210.6940  150.1650 C   0  0  0  0  0  0  0  0  0  0  0  0
  161.9080  208.5140  151.0750 C   0  0  0  0  0  0  0  0  0  0  0  0
  158.9600  212.5440  151.6560 C   0  0  0  0  0  2  0  0  0  0  0  0
  162.0800  209.4280  150.0880 N   0  0  0  0  0  0  0  0  0  0  0  0
  157.8240  213.4000  153.5610 N   0  0  0  0  0  2  0  0  0  0  0  0
  160.4560  212.5110  151.4910 C   0  0  0  0  0  2  0  0  0  0  0  0
  161.8270  212.9470  146.9630 C   0  0  0  0  0  0  0  0  0  0  0  0
  163.0940  211.8820  148.4940 C   0  0  0  0  0  3  0  0  0  0  0  0
  160.6760  212.2710  147.9910 S   0  0  0  0  0  0  0  0  0  0  0  0
  163.0800  212.6440  147.3680 N   0  0  0  0  0  0  0  0  0  0  0  0
  161.8330  211.5860  149.0090 C   0  0  0  0  0  0  0  0  0  0  0  0
  161.5430  213.7350  145.7550 C   0  0  0  0  0  0  0  0  0  0  0  0
  162.5450  213.9400  144.8160 O   0  0  0  0  0  1  0  0  0  0  0  0
  160.3400  214.2540  145.5420 C   0  0  0  0  0  2  0  0  0  0  0  0
  158.6800  211.4640  155.4140 C   0  0  0  0  0  3  0  0  0  0  0  0
  159.4950  211.4100  156.4180 N   0  0  0  0  0  2  0  0  0  0  0  0
  162.4940  207.1520  150.9140 C   0  0  0  0  0  2  0  0  0  0  0  0
  161.3880  206.1350  150.7200 C   0  0  0  0  0  2  0  0  0  0  0  0
  160.7460  206.3360  149.3610 C   0  0  0  0  0  2  0  0  0  0  0  0
  161.2090  205.2590  148.3970 C   0  0  0  0  0  2  0  0  0  0  0  0
  161.8080  205.8720  147.2140 N   0  0  0  0  0  2  0  0  0  0  0  0
  161.5330  203.5410  146.6550 C   0  0  0  0  0  1  0  0  0  0  0  0
  163.5280  204.7040  146.1260 O   0  0  0  0  0  1  0  0  0  0  0  0
  162.1410  204.8580  146.2130 C   0  0  2  0  0  0  0  0  0  0  0  0
  160.4550  206.1770  144.9960 N   0  0  0  0  0  1  0  0  0  0  0  0
  161.5640  205.2450  144.8480 C   0  0  0  0  0  2  0  0  0  0  0  0
  2  3  1  0  0  0  0
  3  4  2  0  0  0  0
  4 22  1  0  0  0  0
  5 13  1  0  0  0  0
  5  2  2  0  0  0  0
  6 12  2  0  0  0  0
  6  4  1  0  0  0  0
  7  2  1  0  0  0  0
  7  1  1  0  0  0  0
  8  5  1  0  0  0  0
  9  7  2  0  0  0  0
 10  6  1  0  0  0  0
 11  8  2  0  0  0  0
 11  9  1  0  0  0  0
 13 10  1  0  0  0  0
 14 17  2  0  0  0  0
 14 16  1  0  0  0  0
 15 18  2  0  0  0  0
 16 18  1  0  0  0  0
 17 15  1  0  0  0  0
 18  8  1  0  0  0  0
 19 14  1  0  0  0  0
 20 19  1  0  0  0  0
 21 19  2  0  0  0  0
 22 23  2  0  0  0  0
 24  9  1  0  0  0  0
 25 24  1  0  0  0  0
 26 25  1  0  0  0  0
 27 26  1  0  0  0  0
 28 27  1  0  0  0  0
 30 31  1  0  0  0  0
 31 29  1  1  0  0  0
 31 28  1  0  0  0  0
 33 32  1  0  0  0  0
 33 31  1  0  0  0  0
M  END
>  <MODEL>
7

>  <REMARK>
 VINA RESULT:      -6.5      2.378      7.786
  Name = 
  10 active torsions:
  status: ('A' for Active; 'I' for Inactive)
    1  A    between atoms: C_1  and  C_8
    2  A    between atoms: C_3  and  C_5
    3  A    between atoms: C_9  and  N_17
    4  A    between atoms: C_9  and  C_22
    5  A    between atoms: N_17  and  C_28
    6  A    between atoms: C_18  and  C_33
    7  A    between atoms: C_22  and  C_32
    8  A    between atoms: C_24  and  C_25
    9  A    between atoms: C_24  and  C_32
   10  A    between atoms: C_28  and  C_31
                            x       y       z     vdW  Elec       q    Type
                         _______ _______ _______ _____ _____    ______ ____

>  <TORSDO>
F 10

$$$$
=
 OpenBabel11042422403D

 33 35  0  0  1  0  0  0  0  0999 V2000
  161.2080  205.3860  153.4890 O   0  0  0  0  0  1  0  0  0  0  0  0
  161.1480  207.7890  153.1370 C   0  0  0  0  0  0  0  0  0  0  0  0
  160.7810  207.9070  154.5720 C   0  0  0  0  0  3  0  0  0  0  0  0
  160.2190  208.9050  155.2810 C   0  0  0  0  0  0  0  0  0  0  0  0
  161.3440  208.8870  152.2650 C   0  0  0  0  0  0  0  0  0  0  0  0
  159.7550  210.1980  154.7140 C   0  0  0  0  0  0  0  0  0  0  0  0
  161.3730  206.4880  152.6530 C   0  0  0  0  0  0  0  0  0  0  0  0
  161.7240  208.6470  150.9220 C   0  0  0  0  0  0  0  0  0  0  0  0
  161.7640  206.2980  151.3250 C   0  0  0  0  0  0  0  0  0  0  0  0
  159.8250  210.5110  153.2640 C   0  0  0  0  0  2  0  0  0  0  0  0
  161.9310  207.3680  150.5090 N   0  0  0  0  0  0  0  0  0  0  0  0
  159.2460  211.0940  155.4950 N   0  0  0  0  0  2  0  0  0  0  0  0
  161.2300  210.2830  152.7740 C   0  0  0  0  0  2  0  0  0  0  0  0
  162.0070  211.7520  148.5430 C   0  0  0  0  0  0  0  0  0  0  0  0
  162.1680  209.5040  148.5700 C   0  0  0  0  0  3  0  0  0  0  0  0
  161.7330  211.3810  150.1630 S   0  0  0  0  0  0  0  0  0  0  0  0
  162.2220  210.6340  147.8160 N   0  0  0  0  0  0  0  0  0  0  0  0
  161.9240  209.7220  149.9250 C   0  0  0  0  0  0  0  0  0  0  0  0
  161.9840  213.0990  147.9540 C   0  0  0  0  0  0  0  0  0  0  0  0
  162.2470  213.2630  146.6010 O   0  0  0  0  0  1  0  0  0  0  0  0
  161.7120  214.1670  148.6950 C   0  0  0  0  0  2  0  0  0  0  0  0
  160.0230  208.6890  156.7290 C   0  0  0  0  0  3  0  0  0  0  0  0
  160.0140  207.5080  157.2570 N   0  0  0  0  0  2  0  0  0  0  0  0
  162.0290  204.9300  150.7940 C   0  0  0  0  0  2  0  0  0  0  0  0
  160.7960  204.4020  150.0900 C   0  0  0  0  0  2  0  0  0  0  0  0
  160.7160  204.9910  148.6950 C   0  0  0  0  0  2  0  0  0  0  0  0
  161.8460  204.4560  147.8340 C   0  0  0  0  0  2  0  0  0  0  0  0
  161.8200  205.0970  146.5210 N   0  0  0  0  0  2  0  0  0  0  0  0
  161.1960  202.8120  146.0630 C   0  0  0  0  0  1  0  0  0  0  0  0
  162.9780  203.8560  144.9000 O   0  0  0  0  0  1  0  0  0  0  0  0
  161.7170  204.1000  145.4550 C   0  0  2  0  0  0  0  0  0  0  0  0
  161.2660  205.7430  143.6780 N   0  0  0  0  0  1  0  0  0  0  0  0
  160.7440  204.5750  144.3730 C   0  0  0  0  0  2  0  0  0  0  0  0
  2  3  1  0  0  0  0
  3  4  2  0  0  0  0
  4 22  1  0  0  0  0
  5 13  1  0  0  0  0
  5  2  2  0  0  0  0
  6  4  1  0  0  0  0
  6 12  2  0  0  0  0
  7  2  1  0  0  0  0
  7  1  1  0  0  0  0
  8  5  1  0  0  0  0
  9  7  2  0  0  0  0
 10  6  1  0  0  0  0
 11  8  2  0  0  0  0
 11  9  1  0  0  0  0
 13 10  1  0  0  0  0
 14 16  1  0  0  0  0
 15 18  2  0  0  0  0
 17 14  2  0  0  0  0
 17 15  1  0  0  0  0
 18 16  1  0  0  0  0
 18  8  1  0  0  0  0
 19 14  1  0  0  0  0
 19 21  2  0  0  0  0
 20 19  1  0  0  0  0
 22 23  2  0  0  0  0
 24  9  1  0  0  0  0
 25 24  1  0  0  0  0
 26 25  1  0  0  0  0
 27 26  1  0  0  0  0
 28 27  1  0  0  0  0
 30 31  1  0  0  0  0
 31 29  1  1  0  0  0
 31 28  1  0  0  0  0
 32 33  1  0  0  0  0
 33 31  1  0  0  0  0
M  END
>  <MODEL>
8

>  <REMARK>
 VINA RESULT:      -6.1      2.158      7.533
  Name = 
  10 active torsions:
  status: ('A' for Active; 'I' for Inactive)
    1  A    between atoms: C_1  and  C_8
    2  A    between atoms: C_3  and  C_5
    3  A    between atoms: C_9  and  N_17
    4  A    between atoms: C_9  and  C_22
    5  A    between atoms: N_17  and  C_28
    6  A    between atoms: C_18  and  C_33
    7  A    between atoms: C_22  and  C_32
    8  A    between atoms: C_24  and  C_25
    9  A    between atoms: C_24  and  C_32
   10  A    between atoms: C_28  and  C_31
                            x       y       z     vdW  Elec       q    Type
                         _______ _______ _______ _____ _____    ______ ____

>  <TORSDO>
F 10

$$$$
