=
 OpenBabel11042422203D

 52 57  0  0  1  0  0  0  0  0999 V2000
  161.5650  210.3310  152.0320 C   0  0  0  0  0  0  0  0  0  0  0  0
  161.3880  213.4970  149.2470 O   0  0  0  0  0  0  0  0  0  0  0  0
  161.9480  209.0700  152.7330 C   0  0  0  0  0  2  0  0  0  0  0  0
  159.4720  212.9290  150.6690 C   0  0  1  0  0  3  0  0  0  0  0  0
  159.5720  210.6120  154.7030 S   0  0  0  0  0  0  0  0  0  0  0  0
  160.9040  212.6050  150.2200 C   0  0  1  0  0  3  0  0  0  0  0  0
  162.3710  212.7790  148.5500 C   0  0  1  0  0  3  0  0  0  0  0  0
  158.0840  212.6760  153.8920 N   0  0  0  0  0  2  0  0  0  0  0  0
  161.3010  211.5320  152.6850 O   0  0  0  0  0  0  0  0  0  0  0  0
  159.2820  212.6970  153.1340 C   0  0  0  0  0  0  0  0  0  0  0  0
  160.1220  211.7160  153.4080 C   0  0  0  0  0  0  0  0  0  0  0  0
  161.0110  211.1840  149.6930 C   0  0  2  0  0  3  0  0  0  0  0  0
  161.6450  208.2120  149.0610 C   0  0  0  0  0  1  0  0  0  0  0  0
  161.4740  210.1570  150.7180 C   0  0  0  0  0  0  0  0  0  0  0  0
  162.0030  211.3070  148.5700 C   0  0  0  0  0  2  0  0  0  0  0  0
  161.9520  208.0220  151.6080 C   0  0  2  0  0  3  0  0  0  0  0  0
  157.7830  212.0450  156.2200 C   0  0  0  0  0  1  0  0  0  0  0  0
  157.9950  211.5460  154.8030 C   0  0  2  0  0  3  0  0  0  0  0  0
  161.6980  208.7900  150.3970 N   0  0  0  0  0  0  0  0  0  0  0  0
  159.4770  213.6630  152.0050 C   0  0  0  0  0  2  0  0  0  0  0  0
  163.1230  214.1250  143.1350 C   0  0  0  0  0  2  0  0  0  0  0  0
  162.6640  214.4530  144.5660 C   0  0  0  0  0  2  0  0  0  0  0  0
  160.3940  213.4790  143.9640 C   0  0  0  0  0  2  0  0  0  0  0  0
  161.8340  212.3990  142.2010 C   0  0  0  0  0  2  0  0  0  0  0  0
  162.4380  213.2600  147.1780 N   0  0  0  0  0  2  0  0  0  0  0  0
  163.0850  212.6860  142.8990 N   0  0  0  0  0  2  0  0  0  0  0  0
  160.6790  212.2010  143.1850 C   0  0  0  0  0  2  0  0  0  0  0  0
  161.4550  213.7130  144.9430 N   0  0  0  0  0  0  0  0  0  0  0  0
  160.2530  212.6470  146.6400 O   0  0  0  0  0  0  0  0  0  0  0  0
  161.3310  213.1850  146.2710 C   0  0  0  0  0  0  0  0  0  0  0  0
  158.6460  213.6380  149.6390 C   0  0  0  0  0  0  0  0  0  0  0  0
  159.1890  214.3610  148.7590 O   0  0  0  0  0  0  0  0  0  0  0  0
  157.2130  213.5070  149.6670 C   0  0  0  0  0  0  0  0  0  0  0  0
  156.0630  213.4030  149.7020 N   0  0  0  0  0  0  0  0  0  0  0  0
  160.8240  207.0250  151.8350 C   0  0  0  0  0  2  0  0  0  0  0  0
  161.3510  205.6010  151.9070 C   0  0  0  0  0  2  0  0  0  0  0  0
  161.3390  203.9960  149.9470 C   0  0  0  0  0  0  0  0  0  0  0  0
  161.8430  205.1640  150.6070 N   0  0  0  0  0  2  0  0  0  0  0  0
  160.4310  203.3060  150.4760 O   0  0  0  0  0  0  0  0  0  0  0  0
  161.4710  205.7540  147.1990 C   0  0  2  0  0  3  0  0  0  0  0  0
  163.4230  204.3330  146.9000 F   0  0  0  0  0  0  0  0  0  0  0  0
  160.9190  204.7130  143.6980 C   0  0  0  0  0  1  0  0  0  0  0  0
  161.8770  203.5900  148.6110 C   0  0  1  0  0  3  0  0  0  0  0  0
  160.4990  205.1370  146.1890 C   0  0  1  0  0  3  0  0  0  0  0  0
  161.5300  202.1540  146.4850 C   0  0  0  0  0  2  0  0  0  0  0  0
  159.6700  206.1210  145.6360 O   0  0  0  0  0  1  0  0  0  0  0  0
  161.2050  204.2770  145.1260 C   0  0  1  0  0  3  0  0  0  0  0  0
  162.1660  206.8180  146.6160 O   0  0  0  0  0  1  0  0  0  0  0  0
  159.6420  202.9040  147.8470 O   0  0  0  0  0  1  0  0  0  0  0  0
  161.0000  202.5580  147.8680 C   0  0  2  0  0  3  0  0  0  0  0  0
  160.8050  202.8190  145.3060 C   0  0  0  0  0  2  0  0  0  0  0  0
  162.4730  204.7660  147.8140 C   0  0  2  0  0  3  0  0  0  0  0  0
  1  9  1  0  0  0  0
  1  3  1  0  0  0  0
  4 31  1  6  0  0  0
  4 20  1  0  0  0  0
  5 18  1  0  0  0  0
  6  2  1  6  0  0  0
  6  4  1  0  0  0  0
  7 25  1  6  0  0  0
  7 15  1  0  0  0  0
  7  2  1  0  0  0  0
  8 18  1  0  0  0  0
  9 11  1  0  0  0  0
 10 11  2  0  0  0  0
 10  8  1  0  0  0  0
 11  5  1  0  0  0  0
 12 15  1  6  0  0  0
 12  6  1  0  0  0  0
 12 14  1  0  0  0  0
 13 19  1  0  0  0  0
 14  1  2  0  0  0  0
 16 35  1  1  0  0  0
 16  3  1  0  0  0  0
 18 17  1  1  0  0  0
 19 14  1  0  0  0  0
 19 16  1  0  0  0  0
 20 10  1  0  0  0  0
 21 22  1  0  0  0  0
 22 28  1  0  0  0  0
 23 28  1  0  0  0  0
 24 26  1  0  0  0  0
 24 27  1  0  0  0  0
 26 21  1  0  0  0  0
 27 23  1  0  0  0  0
 28 30  1  0  0  0  0
 30 29  2  0  0  0  0
 30 25  1  0  0  0  0
 31 33  1  0  0  0  0
 32 31  2  0  0  0  0
 33 34  3  0  0  0  0
 35 36  1  0  0  0  0
 37 39  2  0  0  0  0
 37 38  1  0  0  0  0
 38 36  1  0  0  0  0
 40 48  1  6  0  0  0
 40 52  1  0  0  0  0
 43 37  1  1  0  0  0
 44 46  1  6  0  0  0
 44 40  1  0  0  0  0
 45 50  1  0  0  0  0
 47 42  1  6  0  0  0
 47 51  1  0  0  0  0
 47 44  1  0  0  0  0
 50 49  1  6  0  0  0
 50 43  1  0  0  0  0
 51 45  1  0  0  0  0
 52 41  1  6  0  0  0
 52 43  1  0  0  0  0
M  END
>  <MODEL>
1

>  <REMARK>
 VINA RESULT:      -5.5      0.000      0.000
  Name = 
  7 active torsions:
  status: ('A' for Active; 'I' for Inactive)
    1  A    between atoms: C_1  and  C_14
    2  A    between atoms: C_11  and  C_24
    3  A    between atoms: C_15  and  C_43
    4  A    between atoms: C_15  and  C_45
    5  A    between atoms: N_20  and  C_45
    6  A    between atoms: C_22  and  N_28
    7  A    between atoms: C_24  and  C_27
                            x       y       z     vdW  Elec       q    Type
                         _______ _______ _______ _____ _____    ______ ____

>  <TORSDO>
F 7

$$$$
=
 OpenBabel11042422203D

 52 57  0  0  1  0  0  0  0  0999 V2000
  161.3060  210.9550  152.2170 C   0  0  0  0  0  0  0  0  0  0  0  0
  160.9440  213.8150  149.1340 O   0  0  0  0  0  0  0  0  0  0  0  0
  161.7790  209.8090  153.0480 C   0  0  0  0  0  2  0  0  0  0  0  0
  159.0330  213.1960  150.5420 C   0  0  1  0  0  3  0  0  0  0  0  0
  159.1870  211.2860  154.7820 S   0  0  0  0  0  0  0  0  0  0  0  0
  160.5070  212.9740  150.1730 C   0  0  1  0  0  3  0  0  0  0  0  0
  162.0190  213.1360  148.5420 C   0  0  1  0  0  3  0  0  0  0  0  0
  157.5440  213.1090  153.7280 N   0  0  0  0  0  2  0  0  0  0  0  0
  160.9020  212.1800  152.7410 O   0  0  0  0  0  0  0  0  0  0  0  0
  158.7650  213.1770  153.0100 C   0  0  0  0  0  0  0  0  0  0  0  0
  159.6820  212.3140  153.4050 C   0  0  0  0  0  0  0  0  0  0  0  0
  160.7710  211.5280  149.7890 C   0  0  2  0  0  3  0  0  0  0  0  0
  161.7100  208.5870  149.4690 C   0  0  0  0  0  1  0  0  0  0  0  0
  161.2860  210.6520  150.9230 C   0  0  0  0  0  0  0  0  0  0  0  0
  161.7920  211.6430  148.6910 C   0  0  0  0  0  2  0  0  0  0  0  0
  161.9280  208.6660  152.0310 C   0  0  2  0  0  3  0  0  0  0  0  0
  157.2080  212.6700  156.0950 C   0  0  0  0  0  1  0  0  0  0  0  0
  157.5250  212.0660  154.7410 C   0  0  2  0  0  3  0  0  0  0  0  0
  161.6530  209.2900  150.7430 N   0  0  0  0  0  0  0  0  0  0  0  0
  158.9130  214.0480  151.8000 C   0  0  0  0  0  2  0  0  0  0  0  0
  162.8640  214.0400  143.0490 C   0  0  0  0  0  2  0  0  0  0  0  0
  162.3140  214.4520  144.4250 C   0  0  0  0  0  2  0  0  0  0  0  0
  160.1780  213.2000  143.8460 C   0  0  0  0  0  2  0  0  0  0  0  0
  161.7920  212.1130  142.2450 C   0  0  0  0  0  2  0  0  0  0  0  0
  162.0960  213.4910  147.1320 N   0  0  0  0  0  2  0  0  0  0  0  0
  162.9770  212.5900  142.9520 N   0  0  0  0  0  2  0  0  0  0  0  0
  160.6210  211.8910  143.2050 C   0  0  0  0  0  2  0  0  0  0  0  0
  161.1690  213.6320  144.8320 N   0  0  0  0  0  0  0  0  0  0  0  0
  160.0070  212.6110  146.5850 O   0  0  0  0  0  0  0  0  0  0  0  0
  161.0420  213.2190  146.2010 C   0  0  0  0  0  0  0  0  0  0  0  0
  158.1870  213.7210  149.4220 C   0  0  0  0  0  0  0  0  0  0  0  0
  158.7120  214.1370  148.3530 O   0  0  0  0  0  0  0  0  0  0  0  0
  156.7560  213.7670  149.5770 C   0  0  0  0  0  0  0  0  0  0  0  0
  155.6090  213.8160  149.7040 N   0  0  0  0  0  0  0  0  0  0  0  0
  160.8920  207.5890  152.3170 C   0  0  0  0  0  2  0  0  0  0  0  0
  161.4560  206.1990  152.0660 C   0  0  0  0  0  2  0  0  0  0  0  0
  161.0810  204.2260  150.5220 C   0  0  0  0  0  0  0  0  0  0  0  0
  160.7960  205.5700  150.9290 N   0  0  0  0  0  2  0  0  0  0  0  0
  161.9190  203.5330  151.1530 O   0  0  0  0  0  0  0  0  0  0  0  0
  161.1050  201.1190  149.5200 C   0  0  2  0  0  3  0  0  0  0  0  0
  158.8900  201.7980  148.7780 F   0  0  0  0  0  0  0  0  0  0  0  0
  161.1770  199.7410  146.0930 C   0  0  0  0  0  1  0  0  0  0  0  0
  160.3760  203.6250  149.3480 C   0  0  1  0  0  3  0  0  0  0  0  0
  161.8560  201.0520  148.1860 C   0  0  1  0  0  3  0  0  0  0  0  0
  160.2680  203.4030  146.7710 C   0  0  0  0  0  2  0  0  0  0  0  0
  162.8230  200.0400  148.2140 O   0  0  0  0  0  1  0  0  0  0  0  0
  160.9140  200.9530  146.9730 C   0  0  1  0  0  3  0  0  0  0  0  0
  160.5980  199.8610  149.8550 O   0  0  0  0  0  1  0  0  0  0  0  0
  162.3630  203.9060  147.9270 O   0  0  0  0  0  1  0  0  0  0  0  0
  160.9690  204.0350  147.9810 C   0  0  2  0  0  3  0  0  0  0  0  0
  161.0240  202.2230  146.1400 C   0  0  0  0  0  2  0  0  0  0  0  0
  159.9730  202.1550  149.5700 C   0  0  2  0  0  3  0  0  0  0  0  0
  1  9  1  0  0  0  0
  1  3  1  0  0  0  0
  4 31  1  6  0  0  0
  4 20  1  0  0  0  0
  6  2  1  6  0  0  0
  6  4  1  0  0  0  0
  7 25  1  6  0  0  0
  7 15  1  0  0  0  0
  7  2  1  0  0  0  0
  8 18  1  0  0  0  0
  9 11  1  0  0  0  0
 10 11  2  0  0  0  0
 10  8  1  0  0  0  0
 11  5  1  0  0  0  0
 12 15  1  6  0  0  0
 12  6  1  0  0  0  0
 12 14  1  0  0  0  0
 13 19  1  0  0  0  0
 14  1  2  0  0  0  0
 16 35  1  1  0  0  0
 16  3  1  0  0  0  0
 18  5  1  0  0  0  0
 18 17  1  1  0  0  0
 19 14  1  0  0  0  0
 19 16  1  0  0  0  0
 20 10  1  0  0  0  0
 21 22  1  0  0  0  0
 22 28  1  0  0  0  0
 23 28  1  0  0  0  0
 24 26  1  0  0  0  0
 24 27  1  0  0  0  0
 26 21  1  0  0  0  0
 27 23  1  0  0  0  0
 28 30  1  0  0  0  0
 30 29  2  0  0  0  0
 30 25  1  0  0  0  0
 31 33  1  0  0  0  0
 32 31  2  0  0  0  0
 33 34  3  0  0  0  0
 36 35  1  0  0  0  0
 37 38  1  0  0  0  0
 37 39  2  0  0  0  0
 38 36  1  0  0  0  0
 40 52  1  0  0  0  0
 40 48  1  6  0  0  0
 43 52  1  0  0  0  0
 43 37  1  1  0  0  0
 44 46  1  1  0  0  0
 44 40  1  0  0  0  0
 45 50  1  0  0  0  0
 47 42  1  6  0  0  0
 47 44  1  0  0  0  0
 50 49  1  1  0  0  0
 50 43  1  0  0  0  0
 51 45  1  0  0  0  0
 51 47  1  0  0  0  0
 52 41  1  6  0  0  0
M  END
>  <MODEL>
2

>  <REMARK>
 VINA RESULT:      -4.3      1.481      2.364
  Name = 
  7 active torsions:
  status: ('A' for Active; 'I' for Inactive)
    1  A    between atoms: C_1  and  C_14
    2  A    between atoms: C_11  and  C_24
    3  A    between atoms: C_15  and  C_43
    4  A    between atoms: C_15  and  C_45
    5  A    between atoms: N_20  and  C_45
    6  A    between atoms: C_22  and  N_28
    7  A    between atoms: C_24  and  C_27
                            x       y       z     vdW  Elec       q    Type
                         _______ _______ _______ _____ _____    ______ ____

>  <TORSDO>
F 7

$$$$
