=
 OpenBabel11052411553D

 32 36  0  0  1  0  0  0  0  0999 V2000
  161.1240  210.9240  152.2160 N   0  0  0  0  0  0  0  0  0  0  0  0
  157.5750  213.5720  155.4890 N   0  0  0  0  0  1  0  0  0  0  0  0
  162.1200  211.7990  148.6930 C   0  0  0  0  0  0  0  0  0  0  0  0
  160.3660  211.7260  152.9150 C   0  0  0  0  0  0  0  0  0  0  0  0
  161.5470  208.2280  150.8020 C   0  0  2  0  0  3  0  0  0  0  0  0
  158.5190  212.9830  154.6000 C   0  0  0  0  0  0  0  0  0  0  0  0
  162.1200  207.3160  149.8750 O   0  0  0  0  0  0  0  0  0  0  0  0
  162.0270  209.5990  150.3910 C   0  0  2  0  0  3  0  0  0  0  0  0
  162.5560  210.5300  148.2920 O   0  0  0  0  0  0  0  0  0  0  0  0
  160.4020  211.5670  154.3180 C   0  0  0  0  0  0  0  0  0  0  0  0
  161.2860  211.9020  149.9280 C   0  0  0  0  0  0  0  0  0  0  0  0
  162.4170  212.8150  148.0100 O   0  0  0  0  0  0  0  0  0  0  0  0
  162.5570  208.0850  148.7670 C   0  0  0  0  0  2  0  0  0  0  0  0
  159.4420  212.6630  152.3680 C   0  0  0  0  0  0  0  0  0  0  0  0
  161.2430  210.7660  150.8240 N   0  0  0  0  0  0  0  0  0  0  0  0
  158.4650  213.2310  153.2250 C   0  0  0  0  0  0  0  0  0  0  0  0
  161.9270  209.4310  148.9260 C   0  0  1  0  0  3  0  0  0  0  0  0
  159.4910  212.1870  155.1050 N   0  0  0  0  0  0  0  0  0  0  0  0
  157.3890  214.1430  152.7000 C   0  0  0  0  0  1  0  0  0  0  0  0
  159.5100  213.1700  151.1280 C   0  0  0  0  0  3  0  0  0  0  0  0
  160.4670  212.9330  150.0520 C   0  0  0  0  0  3  0  0  0  0  0  0
  161.9910  207.8840  152.2260 C   0  0  2  0  0  3  0  0  0  0  0  0
  161.7800  206.4200  152.6540 C   0  0  1  0  0  3  0  0  0  0  0  0
  160.7760  207.4860  153.0370 C   0  0  0  0  0  2  0  0  0  0  0  0
  161.6040  204.3240  151.4690 N   0  0  0  0  0  0  0  0  0  0  0  0
  161.1800  205.5370  151.6110 C   0  0  0  0  0  3  0  0  0  0  0  0
  160.8090  202.2450  150.7360 O   0  0  0  0  0  0  0  0  0  0  0  0
  161.0830  203.4480  150.4680 C   0  0  0  0  0  0  0  0  0  0  0  0
  160.8770  203.9580  149.0830 C   0  0  0  0  0  2  0  0  0  0  0  0
  161.2710  202.8880  148.0780 C   0  0  0  0  0  1  0  0  0  0  0  0
  162.2000  210.0170  155.4920 C   0  0  0  0  0  3  0  0  0  0  0  0
  161.3830  210.7220  154.9560 C   0  0  0  0  0  0  0  0  0  0  0  0
  1  4  2  0  0  0  0
  3 11  1  0  0  0  0
  4 10  1  0  0  0  0
  5  7  1  6  0  0  0
  5 22  1  0  0  0  0
  6 18  1  0  0  0  0
  6  2  1  0  0  0  0
  8  5  1  0  0  0  0
  8 15  1  1  0  0  0
  9  3  1  0  0  0  0
  9 17  1  0  0  0  0
 10 32  1  0  0  0  0
 10 18  2  0  0  0  0
 11 21  2  0  0  0  0
 11 15  1  0  0  0  0
 12  3  2  0  0  0  0
 13  7  1  0  0  0  0
 14  4  1  0  0  0  0
 14 16  1  0  0  0  0
 15  1  1  0  0  0  0
 16  6  2  0  0  0  0
 17 13  1  6  0  0  0
 17  8  1  0  0  0  0
 19 16  1  0  0  0  0
 20 14  2  0  0  0  0
 21 20  1  0  0  0  0
 22 23  1  0  0  0  0
 22 24  1  1  0  0  0
 23 26  1  6  0  0  0
 23 24  1  0  0  0  0
 25 26  2  0  0  0  0
 28 27  2  0  0  0  0
 28 25  1  0  0  0  0
 29 28  1  0  0  0  0
 30 29  1  0  0  0  0
 32 31  3  0  0  0  0
M  END
>  <MODEL>
1

>  <REMARK>
 VINA RESULT:      -7.5      0.000      0.000
  Name = 
  5 active torsions:
  status: ('A' for Active; 'I' for Inactive)
    1  A    between atoms: C_4  and  C_6
    2  A    between atoms: C_9  and  C_30
    3  A    between atoms: C_10  and  C_26
    4  A    between atoms: N_11  and  C_30
    5  A    between atoms: C_14  and  C_29
                            x       y       z     vdW  Elec       q    Type
                         _______ _______ _______ _____ _____    ______ ____

>  <TORSDO>
F 5

$$$$
=
 OpenBabel11052411553D

 32 36  0  0  1  0  0  0  0  0999 V2000
  160.7960  209.7530  153.2740 N   0  0  0  0  0  0  0  0  0  0  0  0
  157.1000  211.7350  156.8420 N   0  0  0  0  0  1  0  0  0  0  0  0
  161.7520  211.1530  149.9130 C   0  0  0  0  0  0  0  0  0  0  0  0
  159.9940  210.4100  154.0680 C   0  0  0  0  0  0  0  0  0  0  0  0
  161.3700  207.3020  151.5110 C   0  0  2  0  0  3  0  0  0  0  0  0
  158.0770  211.3240  155.8910 C   0  0  0  0  0  0  0  0  0  0  0  0
  161.9940  206.5570  150.4740 O   0  0  0  0  0  0  0  0  0  0  0  0
  161.7750  208.7400  151.2950 C   0  0  2  0  0  3  0  0  0  0  0  0
  162.2570  209.9750  149.3480 O   0  0  0  0  0  0  0  0  0  0  0  0
  160.0350  210.0640  155.4370 C   0  0  0  0  0  0  0  0  0  0  0  0
  160.9100  211.0420  151.1420 C   0  0  0  0  0  0  0  0  0  0  0  0
  161.9940  212.2670  149.3770 O   0  0  0  0  0  0  0  0  0  0  0  0
  162.3910  207.4920  149.4860 C   0  0  0  0  0  2  0  0  0  0  0  0
  159.0220  211.3620  153.6450 C   0  0  0  0  0  0  0  0  0  0  0  0
  160.9270  209.7940  151.8750 N   0  0  0  0  0  0  0  0  0  0  0  0
  158.0130  211.7550  154.5610 C   0  0  0  0  0  0  0  0  0  0  0  0
  161.6880  208.7680  149.8200 C   0  0  1  0  0  3  0  0  0  0  0  0
  159.0900  210.5210  156.2920 N   0  0  0  0  0  0  0  0  0  0  0  0
  156.8900  212.6700  154.1540 C   0  0  0  0  0  1  0  0  0  0  0  0
  159.0640  212.0360  152.4860 C   0  0  0  0  0  3  0  0  0  0  0  0
  160.0350  212.0000  151.3980 C   0  0  0  0  0  3  0  0  0  0  0  0
  161.8280  206.7910  152.8790 C   0  0  2  0  0  3  0  0  0  0  0  0
  161.5920  205.2930  153.1450 C   0  0  1  0  0  3  0  0  0  0  0  0
  160.6170  206.3300  153.6630 C   0  0  0  0  0  2  0  0  0  0  0  0
  161.5130  203.4730  151.5600 N   0  0  0  0  0  0  0  0  0  0  0  0
  160.9550  204.5450  152.0210 C   0  0  0  0  0  3  0  0  0  0  0  0
  160.5260  201.5630  150.6290 O   0  0  0  0  0  0  0  0  0  0  0  0
  160.9590  202.7380  150.4670 C   0  0  0  0  0  0  0  0  0  0  0  0
  160.9100  203.3600  149.1150 C   0  0  0  0  0  2  0  0  0  0  0  0
  160.9950  202.2800  148.0490 C   0  0  0  0  0  1  0  0  0  0  0  0
  161.9180  208.4700  156.4000 C   0  0  0  0  0  3  0  0  0  0  0  0
  161.0600  209.1940  155.9630 C   0  0  0  0  0  0  0  0  0  0  0  0
  1  4  2  0  0  0  0
  3 11  1  0  0  0  0
  4 10  1  0  0  0  0
  5  7  1  6  0  0  0
  5 22  1  0  0  0  0
  6 18  1  0  0  0  0
  6  2  1  0  0  0  0
  8  5  1  0  0  0  0
  8 15  1  1  0  0  0
  9 17  1  0  0  0  0
  9  3  1  0  0  0  0
 10 32  1  0  0  0  0
 10 18  2  0  0  0  0
 11 21  2  0  0  0  0
 11 15  1  0  0  0  0
 12  3  2  0  0  0  0
 13  7  1  0  0  0  0
 14  4  1  0  0  0  0
 14 16  1  0  0  0  0
 15  1  1  0  0  0  0
 16  6  2  0  0  0  0
 17 13  1  6  0  0  0
 17  8  1  0  0  0  0
 19 16  1  0  0  0  0
 20 14  2  0  0  0  0
 21 20  1  0  0  0  0
 22 23  1  0  0  0  0
 22 24  1  1  0  0  0
 23 26  1  6  0  0  0
 23 24  1  0  0  0  0
 25 26  2  0  0  0  0
 28 27  2  0  0  0  0
 28 25  1  0  0  0  0
 29 28  1  0  0  0  0
 30 29  1  0  0  0  0
 32 31  3  0  0  0  0
M  END
>  <MODEL>
2

>  <REMARK>
 VINA RESULT:      -7.3      1.328      1.524
  Name = 
  5 active torsions:
  status: ('A' for Active; 'I' for Inactive)
    1  A    between atoms: C_4  and  C_6
    2  A    between atoms: C_9  and  C_30
    3  A    between atoms: C_10  and  C_26
    4  A    between atoms: N_11  and  C_30
    5  A    between atoms: C_14  and  C_29
                            x       y       z     vdW  Elec       q    Type
                         _______ _______ _______ _____ _____    ______ ____

>  <TORSDO>
F 5

$$$$
=
 OpenBabel11052411553D

 32 36  0  0  1  0  0  0  0  0999 V2000
  161.0860  209.3500  152.6470 N   0  0  0  0  0  0  0  0  0  0  0  0
  161.3010  205.9400  148.3280 N   0  0  0  0  0  1  0  0  0  0  0  0
  161.2950  208.4730  156.3010 C   0  0  0  0  0  0  0  0  0  0  0  0
  161.2850  208.4420  151.7290 C   0  0  0  0  0  0  0  0  0  0  0  0
  159.2090  211.3310  154.0620 C   0  0  2  0  0  3  0  0  0  0  0  0
  161.3130  206.7560  149.4960 C   0  0  0  0  0  0  0  0  0  0  0  0
  158.7410  212.1570  155.1190 O   0  0  0  0  0  0  0  0  0  0  0  0
  160.3110  210.4840  154.6510 C   0  0  2  0  0  3  0  0  0  0  0  0
  160.6560  209.6110  156.8120 O   0  0  0  0  0  0  0  0  0  0  0  0
  161.6270  208.9090  150.4410 C   0  0  0  0  0  0  0  0  0  0  0  0
  161.1480  208.1740  154.8450 C   0  0  0  0  0  0  0  0  0  0  0  0
  161.9570  207.7220  157.0660 O   0  0  0  0  0  0  0  0  0  0  0  0
  159.2140  211.5810  156.3240 C   0  0  0  0  0  2  0  0  0  0  0  0
  161.0830  207.0430  151.9040 C   0  0  0  0  0  0  0  0  0  0  0  0
  160.6500  209.2200  153.9770 N   0  0  0  0  0  0  0  0  0  0  0  0
  161.0240  206.2160  150.7540 C   0  0  0  0  0  0  0  0  0  0  0  0
  159.6940  210.2110  155.9660 C   0  0  1  0  0  3  0  0  0  0  0  0
  161.6280  208.0670  149.3800 N   0  0  0  0  0  0  0  0  0  0  0  0
  160.7060  204.7480  150.8510 C   0  0  0  0  0  1  0  0  0  0  0  0
  161.0880  206.4110  153.0880 C   0  0  0  0  0  3  0  0  0  0  0  0
  161.2810  206.9230  154.4410 C   0  0  0  0  0  3  0  0  0  0  0  0
  159.7230  212.1910  152.9050 C   0  0  2  0  0  3  0  0  0  0  0  0
  158.7010  213.1680  152.2960 C   0  0  1  0  0  3  0  0  0  0  0  0
  158.9630  211.8260  151.6470 C   0  0  0  0  0  2  0  0  0  0  0  0
  156.8360  214.2380  153.3950 N   0  0  0  0  0  0  0  0  0  0  0  0
  157.3500  213.1460  152.9310 C   0  0  0  0  0  3  0  0  0  0  0  0
  154.4950  214.1470  153.3690 O   0  0  0  0  0  0  0  0  0  0  0  0
  155.5600  214.2650  154.0370 C   0  0  0  0  0  0  0  0  0  0  0  0
  155.4850  214.4530  155.5130 C   0  0  0  0  0  2  0  0  0  0  0  0
  155.5910  213.1060  156.2090 C   0  0  0  0  0  1  0  0  0  0  0  0
  162.2270  211.4530  150.0110 C   0  0  0  0  0  3  0  0  0  0  0  0
  161.9560  210.2950  150.2050 C   0  0  0  0  0  0  0  0  0  0  0  0
  1 15  1  0  0  0  0
  2  6  1  0  0  0  0
  3  9  1  0  0  0  0
  3 12  2  0  0  0  0
  4 14  1  0  0  0  0
  4  1  2  0  0  0  0
  5  8  1  0  0  0  0
  5  7  1  1  0  0  0
  6 16  2  0  0  0  0
  7 13  1  0  0  0  0
  8 15  1  6  0  0  0
  8 17  1  0  0  0  0
 10  4  1  0  0  0  0
 11  3  1  0  0  0  0
 14 20  2  0  0  0  0
 15 11  1  0  0  0  0
 16 19  1  0  0  0  0
 16 14  1  0  0  0  0
 17 13  1  1  0  0  0
 17  9  1  0  0  0  0
 18  6  1  0  0  0  0
 18 10  2  0  0  0  0
 20 21  1  0  0  0  0
 21 11  2  0  0  0  0
 22 24  1  6  0  0  0
 22  5  1  0  0  0  0
 23 22  1  0  0  0  0
 23 26  1  1  0  0  0
 24 23  1  0  0  0  0
 25 28  1  0  0  0  0
 26 25  2  0  0  0  0
 27 28  2  0  0  0  0
 28 29  1  0  0  0  0
 29 30  1  0  0  0  0
 31 32  3  0  0  0  0
 32 10  1  0  0  0  0
M  END
>  <MODEL>
3

>  <REMARK>
 VINA RESULT:      -6.6      3.381      8.362
  Name = 
  5 active torsions:
  status: ('A' for Active; 'I' for Inactive)
    1  A    between atoms: C_4  and  C_6
    2  A    between atoms: C_9  and  C_30
    3  A    between atoms: C_10  and  C_26
    4  A    between atoms: N_11  and  C_30
    5  A    between atoms: C_14  and  C_29
                            x       y       z     vdW  Elec       q    Type
                         _______ _______ _______ _____ _____    ______ ____

>  <TORSDO>
F 5

$$$$
=
 OpenBabel11052411553D

 32 36  0  0  1  0  0  0  0  0999 V2000
  161.1180  208.8540  152.1070 N   0  0  0  0  0  0  0  0  0  0  0  0
  158.0740  210.7640  156.2800 N   0  0  0  0  0  1  0  0  0  0  0  0
  162.4160  210.7550  149.1300 C   0  0  0  0  0  0  0  0  0  0  0  0
  160.5170  209.4750  153.0870 C   0  0  0  0  0  0  0  0  0  0  0  0
  161.0220  206.8590  149.7710 C   0  0  2  0  0  3  0  0  0  0  0  0
  158.9090  210.3660  155.1960 C   0  0  0  0  0  0  0  0  0  0  0  0
  161.4280  206.2630  148.5470 O   0  0  0  0  0  0  0  0  0  0  0  0
  161.7950  208.1510  149.8830 C   0  0  2  0  0  3  0  0  0  0  0  0
  162.5910  209.6670  148.2650 O   0  0  0  0  0  0  0  0  0  0  0  0
  160.4630  208.7990  154.3260 C   0  0  0  0  0  0  0  0  0  0  0  0
  161.5730  210.5610  150.3470 C   0  0  0  0  0  0  0  0  0  0  0  0
  162.9470  211.8670  148.8640 O   0  0  0  0  0  0  0  0  0  0  0  0
  162.0610  207.2800  147.7900 C   0  0  0  0  0  2  0  0  0  0  0  0
  159.8340  210.7200  152.9700 C   0  0  0  0  0  0  0  0  0  0  0  0
  161.2570  209.2080  150.7540 N   0  0  0  0  0  0  0  0  0  0  0  0
  158.9640  211.1180  154.0170 C   0  0  0  0  0  0  0  0  0  0  0  0
  161.7210  208.5690  148.4680 C   0  0  1  0  0  3  0  0  0  0  0  0
  159.6710  209.2550  155.3260 N   0  0  0  0  0  0  0  0  0  0  0  0
  158.1250  212.3630  153.9170 C   0  0  0  0  0  1  0  0  0  0  0  0
  160.0560  211.6290  152.0080 C   0  0  0  0  0  3  0  0  0  0  0  0
  160.9840  211.6160  150.8830 C   0  0  0  0  0  3  0  0  0  0  0  0
  161.3260  205.9230  150.9420 C   0  0  2  0  0  3  0  0  0  0  0  0
  161.2610  204.4170  150.6260 C   0  0  1  0  0  3  0  0  0  0  0  0
  160.0830  205.1210  151.2660 C   0  0  0  0  0  2  0  0  0  0  0  0
  161.4780  203.0700  148.6340 N   0  0  0  0  0  0  0  0  0  0  0  0
  160.9190  204.0830  149.2120 C   0  0  0  0  0  3  0  0  0  0  0  0
  160.5330  201.6980  146.9870 O   0  0  0  0  0  0  0  0  0  0  0  0
  161.2070  202.7260  147.2740 C   0  0  0  0  0  0  0  0  0  0  0  0
  161.7430  203.5830  146.1800 C   0  0  0  0  0  2  0  0  0  0  0  0
  160.7020  203.7260  145.0820 C   0  0  0  0  0  1  0  0  0  0  0  0
  161.8450  206.5810  154.7540 C   0  0  0  0  0  3  0  0  0  0  0  0
  161.2180  207.5910  154.5590 C   0  0  0  0  0  0  0  0  0  0  0  0
  1  4  2  0  0  0  0
  3 11  1  0  0  0  0
  4 10  1  0  0  0  0
  5  7  1  6  0  0  0
  5  8  1  0  0  0  0
  5 22  1  0  0  0  0
  6 18  1  0  0  0  0
  6  2  1  0  0  0  0
  8 15  1  1  0  0  0
  9 17  1  0  0  0  0
  9  3  1  0  0  0  0
 10 32  1  0  0  0  0
 10 18  2  0  0  0  0
 11 15  1  0  0  0  0
 11 21  2  0  0  0  0
 12  3  2  0  0  0  0
 13  7  1  0  0  0  0
 14  4  1  0  0  0  0
 14 16  1  0  0  0  0
 15  1  1  0  0  0  0
 16  6  2  0  0  0  0
 17 13  1  6  0  0  0
 17  8  1  0  0  0  0
 19 16  1  0  0  0  0
 20 14  2  0  0  0  0
 21 20  1  0  0  0  0
 22 24  1  1  0  0  0
 23 26  1  6  0  0  0
 23 22  1  0  0  0  0
 23 24  1  0  0  0  0
 25 26  2  0  0  0  0
 27 28  2  0  0  0  0
 28 25  1  0  0  0  0
 29 28  1  0  0  0  0
 30 29  1  0  0  0  0
 32 31  3  0  0  0  0
M  END
>  <MODEL>
4

>  <REMARK>
 VINA RESULT:      -5.2      1.803      2.444
  Name = 
  5 active torsions:
  status: ('A' for Active; 'I' for Inactive)
    1  A    between atoms: C_4  and  C_6
    2  A    between atoms: C_9  and  C_30
    3  A    between atoms: C_10  and  C_26
    4  A    between atoms: N_11  and  C_30
    5  A    between atoms: C_14  and  C_29
                            x       y       z     vdW  Elec       q    Type
                         _______ _______ _______ _____ _____    ______ ____

>  <TORSDO>
F 5

$$$$
