=
 OpenBabel11042421493D

 42 45  0  0  1  0  0  0  0  0999 V2000
  162.2570  207.7540  148.9900 C   0  0  0  0  0  2  0  0  0  0  0  0
  161.9410  207.0300  150.2870 C   0  0  2  0  0  3  0  0  0  0  0  0
  161.5080  209.5790  154.4370 C   0  0  0  0  0  0  0  0  0  0  0  0
  161.3900  200.5220  149.0630 O   0  0  0  0  0  0  0  0  0  0  0  0
  160.9390  201.4570  148.3490 C   0  0  0  0  0  0  0  0  0  0  0  0
  160.9210  207.2960  154.8150 C   0  0  0  0  0  0  0  0  0  0  0  0
  161.4380  203.2210  150.1160 C   0  0  0  0  0  0  0  0  0  0  0  0
  160.9460  202.8010  148.8370 N   0  0  0  0  0  2  0  0  0  0  0  0
  161.1040  209.4430  152.9830 C   0  0  1  0  0  3  0  0  0  0  0  0
  161.4070  205.7090  149.8470 C   0  0  2  0  0  3  0  0  0  0  0  0
  162.3970  203.1380  152.0970 N   0  0  0  0  0  2  0  0  0  0  0  0
  161.7890  210.3670  152.1890 O   0  0  0  0  0  1  0  0  0  0  0  0
  161.3840  208.0220  152.4880 C   0  0  2  0  0  3  0  0  0  0  0  0
  160.6310  206.4070  155.6580 O   0  0  0  0  0  0  0  0  0  0  0  0
  161.4420  204.5990  150.6080 C   0  0  2  0  0  3  0  0  0  0  0  0
  162.0010  202.4260  150.9580 N   0  0  0  0  0  0  0  0  0  0  0  0
  160.9060  207.8320  151.0530 C   0  0  0  0  0  2  0  0  0  0  0  0
  161.3730  208.5780  155.2590 N   0  0  0  0  0  0  0  0  0  0  0  0
  161.4160  207.0930  147.9080 C   0  0  0  0  0  2  0  0  0  0  0  0
  161.1360  205.6810  148.3840 C   0  0  0  0  0  2  0  0  0  0  0  0
  161.9200  204.5150  152.0320 C   0  0  1  0  0  3  0  0  0  0  0  0
  159.9840  205.9270  152.9280 C   0  0  0  0  0  2  0  0  0  0  0  0
  160.7970  207.0410  153.4090 N   0  0  0  0  0  0  0  0  0  0  0  0
  160.7510  204.6180  153.0160 C   0  0  0  0  0  2  0  0  0  0  0  0
  160.5070  201.9820  145.9670 C   0  0  0  0  0  3  0  0  0  0  0  0
  160.4570  201.2130  147.0200 N   0  0  0  0  0  0  0  0  0  0  0  0
  162.6530  203.3380  146.0070 C   0  0  0  0  0  1  0  0  0  0  0  0
  161.1410  203.3390  145.8660 C   0  0  1  0  0  3  0  0  0  0  0  0
  159.7030  203.7870  144.0300 O   0  0  0  0  0  0  0  0  0  0  0  0
  160.6140  204.1840  144.7400 C   0  0  0  0  0  0  0  0  0  0  0  0
  160.3220  206.6260  145.0330 C   0  0  0  0  0  1  0  0  0  0  0  0
  161.2260  205.5310  144.5010 C   0  0  0  0  0  3  0  0  0  0  0  0
  161.4890  205.7500  143.0230 C   0  0  0  0  0  1  0  0  0  0  0  0
  162.0220  210.8800  154.9660 C   0  0  0  0  0  2  0  0  0  0  0  0
  160.9800  211.5630  155.7860 C   0  0  0  0  0  3  0  0  0  0  0  0
  159.9280  212.0620  155.2210 N   0  0  0  0  0  0  0  0  0  0  0  0
  158.9020  212.7240  155.9610 C   0  0  0  0  0  0  0  0  0  0  0  0
  159.1410  214.2920  156.3760 S   0  0  0  0  0  0  0  0  0  0  0  0
  156.4670  211.8890  155.8830 C   0  0  0  0  0  0  0  0  0  0  0  0
  156.2060  212.3480  154.5610 N   0  0  0  0  0  1  0  0  0  0  0  0
  157.7780  211.9760  156.4600 N   0  0  0  0  0  2  0  0  0  0  0  0
  155.5370  211.3650  156.5480 O   0  0  0  0  0  0  0  0  0  0  0  0
  2  1  1  6  0  0  0
  2 17  1  0  0  0  0
  3 34  1  0  0  0  0
  3 18  2  0  0  0  0
  5  8  1  0  0  0  0
  5  4  2  0  0  0  0
  6 18  1  0  0  0  0
  6 14  2  0  0  0  0
  7 16  2  0  0  0  0
  8  7  1  0  0  0  0
  9 12  1  6  0  0  0
  9  3  1  0  0  0  0
 10 20  1  6  0  0  0
 10  2  1  0  0  0  0
 10 15  1  0  0  0  0
 13 17  1  6  0  0  0
 13  9  1  0  0  0  0
 13 23  1  0  0  0  0
 15  7  1  6  0  0  0
 15 21  1  0  0  0  0
 16 11  1  0  0  0  0
 19 20  1  0  0  0  0
 19  1  1  0  0  0  0
 21 11  1  0  0  0  0
 21 24  1  1  0  0  0
 22 24  1  0  0  0  0
 22 23  1  0  0  0  0
 23  6  1  0  0  0  0
 25 26  2  0  0  0  0
 26  5  1  0  0  0  0
 28 25  1  0  0  0  0
 28 27  1  6  0  0  0
 29 30  2  0  0  0  0
 30 28  1  0  0  0  0
 32 30  1  0  0  0  0
 32 31  1  0  0  0  0
 33 32  1  0  0  0  0
 34 35  1  0  0  0  0
 36 35  2  0  0  0  0
 36 37  1  0  0  0  0
 37 38  2  0  0  0  0
 37 41  1  0  0  0  0
 39 41  1  0  0  0  0
 39 42  2  0  0  0  0
 40 39  1  0  0  0  0
M  END
>  <MODEL>
1

>  <REMARK>
 VINA RESULT:      -5.4      0.000      0.000
  Name = 
  8 active torsions:
  status: ('A' for Active; 'I' for Inactive)
    1  A    between atoms: C_3  and  C_13
    2  A    between atoms: C_6  and  C_25
    3  A    between atoms: C_8  and  N_33
    4  A    between atoms: C_11  and  C_14
    5  A    between atoms: C_11  and  C_25
    6  A    between atoms: C_13  and  C_15
    7  A    between atoms: N_20  and  C_21
    8  A    between atoms: C_21  and  N_24
                            x       y       z     vdW  Elec       q    Type
                         _______ _______ _______ _____ _____    ______ ____

>  <TORSDO>
F 8

$$$$
=
 OpenBabel11042421493D

 42 45  0  0  1  0  0  0  0  0999 V2000
  159.9610  204.2450  151.9250 C   0  0  0  0  0  2  0  0  0  0  0  0
  160.4930  205.6340  151.6200 C   0  0  2  0  0  3  0  0  0  0  0  0
  160.7850  208.9540  155.1970 C   0  0  0  0  0  0  0  0  0  0  0  0
  162.0720  205.9850  145.1740 O   0  0  0  0  0  0  0  0  0  0  0  0
  162.2990  205.0160  145.9470 C   0  0  0  0  0  0  0  0  0  0  0  0
  161.7850  209.8090  153.2040 C   0  0  0  0  0  0  0  0  0  0  0  0
  161.6350  206.3430  148.0160 C   0  0  0  0  0  0  0  0  0  0  0  0
  162.0960  205.1570  147.3550 N   0  0  0  0  0  2  0  0  0  0  0  0
  161.0970  207.5410  154.7480 C   0  0  1  0  0  3  0  0  0  0  0  0
  161.2140  205.4710  150.3240 C   0  0  2  0  0  3  0  0  0  0  0  0
  160.8540  208.3810  148.3110 N   0  0  0  0  0  2  0  0  0  0  0  0
  160.2050  206.6300  155.3210 O   0  0  0  0  0  1  0  0  0  0  0  0
  161.0320  207.4440  153.2220 C   0  0  2  0  0  3  0  0  0  0  0  0
  162.2870  210.8050  152.6190 O   0  0  0  0  0  0  0  0  0  0  0  0
  161.4280  206.4800  149.4580 C   0  0  2  0  0  3  0  0  0  0  0  0
  161.2820  207.4130  147.3930 N   0  0  0  0  0  0  0  0  0  0  0  0
  161.4280  206.0540  152.7380 C   0  0  0  0  0  2  0  0  0  0  0  0
  161.1510  209.9750  154.4760 N   0  0  0  0  0  0  0  0  0  0  0  0
  160.8220  203.2680  151.1380 C   0  0  0  0  0  2  0  0  0  0  0  0
  161.3760  204.0390  149.9560 C   0  0  0  0  0  2  0  0  0  0  0  0
  161.0790  207.9260  149.6770 C   0  0  1  0  0  3  0  0  0  0  0  0
  162.8020  208.2190  151.5460 C   0  0  0  0  0  2  0  0  0  0  0  0
  161.8470  208.5030  152.6130 N   0  0  0  0  0  0  0  0  0  0  0  0
  162.2830  208.7120  150.2060 C   0  0  0  0  0  2  0  0  0  0  0  0
  162.0660  202.6100  145.4080 C   0  0  0  0  0  3  0  0  0  0  0  0
  162.7160  203.7410  145.4390 N   0  0  0  0  0  0  0  0  0  0  0  0
  159.7430  201.7830  144.8000 C   0  0  0  0  0  1  0  0  0  0  0  0
  160.6570  202.3610  145.8660 C   0  0  1  0  0  3  0  0  0  0  0  0
  159.6210  201.9440  147.9610 O   0  0  0  0  0  0  0  0  0  0  0  0
  160.5540  201.7000  147.2110 C   0  0  0  0  0  0  0  0  0  0  0  0
  161.4950  199.4410  146.8280 C   0  0  0  0  0  1  0  0  0  0  0  0
  161.6180  200.7270  147.6210 C   0  0  0  0  0  3  0  0  0  0  0  0
  161.5340  200.4290  149.1060 C   0  0  0  0  0  1  0  0  0  0  0  0
  160.0930  209.2040  156.4990 C   0  0  0  0  0  2  0  0  0  0  0  0
  159.2990  210.4660  156.4380 C   0  0  0  0  0  3  0  0  0  0  0  0
  158.1270  210.4740  155.8900 N   0  0  0  0  0  0  0  0  0  0  0  0
  157.3270  211.6540  155.8080 C   0  0  0  0  0  0  0  0  0  0  0  0
  156.6960  212.2550  157.1960 S   0  0  0  0  0  0  0  0  0  0  0  0
  157.7910  212.9290  153.6200 C   0  0  0  0  0  0  0  0  0  0  0  0
  159.2020  212.9990  153.7980 N   0  0  0  0  0  1  0  0  0  0  0  0
  156.9590  212.1850  154.5220 N   0  0  0  0  0  2  0  0  0  0  0  0
  157.2670  213.5020  152.6310 O   0  0  0  0  0  0  0  0  0  0  0  0
  2  1  1  1  0  0  0
  2 17  1  0  0  0  0
  3 34  1  0  0  0  0
  4  5  2  0  0  0  0
  5  8  1  0  0  0  0
  6 18  1  0  0  0  0
  8  7  1  0  0  0  0
  9  3  1  0  0  0  0
  9 12  1  1  0  0  0
 10 20  1  6  0  0  0
 10  2  1  0  0  0  0
 11 21  1  0  0  0  0
 13 17  1  1  0  0  0
 13  9  1  0  0  0  0
 14  6  2  0  0  0  0
 15  7  1  6  0  0  0
 15 21  1  0  0  0  0
 15 10  1  0  0  0  0
 16  7  2  0  0  0  0
 16 11  1  0  0  0  0
 18  3  2  0  0  0  0
 19  1  1  0  0  0  0
 20 19  1  0  0  0  0
 21 24  1  6  0  0  0
 22 23  1  0  0  0  0
 23  6  1  0  0  0  0
 23 13  1  0  0  0  0
 24 22  1  0  0  0  0
 25 26  2  0  0  0  0
 25 28  1  0  0  0  0
 26  5  1  0  0  0  0
 28 27  1  6  0  0  0
 28 30  1  0  0  0  0
 30 32  1  0  0  0  0
 30 29  2  0  0  0  0
 31 32  1  0  0  0  0
 32 33  1  0  0  0  0
 35 34  1  0  0  0  0
 36 35  2  0  0  0  0
 37 36  1  0  0  0  0
 37 38  2  0  0  0  0
 39 40  1  0  0  0  0
 39 41  1  0  0  0  0
 41 37  1  0  0  0  0
 42 39  2  0  0  0  0
M  END
>  <MODEL>
2

>  <REMARK>
 VINA RESULT:      -5.3      2.167      4.036
  Name = 
  8 active torsions:
  status: ('A' for Active; 'I' for Inactive)
    1  A    between atoms: C_3  and  C_13
    2  A    between atoms: C_6  and  C_25
    3  A    between atoms: C_8  and  N_33
    4  A    between atoms: C_11  and  C_14
    5  A    between atoms: C_11  and  C_25
    6  A    between atoms: C_13  and  C_15
    7  A    between atoms: N_20  and  C_21
    8  A    between atoms: C_21  and  N_24
                            x       y       z     vdW  Elec       q    Type
                         _______ _______ _______ _____ _____    ______ ____

>  <TORSDO>
F 8

$$$$
=
 OpenBabel11042421493D

 42 45  0  0  1  0  0  0  0  0999 V2000
  162.1980  211.7440  148.8180 C   0  0  0  0  0  2  0  0  0  0  0  0
  160.7570  212.2210  148.8470 C   0  0  2  0  0  3  0  0  0  0  0  0
  158.4220  212.6140  153.1260 C   0  0  0  0  0  0  0  0  0  0  0  0
  158.7500  213.4440  142.6310 O   0  0  0  0  0  0  0  0  0  0  0  0
  159.8710  213.7380  143.1260 C   0  0  0  0  0  0  0  0  0  0  0  0
  157.0600  213.4820  151.3680 C   0  0  0  0  0  0  0  0  0  0  0  0
  159.1280  213.1490  145.4890 C   0  0  0  0  0  0  0  0  0  0  0  0
  160.0930  213.6060  144.5320 N   0  0  0  0  0  2  0  0  0  0  0  0
  159.6660  212.9390  152.3230 C   0  0  1  0  0  3  0  0  0  0  0  0
  160.5630  212.8760  147.5220 C   0  0  2  0  0  3  0  0  0  0  0  0
  157.2600  212.3310  146.3200 N   0  0  0  0  0  2  0  0  0  0  0  0
  160.7250  212.1040  152.6900 O   0  0  0  0  0  1  0  0  0  0  0  0
  159.3820  212.7950  150.8270 C   0  0  2  0  0  3  0  0  0  0  0  0
  155.9310  213.9250  151.0290 O   0  0  0  0  0  0  0  0  0  0  0  0
  159.3630  213.0160  146.9270 C   0  0  2  0  0  3  0  0  0  0  0  0
  157.9510  212.7350  145.1710 N   0  0  0  0  0  0  0  0  0  0  0  0
  160.5910  213.2020  149.9930 C   0  0  0  0  0  2  0  0  0  0  0  0
  157.2410  212.9130  152.6680 N   0  0  0  0  0  0  0  0  0  0  0  0
  162.9140  212.5870  147.7740 C   0  0  0  0  0  2  0  0  0  0  0  0
  161.8510  213.0570  146.8000 C   0  0  0  0  0  2  0  0  0  0  0  0
  158.0320  212.6410  147.5170 C   0  0  1  0  0  3  0  0  0  0  0  0
  158.1460  214.4520  149.3200 C   0  0  0  0  0  2  0  0  0  0  0  0
  158.1740  213.5480  150.4660 N   0  0  0  0  0  0  0  0  0  0  0  0
  157.3550  213.8490  148.1720 C   0  0  0  0  0  2  0  0  0  0  0  0
  161.4340  213.6190  141.2080 C   0  0  0  0  0  3  0  0  0  0  0  0
  160.9620  214.1620  142.2970 N   0  0  0  0  0  0  0  0  0  0  0  0
  159.7850  212.6870  139.5160 C   0  0  0  0  0  1  0  0  0  0  0  0
  160.9060  212.4040  140.4990 C   0  0  1  0  0  3  0  0  0  0  0  0
  162.3310  210.5100  140.6440 O   0  0  0  0  0  0  0  0  0  0  0  0
  161.9730  211.4770  139.9880 C   0  0  0  0  0  0  0  0  0  0  0  0
  162.2620  210.6470  137.6720 C   0  0  0  0  0  1  0  0  0  0  0  0
  162.5930  211.7550  138.6530 C   0  0  0  0  0  3  0  0  0  0  0  0
  164.0970  211.9040  138.7760 C   0  0  0  0  0  1  0  0  0  0  0  0
  158.5320  211.9860  154.4780 C   0  0  0  0  0  2  0  0  0  0  0  0
  159.0270  210.5820  154.3680 C   0  0  0  0  0  3  0  0  0  0  0  0
  160.1610  210.2470  154.8930 N   0  0  0  0  0  0  0  0  0  0  0  0
  160.6790  208.9180  154.8150 C   0  0  0  0  0  0  0  0  0  0  0  0
  161.5750  208.3670  156.0720 S   0  0  0  0  0  0  0  0  0  0  0  0
  161.1740  208.4420  152.3340 C   0  0  0  0  0  0  0  0  0  0  0  0
  162.2360  209.3830  152.2220 N   0  0  0  0  0  1  0  0  0  0  0  0
  160.5490  208.1650  153.5960 N   0  0  0  0  0  2  0  0  0  0  0  0
  160.7980  207.8140  151.3110 O   0  0  0  0  0  0  0  0  0  0  0  0
  2  1  1  6  0  0  0
  2 17  1  0  0  0  0
  3 34  1  0  0  0  0
  4  5  2  0  0  0  0
  5  8  1  0  0  0  0
  6 18  1  0  0  0  0
  8  7  1  0  0  0  0
  9 12  1  1  0  0  0
  9  3  1  0  0  0  0
 10 20  1  6  0  0  0
 10  2  1  0  0  0  0
 11 21  1  0  0  0  0
 13 17  1  6  0  0  0
 13  9  1  0  0  0  0
 14  6  2  0  0  0  0
 15  7  1  6  0  0  0
 15 21  1  0  0  0  0
 15 10  1  0  0  0  0
 16  7  2  0  0  0  0
 16 11  1  0  0  0  0
 18  3  2  0  0  0  0
 19  1  1  0  0  0  0
 20 19  1  0  0  0  0
 21 24  1  6  0  0  0
 22 23  1  0  0  0  0
 23 13  1  0  0  0  0
 23  6  1  0  0  0  0
 24 22  1  0  0  0  0
 25 26  2  0  0  0  0
 26  5  1  0  0  0  0
 28 27  1  6  0  0  0
 28 25  1  0  0  0  0
 30 28  1  0  0  0  0
 30 29  2  0  0  0  0
 31 32  1  0  0  0  0
 32 33  1  0  0  0  0
 32 30  1  0  0  0  0
 35 34  1  0  0  0  0
 35 36  2  0  0  0  0
 37 36  1  0  0  0  0
 37 38  2  0  0  0  0
 39 41  1  0  0  0  0
 40 39  1  0  0  0  0
 41 37  1  0  0  0  0
 42 39  2  0  0  0  0
M  END
>  <MODEL>
3

>  <REMARK>
 VINA RESULT:      -5.1      6.260      8.653
  Name = 
  8 active torsions:
  status: ('A' for Active; 'I' for Inactive)
    1  A    between atoms: C_3  and  C_13
    2  A    between atoms: C_6  and  C_25
    3  A    between atoms: C_8  and  N_33
    4  A    between atoms: C_11  and  C_14
    5  A    between atoms: C_11  and  C_25
    6  A    between atoms: C_13  and  C_15
    7  A    between atoms: N_20  and  C_21
    8  A    between atoms: C_21  and  N_24
                            x       y       z     vdW  Elec       q    Type
                         _______ _______ _______ _____ _____    ______ ____

>  <TORSDO>
F 8

$$$$
=
 OpenBabel11042421493D

 42 45  0  0  1  0  0  0  0  0999 V2000
  161.4710  205.7480  154.0780 C   0  0  0  0  0  2  0  0  0  0  0  0
  161.4190  206.0740  152.5960 C   0  0  2  0  0  3  0  0  0  0  0  0
  161.5380  202.4500  149.3150 C   0  0  0  0  0  0  0  0  0  0  0  0
  161.0500  212.6650  151.8350 O   0  0  0  0  0  0  0  0  0  0  0  0
  160.4330  211.9760  152.6900 C   0  0  0  0  0  0  0  0  0  0  0  0
  161.1570  204.5360  148.2170 C   0  0  0  0  0  0  0  0  0  0  0  0
  161.1170  209.7770  151.6040 C   0  0  0  0  0  0  0  0  0  0  0  0
  160.4430  210.5490  152.6070 N   0  0  0  0  0  2  0  0  0  0  0  0
  160.9060  202.9990  150.5780 C   0  0  1  0  0  3  0  0  0  0  0  0
  160.8960  207.4690  152.5480 C   0  0  2  0  0  3  0  0  0  0  0  0
  162.3970  209.2840  149.8810 N   0  0  0  0  0  2  0  0  0  0  0  0
  161.3940  202.3340  151.7070 O   0  0  0  0  0  1  0  0  0  0  0  0
  161.1810  204.4990  150.6980 C   0  0  2  0  0  3  0  0  0  0  0  0
  161.0640  205.1490  147.1210 O   0  0  0  0  0  0  0  0  0  0  0  0
  161.1230  208.3160  151.5250 C   0  0  2  0  0  3  0  0  0  0  0  0
  161.8580  210.2940  150.6870 N   0  0  0  0  0  0  0  0  0  0  0  0
  160.4810  205.0950  151.9140 C   0  0  0  0  0  2  0  0  0  0  0  0
  161.6020  203.1760  148.2360 N   0  0  0  0  0  0  0  0  0  0  0  0
  160.5000  206.6970  154.7650 C   0  0  0  0  0  2  0  0  0  0  0  0
  160.3870  207.9160  153.8720 C   0  0  0  0  0  2  0  0  0  0  0  0
  161.8360  207.9870  150.2430 C   0  0  1  0  0  3  0  0  0  0  0  0
  159.9990  206.3930  149.4490 C   0  0  0  0  0  2  0  0  0  0  0  0
  160.8140  205.1820  149.4510 N   0  0  0  0  0  0  0  0  0  0  0  0
  160.8440  207.6160  149.1360 C   0  0  0  0  0  2  0  0  0  0  0  0
  158.6760  213.3330  153.7890 C   0  0  0  0  0  3  0  0  0  0  0  0
  159.7510  212.5930  153.7910 N   0  0  0  0  0  0  0  0  0  0  0  0
  158.0190  212.7960  151.3950 C   0  0  0  0  0  1  0  0  0  0  0  0
  157.8280  213.6970  152.6030 C   0  0  1  0  0  3  0  0  0  0  0  0
  155.6360  214.4530  152.0940 O   0  0  0  0  0  0  0  0  0  0  0  0
  156.3970  214.0060  152.9390 C   0  0  0  0  0  0  0  0  0  0  0  0
  155.7630  212.2640  154.5820 C   0  0  0  0  0  1  0  0  0  0  0  0
  155.9120  213.7530  154.3340 C   0  0  0  0  0  3  0  0  0  0  0  0
  154.5890  214.4530  154.5820 C   0  0  0  0  0  1  0  0  0  0  0  0
  162.0580  201.0490  149.2710 C   0  0  0  0  0  2  0  0  0  0  0  0
  161.5040  200.3200  148.0930 C   0  0  0  0  0  3  0  0  0  0  0  0
  161.2440  200.9550  146.9960 N   0  0  0  0  0  0  0  0  0  0  0  0
  160.7140  200.3050  145.8400 C   0  0  0  0  0  0  0  0  0  0  0  0
  161.2720  198.8070  145.4760 S   0  0  0  0  0  0  0  0  0  0  0  0
  159.9000  202.4200  144.6180 C   0  0  0  0  0  0  0  0  0  0  0  0
  161.0260  203.2210  144.9640 N   0  0  0  0  0  1  0  0  0  0  0  0
  159.8470  201.0240  144.9440 N   0  0  0  0  0  2  0  0  0  0  0  0
  158.9470  202.9390  143.9820 O   0  0  0  0  0  0  0  0  0  0  0  0
  1 19  1  0  0  0  0
  2 17  1  6  0  0  0
  2  1  1  0  0  0  0
  3  9  1  0  0  0  0
  4  5  2  0  0  0  0
  5 26  1  0  0  0  0
  6 18  1  0  0  0  0
  6 23  1  0  0  0  0
  7  8  1  0  0  0  0
  8  5  1  0  0  0  0
  9 13  1  0  0  0  0
  9 12  1  1  0  0  0
 10  2  1  0  0  0  0
 10 20  1  1  0  0  0
 11 21  1  0  0  0  0
 11 16  1  0  0  0  0
 13 17  1  1  0  0  0
 14  6  2  0  0  0  0
 15  7  1  1  0  0  0
 15 10  1  0  0  0  0
 16  7  2  0  0  0  0
 18  3  2  0  0  0  0
 20 19  1  0  0  0  0
 21 24  1  6  0  0  0
 21 15  1  0  0  0  0
 22 23  1  0  0  0  0
 23 13  1  0  0  0  0
 24 22  1  0  0  0  0
 25 26  2  0  0  0  0
 28 27  1  6  0  0  0
 28 30  1  0  0  0  0
 28 25  1  0  0  0  0
 29 30  2  0  0  0  0
 30 32  1  0  0  0  0
 32 31  1  0  0  0  0
 32 33  1  0  0  0  0
 34  3  1  0  0  0  0
 35 34  1  0  0  0  0
 36 35  2  0  0  0  0
 37 36  1  0  0  0  0
 38 37  2  0  0  0  0
 39 41  1  0  0  0  0
 39 40  1  0  0  0  0
 41 37  1  0  0  0  0
 42 39  2  0  0  0  0
M  END
>  <MODEL>
4

>  <REMARK>
 VINA RESULT:      -4.4      3.874     10.737
  Name = 
  8 active torsions:
  status: ('A' for Active; 'I' for Inactive)
    1  A    between atoms: C_3  and  C_13
    2  A    between atoms: C_6  and  C_25
    3  A    between atoms: C_8  and  N_33
    4  A    between atoms: C_11  and  C_14
    5  A    between atoms: C_11  and  C_25
    6  A    between atoms: C_13  and  C_15
    7  A    between atoms: N_20  and  C_21
    8  A    between atoms: C_21  and  N_24
                            x       y       z     vdW  Elec       q    Type
                         _______ _______ _______ _____ _____    ______ ____

>  <TORSDO>
F 8

$$$$
=
 OpenBabel11042421493D

 42 45  0  0  1  0  0  0  0  0999 V2000
  161.5780  205.8530  153.8960 C   0  0  0  0  0  2  0  0  0  0  0  0
  161.4890  206.1330  152.4070 C   0  0  2  0  0  3  0  0  0  0  0  0
  161.5700  202.4140  149.2340 C   0  0  0  0  0  0  0  0  0  0  0  0
  161.0360  212.6950  151.4570 O   0  0  0  0  0  0  0  0  0  0  0  0
  160.4450  212.0270  152.3460 C   0  0  0  0  0  0  0  0  0  0  0  0
  161.1430  204.4620  148.0830 C   0  0  0  0  0  0  0  0  0  0  0  0
  161.1270  209.8020  151.3110 C   0  0  0  0  0  0  0  0  0  0  0  0
  160.4680  210.5980  152.3060 N   0  0  0  0  0  2  0  0  0  0  0  0
  160.9610  202.9950  150.4940 C   0  0  1  0  0  3  0  0  0  0  0  0
  160.9510  207.5220  152.3290 C   0  0  2  0  0  3  0  0  0  0  0  0
  162.3730  209.2690  149.5760 N   0  0  0  0  0  2  0  0  0  0  0  0
  161.4810  202.3680  151.6310 O   0  0  0  0  0  1  0  0  0  0  0  0
  161.2240  204.5000  150.5630 C   0  0  2  0  0  3  0  0  0  0  0  0
  161.0200  205.0410  146.9710 O   0  0  0  0  0  0  0  0  0  0  0  0
  161.1460  208.3400  151.2770 C   0  0  2  0  0  3  0  0  0  0  0  0
  161.8420  210.2990  150.3620 N   0  0  0  0  0  0  0  0  0  0  0  0
  160.5460  205.1260  151.7760 C   0  0  0  0  0  2  0  0  0  0  0  0
  161.6020  203.1080  148.1320 N   0  0  0  0  0  0  0  0  0  0  0  0
  160.6130  206.8130  154.5770 C   0  0  0  0  0  2  0  0  0  0  0  0
  160.4670  208.0040  153.6510 C   0  0  0  0  0  2  0  0  0  0  0  0
  161.8340  207.9790  149.9880 C   0  0  1  0  0  3  0  0  0  0  0  0
  159.9950  206.3450  149.2850 C   0  0  0  0  0  2  0  0  0  0  0  0
  160.8220  205.1420  149.3040 N   0  0  0  0  0  0  0  0  0  0  0  0
  160.8200  207.5660  148.9170 C   0  0  0  0  0  2  0  0  0  0  0  0
  159.6630  212.2800  154.6830 C   0  0  0  0  0  3  0  0  0  0  0  0
  159.7820  212.6700  153.4430 N   0  0  0  0  0  0  0  0  0  0  0  0
  161.7540  211.0850  155.4870 C   0  0  0  0  0  1  0  0  0  0  0  0
  160.2470  211.0440  155.3040 C   0  0  1  0  0  3  0  0  0  0  0  0
  159.9330  209.6310  157.1860 O   0  0  0  0  0  0  0  0  0  0  0  0
  159.4830  210.5290  156.4910 C   0  0  0  0  0  0  0  0  0  0  0  0
  157.2270  211.0560  155.6130 C   0  0  0  0  0  1  0  0  0  0  0  0
  158.1520  211.1380  156.8120 C   0  0  0  0  0  3  0  0  0  0  0  0
  158.3090  212.5830  157.2450 C   0  0  0  0  0  1  0  0  0  0  0  0
  162.1030  201.0170  149.2200 C   0  0  0  0  0  2  0  0  0  0  0  0
  161.9150  200.3960  147.8760 C   0  0  0  0  0  3  0  0  0  0  0  0
  160.8270  200.6050  147.2080 N   0  0  0  0  0  0  0  0  0  0  0  0
  160.5980  200.0350  145.9180 C   0  0  0  0  0  0  0  0  0  0  0  0
  161.3070  198.5980  145.5740 S   0  0  0  0  0  0  0  0  0  0  0  0
  160.0260  202.1980  144.6430 C   0  0  0  0  0  0  0  0  0  0  0  0
  161.0810  202.9720  145.2040 N   0  0  0  0  0  1  0  0  0  0  0  0
  159.9050  200.7940  144.9100 N   0  0  0  0  0  2  0  0  0  0  0  0
  159.2010  202.7500  143.8710 O   0  0  0  0  0  0  0  0  0  0  0  0
  1 19  1  0  0  0  0
  2 17  1  6  0  0  0
  2  1  1  0  0  0  0
  3  9  1  0  0  0  0
  4  5  2  0  0  0  0
  5 26  1  0  0  0  0
  6 18  1  0  0  0  0
  6 23  1  0  0  0  0
  7  8  1  0  0  0  0
  8  5  1  0  0  0  0
  9 13  1  0  0  0  0
  9 12  1  1  0  0  0
 10  2  1  0  0  0  0
 10 20  1  1  0  0  0
 11 21  1  0  0  0  0
 11 16  1  0  0  0  0
 13 17  1  1  0  0  0
 14  6  2  0  0  0  0
 15  7  1  1  0  0  0
 15 10  1  0  0  0  0
 16  7  2  0  0  0  0
 18  3  2  0  0  0  0
 20 19  1  0  0  0  0
 21 24  1  6  0  0  0
 21 15  1  0  0  0  0
 22 23  1  0  0  0  0
 23 13  1  0  0  0  0
 24 22  1  0  0  0  0
 25 28  1  0  0  0  0
 26 25  2  0  0  0  0
 28 27  1  1  0  0  0
 28 30  1  0  0  0  0
 30 32  1  0  0  0  0
 30 29  2  0  0  0  0
 31 32  1  0  0  0  0
 32 33  1  0  0  0  0
 34  3  1  0  0  0  0
 35 34  1  0  0  0  0
 36 35  2  0  0  0  0
 37 36  1  0  0  0  0
 38 37  2  0  0  0  0
 39 41  1  0  0  0  0
 39 40  1  0  0  0  0
 41 37  1  0  0  0  0
 42 39  2  0  0  0  0
M  END
>  <MODEL>
5

>  <REMARK>
 VINA RESULT:      -3.9      3.768     10.769
  Name = 
  8 active torsions:
  status: ('A' for Active; 'I' for Inactive)
    1  A    between atoms: C_3  and  C_13
    2  A    between atoms: C_6  and  C_25
    3  A    between atoms: C_8  and  N_33
    4  A    between atoms: C_11  and  C_14
    5  A    between atoms: C_11  and  C_25
    6  A    between atoms: C_13  and  C_15
    7  A    between atoms: N_20  and  C_21
    8  A    between atoms: C_21  and  N_24
                            x       y       z     vdW  Elec       q    Type
                         _______ _______ _______ _____ _____    ______ ____

>  <TORSDO>
F 8

$$$$
=
 OpenBabel11042421493D

 42 45  0  0  1  0  0  0  0  0999 V2000
  161.5400  204.9500  153.1310 C   0  0  0  0  0  2  0  0  0  0  0  0
  161.6520  206.0980  152.1440 C   0  0  2  0  0  3  0  0  0  0  0  0
  162.1940  205.1490  147.3780 C   0  0  0  0  0  0  0  0  0  0  0  0
  161.2780  211.8500  155.4520 O   0  0  0  0  0  0  0  0  0  0  0  0
  160.5770  210.8230  155.6580 C   0  0  0  0  0  0  0  0  0  0  0  0
  161.9100  207.4950  147.7180 C   0  0  0  0  0  0  0  0  0  0  0  0
  161.4110  209.6720  153.5450 C   0  0  0  0  0  0  0  0  0  0  0  0
  160.6170  209.7290  154.7370 N   0  0  0  0  0  2  0  0  0  0  0  0
  161.4150  204.8700  148.6480 C   0  0  1  0  0  3  0  0  0  0  0  0
  161.1180  207.2740  152.8900 C   0  0  2  0  0  3  0  0  0  0  0  0
  162.8850  210.2320  152.0080 N   0  0  0  0  0  2  0  0  0  0  0  0
  161.7810  203.6370  149.1940 O   0  0  0  0  0  1  0  0  0  0  0  0
  161.6530  205.9840  149.6690 C   0  0  2  0  0  3  0  0  0  0  0  0
  161.9340  208.6450  147.2060 O   0  0  0  0  0  0  0  0  0  0  0  0
  161.4470  208.5490  152.6080 C   0  0  2  0  0  3  0  0  0  0  0  0
  162.2450  210.5910  153.2000 N   0  0  0  0  0  0  0  0  0  0  0  0
  160.8120  205.7750  150.9230 C   0  0  0  0  0  2  0  0  0  0  0  0
  162.3700  206.3700  146.9620 N   0  0  0  0  0  0  0  0  0  0  0  0
  160.4840  205.3550  154.1490 C   0  0  0  0  0  2  0  0  0  0  0  0
  160.4550  206.8700  154.1600 C   0  0  0  0  0  2  0  0  0  0  0  0
  162.3060  209.0100  151.4630 C   0  0  1  0  0  3  0  0  0  0  0  0
  160.5940  208.3120  149.6950 C   0  0  0  0  0  2  0  0  0  0  0  0
  161.4210  207.2960  149.0510 N   0  0  0  0  0  0  0  0  0  0  0  0
  161.4510  209.4300  150.2630 C   0  0  0  0  0  2  0  0  0  0  0  0
  158.7590  211.4300  157.2270 C   0  0  0  0  0  3  0  0  0  0  0  0
  159.7660  210.6990  156.8340 N   0  0  0  0  0  0  0  0  0  0  0  0
  159.0950  213.7570  156.2660 C   0  0  0  0  0  1  0  0  0  0  0  0
  158.1470  212.5940  156.5000 C   0  0  1  0  0  3  0  0  0  0  0  0
  156.4330  211.3700  155.4040 O   0  0  0  0  0  0  0  0  0  0  0  0
  157.3160  212.2090  155.3090 C   0  0  0  0  0  0  0  0  0  0  0  0
  156.2860  213.1910  153.2810 C   0  0  0  0  0  1  0  0  0  0  0  0
  157.5870  212.8750  153.9940 C   0  0  0  0  0  3  0  0  0  0  0  0
  158.4580  212.0000  153.1140 C   0  0  0  0  0  1  0  0  0  0  0  0
  162.7350  204.0240  146.5550 C   0  0  0  0  0  2  0  0  0  0  0  0
  161.6710  203.4570  145.6760 C   0  0  0  0  0  3  0  0  0  0  0  0
  161.1680  202.2920  145.9290 N   0  0  0  0  0  0  0  0  0  0  0  0
  160.1480  201.7050  145.1200 C   0  0  0  0  0  0  0  0  0  0  0  0
  158.9520  202.6780  144.5640 S   0  0  0  0  0  0  0  0  0  0  0  0
  160.8720  199.2910  145.6490 C   0  0  0  0  0  0  0  0  0  0  0  0
  161.6210  199.6240  146.8130 N   0  0  0  0  0  1  0  0  0  0  0  0
  160.0960  200.2770  144.9510 N   0  0  0  0  0  2  0  0  0  0  0  0
  160.8630  198.1010  145.2420 O   0  0  0  0  0  0  0  0  0  0  0  0
  1 19  1  0  0  0  0
  2 17  1  6  0  0  0
  2 10  1  0  0  0  0
  2  1  1  0  0  0  0
  3  9  1  0  0  0  0
  4  5  2  0  0  0  0
  5 26  1  0  0  0  0
  6 23  1  0  0  0  0
  7  8  1  0  0  0  0
  8  5  1  0  0  0  0
  9 12  1  1  0  0  0
  9 13  1  0  0  0  0
 10 20  1  1  0  0  0
 11 16  1  0  0  0  0
 13 17  1  1  0  0  0
 14  6  2  0  0  0  0
 15 10  1  0  0  0  0
 15  7  1  1  0  0  0
 16  7  2  0  0  0  0
 18  3  2  0  0  0  0
 18  6  1  0  0  0  0
 19 20  1  0  0  0  0
 21 24  1  6  0  0  0
 21 11  1  0  0  0  0
 21 15  1  0  0  0  0
 22 24  1  0  0  0  0
 23 13  1  0  0  0  0
 23 22  1  0  0  0  0
 26 25  2  0  0  0  0
 28 27  1  6  0  0  0
 28 25  1  0  0  0  0
 30 29  2  0  0  0  0
 30 28  1  0  0  0  0
 31 32  1  0  0  0  0
 32 30  1  0  0  0  0
 33 32  1  0  0  0  0
 34  3  1  0  0  0  0
 35 36  2  0  0  0  0
 35 34  1  0  0  0  0
 37 36  1  0  0  0  0
 38 37  2  0  0  0  0
 39 40  1  0  0  0  0
 41 37  1  0  0  0  0
 41 39  1  0  0  0  0
 42 39  2  0  0  0  0
M  END
>  <MODEL>
6

>  <REMARK>
 VINA RESULT:      -2.7      3.576     10.874
  Name = 
  8 active torsions:
  status: ('A' for Active; 'I' for Inactive)
    1  A    between atoms: C_3  and  C_13
    2  A    between atoms: C_6  and  C_25
    3  A    between atoms: C_8  and  N_33
    4  A    between atoms: C_11  and  C_14
    5  A    between atoms: C_11  and  C_25
    6  A    between atoms: C_13  and  C_15
    7  A    between atoms: N_20  and  C_21
    8  A    between atoms: C_21  and  N_24
                            x       y       z     vdW  Elec       q    Type
                         _______ _______ _______ _____ _____    ______ ____

>  <TORSDO>
F 8

$$$$
