=
 OpenBabel11042420143D

 25 26  0  0  0  0  0  0  0  0999 V2000
  161.8740  208.3070  150.5890 N   0  0  0  0  0  0  0  0  0  0  0  0
  161.6170  207.2770  149.8360 C   0  0  0  0  0  0  0  0  0  0  0  0
  161.4470  207.6450  152.8990 N   0  0  0  0  0  0  0  0  0  0  0  0
  159.9840  209.9860  155.1090 N   0  0  0  0  0  0  0  0  0  0  0  0
  160.6850  210.0700  152.4210 S   0  0  0  0  0  0  0  0  0  0  0  0
  161.3550  208.5680  151.9010 C   0  0  0  0  0  0  0  0  0  0  0  0
  160.9330  208.1940  154.0190 C   0  0  0  0  0  0  0  0  0  0  0  0
  160.0370  209.1110  156.1200 N   0  0  0  0  0  0  0  0  0  0  0  0
  160.4820  209.4590  153.9620 C   0  0  0  0  0  0  0  0  0  0  0  0
  160.7140  207.6680  155.5770 S   0  0  0  0  0  0  0  0  0  0  0  0
  160.8250  206.1010  150.3170 C   0  0  0  0  0  2  0  0  0  0  0  0
  161.7550  204.9340  150.6050 C   0  0  0  0  0  2  0  0  0  0  0  0
  160.7360  202.6090  150.3020 N   0  0  0  0  0  2  0  0  0  0  0  0
  161.3120  203.5030  148.2100 O   0  0  0  0  0  0  0  0  0  0  0  0
  160.9730  203.7670  151.1120 C   0  0  0  0  0  0  0  0  0  0  0  0
  160.9990  202.4960  148.8990 C   0  0  0  0  0  0  0  0  0  0  0  0
  160.5410  203.7870  152.2940 O   0  0  0  0  0  0  0  0  0  0  0  0
  160.8430  201.1770  148.2300 C   0  0  0  0  0  2  0  0  0  0  0  0
  160.8480  201.3540  146.7900 N   0  0  0  0  0  1  0  0  0  0  0  0
  162.2210  207.2150  148.4730 C   0  0  0  0  0  2  0  0  0  0  0  0
  161.4170  206.2120  146.2880 C   0  0  0  0  0  0  0  0  0  0  0  0
  162.5610  205.7500  146.0310 O   0  0  0  0  0  0  0  0  0  0  0  0
  161.1900  206.9800  147.4710 N   0  0  0  0  0  2  0  0  0  0  0  0
  160.3030  205.9920  145.3280 C   0  0  0  0  0  2  0  0  0  0  0  0
  160.5680  204.8620  144.5540 O   0  0  0  0  0  1  0  0  0  0  0  0
  1  6  1  0  0  0  0
  2 11  1  0  0  0  0
  2  1  2  0  0  0  0
  3  7  1  0  0  0  0
  4  8  2  0  0  0  0
  5  9  1  0  0  0  0
  6  5  1  0  0  0  0
  6  3  2  0  0  0  0
  7 10  1  0  0  0  0
  9  7  2  0  0  0  0
  9  4  1  0  0  0  0
 10  8  1  0  0  0  0
 11 12  1  0  0  0  0
 12 15  1  0  0  0  0
 13 15  1  0  0  0  0
 14 16  2  0  0  0  0
 15 17  2  0  0  0  0
 16 13  1  0  0  0  0
 18 16  1  0  0  0  0
 19 18  1  0  0  0  0
 20  2  1  0  0  0  0
 21 23  1  0  0  0  0
 22 21  2  0  0  0  0
 23 20  1  0  0  0  0
 24 21  1  0  0  0  0
 25 24  1  0  0  0  0
M  END
>  <MODEL>
1

>  <REMARK>
 VINA RESULT:      -7.1      0.000      0.000
  Name = 
  8 active torsions:
  status: ('A' for Active; 'I' for Inactive)
    1  A    between atoms: C_3  and  C_7
    2  A    between atoms: C_6  and  C_20
    3  A    between atoms: C_8  and  C_19
    4  A    between atoms: C_12  and  C_17
    5  A    between atoms: C_12  and  C_20
    6  A    between atoms: C_13  and  N_14
    7  A    between atoms: C_17  and  C_23
    8  A    between atoms: C_23  and  N_25
                            x       y       z     vdW  Elec       q    Type
                         _______ _______ _______ _____ _____    ______ ____

>  <TORSDO>
F 8

$$$$
=
 OpenBabel11042420143D

 25 26  0  0  0  0  0  0  0  0999 V2000
  162.0690  209.6640  150.8990 N   0  0  0  0  0  0  0  0  0  0  0  0
  161.8090  208.4870  150.4070 C   0  0  0  0  0  0  0  0  0  0  0  0
  162.2920  209.9550  153.3120 N   0  0  0  0  0  0  0  0  0  0  0  0
  160.0010  212.0510  155.0020 N   0  0  0  0  0  0  0  0  0  0  0  0
  160.2860  211.2750  152.3490 S   0  0  0  0  0  0  0  0  0  0  0  0
  161.6170  210.1950  152.1520 C   0  0  0  0  0  0  0  0  0  0  0  0
  161.6690  210.6280  154.3000 C   0  0  0  0  0  0  0  0  0  0  0  0
  160.6170  211.8350  156.1690 N   0  0  0  0  0  0  0  0  0  0  0  0
  160.5970  211.3750  153.9870 C   0  0  0  0  0  0  0  0  0  0  0  0
  161.9200  210.7950  155.9320 S   0  0  0  0  0  0  0  0  0  0  0  0
  161.0900  207.4270  151.1830 C   0  0  0  0  0  2  0  0  0  0  0  0
  162.0410  206.2840  151.5000 C   0  0  0  0  0  2  0  0  0  0  0  0
  161.0510  203.9990  152.0740 N   0  0  0  0  0  2  0  0  0  0  0  0
  161.2020  204.2370  149.7450 O   0  0  0  0  0  0  0  0  0  0  0  0
  161.4000  205.3350  152.4590 C   0  0  0  0  0  0  0  0  0  0  0  0
  161.0510  203.4790  150.7400 C   0  0  0  0  0  0  0  0  0  0  0  0
  161.1960  205.7050  153.6440 O   0  0  0  0  0  0  0  0  0  0  0  0
  160.8120  202.0280  150.5210 C   0  0  0  0  0  2  0  0  0  0  0  0
  160.1110  201.8310  149.2660 N   0  0  0  0  0  1  0  0  0  0  0  0
  162.3340  208.1410  149.0540 C   0  0  0  0  0  2  0  0  0  0  0  0
  161.4340  206.5840  147.2660 C   0  0  0  0  0  0  0  0  0  0  0  0
  162.5660  206.0570  147.0970 O   0  0  0  0  0  0  0  0  0  0  0  0
  161.2590  207.6500  148.2020 N   0  0  0  0  0  2  0  0  0  0  0  0
  160.2790  206.1210  146.4540 C   0  0  0  0  0  2  0  0  0  0  0  0
  160.5820  206.2430  145.0970 O   0  0  0  0  0  1  0  0  0  0  0  0
  1  6  1  0  0  0  0
  2  1  2  0  0  0  0
  2 11  1  0  0  0  0
  3  7  1  0  0  0  0
  4  8  2  0  0  0  0
  5  9  1  0  0  0  0
  6  5  1  0  0  0  0
  6  3  2  0  0  0  0
  7 10  1  0  0  0  0
  9  7  2  0  0  0  0
  9  4  1  0  0  0  0
 10  8  1  0  0  0  0
 11 12  1  0  0  0  0
 12 15  1  0  0  0  0
 13 15  1  0  0  0  0
 14 16  2  0  0  0  0
 15 17  2  0  0  0  0
 16 13  1  0  0  0  0
 18 16  1  0  0  0  0
 19 18  1  0  0  0  0
 20  2  1  0  0  0  0
 21 23  1  0  0  0  0
 22 21  2  0  0  0  0
 23 20  1  0  0  0  0
 24 21  1  0  0  0  0
 25 24  1  0  0  0  0
M  END
>  <MODEL>
2

>  <REMARK>
 VINA RESULT:      -6.9      1.860      1.970
  Name = 
  8 active torsions:
  status: ('A' for Active; 'I' for Inactive)
    1  A    between atoms: C_3  and  C_7
    2  A    between atoms: C_6  and  C_20
    3  A    between atoms: C_8  and  C_19
    4  A    between atoms: C_12  and  C_17
    5  A    between atoms: C_12  and  C_20
    6  A    between atoms: C_13  and  N_14
    7  A    between atoms: C_17  and  C_23
    8  A    between atoms: C_23  and  N_25
                            x       y       z     vdW  Elec       q    Type
                         _______ _______ _______ _____ _____    ______ ____

>  <TORSDO>
F 8

$$$$
=
 OpenBabel11042420143D

 25 26  0  0  0  0  0  0  0  0999 V2000
  161.6240  208.1240  148.7900 N   0  0  0  0  0  0  0  0  0  0  0  0
  161.9920  208.6540  149.9210 C   0  0  0  0  0  0  0  0  0  0  0  0
  161.1050  205.8040  149.3450 N   0  0  0  0  0  0  0  0  0  0  0  0
  161.5810  203.3070  146.8870 N   0  0  0  0  0  0  0  0  0  0  0  0
  161.9970  206.0540  146.9300 S   0  0  0  0  0  0  0  0  0  0  0  0
  161.5850  206.7270  148.4640 C   0  0  0  0  0  0  0  0  0  0  0  0
  161.1360  204.5990  148.7400 C   0  0  0  0  0  0  0  0  0  0  0  0
  161.1330  202.3600  147.7190 N   0  0  0  0  0  0  0  0  0  0  0  0
  161.5750  204.5320  147.4720 C   0  0  0  0  0  0  0  0  0  0  0  0
  160.7220  203.0580  149.1950 S   0  0  0  0  0  0  0  0  0  0  0  0
  162.2960  207.8360  151.1370 C   0  0  0  0  0  2  0  0  0  0  0  0
  161.1480  207.9330  152.1270 C   0  0  0  0  0  2  0  0  0  0  0  0
  160.9450  207.0220  154.5060 N   0  0  0  0  0  2  0  0  0  0  0  0
  161.0510  209.3650  154.5600 O   0  0  0  0  0  0  0  0  0  0  0  0
  161.2260  206.8170  153.1160 C   0  0  0  0  0  0  0  0  0  0  0  0
  160.7820  208.2880  155.1550 C   0  0  0  0  0  0  0  0  0  0  0  0
  161.5110  205.6590  152.7120 O   0  0  0  0  0  0  0  0  0  0  0  0
  160.3410  208.3310  156.5740 C   0  0  0  0  0  2  0  0  0  0  0  0
  159.9970  206.9940  157.0200 N   0  0  0  0  0  1  0  0  0  0  0  0
  162.0120  210.1410  150.0440 C   0  0  0  0  0  2  0  0  0  0  0  0
  161.6320  212.0870  148.4640 C   0  0  0  0  0  0  0  0  0  0  0  0
  161.0800  212.7680  149.3690 O   0  0  0  0  0  0  0  0  0  0  0  0
  162.0880  210.7590  148.7270 N   0  0  0  0  0  2  0  0  0  0  0  0
  161.7720  212.6560  147.0980 C   0  0  0  0  0  2  0  0  0  0  0  0
  160.6300  212.3680  146.3510 O   0  0  0  0  0  1  0  0  0  0  0  0
  1  2  2  0  0  0  0
  2 20  1  0  0  0  0
  2 11  1  0  0  0  0
  4  9  1  0  0  0  0
  4  8  2  0  0  0  0
  5  9  1  0  0  0  0
  5  6  1  0  0  0  0
  6  1  1  0  0  0  0
  6  3  2  0  0  0  0
  7 10  1  0  0  0  0
  7  3  1  0  0  0  0
  8 10  1  0  0  0  0
  9  7  2  0  0  0  0
 11 12  1  0  0  0  0
 12 15  1  0  0  0  0
 13 16  1  0  0  0  0
 14 16  2  0  0  0  0
 15 13  1  0  0  0  0
 16 18  1  0  0  0  0
 17 15  2  0  0  0  0
 18 19  1  0  0  0  0
 21 23  1  0  0  0  0
 21 22  2  0  0  0  0
 23 20  1  0  0  0  0
 24 21  1  0  0  0  0
 25 24  1  0  0  0  0
M  END
>  <MODEL>
3

>  <REMARK>
 VINA RESULT:      -6.8      3.888      6.941
  Name = 
  8 active torsions:
  status: ('A' for Active; 'I' for Inactive)
    1  A    between atoms: C_3  and  C_7
    2  A    between atoms: C_6  and  C_20
    3  A    between atoms: C_8  and  C_19
    4  A    between atoms: C_12  and  C_17
    5  A    between atoms: C_12  and  C_20
    6  A    between atoms: C_13  and  N_14
    7  A    between atoms: C_17  and  C_23
    8  A    between atoms: C_23  and  N_25
                            x       y       z     vdW  Elec       q    Type
                         _______ _______ _______ _____ _____    ______ ____

>  <TORSDO>
F 8

$$$$
=
 OpenBabel11042420143D

 25 26  0  0  0  0  0  0  0  0999 V2000
  161.2780  205.4950  153.2140 N   0  0  0  0  0  0  0  0  0  0  0  0
  161.2330  205.1320  151.9640 C   0  0  0  0  0  0  0  0  0  0  0  0
  161.3940  207.9210  152.9760 N   0  0  0  0  0  0  0  0  0  0  0  0
  160.2790  209.9580  155.6420 N   0  0  0  0  0  0  0  0  0  0  0  0
  160.4540  207.2090  155.2780 S   0  0  0  0  0  0  0  0  0  0  0  0
  161.1170  206.8220  153.7330 C   0  0  0  0  0  0  0  0  0  0  0  0
  161.0910  209.0140  153.7050 C   0  0  0  0  0  0  0  0  0  0  0  0
  160.5490  211.0690  154.9470 N   0  0  0  0  0  0  0  0  0  0  0  0
  160.5870  208.8390  154.9390 C   0  0  0  0  0  0  0  0  0  0  0  0
  161.1740  210.6500  153.4400 S   0  0  0  0  0  0  0  0  0  0  0  0
  160.8450  206.0690  150.8630 C   0  0  0  0  0  2  0  0  0  0  0  0
  162.0700  206.4430  150.0460 C   0  0  0  0  0  2  0  0  0  0  0  0
  161.2730  207.4350  147.8290 N   0  0  0  0  0  2  0  0  0  0  0  0
  161.7850  205.1630  147.5440 O   0  0  0  0  0  0  0  0  0  0  0  0
  161.7640  207.6090  149.1640 C   0  0  0  0  0  0  0  0  0  0  0  0
  161.2220  206.2000  147.1050 C   0  0  0  0  0  0  0  0  0  0  0  0
  161.9060  208.7740  149.6180 O   0  0  0  0  0  0  0  0  0  0  0  0
  160.5420  206.1560  145.7840 C   0  0  0  0  0  2  0  0  0  0  0  0
  161.4140  205.5340  144.8050 N   0  0  0  0  0  1  0  0  0  0  0  0
  161.4770  203.7000  151.6220 C   0  0  0  0  0  2  0  0  0  0  0  0
  160.7620  202.0250  149.8590 C   0  0  0  0  0  0  0  0  0  0  0  0
  161.3340  201.0800  150.4650 O   0  0  0  0  0  0  0  0  0  0  0  0
  160.8250  203.3590  150.3650 N   0  0  0  0  0  2  0  0  0  0  0  0
  160.0510  201.7550  148.5820 C   0  0  0  0  0  2  0  0  0  0  0  0
  160.9460  201.8580  147.5170 O   0  0  0  0  0  1  0  0  0  0  0  0
  1  6  1  0  0  0  0
  2  1  2  0  0  0  0
  3  7  1  0  0  0  0
  3  6  2  0  0  0  0
  6  5  1  0  0  0  0
  7  9  2  0  0  0  0
  8  4  2  0  0  0  0
  9  5  1  0  0  0  0
  9  4  1  0  0  0  0
 10  7  1  0  0  0  0
 10  8  1  0  0  0  0
 11  2  1  0  0  0  0
 12 11  1  0  0  0  0
 13 15  1  0  0  0  0
 15 17  2  0  0  0  0
 15 12  1  0  0  0  0
 16 14  2  0  0  0  0
 16 13  1  0  0  0  0
 18 16  1  0  0  0  0
 19 18  1  0  0  0  0
 20  2  1  0  0  0  0
 21 23  1  0  0  0  0
 21 22  2  0  0  0  0
 23 20  1  0  0  0  0
 24 21  1  0  0  0  0
 25 24  1  0  0  0  0
M  END
>  <MODEL>
4

>  <REMARK>
 VINA RESULT:      -6.5      1.680      3.962
  Name = 
  8 active torsions:
  status: ('A' for Active; 'I' for Inactive)
    1  A    between atoms: C_3  and  C_7
    2  A    between atoms: C_6  and  C_20
    3  A    between atoms: C_8  and  C_19
    4  A    between atoms: C_12  and  C_17
    5  A    between atoms: C_12  and  C_20
    6  A    between atoms: C_13  and  N_14
    7  A    between atoms: C_17  and  C_23
    8  A    between atoms: C_23  and  N_25
                            x       y       z     vdW  Elec       q    Type
                         _______ _______ _______ _____ _____    ______ ____

>  <TORSDO>
F 8

$$$$
=
 OpenBabel11042420143D

 25 26  0  0  0  0  0  0  0  0999 V2000
  161.4590  204.2140  151.0870 N   0  0  0  0  0  0  0  0  0  0  0  0
  161.2910  205.4540  151.4460 C   0  0  0  0  0  0  0  0  0  0  0  0
  161.6240  204.3250  148.6540 N   0  0  0  0  0  0  0  0  0  0  0  0
  160.5980  201.5360  146.7390 N   0  0  0  0  0  0  0  0  0  0  0  0
  160.6400  202.0740  149.4650 S   0  0  0  0  0  0  0  0  0  0  0  0
  161.2500  203.6570  149.7810 C   0  0  0  0  0  0  0  0  0  0  0  0
  161.3600  203.5330  147.5960 C   0  0  0  0  0  0  0  0  0  0  0  0
  160.9340  202.1550  145.6020 N   0  0  0  0  0  0  0  0  0  0  0  0
  160.8390  202.3140  147.8240 C   0  0  0  0  0  0  0  0  0  0  0  0
  161.5420  203.6850  145.9540 S   0  0  0  0  0  0  0  0  0  0  0  0
  160.9830  206.5440  150.4670 C   0  0  0  0  0  2  0  0  0  0  0  0
  162.2560  207.2920  150.1070 C   0  0  0  0  0  2  0  0  0  0  0  0
  162.0840  209.3470  148.5980 N   0  0  0  0  0  2  0  0  0  0  0  0
  161.6800  209.9620  150.8260 O   0  0  0  0  0  0  0  0  0  0  0  0
  162.1180  207.9230  148.7610 C   0  0  0  0  0  0  0  0  0  0  0  0
  161.9550  210.3120  149.6470 C   0  0  0  0  0  0  0  0  0  0  0  0
  162.0670  207.1880  147.7410 O   0  0  0  0  0  0  0  0  0  0  0  0
  162.0900  211.7580  149.3310 C   0  0  0  0  0  2  0  0  0  0  0  0
  162.7590  211.9200  148.0530 N   0  0  0  0  0  1  0  0  0  0  0  0
  161.5140  205.8260  152.8730 C   0  0  0  0  0  2  0  0  0  0  0  0
  160.8450  207.8000  154.3160 C   0  0  0  0  0  0  0  0  0  0  0  0
  160.5900  207.0500  155.2960 O   0  0  0  0  0  0  0  0  0  0  0  0
  161.2760  207.2490  153.0710 N   0  0  0  0  0  2  0  0  0  0  0  0
  160.6530  209.2680  154.4450 C   0  0  0  0  0  2  0  0  0  0  0  0
  161.5940  209.7880  155.3340 O   0  0  0  0  0  1  0  0  0  0  0  0
  1  2  2  0  0  0  0
  2 20  1  0  0  0  0
  3  6  2  0  0  0  0
  4  9  1  0  0  0  0
  5  6  1  0  0  0  0
  6  1  1  0  0  0  0
  7  9  2  0  0  0  0
  7  3  1  0  0  0  0
  8 10  1  0  0  0  0
  8  4  2  0  0  0  0
  9  5  1  0  0  0  0
 10  7  1  0  0  0  0
 11  2  1  0  0  0  0
 12 11  1  0  0  0  0
 13 15  1  0  0  0  0
 13 16  1  0  0  0  0
 15 12  1  0  0  0  0
 16 14  2  0  0  0  0
 17 15  2  0  0  0  0
 18 16  1  0  0  0  0
 19 18  1  0  0  0  0
 20 23  1  0  0  0  0
 21 24  1  0  0  0  0
 21 22  2  0  0  0  0
 23 21  1  0  0  0  0
 24 25  1  0  0  0  0
M  END
>  <MODEL>
5

>  <REMARK>
 VINA RESULT:      -6.4      3.707      8.055
  Name = 
  8 active torsions:
  status: ('A' for Active; 'I' for Inactive)
    1  A    between atoms: C_3  and  C_7
    2  A    between atoms: C_6  and  C_20
    3  A    between atoms: C_8  and  C_19
    4  A    between atoms: C_12  and  C_17
    5  A    between atoms: C_12  and  C_20
    6  A    between atoms: C_13  and  N_14
    7  A    between atoms: C_17  and  C_23
    8  A    between atoms: C_23  and  N_25
                            x       y       z     vdW  Elec       q    Type
                         _______ _______ _______ _____ _____    ______ ____

>  <TORSDO>
F 8

$$$$
=
 OpenBabel11042420143D

 25 26  0  0  0  0  0  0  0  0999 V2000
  161.9710  210.7780  149.7180 N   0  0  0  0  0  0  0  0  0  0  0  0
  162.0610  209.4820  149.8100 C   0  0  0  0  0  0  0  0  0  0  0  0
  160.8010  211.7560  147.8120 N   0  0  0  0  0  0  0  0  0  0  0  0
  162.5890  213.8610  145.6040 N   0  0  0  0  0  0  0  0  0  0  0  0
  163.2970  212.4340  147.8810 S   0  0  0  0  0  0  0  0  0  0  0  0
  161.9520  211.5590  148.5150 C   0  0  0  0  0  0  0  0  0  0  0  0
  161.0840  212.5720  146.7760 C   0  0  0  0  0  0  0  0  0  0  0  0
  161.4910  214.0730  144.8690 N   0  0  0  0  0  0  0  0  0  0  0  0
  162.3410  213.0300  146.6480 C   0  0  0  0  0  0  0  0  0  0  0  0
  160.1990  213.2200  145.5310 S   0  0  0  0  0  0  0  0  0  0  0  0
  162.0090  208.5820  148.6150 C   0  0  0  0  0  2  0  0  0  0  0  0
  161.2690  207.3010  148.9650 C   0  0  0  0  0  2  0  0  0  0  0  0
  161.4040  204.8340  148.3100 N   0  0  0  0  0  2  0  0  0  0  0  0
  161.0010  205.0240  150.6140 O   0  0  0  0  0  0  0  0  0  0  0  0
  161.6430  206.2150  148.0100 C   0  0  0  0  0  0  0  0  0  0  0  0
  161.0060  204.3050  149.5800 C   0  0  0  0  0  0  0  0  0  0  0  0
  162.1490  206.5220  146.9000 O   0  0  0  0  0  0  0  0  0  0  0  0
  160.6470  202.8660  149.6920 C   0  0  0  0  0  2  0  0  0  0  0  0
  160.8150  202.2180  148.4050 N   0  0  0  0  0  1  0  0  0  0  0  0
  162.1160  208.8600  151.1650 C   0  0  0  0  0  2  0  0  0  0  0  0
  160.8980  209.2020  153.3610 C   0  0  0  0  0  0  0  0  0  0  0  0
  160.9290  207.9690  153.6180 O   0  0  0  0  0  0  0  0  0  0  0  0
  161.4420  209.7060  152.1400 N   0  0  0  0  0  2  0  0  0  0  0  0
  160.2510  210.1360  154.3190 C   0  0  0  0  0  2  0  0  0  0  0  0
  159.7770  209.4240  155.4210 O   0  0  0  0  0  1  0  0  0  0  0  0
  1  2  2  0  0  0  0
  2 20  1  0  0  0  0
  3  6  2  0  0  0  0
  4  9  1  0  0  0  0
  5  6  1  0  0  0  0
  6  1  1  0  0  0  0
  7  3  1  0  0  0  0
  8 10  1  0  0  0  0
  8  4  2  0  0  0  0
  9  7  2  0  0  0  0
  9  5  1  0  0  0  0
 10  7  1  0  0  0  0
 11 12  1  0  0  0  0
 11  2  1  0  0  0  0
 13 16  1  0  0  0  0
 15 13  1  0  0  0  0
 15 12  1  0  0  0  0
 16 18  1  0  0  0  0
 16 14  2  0  0  0  0
 17 15  2  0  0  0  0
 19 18  1  0  0  0  0
 20 23  1  0  0  0  0
 21 22  2  0  0  0  0
 21 24  1  0  0  0  0
 23 21  1  0  0  0  0
 24 25  1  0  0  0  0
M  END
>  <MODEL>
6

>  <REMARK>
 VINA RESULT:      -6.3      4.064      6.791
  Name = 
  8 active torsions:
  status: ('A' for Active; 'I' for Inactive)
    1  A    between atoms: C_3  and  C_7
    2  A    between atoms: C_6  and  C_20
    3  A    between atoms: C_8  and  C_19
    4  A    between atoms: C_12  and  C_17
    5  A    between atoms: C_12  and  C_20
    6  A    between atoms: C_13  and  N_14
    7  A    between atoms: C_17  and  C_23
    8  A    between atoms: C_23  and  N_25
                            x       y       z     vdW  Elec       q    Type
                         _______ _______ _______ _____ _____    ______ ____

>  <TORSDO>
F 8

$$$$
=
 OpenBabel11042420143D

 25 26  0  0  0  0  0  0  0  0999 V2000
  161.0100  205.0380  150.6800 N   0  0  0  0  0  0  0  0  0  0  0  0
  161.4430  205.8680  151.5840 C   0  0  0  0  0  0  0  0  0  0  0  0
  161.6250  204.2110  148.4680 N   0  0  0  0  0  0  0  0  0  0  0  0
  160.8240  206.1590  145.6270 N   0  0  0  0  0  0  0  0  0  0  0  0
  160.4560  206.5150  148.3580 S   0  0  0  0  0  0  0  0  0  0  0  0
  161.0970  205.1890  149.2560 C   0  0  0  0  0  0  0  0  0  0  0  0
  161.5170  204.6090  147.1840 C   0  0  0  0  0  0  0  0  0  0  0  0
  161.3450  205.2370  144.8100 N   0  0  0  0  0  0  0  0  0  0  0  0
  160.9310  205.7920  146.9300 C   0  0  0  0  0  0  0  0  0  0  0  0
  161.9410  203.9510  145.7210 S   0  0  0  0  0  0  0  0  0  0  0  0
  162.2580  207.0780  151.2460 C   0  0  0  0  0  2  0  0  0  0  0  0
  161.3410  208.2420  150.9080 C   0  0  0  0  0  2  0  0  0  0  0  0
  162.1830  210.6160  150.4710 N   0  0  0  0  0  2  0  0  0  0  0  0
  161.9530  209.4670  148.4380 O   0  0  0  0  0  0  0  0  0  0  0  0
  161.9490  209.5250  151.3710 C   0  0  0  0  0  0  0  0  0  0  0  0
  162.0880  210.5630  149.0430 C   0  0  0  0  0  0  0  0  0  0  0  0
  162.2300  209.6660  152.5900 O   0  0  0  0  0  0  0  0  0  0  0  0
  162.2100  211.8180  148.2560 C   0  0  0  0  0  2  0  0  0  0  0  0
  160.9500  212.1080  147.5970 N   0  0  0  0  0  1  0  0  0  0  0  0
  161.2080  205.5510  153.0230 C   0  0  0  0  0  2  0  0  0  0  0  0
  160.9600  207.2510  154.8880 C   0  0  0  0  0  0  0  0  0  0  0  0
  159.7480  206.9520  155.0550 O   0  0  0  0  0  0  0  0  0  0  0  0
  161.7340  206.6140  153.8690 N   0  0  0  0  0  2  0  0  0  0  0  0
  161.5800  208.3070  155.7300 C   0  0  0  0  0  2  0  0  0  0  0  0
  160.6310  209.2860  156.0270 O   0  0  0  0  0  1  0  0  0  0  0  0
  1  2  2  0  0  0  0
  2 20  1  0  0  0  0
  3  6  2  0  0  0  0
  4  9  1  0  0  0  0
  5  6  1  0  0  0  0
  6  1  1  0  0  0  0
  7  3  1  0  0  0  0
  8  4  2  0  0  0  0
  8 10  1  0  0  0  0
  9  7  2  0  0  0  0
  9  5  1  0  0  0  0
 10  7  1  0  0  0  0
 11  2  1  0  0  0  0
 12 11  1  0  0  0  0
 12 15  1  0  0  0  0
 13 15  1  0  0  0  0
 14 16  2  0  0  0  0
 15 17  2  0  0  0  0
 16 13  1  0  0  0  0
 18 16  1  0  0  0  0
 19 18  1  0  0  0  0
 20 23  1  0  0  0  0
 21 22  2  0  0  0  0
 21 24  1  0  0  0  0
 23 21  1  0  0  0  0
 24 25  1  0  0  0  0
M  END
>  <MODEL>
7

>  <REMARK>
 VINA RESULT:      -6.2      3.739      7.915
  Name = 
  8 active torsions:
  status: ('A' for Active; 'I' for Inactive)
    1  A    between atoms: C_3  and  C_7
    2  A    between atoms: C_6  and  C_20
    3  A    between atoms: C_8  and  C_19
    4  A    between atoms: C_12  and  C_17
    5  A    between atoms: C_12  and  C_20
    6  A    between atoms: C_13  and  N_14
    7  A    between atoms: C_17  and  C_23
    8  A    between atoms: C_23  and  N_25
                            x       y       z     vdW  Elec       q    Type
                         _______ _______ _______ _____ _____    ______ ____

>  <TORSDO>
F 8

$$$$
=
 OpenBabel11042420143D

 25 26  0  0  0  0  0  0  0  0999 V2000
  161.9880  209.6320  150.6270 N   0  0  0  0  0  0  0  0  0  0  0  0
  161.9570  208.4110  150.1780 C   0  0  0  0  0  0  0  0  0  0  0  0
  162.3980  210.9820  148.6360 N   0  0  0  0  0  0  0  0  0  0  0  0
  160.8340  214.1410  148.3560 N   0  0  0  0  0  0  0  0  0  0  0  0
  160.8290  212.1690  150.3150 S   0  0  0  0  0  0  0  0  0  0  0  0
  161.8280  210.8370  149.8650 C   0  0  0  0  0  0  0  0  0  0  0  0
  162.0240  212.1810  148.1450 C   0  0  0  0  0  0  0  0  0  0  0  0
  161.3820  214.3400  147.1520 N   0  0  0  0  0  0  0  0  0  0  0  0
  161.2030  212.9460  148.8840 C   0  0  0  0  0  0  0  0  0  0  0  0
  162.3310  213.0110  146.7410 S   0  0  0  0  0  0  0  0  0  0  0  0
  161.5880  208.0780  148.7650 C   0  0  0  0  0  2  0  0  0  0  0  0
  160.9630  206.6940  148.7060 C   0  0  0  0  0  2  0  0  0  0  0  0
  161.5780  204.4400  147.6680 N   0  0  0  0  0  2  0  0  0  0  0  0
  160.8310  204.1240  149.8700 O   0  0  0  0  0  0  0  0  0  0  0  0
  161.6360  205.8720  147.6550 C   0  0  0  0  0  0  0  0  0  0  0  0
  161.0950  203.6270  148.7430 C   0  0  0  0  0  0  0  0  0  0  0  0
  162.2370  206.4530  146.7150 O   0  0  0  0  0  0  0  0  0  0  0  0
  160.9560  202.1600  148.5450 C   0  0  0  0  0  2  0  0  0  0  0  0
  160.6810  201.5170  149.8160 N   0  0  0  0  0  1  0  0  0  0  0  0
  162.1980  207.2880  151.1300 C   0  0  0  0  0  2  0  0  0  0  0  0
  161.2060  206.5690  153.3500 C   0  0  0  0  0  0  0  0  0  0  0  0
  161.3050  205.3500  153.0460 O   0  0  0  0  0  0  0  0  0  0  0  0
  161.6010  207.5840  152.4260 N   0  0  0  0  0  2  0  0  0  0  0  0
  160.6320  206.9540  154.6650 C   0  0  0  0  0  2  0  0  0  0  0  0
  160.8500  208.3130  154.8920 O   0  0  0  0  0  1  0  0  0  0  0  0
  2  1  2  0  0  0  0
  2 20  1  0  0  0  0
  3  6  2  0  0  0  0
  4  9  1  0  0  0  0
  6  5  1  0  0  0  0
  6  1  1  0  0  0  0
  7  3  1  0  0  0  0
  7  9  2  0  0  0  0
  8  4  2  0  0  0  0
  9  5  1  0  0  0  0
 10  8  1  0  0  0  0
 10  7  1  0  0  0  0
 11  2  1  0  0  0  0
 12 11  1  0  0  0  0
 13 16  1  0  0  0  0
 15 13  1  0  0  0  0
 15 12  1  0  0  0  0
 16 14  2  0  0  0  0
 17 15  2  0  0  0  0
 18 16  1  0  0  0  0
 18 19  1  0  0  0  0
 20 23  1  0  0  0  0
 21 24  1  0  0  0  0
 22 21  2  0  0  0  0
 23 21  1  0  0  0  0
 24 25  1  0  0  0  0
M  END
>  <MODEL>
8

>  <REMARK>
 VINA RESULT:      -6.2      3.321      5.874
  Name = 
  8 active torsions:
  status: ('A' for Active; 'I' for Inactive)
    1  A    between atoms: C_3  and  C_7
    2  A    between atoms: C_6  and  C_20
    3  A    between atoms: C_8  and  C_19
    4  A    between atoms: C_12  and  C_17
    5  A    between atoms: C_12  and  C_20
    6  A    between atoms: C_13  and  N_14
    7  A    between atoms: C_17  and  C_23
    8  A    between atoms: C_23  and  N_25
                            x       y       z     vdW  Elec       q    Type
                         _______ _______ _______ _____ _____    ______ ____

>  <TORSDO>
F 8

$$$$
=
 OpenBabel11042420143D

 25 26  0  0  0  0  0  0  0  0999 V2000
  162.0240  208.2530  149.2740 N   0  0  0  0  0  0  0  0  0  0  0  0
  161.7050  208.0630  150.5220 C   0  0  0  0  0  0  0  0  0  0  0  0
  162.9110  206.4630  147.8730 N   0  0  0  0  0  0  0  0  0  0  0  0
  160.8110  204.9980  145.4340 N   0  0  0  0  0  0  0  0  0  0  0  0
  160.4600  207.0420  147.2830 S   0  0  0  0  0  0  0  0  0  0  0  0
  161.8970  207.3130  148.1980 C   0  0  0  0  0  0  0  0  0  0  0  0
  162.4790  205.6660  146.8740 C   0  0  0  0  0  0  0  0  0  0  0  0
  161.7790  204.1510  145.0650 N   0  0  0  0  0  0  0  0  0  0  0  0
  161.2200  205.8240  146.4300 C   0  0  0  0  0  0  0  0  0  0  0  0
  163.1550  204.4330  145.9940 S   0  0  0  0  0  0  0  0  0  0  0  0
  160.9940  206.8340  150.9970 C   0  0  0  0  0  2  0  0  0  0  0  0
  162.0060  205.7670  151.3820 C   0  0  0  0  0  2  0  0  0  0  0  0
  161.0230  203.4560  151.8570 N   0  0  0  0  0  2  0  0  0  0  0  0
  161.1420  203.8080  149.5400 O   0  0  0  0  0  0  0  0  0  0  0  0
  161.3780  204.7720  152.3010 C   0  0  0  0  0  0  0  0  0  0  0  0
  161.0040  203.0030  150.4990 C   0  0  0  0  0  0  0  0  0  0  0  0
  161.1900  205.0840  153.5060 O   0  0  0  0  0  0  0  0  0  0  0  0
  160.7620  201.5640  150.2130 C   0  0  0  0  0  2  0  0  0  0  0  0
  161.0850  201.2790  148.8270 N   0  0  0  0  0  1  0  0  0  0  0  0
  161.9640  209.1560  151.5050 C   0  0  0  0  0  2  0  0  0  0  0  0
  161.0120  209.8070  153.7630 C   0  0  0  0  0  0  0  0  0  0  0  0
  161.2220  211.0300  153.5450 O   0  0  0  0  0  0  0  0  0  0  0  0
  161.3900  208.8200  152.8010 N   0  0  0  0  0  2  0  0  0  0  0  0
  160.4050  209.3830  155.0520 C   0  0  0  0  0  2  0  0  0  0  0  0
  161.0710  208.2580  155.5360 O   0  0  0  0  0  1  0  0  0  0  0  0
  1  2  2  0  0  0  0
  2 11  1  0  0  0  0
  2 20  1  0  0  0  0
  3  6  2  0  0  0  0
  4  9  1  0  0  0  0
  5  6  1  0  0  0  0
  6  1  1  0  0  0  0
  7  3  1  0  0  0  0
  8  4  2  0  0  0  0
  8 10  1  0  0  0  0
  9  7  2  0  0  0  0
  9  5  1  0  0  0  0
 10  7  1  0  0  0  0
 11 12  1  0  0  0  0
 12 15  1  0  0  0  0
 13 15  1  0  0  0  0
 14 16  2  0  0  0  0
 15 17  2  0  0  0  0
 16 13  1  0  0  0  0
 18 16  1  0  0  0  0
 19 18  1  0  0  0  0
 20 23  1  0  0  0  0
 21 24  1  0  0  0  0
 22 21  2  0  0  0  0
 23 21  1  0  0  0  0
 24 25  1  0  0  0  0
M  END
>  <MODEL>
9

>  <REMARK>
 VINA RESULT:      -6.2      3.185      6.492
  Name = 
  8 active torsions:
  status: ('A' for Active; 'I' for Inactive)
    1  A    between atoms: C_3  and  C_7
    2  A    between atoms: C_6  and  C_20
    3  A    between atoms: C_8  and  C_19
    4  A    between atoms: C_12  and  C_17
    5  A    between atoms: C_12  and  C_20
    6  A    between atoms: C_13  and  N_14
    7  A    between atoms: C_17  and  C_23
    8  A    between atoms: C_23  and  N_25
                            x       y       z     vdW  Elec       q    Type
                         _______ _______ _______ _____ _____    ______ ____

>  <TORSDO>
F 8

$$$$
