=
 OpenBabel11042422073D

 54 61  0  0  1  0  0  0  0  0999 V2000
  159.8850  214.4530  146.5800 C   0  0  0  0  0  2  0  0  0  0  0  0
  157.7870  214.1970  144.4010 C   0  0  0  0  0  0  0  0  0  0  0  0
  158.4160  214.3470  146.8120 C   0  0  0  0  0  0  0  0  0  0  0  0
  160.3170  213.2440  145.8000 C   0  0  1  0  0  3  0  0  0  0  0  0
  156.7180  214.4330  142.2450 N   0  0  0  0  0  0  0  0  0  0  0  0
  156.6540  214.4530  143.6040 C   0  0  0  0  0  3  0  0  0  0  0  0
  159.6780  213.7300  139.9600 S   0  0  0  0  0  0  0  0  0  0  0  0
  158.0670  214.1160  140.2580 C   0  0  0  0  0  0  0  0  0  0  0  0
  157.5710  214.2490  145.8250 N   0  0  0  0  0  0  0  0  0  0  0  0
  159.0530  213.8910  142.3550 C   0  0  0  0  0  0  0  0  0  0  0  0
  157.8910  214.1640  141.6250 C   0  0  0  0  0  0  0  0  0  0  0  0
  160.1790  213.6190  141.5740 C   0  0  0  0  0  3  0  0  0  0  0  0
  159.0220  213.8760  143.7550 C   0  0  0  0  0  0  0  0  0  0  0  0
  160.2090  213.5280  144.4190 O   0  0  0  0  0  0  0  0  0  0  0  0
  157.9040  214.3440  148.2000 C   0  0  0  0  0  0  0  0  0  0  0  0
  156.5240  214.3130  148.4550 C   0  0  0  0  0  3  0  0  0  0  0  0
  158.7940  214.3910  149.2850 C   0  0  0  0  0  3  0  0  0  0  0  0
  156.0430  214.3350  149.7670 C   0  0  0  0  0  3  0  0  0  0  0  0
  158.3150  214.4070  150.5980 C   0  0  0  0  0  3  0  0  0  0  0  0
  156.9390  214.3740  150.8460 C   0  0  0  0  0  0  0  0  0  0  0  0
  155.0700  213.8560  152.3930 C   0  0  0  0  0  2  0  0  0  0  0  0
  154.9870  213.3310  153.8080 C   0  0  0  0  0  2  0  0  0  0  0  0
  157.3030  214.3190  154.6090 C   0  0  0  0  0  2  0  0  0  0  0  0
  157.3520  213.6910  153.2270 C   0  0  1  0  0  3  0  0  0  0  0  0
  156.4180  213.1300  154.2830 C   0  0  2  0  0  0  0  0  0  0  0  0
  156.4570  214.4530  152.2620 C   0  0  1  0  0  3  0  0  0  0  0  0
  156.8340  211.8440  154.6720 O   0  0  0  0  0  0  0  0  0  0  0  0
  157.0180  211.4180  156.9330 O   0  0  0  0  0  0  0  0  0  0  0  0
  157.1470  212.8210  156.9240 C   0  0  0  0  0  2  0  0  0  0  0  0
  157.6510  211.9820  155.8080 C   0  0  2  0  0  0  0  0  0  0  0  0
  159.2950  210.2440  156.1920 O   0  0  0  0  0  1  0  0  0  0  0  0
  159.1190  211.5460  155.7140 C   0  0  1  0  0  3  0  0  0  0  0  0
  159.5830  211.6270  154.3400 N   0  0  0  0  0  2  0  0  0  0  0  0
  160.3170  210.4050  154.0630 C   0  0  0  0  0  1  0  0  0  0  0  0
  157.0430  214.2950  139.2800 N   0  0  0  0  0  2  0  0  0  0  0  0
  156.5560  213.1930  138.4700 C   0  0  0  0  0  2  0  0  0  0  0  0
  155.4950  212.4330  139.2380 C   0  0  0  0  0  2  0  0  0  0  0  0
  155.2940  211.0710  138.6060 C   0  0  0  0  0  1  0  0  0  0  0  0
  161.7570  212.8990  146.1440 C   0  0  0  0  0  2  0  0  0  0  0  0
  162.9120  211.3770  149.4640 N   0  0  0  0  0  2  0  0  0  0  0  0
  161.8110  212.1090  147.3670 N   0  0  0  0  0  2  0  0  0  0  0  0
  164.0050  212.7070  147.9080 O   0  0  0  0  0  0  0  0  0  0  0  0
  162.9550  212.0880  148.2290 C   0  0  0  0  0  0  0  0  0  0  0  0
  161.7760  210.5570  149.8610 C   0  0  0  0  0  2  0  0  0  0  0  0
  160.7690  208.2550  151.2140 O   0  0  0  0  0  0  0  0  0  0  0  0
  161.9880  209.1760  149.4460 N   0  0  0  0  0  2  0  0  0  0  0  0
  161.4580  208.0660  150.1710 C   0  0  0  0  0  0  0  0  0  0  0  0
  161.8310  205.1230  147.7290 C   0  0  0  0  0  2  0  0  0  0  0  0
  160.9430  205.7230  150.4610 N   0  0  0  0  0  2  0  0  0  0  0  0
  161.2560  204.1160  148.6730 C   0  0  0  0  0  0  0  0  0  0  0  0
  161.3810  204.3630  150.1470 C   0  0  0  0  0  2  0  0  0  0  0  0
  161.7640  206.6780  149.7130 C   0  0  1  0  0  3  0  0  0  0  0  0
  161.5010  206.5380  148.2080 C   0  0  0  0  0  2  0  0  0  0  0  0
  160.7470  203.0880  148.2560 O   0  0  0  0  0  0  0  0  0  0  0  0
  1  3  1  0  0  0  0
  2  9  1  0  0  0  0
  3 15  1  0  0  0  0
  4 39  1  6  0  0  0
  4  1  1  0  0  0  0
  5  6  2  0  0  0  0
  6  2  1  0  0  0  0
  7  8  1  0  0  0  0
  7 12  1  0  0  0  0
  8 11  2  0  0  0  0
  9  3  2  0  0  0  0
 10 13  1  0  0  0  0
 11  5  1  0  0  0  0
 11 10  1  0  0  0  0
 12 10  2  0  0  0  0
 13  2  2  0  0  0  0
 13 14  1  0  0  0  0
 14  4  1  0  0  0  0
 15 16  2  0  0  0  0
 15 17  1  0  0  0  0
 16 18  1  0  0  0  0
 17 19  2  0  0  0  0
 18 20  2  0  0  0  0
 19 20  1  0  0  0  0
 21 22  1  0  0  0  0
 22 25  1  0  0  0  0
 24 25  1  0  0  0  0
 24 23  1  1  0  0  0
 25 23  1  0  0  0  0
 25 27  1  1  0  0  0
 26 20  1  6  0  0  0
 26 21  1  0  0  0  0
 26 24  1  0  0  0  0
 29 28  1  0  0  0  0
 30 27  1  6  0  0  0
 30 29  1  0  0  0  0
 30 28  1  0  0  0  0
 32 30  1  0  0  0  0
 32 31  1  6  0  0  0
 33 32  1  0  0  0  0
 34 33  1  0  0  0  0
 35  8  1  0  0  0  0
 36 37  1  0  0  0  0
 36 35  1  0  0  0  0
 38 37  1  0  0  0  0
 39 41  1  0  0  0  0
 40 44  1  0  0  0  0
 41 43  1  0  0  0  0
 42 43  2  0  0  0  0
 43 40  1  0  0  0  0
 46 44  1  0  0  0  0
 46 47  1  0  0  0  0
 47 45  2  0  0  0  0
 48 53  1  0  0  0  0
 48 50  1  0  0  0  0
 50 51  1  0  0  0  0
 51 49  1  0  0  0  0
 52 47  1  1  0  0  0
 52 49  1  0  0  0  0
 53 52  1  0  0  0  0
 54 50  2  0  0  0  0
M  END
>  <MODEL>
1

>  <REMARK>
 VINA RESULT:      -5.2      0.000      0.000
  Name = 
  14 active torsions:
  status: ('A' for Active; 'I' for Inactive)
    1  A    between atoms: N_5  and  C_6
    2  A    between atoms: C_6  and  N_25
    3  A    between atoms: O_7  and  C_43
    4  A    between atoms: O_7  and  C_48
    5  A    between atoms: N_10  and  C_23
    6  A    between atoms: C_12  and  C_13
    7  A    between atoms: C_15  and  N_20
    8  A    between atoms: C_15  and  C_31
    9  A    between atoms: C_16  and  C_50
   10  A    between atoms: N_20  and  C_30
   11  A    between atoms: C_23  and  C_43
   12  A    between atoms: N_24  and  C_50
   13  A    between atoms: C_28  and  C_39
   14  A    between atoms: C_52  and  C_54
                            x       y       z     vdW  Elec       q    Type
                         _______ _______ _______ _____ _____    ______ ____

>  <TORSDO>
F 14

$$$$
=
 OpenBabel11042422073D

 54 61  0  0  1  0  0  0  0  0999 V2000
  160.8730  208.0930  149.8410 C   0  0  0  0  0  2  0  0  0  0  0  0
  160.9070  205.0860  150.2610 C   0  0  0  0  0  0  0  0  0  0  0  0
  160.7690  207.4100  151.1620 C   0  0  0  0  0  0  0  0  0  0  0  0
  162.1550  207.6490  149.1930 C   0  0  1  0  0  3  0  0  0  0  0  0
  160.5950  202.7310  149.8100 N   0  0  0  0  0  0  0  0  0  0  0  0
  160.5230  203.7910  150.6600 C   0  0  0  0  0  3  0  0  0  0  0  0
  161.7720  202.5890  146.1950 S   0  0  0  0  0  0  0  0  0  0  0  0
  161.1590  201.9030  147.6050 C   0  0  0  0  0  0  0  0  0  0  0  0
  160.7810  206.1110  151.2660 N   0  0  0  0  0  0  0  0  0  0  0  0
  161.4500  204.1630  148.0850 C   0  0  0  0  0  0  0  0  0  0  0  0
  161.0420  202.9050  148.5450 C   0  0  0  0  0  0  0  0  0  0  0  0
  161.9000  204.1790  146.7620 C   0  0  0  0  0  3  0  0  0  0  0  0
  161.4150  205.2740  148.9370 C   0  0  0  0  0  0  0  0  0  0  0  0
  161.9020  206.4870  148.4280 O   0  0  0  0  0  0  0  0  0  0  0  0
  160.6560  208.2290  152.3890 C   0  0  0  0  0  0  0  0  0  0  0  0
  160.6680  207.6270  153.6570 C   0  0  0  0  0  3  0  0  0  0  0  0
  160.5180  209.6240  152.3020 C   0  0  0  0  0  3  0  0  0  0  0  0
  160.5370  208.4010  154.8130 C   0  0  0  0  0  3  0  0  0  0  0  0
  160.3920  210.4000  153.4560 C   0  0  0  0  0  3  0  0  0  0  0  0
  160.4070  209.7940  154.7170 C   0  0  0  0  0  0  0  0  0  0  0  0
  161.3580  211.6240  156.0960 C   0  0  0  0  0  2  0  0  0  0  0  0
  160.7730  212.8220  156.8080 C   0  0  0  0  0  2  0  0  0  0  0  0
  158.4020  211.7470  157.2610 C   0  0  0  0  0  2  0  0  0  0  0  0
  158.9390  211.4780  155.8650 C   0  0  1  0  0  3  0  0  0  0  0  0
  159.2720  212.7800  156.5690 C   0  0  2  0  0  0  0  0  0  0  0  0
  160.2110  210.6480  155.9330 C   0  0  1  0  0  3  0  0  0  0  0  0
  158.6540  213.8620  155.9150 O   0  0  0  0  0  0  0  0  0  0  0  0
  156.4820  214.1600  155.1960 O   0  0  0  0  0  0  0  0  0  0  0  0
  156.3890  212.8780  155.7730 C   0  0  0  0  0  2  0  0  0  0  0  0
  157.6280  213.3460  155.1040 C   0  0  2  0  0  0  0  0  0  0  0  0
  156.8230  213.1250  152.8300 O   0  0  0  0  0  1  0  0  0  0  0  0
  157.9500  212.9950  153.6460 C   0  0  1  0  0  3  0  0  0  0  0  0
  159.0150  213.8470  153.1450 N   0  0  0  0  0  2  0  0  0  0  0  0
  159.1620  213.5600  151.7280 C   0  0  0  0  0  1  0  0  0  0  0  0
  160.8710  200.5220  147.8220 N   0  0  0  0  0  2  0  0  0  0  0  0
  161.5190  199.4750  147.0520 C   0  0  0  0  0  2  0  0  0  0  0  0
  161.0050  199.5060  145.6280 C   0  0  0  0  0  2  0  0  0  0  0  0
  161.1260  198.1230  145.0200 C   0  0  0  0  0  1  0  0  0  0  0  0
  162.6840  208.7540  148.2930 C   0  0  0  0  0  2  0  0  0  0  0  0
  161.2600  212.1510  149.3490 N   0  0  0  0  0  2  0  0  0  0  0  0
  161.8400  209.9380  148.3930 N   0  0  0  0  0  2  0  0  0  0  0  0
  162.9580  210.8410  150.2360 O   0  0  0  0  0  0  0  0  0  0  0  0
  162.0560  210.9670  149.3650 C   0  0  0  0  0  0  0  0  0  0  0  0
  160.1350  212.3300  148.4410 C   0  0  0  0  0  2  0  0  0  0  0  0
  158.5170  213.0590  146.2060 O   0  0  0  0  0  0  0  0  0  0  0  0
  160.6200  212.5380  147.0830 N   0  0  0  0  0  2  0  0  0  0  0  0
  159.7540  212.8990  146.0060 C   0  0  0  0  0  0  0  0  0  0  0  0
  160.3540  212.0710  142.3020 C   0  0  0  0  0  2  0  0  0  0  0  0
  161.7790  213.0060  144.6910 N   0  0  0  0  0  2  0  0  0  0  0  0
  161.8210  212.3550  142.3560 C   0  0  0  0  0  0  0  0  0  0  0  0
  162.3250  213.3350  143.3740 C   0  0  0  0  0  2  0  0  0  0  0  0
  160.3160  213.0410  144.6290 C   0  0  1  0  0  3  0  0  0  0  0  0
  159.7970  211.9210  143.7180 C   0  0  0  0  0  2  0  0  0  0  0  0
  162.5870  211.8450  141.5540 O   0  0  0  0  0  0  0  0  0  0  0  0
  1  3  1  0  0  0  0
  2  6  1  0  0  0  0
  2  9  1  0  0  0  0
  3  9  2  0  0  0  0
  3 15  1  0  0  0  0
  4 39  1  6  0  0  0
  4  1  1  0  0  0  0
  5  6  2  0  0  0  0
  7 12  1  0  0  0  0
  7  8  1  0  0  0  0
  8 35  1  0  0  0  0
  8 11  2  0  0  0  0
 10 11  1  0  0  0  0
 10 13  1  0  0  0  0
 11  5  1  0  0  0  0
 12 10  2  0  0  0  0
 13  2  2  0  0  0  0
 14 13  1  0  0  0  0
 14  4  1  0  0  0  0
 15 16  1  0  0  0  0
 16 18  2  0  0  0  0
 17 15  2  0  0  0  0
 17 19  1  0  0  0  0
 19 20  2  0  0  0  0
 20 18  1  0  0  0  0
 21 22  1  0  0  0  0
 24 26  1  0  0  0  0
 24 25  1  0  0  0  0
 24 23  1  1  0  0  0
 25 27  1  6  0  0  0
 25 22  1  0  0  0  0
 25 23  1  0  0  0  0
 26 20  1  6  0  0  0
 26 21  1  0  0  0  0
 28 29  1  0  0  0  0
 30 28  1  0  0  0  0
 30 29  1  0  0  0  0
 30 27  1  1  0  0  0
 32 31  1  6  0  0  0
 32 30  1  0  0  0  0
 33 32  1  0  0  0  0
 34 33  1  0  0  0  0
 36 35  1  0  0  0  0
 37 36  1  0  0  0  0
 38 37  1  0  0  0  0
 39 41  1  0  0  0  0
 40 43  1  0  0  0  0
 41 43  1  0  0  0  0
 43 42  2  0  0  0  0
 44 40  1  0  0  0  0
 46 44  1  0  0  0  0
 47 45  2  0  0  0  0
 47 46  1  0  0  0  0
 48 50  1  0  0  0  0
 48 53  1  0  0  0  0
 50 51  1  0  0  0  0
 51 49  1  0  0  0  0
 52 49  1  0  0  0  0
 52 47  1  1  0  0  0
 53 52  1  0  0  0  0
 54 50  2  0  0  0  0
M  END
>  <MODEL>
2

>  <REMARK>
 VINA RESULT:      -5.1      3.403      8.877
  Name = 
  14 active torsions:
  status: ('A' for Active; 'I' for Inactive)
    1  A    between atoms: N_5  and  C_6
    2  A    between atoms: C_6  and  N_25
    3  A    between atoms: O_7  and  C_43
    4  A    between atoms: O_7  and  C_48
    5  A    between atoms: N_10  and  C_23
    6  A    between atoms: C_12  and  C_13
    7  A    between atoms: C_15  and  N_20
    8  A    between atoms: C_15  and  C_31
    9  A    between atoms: C_16  and  C_50
   10  A    between atoms: N_20  and  C_30
   11  A    between atoms: C_23  and  C_43
   12  A    between atoms: N_24  and  C_50
   13  A    between atoms: C_28  and  C_39
   14  A    between atoms: C_52  and  C_54
                            x       y       z     vdW  Elec       q    Type
                         _______ _______ _______ _____ _____    ______ ____

>  <TORSDO>
F 14

$$$$
=
 OpenBabel11042422073D

 54 61  0  0  1  0  0  0  0  0999 V2000
  162.0540  209.1890  152.4180 C   0  0  0  0  0  2  0  0  0  0  0  0
  159.5670  209.6990  154.0820 C   0  0  0  0  0  0  0  0  0  0  0  0
  160.9620  208.2020  152.6530 C   0  0  0  0  0  0  0  0  0  0  0  0
  161.4430  210.4120  151.7940 C   0  0  1  0  0  3  0  0  0  0  0  0
  158.1400  210.6280  155.7990 N   0  0  0  0  0  0  0  0  0  0  0  0
  158.5730  209.5630  155.0710 C   0  0  0  0  0  3  0  0  0  0  0  0
  159.2040  214.2770  155.6400 S   0  0  0  0  0  0  0  0  0  0  0  0
  158.2990  213.0010  156.2600 C   0  0  0  0  0  0  0  0  0  0  0  0
  159.9250  208.4880  153.3880 N   0  0  0  0  0  0  0  0  0  0  0  0
  159.6500  212.0650  154.6100 C   0  0  0  0  0  0  0  0  0  0  0  0
  158.6660  211.8560  155.5840 C   0  0  0  0  0  0  0  0  0  0  0  0
  160.0820  213.3890  154.4960 C   0  0  0  0  0  3  0  0  0  0  0  0
  160.1030  210.9990  153.8220 C   0  0  0  0  0  0  0  0  0  0  0  0
  161.0400  211.2970  152.8210 O   0  0  0  0  0  0  0  0  0  0  0  0
  161.0530  206.8640  152.0280 C   0  0  0  0  0  0  0  0  0  0  0  0
  161.1450  205.7080  152.8180 C   0  0  0  0  0  3  0  0  0  0  0  0
  161.0650  206.7330  150.6290 C   0  0  0  0  0  3  0  0  0  0  0  0
  161.2550  204.4480  152.2240 C   0  0  0  0  0  3  0  0  0  0  0  0
  161.1690  205.4740  150.0340 C   0  0  0  0  0  3  0  0  0  0  0  0
  161.2590  204.3250  150.8260 C   0  0  0  0  0  0  0  0  0  0  0  0
  160.3790  202.0140  150.6360 C   0  0  0  0  0  2  0  0  0  0  0  0
  160.1610  201.0590  149.4840 C   0  0  0  0  0  2  0  0  0  0  0  0
  162.1140  201.9970  147.9720 C   0  0  0  0  0  2  0  0  0  0  0  0
  161.2900  203.0800  148.6450 C   0  0  1  0  0  3  0  0  0  0  0  0
  160.6350  201.7760  148.2290 C   0  0  2  0  0  0  0  0  0  0  0  0
  161.4280  202.9950  150.1570 C   0  0  1  0  0  3  0  0  0  0  0  0
  159.7220  201.9980  147.1830 O   0  0  0  0  0  0  0  0  0  0  0  0
  159.7130  201.6530  144.9010 O   0  0  0  0  0  0  0  0  0  0  0  0
  160.8500  200.9060  145.2700 C   0  0  0  0  0  2  0  0  0  0  0  0
  160.4560  202.1420  145.9930 C   0  0  2  0  0  0  0  0  0  0  0  0
  162.4220  203.3740  145.2950 O   0  0  0  0  0  1  0  0  0  0  0  0
  161.0830  203.5050  145.6770 C   0  0  1  0  0  3  0  0  0  0  0  0
  160.3390  204.1720  144.6220 N   0  0  0  0  0  2  0  0  0  0  0  0
  160.4460  205.6010  144.8600 C   0  0  0  0  0  1  0  0  0  0  0  0
  157.2820  213.0870  157.2580 N   0  0  0  0  0  2  0  0  0  0  0  0
  155.9010  212.7440  156.9750 C   0  0  0  0  0  2  0  0  0  0  0  0
  155.5880  213.0610  155.5280 C   0  0  0  0  0  2  0  0  0  0  0  0
  154.9950  214.4520  155.4340 C   0  0  0  0  0  1  0  0  0  0  0  0
  162.4640  211.0940  150.8980 C   0  0  0  0  0  2  0  0  0  0  0  0
  160.9750  211.1410  147.3680 N   0  0  0  0  0  2  0  0  0  0  0  0
  161.8370  211.5360  149.6590 N   0  0  0  0  0  2  0  0  0  0  0  0
  162.1740  209.5220  148.5200 O   0  0  0  0  0  0  0  0  0  0  0  0
  161.6870  210.6850  148.5160 C   0  0  0  0  0  0  0  0  0  0  0  0
  160.4680  212.5010  147.2450 C   0  0  0  0  0  2  0  0  0  0  0  0
  158.9100  212.4150  144.8560 O   0  0  0  0  0  0  0  0  0  0  0  0
  160.8630  213.0660  145.9620 N   0  0  0  0  0  2  0  0  0  0  0  0
  160.0360  212.9860  144.8000 C   0  0  0  0  0  0  0  0  0  0  0  0
  159.9070  214.1480  141.1400 C   0  0  0  0  0  2  0  0  0  0  0  0
  161.6550  212.7320  143.0250 N   0  0  0  0  0  2  0  0  0  0  0  0
  161.2320  213.5520  140.7830 C   0  0  0  0  0  0  0  0  0  0  0  0
  162.2590  213.3870  141.8640 C   0  0  0  0  0  2  0  0  0  0  0  0
  160.5340  213.5410  143.5060 C   0  0  1  0  0  3  0  0  0  0  0  0
  159.4090  213.5620  142.4620 C   0  0  0  0  0  2  0  0  0  0  0  0
  161.4940  213.2570  139.6280 O   0  0  0  0  0  0  0  0  0  0  0  0
  1  3  1  0  0  0  0
  2  6  1  0  0  0  0
  3  9  2  0  0  0  0
  4 39  1  6  0  0  0
  4  1  1  0  0  0  0
  4 14  1  0  0  0  0
  6  5  2  0  0  0  0
  7  8  1  0  0  0  0
  8 35  1  0  0  0  0
  9  2  1  0  0  0  0
 10 11  1  0  0  0  0
 11  5  1  0  0  0  0
 11  8  2  0  0  0  0
 12 10  2  0  0  0  0
 12  7  1  0  0  0  0
 13  2  2  0  0  0  0
 13 10  1  0  0  0  0
 14 13  1  0  0  0  0
 15  3  1  0  0  0  0
 15 16  1  0  0  0  0
 17 15  2  0  0  0  0
 18 16  2  0  0  0  0
 19 17  1  0  0  0  0
 19 20  2  0  0  0  0
 20 18  1  0  0  0  0
 22 21  1  0  0  0  0
 23 25  1  0  0  0  0
 24 23  1  6  0  0  0
 24 26  1  0  0  0  0
 25 27  1  6  0  0  0
 25 24  1  0  0  0  0
 25 22  1  0  0  0  0
 26 21  1  0  0  0  0
 26 20  1  1  0  0  0
 28 29  1  0  0  0  0
 28 30  1  0  0  0  0
 29 30  1  0  0  0  0
 30 27  1  1  0  0  0
 32 31  1  6  0  0  0
 32 30  1  0  0  0  0
 33 34  1  0  0  0  0
 33 32  1  0  0  0  0
 36 35  1  0  0  0  0
 37 36  1  0  0  0  0
 38 37  1  0  0  0  0
 40 43  1  0  0  0  0
 41 39  1  0  0  0  0
 43 42  2  0  0  0  0
 43 41  1  0  0  0  0
 44 40  1  0  0  0  0
 46 44  1  0  0  0  0
 47 45  2  0  0  0  0
 47 46  1  0  0  0  0
 48 53  1  0  0  0  0
 49 52  1  0  0  0  0
 50 48  1  0  0  0  0
 50 51  1  0  0  0  0
 51 49  1  0  0  0  0
 52 47  1  1  0  0  0
 53 52  1  0  0  0  0
 54 50  2  0  0  0  0
M  END
>  <MODEL>
3

>  <REMARK>
 VINA RESULT:      -4.0      3.757     11.777
  Name = 
  14 active torsions:
  status: ('A' for Active; 'I' for Inactive)
    1  A    between atoms: N_5  and  C_6
    2  A    between atoms: C_6  and  N_25
    3  A    between atoms: O_7  and  C_43
    4  A    between atoms: O_7  and  C_48
    5  A    between atoms: N_10  and  C_23
    6  A    between atoms: C_12  and  C_13
    7  A    between atoms: C_15  and  N_20
    8  A    between atoms: C_15  and  C_31
    9  A    between atoms: C_16  and  C_50
   10  A    between atoms: N_20  and  C_30
   11  A    between atoms: C_23  and  C_43
   12  A    between atoms: N_24  and  C_50
   13  A    between atoms: C_28  and  C_39
   14  A    between atoms: C_52  and  C_54
                            x       y       z     vdW  Elec       q    Type
                         _______ _______ _______ _____ _____    ______ ____

>  <TORSDO>
F 14

$$$$
=
 OpenBabel11042422073D

 54 61  0  0  1  0  0  0  0  0999 V2000
  162.1800  209.0330  152.6180 C   0  0  0  0  0  2  0  0  0  0  0  0
  159.6340  209.6750  154.1410 C   0  0  0  0  0  0  0  0  0  0  0  0
  161.0140  208.1170  152.7630 C   0  0  0  0  0  0  0  0  0  0  0  0
  161.6900  210.3060  151.9880 C   0  0  1  0  0  3  0  0  0  0  0  0
  158.1670  210.6630  155.7900 N   0  0  0  0  0  0  0  0  0  0  0  0
  158.5740  209.5860  155.0640 C   0  0  0  0  0  3  0  0  0  0  0  0
  159.4750  214.2350  155.7830 S   0  0  0  0  0  0  0  0  0  0  0  0
  158.4520  213.0100  156.3160 C   0  0  0  0  0  0  0  0  0  0  0  0
  159.9540  208.4570  153.4410 N   0  0  0  0  0  0  0  0  0  0  0  0
  159.8380  212.0190  154.7290 C   0  0  0  0  0  0  0  0  0  0  0  0
  158.7840  211.8570  155.6360 C   0  0  0  0  0  0  0  0  0  0  0  0
  160.3620  213.3130  154.6730 C   0  0  0  0  0  3  0  0  0  0  0  0
  160.2680  210.9420  153.9450 C   0  0  0  0  0  0  0  0  0  0  0  0
  161.2830  211.1950  153.0090 O   0  0  0  0  0  0  0  0  0  0  0  0
  161.0550  206.7880  152.1130 C   0  0  0  0  0  0  0  0  0  0  0  0
  161.0180  205.6130  152.8780 C   0  0  0  0  0  3  0  0  0  0  0  0
  161.1500  206.6850  150.7150 C   0  0  0  0  0  3  0  0  0  0  0  0
  161.0820  204.3610  152.2620 C   0  0  0  0  0  3  0  0  0  0  0  0
  161.2080  205.4340  150.0970 C   0  0  0  0  0  3  0  0  0  0  0  0
  161.1690  204.2660  150.8650 C   0  0  0  0  0  0  0  0  0  0  0  0
  160.1230  202.0430  150.5220 C   0  0  0  0  0  2  0  0  0  0  0  0
  159.9410  201.1360  149.3270 C   0  0  0  0  0  2  0  0  0  0  0  0
  162.1040  201.9350  148.0380 C   0  0  0  0  0  2  0  0  0  0  0  0
  161.3100  203.0700  148.6610 C   0  0  1  0  0  3  0  0  0  0  0  0
  160.5940  201.8360  148.1460 C   0  0  2  0  0  0  0  0  0  0  0  0
  161.2930  202.9410  150.1760 C   0  0  1  0  0  3  0  0  0  0  0  0
  159.8090  202.1570  147.0240 O   0  0  0  0  0  0  0  0  0  0  0  0
  160.0520  201.0420  145.0180 O   0  0  0  0  0  0  0  0  0  0  0  0
  161.2570  200.6880  145.6570 C   0  0  0  0  0  2  0  0  0  0  0  0
  160.6110  202.0060  145.8790 C   0  0  2  0  0  0  0  0  0  0  0  0
  160.1370  203.5640  144.0850 O   0  0  0  0  0  1  0  0  0  0  0  0
  161.0390  203.2620  145.1100 C   0  0  1  0  0  3  0  0  0  0  0  0
  161.1460  204.3950  146.0130 N   0  0  0  0  0  2  0  0  0  0  0  0
  162.4750  204.9560  145.8410 C   0  0  0  0  0  1  0  0  0  0  0  0
  157.3840  213.1440  157.2530 N   0  0  0  0  0  2  0  0  0  0  0  0
  156.0010  213.2630  156.8260 C   0  0  0  0  0  2  0  0  0  0  0  0
  155.8620  214.4490  155.8940 C   0  0  0  0  0  2  0  0  0  0  0  0
  154.5180  214.3870  155.1980 C   0  0  0  0  0  1  0  0  0  0  0  0
  162.8070  210.9360  151.1710 C   0  0  0  0  0  2  0  0  0  0  0  0
  161.2090  211.1390  147.6950 N   0  0  0  0  0  2  0  0  0  0  0  0
  162.2890  211.4410  149.9070 N   0  0  0  0  0  2  0  0  0  0  0  0
  161.8720  209.3320  148.9900 O   0  0  0  0  0  0  0  0  0  0  0  0
  161.7980  210.5840  148.8690 C   0  0  0  0  0  0  0  0  0  0  0  0
  161.1740  212.5720  147.4340 C   0  0  0  0  0  2  0  0  0  0  0  0
  158.3310  212.4650  147.2190 O   0  0  0  0  0  0  0  0  0  0  0  0
  160.2370  213.2210  148.3400 N   0  0  0  0  0  2  0  0  0  0  0  0
  158.8210  213.1300  148.1750 C   0  0  0  0  0  0  0  0  0  0  0  0
  157.3170  214.2360  151.5330 C   0  0  0  0  0  2  0  0  0  0  0  0
  156.5270  213.5840  148.7830 N   0  0  0  0  0  2  0  0  0  0  0  0
  155.9060  214.2230  151.0370 C   0  0  0  0  0  0  0  0  0  0  0  0
  155.6570  214.4530  149.5760 C   0  0  0  0  0  2  0  0  0  0  0  0
  157.9250  213.8690  149.1130 C   0  0  1  0  0  3  0  0  0  0  0  0
  158.2180  213.4680  150.5660 C   0  0  0  0  0  2  0  0  0  0  0  0
  154.9730  214.0860  151.8120 O   0  0  0  0  0  0  0  0  0  0  0  0
  1  3  1  0  0  0  0
  2  6  1  0  0  0  0
  3  9  2  0  0  0  0
  4 39  1  1  0  0  0
  4  1  1  0  0  0  0
  4 14  1  0  0  0  0
  6  5  2  0  0  0  0
  7  8  1  0  0  0  0
  8 35  1  0  0  0  0
  9  2  1  0  0  0  0
 10 11  1  0  0  0  0
 11  5  1  0  0  0  0
 11  8  2  0  0  0  0
 12 10  2  0  0  0  0
 12  7  1  0  0  0  0
 13  2  2  0  0  0  0
 13 10  1  0  0  0  0
 14 13  1  0  0  0  0
 15  3  1  0  0  0  0
 15 16  1  0  0  0  0
 17 15  2  0  0  0  0
 18 16  2  0  0  0  0
 19 17  1  0  0  0  0
 19 20  2  0  0  0  0
 20 18  1  0  0  0  0
 22 21  1  0  0  0  0
 23 25  1  0  0  0  0
 24 23  1  6  0  0  0
 24 26  1  0  0  0  0
 25 27  1  6  0  0  0
 25 24  1  0  0  0  0
 25 22  1  0  0  0  0
 26 21  1  0  0  0  0
 26 20  1  1  0  0  0
 28 29  1  0  0  0  0
 28 30  1  0  0  0  0
 29 30  1  0  0  0  0
 30 27  1  1  0  0  0
 32 31  1  6  0  0  0
 32 30  1  0  0  0  0
 32 33  1  0  0  0  0
 34 33  1  0  0  0  0
 36 35  1  0  0  0  0
 37 36  1  0  0  0  0
 38 37  1  0  0  0  0
 40 43  1  0  0  0  0
 41 39  1  0  0  0  0
 43 42  2  0  0  0  0
 43 41  1  0  0  0  0
 44 40  1  0  0  0  0
 44 46  1  0  0  0  0
 45 47  2  0  0  0  0
 47 46  1  0  0  0  0
 49 52  1  0  0  0  0
 49 51  1  0  0  0  0
 50 48  1  0  0  0  0
 50 54  2  0  0  0  0
 51 50  1  0  0  0  0
 52 47  1  6  0  0  0
 52 53  1  0  0  0  0
 53 48  1  0  0  0  0
M  END
>  <MODEL>
4

>  <REMARK>
 VINA RESULT:      -3.5      4.579     11.693
  Name = 
  14 active torsions:
  status: ('A' for Active; 'I' for Inactive)
    1  A    between atoms: N_5  and  C_6
    2  A    between atoms: C_6  and  N_25
    3  A    between atoms: O_7  and  C_43
    4  A    between atoms: O_7  and  C_48
    5  A    between atoms: N_10  and  C_23
    6  A    between atoms: C_12  and  C_13
    7  A    between atoms: C_15  and  N_20
    8  A    between atoms: C_15  and  C_31
    9  A    between atoms: C_16  and  C_50
   10  A    between atoms: N_20  and  C_30
   11  A    between atoms: C_23  and  C_43
   12  A    between atoms: N_24  and  C_50
   13  A    between atoms: C_28  and  C_39
   14  A    between atoms: C_52  and  C_54
                            x       y       z     vdW  Elec       q    Type
                         _______ _______ _______ _____ _____    ______ ____

>  <TORSDO>
F 14

$$$$
