=
 OpenBabel11042420043D

 42 49  0  0  1  0  0  0  0  0999 V2000
  161.1940  211.1100  147.1610 O   0  0  0  0  0  1  0  0  0  0  0  0
  161.3470  205.8000  152.0430 C   0  0  2  0  0  3  0  0  0  0  0  0
  162.1120  207.6840  150.3460 C   0  0  2  0  0  3  0  0  0  0  0  0
  160.2080  206.0200  149.6370 C   0  0  0  0  0  2  0  0  0  0  0  0
  161.0430  212.5960  149.1280 C   0  0  0  0  0  0  0  0  0  0  0  0
  161.1090  206.5870  150.7290 C   0  0  1  0  0  0  0  0  0  0  0  0
  161.9900  210.5330  150.6000 C   0  0  0  0  0  0  0  0  0  0  0  0
  161.9870  203.7880  150.6210 C   0  0  0  0  0  2  0  0  0  0  0  0
  160.8110  208.0320  151.0470 C   0  0  1  0  0  3  0  0  0  0  0  0
  161.1410  212.8860  150.5380 C   0  0  0  0  0  3  0  0  0  0  0  0
  161.2550  208.4650  152.4430 C   0  0  2  0  0  3  0  0  0  0  0  0
  162.0160  208.4720  148.6890 S   0  0  0  0  0  0  0  0  0  0  0  0
  161.6090  211.7960  151.2050 C   0  0  0  0  0  0  0  0  0  0  0  0
  161.6320  207.4210  154.5770 O   0  0  0  0  0  1  0  0  0  0  0  0
  161.0120  203.6990  149.5370 N   0  0  0  0  0  0  0  0  0  0  0  0
  160.7240  207.5070  153.5200 C   0  0  2  0  0  3  0  0  0  0  0  0
  161.2900  204.2790  151.8860 C   0  0  0  0  0  2  0  0  0  0  0  0
  162.0870  210.7170  151.9970 C   0  0  1  0  0  3  0  0  0  0  0  0
  161.0500  209.9070  152.7180 N   0  0  0  0  0  0  0  0  0  0  0  0
  161.3950  211.2940  148.5250 C   0  0  0  0  0  0  0  0  0  0  0  0
  160.4120  206.2050  153.0330 O   0  0  0  0  0  0  0  0  0  0  0  0
  161.9290  210.1910  149.2860 C   0  0  0  0  0  0  0  0  0  0  0  0
  160.9750  204.9770  148.8340 C   0  0  0  0  0  2  0  0  0  0  0  0
  160.5220  213.6780  148.2470 C   0  0  0  0  0  1  0  0  0  0  0  0
  161.5150  202.7240  148.5810 C   0  0  0  0  0  2  0  0  0  0  0  0
  160.8400  201.4030  148.7690 C   0  0  0  0  0  0  0  0  0  0  0  0
  159.6760  201.3260  149.4100 C   0  0  0  0  0  2  0  0  0  0  0  0
  161.4090  200.1870  148.1230 C   0  0  0  0  0  1  0  0  0  0  0  0
  159.6460  210.2900  152.4610 C   0  0  0  0  0  2  0  0  0  0  0  0
  156.9510  211.2320  155.9700 C   0  0  0  0  0  0  0  0  0  0  0  0
  155.1680  212.4540  156.9480 N   0  0  0  0  0  2  0  0  0  0  0  0
  157.4490  212.5480  156.2190 N   0  0  0  0  0  0  0  0  0  0  0  0
  159.8140  212.4150  153.8120 C   0  0  0  0  0  2  0  0  0  0  0  0
  159.0050  210.2970  154.8920 C   0  0  0  0  0  2  0  0  0  0  0  0
  158.7820  213.0920  155.9910 C   0  0  0  0  0  2  0  0  0  0  0  0
  157.6010  210.2160  155.3960 C   0  0  0  0  0  3  0  0  0  0  0  0
  156.3490  213.2460  156.8030 C   0  0  0  0  0  0  0  0  0  0  0  0
  158.9580  213.4530  154.5250 C   0  0  0  0  0  2  0  0  0  0  0  0
  154.8070  210.1920  156.3580 O   0  0  0  0  0  0  0  0  0  0  0  0
  155.5700  211.1930  156.4250 C   0  0  0  0  0  0  0  0  0  0  0  0
  159.0550  211.1090  153.6060 C   0  0  2  0  0  3  0  0  0  0  0  0
  156.4080  214.4530  157.1570 O   0  0  0  0  0  0  0  0  0  0  0  0
  1 20  1  0  0  0  0
  2 17  1  6  0  0  0
  2 21  1  0  0  0  0
  3 12  1  6  0  0  0
  3  6  1  0  0  0  0
  3  9  1  0  0  0  0
  5 10  1  0  0  0  0
  6  4  1  6  0  0  0
  6  9  1  0  0  0  0
  6  2  1  0  0  0  0
  7 13  1  0  0  0  0
  7 18  1  0  0  0  0
  8 17  1  0  0  0  0
  9 11  1  0  0  0  0
 10 13  2  0  0  0  0
 11 19  1  0  0  0  0
 11 16  1  0  0  0  0
 12 22  1  0  0  0  0
 13 18  1  0  0  0  0
 15  8  1  0  0  0  0
 16 14  1  0  0  0  0
 18 19  1  0  0  0  0
 20  5  2  0  0  0  0
 20 22  1  0  0  0  0
 21 16  1  0  0  0  0
 22  7  2  0  0  0  0
 23 15  1  0  0  0  0
 23  4  1  0  0  0  0
 24  5  1  0  0  0  0
 25 26  1  0  0  0  0
 25 15  1  0  0  0  0
 26 27  2  0  0  0  0
 28 26  1  0  0  0  0
 29 19  1  0  0  0  0
 29 41  1  0  0  0  0
 30 32  1  0  0  0  0
 30 40  1  0  0  0  0
 32 37  1  0  0  0  0
 33 38  1  0  0  0  0
 34 36  1  0  0  0  0
 35 32  1  0  0  0  0
 36 30  2  0  0  0  0
 37 31  1  0  0  0  0
 37 42  2  0  0  0  0
 38 35  1  0  0  0  0
 39 40  2  0  0  0  0
 40 31  1  0  0  0  0
 41 33  1  0  0  0  0
 41 34  1  0  0  0  0
M  END
>  <MODEL>
1

>  <REMARK>
 VINA RESULT:      -5.5      0.000      0.000
  Name = 
  4 active torsions:
  status: ('A' for Active; 'I' for Inactive)
    1  A    between atoms: C_18  and  C_22
    2  A    between atoms: N_21  and  C_22
    3  A    between atoms: C_29  and  N_34
    4  A    between atoms: C_29  and  C_39
                            x       y       z     vdW  Elec       q    Type
                         _______ _______ _______ _____ _____    ______ ____

>  <TORSDO>
F 4

$$$$
