=
 OpenBabel11042421073D

 36 39  0  0  1  0  0  0  0  0999 V2000
  160.7120  209.2880  153.3830 C   0  0  1  0  0  3  0  0  0  0  0  0
  159.6750  208.0630  155.7920 N   0  0  0  0  0  1  0  0  0  0  0  0
  161.2710  209.6060  154.7370 C   0  0  0  0  0  0  0  0  0  0  0  0
  162.8330  210.8140  156.1430 C   0  0  0  0  0  3  0  0  0  0  0  0
  160.7460  208.9970  155.8890 C   0  0  0  0  0  0  0  0  0  0  0  0
  162.2850  210.1830  157.2590 C   0  0  0  0  0  3  0  0  0  0  0  0
  162.3230  210.5220  154.8780 C   0  0  0  0  0  3  0  0  0  0  0  0
  161.2620  209.2980  157.1110 N   0  0  0  0  0  0  0  0  0  0  0  0
  160.3630  210.5700  152.6350 C   0  0  0  0  0  2  0  0  0  0  0  0
  159.0900  211.1810  153.1870 C   0  0  2  0  0  3  0  0  0  0  0  0
  158.6990  212.3780  152.3540 C   0  0  0  0  0  2  0  0  0  0  0  0
  159.3910  212.5830  153.6910 C   0  0  1  0  0  3  0  0  0  0  0  0
  155.9360  213.1010  154.8440 C   0  0  0  0  0  3  0  0  0  0  0  0
  158.7470  212.7470  156.0350 C   0  0  0  0  0  3  0  0  0  0  0  0
  156.5760  213.0900  157.2550 C   0  0  0  0  0  3  0  0  0  0  0  0
  158.4070  212.9510  154.7590 C   0  0  0  0  0  0  0  0  0  0  0  0
  155.6600  212.8490  156.1240 C   0  0  0  0  0  3  0  0  0  0  0  0
  157.9140  213.0490  157.2160 C   0  0  0  0  0  3  0  0  0  0  0  0
  157.1990  213.7580  154.3950 C   0  0  0  0  0  2  0  0  0  0  0  0
  161.6630  208.4900  152.6190 N   0  0  0  0  0  2  0  0  0  0  0  0
  161.2570  206.3460  150.9160 S   0  0  0  0  0  0  0  0  0  0  0  0
  161.4890  207.0890  152.4060 C   0  0  0  0  0  0  0  0  0  0  0  0
  161.1540  204.7920  151.5490 C   0  0  0  0  0  0  0  0  0  0  0  0
  161.4770  206.1440  153.4200 C   0  0  0  0  0  3  0  0  0  0  0  0
  161.2900  204.8410  152.9330 C   0  0  0  0  0  3  0  0  0  0  0  0
  160.9600  203.5690  150.7640 C   0  0  0  0  0  0  0  0  0  0  0  0
  161.2590  202.4490  151.2610 O   0  0  0  0  0  0  0  0  0  0  0  0
  160.4500  203.6510  149.4700 O   0  0  0  0  0  0  0  0  0  0  0  0
  161.4520  204.2930  146.8850 N   0  0  0  0  0  2  0  0  0  0  0  0
  160.6700  202.6450  148.5560 N   0  0  0  0  0  2  0  0  0  0  0  0
  161.3290  202.0020  146.4270 O   0  0  0  0  0  0  0  0  0  0  0  0
  161.1560  202.9400  147.2500 C   0  0  0  0  0  0  0  0  0  0  0  0
  162.4600  205.9930  145.6600 O   0  0  0  0  0  1  0  0  0  0  0  0
  162.9810  203.8430  145.1880 F   0  0  0  0  0  0  0  0  0  0  0  0
  161.9620  204.6930  145.5780 C   0  0  1  0  0  0  0  0  0  0  0  0
  160.8470  204.6570  144.5490 C   0  0  0  0  0  1  0  0  0  0  0  0
  1  9  1  6  0  0  0
  1  3  1  0  0  0  0
  2  5  1  0  0  0  0
  3  7  2  0  0  0  0
  3  5  1  0  0  0  0
  4  6  2  0  0  0  0
  5  8  2  0  0  0  0
  7  4  1  0  0  0  0
  8  6  1  0  0  0  0
 10  9  1  6  0  0  0
 10 12  1  0  0  0  0
 11 10  1  0  0  0  0
 11 12  1  0  0  0  0
 12 16  1  1  0  0  0
 13 17  2  0  0  0  0
 14 18  1  0  0  0  0
 16 14  2  0  0  0  0
 17 15  1  0  0  0  0
 18 15  2  0  0  0  0
 19 16  1  0  0  0  0
 19 13  1  0  0  0  0
 20  1  1  0  0  0  0
 21 23  1  0  0  0  0
 21 22  1  0  0  0  0
 22 20  1  0  0  0  0
 22 24  2  0  0  0  0
 23 25  2  0  0  0  0
 25 24  1  0  0  0  0
 26 27  2  0  0  0  0
 26 23  1  0  0  0  0
 28 26  1  0  0  0  0
 29 32  1  0  0  0  0
 30 28  1  0  0  0  0
 31 32  2  0  0  0  0
 32 30  1  0  0  0  0
 34 35  1  0  0  0  0
 35 36  1  6  0  0  0
 35 33  1  0  0  0  0
 35 29  1  0  0  0  0
M  END
>  <MODEL>
1

>  <REMARK>
 VINA RESULT:      -7.6      0.000      0.000
  Name = 
  10 active torsions:
  status: ('A' for Active; 'I' for Inactive)
    1  A    between atoms: C_2  and  O_13
    2  A    between atoms: C_2  and  C_19
    3  A    between atoms: C_4  and  C_31
    4  A    between atoms: C_7  and  C_8
    5  A    between atoms: C_7  and  C_31
    6  A    between atoms: N_11  and  C_33
    7  A    between atoms: O_13  and  N_16
    8  A    between atoms: C_15  and  C_32
    9  A    between atoms: C_17  and  N_22
   10  A    between atoms: N_22  and  C_31
                            x       y       z     vdW  Elec       q    Type
                         _______ _______ _______ _____ _____    ______ ____

>  <TORSDO>
F 10

$$$$
=
 OpenBabel11042421073D

 36 39  0  0  1  0  0  0  0  0999 V2000
  162.0280  208.6030  151.6850 C   0  0  1  0  0  3  0  0  0  0  0  0
  161.8340  206.1390  153.1930 N   0  0  0  0  0  1  0  0  0  0  0  0
  161.3430  208.5410  153.0170 C   0  0  0  0  0  0  0  0  0  0  0  0
  160.1280  209.6210  154.8150 C   0  0  0  0  0  3  0  0  0  0  0  0
  161.2630  207.3310  153.7250 C   0  0  0  0  0  0  0  0  0  0  0  0
  160.0750  208.3980  155.4860 C   0  0  0  0  0  3  0  0  0  0  0  0
  160.7660  209.6900  153.5770 C   0  0  0  0  0  3  0  0  0  0  0  0
  160.6360  207.2910  154.9320 N   0  0  0  0  0  0  0  0  0  0  0  0
  161.0700  208.1920  150.5720 C   0  0  0  0  0  2  0  0  0  0  0  0
  161.6050  206.9870  149.8250 C   0  0  2  0  0  3  0  0  0  0  0  0
  161.2320  207.0890  148.3650 C   0  0  0  0  0  2  0  0  0  0  0  0
  160.4360  206.1790  149.2850 C   0  0  1  0  0  3  0  0  0  0  0  0
  160.4620  202.6850  150.4370 C   0  0  0  0  0  3  0  0  0  0  0  0
  161.0840  204.2890  147.8900 C   0  0  0  0  0  3  0  0  0  0  0  0
  161.2510  201.8050  148.2400 C   0  0  0  0  0  3  0  0  0  0  0  0
  160.8510  204.7490  149.1230 C   0  0  0  0  0  0  0  0  0  0  0  0
  160.5130  201.7230  149.5150 C   0  0  0  0  0  3  0  0  0  0  0  0
  161.5020  202.9170  147.5380 C   0  0  0  0  0  3  0  0  0  0  0  0
  161.2370  203.9570  150.3350 C   0  0  0  0  0  2  0  0  0  0  0  0
  162.5480  209.9440  151.4460 N   0  0  0  0  0  2  0  0  0  0  0  0
  162.3620  210.7040  148.7910 S   0  0  0  0  0  0  0  0  0  0  0  0
  162.0170  210.8000  150.4340 C   0  0  0  0  0  0  0  0  0  0  0  0
  161.3770  211.9980  148.3650 C   0  0  0  0  0  0  0  0  0  0  0  0
  161.1410  211.8460  150.6790 C   0  0  0  0  0  3  0  0  0  0  0  0
  160.7770  212.5240  149.5060 C   0  0  0  0  0  3  0  0  0  0  0  0
  161.1720  212.4940  147.0010 C   0  0  0  0  0  0  0  0  0  0  0  0
  161.9560  213.3580  146.5210 O   0  0  0  0  0  0  0  0  0  0  0  0
  160.1100  212.0100  146.2400 O   0  0  0  0  0  0  0  0  0  0  0  0
  160.2490  212.1560  143.4020 N   0  0  0  0  0  2  0  0  0  0  0  0
  159.2750  212.8680  145.5610 N   0  0  0  0  0  2  0  0  0  0  0  0
  158.5710  213.7800  143.5480 O   0  0  0  0  0  0  0  0  0  0  0  0
  159.3340  212.9720  144.1410 C   0  0  0  0  0  0  0  0  0  0  0  0
  161.0330  211.0290  141.5250 O   0  0  0  0  0  1  0  0  0  0  0  0
  159.1230  212.2300  141.3660 F   0  0  0  0  0  0  0  0  0  0  0  0
  160.3770  212.1840  141.9490 C   0  0  1  0  0  0  0  0  0  0  0  0
  161.1830  213.3950  141.5180 C   0  0  0  0  0  1  0  0  0  0  0  0
  1  9  1  6  0  0  0
  1  3  1  0  0  0  0
  2  5  1  0  0  0  0
  3  7  2  0  0  0  0
  3  5  1  0  0  0  0
  4  6  2  0  0  0  0
  5  8  2  0  0  0  0
  7  4  1  0  0  0  0
  8  6  1  0  0  0  0
 10  9  1  1  0  0  0
 11 12  1  0  0  0  0
 11 10  1  0  0  0  0
 12 16  1  6  0  0  0
 12 10  1  0  0  0  0
 14 16  2  0  0  0  0
 15 17  1  0  0  0  0
 16 19  1  0  0  0  0
 17 13  2  0  0  0  0
 18 14  1  0  0  0  0
 18 15  2  0  0  0  0
 19 13  1  0  0  0  0
 20  1  1  0  0  0  0
 21 22  1  0  0  0  0
 22 24  2  0  0  0  0
 22 20  1  0  0  0  0
 23 21  1  0  0  0  0
 23 25  2  0  0  0  0
 25 24  1  0  0  0  0
 26 23  1  0  0  0  0
 27 26  2  0  0  0  0
 28 26  1  0  0  0  0
 29 32  1  0  0  0  0
 30 28  1  0  0  0  0
 31 32  2  0  0  0  0
 32 30  1  0  0  0  0
 33 35  1  0  0  0  0
 34 35  1  0  0  0  0
 35 36  1  6  0  0  0
 35 29  1  0  0  0  0
M  END
>  <MODEL>
2

>  <REMARK>
 VINA RESULT:      -7.2      4.904      8.626
  Name = 
  10 active torsions:
  status: ('A' for Active; 'I' for Inactive)
    1  A    between atoms: C_2  and  O_13
    2  A    between atoms: C_2  and  C_19
    3  A    between atoms: C_4  and  C_31
    4  A    between atoms: C_7  and  C_8
    5  A    between atoms: C_7  and  C_31
    6  A    between atoms: N_11  and  C_33
    7  A    between atoms: O_13  and  N_16
    8  A    between atoms: C_15  and  C_32
    9  A    between atoms: C_17  and  N_22
   10  A    between atoms: N_22  and  C_31
                            x       y       z     vdW  Elec       q    Type
                         _______ _______ _______ _____ _____    ______ ____

>  <TORSDO>
F 10

$$$$
=
 OpenBabel11042421073D

 36 39  0  0  1  0  0  0  0  0999 V2000
  160.1040  209.6980  153.7850 C   0  0  1  0  0  3  0  0  0  0  0  0
  159.8340  207.8320  155.9830 N   0  0  0  0  0  1  0  0  0  0  0  0
  161.0170  209.7360  154.9730 C   0  0  0  0  0  0  0  0  0  0  0  0
  162.8810  210.7230  156.1690 C   0  0  0  0  0  3  0  0  0  0  0  0
  160.8610  208.8190  156.0260 C   0  0  0  0  0  0  0  0  0  0  0  0
  162.6920  209.7900  157.1900 C   0  0  0  0  0  3  0  0  0  0  0  0
  162.0380  210.6920  155.0570 C   0  0  0  0  0  3  0  0  0  0  0  0
  161.6970  208.8690  157.0980 N   0  0  0  0  0  0  0  0  0  0  0  0
  159.2440  210.9560  153.7310 C   0  0  0  0  0  2  0  0  0  0  0  0
  159.6290  211.8150  152.5440 C   0  0  2  0  0  3  0  0  0  0  0  0
  159.7890  213.2510  152.9880 C   0  0  0  0  0  2  0  0  0  0  0  0
  158.5180  212.8170  152.2760 C   0  0  1  0  0  3  0  0  0  0  0  0
  160.3400  213.4430  149.1410 C   0  0  0  0  0  3  0  0  0  0  0  0
  157.4510  213.0030  150.0930 C   0  0  0  0  0  3  0  0  0  0  0  0
  158.2690  213.4120  147.7510 C   0  0  0  0  0  3  0  0  0  0  0  0
  158.5440  213.2160  150.8320 C   0  0  0  0  0  0  0  0  0  0  0  0
  159.7090  213.1990  147.9920 C   0  0  0  0  0  3  0  0  0  0  0  0
  157.2910  213.3310  148.6620 C   0  0  0  0  0  3  0  0  0  0  0  0
  159.6730  214.0600  150.3250 C   0  0  0  0  0  2  0  0  0  0  0  0
  160.8770  209.5520  152.5580 N   0  0  0  0  0  2  0  0  0  0  0  0
  160.9710  206.7860  152.6240 S   0  0  0  0  0  0  0  0  0  0  0  0
  161.0220  208.2980  151.8910 C   0  0  0  0  0  0  0  0  0  0  0  0
  161.2090  205.9290  151.1980 C   0  0  0  0  0  0  0  0  0  0  0  0
  161.2370  208.1620  150.5280 C   0  0  0  0  0  3  0  0  0  0  0  0
  161.3420  206.8190  150.1350 C   0  0  0  0  0  3  0  0  0  0  0  0
  161.2620  204.4680  151.0860 C   0  0  0  0  0  0  0  0  0  0  0  0
  162.1640  203.8240  151.6870 O   0  0  0  0  0  0  0  0  0  0  0  0
  160.3150  203.7990  150.3130 O   0  0  0  0  0  0  0  0  0  0  0  0
  161.2860  204.2690  147.6800 N   0  0  0  0  0  2  0  0  0  0  0  0
  160.6740  202.7320  149.5190 N   0  0  0  0  0  2  0  0  0  0  0  0
  161.4500  201.9440  147.4810 O   0  0  0  0  0  0  0  0  0  0  0  0
  161.1480  202.9390  148.1920 C   0  0  0  0  0  0  0  0  0  0  0  0
  163.1610  204.6850  146.3700 O   0  0  0  0  0  1  0  0  0  0  0  0
  161.4110  203.5760  145.4610 F   0  0  0  0  0  0  0  0  0  0  0  0
  161.7710  204.5820  146.3400 C   0  0  1  0  0  0  0  0  0  0  0  0
  161.1900  205.9020  145.8680 C   0  0  0  0  0  1  0  0  0  0  0  0
  1  9  1  6  0  0  0
  1  3  1  0  0  0  0
  2  5  1  0  0  0  0
  3  7  2  0  0  0  0
  3  5  1  0  0  0  0
  4  6  2  0  0  0  0
  5  8  2  0  0  0  0
  7  4  1  0  0  0  0
  8  6  1  0  0  0  0
 10 11  1  0  0  0  0
 10  9  1  1  0  0  0
 12 16  1  6  0  0  0
 12 10  1  0  0  0  0
 12 11  1  0  0  0  0
 13 19  1  0  0  0  0
 14 16  2  0  0  0  0
 15 17  1  0  0  0  0
 15 18  2  0  0  0  0
 17 13  2  0  0  0  0
 18 14  1  0  0  0  0
 19 16  1  0  0  0  0
 20  1  1  0  0  0  0
 22 20  1  0  0  0  0
 22 21  1  0  0  0  0
 23 21  1  0  0  0  0
 24 22  2  0  0  0  0
 25 24  1  0  0  0  0
 25 23  2  0  0  0  0
 26 23  1  0  0  0  0
 26 27  2  0  0  0  0
 28 26  1  0  0  0  0
 29 32  1  0  0  0  0
 30 28  1  0  0  0  0
 31 32  2  0  0  0  0
 32 30  1  0  0  0  0
 34 35  1  0  0  0  0
 35 36  1  6  0  0  0
 35 33  1  0  0  0  0
 35 29  1  0  0  0  0
M  END
>  <MODEL>
3

>  <REMARK>
 VINA RESULT:      -7.1      1.958      3.487
  Name = 
  10 active torsions:
  status: ('A' for Active; 'I' for Inactive)
    1  A    between atoms: C_2  and  O_13
    2  A    between atoms: C_2  and  C_19
    3  A    between atoms: C_4  and  C_31
    4  A    between atoms: C_7  and  C_8
    5  A    between atoms: C_7  and  C_31
    6  A    between atoms: N_11  and  C_33
    7  A    between atoms: O_13  and  N_16
    8  A    between atoms: C_15  and  C_32
    9  A    between atoms: C_17  and  N_22
   10  A    between atoms: N_22  and  C_31
                            x       y       z     vdW  Elec       q    Type
                         _______ _______ _______ _____ _____    ______ ____

>  <TORSDO>
F 10

$$$$
=
 OpenBabel11042421073D

 36 39  0  0  1  0  0  0  0  0999 V2000
  161.6370  209.3950  153.6420 C   0  0  1  0  0  3  0  0  0  0  0  0
  162.6890  210.0570  156.2570 N   0  0  0  0  0  1  0  0  0  0  0  0
  161.1590  208.7070  154.8850 C   0  0  0  0  0  0  0  0  0  0  0  0
  159.7440  207.0710  155.9790 C   0  0  0  0  0  3  0  0  0  0  0  0
  161.6900  209.0480  156.1410 C   0  0  0  0  0  0  0  0  0  0  0  0
  160.2950  207.4440  157.2050 C   0  0  0  0  0  3  0  0  0  0  0  0
  160.1790  207.7080  154.8160 C   0  0  0  0  0  3  0  0  0  0  0  0
  161.2470  208.4130  157.2600 N   0  0  0  0  0  0  0  0  0  0  0  0
  160.8410  208.9220  152.4310 C   0  0  0  0  0  2  0  0  0  0  0  0
  161.5700  207.8030  151.7160 C   0  0  2  0  0  3  0  0  0  0  0  0
  162.1710  208.3260  150.4330 C   0  0  0  0  0  2  0  0  0  0  0  0
  160.8790  207.5270  150.3900 C   0  0  1  0  0  3  0  0  0  0  0  0
  160.7430  203.9110  151.0550 C   0  0  0  0  0  3  0  0  0  0  0  0
  161.1480  205.8160  148.6770 C   0  0  0  0  0  3  0  0  0  0  0  0
  161.1320  203.3020  148.6670 C   0  0  0  0  0  3  0  0  0  0  0  0
  161.1330  206.1090  149.9810 C   0  0  0  0  0  0  0  0  0  0  0  0
  160.5750  203.0910  150.0170 C   0  0  0  0  0  3  0  0  0  0  0  0
  161.3840  204.4820  148.0880 C   0  0  0  0  0  3  0  0  0  0  0  0
  161.6100  205.1250  151.0050 C   0  0  0  0  0  2  0  0  0  0  0  0
  161.5320  210.8410  153.7930 N   0  0  0  0  0  2  0  0  0  0  0  0
  160.0970  212.2570  151.8960 S   0  0  0  0  0  0  0  0  0  0  0  0
  160.3650  211.5680  153.4060 C   0  0  0  0  0  0  0  0  0  0  0  0
  158.5800  212.8670  152.2890 C   0  0  0  0  0  0  0  0  0  0  0  0
  159.2870  211.8110  154.2420 C   0  0  0  0  0  3  0  0  0  0  0  0
  158.2740  212.5460  153.6080 C   0  0  0  0  0  3  0  0  0  0  0  0
  157.7080  213.6170  151.3790 C   0  0  0  0  0  0  0  0  0  0  0  0
  156.4550  213.5050  151.4750 O   0  0  0  0  0  0  0  0  0  0  0  0
  158.2670  214.4470  150.4100 O   0  0  0  0  0  0  0  0  0  0  0  0
  160.1320  213.4890  148.4860 N   0  0  0  0  0  2  0  0  0  0  0  0
  157.8920  214.3480  149.0890 N   0  0  0  0  0  2  0  0  0  0  0  0
  158.4480  213.8250  146.8990 O   0  0  0  0  0  0  0  0  0  0  0  0
  158.8110  213.8860  148.1030 C   0  0  0  0  0  0  0  0  0  0  0  0
  160.7430  211.7480  147.0710 O   0  0  0  0  0  1  0  0  0  0  0  0
  161.2680  213.8700  146.4900 F   0  0  0  0  0  0  0  0  0  0  0  0
  161.1390  212.9950  147.5530 C   0  0  1  0  0  0  0  0  0  0  0  0
  162.4760  212.8490  148.2560 C   0  0  0  0  0  1  0  0  0  0  0  0
  1  9  1  6  0  0  0
  1 20  1  0  0  0  0
  1  3  1  0  0  0  0
  3  5  1  0  0  0  0
  4  6  2  0  0  0  0
  5  2  1  0  0  0  0
  5  8  2  0  0  0  0
  6  8  1  0  0  0  0
  7  3  2  0  0  0  0
  7  4  1  0  0  0  0
 10  9  1  1  0  0  0
 11 10  1  0  0  0  0
 12 16  1  6  0  0  0
 12 11  1  0  0  0  0
 12 10  1  0  0  0  0
 14 16  2  0  0  0  0
 15 17  1  0  0  0  0
 16 19  1  0  0  0  0
 17 13  2  0  0  0  0
 18 15  2  0  0  0  0
 18 14  1  0  0  0  0
 19 13  1  0  0  0  0
 21 23  1  0  0  0  0
 21 22  1  0  0  0  0
 22 20  1  0  0  0  0
 22 24  2  0  0  0  0
 23 25  2  0  0  0  0
 25 24  1  0  0  0  0
 26 27  2  0  0  0  0
 26 23  1  0  0  0  0
 28 26  1  0  0  0  0
 30 28  1  0  0  0  0
 31 32  2  0  0  0  0
 32 29  1  0  0  0  0
 32 30  1  0  0  0  0
 33 35  1  0  0  0  0
 34 35  1  0  0  0  0
 35 36  1  1  0  0  0
 35 29  1  0  0  0  0
M  END
>  <MODEL>
4

>  <REMARK>
 VINA RESULT:      -7.1      4.588      8.366
  Name = 
  10 active torsions:
  status: ('A' for Active; 'I' for Inactive)
    1  A    between atoms: C_2  and  O_13
    2  A    between atoms: C_2  and  C_19
    3  A    between atoms: C_4  and  C_31
    4  A    between atoms: C_7  and  C_8
    5  A    between atoms: C_7  and  C_31
    6  A    between atoms: N_11  and  C_33
    7  A    between atoms: O_13  and  N_16
    8  A    between atoms: C_15  and  C_32
    9  A    between atoms: C_17  and  N_22
   10  A    between atoms: N_22  and  C_31
                            x       y       z     vdW  Elec       q    Type
                         _______ _______ _______ _____ _____    ______ ____

>  <TORSDO>
F 10

$$$$
=
 OpenBabel11042421073D

 36 39  0  0  1  0  0  0  0  0999 V2000
  161.5320  210.0090  150.7830 C   0  0  1  0  0  3  0  0  0  0  0  0
  159.5090  211.9890  151.3940 N   0  0  0  0  0  1  0  0  0  0  0  0
  161.2700  210.4670  152.1860 C   0  0  0  0  0  0  0  0  0  0  0  0
  161.7610  210.3810  154.5580 C   0  0  0  0  0  3  0  0  0  0  0  0
  160.2830  211.4310  152.4530 C   0  0  0  0  0  0  0  0  0  0  0  0
  160.7680  211.3360  154.7780 C   0  0  0  0  0  3  0  0  0  0  0  0
  162.0090  209.9450  153.2560 C   0  0  0  0  0  3  0  0  0  0  0  0
  160.0590  211.8370  153.7310 N   0  0  0  0  0  0  0  0  0  0  0  0
  162.3860  211.0300  150.0390 C   0  0  0  0  0  2  0  0  0  0  0  0
  161.7720  211.3610  148.6940 C   0  0  2  0  0  3  0  0  0  0  0  0
  162.7290  212.2140  147.8950 C   0  0  0  0  0  2  0  0  0  0  0  0
  161.5520  212.8620  148.6050 C   0  0  1  0  0  3  0  0  0  0  0  0
  160.0140  212.5820  145.2750 C   0  0  0  0  0  3  0  0  0  0  0  0
  159.2060  213.3330  148.1430 C   0  0  0  0  0  3  0  0  0  0  0  0
  157.7610  213.2780  146.0870 C   0  0  0  0  0  3  0  0  0  0  0  0
  160.4340  213.1470  147.6490 C   0  0  0  0  0  0  0  0  0  0  0  0
  158.6830  212.5420  145.2020 C   0  0  0  0  0  3  0  0  0  0  0  0
  157.9890  213.6240  147.3600 C   0  0  0  0  0  3  0  0  0  0  0  0
  160.7540  213.4660  146.2210 C   0  0  0  0  0  2  0  0  0  0  0  0
  162.1800  208.7040  150.7900 N   0  0  0  0  0  2  0  0  0  0  0  0
  162.6980  207.5210  148.3420 S   0  0  0  0  0  0  0  0  0  0  0  0
  161.8990  207.7050  149.8090 C   0  0  0  0  0  0  0  0  0  0  0  0
  161.7910  206.1930  147.8530 C   0  0  0  0  0  0  0  0  0  0  0  0
  160.9070  206.7450  149.9370 C   0  0  0  0  0  3  0  0  0  0  0  0
  160.8470  205.8880  148.8290 C   0  0  0  0  0  3  0  0  0  0  0  0
  161.9700  205.4620  146.5950 C   0  0  0  0  0  0  0  0  0  0  0  0
  163.1000  205.4420  146.0350 O   0  0  0  0  0  0  0  0  0  0  0  0
  160.8890  204.7950  146.0220 O   0  0  0  0  0  0  0  0  0  0  0  0
  160.7340  202.8220  148.0670 N   0  0  0  0  0  2  0  0  0  0  0  0
  160.9740  203.4620  145.6890 N   0  0  0  0  0  2  0  0  0  0  0  0
  161.0140  201.2430  146.3640 O   0  0  0  0  0  0  0  0  0  0  0  0
  160.9140  202.4540  146.6950 C   0  0  0  0  0  0  0  0  0  0  0  0
  159.3680  201.3230  149.2040 O   0  0  0  0  0  1  0  0  0  0  0  0
  161.5670  200.8460  148.9720 F   0  0  0  0  0  0  0  0  0  0  0  0
  160.6510  201.8650  149.1650 C   0  0  1  0  0  0  0  0  0  0  0  0
  160.9330  202.5590  150.4850 C   0  0  0  0  0  1  0  0  0  0  0  0
  1  9  1  1  0  0  0
  1 20  1  0  0  0  0
  1  3  1  0  0  0  0
  2  5  1  0  0  0  0
  3  5  2  0  0  0  0
  3  7  1  0  0  0  0
  4  6  1  0  0  0  0
  5  8  1  0  0  0  0
  7  4  2  0  0  0  0
  8  6  2  0  0  0  0
 10  9  1  1  0  0  0
 11 12  1  0  0  0  0
 11 10  1  0  0  0  0
 12 16  1  6  0  0  0
 12 10  1  0  0  0  0
 13 19  1  0  0  0  0
 15 18  2  0  0  0  0
 16 14  2  0  0  0  0
 17 13  2  0  0  0  0
 17 15  1  0  0  0  0
 18 14  1  0  0  0  0
 19 16  1  0  0  0  0
 21 22  1  0  0  0  0
 22 24  2  0  0  0  0
 22 20  1  0  0  0  0
 23 21  1  0  0  0  0
 23 25  2  0  0  0  0
 25 24  1  0  0  0  0
 26 23  1  0  0  0  0
 27 26  2  0  0  0  0
 28 26  1  0  0  0  0
 29 35  1  0  0  0  0
 30 28  1  0  0  0  0
 30 32  1  0  0  0  0
 31 32  2  0  0  0  0
 32 29  1  0  0  0  0
 34 35  1  0  0  0  0
 35 33  1  0  0  0  0
 35 36  1  1  0  0  0
M  END
>  <MODEL>
5

>  <REMARK>
 VINA RESULT:      -7.0      3.649      5.666
  Name = 
  10 active torsions:
  status: ('A' for Active; 'I' for Inactive)
    1  A    between atoms: C_2  and  O_13
    2  A    between atoms: C_2  and  C_19
    3  A    between atoms: C_4  and  C_31
    4  A    between atoms: C_7  and  C_8
    5  A    between atoms: C_7  and  C_31
    6  A    between atoms: N_11  and  C_33
    7  A    between atoms: O_13  and  N_16
    8  A    between atoms: C_15  and  C_32
    9  A    between atoms: C_17  and  N_22
   10  A    between atoms: N_22  and  C_31
                            x       y       z     vdW  Elec       q    Type
                         _______ _______ _______ _____ _____    ______ ____

>  <TORSDO>
F 10

$$$$
=
 OpenBabel11042421073D

 36 39  0  0  1  0  0  0  0  0999 V2000
  161.5380  210.5490  149.5760 C   0  0  1  0  0  3  0  0  0  0  0  0
  160.0840  212.8960  150.4470 N   0  0  0  0  0  1  0  0  0  0  0  0
  161.8310  211.9110  149.0260 C   0  0  0  0  0  0  0  0  0  0  0  0
  163.0910  213.3620  147.5480 C   0  0  0  0  0  3  0  0  0  0  0  0
  161.1080  213.0330  149.4660 C   0  0  0  0  0  0  0  0  0  0  0  0
  162.3510  214.4480  148.0160 C   0  0  0  0  0  3  0  0  0  0  0  0
  162.8280  212.0900  148.0570 C   0  0  0  0  0  3  0  0  0  0  0  0
  161.3840  214.2630  148.9540 N   0  0  0  0  0  0  0  0  0  0  0  0
  161.8030  209.4780  148.5230 C   0  0  0  0  0  2  0  0  0  0  0  0
  162.2990  208.2020  149.1720 C   0  0  2  0  0  3  0  0  0  0  0  0
  162.4010  207.1110  148.1330 C   0  0  0  0  0  2  0  0  0  0  0  0
  161.2120  207.1430  149.0790 C   0  0  1  0  0  3  0  0  0  0  0  0
  161.7570  206.3630  152.6330 C   0  0  0  0  0  3  0  0  0  0  0  0
  160.8070  204.9550  150.0720 C   0  0  0  0  0  3  0  0  0  0  0  0
  161.0330  203.9900  152.3820 C   0  0  0  0  0  3  0  0  0  0  0  0
  161.3800  206.1570  150.1940 C   0  0  0  0  0  0  0  0  0  0  0  0
  161.2010  205.2550  153.1220 C   0  0  0  0  0  3  0  0  0  0  0  0
  160.8660  203.8600  151.0600 C   0  0  0  0  0  3  0  0  0  0  0  0
  162.3760  206.4370  151.2770 C   0  0  0  0  0  2  0  0  0  0  0  0
  162.3380  210.3040  150.7700 N   0  0  0  0  0  2  0  0  0  0  0  0
  162.5090  210.2820  153.5330 S   0  0  0  0  0  0  0  0  0  0  0  0
  161.7490  210.0640  152.0490 C   0  0  0  0  0  0  0  0  0  0  0  0
  161.1790  209.8030  154.4430 C   0  0  0  0  0  0  0  0  0  0  0  0
  160.4550  209.6040  152.2370 C   0  0  0  0  0  3  0  0  0  0  0  0
  160.1320  209.4580  153.5940 C   0  0  0  0  0  3  0  0  0  0  0  0
  161.1260  209.7610  155.9080 C   0  0  0  0  0  0  0  0  0  0  0  0
  161.9510  209.0530  156.5470 O   0  0  0  0  0  0  0  0  0  0  0  0
  160.1610  210.5030  156.5860 O   0  0  0  0  0  0  0  0  0  0  0  0
  157.5700  211.2720  155.6950 N   0  0  0  0  0  2  0  0  0  0  0  0
  159.9170  211.8180  156.2590 N   0  0  0  0  0  2  0  0  0  0  0  0
  158.4430  213.4320  155.4840 O   0  0  0  0  0  0  0  0  0  0  0  0
  158.6330  212.2270  155.7960 C   0  0  0  0  0  0  0  0  0  0  0  0
  155.5830  212.3610  156.2160 O   0  0  0  0  0  1  0  0  0  0  0  0
  156.2810  212.3200  154.0650 F   0  0  0  0  0  0  0  0  0  0  0  0
  156.2220  211.5950  155.2420 C   0  0  1  0  0  0  0  0  0  0  0  0
  155.4270  210.3230  155.0150 C   0  0  0  0  0  1  0  0  0  0  0  0
  1  9  1  6  0  0  0
  1 20  1  0  0  0  0
  3  5  1  0  0  0  0
  3  1  1  0  0  0  0
  4  6  2  0  0  0  0
  4  7  1  0  0  0  0
  5  2  1  0  0  0  0
  6  8  1  0  0  0  0
  7  3  2  0  0  0  0
  8  5  2  0  0  0  0
 10  9  1  6  0  0  0
 11 12  1  0  0  0  0
 11 10  1  0  0  0  0
 12 10  1  0  0  0  0
 12 16  1  1  0  0  0
 13 17  2  0  0  0  0
 14 16  2  0  0  0  0
 14 18  1  0  0  0  0
 15 17  1  0  0  0  0
 16 19  1  0  0  0  0
 18 15  2  0  0  0  0
 19 13  1  0  0  0  0
 20 22  1  0  0  0  0
 21 23  1  0  0  0  0
 22 24  2  0  0  0  0
 22 21  1  0  0  0  0
 23 26  1  0  0  0  0
 24 25  1  0  0  0  0
 25 23  2  0  0  0  0
 26 27  2  0  0  0  0
 26 28  1  0  0  0  0
 29 32  1  0  0  0  0
 30 28  1  0  0  0  0
 31 32  2  0  0  0  0
 32 30  1  0  0  0  0
 34 35  1  0  0  0  0
 35 36  1  6  0  0  0
 35 29  1  0  0  0  0
 35 33  1  0  0  0  0
M  END
>  <MODEL>
6

>  <REMARK>
 VINA RESULT:      -7.0      5.277      9.311
  Name = 
  10 active torsions:
  status: ('A' for Active; 'I' for Inactive)
    1  A    between atoms: C_2  and  O_13
    2  A    between atoms: C_2  and  C_19
    3  A    between atoms: C_4  and  C_31
    4  A    between atoms: C_7  and  C_8
    5  A    between atoms: C_7  and  C_31
    6  A    between atoms: N_11  and  C_33
    7  A    between atoms: O_13  and  N_16
    8  A    between atoms: C_15  and  C_32
    9  A    between atoms: C_17  and  N_22
   10  A    between atoms: N_22  and  C_31
                            x       y       z     vdW  Elec       q    Type
                         _______ _______ _______ _____ _____    ______ ____

>  <TORSDO>
F 10

$$$$
=
 OpenBabel11042421073D

 36 39  0  0  1  0  0  0  0  0999 V2000
  161.1930  208.2890  152.0730 C   0  0  1  0  0  3  0  0  0  0  0  0
  159.7040  210.6790  152.7480 N   0  0  0  0  0  1  0  0  0  0  0  0
  160.8310  208.6240  153.4890 C   0  0  0  0  0  0  0  0  0  0  0  0
  160.8750  208.1020  155.8560 C   0  0  0  0  0  3  0  0  0  0  0  0
  160.1100  209.7910  153.7870 C   0  0  0  0  0  0  0  0  0  0  0  0
  160.1540  209.2700  156.1060 C   0  0  0  0  0  3  0  0  0  0  0  0
  161.2120  207.7800  154.5420 C   0  0  0  0  0  3  0  0  0  0  0  0
  159.7910  210.0820  155.0770 N   0  0  0  0  0  0  0  0  0  0  0  0
  162.0940  209.3680  151.4830 C   0  0  0  0  0  2  0  0  0  0  0  0
  161.4400  210.0050  150.2730 C   0  0  2  0  0  3  0  0  0  0  0  0
  162.2510  209.6950  149.0360 C   0  0  0  0  0  2  0  0  0  0  0  0
  162.3770  211.0560  149.7000 C   0  0  1  0  0  3  0  0  0  0  0  0
  160.5680  212.2050  146.7090 C   0  0  0  0  0  3  0  0  0  0  0  0
  160.8320  212.9410  149.6810 C   0  0  0  0  0  3  0  0  0  0  0  0
  159.4150  214.0520  147.9260 C   0  0  0  0  0  3  0  0  0  0  0  0
  161.5770  212.0910  148.9680 C   0  0  0  0  0  0  0  0  0  0  0  0
  159.5230  213.0150  146.8830 C   0  0  0  0  0  3  0  0  0  0  0  0
  159.9860  214.0220  149.1370 C   0  0  0  0  0  3  0  0  0  0  0  0
  161.8240  212.3090  147.5070 C   0  0  0  0  0  2  0  0  0  0  0  0
  161.8450  206.9860  152.0130 N   0  0  0  0  0  2  0  0  0  0  0  0
  161.5830  204.3270  151.2920 S   0  0  0  0  0  0  0  0  0  0  0  0
  161.4720  205.9880  151.0620 C   0  0  0  0  0  0  0  0  0  0  0  0
  160.9720  203.9340  149.7750 C   0  0  0  0  0  0  0  0  0  0  0  0
  160.9710  206.2650  149.8000 C   0  0  0  0  0  3  0  0  0  0  0  0
  160.6860  205.1000  149.0710 C   0  0  0  0  0  3  0  0  0  0  0  0
  160.7640  202.5730  149.2720 C   0  0  0  0  0  0  0  0  0  0  0  0
  159.8500  201.8550  149.7610 O   0  0  0  0  0  0  0  0  0  0  0  0
  161.5810  202.0770  148.2580 O   0  0  0  0  0  0  0  0  0  0  0  0
  161.2050  203.8670  146.0780 N   0  0  0  0  0  2  0  0  0  0  0  0
  161.0450  201.6100  147.0790 N   0  0  0  0  0  2  0  0  0  0  0  0
  160.3210  202.0380  144.9180 O   0  0  0  0  0  0  0  0  0  0  0  0
  160.8310  202.4880  145.9770 C   0  0  0  0  0  0  0  0  0  0  0  0
  162.2770  205.1090  144.4310 O   0  0  0  0  0  1  0  0  0  0  0  0
  160.1910  204.3290  144.0340 F   0  0  0  0  0  0  0  0  0  0  0  0
  161.0350  204.8390  145.0040 C   0  0  1  0  0  0  0  0  0  0  0  0
  160.4560  206.1300  145.5540 C   0  0  0  0  0  1  0  0  0  0  0  0
  1  9  1  1  0  0  0
  1  3  1  0  0  0  0
  2  5  1  0  0  0  0
  3  5  2  0  0  0  0
  3  7  1  0  0  0  0
  4  6  1  0  0  0  0
  5  8  1  0  0  0  0
  7  4  2  0  0  0  0
  8  6  2  0  0  0  0
 10  9  1  1  0  0  0
 11 12  1  0  0  0  0
 11 10  1  0  0  0  0
 12 16  1  6  0  0  0
 12 10  1  0  0  0  0
 13 17  2  0  0  0  0
 13 19  1  0  0  0  0
 15 18  2  0  0  0  0
 16 14  2  0  0  0  0
 17 15  1  0  0  0  0
 18 14  1  0  0  0  0
 19 16  1  0  0  0  0
 20  1  1  0  0  0  0
 22 21  1  0  0  0  0
 22 20  1  0  0  0  0
 23 21  1  0  0  0  0
 24 22  2  0  0  0  0
 25 23  2  0  0  0  0
 25 24  1  0  0  0  0
 26 27  2  0  0  0  0
 26 23  1  0  0  0  0
 28 26  1  0  0  0  0
 30 28  1  0  0  0  0
 31 32  2  0  0  0  0
 32 29  1  0  0  0  0
 32 30  1  0  0  0  0
 33 35  1  0  0  0  0
 34 35  1  0  0  0  0
 35 36  1  1  0  0  0
 35 29  1  0  0  0  0
M  END
>  <MODEL>
7

>  <REMARK>
 VINA RESULT:      -7.0      2.808      4.524
  Name = 
  10 active torsions:
  status: ('A' for Active; 'I' for Inactive)
    1  A    between atoms: C_2  and  O_13
    2  A    between atoms: C_2  and  C_19
    3  A    between atoms: C_4  and  C_31
    4  A    between atoms: C_7  and  C_8
    5  A    between atoms: C_7  and  C_31
    6  A    between atoms: N_11  and  C_33
    7  A    between atoms: O_13  and  N_16
    8  A    between atoms: C_15  and  C_32
    9  A    between atoms: C_17  and  N_22
   10  A    between atoms: N_22  and  C_31
                            x       y       z     vdW  Elec       q    Type
                         _______ _______ _______ _____ _____    ______ ____

>  <TORSDO>
F 10

$$$$
=
 OpenBabel11042421073D

 36 39  0  0  1  0  0  0  0  0999 V2000
  160.4910  209.5020  153.1630 C   0  0  1  0  0  3  0  0  0  0  0  0
  160.8300  206.8880  154.3620 N   0  0  0  0  0  1  0  0  0  0  0  0
  161.0360  209.3310  154.5490 C   0  0  0  0  0  0  0  0  0  0  0  0
  161.9020  210.2770  156.6060 C   0  0  0  0  0  3  0  0  0  0  0  0
  161.1880  208.0500  155.1050 C   0  0  0  0  0  0  0  0  0  0  0  0
  162.0400  208.9860  157.1170 C   0  0  0  0  0  3  0  0  0  0  0  0
  161.4000  210.4460  155.3160 C   0  0  0  0  0  3  0  0  0  0  0  0
  161.6820  207.9110  156.3650 N   0  0  0  0  0  0  0  0  0  0  0  0
  159.4270  210.5940  153.1390 C   0  0  0  0  0  2  0  0  0  0  0  0
  159.8550  211.7370  152.2410 C   0  0  2  0  0  3  0  0  0  0  0  0
  159.7030  213.0460  152.9780 C   0  0  0  0  0  2  0  0  0  0  0  0
  158.6530  212.6260  151.9630 C   0  0  1  0  0  3  0  0  0  0  0  0
  160.8280  213.8730  149.2700 C   0  0  0  0  0  3  0  0  0  0  0  0
  157.8460  213.3270  149.7740 C   0  0  0  0  0  3  0  0  0  0  0  0
  158.9310  214.2200  147.6890 C   0  0  0  0  0  3  0  0  0  0  0  0
  158.8480  213.3350  150.6580 C   0  0  0  0  0  0  0  0  0  0  0  0
  160.3320  213.9120  148.0340 C   0  0  0  0  0  3  0  0  0  0  0  0
  157.8540  213.9700  148.4450 C   0  0  0  0  0  3  0  0  0  0  0  0
  160.0340  214.2330  150.4820 C   0  0  0  0  0  2  0  0  0  0  0  0
  161.5680  209.8150  152.2320 N   0  0  0  0  0  2  0  0  0  0  0  0
  161.2860  207.6670  150.5090 S   0  0  0  0  0  0  0  0  0  0  0  0
  161.6260  209.2620  150.9160 C   0  0  0  0  0  0  0  0  0  0  0  0
  161.5800  207.8760  148.8670 C   0  0  0  0  0  0  0  0  0  0  0  0
  161.9850  209.9790  149.7860 C   0  0  0  0  0  3  0  0  0  0  0  0
  161.9570  209.1930  148.6240 C   0  0  0  0  0  3  0  0  0  0  0  0
  161.4520  206.8330  147.8440 C   0  0  0  0  0  0  0  0  0  0  0  0
  160.7030  207.0200  146.8460 O   0  0  0  0  0  0  0  0  0  0  0  0
  162.1550  205.6390  147.9810 O   0  0  0  0  0  0  0  0  0  0  0  0
  161.2090  203.0830  148.7980 N   0  0  0  0  0  2  0  0  0  0  0  0
  162.0290  204.6310  147.0520 N   0  0  0  0  0  2  0  0  0  0  0  0
  161.4860  202.4280  146.5700 O   0  0  0  0  0  0  0  0  0  0  0  0
  161.5720  203.3370  147.4370 C   0  0  0  0  0  0  0  0  0  0  0  0
  159.3590  201.6910  149.0160 O   0  0  0  0  0  1  0  0  0  0  0  0
  161.3910  200.7660  148.6500 F   0  0  0  0  0  0  0  0  0  0  0  0
  160.7220  201.7970  149.2870 C   0  0  1  0  0  0  0  0  0  0  0  0
  160.9360  201.6920  150.7850 C   0  0  0  0  0  1  0  0  0  0  0  0
  1  9  1  1  0  0  0
  1  3  1  0  0  0  0
  2  5  1  0  0  0  0
  3  5  2  0  0  0  0
  3  7  1  0  0  0  0
  4  6  1  0  0  0  0
  5  8  1  0  0  0  0
  7  4  2  0  0  0  0
  8  6  2  0  0  0  0
 10 11  1  0  0  0  0
 10  9  1  1  0  0  0
 12 16  1  6  0  0  0
 12 10  1  0  0  0  0
 12 11  1  0  0  0  0
 13 19  1  0  0  0  0
 14 16  2  0  0  0  0
 15 17  1  0  0  0  0
 15 18  2  0  0  0  0
 17 13  2  0  0  0  0
 18 14  1  0  0  0  0
 19 16  1  0  0  0  0
 20  1  1  0  0  0  0
 21 22  1  0  0  0  0
 22 20  1  0  0  0  0
 23 21  1  0  0  0  0
 24 22  2  0  0  0  0
 25 23  2  0  0  0  0
 25 24  1  0  0  0  0
 26 28  1  0  0  0  0
 26 23  1  0  0  0  0
 27 26  2  0  0  0  0
 29 35  1  0  0  0  0
 30 32  1  0  0  0  0
 30 28  1  0  0  0  0
 31 32  2  0  0  0  0
 32 29  1  0  0  0  0
 33 35  1  0  0  0  0
 34 35  1  0  0  0  0
 35 36  1  1  0  0  0
M  END
>  <MODEL>
8

>  <REMARK>
 VINA RESULT:      -6.9      2.569      4.517
  Name = 
  10 active torsions:
  status: ('A' for Active; 'I' for Inactive)
    1  A    between atoms: C_2  and  O_13
    2  A    between atoms: C_2  and  C_19
    3  A    between atoms: C_4  and  C_31
    4  A    between atoms: C_7  and  C_8
    5  A    between atoms: C_7  and  C_31
    6  A    between atoms: N_11  and  C_33
    7  A    between atoms: O_13  and  N_16
    8  A    between atoms: C_15  and  C_32
    9  A    between atoms: C_17  and  N_22
   10  A    between atoms: N_22  and  C_31
                            x       y       z     vdW  Elec       q    Type
                         _______ _______ _______ _____ _____    ______ ____

>  <TORSDO>
F 10

$$$$
=
 OpenBabel11042421073D

 36 39  0  0  1  0  0  0  0  0999 V2000
  159.5710  211.4720  152.8340 C   0  0  1  0  0  3  0  0  0  0  0  0
  157.0600  211.3860  154.2720 N   0  0  0  0  0  1  0  0  0  0  0  0
  159.5120  211.5500  154.3290 C   0  0  0  0  0  0  0  0  0  0  0  0
  160.6200  211.7480  156.4770 C   0  0  0  0  0  3  0  0  0  0  0  0
  158.2780  211.5070  155.0000 C   0  0  0  0  0  0  0  0  0  0  0  0
  159.3730  211.6980  157.1010 C   0  0  0  0  0  3  0  0  0  0  0  0
  160.6860  211.6720  155.0850 C   0  0  0  0  0  3  0  0  0  0  0  0
  158.2410  211.5810  156.3580 N   0  0  0  0  0  0  0  0  0  0  0  0
  159.4890  212.8660  152.2220 C   0  0  0  0  0  2  0  0  0  0  0  0
  159.7770  212.8150  150.7360 C   0  0  2  0  0  3  0  0  0  0  0  0
  160.6770  213.9660  150.3530 C   0  0  0  0  0  2  0  0  0  0  0  0
  159.1860  214.0490  150.0730 C   0  0  1  0  0  3  0  0  0  0  0  0
  160.2550  212.9800  146.7190 C   0  0  0  0  0  3  0  0  0  0  0  0
  157.6530  213.3540  148.3110 C   0  0  0  0  0  3  0  0  0  0  0  0
  157.9220  212.5680  145.9380 C   0  0  0  0  0  3  0  0  0  0  0  0
  158.8880  213.7490  148.6360 C   0  0  0  0  0  0  0  0  0  0  0  0
  159.3770  212.3210  145.9630 C   0  0  0  0  0  3  0  0  0  0  0  0
  157.1760  213.0200  146.9540 C   0  0  0  0  0  3  0  0  0  0  0  0
  159.8830  214.1360  147.5850 C   0  0  0  0  0  2  0  0  0  0  0  0
  160.7930  210.7970  152.4120 N   0  0  0  0  0  2  0  0  0  0  0  0
  161.3170  208.4610  151.0220 S   0  0  0  0  0  0  0  0  0  0  0  0
  160.9060  209.3740  152.3720 C   0  0  0  0  0  0  0  0  0  0  0  0
  161.2230  206.9830  151.8180 C   0  0  0  0  0  0  0  0  0  0  0  0
  160.6770  208.5450  153.4590 C   0  0  0  0  0  3  0  0  0  0  0  0
  160.8590  207.1900  153.1450 C   0  0  0  0  0  3  0  0  0  0  0  0
  161.4920  205.6760  151.2100 C   0  0  0  0  0  0  0  0  0  0  0  0
  162.3310  204.8970  151.7410 O   0  0  0  0  0  0  0  0  0  0  0  0
  160.8220  205.3020  150.0470 O   0  0  0  0  0  0  0  0  0  0  0  0
  161.5670  204.7310  147.3610 N   0  0  0  0  0  2  0  0  0  0  0  0
  160.8380  203.9970  149.6080 N   0  0  0  0  0  2  0  0  0  0  0  0
  161.1780  202.4840  147.8840 O   0  0  0  0  0  0  0  0  0  0  0  0
  161.1920  203.6840  148.2640 C   0  0  0  0  0  0  0  0  0  0  0  0
  163.3300  204.6910  145.8460 O   0  0  0  0  0  1  0  0  0  0  0  0
  161.6310  203.2200  145.5910 F   0  0  0  0  0  0  0  0  0  0  0  0
  161.9540  204.5100  145.9720 C   0  0  1  0  0  0  0  0  0  0  0  0
  161.2420  205.5000  145.0680 C   0  0  0  0  0  1  0  0  0  0  0  0
  1  9  1  6  0  0  0
  1  3  1  0  0  0  0
  2  5  1  0  0  0  0
  3  5  2  0  0  0  0
  3  7  1  0  0  0  0
  4  6  1  0  0  0  0
  5  8  1  0  0  0  0
  7  4  2  0  0  0  0
  8  6  2  0  0  0  0
 10  9  1  1  0  0  0
 11 10  1  0  0  0  0
 12 16  1  6  0  0  0
 12 11  1  0  0  0  0
 12 10  1  0  0  0  0
 13 19  1  0  0  0  0
 14 16  2  0  0  0  0
 15 17  1  0  0  0  0
 15 18  2  0  0  0  0
 17 13  2  0  0  0  0
 18 14  1  0  0  0  0
 19 16  1  0  0  0  0
 20  1  1  0  0  0  0
 21 23  1  0  0  0  0
 21 22  1  0  0  0  0
 22 20  1  0  0  0  0
 22 24  2  0  0  0  0
 23 25  2  0  0  0  0
 25 24  1  0  0  0  0
 26 27  2  0  0  0  0
 26 23  1  0  0  0  0
 28 26  1  0  0  0  0
 29 32  1  0  0  0  0
 30 28  1  0  0  0  0
 31 32  2  0  0  0  0
 32 30  1  0  0  0  0
 33 35  1  0  0  0  0
 34 35  1  0  0  0  0
 35 36  1  6  0  0  0
 35 29  1  0  0  0  0
M  END
>  <MODEL>
9

>  <REMARK>
 VINA RESULT:      -6.7      2.998      4.646
  Name = 
  10 active torsions:
  status: ('A' for Active; 'I' for Inactive)
    1  A    between atoms: C_2  and  O_13
    2  A    between atoms: C_2  and  C_19
    3  A    between atoms: C_4  and  C_31
    4  A    between atoms: C_7  and  C_8
    5  A    between atoms: C_7  and  C_31
    6  A    between atoms: N_11  and  C_33
    7  A    between atoms: O_13  and  N_16
    8  A    between atoms: C_15  and  C_32
    9  A    between atoms: C_17  and  N_22
   10  A    between atoms: N_22  and  C_31
                            x       y       z     vdW  Elec       q    Type
                         _______ _______ _______ _____ _____    ______ ____

>  <TORSDO>
F 10

$$$$
