=
 OpenBabel11042422413D

 66 69  0  0  1  0  0  0  0  0999 V2000
  161.0930  202.0740  148.3790 C   0  0  1  0  0  3  0  0  0  0  0  0
  162.2480  200.3630  149.1980 C   0  0  0  0  0  1  0  0  0  0  0  0
  161.8280  200.9440  148.0010 O   0  0  0  0  0  0  0  0  0  0  0  0
  159.9390  202.3080  147.4020 C   0  0  2  0  0  3  0  0  0  0  0  0
  158.7980  201.6030  147.8050 O   0  0  0  0  0  0  0  0  0  0  0  0
  158.9750  201.3450  149.1630 C   0  0  0  0  0  2  0  0  0  0  0  0
  160.3180  201.8620  146.1310 O   0  0  0  0  0  0  0  0  0  0  0  0
  158.7010  203.5020  145.5130 C   0  0  0  0  0  1  0  0  0  0  0  0
  160.0840  202.9290  145.2510 C   0  0  1  0  0  3  0  0  0  0  0  0
  163.5080  205.4950  146.0570 C   0  0  0  0  0  2  0  0  0  0  0  0
  161.1420  204.0250  145.4090 C   0  0  2  0  0  3  0  0  0  0  0  0
  162.4840  203.5530  144.8320 C   0  0  0  0  0  2  0  0  0  0  0  0
  162.2950  205.6720  146.9980 C   0  0  1  0  0  0  0  0  0  0  0  0
  161.2580  204.5270  146.8550 C   0  0  0  0  0  2  0  0  0  0  0  0
  163.7000  204.0460  145.6200 C   0  0  0  0  0  2  0  0  0  0  0  0
  162.7330  205.8140  148.3430 O   0  0  0  0  0  0  0  0  0  0  0  0
  163.6260  206.8960  148.4550 C   0  0  0  0  0  1  0  0  0  0  0  0
  161.6340  206.9900  146.5760 C   0  0  0  0  0  2  0  0  0  0  0  0
  160.7090  207.5640  147.6430 C   0  0  0  0  0  2  0  0  0  0  0  0
  160.7760  209.0810  147.6560 C   0  0  0  0  0  2  0  0  0  0  0  0
  161.8880  209.5430  148.5820 C   0  0  0  0  0  2  0  0  0  0  0  0
  161.9800  210.9940  148.5550 N   0  0  0  0  0  2  0  0  0  0  0  0
  161.0340  211.4650  147.5580 C   0  0  0  0  0  2  0  0  0  0  0  0
  161.7130  211.7530  146.3750 O   0  0  0  0  0  0  0  0  0  0  0  0
  161.2660  213.0260  146.0160 C   0  0  0  0  0  2  0  0  0  0  0  0
  159.7940  212.9680  145.6390 C   0  0  2  0  0  3  0  0  0  0  0  0
  159.5870  213.6650  144.3310 C   0  0  0  0  0  3  0  0  0  0  0  0
  159.6450  213.0430  143.2830 O   0  0  0  0  0  0  0  0  0  0  0  0
  158.9640  213.6450  146.7180 C   0  0  0  0  0  2  0  0  0  0  0  0
  156.8690  213.9090  145.0460 O   0  0  0  0  0  0  0  0  0  0  0  0
  156.8770  211.9530  146.5290 O   0  0  0  0  0  0  0  0  0  0  0  0
  157.2200  213.4130  146.4220 S   0  0  0  0  0  0  0  0  0  0  0  0
  156.4740  213.7020  149.0050 C   0  0  0  0  0  1  0  0  0  0  0  0
  156.3010  214.3310  147.6380 C   0  0  0  0  0  2  0  0  0  0  0  0
  160.5700  201.9160  149.8060 C   0  0  2  0  0  3  0  0  0  0  0  0
  161.5410  202.4230  150.7670 N   0  0  0  0  0  0  0  0  0  0  0  0
  160.8380  202.8900  151.8630 O   0  0  0  0  0  0  0  0  0  0  0  0
  158.9000  203.4930  150.7580 O   0  0  0  0  0  0  0  0  0  0  0  0
  159.4170  204.7160  152.6630 N   0  0  0  0  0  2  0  0  0  0  0  0
  159.6850  203.6730  151.7280 C   0  0  0  0  0  0  0  0  0  0  0  0
  160.8980  205.0750  154.7820 C   0  0  0  0  0  3  0  0  0  0  0  0
  160.2120  204.9050  153.8040 C   0  0  0  0  0  0  0  0  0  0  0  0
  162.1670  203.5850  150.1500 C   0  0  0  0  0  2  0  0  0  0  0  0
  161.7070  204.8610  150.8390 C   0  0  0  0  0  2  0  0  0  0  0  0
  162.6310  205.2180  151.9960 C   0  0  1  0  0  3  0  0  0  0  0  0
  163.9250  205.4120  151.5110 O   0  0  0  0  0  1  0  0  0  0  0  0
  162.1630  206.4540  152.6090 N   0  0  0  0  0  2  0  0  0  0  0  0
  162.5890  207.8990  150.7080 C   0  0  0  0  0  1  0  0  0  0  0  0
  161.5230  207.2630  151.5780 C   0  0  2  0  0  3  0  0  0  0  0  0
  160.6700  208.3330  152.1900 C   0  0  0  0  0  0  0  0  0  0  0  0
  159.7990  208.1090  153.1970 N   0  0  0  0  0  0  0  0  0  0  0  0
  159.8550  210.2340  152.6170 C   0  0  0  0  0  0  0  0  0  0  0  0
  160.7380  209.6240  151.8070 N   0  0  0  0  0  0  0  0  0  0  0  0
  159.2650  209.3170  153.4600 C   0  0  0  0  0  2  0  0  0  0  0  0
  159.6670  212.6690  153.6320 C   0  0  2  0  0  3  0  0  0  0  0  0
  158.6930  212.0870  151.4810 O   0  0  0  0  0  1  0  0  0  0  0  0
  159.5140  211.6910  152.5370 C   0  0  2  0  0  0  0  0  0  0  0  0
  160.7200  212.5290  152.6040 N   0  0  0  0  0  2  0  0  0  0  0  0
  160.3220  213.1950  155.8670 O   0  0  0  0  0  1  0  0  0  0  0  0
  160.0740  212.1100  155.0220 C   0  0  2  0  0  0  0  0  0  0  0  0
  161.5170  210.3100  155.7350 O   0  0  0  0  0  1  0  0  0  0  0  0
  161.4000  211.3690  154.8290 C   0  0  0  0  0  2  0  0  0  0  0  0
  159.0210  211.2020  155.7040 C   0  0  0  0  0  2  0  0  0  0  0  0
  157.8830  211.9250  156.3630 C   0  0  0  0  0  0  0  0  0  0  0  0
  157.5750  213.2240  155.9800 O   0  0  0  0  0  0  0  0  0  0  0  0
  157.2020  211.3600  157.2580 O   0  0  0  0  0  1  0  0  0  0  0  0
  1  3  1  6  0  0  0
  1 35  1  0  0  0  0
  3  2  1  0  0  0  0
  4  7  1  6  0  0  0
  4  5  1  0  0  0  0
  4  1  1  0  0  0  0
  5  6  1  0  0  0  0
  6 35  1  0  0  0  0
  9  8  1  1  0  0  0
  9  7  1  0  0  0  0
 10 13  1  0  0  0  0
 11  9  1  1  0  0  0
 11 14  1  0  0  0  0
 12 11  1  0  0  0  0
 12 15  1  0  0  0  0
 13 18  1  6  0  0  0
 13 16  1  0  0  0  0
 14 13  1  0  0  0  0
 15 10  1  0  0  0  0
 16 17  1  0  0  0  0
 18 19  1  0  0  0  0
 19 20  1  0  0  0  0
 20 21  1  0  0  0  0
 22 21  1  0  0  0  0
 23 22  1  0  0  0  0
 24 23  1  0  0  0  0
 25 24  1  0  0  0  0
 26 27  1  6  0  0  0
 26 25  1  0  0  0  0
 26 29  1  0  0  0  0
 28 27  2  0  0  0  0
 30 32  2  0  0  0  0
 32 31  2  0  0  0  0
 32 29  1  0  0  0  0
 32 34  1  0  0  0  0
 34 33  1  0  0  0  0
 35 36  1  6  0  0  0
 36 37  1  0  0  0  0
 38 40  2  0  0  0  0
 39 42  1  0  0  0  0
 40 37  1  0  0  0  0
 40 39  1  0  0  0  0
 42 41  3  0  0  0  0
 43 36  1  0  0  0  0
 43 44  1  0  0  0  0
 44 45  1  0  0  0  0
 45 46  1  6  0  0  0
 45 47  1  0  0  0  0
 49 48  1  1  0  0  0
 49 50  1  0  0  0  0
 49 47  1  0  0  0  0
 50 51  2  0  0  0  0
 51 54  1  0  0  0  0
 52 54  1  0  0  0  0
 53 50  1  0  0  0  0
 53 52  2  0  0  0  0
 55 60  1  1  0  0  0
 57 56  1  6  0  0  0
 57 58  1  0  0  0  0
 57 52  1  0  0  0  0
 57 55  1  0  0  0  0
 58 55  1  0  0  0  0
 60 63  1  0  0  0  0
 60 59  1  1  0  0  0
 62 60  1  0  0  0  0
 62 61  1  0  0  0  0
 63 64  1  0  0  0  0
 64 66  1  0  0  0  0
 65 64  2  0  0  0  0
M  END
>  <MODEL>
1

>  <REMARK>
 VINA RESULT:       7.6      0.000      0.000
  Name = 
  36 active torsions:
  status: ('A' for Active; 'I' for Inactive)
    1  A    between atoms: C_4  and  C_44
    2  A    between atoms: C_6  and  N_25
    3  A    between atoms: C_6  and  C_62
    4  A    between atoms: C_8  and  C_29
    5  A    between atoms: C_8  and  C_49
    6  A    between atoms: N_9  and  C_61
    7  A    between atoms: C_10  and  C_33
    8  A    between atoms: C_10  and  S_48
    9  A    between atoms: C_11  and  C_34
   10  A    between atoms: C_11  and  N_42
   11  A    between atoms: O_14  and  C_45
   12  A    between atoms: C_15  and  C_58
   13  A    between atoms: C_18  and  C_24
   14  A    between atoms: C_18  and  C_50
   15  A    between atoms: C_19  and  C_30
   16  A    between atoms: C_22  and  C_33
   17  A    between atoms: N_25  and  C_46
   18  A    between atoms: N_25  and  O_54
   19  A    between atoms: C_26  and  S_48
   20  A    between atoms: C_27  and  C_45
   21  A    between atoms: C_27  and  C_49
   22  A    between atoms: C_28  and  O_54
   23  A    between atoms: C_29  and  N_56
   24  A    between atoms: C_30  and  O_36
   25  A    between atoms: C_31  and  O_52
   26  A    between atoms: C_31  and  N_56
   27  A    between atoms: C_33  and  C_64
   28  A    between atoms: C_34  and  C_46
   29  A    between atoms: O_36  and  C_39
   30  A    between atoms: C_39  and  O_41
   31  A    between atoms: C_39  and  C_62
   32  A    between atoms: O_40  and  C_62
   33  A    between atoms: N_42  and  C_44
   34  A    between atoms: C_43  and  C_50
   35  A    between atoms: C_50  and  C_60
   36  A    between atoms: O_52  and  C_64
                            x       y       z     vdW  Elec       q    Type
                         _______ _______ _______ _____ _____    ______ ____

>  <TORSDO>
F 36

$$$$
=
 OpenBabel11042422413D

 66 70  0  0  1  0  0  0  0  0999 V2000
  160.4740  211.0740  155.9830 C   0  0  1  0  0  3  0  0  0  0  0  0
  162.4620  211.5370  156.8560 C   0  0  0  0  0  1  0  0  0  0  0  0
  161.3650  210.6860  156.9920 O   0  0  0  0  0  0  0  0  0  0  0  0
  159.9840  212.5030  156.2300 C   0  0  2  0  0  3  0  0  0  0  0  0
  158.9750  212.5200  157.2010 O   0  0  0  0  0  0  0  0  0  0  0  0
  157.9360  211.7540  156.6780 C   0  0  0  0  0  1  0  0  0  0  0  0
  159.4710  213.0240  155.0380 O   0  0  0  0  0  0  0  0  0  0  0  0
  160.8580  211.3860  154.0000 C   0  0  0  0  0  2  0  0  0  0  0  0
  160.4700  212.8540  154.0690 C   0  0  1  0  0  3  0  0  0  0  0  0
  158.7340  213.5570  150.1380 C   0  0  0  0  0  2  0  0  0  0  0  0
  160.0020  213.3350  152.6920 C   0  0  2  0  0  3  0  0  0  0  0  0
  158.4680  213.3480  152.6300 C   0  0  0  0  0  2  0  0  0  0  0  0
  160.1990  213.0650  150.1510 C   0  0  1  0  0  0  0  0  0  0  0  0
  160.6390  212.5400  151.5430 C   0  0  0  0  0  2  0  0  0  0  0  0
  157.9050  212.9470  151.2640 C   0  0  0  0  0  2  0  0  0  0  0  0
  160.3980  212.0870  149.1380 O   0  0  0  0  0  0  0  0  0  0  0  0
  160.9170  210.9040  149.6950 C   0  0  0  0  0  1  0  0  0  0  0  0
  161.0490  214.2910  149.7970 C   0  0  0  0  0  2  0  0  0  0  0  0
  161.2700  214.4520  148.2970 C   0  0  0  0  0  2  0  0  0  0  0  0
  162.7400  214.2910  147.9490 C   0  0  0  0  0  2  0  0  0  0  0  0
  162.8800  213.6540  146.5770 C   0  0  0  0  0  2  0  0  0  0  0  0
  162.1670  214.4500  145.5900 N   0  0  0  0  0  2  0  0  0  0  0  0
  161.7040  213.5380  144.5580 C   0  0  1  0  0  3  0  0  0  0  0  0
  161.6960  212.2370  145.0600 O   0  0  0  0  0  0  0  0  0  0  0  0
  160.5430  212.1710  145.8440 C   0  0  0  0  0  2  0  0  0  0  0  0
  159.7810  213.4840  145.7540 C   0  0  2  0  0  3  0  0  0  0  0  0
  158.3120  213.2050  145.7020 C   0  0  0  0  0  3  0  0  0  0  0  0
  157.7470  212.6870  146.6520 O   0  0  0  0  0  0  0  0  0  0  0  0
  160.2050  214.2350  144.5020 C   0  0  2  0  0  3  0  0  0  0  0  0
  159.1820  212.2560  142.9890 O   0  0  0  0  0  0  0  0  0  0  0  0
  157.8080  214.2700  143.2750 O   0  0  0  0  0  0  0  0  0  0  0  0
  159.2090  213.7560  143.1020 S   0  0  0  0  0  0  0  0  0  0  0  0
  159.1870  213.9370  140.4030 C   0  0  0  0  0  1  0  0  0  0  0  0
  159.9190  214.4510  141.6250 C   0  0  0  0  0  2  0  0  0  0  0  0
  161.1380  210.9590  154.6120 C   0  0  2  0  0  3  0  0  0  0  0  0
  161.1090  209.5800  154.1430 N   0  0  0  0  0  0  0  0  0  0  0  0
  162.0320  208.8680  154.8880 O   0  0  0  0  0  0  0  0  0  0  0  0
  162.6680  208.1470  156.9890 O   0  0  0  0  0  0  0  0  0  0  0  0
  160.3910  208.1040  156.5360 N   0  0  0  0  0  2  0  0  0  0  0  0
  161.7400  208.3830  156.1680 C   0  0  0  0  0  0  0  0  0  0  0  0
  158.3970  208.7110  154.9640 C   0  0  0  0  0  3  0  0  0  0  0  0
  159.3160  208.4260  155.6920 C   0  0  0  0  0  0  0  0  0  0  0  0
  161.6060  209.5970  152.7740 C   0  0  0  0  0  2  0  0  0  0  0  0
  161.5780  208.1940  152.1850 C   0  0  0  0  0  2  0  0  0  0  0  0
  161.6440  207.1420  153.2840 C   0  0  1  0  0  3  0  0  0  0  0  0
  160.3870  207.0140  153.8780 O   0  0  0  0  0  1  0  0  0  0  0  0
  162.0220  205.8650  152.6940 N   0  0  0  0  0  2  0  0  0  0  0  0
  159.6370  205.4320  152.5850 C   0  0  0  0  0  1  0  0  0  0  0  0
  160.9420  205.4300  151.8140 C   0  0  2  0  0  3  0  0  0  0  0  0
  161.2090  204.0550  151.2800 C   0  0  0  0  0  0  0  0  0  0  0  0
  162.2460  203.2870  151.6780 N   0  0  0  0  0  0  0  0  0  0  0  0
  160.9720  202.2510  150.2080 C   0  0  0  0  0  0  0  0  0  0  0  0
  160.4010  203.4560  150.3820 N   0  0  0  0  0  0  0  0  0  0  0  0
  162.1060  202.1420  150.9820 C   0  0  0  0  0  2  0  0  0  0  0  0
  160.5050  201.3450  147.7680 C   0  0  2  0  0  3  0  0  0  0  0  0
  159.6300  200.2360  149.7460 O   0  0  0  0  0  1  0  0  0  0  0  0
  160.4750  201.2220  149.2380 C   0  0  2  0  0  0  0  0  0  0  0  0
  161.5810  200.6220  148.4780 N   0  0  0  0  0  2  0  0  0  0  0  0
  160.8140  203.6760  148.1890 O   0  0  0  0  0  1  0  0  0  0  0  0
  160.9530  202.7120  147.1850 C   0  0  2  0  0  0  0  0  0  0  0  0
  160.2300  202.3330  144.9120 O   0  0  0  0  0  1  0  0  0  0  0  0
  159.9610  203.0650  146.0730 C   0  0  0  0  0  2  0  0  0  0  0  0
  162.4130  202.7660  146.6690 C   0  0  0  0  0  2  0  0  0  0  0  0
  162.9860  204.1430  146.5110 C   0  0  0  0  0  0  0  0  0  0  0  0
  162.1430  205.2470  146.5100 O   0  0  0  0  0  1  0  0  0  0  0  0
  164.2270  204.3060  146.3850 O   0  0  0  0  0  0  0  0  0  0  0  0
  1  4  1  0  0  0  0
  1  3  1  1  0  0  0
  2  3  1  0  0  0  0
  4  5  1  1  0  0  0
  6  5  1  0  0  0  0
  7  4  1  0  0  0  0
  8 35  1  0  0  0  0
  9  8  1  6  0  0  0
  9  7  1  0  0  0  0
 10 13  1  0  0  0  0
 10 15  1  0  0  0  0
 11 14  1  6  0  0  0
 11  9  1  0  0  0  0
 12 11  1  0  0  0  0
 13 18  1  6  0  0  0
 13 14  1  0  0  0  0
 15 12  1  0  0  0  0
 16 17  1  0  0  0  0
 16 13  1  0  0  0  0
 19 18  1  0  0  0  0
 20 19  1  0  0  0  0
 21 20  1  0  0  0  0
 22 21  1  0  0  0  0
 23 24  1  0  0  0  0
 23 22  1  1  0  0  0
 24 25  1  0  0  0  0
 26 27  1  6  0  0  0
 26 25  1  0  0  0  0
 27 28  2  0  0  0  0
 29 32  1  6  0  0  0
 29 23  1  0  0  0  0
 29 26  1  0  0  0  0
 30 32  2  0  0  0  0
 32 31  2  0  0  0  0
 33 34  1  0  0  0  0
 34 32  1  0  0  0  0
 35 36  1  6  0  0  0
 35  1  1  0  0  0  0
 36 37  1  0  0  0  0
 37 40  1  0  0  0  0
 40 39  1  0  0  0  0
 40 38  2  0  0  0  0
 41 42  3  0  0  0  0
 42 39  1  0  0  0  0
 43 36  1  0  0  0  0
 44 43  1  0  0  0  0
 44 45  1  0  0  0  0
 45 46  1  6  0  0  0
 47 45  1  0  0  0  0
 49 48  1  1  0  0  0
 49 47  1  0  0  0  0
 50 51  2  0  0  0  0
 50 49  1  0  0  0  0
 52 53  2  0  0  0  0
 52 54  1  0  0  0  0
 53 50  1  0  0  0  0
 54 51  1  0  0  0  0
 55 60  1  1  0  0  0
 55 58  1  0  0  0  0
 55 57  1  0  0  0  0
 57 56  1  1  0  0  0
 57 52  1  0  0  0  0
 58 57  1  0  0  0  0
 60 59  1  1  0  0  0
 61 62  1  0  0  0  0
 62 60  1  0  0  0  0
 63 60  1  0  0  0  0
 64 63  1  0  0  0  0
 65 64  1  0  0  0  0
 66 64  2  0  0  0  0
M  END
>  <MODEL>
2

>  <REMARK>
 VINA RESULT:       8.5      2.126      9.093
  Name = 
  36 active torsions:
  status: ('A' for Active; 'I' for Inactive)
    1  A    between atoms: C_4  and  C_44
    2  A    between atoms: C_6  and  N_25
    3  A    between atoms: C_6  and  C_62
    4  A    between atoms: C_8  and  C_29
    5  A    between atoms: C_8  and  C_49
    6  A    between atoms: N_9  and  C_61
    7  A    between atoms: C_10  and  C_33
    8  A    between atoms: C_10  and  S_48
    9  A    between atoms: C_11  and  C_34
   10  A    between atoms: C_11  and  N_42
   11  A    between atoms: O_14  and  C_45
   12  A    between atoms: C_15  and  C_58
   13  A    between atoms: C_18  and  C_24
   14  A    between atoms: C_18  and  C_50
   15  A    between atoms: C_19  and  C_30
   16  A    between atoms: C_22  and  C_33
   17  A    between atoms: N_25  and  C_46
   18  A    between atoms: N_25  and  O_54
   19  A    between atoms: C_26  and  S_48
   20  A    between atoms: C_27  and  C_45
   21  A    between atoms: C_27  and  C_49
   22  A    between atoms: C_28  and  O_54
   23  A    between atoms: C_29  and  N_56
   24  A    between atoms: C_30  and  O_36
   25  A    between atoms: C_31  and  O_52
   26  A    between atoms: C_31  and  N_56
   27  A    between atoms: C_33  and  C_64
   28  A    between atoms: C_34  and  C_46
   29  A    between atoms: O_36  and  C_39
   30  A    between atoms: C_39  and  O_41
   31  A    between atoms: C_39  and  C_62
   32  A    between atoms: O_40  and  C_62
   33  A    between atoms: N_42  and  C_44
   34  A    between atoms: C_43  and  C_50
   35  A    between atoms: C_50  and  C_60
   36  A    between atoms: O_52  and  C_64
                            x       y       z     vdW  Elec       q    Type
                         _______ _______ _______ _____ _____    ______ ____

>  <TORSDO>
F 36

$$$$
