=
 OpenBabel11052411453D

 40 45  0  0  1  0  0  0  0  0999 V2000
  162.5240  209.6360  149.1970 C   0  0  0  0  0  3  0  0  0  0  0  0
  161.2030  203.1140  150.9330 C   0  0  0  0  0  2  0  0  0  0  0  0
  161.0380  206.3650  152.4150 C   0  0  0  0  0  0  0  0  0  0  0  0
  161.1920  208.9450  156.3700 C   0  0  1  0  0  3  0  0  0  0  0  0
  160.6750  209.8210  154.0580 C   0  0  1  0  0  3  0  0  0  0  0  0
  161.1700  205.5620  150.3770 C   0  0  0  0  0  0  0  0  0  0  0  0
  161.0570  208.1670  150.5970 C   0  0  0  0  0  0  0  0  0  0  0  0
  162.2540  208.4510  149.7470 C   0  0  0  0  0  3  0  0  0  0  0  0
  160.3230  207.7470  155.9580 C   0  0  0  0  0  2  0  0  0  0  0  0
  161.7700  210.8930  149.3930 C   0  0  0  0  0  0  0  0  0  0  0  0
  161.0010  209.0980  151.7860 C   0  0  0  0  0  0  0  0  0  0  0  0
  160.9200  207.3390  153.5130 C   0  0  0  0  0  0  0  0  0  0  0  0
  161.1010  206.7420  151.0840 C   0  0  1  0  0  3  0  0  0  0  0  0
  161.1400  211.2360  150.5240 C   0  0  0  0  0  3  0  0  0  0  0  0
  161.1330  204.5580  151.3140 C   0  0  0  0  0  0  0  0  0  0  0  0
  161.7940  211.8200  148.3590 O   0  0  0  0  0  1  0  0  0  0  0  0
  161.0210  206.8530  154.9380 C   0  0  0  0  0  2  0  0  0  0  0  0
  161.0060  210.4190  151.7450 C   0  0  0  0  0  0  0  0  0  0  0  0
  160.8790  211.0190  153.1210 C   0  0  1  0  0  3  0  0  0  0  0  0
  161.1550  205.3120  148.9040 C   0  0  0  0  0  2  0  0  0  0  0  0
  160.7740  202.9430  149.5310 N   0  0  0  0  0  0  0  0  0  0  0  0
  161.0670  205.0520  152.5310 O   0  0  0  0  0  0  0  0  0  0  0  0
  160.8700  208.6420  153.1650 C   0  0  0  0  0  0  0  0  0  0  0  0
  161.6850  209.8020  155.1930 C   0  0  0  0  0  2  0  0  0  0  0  0
  161.5290  203.8440  148.6430 C   0  0  0  0  0  2  0  0  0  0  0  0
  159.7160  211.9640  153.2140 C   0  0  0  0  0  0  0  0  0  0  0  0
  159.8440  213.1100  152.8140 O   0  0  0  0  0  0  0  0  0  0  0  0
  158.4050  211.5300  153.7880 C   0  0  0  0  0  1  0  0  0  0  0  0
  160.8940  200.6600  150.1570 O   0  0  0  0  0  1  0  0  0  0  0  0
  161.0150  201.5650  149.0940 C   0  0  1  0  0  3  0  0  0  0  0  0
  160.1250  201.2180  148.0740 O   0  0  0  0  0  0  0  0  0  0  0  0
  160.9110  201.1630  146.9210 C   0  0  0  0  0  2  0  0  0  0  0  0
  160.1850  201.8280  145.7680 C   0  0  1  0  0  3  0  0  0  0  0  0
  161.0160  202.9840  145.2520 C   0  0  0  0  0  1  0  0  0  0  0  0
  159.9790  200.8690  144.6970 N   0  0  0  0  0  1  0  0  0  0  0  0
  160.4750  209.7470  157.2600 O   0  0  0  0  0  0  0  0  0  0  0  0
  161.1050  210.9930  157.2070 C   0  0  0  0  0  2  0  0  0  0  0  0
  160.0830  212.0710  157.2570 C   0  0  0  0  0  0  0  0  0  0  0  0
  160.4770  213.4020  157.2600 O   0  0  0  0  0  1  0  0  0  0  0  0
  158.8590  211.7790  157.2570 O   0  0  0  0  0  0  0  0  0  0  0  0
  1 10  2  0  0  0  0
  1  8  1  0  0  0  0
  2 15  1  0  0  0  0
  3 22  1  0  0  0  0
  3 12  2  0  0  0  0
  4 36  1  1  0  0  0
  5 24  1  1  0  0  0
  6 15  2  0  0  0  0
  7 13  1  0  0  0  0
  7 11  1  0  0  0  0
  8  7  2  0  0  0  0
  9  4  1  0  0  0  0
 10 14  1  0  0  0  0
 11 23  2  0  0  0  0
 12 17  1  0  0  0  0
 13  6  1  6  0  0  0
 13  3  1  0  0  0  0
 14 18  2  0  0  0  0
 15 22  1  0  0  0  0
 16 10  1  0  0  0  0
 17  9  1  0  0  0  0
 18 11  1  0  0  0  0
 18 19  1  0  0  0  0
 19 26  1  6  0  0  0
 19  5  1  0  0  0  0
 20  6  1  0  0  0  0
 21  2  1  0  0  0  0
 23 12  1  0  0  0  0
 23  5  1  0  0  0  0
 24  4  1  0  0  0  0
 25 20  1  0  0  0  0
 25 21  1  0  0  0  0
 26 28  1  0  0  0  0
 27 26  2  0  0  0  0
 30 21  1  0  0  0  0
 30 29  1  1  0  0  0
 31 30  1  0  0  0  0
 32 31  1  0  0  0  0
 33 34  1  6  0  0  0
 33 32  1  0  0  0  0
 35 33  1  0  0  0  0
 37 38  1  0  0  0  0
 37 36  1  0  0  0  0
 38 40  2  0  0  0  0
 38 39  1  0  0  0  0
M  END
>  <MODEL>
1

>  <REMARK>
 VINA RESULT:      -8.4      0.000      0.000
  Name = 
  8 active torsions:
  status: ('A' for Active; 'I' for Inactive)
    1  A    between atoms: O_3  and  C_4
    2  A    between atoms: O_3  and  C_19
    3  A    between atoms: C_4  and  C_25
    4  A    between atoms: C_6  and  O_38
    5  A    between atoms: C_7  and  C_30
    6  A    between atoms: C_15  and  C_20
    7  A    between atoms: C_19  and  N_33
    8  A    between atoms: C_20  and  O_38
                            x       y       z     vdW  Elec       q    Type
                         _______ _______ _______ _____ _____    ______ ____

>  <TORSDO>
F 8

$$$$
