=
 OpenBabel11052409513D

 26 29  0  0  1  0  0  0  0  0999 V2000
  161.8170  209.2730  151.7620 C   0  0  0  0  0  3  0  0  0  0  0  0
  161.0890  204.5330  152.5100 C   0  0  0  0  0  3  0  0  0  0  0  0
  162.0330  210.3410  150.8900 C   0  0  0  0  0  3  0  0  0  0  0  0
  161.4380  206.2940  148.1140 O   0  0  0  0  0  0  0  0  0  0  0  0
  161.4320  206.4700  149.3650 C   0  0  0  0  0  0  0  0  0  0  0  0
  161.2380  205.3870  150.2450 C   0  0  2  0  0  3  0  0  0  0  0  0
  160.9210  203.0380  150.6710 N   0  0  0  0  0  0  0  0  0  0  0  0
  161.6140  207.9630  151.2780 C   0  0  0  0  0  0  0  0  0  0  0  0
  161.6300  207.7540  149.8790 C   0  0  0  0  0  0  0  0  0  0  0  0
  161.8470  208.8390  149.0120 C   0  0  0  0  0  3  0  0  0  0  0  0
  161.2290  205.6320  151.6460 C   0  0  0  0  0  0  0  0  0  0  0  0
  161.0670  204.0550  149.7830 C   0  0  0  0  0  0  0  0  0  0  0  0
  162.0470  210.1240  149.5140 C   0  0  0  0  0  0  0  0  0  0  0  0
  160.9330  203.2460  152.0100 C   0  0  0  0  0  3  0  0  0  0  0  0
  161.3880  206.9150  152.1410 N   0  0  0  0  0  0  0  0  0  0  0  0
  161.0510  203.7850  148.5520 O   0  0  0  0  0  0  0  0  0  0  0  0
  162.4460  212.1060  147.8910 N   0  0  0  0  0  0  0  0  0  0  0  0
  162.2680  211.2210  148.6150 C   0  0  0  0  0  0  0  0  0  0  0  0
  160.3180  207.7540  154.1910 C   0  0  0  0  0  3  0  0  0  0  0  0
  161.3590  207.2170  153.5600 C   0  0  0  0  0  3  0  0  0  0  0  0
  160.0080  209.4240  155.9450 C   0  0  0  0  0  0  0  0  0  0  0  0
  162.1610  209.2270  156.6310 C   0  0  0  0  0  3  0  0  0  0  0  0
  160.3690  208.0270  155.6580 C   0  0  2  0  0  3  0  0  0  0  0  0
  158.8790  209.9410  155.7380 O   0  0  0  0  0  0  0  0  0  0  0  0
  161.0560  210.1010  156.5030 O   0  0  0  0  0  0  0  0  0  0  0  0
  161.7520  207.9040  156.1250 N   0  0  0  0  0  0  0  0  0  0  0  0
  3  1  2  0  0  0  0
  4  5  2  0  0  0  0
  5  9  1  0  0  0  0
  6  5  1  1  0  0  0
  6 11  1  0  0  0  0
  7 14  2  0  0  0  0
  8  1  1  0  0  0  0
  8 15  1  0  0  0  0
  9  8  2  0  0  0  0
 10 13  2  0  0  0  0
 10  9  1  0  0  0  0
 11 15  1  0  0  0  0
 11  2  2  0  0  0  0
 12  6  1  0  0  0  0
 12  7  1  0  0  0  0
 13  3  1  0  0  0  0
 14  2  1  0  0  0  0
 15 20  1  0  0  0  0
 16 12  2  0  0  0  0
 17 18  3  0  0  0  0
 18 13  1  0  0  0  0
 20 19  2  0  0  0  0
 21 25  1  0  0  0  0
 23 19  1  6  0  0  0
 23 21  1  0  0  0  0
 23 26  1  0  0  0  0
 24 21  2  0  0  0  0
 25 22  1  0  0  0  0
 26 22  2  0  0  0  0
M  END
>  <MODEL>
1

>  <REMARK>
 VINA RESULT:      -8.5      0.000      0.000
  Name = 
  3 active torsions:
  status: ('A' for Active; 'I' for Inactive)
    1  A    between atoms: C_4  and  C_5
    2  A    between atoms: C_8  and  C_23
    3  A    between atoms: C_11  and  N_25
                            x       y       z     vdW  Elec       q    Type
                         _______ _______ _______ _____ _____    ______ ____

>  <TORSDO>
F 3

$$$$
=
 OpenBabel11052409513D

 26 29  0  0  1  0  0  0  0  0999 V2000
  161.0120  204.7800  152.7620 C   0  0  0  0  0  3  0  0  0  0  0  0
  161.7150  209.5410  152.1300 C   0  0  0  0  0  3  0  0  0  0  0  0
  160.8580  203.4990  152.2310 C   0  0  0  0  0  3  0  0  0  0  0  0
  161.7000  206.5560  148.4380 O   0  0  0  0  0  0  0  0  0  0  0  0
  161.6060  206.7570  149.6810 C   0  0  0  0  0  0  0  0  0  0  0  0
  161.7390  208.0550  150.2140 C   0  0  2  0  0  3  0  0  0  0  0  0
  162.0390  210.4290  149.9500 N   0  0  0  0  0  0  0  0  0  0  0  0
  161.2630  205.8920  151.9300 C   0  0  0  0  0  0  0  0  0  0  0  0
  161.3580  205.6790  150.5340 C   0  0  0  0  0  0  0  0  0  0  0  0
  161.2020  204.3830  150.0130 C   0  0  0  0  0  3  0  0  0  0  0  0
  161.6350  208.2340  151.6210 C   0  0  0  0  0  0  0  0  0  0  0  0
  161.9560  209.1940  149.3940 C   0  0  0  0  0  0  0  0  0  0  0  0
  160.9530  203.3010  150.8550 C   0  0  0  0  0  0  0  0  0  0  0  0
  161.9200  210.6250  151.2850 C   0  0  0  0  0  3  0  0  0  0  0  0
  161.4280  207.1520  152.4590 N   0  0  0  0  0  0  0  0  0  0  0  0
  162.0700  209.0880  148.1430 O   0  0  0  0  0  0  0  0  0  0  0  0
  160.6700  200.9220  149.8640 N   0  0  0  0  0  0  0  0  0  0  0  0
  160.7960  201.9840  150.3060 C   0  0  0  0  0  0  0  0  0  0  0  0
  160.5110  208.1090  154.5320 C   0  0  0  0  0  3  0  0  0  0  0  0
  161.3430  207.2830  153.9020 C   0  0  0  0  0  3  0  0  0  0  0  0
  160.1540  209.5350  156.4800 C   0  0  0  0  0  0  0  0  0  0  0  0
  162.2530  209.1550  157.2510 C   0  0  0  0  0  3  0  0  0  0  0  0
  160.4820  208.1760  156.0230 C   0  0  2  0  0  3  0  0  0  0  0  0
  159.0590  210.1240  156.2860 O   0  0  0  0  0  0  0  0  0  0  0  0
  161.1890  210.0840  157.1840 O   0  0  0  0  0  0  0  0  0  0  0  0
  161.8300  207.9320  156.5450 N   0  0  0  0  0  0  0  0  0  0  0  0
  3  1  1  0  0  0  0
  4  5  2  0  0  0  0
  5  6  1  0  0  0  0
  5  9  1  0  0  0  0
  6 12  1  6  0  0  0
  6 11  1  0  0  0  0
  7 14  2  0  0  0  0
  8 15  1  0  0  0  0
  8  1  2  0  0  0  0
  9  8  1  0  0  0  0
 10  9  2  0  0  0  0
 10 13  1  0  0  0  0
 11  2  2  0  0  0  0
 11 15  1  0  0  0  0
 12  7  1  0  0  0  0
 13  3  2  0  0  0  0
 14  2  1  0  0  0  0
 15 20  1  0  0  0  0
 16 12  2  0  0  0  0
 17 18  3  0  0  0  0
 18 13  1  0  0  0  0
 20 19  2  0  0  0  0
 21 25  1  0  0  0  0
 23 19  1  6  0  0  0
 23 21  1  0  0  0  0
 23 26  1  0  0  0  0
 24 21  2  0  0  0  0
 25 22  1  0  0  0  0
 26 22  2  0  0  0  0
M  END
>  <MODEL>
2

>  <REMARK>
 VINA RESULT:      -8.3      1.097      4.750
  Name = 
  3 active torsions:
  status: ('A' for Active; 'I' for Inactive)
    1  A    between atoms: C_4  and  C_5
    2  A    between atoms: C_8  and  C_23
    3  A    between atoms: C_11  and  N_25
                            x       y       z     vdW  Elec       q    Type
                         _______ _______ _______ _____ _____    ______ ____

>  <TORSDO>
F 3

$$$$
=
 OpenBabel11052409513D

 26 29  0  0  1  0  0  0  0  0999 V2000
  161.7450  209.6050  151.6170 C   0  0  0  0  0  3  0  0  0  0  0  0
  161.0280  204.9010  152.5750 C   0  0  0  0  0  3  0  0  0  0  0  0
  161.9950  210.6290  150.7020 C   0  0  0  0  0  3  0  0  0  0  0  0
  161.5920  206.4350  148.1170 O   0  0  0  0  0  0  0  0  0  0  0  0
  161.5180  206.6760  149.3540 C   0  0  0  0  0  0  0  0  0  0  0  0
  161.2880  205.6370  150.2800 C   0  0  2  0  0  3  0  0  0  0  0  0
  160.9740  203.3100  150.8110 N   0  0  0  0  0  0  0  0  0  0  0  0
  161.5820  208.2690  151.1920 C   0  0  0  0  0  0  0  0  0  0  0  0
  161.6740  207.9870  149.8090 C   0  0  0  0  0  0  0  0  0  0  0  0
  161.9250  209.0280  148.8990 C   0  0  0  0  0  3  0  0  0  0  0  0
  161.2030  205.9550  151.6630 C   0  0  0  0  0  0  0  0  0  0  0  0
  161.1560  204.2800  149.8800 C   0  0  0  0  0  0  0  0  0  0  0  0
  162.0850  210.3400  149.3420 C   0  0  0  0  0  0  0  0  0  0  0  0
  160.9130  203.5880  152.1360 C   0  0  0  0  0  3  0  0  0  0  0  0
  161.3220  207.2640  152.0970 N   0  0  0  0  0  0  0  0  0  0  0  0
  161.2090  203.9460  148.6660 O   0  0  0  0  0  0  0  0  0  0  0  0
  162.5480  212.2390  147.6390 N   0  0  0  0  0  0  0  0  0  0  0  0
  162.3410  211.3910  148.3990 C   0  0  0  0  0  0  0  0  0  0  0  0
  160.3380  208.5220  153.9690 C   0  0  0  0  0  3  0  0  0  0  0  0
  161.2140  207.6400  153.4940 C   0  0  0  0  0  3  0  0  0  0  0  0
  161.6290  209.1700  155.9360 C   0  0  0  0  0  0  0  0  0  0  0  0
  161.0160  207.2990  157.0620 C   0  0  0  0  0  3  0  0  0  0  0  0
  160.2890  208.8460  155.4250 C   0  0  2  0  0  3  0  0  0  0  0  0
  162.3200  210.1640  155.5880 O   0  0  0  0  0  0  0  0  0  0  0  0
  162.0330  208.2650  156.8760 O   0  0  0  0  0  0  0  0  0  0  0  0
  159.8930  207.6510  156.1740 N   0  0  0  0  0  0  0  0  0  0  0  0
  3  1  2  0  0  0  0
  4  5  2  0  0  0  0
  5  9  1  0  0  0  0
  6  5  1  1  0  0  0
  6 11  1  0  0  0  0
  7 14  2  0  0  0  0
  8  1  1  0  0  0  0
  8 15  1  0  0  0  0
  9  8  2  0  0  0  0
 10 13  2  0  0  0  0
 10  9  1  0  0  0  0
 11 15  1  0  0  0  0
 11  2  2  0  0  0  0
 12  6  1  0  0  0  0
 12  7  1  0  0  0  0
 13  3  1  0  0  0  0
 14  2  1  0  0  0  0
 15 20  1  0  0  0  0
 16 12  2  0  0  0  0
 17 18  3  0  0  0  0
 18 13  1  0  0  0  0
 20 19  2  0  0  0  0
 21 25  1  0  0  0  0
 23 19  1  6  0  0  0
 23 21  1  0  0  0  0
 23 26  1  0  0  0  0
 24 21  2  0  0  0  0
 25 22  1  0  0  0  0
 26 22  2  0  0  0  0
M  END
>  <MODEL>
3

>  <REMARK>
 VINA RESULT:      -8.1      0.931      1.092
  Name = 
  3 active torsions:
  status: ('A' for Active; 'I' for Inactive)
    1  A    between atoms: C_4  and  C_5
    2  A    between atoms: C_8  and  C_23
    3  A    between atoms: C_11  and  N_25
                            x       y       z     vdW  Elec       q    Type
                         _______ _______ _______ _____ _____    ______ ____

>  <TORSDO>
F 3

$$$$
=
 OpenBabel11052409513D

 26 29  0  0  1  0  0  0  0  0999 V2000
  161.4720  209.1310  152.9130 C   0  0  0  0  0  3  0  0  0  0  0  0
  162.0570  207.6920  148.3150 C   0  0  0  0  0  3  0  0  0  0  0  0
  161.1170  208.8490  154.2330 C   0  0  0  0  0  3  0  0  0  0  0  0
  160.7460  204.6240  151.6930 O   0  0  0  0  0  0  0  0  0  0  0  0
  161.0720  205.7940  151.3460 C   0  0  0  0  0  0  0  0  0  0  0  0
  161.4080  206.0820  150.0080 C   0  0  2  0  0  3  0  0  0  0  0  0
  161.6680  205.4290  147.7050 N   0  0  0  0  0  0  0  0  0  0  0  0
  161.4640  208.1250  151.9240 C   0  0  0  0  0  0  0  0  0  0  0  0
  161.0900  206.8140  152.3010 C   0  0  0  0  0  0  0  0  0  0  0  0
  160.7360  206.5440  153.6330 C   0  0  0  0  0  3  0  0  0  0  0  0
  161.7780  207.4110  149.6630 C   0  0  0  0  0  0  0  0  0  0  0  0
  161.3740  205.0950  148.9870 C   0  0  0  0  0  0  0  0  0  0  0  0
  160.7490  207.5540  154.5930 C   0  0  0  0  0  0  0  0  0  0  0  0
  162.0010  206.6930  147.3500 C   0  0  0  0  0  3  0  0  0  0  0  0
  161.8290  208.4040  150.6260 N   0  0  0  0  0  0  0  0  0  0  0  0
  161.0670  203.8990  149.2420 O   0  0  0  0  0  0  0  0  0  0  0  0
  160.0890  207.0250  157.0440 N   0  0  0  0  0  0  0  0  0  0  0  0
  160.3840  207.2610  155.9510 C   0  0  0  0  0  0  0  0  0  0  0  0
  161.7460  210.4830  149.3120 C   0  0  0  0  0  3  0  0  0  0  0  0
  162.2260  209.7670  150.3260 C   0  0  0  0  0  3  0  0  0  0  0  0
  161.0630  212.8100  149.0380 C   0  0  0  0  0  0  0  0  0  0  0  0
  161.9750  212.9230  146.9640 C   0  0  0  0  0  3  0  0  0  0  0  0
  162.2050  211.8840  149.0780 C   0  0  2  0  0  3  0  0  0  0  0  0
  160.2990  213.0660  150.0050 O   0  0  0  0  0  0  0  0  0  0  0  0
  160.9450  213.3970  147.8090 O   0  0  0  0  0  0  0  0  0  0  0  0
  162.8000  211.9810  147.7430 N   0  0  0  0  0  0  0  0  0  0  0  0
  1  3  1  0  0  0  0
  2 11  2  0  0  0  0
  3 13  2  0  0  0  0
  5  4  2  0  0  0  0
  5  9  1  0  0  0  0
  6 12  1  6  0  0  0
  6  5  1  0  0  0  0
  7 12  1  0  0  0  0
  8  9  1  0  0  0  0
  8  1  2  0  0  0  0
  9 10  2  0  0  0  0
 10 13  1  0  0  0  0
 11  6  1  0  0  0  0
 11 15  1  0  0  0  0
 12 16  2  0  0  0  0
 13 18  1  0  0  0  0
 14  7  2  0  0  0  0
 14  2  1  0  0  0  0
 15  8  1  0  0  0  0
 18 17  3  0  0  0  0
 19 20  2  0  0  0  0
 20 15  1  0  0  0  0
 21 23  1  0  0  0  0
 21 24  2  0  0  0  0
 22 26  2  0  0  0  0
 22 25  1  0  0  0  0
 23 19  1  6  0  0  0
 25 21  1  0  0  0  0
 26 23  1  0  0  0  0
M  END
>  <MODEL>
4

>  <REMARK>
 VINA RESULT:      -8.1      2.482      5.839
  Name = 
  3 active torsions:
  status: ('A' for Active; 'I' for Inactive)
    1  A    between atoms: C_4  and  C_5
    2  A    between atoms: C_8  and  C_23
    3  A    between atoms: C_11  and  N_25
                            x       y       z     vdW  Elec       q    Type
                         _______ _______ _______ _____ _____    ______ ____

>  <TORSDO>
F 3

$$$$
=
 OpenBabel11052409513D

 26 29  0  0  1  0  0  0  0  0999 V2000
  161.5900  207.4960  147.7020 C   0  0  0  0  0  3  0  0  0  0  0  0
  160.8310  203.2950  150.0110 C   0  0  0  0  0  3  0  0  0  0  0  0
  161.8190  208.8720  147.7370 C   0  0  0  0  0  3  0  0  0  0  0  0
  161.6690  207.2990  152.4220 O   0  0  0  0  0  0  0  0  0  0  0  0
  161.5320  206.6940  151.3220 C   0  0  0  0  0  0  0  0  0  0  0  0
  161.2770  205.3080  151.2870 C   0  0  2  0  0  3  0  0  0  0  0  0
  160.8510  203.2080  152.3860 N   0  0  0  0  0  0  0  0  0  0  0  0
  161.4870  206.7400  148.8890 C   0  0  0  0  0  0  0  0  0  0  0  0
  161.6280  207.4120  150.1270 C   0  0  0  0  0  0  0  0  0  0  0  0
  161.8600  208.7970  150.1480 C   0  0  0  0  0  3  0  0  0  0  0  0
  161.1390  204.6660  150.0260 C   0  0  0  0  0  0  0  0  0  0  0  0
  161.1350  204.5330  152.4690 C   0  0  0  0  0  0  0  0  0  0  0  0
  161.9550  209.5230  148.9620 C   0  0  0  0  0  0  0  0  0  0  0  0
  160.6930  202.5810  151.1950 C   0  0  0  0  0  3  0  0  0  0  0  0
  161.2740  205.3810  148.8490 N   0  0  0  0  0  0  0  0  0  0  0  0
  161.2620  205.0500  153.6120 O   0  0  0  0  0  0  0  0  0  0  0  0
  162.3850  212.0790  149.0330 N   0  0  0  0  0  0  0  0  0  0  0  0
  162.1930  210.9380  149.0020 C   0  0  0  0  0  0  0  0  0  0  0  0
  162.2080  204.3290  146.8300 C   0  0  0  0  0  3  0  0  0  0  0  0
  161.1690  204.7640  147.5400 C   0  0  0  0  0  3  0  0  0  0  0  0
  161.2060  204.5630  144.6170 C   0  0  0  0  0  0  0  0  0  0  0  0
  159.9560  202.6900  144.8900 C   0  0  0  0  0  3  0  0  0  0  0  0
  162.0110  203.6980  145.4910 C   0  0  2  0  0  3  0  0  0  0  0  0
  161.5540  205.6970  144.1940 O   0  0  0  0  0  0  0  0  0  0  0  0
  160.0230  203.9650  144.2830 O   0  0  0  0  0  0  0  0  0  0  0  0
  161.2060  202.4830  145.6440 N   0  0  0  0  0  0  0  0  0  0  0  0
  1  3  2  0  0  0  0
  1  8  1  0  0  0  0
  2 11  2  0  0  0  0
  2 14  1  0  0  0  0
  3 13  1  0  0  0  0
  5  4  2  0  0  0  0
  6 11  1  1  0  0  0
  6  5  1  0  0  0  0
  6 12  1  0  0  0  0
  7 12  1  0  0  0  0
  8  9  2  0  0  0  0
  9 10  1  0  0  0  0
  9  5  1  0  0  0  0
 12 16  2  0  0  0  0
 13 18  1  0  0  0  0
 13 10  2  0  0  0  0
 14  7  2  0  0  0  0
 15  8  1  0  0  0  0
 15 11  1  0  0  0  0
 18 17  3  0  0  0  0
 19 20  2  0  0  0  0
 20 15  1  0  0  0  0
 21 23  1  0  0  0  0
 22 26  2  0  0  0  0
 23 26  1  0  0  0  0
 23 19  1  1  0  0  0
 24 21  2  0  0  0  0
 25 21  1  0  0  0  0
 25 22  1  0  0  0  0
M  END
>  <MODEL>
5

>  <REMARK>
 VINA RESULT:      -8.0      3.138      6.772
  Name = 
  3 active torsions:
  status: ('A' for Active; 'I' for Inactive)
    1  A    between atoms: C_4  and  C_5
    2  A    between atoms: C_8  and  C_23
    3  A    between atoms: C_11  and  N_25
                            x       y       z     vdW  Elec       q    Type
                         _______ _______ _______ _____ _____    ______ ____

>  <TORSDO>
F 3

$$$$
=
 OpenBabel11052409513D

 26 29  0  0  1  0  0  0  0  0999 V2000
  162.1450  208.0350  148.3760 C   0  0  0  0  0  3  0  0  0  0  0  0
  161.8370  210.1760  152.7210 C   0  0  0  0  0  3  0  0  0  0  0  0
  162.0500  206.8920  147.5810 C   0  0  0  0  0  3  0  0  0  0  0  0
  160.7780  205.5790  152.1740 O   0  0  0  0  0  0  0  0  0  0  0  0
  161.1450  206.6820  151.6810 C   0  0  0  0  0  0  0  0  0  0  0  0
  161.2630  207.8310  152.4900 C   0  0  2  0  0  3  0  0  0  0  0  0
  161.1700  208.9280  154.6310 N   0  0  0  0  0  0  0  0  0  0  0  0
  161.8480  207.9930  149.7550 C   0  0  0  0  0  0  0  0  0  0  0  0
  161.4460  206.7590  150.3190 C   0  0  0  0  0  0  0  0  0  0  0  0
  161.3540  205.6170  149.5070 C   0  0  0  0  0  3  0  0  0  0  0  0
  161.6720  209.0540  151.8910 C   0  0  0  0  0  0  0  0  0  0  0  0
  161.0050  207.8060  153.8860 C   0  0  0  0  0  0  0  0  0  0  0  0
  161.6530  205.6820  148.1470 C   0  0  0  0  0  0  0  0  0  0  0  0
  161.5810  210.0980  154.0850 C   0  0  0  0  0  3  0  0  0  0  0  0
  161.9300  209.1260  150.5330 N   0  0  0  0  0  0  0  0  0  0  0  0
  160.6260  206.7510  154.4640 O   0  0  0  0  0  0  0  0  0  0  0  0
  161.4740  203.5570  146.6730 N   0  0  0  0  0  0  0  0  0  0  0  0
  161.5540  204.5050  147.3310 C   0  0  0  0  0  0  0  0  0  0  0  0
  161.4720  211.3020  149.4810 C   0  0  0  0  0  3  0  0  0  0  0  0
  162.3230  210.3580  149.8740 C   0  0  0  0  0  3  0  0  0  0  0  0
  160.8600  213.5000  148.6120 C   0  0  0  0  0  0  0  0  0  0  0  0
  161.5540  212.9600  146.5200 C   0  0  0  0  0  3  0  0  0  0  0  0
  161.9610  212.5460  148.8150 C   0  0  2  0  0  3  0  0  0  0  0  0
  160.2130  214.0700  149.5280 O   0  0  0  0  0  0  0  0  0  0  0  0
  160.6380  213.7240  147.2820 O   0  0  0  0  0  0  0  0  0  0  0  0
  162.4160  212.2210  147.4600 N   0  0  0  0  0  0  0  0  0  0  0  0
  1  8  1  0  0  0  0
  2 14  1  0  0  0  0
  3 13  1  0  0  0  0
  3  1  2  0  0  0  0
  5  4  2  0  0  0  0
  6  5  1  1  0  0  0
  6 12  1  0  0  0  0
  8  9  2  0  0  0  0
  8 15  1  0  0  0  0
  9  5  1  0  0  0  0
 10  9  1  0  0  0  0
 11  6  1  0  0  0  0
 11  2  2  0  0  0  0
 12 16  2  0  0  0  0
 12  7  1  0  0  0  0
 13 10  2  0  0  0  0
 14  7  2  0  0  0  0
 15 11  1  0  0  0  0
 17 18  3  0  0  0  0
 18 13  1  0  0  0  0
 19 20  2  0  0  0  0
 20 15  1  0  0  0  0
 21 23  1  0  0  0  0
 21 24  2  0  0  0  0
 22 25  1  0  0  0  0
 22 26  2  0  0  0  0
 23 19  1  6  0  0  0
 25 21  1  0  0  0  0
 26 23  1  0  0  0  0
M  END
>  <MODEL>
6

>  <REMARK>
 VINA RESULT:      -7.8      2.898      6.281
  Name = 
  3 active torsions:
  status: ('A' for Active; 'I' for Inactive)
    1  A    between atoms: C_4  and  C_5
    2  A    between atoms: C_8  and  C_23
    3  A    between atoms: C_11  and  N_25
                            x       y       z     vdW  Elec       q    Type
                         _______ _______ _______ _____ _____    ______ ____

>  <TORSDO>
F 3

$$$$
=
 OpenBabel11052409513D

 26 29  0  0  1  0  0  0  0  0999 V2000
  162.1790  208.2790  149.7380 C   0  0  0  0  0  3  0  0  0  0  0  0
  160.9320  206.6960  154.1540 C   0  0  0  0  0  3  0  0  0  0  0  0
  162.3150  209.3220  148.8210 C   0  0  0  0  0  3  0  0  0  0  0  0
  160.7440  211.3140  153.0630 O   0  0  0  0  0  0  0  0  0  0  0  0
  161.0000  210.1220  152.7330 C   0  0  0  0  0  0  0  0  0  0  0  0
  160.8400  209.0670  153.6530 C   0  0  2  0  0  3  0  0  0  0  0  0
  160.1900  208.2260  155.8140 N   0  0  0  0  0  0  0  0  0  0  0  0
  161.7390  208.5190  151.0570 C   0  0  0  0  0  0  0  0  0  0  0  0
  161.4380  209.8490  151.4340 C   0  0  0  0  0  0  0  0  0  0  0  0
  161.5810  210.8900  150.5010 C   0  0  0  0  0  3  0  0  0  0  0  0
  161.1490  207.7420  153.2410 C   0  0  0  0  0  0  0  0  0  0  0  0
  160.3650  209.2780  154.9750 C   0  0  0  0  0  0  0  0  0  0  0  0
  162.0160  210.6280  149.2030 C   0  0  0  0  0  0  0  0  0  0  0  0
  160.4560  206.9530  155.4340 C   0  0  0  0  0  3  0  0  0  0  0  0
  161.6190  207.4900  151.9630 N   0  0  0  0  0  0  0  0  0  0  0  0
  160.0910  210.4350  155.3960 O   0  0  0  0  0  0  0  0  0  0  0  0
  162.2690  212.5690  147.5020 N   0  0  0  0  0  0  0  0  0  0  0  0
  162.1560  211.7030  148.2610 C   0  0  0  0  0  0  0  0  0  0  0  0
  161.1410  205.3380  150.8700 C   0  0  0  0  0  3  0  0  0  0  0  0
  161.9730  206.1580  151.5070 C   0  0  0  0  0  3  0  0  0  0  0  0
  161.2060  203.7370  149.0280 C   0  0  0  0  0  0  0  0  0  0  0  0
  160.0650  202.1840  150.2240 C   0  0  0  0  0  3  0  0  0  0  0  0
  161.5880  203.9840  150.4270 C   0  0  2  0  0  3  0  0  0  0  0  0
  161.6440  204.3700  148.0310 O   0  0  0  0  0  0  0  0  0  0  0  0
  160.3250  202.6970  148.9320 O   0  0  0  0  0  0  0  0  0  0  0  0
  160.8640  202.9630  151.1880 N   0  0  0  0  0  0  0  0  0  0  0  0
  1  8  1  0  0  0  0
  2 14  1  0  0  0  0
  3 13  1  0  0  0  0
  3  1  2  0  0  0  0
  5  4  2  0  0  0  0
  6  5  1  6  0  0  0
  6 12  1  0  0  0  0
  8  9  2  0  0  0  0
  8 15  1  0  0  0  0
  9  5  1  0  0  0  0
 10  9  1  0  0  0  0
 11  6  1  0  0  0  0
 11  2  2  0  0  0  0
 12 16  2  0  0  0  0
 12  7  1  0  0  0  0
 13 10  2  0  0  0  0
 14  7  2  0  0  0  0
 15 11  1  0  0  0  0
 17 18  3  0  0  0  0
 18 13  1  0  0  0  0
 19 20  2  0  0  0  0
 20 15  1  0  0  0  0
 21 23  1  0  0  0  0
 22 26  2  0  0  0  0
 23 19  1  1  0  0  0
 23 26  1  0  0  0  0
 24 21  2  0  0  0  0
 25 21  1  0  0  0  0
 25 22  1  0  0  0  0
M  END
>  <MODEL>
7

>  <REMARK>
 VINA RESULT:      -7.6      1.237      5.792
  Name = 
  3 active torsions:
  status: ('A' for Active; 'I' for Inactive)
    1  A    between atoms: C_4  and  C_5
    2  A    between atoms: C_8  and  C_23
    3  A    between atoms: C_11  and  N_25
                            x       y       z     vdW  Elec       q    Type
                         _______ _______ _______ _____ _____    ______ ____

>  <TORSDO>
F 3

$$$$
=
 OpenBabel11052409513D

 26 29  0  0  1  0  0  0  0  0999 V2000
  161.4450  206.9310  147.7990 C   0  0  0  0  0  3  0  0  0  0  0  0
  161.0610  204.4450  151.9500 C   0  0  0  0  0  3  0  0  0  0  0  0
  161.5240  206.9540  146.4060 C   0  0  0  0  0  3  0  0  0  0  0  0
  160.9390  202.2330  147.7500 O   0  0  0  0  0  0  0  0  0  0  0  0
  161.0270  203.2990  148.4220 C   0  0  0  0  0  0  0  0  0  0  0  0
  160.9700  203.2710  149.8300 C   0  0  2  0  0  3  0  0  0  0  0  0
  160.8290  202.0800  151.9180 N   0  0  0  0  0  0  0  0  0  0  0  0
  161.2790  205.7180  148.5020 C   0  0  0  0  0  0  0  0  0  0  0  0
  161.1910  204.5170  147.7580 C   0  0  0  0  0  0  0  0  0  0  0  0
  161.2710  204.5560  146.3560 C   0  0  0  0  0  3  0  0  0  0  0  0
  161.0640  204.4960  150.5460 C   0  0  0  0  0  0  0  0  0  0  0  0
  160.8400  202.0600  150.5610 C   0  0  0  0  0  0  0  0  0  0  0  0
  161.4370  205.7650  145.6840 C   0  0  0  0  0  0  0  0  0  0  0  0
  160.9400  203.2330  152.6200 C   0  0  0  0  0  3  0  0  0  0  0  0
  161.1880  205.7000  149.8750 N   0  0  0  0  0  0  0  0  0  0  0  0
  160.7380  200.9490  149.9750 O   0  0  0  0  0  0  0  0  0  0  0  0
  161.5810  205.8050  143.0960 N   0  0  0  0  0  0  0  0  0  0  0  0
  161.5170  205.7870  144.2510 C   0  0  0  0  0  0  0  0  0  0  0  0
  162.3330  207.4190  151.2120 C   0  0  0  0  0  3  0  0  0  0  0  0
  161.2600  206.9770  150.5620 C   0  0  0  0  0  3  0  0  0  0  0  0
  161.1760  208.8710  152.7980 C   0  0  0  0  0  0  0  0  0  0  0  0
  160.8370  210.4660  151.2210 C   0  0  0  0  0  3  0  0  0  0  0  0
  162.3250  208.7510  151.8880 C   0  0  2  0  0  3  0  0  0  0  0  0
  160.9940  208.1800  153.8340 O   0  0  0  0  0  0  0  0  0  0  0  0
  160.3280  209.8630  152.3950 O   0  0  0  0  0  0  0  0  0  0  0  0
  162.1090  209.7990  150.8870 N   0  0  0  0  0  0  0  0  0  0  0  0
  1  8  1  0  0  0  0
  2 14  1  0  0  0  0
  3  1  2  0  0  0  0
  4  5  2  0  0  0  0
  6  5  1  1  0  0  0
  6 11  1  0  0  0  0
  6 12  1  0  0  0  0
  7 14  2  0  0  0  0
  8 15  1  0  0  0  0
  9  5  1  0  0  0  0
  9  8  2  0  0  0  0
 10  9  1  0  0  0  0
 11  2  2  0  0  0  0
 12  7  1  0  0  0  0
 13 10  2  0  0  0  0
 13  3  1  0  0  0  0
 15 11  1  0  0  0  0
 15 20  1  0  0  0  0
 16 12  2  0  0  0  0
 17 18  3  0  0  0  0
 18 13  1  0  0  0  0
 20 19  2  0  0  0  0
 21 24  2  0  0  0  0
 22 25  1  0  0  0  0
 23 19  1  6  0  0  0
 23 21  1  0  0  0  0
 25 21  1  0  0  0  0
 26 22  2  0  0  0  0
 26 23  1  0  0  0  0
M  END
>  <MODEL>
8

>  <REMARK>
 VINA RESULT:      -7.4      2.802      4.197
  Name = 
  3 active torsions:
  status: ('A' for Active; 'I' for Inactive)
    1  A    between atoms: C_4  and  C_5
    2  A    between atoms: C_8  and  C_23
    3  A    between atoms: C_11  and  N_25
                            x       y       z     vdW  Elec       q    Type
                         _______ _______ _______ _____ _____    ______ ____

>  <TORSDO>
F 3

$$$$
=
 OpenBabel11052409513D

 26 29  0  0  1  0  0  0  0  0999 V2000
  161.8830  209.3050  148.4620 C   0  0  0  0  0  3  0  0  0  0  0  0
  161.3550  205.8130  151.7910 C   0  0  0  0  0  3  0  0  0  0  0  0
  161.9640  210.6590  148.1300 C   0  0  0  0  0  3  0  0  0  0  0  0
  161.5450  210.3880  153.0480 O   0  0  0  0  0  0  0  0  0  0  0  0
  161.5750  209.4990  152.1520 C   0  0  0  0  0  0  0  0  0  0  0  0
  161.4690  208.1330  152.4860 C   0  0  2  0  0  3  0  0  0  0  0  0
  161.1640  206.3670  154.0940 N   0  0  0  0  0  0  0  0  0  0  0  0
  161.7510  208.8880  149.8030 C   0  0  0  0  0  0  0  0  0  0  0  0
  161.7050  209.8770  150.8130 C   0  0  0  0  0  0  0  0  0  0  0  0
  161.7890  211.2360  150.4660 C   0  0  0  0  0  3  0  0  0  0  0  0
  161.5170  207.1660  151.4460 C   0  0  0  0  0  0  0  0  0  0  0  0
  161.3000  207.6910  153.8250 C   0  0  0  0  0  0  0  0  0  0  0  0
  161.9180  211.6240  149.1340 C   0  0  0  0  0  0  0  0  0  0  0  0
  161.1830  205.4300  153.1160 C   0  0  0  0  0  3  0  0  0  0  0  0
  161.6840  207.5520  150.1270 N   0  0  0  0  0  0  0  0  0  0  0  0
  161.2660  208.5060  154.7860 O   0  0  0  0  0  0  0  0  0  0  0  0
  162.0700  214.1390  148.5220 N   0  0  0  0  0  0  0  0  0  0  0  0
  162.0020  213.0170  148.7950 C   0  0  0  0  0  0  0  0  0  0  0  0
  160.7370  206.2500  148.2660 C   0  0  0  0  0  3  0  0  0  0  0  0
  161.7660  206.5990  149.0350 C   0  0  0  0  0  3  0  0  0  0  0  0
  161.6120  204.0630  147.6270 C   0  0  0  0  0  0  0  0  0  0  0  0
  162.9940  204.9720  146.0760 C   0  0  0  0  0  3  0  0  0  0  0  0
  160.9090  205.2660  147.1570 C   0  0  2  0  0  3  0  0  0  0  0  0
  161.1700  203.2480  148.4790 O   0  0  0  0  0  0  0  0  0  0  0  0
  162.8130  203.9120  146.9940 O   0  0  0  0  0  0  0  0  0  0  0  0
  161.7980  205.8330  146.1400 N   0  0  0  0  0  0  0  0  0  0  0  0
  1  8  1  0  0  0  0
  2 14  1  0  0  0  0
  3  1  2  0  0  0  0
  3 13  1  0  0  0  0
  5  6  1  0  0  0  0
  5  4  2  0  0  0  0
  6 11  1  6  0  0  0
  6 12  1  0  0  0  0
  8 15  1  0  0  0  0
  8  9  2  0  0  0  0
  9  5  1  0  0  0  0
 10  9  1  0  0  0  0
 11  2  2  0  0  0  0
 12  7  1  0  0  0  0
 12 16  2  0  0  0  0
 13 10  2  0  0  0  0
 14  7  2  0  0  0  0
 15 11  1  0  0  0  0
 17 18  3  0  0  0  0
 18 13  1  0  0  0  0
 19 20  2  0  0  0  0
 20 15  1  0  0  0  0
 21 24  2  0  0  0  0
 22 26  2  0  0  0  0
 22 25  1  0  0  0  0
 23 21  1  0  0  0  0
 23 19  1  1  0  0  0
 25 21  1  0  0  0  0
 26 23  1  0  0  0  0
M  END
>  <MODEL>
9

>  <REMARK>
 VINA RESULT:      -7.3      2.024      6.054
  Name = 
  3 active torsions:
  status: ('A' for Active; 'I' for Inactive)
    1  A    between atoms: C_4  and  C_5
    2  A    between atoms: C_8  and  C_23
    3  A    between atoms: C_11  and  N_25
                            x       y       z     vdW  Elec       q    Type
                         _______ _______ _______ _____ _____    ______ ____

>  <TORSDO>
F 3

$$$$
