=
 OpenBabel11042421303D

 69 76  0  0  1  0  0  0  0  0999 V2000
  160.0670  210.3560  155.6850 N   0  0  0  0  0  0  0  0  0  0  0  0
  160.1280  211.1260  151.5570 N   0  0  0  0  0  0  0  0  0  0  0  0
  160.7560  209.3120  152.8910 N   0  0  0  0  0  0  0  0  0  0  0  0
  158.9000  210.9150  153.5930 C   0  0  0  0  0  0  0  0  0  0  0  0
  157.8400  211.2410  155.8130 C   0  0  0  0  0  2  0  0  0  0  0  0
  159.3230  212.2550  151.1740 C   0  0  0  0  0  0  0  0  0  0  0  0
  158.3700  211.0140  157.2230 C   0  0  0  0  0  2  0  0  0  0  0  0
  157.4550  213.4730  149.0820 N   0  0  0  0  0  0  0  0  0  0  0  0
  157.0140  214.0640  150.2850 N   0  0  0  0  0  0  0  0  0  0  0  0
  159.8390  210.6440  157.0890 C   0  0  0  0  0  2  0  0  0  0  0  0
  157.7310  211.6140  152.9430 C   0  0  0  0  0  2  0  0  0  0  0  0
  156.6950  214.4520  152.6130 C   0  0  0  0  0  1  0  0  0  0  0  0
  158.9280  210.7560  154.9270 C   0  0  0  0  0  0  0  0  0  0  0  0
  162.0970  207.7090  153.9900 N   0  0  0  0  0  2  0  0  0  0  0  0
  158.7860  212.9660  148.9250 C   0  0  0  0  0  0  0  0  0  0  0  0
  159.9900  210.4980  152.6840 C   0  0  0  0  0  0  0  0  0  0  0  0
  161.2490  209.6790  155.2430 C   0  0  0  0  0  0  0  0  0  0  0  0
  162.9330  205.7850  152.9930 O   0  0  0  0  0  0  0  0  0  0  0  0
  159.7630  213.1210  150.0390 C   0  0  2  0  0  3  0  0  0  0  0  0
  158.1770  212.5240  151.8280 C   0  0  0  0  0  0  0  0  0  0  0  0
  162.2620  209.6670  155.9960 O   0  0  0  0  0  0  0  0  0  0  0  0
  162.0050  206.6350  153.0460 C   0  0  0  0  0  0  0  0  0  0  0  0
  157.3200  213.6960  151.4960 C   0  0  0  0  0  0  0  0  0  0  0  0
  159.1040  212.3410  147.8770 O   0  0  0  0  0  0  0  0  0  0  0  0
  161.2880  208.8920  153.9980 C   0  0  0  0  0  0  0  0  0  0  0  0
  161.1900  212.8870  149.6320 C   0  0  0  0  0  3  0  0  0  0  0  0
  161.6440  213.3290  148.4620 C   0  0  0  0  0  2  0  0  0  0  0  0
  156.6520  213.6680  147.8840 C   0  0  0  0  0  2  0  0  0  0  0  0
  157.2270  212.8830  146.7210 C   0  0  0  0  0  2  0  0  0  0  0  0
  157.2940  213.7700  145.5040 C   0  0  0  0  0  2  0  0  0  0  0  0
  158.4030  213.2940  144.5780 C   0  0  0  0  0  2  0  0  0  0  0  0
  159.6470  214.1320  144.7900 C   0  0  0  0  0  2  0  0  0  0  0  0
  160.8330  213.4990  144.0860 C   0  0  0  0  0  2  0  0  0  0  0  0
  160.5660  213.3780  142.7190 O   0  0  0  0  0  0  0  0  0  0  0  0
  162.0850  213.3830  141.9540 P   0  0  0  0  0  0  0  0  0  0  0  0
  162.0240  214.3860  140.5950 O   0  0  0  0  0  0  0  0  0  0  0  0
  162.4720  211.8110  141.4450 O   0  0  0  0  0  1  0  0  0  0  0  0
  163.1520  213.8910  142.9010 O   0  0  0  0  0  1  0  0  0  0  0  0
  160.7820  206.4340  152.2150 C   0  0  0  0  0  2  0  0  0  0  0  0
  161.5840  205.2450  150.1760 C   0  0  0  0  0  3  0  0  0  0  0  0
  161.0010  207.5900  150.0100 C   0  0  0  0  0  3  0  0  0  0  0  0
  161.3760  207.5880  148.6640 C   0  0  0  0  0  3  0  0  0  0  0  0
  161.1060  206.4180  150.7650 C   0  0  0  0  0  0  0  0  0  0  0  0
  161.9520  205.2390  148.8280 C   0  0  0  0  0  3  0  0  0  0  0  0
  161.8490  206.4130  148.0620 C   0  0  0  0  0  0  0  0  0  0  0  0
  162.2840  206.4600  146.6890 N   0  0  0  0  0  2  0  0  0  0  0  0
  162.8410  205.3530  145.9120 C   0  0  2  0  0  3  0  0  0  0  0  0
  161.4240  205.3490  143.7600 C   0  0  1  0  0  0  0  0  0  0  0  0
  162.7650  205.6800  144.4280 C   0  0  1  0  0  3  0  0  0  0  0  0
  161.7470  206.7820  144.1330 C   0  0  0  0  0  2  0  0  0  0  0  0
  161.4530  205.1630  142.3810 O   0  0  0  0  0  1  0  0  0  0  0  0
  159.9310  205.5120  145.5920 O   0  0  0  0  0  1  0  0  0  0  0  0
  160.2110  204.8410  144.4440 N   0  0  0  0  0  0  0  0  0  0  0  0
  160.3290  203.4120  144.7430 C   0  0  0  0  0  2  0  0  0  0  0  0
  158.7870  201.6250  145.4800 C   0  0  0  0  0  2  0  0  0  0  0  0
  159.0740  202.6220  144.3800 C   0  0  0  0  0  3  0  0  0  0  0  0
  159.4430  201.1640  144.2000 C   0  0  0  0  0  2  0  0  0  0  0  0
  162.3620  203.4400  147.4060 C   0  0  0  0  0  3  0  0  0  0  0  0
  162.1690  204.0460  146.2380 C   0  0  0  0  0  3  0  0  0  0  0  0
  161.5830  201.2660  146.4540 C   0  0  0  0  0  1  0  0  0  0  0  0
  161.6670  202.1510  147.6880 C   0  0  2  0  0  3  0  0  0  0  0  0
  160.4170  202.3430  148.2990 O   0  0  0  0  0  0  0  0  0  0  0  0
  159.7380  201.2170  148.1500 O   0  0  0  0  0  0  0  0  0  0  0  0
  158.8660  201.1900  149.2420 C   0  0  0  0  0  2  0  0  0  0  0  0
  159.6100  201.6070  150.4970 C   0  0  0  0  0  2  0  0  0  0  0  0
  161.1070  201.5620  150.2370 C   0  0  0  0  0  2  0  0  0  0  0  0
  161.8420  202.2990  151.3400 C   0  0  0  0  0  3  0  0  0  0  0  0
  160.8960  203.2770  152.0000 C   0  0  0  0  0  2  0  0  0  0  0  0
  161.2200  201.9620  152.6790 C   0  0  0  0  0  2  0  0  0  0  0  0
  1 10  1  0  0  0  0
  2 16  2  0  0  0  0
  3 25  2  0  0  0  0
  4 13  2  0  0  0  0
  5  7  1  0  0  0  0
  6  2  1  0  0  0  0
  6 20  2  0  0  0  0
  8  9  1  0  0  0  0
  9 23  2  0  0  0  0
 10  7  1  0  0  0  0
 11  4  1  0  0  0  0
 13  1  1  0  0  0  0
 13  5  1  0  0  0  0
 14 25  1  0  0  0  0
 15  8  1  0  0  0  0
 15 19  1  0  0  0  0
 16  3  1  0  0  0  0
 16  4  1  0  0  0  0
 17  1  1  0  0  0  0
 17 21  2  0  0  0  0
 18 22  2  0  0  0  0
 19 26  1  6  0  0  0
 19  6  1  0  0  0  0
 20 11  1  0  0  0  0
 22 14  1  0  0  0  0
 23 20  1  0  0  0  0
 23 12  1  0  0  0  0
 24 15  2  0  0  0  0
 25 17  1  0  0  0  0
 27 26  2  0  0  0  0
 28  8  1  0  0  0  0
 29 28  1  0  0  0  0
 30 29  1  0  0  0  0
 31 32  1  0  0  0  0
 31 30  1  0  0  0  0
 33 32  1  0  0  0  0
 34 33  1  0  0  0  0
 35 34  1  0  0  0  0
 35 38  1  0  0  0  0
 36 35  2  0  0  0  0
 37 35  1  0  0  0  0
 39 22  1  0  0  0  0
 40 43  1  0  0  0  0
 41 43  2  0  0  0  0
 42 41  1  0  0  0  0
 43 39  1  0  0  0  0
 44 40  2  0  0  0  0
 45 42  2  0  0  0  0
 45 44  1  0  0  0  0
 46 45  1  0  0  0  0
 47 59  1  6  0  0  0
 47 46  1  0  0  0  0
 48 51  1  6  0  0  0
 48 50  1  0  0  0  0
 48 49  1  0  0  0  0
 48 53  1  0  0  0  0
 49 47  1  1  0  0  0
 50 49  1  0  0  0  0
 53 54  1  0  0  0  0
 53 52  1  0  0  0  0
 56 54  1  0  0  0  0
 56 55  1  0  0  0  0
 57 56  1  0  0  0  0
 57 55  1  0  0  0  0
 58 61  1  0  0  0  0
 59 58  2  0  0  0  0
 61 60  1  6  0  0  0
 61 62  1  0  0  0  0
 63 62  1  0  0  0  0
 63 64  1  0  0  0  0
 64 65  1  0  0  0  0
 66 65  1  0  0  0  0
 66 67  1  0  0  0  0
 67 68  1  0  0  0  0
 67 69  1  0  0  0  0
 68 69  1  0  0  0  0
M  END
>  <MODEL>
1

>  <REMARK>
 VINA RESULT:       0.2      0.000      0.000
  Name = 
  25 active torsions:
  status: ('A' for Active; 'I' for Inactive)
    1  A    between atoms: C_2  and  C_10
    2  A    between atoms: C_2  and  C_28
    3  A    between atoms: C_5  and  C_65
    4  A    between atoms: C_6  and  N_59
    5  A    between atoms: C_7  and  C_18
    6  A    between atoms: P_9  and  O_20
    7  A    between atoms: C_10  and  C_12
    8  A    between atoms: C_18  and  N_37
    9  A    between atoms: C_18  and  C_43
   10  A    between atoms: O_20  and  C_45
   11  A    between atoms: C_21  and  C_50
   12  A    between atoms: N_22  and  C_56
   13  A    between atoms: O_23  and  O_24
   14  A    between atoms: O_23  and  C_28
   15  A    between atoms: O_24  and  C_65
   16  A    between atoms: C_25  and  C_69
   17  A    between atoms: C_31  and  C_47
   18  A    between atoms: C_31  and  C_57
   19  A    between atoms: C_34  and  C_55
   20  A    between atoms: C_34  and  C_60
   21  A    between atoms: N_37  and  C_64
   22  A    between atoms: C_45  and  C_57
   23  A    between atoms: C_47  and  C_48
   24  A    between atoms: C_48  and  C_56
   25  A    between atoms: N_59  and  C_69
                            x       y       z     vdW  Elec       q    Type
                         _______ _______ _______ _____ _____    ______ ____

>  <TORSDO>
F 25

$$$$
