=
 OpenBabel11042421113D

 28 30  0  0  1  0  0  0  0  0999 V2000
  161.4470  206.1470  149.3430 C   0  0  1  0  0  3  0  0  0  0  0  0
  161.5730  208.6040  149.9620 C   0  0  0  0  0  0  0  0  0  0  0  0
  161.7130  210.9220  150.5820 N   0  0  0  0  0  0  0  0  0  0  0  0
  160.9160  208.0050  152.5850 N   0  0  0  0  0  0  0  0  0  0  0  0
  161.4780  209.6270  150.9280 C   0  0  0  0  0  0  0  0  0  0  0  0
  161.0020  206.9990  151.6740 C   0  0  0  0  0  3  0  0  0  0  0  0
  162.1510  210.2890  148.3200 C   0  0  0  0  0  3  0  0  0  0  0  0
  161.1450  209.3010  152.2420 C   0  0  0  0  0  3  0  0  0  0  0  0
  162.2810  212.6320  148.9850 N   0  0  0  0  0  1  0  0  0  0  0  0
  162.0440  211.2680  149.3100 C   0  0  0  0  0  0  0  0  0  0  0  0
  161.3270  207.2700  150.3370 C   0  0  0  0  0  0  0  0  0  0  0  0
  161.9160  208.9530  148.6500 C   0  0  0  0  0  3  0  0  0  0  0  0
  161.6290  204.6040  151.3370 C   0  0  0  0  0  3  0  0  0  0  0  0
  161.4920  203.3380  151.9130 C   0  0  0  0  0  3  0  0  0  0  0  0
  160.6730  202.4670  149.8060 C   0  0  0  0  0  0  0  0  0  0  0  0
  161.2900  204.8070  149.9900 C   0  0  0  0  0  0  0  0  0  0  0  0
  161.0160  202.2700  151.1480 C   0  0  0  0  0  3  0  0  0  0  0  0
  160.8180  203.7320  149.2280 C   0  0  0  0  0  3  0  0  0  0  0  0
  161.3190  200.6210  148.4040 N   0  0  0  0  0  1  0  0  0  0  0  0
  160.1880  201.3250  148.9860 C   0  0  0  0  0  2  0  0  0  0  0  0
  160.5080  206.3110  148.2390 N   0  0  0  0  0  2  0  0  0  0  0  0
  161.2770  206.3080  147.0030 C   0  0  0  0  0  2  0  0  0  0  0  0
  160.3510  206.1980  145.7980 C   0  0  0  0  0  2  0  0  0  0  0  0
  160.8560  205.2100  144.8590 N   0  0  0  0  0  2  0  0  0  0  0  0
  161.8560  204.4210  145.5600 C   0  0  0  0  0  2  0  0  0  0  0  0
  161.3830  202.9850  145.6890 C   0  0  0  0  0  2  0  0  0  0  0  0
  159.9550  201.4290  145.0500 C   0  0  0  0  0  1  0  0  0  0  0  0
  160.3090  202.7590  144.8270 O   0  0  0  0  0  0  0  0  0  0  0  0
  1 21  1  6  0  0  0
  1 16  1  0  0  0  0
  1 11  1  0  0  0  0
  2 11  2  0  0  0  0
  2  5  1  0  0  0  0
  3  5  1  0  0  0  0
  5  8  2  0  0  0  0
  6  4  2  0  0  0  0
  7 12  2  0  0  0  0
  7 10  1  0  0  0  0
  8  4  1  0  0  0  0
  9 10  1  0  0  0  0
 10  3  2  0  0  0  0
 11  6  1  0  0  0  0
 12  2  1  0  0  0  0
 13 14  1  0  0  0  0
 15 17  1  0  0  0  0
 16 13  2  0  0  0  0
 17 14  2  0  0  0  0
 18 15  2  0  0  0  0
 18 16  1  0  0  0  0
 19 20  1  0  0  0  0
 20 15  1  0  0  0  0
 22 21  1  0  0  0  0
 23 22  1  0  0  0  0
 24 25  1  0  0  0  0
 24 23  1  0  0  0  0
 25 26  1  0  0  0  0
 28 27  1  0  0  0  0
 28 26  1  0  0  0  0
M  END
>  <MODEL>
1

>  <REMARK>
 VINA RESULT:      -7.8      0.000      0.000
  Name = 
  10 active torsions:
  status: ('A' for Active; 'I' for Inactive)
    1  A    between atoms: C_5  and  N_8
    2  A    between atoms: C_5  and  C_19
    3  A    between atoms: C_6  and  N_8
    4  A    between atoms: C_6  and  C_25
    5  A    between atoms: C_11  and  C_16
    6  A    between atoms: C_11  and  C_23
    7  A    between atoms: C_11  and  N_24
    8  A    between atoms: C_14  and  C_27
    9  A    between atoms: C_19  and  N_24
   10  A    between atoms: O_20  and  C_25
                            x       y       z     vdW  Elec       q    Type
                         _______ _______ _______ _____ _____    ______ ____

>  <TORSDO>
F 10

$$$$
=
 OpenBabel11042421113D

 28 30  0  0  1  0  0  0  0  0999 V2000
  161.1520  205.9690  150.8230 C   0  0  1  0  0  3  0  0  0  0  0  0
  161.2340  207.6720  152.7010 C   0  0  0  0  0  0  0  0  0  0  0  0
  161.2950  209.3120  154.4560 N   0  0  0  0  0  0  0  0  0  0  0  0
  162.2320  209.5830  150.9640 N   0  0  0  0  0  0  0  0  0  0  0  0
  161.5160  208.9760  153.1570 C   0  0  0  0  0  0  0  0  0  0  0  0
  161.9680  208.3330  150.4970 C   0  0  0  0  0  3  0  0  0  0  0  0
  160.5060  207.1090  154.9430 C   0  0  0  0  0  3  0  0  0  0  0  0
  162.0190  209.9210  152.2630 C   0  0  0  0  0  3  0  0  0  0  0  0
  160.5860  208.7990  156.7000 N   0  0  0  0  0  1  0  0  0  0  0  0
  160.8010  208.4130  155.3490 C   0  0  0  0  0  0  0  0  0  0  0  0
  161.4680  207.3410  151.3540 C   0  0  0  0  0  0  0  0  0  0  0  0
  160.7230  206.7400  153.6140 C   0  0  0  0  0  3  0  0  0  0  0  0
  160.1070  206.4880  148.5800 C   0  0  0  0  0  3  0  0  0  0  0  0
  160.1260  206.4240  147.1840 C   0  0  0  0  0  3  0  0  0  0  0  0
  162.2450  205.2530  147.2660 C   0  0  0  0  0  0  0  0  0  0  0  0
  161.1580  205.9330  149.3260 C   0  0  0  0  0  0  0  0  0  0  0  0
  161.1930  205.8050  146.5270 C   0  0  0  0  0  3  0  0  0  0  0  0
  162.2220  205.3110  148.6630 C   0  0  0  0  0  3  0  0  0  0  0  0
  162.9770  204.2460  145.2070 N   0  0  0  0  0  1  0  0  0  0  0  0
  163.3690  204.5750  146.5670 C   0  0  0  0  0  2  0  0  0  0  0  0
  162.0530  204.9640  151.3750 N   0  0  0  0  0  2  0  0  0  0  0  0
  161.2330  203.9100  151.9560 C   0  0  0  0  0  2  0  0  0  0  0  0
  161.4670  202.5910  151.2290 C   0  0  0  0  0  2  0  0  0  0  0  0
  160.5070  202.4310  150.1490 N   0  0  0  0  0  2  0  0  0  0  0  0
  160.5730  201.0440  149.7160 C   0  0  0  0  0  2  0  0  0  0  0  0
  161.2340  200.9600  148.3530 C   0  0  0  0  0  2  0  0  0  0  0  0
  160.7820  201.5720  146.2830 C   0  0  0  0  0  1  0  0  0  0  0  0
  160.8760  202.0670  147.5820 O   0  0  0  0  0  0  0  0  0  0  0  0
  1 11  1  0  0  0  0
  1 21  1  1  0  0  0
  2  5  1  0  0  0  0
  2 12  2  0  0  0  0
  3 10  1  0  0  0  0
  4  8  2  0  0  0  0
  5  3  2  0  0  0  0
  6  4  1  0  0  0  0
  6 11  2  0  0  0  0
  7 10  2  0  0  0  0
  8  5  1  0  0  0  0
 10  9  1  0  0  0  0
 11  2  1  0  0  0  0
 12  7  1  0  0  0  0
 13 16  1  0  0  0  0
 14 13  2  0  0  0  0
 15 18  1  0  0  0  0
 16  1  1  0  0  0  0
 17 14  1  0  0  0  0
 17 15  2  0  0  0  0
 18 16  2  0  0  0  0
 19 20  1  0  0  0  0
 20 15  1  0  0  0  0
 21 22  1  0  0  0  0
 23 22  1  0  0  0  0
 24 23  1  0  0  0  0
 25 24  1  0  0  0  0
 26 25  1  0  0  0  0
 27 28  1  0  0  0  0
 28 26  1  0  0  0  0
M  END
>  <MODEL>
2

>  <REMARK>
 VINA RESULT:      -7.7      1.956      4.594
  Name = 
  10 active torsions:
  status: ('A' for Active; 'I' for Inactive)
    1  A    between atoms: C_5  and  N_8
    2  A    between atoms: C_5  and  C_19
    3  A    between atoms: C_6  and  N_8
    4  A    between atoms: C_6  and  C_25
    5  A    between atoms: C_11  and  C_16
    6  A    between atoms: C_11  and  C_23
    7  A    between atoms: C_11  and  N_24
    8  A    between atoms: C_14  and  C_27
    9  A    between atoms: C_19  and  N_24
   10  A    between atoms: O_20  and  C_25
                            x       y       z     vdW  Elec       q    Type
                         _______ _______ _______ _____ _____    ______ ____

>  <TORSDO>
F 10

$$$$
=
 OpenBabel11042421113D

 28 30  0  0  1  0  0  0  0  0999 V2000
  161.0890  208.8730  151.5820 C   0  0  1  0  0  3  0  0  0  0  0  0
  161.1510  206.4340  150.8850 C   0  0  0  0  0  0  0  0  0  0  0  0
  161.1810  204.1160  150.2520 N   0  0  0  0  0  0  0  0  0  0  0  0
  161.2020  205.6470  153.5390 N   0  0  0  0  0  0  0  0  0  0  0  0
  161.1810  205.0660  151.2250 C   0  0  0  0  0  0  0  0  0  0  0  0
  161.1710  206.9730  153.2390 C   0  0  0  0  0  3  0  0  0  0  0  0
  161.1190  205.7920  148.5490 C   0  0  0  0  0  3  0  0  0  0  0  0
  161.2070  204.6950  152.5690 C   0  0  0  0  0  3  0  0  0  0  0  0
  161.1540  203.4290  147.9440 N   0  0  0  0  0  1  0  0  0  0  0  0
  161.1510  204.4490  148.9340 C   0  0  0  0  0  0  0  0  0  0  0  0
  161.1510  207.4040  151.9040 C   0  0  0  0  0  0  0  0  0  0  0  0
  161.1180  206.7860  149.5290 C   0  0  0  0  0  3  0  0  0  0  0  0
  159.5640  210.3550  152.9500 C   0  0  0  0  0  3  0  0  0  0  0  0
  159.3220  211.1380  154.0820 C   0  0  0  0  0  3  0  0  0  0  0  0
  161.5370  210.6190  154.9150 C   0  0  0  0  0  0  0  0  0  0  0  0
  160.7960  209.7000  152.7950 C   0  0  0  0  0  0  0  0  0  0  0  0
  160.3090  211.2720  155.0630 C   0  0  0  0  0  3  0  0  0  0  0  0
  161.7820  209.8420  153.7780 C   0  0  0  0  0  3  0  0  0  0  0  0
  162.5790  209.6410  156.8500 N   0  0  0  0  0  1  0  0  0  0  0  0
  162.5940  210.7800  155.9480 C   0  0  0  0  0  2  0  0  0  0  0  0
  162.3080  209.3240  150.9210 N   0  0  0  0  0  2  0  0  0  0  0  0
  162.0050  210.5800  150.2490 C   0  0  0  0  0  2  0  0  0  0  0  0
  162.1010  210.4130  148.7370 C   0  0  0  0  0  2  0  0  0  0  0  0
  162.4920  211.6670  148.1130 N   0  0  0  0  0  2  0  0  0  0  0  0
  161.2880  212.2680  147.5630 C   0  0  0  0  0  2  0  0  0  0  0  0
  161.2520  213.7480  147.8950 C   0  0  0  0  0  2  0  0  0  0  0  0
  159.7740  213.6130  149.5260 C   0  0  0  0  0  1  0  0  0  0  0  0
  161.1090  213.9230  149.2720 O   0  0  0  0  0  0  0  0  0  0  0  0
  1 21  1  1  0  0  0
  1 11  1  0  0  0  0
  1 16  1  0  0  0  0
  2  5  2  0  0  0  0
  2 11  1  0  0  0  0
  3  5  1  0  0  0  0
  5  8  1  0  0  0  0
  6  4  1  0  0  0  0
  7 10  1  0  0  0  0
  7 12  2  0  0  0  0
  8  4  2  0  0  0  0
  9 10  1  0  0  0  0
 10  3  2  0  0  0  0
 11  6  2  0  0  0  0
 12  2  1  0  0  0  0
 13 14  1  0  0  0  0
 14 17  2  0  0  0  0
 15 17  1  0  0  0  0
 15 20  1  0  0  0  0
 16 13  2  0  0  0  0
 16 18  1  0  0  0  0
 18 15  2  0  0  0  0
 20 19  1  0  0  0  0
 22 21  1  0  0  0  0
 23 22  1  0  0  0  0
 24 23  1  0  0  0  0
 25 26  1  0  0  0  0
 25 24  1  0  0  0  0
 26 28  1  0  0  0  0
 28 27  1  0  0  0  0
M  END
>  <MODEL>
3

>  <REMARK>
 VINA RESULT:      -7.5      3.213      7.568
  Name = 
  10 active torsions:
  status: ('A' for Active; 'I' for Inactive)
    1  A    between atoms: C_5  and  N_8
    2  A    between atoms: C_5  and  C_19
    3  A    between atoms: C_6  and  N_8
    4  A    between atoms: C_6  and  C_25
    5  A    between atoms: C_11  and  C_16
    6  A    between atoms: C_11  and  C_23
    7  A    between atoms: C_11  and  N_24
    8  A    between atoms: C_14  and  C_27
    9  A    between atoms: C_19  and  N_24
   10  A    between atoms: O_20  and  C_25
                            x       y       z     vdW  Elec       q    Type
                         _______ _______ _______ _____ _____    ______ ____

>  <TORSDO>
F 10

$$$$
=
 OpenBabel11042421113D

 28 30  0  0  1  0  0  0  0  0999 V2000
  161.1290  209.0440  151.5950 C   0  0  1  0  0  3  0  0  0  0  0  0
  161.1600  206.5780  151.0020 C   0  0  0  0  0  0  0  0  0  0  0  0
  161.1620  204.2350  150.4680 N   0  0  0  0  0  0  0  0  0  0  0  0
  161.2030  205.9040  153.6870 N   0  0  0  0  0  0  0  0  0  0  0  0
  161.1750  205.2250  151.4010 C   0  0  0  0  0  0  0  0  0  0  0  0
  161.1890  207.2160  153.3310 C   0  0  0  0  0  3  0  0  0  0  0  0
  161.1200  205.8370  148.6960 C   0  0  0  0  0  3  0  0  0  0  0  0
  161.1970  204.9110  152.7590 C   0  0  0  0  0  3  0  0  0  0  0  0
  161.1260  203.4510  148.1920 N   0  0  0  0  0  1  0  0  0  0  0  0
  161.1350  204.5120  149.1370 C   0  0  0  0  0  0  0  0  0  0  0  0
  161.1730  207.5900  151.9790 C   0  0  0  0  0  0  0  0  0  0  0  0
  161.1310  206.8710  149.6330 C   0  0  0  0  0  3  0  0  0  0  0  0
  161.7630  210.2140  153.7450 C   0  0  0  0  0  3  0  0  0  0  0  0
  161.4280  211.0200  154.8370 C   0  0  0  0  0  3  0  0  0  0  0  0
  159.1770  211.2540  153.9750 C   0  0  0  0  0  0  0  0  0  0  0  0
  160.8030  209.9230  152.7630 C   0  0  0  0  0  0  0  0  0  0  0  0
  160.1360  211.5380  154.9530 C   0  0  0  0  0  3  0  0  0  0  0  0
  159.5090  210.4410  152.8870 C   0  0  0  0  0  3  0  0  0  0  0  0
  157.6230  212.9350  153.2360 N   0  0  0  0  0  1  0  0  0  0  0  0
  157.7950  211.7880  154.1110 C   0  0  0  0  0  2  0  0  0  0  0  0
  162.3690  209.4630  150.9530 N   0  0  0  0  0  2  0  0  0  0  0  0
  162.0820  210.6660  150.1840 C   0  0  0  0  0  2  0  0  0  0  0  0
  162.0150  210.3440  148.6960 C   0  0  0  0  0  2  0  0  0  0  0  0
  161.6450  211.5290  147.9380 N   0  0  0  0  0  2  0  0  0  0  0  0
  162.7420  212.4750  148.0540 C   0  0  0  0  0  2  0  0  0  0  0  0
  162.5100  213.6520  147.1260 C   0  0  0  0  0  2  0  0  0  0  0  0
  162.6840  213.4080  144.9410 C   0  0  0  0  0  1  0  0  0  0  0  0
  161.7960  213.2370  146.0010 O   0  0  0  0  0  0  0  0  0  0  0  0
  1 21  1  1  0  0  0
  1 11  1  0  0  0  0
  1 16  1  0  0  0  0
  2  5  2  0  0  0  0
  2 11  1  0  0  0  0
  3  5  1  0  0  0  0
  5  8  1  0  0  0  0
  6  4  1  0  0  0  0
  7 10  1  0  0  0  0
  7 12  2  0  0  0  0
  8  4  2  0  0  0  0
  9 10  1  0  0  0  0
 10  3  2  0  0  0  0
 11  6  2  0  0  0  0
 12  2  1  0  0  0  0
 13 14  1  0  0  0  0
 14 17  2  0  0  0  0
 15 20  1  0  0  0  0
 15 17  1  0  0  0  0
 16 18  1  0  0  0  0
 16 13  2  0  0  0  0
 18 15  2  0  0  0  0
 19 20  1  0  0  0  0
 22 21  1  0  0  0  0
 23 22  1  0  0  0  0
 24 25  1  0  0  0  0
 24 23  1  0  0  0  0
 26 25  1  0  0  0  0
 27 28  1  0  0  0  0
 28 26  1  0  0  0  0
M  END
>  <MODEL>
4

>  <REMARK>
 VINA RESULT:      -7.5      3.161      7.521
  Name = 
  10 active torsions:
  status: ('A' for Active; 'I' for Inactive)
    1  A    between atoms: C_5  and  N_8
    2  A    between atoms: C_5  and  C_19
    3  A    between atoms: C_6  and  N_8
    4  A    between atoms: C_6  and  C_25
    5  A    between atoms: C_11  and  C_16
    6  A    between atoms: C_11  and  C_23
    7  A    between atoms: C_11  and  N_24
    8  A    between atoms: C_14  and  C_27
    9  A    between atoms: C_19  and  N_24
   10  A    between atoms: O_20  and  C_25
                            x       y       z     vdW  Elec       q    Type
                         _______ _______ _______ _____ _____    ______ ____

>  <TORSDO>
F 10

$$$$
=
 OpenBabel11042421113D

 28 30  0  0  1  0  0  0  0  0999 V2000
  161.5700  207.1290  151.9120 C   0  0  1  0  0  3  0  0  0  0  0  0
  160.6840  208.9170  153.4790 C   0  0  0  0  0  0  0  0  0  0  0  0
  159.8700  210.5960  154.9930 N   0  0  0  0  0  0  0  0  0  0  0  0
  160.4340  207.0520  155.5110 N   0  0  0  0  0  0  0  0  0  0  0  0
  160.2070  209.3020  154.7500 C   0  0  0  0  0  0  0  0  0  0  0  0
  160.8970  206.6540  154.2960 C   0  0  0  0  0  3  0  0  0  0  0  0
  160.4480  211.2180  152.7590 C   0  0  0  0  0  3  0  0  0  0  0  0
  160.0890  208.3440  155.7570 C   0  0  0  0  0  3  0  0  0  0  0  0
  159.6140  212.8950  154.3220 N   0  0  0  0  0  1  0  0  0  0  0  0
  159.9790  211.5520  154.0320 C   0  0  0  0  0  0  0  0  0  0  0  0
  161.0300  207.5730  153.2450 C   0  0  0  0  0  0  0  0  0  0  0  0
  160.8020  209.8960  152.4850 C   0  0  0  0  0  3  0  0  0  0  0  0
  161.1750  204.7640  152.7160 C   0  0  0  0  0  3  0  0  0  0  0  0
  160.9510  203.4110  152.4510 C   0  0  0  0  0  3  0  0  0  0  0  0
  160.9880  203.8680  150.0730 C   0  0  0  0  0  0  0  0  0  0  0  0
  161.3080  205.6770  151.6580 C   0  0  0  0  0  0  0  0  0  0  0  0
  160.8600  202.9620  151.1310 C   0  0  0  0  0  3  0  0  0  0  0  0
  161.2200  205.2220  150.3370 C   0  0  0  0  0  3  0  0  0  0  0  0
  160.8100  201.9370  148.6480 N   0  0  0  0  0  1  0  0  0  0  0  0
  160.9130  203.3870  148.6670 C   0  0  0  0  0  2  0  0  0  0  0  0
  161.0530  207.9540  150.8270 N   0  0  0  0  0  2  0  0  0  0  0  0
  162.1860  208.3780  150.0170 C   0  0  0  0  0  2  0  0  0  0  0  0
  161.8220  208.3590  148.5380 C   0  0  0  0  0  2  0  0  0  0  0  0
  162.5420  207.2980  147.8520 N   0  0  0  0  0  2  0  0  0  0  0  0
  161.5880  206.6150  146.9930 C   0  0  0  0  0  2  0  0  0  0  0  0
  162.3220  205.6950  146.0360 C   0  0  0  0  0  2  0  0  0  0  0  0
  160.3140  206.0670  145.2010 C   0  0  0  0  0  1  0  0  0  0  0  0
  161.5250  205.4380  144.9190 O   0  0  0  0  0  0  0  0  0  0  0  0
  1 21  1  6  0  0  0
  1 11  1  0  0  0  0
  2  5  1  0  0  0  0
  4  8  1  0  0  0  0
  5  3  1  0  0  0  0
  5  8  2  0  0  0  0
  6  4  2  0  0  0  0
  7 10  1  0  0  0  0
 10  9  1  0  0  0  0
 10  3  2  0  0  0  0
 11  2  2  0  0  0  0
 11  6  1  0  0  0  0
 12  7  2  0  0  0  0
 12  2  1  0  0  0  0
 14 13  1  0  0  0  0
 15 18  2  0  0  0  0
 15 17  1  0  0  0  0
 16  1  1  0  0  0  0
 16 13  2  0  0  0  0
 17 14  2  0  0  0  0
 18 16  1  0  0  0  0
 19 20  1  0  0  0  0
 20 15  1  0  0  0  0
 22 21  1  0  0  0  0
 23 22  1  0  0  0  0
 24 23  1  0  0  0  0
 25 24  1  0  0  0  0
 26 25  1  0  0  0  0
 28 27  1  0  0  0  0
 28 26  1  0  0  0  0
M  END
>  <MODEL>
5

>  <REMARK>
 VINA RESULT:      -7.4      2.168      3.391
  Name = 
  10 active torsions:
  status: ('A' for Active; 'I' for Inactive)
    1  A    between atoms: C_5  and  N_8
    2  A    between atoms: C_5  and  C_19
    3  A    between atoms: C_6  and  N_8
    4  A    between atoms: C_6  and  C_25
    5  A    between atoms: C_11  and  C_16
    6  A    between atoms: C_11  and  C_23
    7  A    between atoms: C_11  and  N_24
    8  A    between atoms: C_14  and  C_27
    9  A    between atoms: C_19  and  N_24
   10  A    between atoms: O_20  and  C_25
                            x       y       z     vdW  Elec       q    Type
                         _______ _______ _______ _____ _____    ______ ____

>  <TORSDO>
F 10

$$$$
=
 OpenBabel11042421113D

 28 30  0  0  1  0  0  0  0  0999 V2000
  161.3270  206.7020  150.6300 C   0  0  1  0  0  3  0  0  0  0  0  0
  161.1940  204.5530  149.2870 C   0  0  0  0  0  0  0  0  0  0  0  0
  161.0360  202.5070  148.0360 N   0  0  0  0  0  0  0  0  0  0  0  0
  160.8390  203.0900  151.6100 N   0  0  0  0  0  0  0  0  0  0  0  0
  161.0290  203.1540  149.2330 C   0  0  0  0  0  0  0  0  0  0  0  0
  160.9950  204.4380  151.6910 C   0  0  0  0  0  3  0  0  0  0  0  0
  161.3680  204.5670  146.8700 C   0  0  0  0  0  3  0  0  0  0  0  0
  160.8530  202.4380  150.4170 C   0  0  0  0  0  3  0  0  0  0  0  0
  161.2060  202.4700  145.6350 N   0  0  0  0  0  1  0  0  0  0  0  0
  161.2010  203.1800  146.8660 C   0  0  0  0  0  0  0  0  0  0  0  0
  161.1830  205.2070  150.5330 C   0  0  0  0  0  0  0  0  0  0  0  0
  161.3620  205.2540  148.0850 C   0  0  0  0  0  3  0  0  0  0  0  0
  161.3770  206.3340  153.1310 C   0  0  0  0  0  3  0  0  0  0  0  0
  161.2060  206.8080  154.4340 C   0  0  0  0  0  3  0  0  0  0  0  0
  160.6240  208.9930  153.5640 C   0  0  0  0  0  0  0  0  0  0  0  0
  161.1710  207.1890  152.0370 C   0  0  0  0  0  0  0  0  0  0  0  0
  160.8280  208.1370  154.6510 C   0  0  0  0  0  3  0  0  0  0  0  0
  160.7880  208.5170  152.2600 C   0  0  0  0  0  3  0  0  0  0  0  0
  160.5850  211.2230  152.6610 N   0  0  0  0  0  1  0  0  0  0  0  0
  160.2010  210.4000  153.7950 C   0  0  0  0  0  2  0  0  0  0  0  0
  162.5880  207.1540  150.0540 N   0  0  0  0  0  2  0  0  0  0  0  0
  162.2720  208.0330  148.9370 C   0  0  0  0  0  2  0  0  0  0  0  0
  162.2410  209.4860  149.3950 C   0  0  0  0  0  2  0  0  0  0  0  0
  161.9510  210.3640  148.2730 N   0  0  0  0  0  2  0  0  0  0  0  0
  162.0550  211.7310  148.7580 C   0  0  0  0  0  2  0  0  0  0  0  0
  163.0240  212.5140  147.8920 C   0  0  0  0  0  2  0  0  0  0  0  0
  161.3170  213.8880  148.1480 C   0  0  0  0  0  1  0  0  0  0  0  0
  162.6900  213.8690  147.9100 O   0  0  0  0  0  0  0  0  0  0  0  0
  1 21  1  1  0  0  0
  1 16  1  0  0  0  0
  2 11  1  0  0  0  0
  3  5  1  0  0  0  0
  4  6  1  0  0  0  0
  5  2  2  0  0  0  0
  5  8  1  0  0  0  0
  7 12  2  0  0  0  0
  8  4  2  0  0  0  0
  9 10  1  0  0  0  0
 10  7  1  0  0  0  0
 10  3  2  0  0  0  0
 11  1  1  0  0  0  0
 11  6  2  0  0  0  0
 12  2  1  0  0  0  0
 13 14  1  0  0  0  0
 14 17  2  0  0  0  0
 15 20  1  0  0  0  0
 15 17  1  0  0  0  0
 16 18  1  0  0  0  0
 16 13  2  0  0  0  0
 18 15  2  0  0  0  0
 19 20  1  0  0  0  0
 22 23  1  0  0  0  0
 22 21  1  0  0  0  0
 24 25  1  0  0  0  0
 24 23  1  0  0  0  0
 26 28  1  0  0  0  0
 26 25  1  0  0  0  0
 28 27  1  0  0  0  0
M  END
>  <MODEL>
6

>  <REMARK>
 VINA RESULT:      -7.3      2.906      7.128
  Name = 
  10 active torsions:
  status: ('A' for Active; 'I' for Inactive)
    1  A    between atoms: C_5  and  N_8
    2  A    between atoms: C_5  and  C_19
    3  A    between atoms: C_6  and  N_8
    4  A    between atoms: C_6  and  C_25
    5  A    between atoms: C_11  and  C_16
    6  A    between atoms: C_11  and  C_23
    7  A    between atoms: C_11  and  N_24
    8  A    between atoms: C_14  and  C_27
    9  A    between atoms: C_19  and  N_24
   10  A    between atoms: O_20  and  C_25
                            x       y       z     vdW  Elec       q    Type
                         _______ _______ _______ _____ _____    ______ ____

>  <TORSDO>
F 10

$$$$
=
 OpenBabel11042421113D

 28 30  0  0  1  0  0  0  0  0999 V2000
  161.4910  207.1220  151.9550 C   0  0  1  0  0  3  0  0  0  0  0  0
  161.1520  205.0380  150.5490 C   0  0  0  0  0  0  0  0  0  0  0  0
  160.8580  203.0780  149.1900 N   0  0  0  0  0  0  0  0  0  0  0  0
  160.9380  206.5820  148.2610 N   0  0  0  0  0  0  0  0  0  0  0  0
  160.9470  204.4310  149.2930 C   0  0  0  0  0  0  0  0  0  0  0  0
  161.1370  207.1930  149.4600 C   0  0  0  0  0  3  0  0  0  0  0  0
  161.1660  202.8300  151.5470 C   0  0  0  0  0  3  0  0  0  0  0  0
  160.8420  205.2310  148.1550 C   0  0  0  0  0  3  0  0  0  0  0  0
  160.8600  200.8640  150.1370 N   0  0  0  0  0  1  0  0  0  0  0  0
  160.9610  202.2740  150.2820 C   0  0  0  0  0  0  0  0  0  0  0  0
  161.2430  206.4390  150.6370 C   0  0  0  0  0  0  0  0  0  0  0  0
  161.2620  204.2170  151.6780 C   0  0  0  0  0  3  0  0  0  0  0  0
  162.3090  209.3840  151.1750 C   0  0  0  0  0  3  0  0  0  0  0  0
  162.1680  210.7730  151.1080 C   0  0  0  0  0  3  0  0  0  0  0  0
  160.1160  210.6270  152.3860 C   0  0  0  0  0  0  0  0  0  0  0  0
  161.3530  208.6090  151.8500 C   0  0  0  0  0  0  0  0  0  0  0  0
  161.0730  211.3940  151.7150 C   0  0  0  0  0  3  0  0  0  0  0  0
  160.2610  209.2370  152.4590 C   0  0  0  0  0  3  0  0  0  0  0  0
  159.3520  212.6130  153.5080 N   0  0  0  0  0  1  0  0  0  0  0  0
  158.9620  211.2910  153.0500 C   0  0  0  0  0  2  0  0  0  0  0  0
  160.6270  206.5880  153.0020 N   0  0  0  0  0  2  0  0  0  0  0  0
  161.2740  206.8480  154.2810 C   0  0  0  0  0  2  0  0  0  0  0  0
  160.2320  207.0420  155.3760 C   0  0  0  0  0  2  0  0  0  0  0  0
  160.8600  207.5340  156.5910 N   0  0  0  0  0  2  0  0  0  0  0  0
  161.5770  208.7490  156.2440 C   0  0  0  0  0  2  0  0  0  0  0  0
  160.7870  209.9630  156.6980 C   0  0  0  0  0  2  0  0  0  0  0  0
  162.3330  210.7030  155.3090 C   0  0  0  0  0  1  0  0  0  0  0  0
  161.1450  211.0750  155.9360 O   0  0  0  0  0  0  0  0  0  0  0  0
  1 21  1  1  0  0  0
  2 11  1  0  0  0  0
  2 12  2  0  0  0  0
  3  5  2  0  0  0  0
  3 10  1  0  0  0  0
  4  6  1  0  0  0  0
  5  2  1  0  0  0  0
  6 11  2  0  0  0  0
  7 12  1  0  0  0  0
  8  4  2  0  0  0  0
  8  5  1  0  0  0  0
  9 10  1  0  0  0  0
 10  7  2  0  0  0  0
 11  1  1  0  0  0  0
 13 16  1  0  0  0  0
 14 13  2  0  0  0  0
 14 17  1  0  0  0  0
 15 18  1  0  0  0  0
 15 20  1  0  0  0  0
 16  1  1  0  0  0  0
 16 18  2  0  0  0  0
 17 15  2  0  0  0  0
 20 19  1  0  0  0  0
 21 22  1  0  0  0  0
 22 23  1  0  0  0  0
 23 24  1  0  0  0  0
 25 24  1  0  0  0  0
 25 26  1  0  0  0  0
 27 28  1  0  0  0  0
 28 26  1  0  0  0  0
M  END
>  <MODEL>
7

>  <REMARK>
 VINA RESULT:      -7.0      3.488      8.641
  Name = 
  10 active torsions:
  status: ('A' for Active; 'I' for Inactive)
    1  A    between atoms: C_5  and  N_8
    2  A    between atoms: C_5  and  C_19
    3  A    between atoms: C_6  and  N_8
    4  A    between atoms: C_6  and  C_25
    5  A    between atoms: C_11  and  C_16
    6  A    between atoms: C_11  and  C_23
    7  A    between atoms: C_11  and  N_24
    8  A    between atoms: C_14  and  C_27
    9  A    between atoms: C_19  and  N_24
   10  A    between atoms: O_20  and  C_25
                            x       y       z     vdW  Elec       q    Type
                         _______ _______ _______ _____ _____    ______ ____

>  <TORSDO>
F 10

$$$$
=
 OpenBabel11042421113D

 28 30  0  0  1  0  0  0  0  0999 V2000
  160.9570  206.1490  149.8470 C   0  0  1  0  0  3  0  0  0  0  0  0
  161.4220  208.3130  151.0860 C   0  0  0  0  0  0  0  0  0  0  0  0
  161.8440  210.3830  152.2310 N   0  0  0  0  0  0  0  0  0  0  0  0
  162.3320  209.4890  148.7510 N   0  0  0  0  0  0  0  0  0  0  0  0
  161.8650  209.6520  151.0850 C   0  0  0  0  0  0  0  0  0  0  0  0
  161.9100  208.1960  148.7240 C   0  0  0  0  0  3  0  0  0  0  0  0
  160.9530  208.5330  153.4530 C   0  0  0  0  0  3  0  0  0  0  0  0
  162.3200  210.2220  149.8960 C   0  0  0  0  0  3  0  0  0  0  0  0
  161.3980  210.6490  154.5820 N   0  0  0  0  0  1  0  0  0  0  0  0
  161.4020  209.8550  153.4030 C   0  0  0  0  0  0  0  0  0  0  0  0
  161.4480  207.5710  149.8910 C   0  0  0  0  0  0  0  0  0  0  0  0
  160.9620  207.7620  152.2900 C   0  0  0  0  0  3  0  0  0  0  0  0
  161.9700  204.3350  148.4060 C   0  0  0  0  0  3  0  0  0  0  0  0
  162.2100  203.7700  147.1500 C   0  0  0  0  0  3  0  0  0  0  0  0
  160.9340  205.5440  146.1060 C   0  0  0  0  0  0  0  0  0  0  0  0
  161.2110  205.5100  148.5160 C   0  0  0  0  0  0  0  0  0  0  0  0
  161.6940  204.3750  146.0010 C   0  0  0  0  0  3  0  0  0  0  0  0
  160.7010  206.1140  147.3620 C   0  0  0  0  0  3  0  0  0  0  0  0
  161.2150  205.8280  143.7340 N   0  0  0  0  0  1  0  0  0  0  0  0
  160.4040  206.2000  144.8800 C   0  0  0  0  0  2  0  0  0  0  0  0
  161.5270  205.3540  150.9280 N   0  0  0  0  0  2  0  0  0  0  0  0
  160.4410  204.6030  151.5420 C   0  0  0  0  0  2  0  0  0  0  0  0
  160.9610  203.2970  152.1300 C   0  0  0  0  0  2  0  0  0  0  0  0
  161.3070  202.3660  151.0690 N   0  0  0  0  0  2  0  0  0  0  0  0
  160.1440  202.2450  150.2050 C   0  0  0  0  0  2  0  0  0  0  0  0
  160.2230  200.9550  149.4100 C   0  0  0  0  0  2  0  0  0  0  0  0
  161.3920  200.4770  147.6010 C   0  0  0  0  0  1  0  0  0  0  0  0
  161.5290  200.7530  148.9600 O   0  0  0  0  0  0  0  0  0  0  0  0
  1 11  1  0  0  0  0
  1 21  1  1  0  0  0
  2 12  2  0  0  0  0
  3 10  1  0  0  0  0
  4  8  2  0  0  0  0
  5  2  1  0  0  0  0
  5  3  2  0  0  0  0
  6  4  1  0  0  0  0
  6 11  2  0  0  0  0
  8  5  1  0  0  0  0
 10  7  2  0  0  0  0
 10  9  1  0  0  0  0
 11  2  1  0  0  0  0
 12  7  1  0  0  0  0
 13 16  1  0  0  0  0
 14 13  2  0  0  0  0
 15 18  1  0  0  0  0
 16  1  1  0  0  0  0
 17 15  2  0  0  0  0
 17 14  1  0  0  0  0
 18 16  2  0  0  0  0
 19 20  1  0  0  0  0
 20 15  1  0  0  0  0
 21 22  1  0  0  0  0
 22 23  1  0  0  0  0
 24 23  1  0  0  0  0
 25 24  1  0  0  0  0
 26 25  1  0  0  0  0
 27 28  1  0  0  0  0
 28 26  1  0  0  0  0
M  END
>  <MODEL>
8

>  <REMARK>
 VINA RESULT:      -6.9      1.836      4.402
  Name = 
  10 active torsions:
  status: ('A' for Active; 'I' for Inactive)
    1  A    between atoms: C_5  and  N_8
    2  A    between atoms: C_5  and  C_19
    3  A    between atoms: C_6  and  N_8
    4  A    between atoms: C_6  and  C_25
    5  A    between atoms: C_11  and  C_16
    6  A    between atoms: C_11  and  C_23
    7  A    between atoms: C_11  and  N_24
    8  A    between atoms: C_14  and  C_27
    9  A    between atoms: C_19  and  N_24
   10  A    between atoms: O_20  and  C_25
                            x       y       z     vdW  Elec       q    Type
                         _______ _______ _______ _____ _____    ______ ____

>  <TORSDO>
F 10

$$$$
=
 OpenBabel11042421113D

 28 30  0  0  1  0  0  0  0  0999 V2000
  161.7810  206.2330  148.6850 C   0  0  1  0  0  3  0  0  0  0  0  0
  161.3460  205.8820  151.1590 C   0  0  0  0  0  0  0  0  0  0  0  0
  160.9570  205.5180  153.5030 N   0  0  0  0  0  0  0  0  0  0  0  0
  160.9330  203.1780  150.7330 N   0  0  0  0  0  0  0  0  0  0  0  0
  161.0430  205.0250  152.2380 C   0  0  0  0  0  0  0  0  0  0  0  0
  161.2240  203.9810  149.6750 C   0  0  0  0  0  3  0  0  0  0  0  0
  161.4580  207.7230  152.7310 C   0  0  0  0  0  3  0  0  0  0  0  0
  160.8390  203.6660  151.9970 C   0  0  0  0  0  3  0  0  0  0  0  0
  161.0540  207.3160  155.1010 N   0  0  0  0  0  1  0  0  0  0  0  0
  161.1560  206.8360  153.7670 C   0  0  0  0  0  0  0  0  0  0  0  0
  161.4320  205.3560  149.8570 C   0  0  0  0  0  0  0  0  0  0  0  0
  161.5540  207.2420  151.4240 C   0  0  0  0  0  3  0  0  0  0  0  0
  161.1460  206.3210  146.2390 C   0  0  0  0  0  3  0  0  0  0  0  0
  160.8430  205.6780  145.0360 C   0  0  0  0  0  3  0  0  0  0  0  0
  161.1910  203.5280  146.0980 C   0  0  0  0  0  0  0  0  0  0  0  0
  161.4730  205.5690  147.3780 C   0  0  0  0  0  0  0  0  0  0  0  0
  160.8630  204.2820  144.9660 C   0  0  0  0  0  3  0  0  0  0  0  0
  161.4870  204.1720  147.3040 C   0  0  0  0  0  3  0  0  0  0  0  0
  160.0780  201.5880  145.2130 N   0  0  0  0  0  1  0  0  0  0  0  0
  161.1910  202.0420  146.0280 C   0  0  0  0  0  2  0  0  0  0  0  0
  161.1280  207.5340  148.7800 N   0  0  0  0  0  2  0  0  0  0  0  0
  162.0670  208.5330  148.2910 C   0  0  0  0  0  2  0  0  0  0  0  0
  161.9790  209.8030  149.1300 C   0  0  0  0  0  2  0  0  0  0  0  0
  161.6180  210.9370  148.2960 N   0  0  0  0  0  2  0  0  0  0  0  0
  162.7440  211.8570  148.3070 C   0  0  0  0  0  2  0  0  0  0  0  0
  162.3020  213.2200  147.8100 C   0  0  0  0  0  2  0  0  0  0  0  0
  162.3580  213.3530  145.6080 C   0  0  0  0  0  1  0  0  0  0  0  0
  161.5040  213.0760  146.6740 O   0  0  0  0  0  0  0  0  0  0  0  0
  1 21  1  1  0  0  0
  1 11  1  0  0  0  0
  2 12  2  0  0  0  0
  2  5  1  0  0  0  0
  3 10  1  0  0  0  0
  4  8  2  0  0  0  0
  5  3  2  0  0  0  0
  6 11  2  0  0  0  0
  6  4  1  0  0  0  0
  7 10  2  0  0  0  0
  8  5  1  0  0  0  0
 10  9  1  0  0  0  0
 11  2  1  0  0  0  0
 12  7  1  0  0  0  0
 13 16  1  0  0  0  0
 14 13  2  0  0  0  0
 15 18  1  0  0  0  0
 16  1  1  0  0  0  0
 17 14  1  0  0  0  0
 17 15  2  0  0  0  0
 18 16  2  0  0  0  0
 19 20  1  0  0  0  0
 20 15  1  0  0  0  0
 22 21  1  0  0  0  0
 22 23  1  0  0  0  0
 24 25  1  0  0  0  0
 24 23  1  0  0  0  0
 26 25  1  0  0  0  0
 27 28  1  0  0  0  0
 28 26  1  0  0  0  0
M  END
>  <MODEL>
9

>  <REMARK>
 VINA RESULT:      -6.9      2.686      5.917
  Name = 
  10 active torsions:
  status: ('A' for Active; 'I' for Inactive)
    1  A    between atoms: C_5  and  N_8
    2  A    between atoms: C_5  and  C_19
    3  A    between atoms: C_6  and  N_8
    4  A    between atoms: C_6  and  C_25
    5  A    between atoms: C_11  and  C_16
    6  A    between atoms: C_11  and  C_23
    7  A    between atoms: C_11  and  N_24
    8  A    between atoms: C_14  and  C_27
    9  A    between atoms: C_19  and  N_24
   10  A    between atoms: O_20  and  C_25
                            x       y       z     vdW  Elec       q    Type
                         _______ _______ _______ _____ _____    ______ ____

>  <TORSDO>
F 10

$$$$
