=
 OpenBabel11042421493D

 44 50  0  0  1  0  0  0  0  0999 V2000
  162.1550  208.7940  152.4810 C   0  0  0  0  0  2  0  0  0  0  0  0
  161.4470  206.9270  154.5930 O   0  0  0  0  0  0  0  0  0  0  0  0
  159.9880  208.5620  155.6010 C   0  0  0  0  0  0  0  0  0  0  0  0
  161.7750  207.5850  151.6490 C   0  0  2  0  0  3  0  0  0  0  0  0
  160.8510  208.1950  154.5620 C   0  0  0  0  0  0  0  0  0  0  0  0
  162.2380  206.3280  152.3700 C   0  0  0  0  0  2  0  0  0  0  0  0
  159.3500  209.7980  155.5770 C   0  0  0  0  0  3  0  0  0  0  0  0
  159.7110  207.6310  156.7310 C   0  0  0  0  0  1  0  0  0  0  0  0
  161.1120  209.1060  153.5170 C   0  0  0  0  0  0  0  0  0  0  0  0
  159.5610  210.7090  154.5370 C   0  0  0  0  0  0  0  0  0  0  0  0
  161.3110  205.9950  153.5260 C   0  0  0  0  0  2  0  0  0  0  0  0
  160.4620  210.3630  153.4970 C   0  0  0  0  0  0  0  0  0  0  0  0
  157.6100  212.0840  154.3110 O   0  0  0  0  0  0  0  0  0  0  0  0
  158.8310  212.0000  154.6060 C   0  0  0  0  0  0  0  0  0  0  0  0
  159.5000  213.1530  155.0010 O   0  0  0  0  0  1  0  0  0  0  0  0
  162.4610  207.6940  150.2980 C   0  0  0  0  0  2  0  0  0  0  0  0
  161.4680  207.9450  149.2090 C   0  0  0  0  0  0  0  0  0  0  0  0
  160.5260  206.9400  148.8370 N   0  0  0  0  0  2  0  0  0  0  0  0
  161.4490  209.0610  148.6280 O   0  0  0  0  0  0  0  0  0  0  0  0
  160.5490  205.6740  149.4360 N   0  0  0  0  0  2  0  0  0  0  0  0
  160.6880  204.6960  148.3650 C   0  0  2  0  0  3  0  0  0  0  0  0
  161.4930  203.4940  148.8810 C   0  0  1  0  0  3  0  0  0  0  0  0
  160.1390  201.8090  150.8150 N   0  0  0  0  0  2  0  0  0  0  0  0
  161.6930  203.6030  150.3730 C   0  0  0  0  0  3  0  0  0  0  0  0
  159.7670  201.6350  149.4150 C   0  0  0  0  0  2  0  0  0  0  0  0
  160.8400  202.1830  148.5280 C   0  0  0  0  0  0  0  0  0  0  0  0
  161.0490  202.8270  151.2510 C   0  0  0  0  0  3  0  0  0  0  0  0
  161.1450  201.5980  147.5020 O   0  0  0  0  0  0  0  0  0  0  0  0
  160.7250  204.8120  146.0000 C   0  0  2  0  0  3  0  0  0  0  0  0
  161.9950  204.2440  146.4500 C   0  0  2  0  0  3  0  0  0  0  0  0
  162.4220  205.4420  144.3870 C   0  0  0  0  0  2  0  0  0  0  0  0
  161.0190  205.7540  144.8450 C   0  0  0  0  0  2  0  0  0  0  0  0
  161.3600  205.3220  147.2290 N   0  0  0  0  0  0  0  0  0  0  0  0
  163.0990  204.8270  145.5880 C   0  0  0  0  0  2  0  0  0  0  0  0
  160.7320  211.3000  152.3550 C   0  0  0  0  0  2  0  0  0  0  0  0
  159.4240  211.6960  151.6910 C   0  0  0  0  0  2  0  0  0  0  0  0
  158.5500  213.3690  150.1040 C   0  0  0  0  0  0  0  0  0  0  0  0
  159.1890  213.5320  148.8720 O   0  0  0  0  0  0  0  0  0  0  0  0
  157.5260  214.4500  150.3610 C   0  0  0  0  0  2  0  0  0  0  0  0
  160.7730  213.4060  150.5390 C   0  0  0  0  0  2  0  0  0  0  0  0
  160.5040  213.2470  149.1090 N   0  0  0  0  0  0  0  0  0  0  0  0
  157.0810  213.0120  150.1180 C   0  0  0  0  0  2  0  0  0  0  0  0
  159.4780  213.1500  151.2490 C   0  0  2  0  0  3  0  0  0  0  0  0
  161.4450  214.4530  148.2800 Cl  0  0  0  0  0  0  0  0  0  0  0  0
  1  9  1  0  0  0  0
  3  8  1  0  0  0  0
  4 16  1  6  0  0  0
  4  6  1  0  0  0  0
  4  1  1  0  0  0  0
  5  2  1  0  0  0  0
  5  3  2  0  0  0  0
  6 11  1  0  0  0  0
  7  3  1  0  0  0  0
  9  5  1  0  0  0  0
 10 14  1  0  0  0  0
 10  7  2  0  0  0  0
 11  2  1  0  0  0  0
 12  9  2  0  0  0  0
 12 10  1  0  0  0  0
 13 14  2  0  0  0  0
 14 15  1  0  0  0  0
 17 16  1  0  0  0  0
 18 17  1  0  0  0  0
 18 20  1  0  0  0  0
 19 17  2  0  0  0  0
 21 20  1  1  0  0  0
 22 21  1  1  0  0  0
 22 24  1  0  0  0  0
 23 27  1  0  0  0  0
 24 27  2  0  0  0  0
 25 23  1  0  0  0  0
 26 22  1  0  0  0  0
 26 25  1  0  0  0  0
 28 26  2  0  0  0  0
 29 32  1  6  0  0  0
 29 30  1  0  0  0  0
 29 33  1  0  0  0  0
 30 34  1  6  0  0  0
 30 33  1  0  0  0  0
 31 32  1  0  0  0  0
 31 34  1  0  0  0  0
 33 21  1  0  0  0  0
 35 12  1  0  0  0  0
 36 35  1  0  0  0  0
 37 42  1  0  0  0  0
 37 39  1  0  0  0  0
 37 43  1  0  0  0  0
 38 41  1  0  0  0  0
 38 37  1  0  0  0  0
 40 43  1  0  0  0  0
 41 40  1  0  0  0  0
 42 39  1  0  0  0  0
 43 36  1  6  0  0  0
 44 41  1  0  0  0  0
M  END
>  <MODEL>
1

>  <REMARK>
 VINA RESULT:      -7.4      0.000      0.000
  Name = 
  10 active torsions:
  status: ('A' for Active; 'I' for Inactive)
    1  A    between atoms: C_1  and  C_8
    2  A    between atoms: C_1  and  C_16
    3  A    between atoms: C_3  and  C_37
    4  A    between atoms: C_4  and  C_43
    5  A    between atoms: N_10  and  N_41
    6  A    between atoms: C_15  and  C_22
    7  A    between atoms: C_15  and  C_44
    8  A    between atoms: C_22  and  C_35
    9  A    between atoms: N_36  and  C_43
   10  A    between atoms: N_41  and  C_43
                            x       y       z     vdW  Elec       q    Type
                         _______ _______ _______ _____ _____    ______ ____

>  <TORSDO>
F 10

$$$$
=
 OpenBabel11042421493D

 44 50  0  0  1  0  0  0  0  0999 V2000
  162.3370  208.4280  152.5540 C   0  0  0  0  0  2  0  0  0  0  0  0
  161.2820  206.3610  154.3030 O   0  0  0  0  0  0  0  0  0  0  0  0
  159.9600  207.9900  155.4930 C   0  0  0  0  0  0  0  0  0  0  0  0
  161.8750  207.4180  151.5220 C   0  0  2  0  0  3  0  0  0  0  0  0
  160.8410  207.6820  154.4490 C   0  0  0  0  0  0  0  0  0  0  0  0
  162.1420  206.0170  152.0510 C   0  0  0  0  0  2  0  0  0  0  0  0
  159.4720  209.2840  155.6380 C   0  0  0  0  0  3  0  0  0  0  0  0
  159.5050  206.9380  156.4450 C   0  0  0  0  0  1  0  0  0  0  0  0
  161.2720  208.7040  153.5770 C   0  0  0  0  0  0  0  0  0  0  0  0
  159.8540  210.3110  154.7690 C   0  0  0  0  0  0  0  0  0  0  0  0
  161.1090  205.6280  153.0950 C   0  0  0  0  0  2  0  0  0  0  0  0
  160.7750  210.0200  153.7290 C   0  0  0  0  0  0  0  0  0  0  0  0
  158.0310  211.8350  155.0910 O   0  0  0  0  0  0  0  0  0  0  0  0
  159.2740  211.6570  155.0100 C   0  0  0  0  0  0  0  0  0  0  0  0
  160.1140  212.7560  155.1500 O   0  0  0  0  0  1  0  0  0  0  0  0
  162.6550  207.6470  150.2390 C   0  0  0  0  0  2  0  0  0  0  0  0
  161.7860  208.2470  149.1800 C   0  0  0  0  0  0  0  0  0  0  0  0
  160.6700  207.5260  148.6590 N   0  0  0  0  0  2  0  0  0  0  0  0
  162.0290  209.4080  148.7590 O   0  0  0  0  0  0  0  0  0  0  0  0
  160.3990  206.2170  149.0780 N   0  0  0  0  0  2  0  0  0  0  0  0
  161.3260  205.3420  148.3720 C   0  0  2  0  0  3  0  0  0  0  0  0
  161.6210  205.9330  146.9870 C   0  0  1  0  0  3  0  0  0  0  0  0
  162.1110  204.0080  144.8730 N   0  0  0  0  0  2  0  0  0  0  0  0
  162.9990  205.5250  146.5280 C   0  0  0  0  0  3  0  0  0  0  0  0
  160.7200  204.2250  145.2570 C   0  0  0  0  0  2  0  0  0  0  0  0
  160.5840  205.5350  145.9690 C   0  0  0  0  0  0  0  0  0  0  0  0
  163.2060  204.6230  145.5620 C   0  0  0  0  0  3  0  0  0  0  0  0
  159.6150  206.2470  145.7640 O   0  0  0  0  0  0  0  0  0  0  0  0
  160.9670  203.3050  149.5270 C   0  0  2  0  0  3  0  0  0  0  0  0
  161.8290  203.0330  148.3760 C   0  0  2  0  0  3  0  0  0  0  0  0
  160.5300  201.0330  148.8030 C   0  0  0  0  0  2  0  0  0  0  0  0
  159.9880  202.1520  149.6570 C   0  0  0  0  0  2  0  0  0  0  0  0
  160.7330  204.0120  148.2540 N   0  0  0  0  0  0  0  0  0  0  0  0
  161.3950  201.7120  147.7700 C   0  0  0  0  0  2  0  0  0  0  0  0
  161.2240  211.0800  152.7660 C   0  0  0  0  0  2  0  0  0  0  0  0
  160.1230  211.3640  151.7580 C   0  0  0  0  0  2  0  0  0  0  0  0
  158.6990  213.2970  151.1930 C   0  0  0  0  0  0  0  0  0  0  0  0
  158.3650  213.5230  149.8560 O   0  0  0  0  0  0  0  0  0  0  0  0
  158.3050  214.4520  152.0820 C   0  0  0  0  0  2  0  0  0  0  0  0
  160.6090  213.0250  150.0040 C   0  0  0  0  0  2  0  0  0  0  0  0
  159.4310  213.0620  149.1350 N   0  0  0  0  0  0  0  0  0  0  0  0
  157.5850  213.1130  152.1990 C   0  0  0  0  0  2  0  0  0  0  0  0
  160.1040  212.8420  151.4030 C   0  0  2  0  0  3  0  0  0  0  0  0
  159.7540  214.2370  147.8940 Cl  0  0  0  0  0  0  0  0  0  0  0  0
  1  9  1  0  0  0  0
  2  5  1  0  0  0  0
  3  7  1  0  0  0  0
  3  8  1  0  0  0  0
  4 16  1  6  0  0  0
  4  6  1  0  0  0  0
  4  1  1  0  0  0  0
  5  3  2  0  0  0  0
  6 11  1  0  0  0  0
  9 12  2  0  0  0  0
  9  5  1  0  0  0  0
 10 14  1  0  0  0  0
 10  7  2  0  0  0  0
 11  2  1  0  0  0  0
 12 10  1  0  0  0  0
 14 13  2  0  0  0  0
 14 15  1  0  0  0  0
 17 16  1  0  0  0  0
 18 20  1  0  0  0  0
 18 17  1  0  0  0  0
 19 17  2  0  0  0  0
 21 20  1  6  0  0  0
 22 21  1  1  0  0  0
 23 25  1  0  0  0  0
 23 27  1  0  0  0  0
 24 22  1  0  0  0  0
 25 26  1  0  0  0  0
 26 22  1  0  0  0  0
 27 24  2  0  0  0  0
 28 26  2  0  0  0  0
 29 32  1  6  0  0  0
 30 34  1  6  0  0  0
 30 29  1  0  0  0  0
 31 32  1  0  0  0  0
 33 21  1  0  0  0  0
 33 30  1  0  0  0  0
 33 29  1  0  0  0  0
 34 31  1  0  0  0  0
 35 12  1  0  0  0  0
 36 35  1  0  0  0  0
 37 43  1  0  0  0  0
 37 39  1  0  0  0  0
 37 42  1  0  0  0  0
 38 37  1  0  0  0  0
 39 42  1  0  0  0  0
 40 43  1  0  0  0  0
 41 38  1  0  0  0  0
 41 40  1  0  0  0  0
 43 36  1  6  0  0  0
 44 41  1  0  0  0  0
M  END
>  <MODEL>
2

>  <REMARK>
 VINA RESULT:      -7.3      1.347      2.735
  Name = 
  10 active torsions:
  status: ('A' for Active; 'I' for Inactive)
    1  A    between atoms: C_1  and  C_8
    2  A    between atoms: C_1  and  C_16
    3  A    between atoms: C_3  and  C_37
    4  A    between atoms: C_4  and  C_43
    5  A    between atoms: N_10  and  N_41
    6  A    between atoms: C_15  and  C_22
    7  A    between atoms: C_15  and  C_44
    8  A    between atoms: C_22  and  C_35
    9  A    between atoms: N_36  and  C_43
   10  A    between atoms: N_41  and  C_43
                            x       y       z     vdW  Elec       q    Type
                         _______ _______ _______ _____ _____    ______ ____

>  <TORSDO>
F 10

$$$$
=
 OpenBabel11042421493D

 44 50  0  0  1  0  0  0  0  0999 V2000
  160.7810  207.2900  149.3040 C   0  0  0  0  0  2  0  0  0  0  0  0
  161.0720  207.0640  152.1860 O   0  0  0  0  0  0  0  0  0  0  0  0
  160.9450  204.6600  152.0490 C   0  0  0  0  0  0  0  0  0  0  0  0
  162.0090  208.1530  149.5140 C   0  0  2  0  0  3  0  0  0  0  0  0
  160.9780  205.9040  151.4080 C   0  0  0  0  0  0  0  0  0  0  0  0
  161.8530  208.9200  150.8180 C   0  0  0  0  0  2  0  0  0  0  0  0
  160.8940  203.4880  151.3020 C   0  0  0  0  0  3  0  0  0  0  0  0
  160.9950  204.5640  153.5350 C   0  0  0  0  0  1  0  0  0  0  0  0
  160.9070  205.9640  150.0000 C   0  0  0  0  0  0  0  0  0  0  0  0
  160.8570  203.5150  149.9030 C   0  0  0  0  0  0  0  0  0  0  0  0
  162.1140  208.0180  152.0110 C   0  0  0  0  0  2  0  0  0  0  0  0
  160.8540  204.7700  149.2430 C   0  0  0  0  0  0  0  0  0  0  0  0
  161.8520  201.5800  148.8950 O   0  0  0  0  0  1  0  0  0  0  0  0
  160.8040  202.2070  149.2000 C   0  0  0  0  0  0  0  0  0  0  0  0
  159.5750  201.6530  148.8630 O   0  0  0  0  0  0  0  0  0  0  0  0
  162.1230  209.1220  148.3500 C   0  0  0  0  0  2  0  0  0  0  0  0
  162.0790  210.5400  148.8230 C   0  0  0  0  0  0  0  0  0  0  0  0
  161.4750  211.5560  148.0240 N   0  0  0  0  0  2  0  0  0  0  0  0
  162.5620  210.8360  149.9470 O   0  0  0  0  0  0  0  0  0  0  0  0
  160.9660  211.2650  146.7520 N   0  0  0  0  0  2  0  0  0  0  0  0
  159.8820  212.2050  146.4990 C   0  0  2  0  0  3  0  0  0  0  0  0
  160.4580  213.4760  145.8570 C   0  0  1  0  0  3  0  0  0  0  0  0
  162.2110  213.0570  143.5850 N   0  0  0  0  0  2  0  0  0  0  0  0
  161.9640  213.4720  145.9510 C   0  0  0  0  0  3  0  0  0  0  0  0
  160.7770  212.9420  143.3410 C   0  0  0  0  0  2  0  0  0  0  0  0
  160.0160  213.6360  144.4250 C   0  0  0  0  0  0  0  0  0  0  0  0
  162.7570  213.2610  144.8950 C   0  0  0  0  0  3  0  0  0  0  0  0
  159.0170  214.2830  144.1570 O   0  0  0  0  0  0  0  0  0  0  0  0
  157.8680  213.0240  147.4380 C   0  0  2  0  0  3  0  0  0  0  0  0
  158.9390  213.9650  147.7620 C   0  0  2  0  0  3  0  0  0  0  0  0
  157.3160  214.0600  149.5590 C   0  0  0  0  0  2  0  0  0  0  0  0
  156.9710  212.9020  148.6570 C   0  0  0  0  0  2  0  0  0  0  0  0
  159.2140  212.5170  147.7600 N   0  0  0  0  0  0  0  0  0  0  0  0
  158.7290  214.4380  149.1880 C   0  0  0  0  0  2  0  0  0  0  0  0
  160.8130  204.8630  147.7450 C   0  0  0  0  0  2  0  0  0  0  0  0
  162.2220  204.7780  147.1830 C   0  0  0  0  0  2  0  0  0  0  0  0
  160.9860  204.7360  145.0480 C   0  0  0  0  0  0  0  0  0  0  0  0
  159.9810  203.7820  144.8670 O   0  0  0  0  0  0  0  0  0  0  0  0
  161.3170  205.4650  143.7680 C   0  0  0  0  0  2  0  0  0  0  0  0
  161.8260  202.7730  145.8060 C   0  0  0  0  0  2  0  0  0  0  0  0
  160.3790  202.6970  145.5960 N   0  0  0  0  0  0  0  0  0  0  0  0
  160.6310  206.1990  144.9140 C   0  0  0  0  0  2  0  0  0  0  0  0
  162.1890  204.2260  145.7660 C   0  0  2  0  0  3  0  0  0  0  0  0
  160.0820  201.2890  144.6200 Cl  0  0  0  0  0  0  0  0  0  0  0  0
  1  4  1  0  0  0  0
  1  9  1  0  0  0  0
  3  8  1  0  0  0  0
  4 16  1  6  0  0  0
  4  6  1  0  0  0  0
  5  3  1  0  0  0  0
  5  2  1  0  0  0  0
  6 11  1  0  0  0  0
  7  3  2  0  0  0  0
  9  5  2  0  0  0  0
 10  7  1  0  0  0  0
 11  2  1  0  0  0  0
 12 10  2  0  0  0  0
 12  9  1  0  0  0  0
 13 14  1  0  0  0  0
 14 10  1  0  0  0  0
 15 14  2  0  0  0  0
 16 17  1  0  0  0  0
 17 19  2  0  0  0  0
 18 17  1  0  0  0  0
 20 18  1  0  0  0  0
 21 20  1  1  0  0  0
 21 33  1  0  0  0  0
 22 24  1  0  0  0  0
 22 21  1  6  0  0  0
 23 27  1  0  0  0  0
 25 23  1  0  0  0  0
 25 26  1  0  0  0  0
 26 22  1  0  0  0  0
 27 24  2  0  0  0  0
 28 26  2  0  0  0  0
 29 33  1  0  0  0  0
 29 30  1  0  0  0  0
 29 32  1  1  0  0  0
 30 34  1  1  0  0  0
 32 31  1  0  0  0  0
 33 30  1  0  0  0  0
 34 31  1  0  0  0  0
 35 12  1  0  0  0  0
 36 35  1  0  0  0  0
 37 43  1  0  0  0  0
 38 37  1  0  0  0  0
 38 41  1  0  0  0  0
 39 42  1  0  0  0  0
 39 37  1  0  0  0  0
 41 40  1  0  0  0  0
 42 37  1  0  0  0  0
 43 40  1  0  0  0  0
 43 36  1  1  0  0  0
 44 41  1  0  0  0  0
M  END
>  <MODEL>
3

>  <REMARK>
 VINA RESULT:      -7.1      3.663      9.152
  Name = 
  10 active torsions:
  status: ('A' for Active; 'I' for Inactive)
    1  A    between atoms: C_1  and  C_8
    2  A    between atoms: C_1  and  C_16
    3  A    between atoms: C_3  and  C_37
    4  A    between atoms: C_4  and  C_43
    5  A    between atoms: N_10  and  N_41
    6  A    between atoms: C_15  and  C_22
    7  A    between atoms: C_15  and  C_44
    8  A    between atoms: C_22  and  C_35
    9  A    between atoms: N_36  and  C_43
   10  A    between atoms: N_41  and  C_43
                            x       y       z     vdW  Elec       q    Type
                         _______ _______ _______ _____ _____    ______ ____

>  <TORSDO>
F 10

$$$$
=
 OpenBabel11042421493D

 44 50  0  0  1  0  0  0  0  0999 V2000
  162.0320  209.4380  152.2040 C   0  0  0  0  0  2  0  0  0  0  0  0
  160.9350  208.3780  154.6780 O   0  0  0  0  0  0  0  0  0  0  0  0
  159.5610  210.3410  154.9540 C   0  0  0  0  0  0  0  0  0  0  0  0
  161.6120  208.0580  151.7380 C   0  0  2  0  0  3  0  0  0  0  0  0
  160.4790  209.6100  154.1910 C   0  0  0  0  0  0  0  0  0  0  0  0
  161.8720  207.0610  152.8570 C   0  0  0  0  0  2  0  0  0  0  0  0
  159.0580  211.5480  154.4780 C   0  0  0  0  0  3  0  0  0  0  0  0
  159.0820  209.8320  156.2700 C   0  0  0  0  0  1  0  0  0  0  0  0
  160.9310  210.1290  152.9590 C   0  0  0  0  0  0  0  0  0  0  0  0
  159.4620  212.0710  153.2440 C   0  0  0  0  0  0  0  0  0  0  0  0
  160.8080  207.1700  153.9360 C   0  0  0  0  0  2  0  0  0  0  0  0
  160.4190  211.3570  152.4780 C   0  0  0  0  0  0  0  0  0  0  0  0
  157.6190  213.5070  152.7050 O   0  0  0  0  0  1  0  0  0  0  0  0
  158.8640  213.3650  152.8270 C   0  0  0  0  0  0  0  0  0  0  0  0
  159.6880  214.4520  152.5610 O   0  0  0  0  0  0  0  0  0  0  0  0
  162.4330  207.6920  150.5140 C   0  0  0  0  0  2  0  0  0  0  0  0
  161.8460  208.2870  149.2740 C   0  0  0  0  0  0  0  0  0  0  0  0
  160.8490  207.5870  148.5320 N   0  0  0  0  0  2  0  0  0  0  0  0
  162.2200  209.4270  148.8930 O   0  0  0  0  0  0  0  0  0  0  0  0
  160.4430  206.2990  148.9070 N   0  0  0  0  0  2  0  0  0  0  0  0
  161.3700  205.3610  148.2900 C   0  0  2  0  0  3  0  0  0  0  0  0
  161.7450  205.8700  146.8900 C   0  0  1  0  0  3  0  0  0  0  0  0
  162.1690  203.8260  144.8770 N   0  0  0  0  0  2  0  0  0  0  0  0
  163.1060  205.3530  146.4950 C   0  0  0  0  0  3  0  0  0  0  0  0
  160.7840  204.1500  145.2060 C   0  0  0  0  0  2  0  0  0  0  0  0
  160.7140  205.4950  145.8570 C   0  0  0  0  0  0  0  0  0  0  0  0
  163.2820  204.3990  145.5750 C   0  0  0  0  0  3  0  0  0  0  0  0
  159.8010  206.2590  145.5910 O   0  0  0  0  0  0  0  0  0  0  0  0
  160.8520  203.4180  149.5420 C   0  0  2  0  0  3  0  0  0  0  0  0
  161.7870  203.0430  148.4820 C   0  0  2  0  0  3  0  0  0  0  0  0
  160.3880  201.1170  148.9340 C   0  0  0  0  0  2  0  0  0  0  0  0
  159.8240  202.3080  149.6700 C   0  0  0  0  0  2  0  0  0  0  0  0
  160.7400  204.0450  148.2120 N   0  0  0  0  0  0  0  0  0  0  0  0
  161.3530  201.6980  147.9310 C   0  0  0  0  0  2  0  0  0  0  0  0
  160.8920  211.8680  151.1480 C   0  0  0  0  0  2  0  0  0  0  0  0
  159.7010  212.2760  150.2970 C   0  0  0  0  0  2  0  0  0  0  0  0
  159.3720  213.2340  148.0490 C   0  0  0  0  0  0  0  0  0  0  0  0
  160.1710  212.7810  146.9960 O   0  0  0  0  0  0  0  0  0  0  0  0
  158.5600  214.4490  147.6650 C   0  0  0  0  0  2  0  0  0  0  0  0
  161.4900  213.1530  148.8470 C   0  0  0  0  0  2  0  0  0  0  0  0
  161.3660  212.4490  147.5700 N   0  0  0  0  0  0  0  0  0  0  0  0
  157.8700  213.1140  147.9230 C   0  0  0  0  0  2  0  0  0  0  0  0
  160.0960  213.3910  149.3420 C   0  0  2  0  0  3  0  0  0  0  0  0
  162.6200  213.0610  146.5300 Cl  0  0  0  0  0  0  0  0  0  0  0  0
  1  9  1  0  0  0  0
  3  8  1  0  0  0  0
  4 16  1  6  0  0  0
  4  1  1  0  0  0  0
  4  6  1  0  0  0  0
  5  2  1  0  0  0  0
  5  3  2  0  0  0  0
  6 11  1  0  0  0  0
  7  3  1  0  0  0  0
  9  5  1  0  0  0  0
 10  7  2  0  0  0  0
 11  2  1  0  0  0  0
 12  9  2  0  0  0  0
 12 10  1  0  0  0  0
 13 14  1  0  0  0  0
 14 10  1  0  0  0  0
 15 14  2  0  0  0  0
 17 16  1  0  0  0  0
 18 20  1  0  0  0  0
 18 17  1  0  0  0  0
 19 17  2  0  0  0  0
 21 20  1  6  0  0  0
 22 21  1  1  0  0  0
 23 25  1  0  0  0  0
 23 27  1  0  0  0  0
 24 22  1  0  0  0  0
 25 26  1  0  0  0  0
 26 22  1  0  0  0  0
 27 24  2  0  0  0  0
 28 26  2  0  0  0  0
 29 32  1  6  0  0  0
 30 34  1  6  0  0  0
 30 29  1  0  0  0  0
 31 32  1  0  0  0  0
 33 21  1  0  0  0  0
 33 30  1  0  0  0  0
 33 29  1  0  0  0  0
 34 31  1  0  0  0  0
 35 12  1  0  0  0  0
 36 35  1  0  0  0  0
 37 43  1  0  0  0  0
 38 41  1  0  0  0  0
 38 37  1  0  0  0  0
 39 42  1  0  0  0  0
 39 37  1  0  0  0  0
 40 43  1  0  0  0  0
 41 40  1  0  0  0  0
 42 37  1  0  0  0  0
 43 36  1  1  0  0  0
 44 41  1  0  0  0  0
M  END
>  <MODEL>
4

>  <REMARK>
 VINA RESULT:      -7.0      1.697      3.014
  Name = 
  10 active torsions:
  status: ('A' for Active; 'I' for Inactive)
    1  A    between atoms: C_1  and  C_8
    2  A    between atoms: C_1  and  C_16
    3  A    between atoms: C_3  and  C_37
    4  A    between atoms: C_4  and  C_43
    5  A    between atoms: N_10  and  N_41
    6  A    between atoms: C_15  and  C_22
    7  A    between atoms: C_15  and  C_44
    8  A    between atoms: C_22  and  C_35
    9  A    between atoms: N_36  and  C_43
   10  A    between atoms: N_41  and  C_43
                            x       y       z     vdW  Elec       q    Type
                         _______ _______ _______ _____ _____    ______ ____

>  <TORSDO>
F 10

$$$$
=
 OpenBabel11042421493D

 44 50  0  0  1  0  0  0  0  0999 V2000
  161.2670  208.8500  150.8490 C   0  0  0  0  0  2  0  0  0  0  0  0
  160.5910  209.1590  153.6590 O   0  0  0  0  0  0  0  0  0  0  0  0
  160.6230  206.7670  153.9680 C   0  0  0  0  0  0  0  0  0  0  0  0
  162.3160  209.8630  151.2640 C   0  0  2  0  0  3  0  0  0  0  0  0
  160.8140  207.8780  153.1380 C   0  0  0  0  0  0  0  0  0  0  0  0
  161.7010  210.8230  152.2700 C   0  0  0  0  0  2  0  0  0  0  0  0
  160.8750  205.4850  153.4910 C   0  0  0  0  0  3  0  0  0  0  0  0
  160.1800  206.9350  155.3800 C   0  0  0  0  0  1  0  0  0  0  0  0
  161.2120  207.6860  151.7980 C   0  0  0  0  0  0  0  0  0  0  0  0
  161.3050  205.2650  152.1780 C   0  0  0  0  0  0  0  0  0  0  0  0
  161.5900  210.1740  153.6390 C   0  0  0  0  0  2  0  0  0  0  0  0
  161.4660  206.3800  151.3150 C   0  0  0  0  0  0  0  0  0  0  0  0
  162.7120  203.4020  151.6340 O   0  0  0  0  0  1  0  0  0  0  0  0
  161.5470  203.8580  151.7690 C   0  0  0  0  0  0  0  0  0  0  0  0
  160.4690  203.0150  151.5240 O   0  0  0  0  0  0  0  0  0  0  0  0
  162.7680  210.6230  150.0280 C   0  0  0  0  0  2  0  0  0  0  0  0
  161.9420  210.2540  148.8370 C   0  0  0  0  0  0  0  0  0  0  0  0
  161.2450  211.2540  148.0970 N   0  0  0  0  0  2  0  0  0  0  0  0
  161.8780  209.0510  148.4730 O   0  0  0  0  0  0  0  0  0  0  0  0
  161.2640  212.5950  148.5030 N   0  0  0  0  0  2  0  0  0  0  0  0
  159.9390  213.1410  148.2360 C   0  0  2  0  0  3  0  0  0  0  0  0
  160.0070  214.0390  146.9920 C   0  0  1  0  0  3  0  0  0  0  0  0
  161.0950  212.8030  144.6040 N   0  0  0  0  0  2  0  0  0  0  0  0
  161.4380  214.2010  146.5420 C   0  0  0  0  0  3  0  0  0  0  0  0
  159.7150  212.4740  144.9460 C   0  0  0  0  0  2  0  0  0  0  0  0
  159.1540  213.5110  145.8670 C   0  0  0  0  0  0  0  0  0  0  0  0
  161.9270  213.6110  145.4460 C   0  0  0  0  0  3  0  0  0  0  0  0
  158.0000  213.8860  145.7380 O   0  0  0  0  0  0  0  0  0  0  0  0
  159.3040  212.9460  150.5090 C   0  0  2  0  0  3  0  0  0  0  0  0
  158.1440  213.4090  149.7480 C   0  0  2  0  0  3  0  0  0  0  0  0
  157.9560  214.3160  151.9870 C   0  0  0  0  0  2  0  0  0  0  0  0
  159.3210  213.6920  151.8320 C   0  0  0  0  0  2  0  0  0  0  0  0
  159.4900  213.9000  149.4000 N   0  0  0  0  0  0  0  0  0  0  0  0
  157.4260  214.4530  150.5820 C   0  0  0  0  0  2  0  0  0  0  0  0
  161.9230  206.2080  149.8960 C   0  0  0  0  0  2  0  0  0  0  0  0
  161.0710  205.1570  149.2030 C   0  0  0  0  0  2  0  0  0  0  0  0
  161.7220  204.6550  146.8770 C   0  0  0  0  0  0  0  0  0  0  0  0
  160.9760  203.7220  146.1520 O   0  0  0  0  0  0  0  0  0  0  0  0
  162.9930  205.0480  146.1610 C   0  0  0  0  0  2  0  0  0  0  0  0
  161.3760  202.8990  148.2660 C   0  0  0  0  0  2  0  0  0  0  0  0
  160.5210  202.8270  147.0790 N   0  0  0  0  0  0  0  0  0  0  0  0
  161.8610  206.0570  146.3280 C   0  0  0  0  0  2  0  0  0  0  0  0
  161.9380  204.2880  148.3060 C   0  0  2  0  0  3  0  0  0  0  0  0
  160.7290  201.2390  146.4010 Cl  0  0  0  0  0  0  0  0  0  0  0  0
  1  4  1  0  0  0  0
  1  9  1  0  0  0  0
  3  8  1  0  0  0  0
  4 16  1  6  0  0  0
  4  6  1  0  0  0  0
  5  2  1  0  0  0  0
  5  3  2  0  0  0  0
  6 11  1  0  0  0  0
  7  3  1  0  0  0  0
  9  5  1  0  0  0  0
 10  7  2  0  0  0  0
 11  2  1  0  0  0  0
 12  9  2  0  0  0  0
 12 10  1  0  0  0  0
 13 14  1  0  0  0  0
 14 10  1  0  0  0  0
 15 14  2  0  0  0  0
 17 16  1  0  0  0  0
 18 20  1  0  0  0  0
 18 17  1  0  0  0  0
 19 17  2  0  0  0  0
 21 20  1  1  0  0  0
 21 33  1  0  0  0  0
 22 21  1  1  0  0  0
 23 25  1  0  0  0  0
 23 27  1  0  0  0  0
 24 22  1  0  0  0  0
 25 26  1  0  0  0  0
 26 22  1  0  0  0  0
 27 24  2  0  0  0  0
 28 26  2  0  0  0  0
 29 32  1  1  0  0  0
 30 29  1  0  0  0  0
 30 34  1  1  0  0  0
 32 31  1  0  0  0  0
 33 30  1  0  0  0  0
 33 29  1  0  0  0  0
 34 31  1  0  0  0  0
 35 12  1  0  0  0  0
 36 35  1  0  0  0  0
 37 43  1  0  0  0  0
 38 37  1  0  0  0  0
 38 41  1  0  0  0  0
 39 42  1  0  0  0  0
 39 37  1  0  0  0  0
 40 43  1  0  0  0  0
 41 40  1  0  0  0  0
 42 37  1  0  0  0  0
 43 36  1  1  0  0  0
 44 41  1  0  0  0  0
M  END
>  <MODEL>
5

>  <REMARK>
 VINA RESULT:      -6.9      3.154      8.690
  Name = 
  10 active torsions:
  status: ('A' for Active; 'I' for Inactive)
    1  A    between atoms: C_1  and  C_8
    2  A    between atoms: C_1  and  C_16
    3  A    between atoms: C_3  and  C_37
    4  A    between atoms: C_4  and  C_43
    5  A    between atoms: N_10  and  N_41
    6  A    between atoms: C_15  and  C_22
    7  A    between atoms: C_15  and  C_44
    8  A    between atoms: C_22  and  C_35
    9  A    between atoms: N_36  and  C_43
   10  A    between atoms: N_41  and  C_43
                            x       y       z     vdW  Elec       q    Type
                         _______ _______ _______ _____ _____    ______ ____

>  <TORSDO>
F 10

$$$$
=
 OpenBabel11042421493D

 44 50  0  0  1  0  0  0  0  0999 V2000
  161.4500  208.1820  152.1800 C   0  0  0  0  0  2  0  0  0  0  0  0
  161.6020  206.2080  154.3070 O   0  0  0  0  0  0  0  0  0  0  0  0
  160.7860  207.8150  155.9090 C   0  0  0  0  0  0  0  0  0  0  0  0
  160.6960  207.0370  151.5330 C   0  0  2  0  0  3  0  0  0  0  0  0
  161.1130  207.4900  154.5870 C   0  0  0  0  0  0  0  0  0  0  0  0
  161.3540  205.7260  151.9330 C   0  0  0  0  0  2  0  0  0  0  0  0
  160.2600  209.0670  156.2120 C   0  0  0  0  0  3  0  0  0  0  0  0
  160.9630  206.8250  157.0070 C   0  0  0  0  0  1  0  0  0  0  0  0
  160.9560  208.4570  153.5720 C   0  0  0  0  0  0  0  0  0  0  0  0
  160.0600  210.0350  155.2210 C   0  0  0  0  0  0  0  0  0  0  0  0
  160.9830  205.3470  153.3570 C   0  0  0  0  0  2  0  0  0  0  0  0
  160.4220  209.7300  153.8840 C   0  0  0  0  0  0  0  0  0  0  0  0
  158.2580  211.4880  155.8450 O   0  0  0  0  0  1  0  0  0  0  0  0
  159.4920  211.3390  155.6500 C   0  0  0  0  0  0  0  0  0  0  0  0
  160.3330  212.4290  155.8420 O   0  0  0  0  0  0  0  0  0  0  0  0
  160.7550  207.2110  150.0250 C   0  0  0  0  0  2  0  0  0  0  0  0
  162.1600  207.0930  149.5250 C   0  0  0  0  0  0  0  0  0  0  0  0
  162.4590  206.3050  148.3740 N   0  0  0  0  0  2  0  0  0  0  0  0
  163.0840  207.7120  150.1130 O   0  0  0  0  0  0  0  0  0  0  0  0
  161.4580  205.5720  147.7220 N   0  0  0  0  0  2  0  0  0  0  0  0
  161.9680  204.2190  147.5420 C   0  0  2  0  0  3  0  0  0  0  0  0
  162.1200  203.9340  146.0410 C   0  0  1  0  0  3  0  0  0  0  0  0
  159.7450  204.3560  144.4310 N   0  0  0  0  0  2  0  0  0  0  0  0
  161.1840  202.8270  145.6230 C   0  0  0  0  0  3  0  0  0  0  0  0
  160.4950  205.5450  144.8230 C   0  0  0  0  0  2  0  0  0  0  0  0
  161.8910  205.1660  145.2050 C   0  0  0  0  0  0  0  0  0  0  0  0
  160.0850  203.0420  144.8920 C   0  0  0  0  0  3  0  0  0  0  0  0
  162.8290  205.8790  144.8860 O   0  0  0  0  0  0  0  0  0  0  0  0
  161.3720  203.1960  149.5940 C   0  0  2  0  0  3  0  0  0  0  0  0
  161.8470  202.1540  148.6850 C   0  0  2  0  0  3  0  0  0  0  0  0
  160.2110  201.1450  150.1600 C   0  0  0  0  0  2  0  0  0  0  0  0
  160.1860  202.6390  150.3620 C   0  0  0  0  0  2  0  0  0  0  0  0
  161.0420  203.2720  148.1590 N   0  0  0  0  0  0  0  0  0  0  0  0
  160.9610  200.9360  148.8680 C   0  0  0  0  0  2  0  0  0  0  0  0
  160.2340  210.7280  152.7780 C   0  0  0  0  0  2  0  0  0  0  0  0
  158.8460  211.3400  152.8650 C   0  0  0  0  0  2  0  0  0  0  0  0
  157.5490  213.2330  151.9600 C   0  0  0  0  0  0  0  0  0  0  0  0
  157.4700  213.3990  150.5750 O   0  0  0  0  0  0  0  0  0  0  0  0
  156.9940  214.4220  152.7080 C   0  0  0  0  0  2  0  0  0  0  0  0
  159.6470  212.9300  151.1610 C   0  0  0  0  0  2  0  0  0  0  0  0
  158.6520  212.9180  150.0870 N   0  0  0  0  0  0  0  0  0  0  0  0
  156.2680  213.0820  152.7480 C   0  0  0  0  0  2  0  0  0  0  0  0
  158.8900  212.8020  152.4480 C   0  0  2  0  0  3  0  0  0  0  0  0
  159.1990  214.0410  148.8770 Cl  0  0  0  0  0  0  0  0  0  0  0  0
  1  9  1  0  0  0  0
  2  5  1  0  0  0  0
  3  7  1  0  0  0  0
  3  8  1  0  0  0  0
  4 16  1  6  0  0  0
  4  6  1  0  0  0  0
  4  1  1  0  0  0  0
  5  3  2  0  0  0  0
  6 11  1  0  0  0  0
  9 12  2  0  0  0  0
  9  5  1  0  0  0  0
 10 14  1  0  0  0  0
 10  7  2  0  0  0  0
 11  2  1  0  0  0  0
 12 10  1  0  0  0  0
 14 15  2  0  0  0  0
 14 13  1  0  0  0  0
 17 16  1  0  0  0  0
 17 19  2  0  0  0  0
 18 17  1  0  0  0  0
 20 18  1  0  0  0  0
 21 20  1  6  0  0  0
 21 33  1  0  0  0  0
 22 21  1  1  0  0  0
 23 25  1  0  0  0  0
 23 27  1  0  0  0  0
 24 22  1  0  0  0  0
 25 26  1  0  0  0  0
 26 22  1  0  0  0  0
 27 24  2  0  0  0  0
 28 26  2  0  0  0  0
 29 32  1  1  0  0  0
 30 34  1  1  0  0  0
 30 29  1  0  0  0  0
 31 32  1  0  0  0  0
 33 30  1  0  0  0  0
 33 29  1  0  0  0  0
 34 31  1  0  0  0  0
 35 36  1  0  0  0  0
 35 12  1  0  0  0  0
 37 43  1  0  0  0  0
 37 39  1  0  0  0  0
 37 42  1  0  0  0  0
 38 37  1  0  0  0  0
 39 42  1  0  0  0  0
 40 43  1  0  0  0  0
 41 38  1  0  0  0  0
 41 40  1  0  0  0  0
 43 36  1  6  0  0  0
 44 41  1  0  0  0  0
M  END
>  <MODEL>
6

>  <REMARK>
 VINA RESULT:      -6.3      1.707      3.189
  Name = 
  10 active torsions:
  status: ('A' for Active; 'I' for Inactive)
    1  A    between atoms: C_1  and  C_8
    2  A    between atoms: C_1  and  C_16
    3  A    between atoms: C_3  and  C_37
    4  A    between atoms: C_4  and  C_43
    5  A    between atoms: N_10  and  N_41
    6  A    between atoms: C_15  and  C_22
    7  A    between atoms: C_15  and  C_44
    8  A    between atoms: C_22  and  C_35
    9  A    between atoms: N_36  and  C_43
   10  A    between atoms: N_41  and  C_43
                            x       y       z     vdW  Elec       q    Type
                         _______ _______ _______ _____ _____    ______ ____

>  <TORSDO>
F 10

$$$$
=
 OpenBabel11042421493D

 44 50  0  0  1  0  0  0  0  0999 V2000
  161.8780  208.7320  151.2140 C   0  0  0  0  0  2  0  0  0  0  0  0
  161.4340  208.7930  154.0860 O   0  0  0  0  0  0  0  0  0  0  0  0
  160.5230  211.0210  153.9350 C   0  0  0  0  0  0  0  0  0  0  0  0
  161.1330  207.4240  151.3950 C   0  0  2  0  0  3  0  0  0  0  0  0
  161.0440  209.8870  153.3020 C   0  0  0  0  0  0  0  0  0  0  0  0
  161.5640  206.7900  152.7080 C   0  0  0  0  0  2  0  0  0  0  0  0
  160.0890  212.1070  153.1810 C   0  0  0  0  0  3  0  0  0  0  0  0
  160.3930  211.0780  155.4180 C   0  0  0  0  0  1  0  0  0  0  0  0
  161.1760  209.8710  151.8970 C   0  0  0  0  0  0  0  0  0  0  0  0
  160.1740  212.1070  151.7850 C   0  0  0  0  0  0  0  0  0  0  0  0
  160.9070  207.4860  153.8870 C   0  0  0  0  0  2  0  0  0  0  0  0
  160.7350  210.9770  151.1330 C   0  0  0  0  0  0  0  0  0  0  0  0
  160.4440  214.2810  150.8100 O   0  0  0  0  0  1  0  0  0  0  0  0
  159.6820  213.3140  151.0740 C   0  0  0  0  0  0  0  0  0  0  0  0
  158.3490  213.3930  150.6880 O   0  0  0  0  0  0  0  0  0  0  0  0
  161.4790  206.5070  150.2350 C   0  0  0  0  0  2  0  0  0  0  0  0
  161.8810  207.2930  149.0280 C   0  0  0  0  0  0  0  0  0  0  0  0
  161.4060  206.9320  147.7320 N   0  0  0  0  0  2  0  0  0  0  0  0
  162.6300  208.2960  149.1600 O   0  0  0  0  0  0  0  0  0  0  0  0
  160.6050  205.7970  147.5490 N   0  0  0  0  0  2  0  0  0  0  0  0
  161.4360  204.6360  147.8370 C   0  0  2  0  0  3  0  0  0  0  0  0
  161.8290  203.9580  146.5170 C   0  0  1  0  0  3  0  0  0  0  0  0
  161.5080  205.5700  144.1270 N   0  0  0  0  0  2  0  0  0  0  0  0
  160.6330  203.8690  145.6000 C   0  0  0  0  0  3  0  0  0  0  0  0
  162.6800  205.8420  144.9530 C   0  0  0  0  0  2  0  0  0  0  0  0
  162.9690  204.6670  145.8330 C   0  0  0  0  0  0  0  0  0  0  0  0
  160.4950  204.6320  144.5110 C   0  0  0  0  0  3  0  0  0  0  0  0
  164.1210  204.3210  146.0360 O   0  0  0  0  0  0  0  0  0  0  0  0
  161.5980  203.2810  149.7730 C   0  0  2  0  0  3  0  0  0  0  0  0
  161.3720  202.4080  148.6220 C   0  0  2  0  0  3  0  0  0  0  0  0
  160.3790  201.3380  150.5560 C   0  0  0  0  0  2  0  0  0  0  0  0
  160.7840  202.7400  150.9350 C   0  0  0  0  0  2  0  0  0  0  0  0
  160.6930  203.7150  148.6930 N   0  0  0  0  0  0  0  0  0  0  0  0
  160.4090  201.3160  149.0470 C   0  0  0  0  0  2  0  0  0  0  0  0
  160.8550  210.9200  149.6380 C   0  0  0  0  0  2  0  0  0  0  0  0
  162.0880  211.6860  149.1880 C   0  0  0  0  0  2  0  0  0  0  0  0
  161.9820  213.5760  147.6070 C   0  0  0  0  0  0  0  0  0  0  0  0
  160.7410  214.1530  147.3240 O   0  0  0  0  0  0  0  0  0  0  0  0
  163.0670  214.0780  146.6850 C   0  0  0  0  0  2  0  0  0  0  0  0
  160.5410  211.8590  147.2780 C   0  0  0  0  0  2  0  0  0  0  0  0
  159.8370  213.1330  147.4320 N   0  0  0  0  0  0  0  0  0  0  0  0
  163.0810  214.4530  148.1630 C   0  0  0  0  0  2  0  0  0  0  0  0
  161.9510  212.0900  147.7290 C   0  0  2  0  0  3  0  0  0  0  0  0
  158.7440  213.2750  146.0860 Cl  0  0  0  0  0  0  0  0  0  0  0  0
  1  4  1  0  0  0  0
  1  9  1  0  0  0  0
  3  8  1  0  0  0  0
  4 16  1  6  0  0  0
  4  6  1  0  0  0  0
  5  3  1  0  0  0  0
  5  2  1  0  0  0  0
  6 11  1  0  0  0  0
  7  3  2  0  0  0  0
  9  5  2  0  0  0  0
 10  7  1  0  0  0  0
 11  2  1  0  0  0  0
 12 10  2  0  0  0  0
 12  9  1  0  0  0  0
 13 14  1  0  0  0  0
 14 10  1  0  0  0  0
 15 14  2  0  0  0  0
 17 19  2  0  0  0  0
 17 16  1  0  0  0  0
 18 17  1  0  0  0  0
 20 18  1  0  0  0  0
 21 20  1  6  0  0  0
 21 33  1  0  0  0  0
 22 21  1  1  0  0  0
 23 27  1  0  0  0  0
 23 25  1  0  0  0  0
 24 22  1  0  0  0  0
 25 26  1  0  0  0  0
 26 28  2  0  0  0  0
 26 22  1  0  0  0  0
 27 24  2  0  0  0  0
 29 32  1  1  0  0  0
 30 33  1  0  0  0  0
 30 34  1  1  0  0  0
 30 29  1  0  0  0  0
 31 32  1  0  0  0  0
 33 29  1  0  0  0  0
 34 31  1  0  0  0  0
 35 12  1  0  0  0  0
 36 35  1  0  0  0  0
 37 43  1  0  0  0  0
 37 42  1  0  0  0  0
 38 41  1  0  0  0  0
 38 37  1  0  0  0  0
 39 37  1  0  0  0  0
 39 42  1  0  0  0  0
 40 41  1  0  0  0  0
 40 43  1  0  0  0  0
 43 36  1  1  0  0  0
 44 41  1  0  0  0  0
M  END
>  <MODEL>
7

>  <REMARK>
 VINA RESULT:      -6.2      2.008      4.015
  Name = 
  10 active torsions:
  status: ('A' for Active; 'I' for Inactive)
    1  A    between atoms: C_1  and  C_8
    2  A    between atoms: C_1  and  C_16
    3  A    between atoms: C_3  and  C_37
    4  A    between atoms: C_4  and  C_43
    5  A    between atoms: N_10  and  N_41
    6  A    between atoms: C_15  and  C_22
    7  A    between atoms: C_15  and  C_44
    8  A    between atoms: C_22  and  C_35
    9  A    between atoms: N_36  and  C_43
   10  A    between atoms: N_41  and  C_43
                            x       y       z     vdW  Elec       q    Type
                         _______ _______ _______ _____ _____    ______ ____

>  <TORSDO>
F 10

$$$$
=
 OpenBabel11042421493D

 44 50  0  0  1  0  0  0  0  0999 V2000
  161.9190  209.0730  152.2010 C   0  0  0  0  0  2  0  0  0  0  0  0
  161.0000  209.5970  154.9080 O   0  0  0  0  0  0  0  0  0  0  0  0
  160.0240  211.6900  154.2130 C   0  0  0  0  0  0  0  0  0  0  0  0
  161.2160  207.7640  152.5000 C   0  0  2  0  0  3  0  0  0  0  0  0
  160.6960  210.5060  153.8870 C   0  0  0  0  0  0  0  0  0  0  0  0
  161.4510  207.4010  153.9580 C   0  0  0  0  0  2  0  0  0  0  0  0
  159.6730  212.5930  153.2140 C   0  0  0  0  0  3  0  0  0  0  0  0
  159.6470  211.9920  155.6210 C   0  0  0  0  0  1  0  0  0  0  0  0
  161.0610  210.2580  152.5460 C   0  0  0  0  0  0  0  0  0  0  0  0
  159.9900  212.3580  151.8720 C   0  0  0  0  0  0  0  0  0  0  0  0
  160.5750  208.2390  154.8730 C   0  0  0  0  0  2  0  0  0  0  0  0
  160.7030  211.1780  151.5340 C   0  0  0  0  0  0  0  0  0  0  0  0
  158.4590  213.3130  150.2930 O   0  0  0  0  0  0  0  0  0  0  0  0
  159.5680  213.3840  150.8850 C   0  0  0  0  0  0  0  0  0  0  0  0
  160.4090  214.4520  150.5970 O   0  0  0  0  0  1  0  0  0  0  0  0
  161.7930  206.6890  151.5950 C   0  0  0  0  0  2  0  0  0  0  0  0
  161.3560  205.3270  152.0330 C   0  0  0  0  0  0  0  0  0  0  0  0
  160.5800  204.4990  151.1680 N   0  0  0  0  0  2  0  0  0  0  0  0
  161.6940  204.8990  153.1670 O   0  0  0  0  0  0  0  0  0  0  0  0
  160.1540  204.9640  149.9170 N   0  0  0  0  0  2  0  0  0  0  0  0
  161.0820  204.4370  148.9250 C   0  0  2  0  0  3  0  0  0  0  0  0
  161.1530  205.4050  147.7360 C   0  0  1  0  0  3  0  0  0  0  0  0
  162.4590  207.9420  148.2520 N   0  0  0  0  0  2  0  0  0  0  0  0
  160.4110  206.6790  148.0560 C   0  0  0  0  0  3  0  0  0  0  0  0
  163.3250  206.7860  148.0460 C   0  0  0  0  0  2  0  0  0  0  0  0
  162.5740  205.7050  147.3340 C   0  0  0  0  0  0  0  0  0  0  0  0
  161.0310  207.8370  148.3070 C   0  0  0  0  0  3  0  0  0  0  0  0
  163.1250  205.0400  146.4720 O   0  0  0  0  0  0  0  0  0  0  0  0
  161.7170  202.1610  148.7580 C   0  0  2  0  0  3  0  0  0  0  0  0
  161.5180  202.6810  147.4060 C   0  0  2  0  0  3  0  0  0  0  0  0
  160.9730  200.3200  147.3670 C   0  0  0  0  0  2  0  0  0  0  0  0
  161.1590  200.7490  148.8010 C   0  0  0  0  0  2  0  0  0  0  0  0
  160.6260  203.1170  148.4950 N   0  0  0  0  0  0  0  0  0  0  0  0
  160.8280  201.6050  146.5890 C   0  0  0  0  0  2  0  0  0  0  0  0
  161.0740  210.8720  150.1110 C   0  0  0  0  0  2  0  0  0  0  0  0
  162.0270  211.9320  149.5860 C   0  0  0  0  0  2  0  0  0  0  0  0
  161.9290  213.3810  147.5920 C   0  0  0  0  0  0  0  0  0  0  0  0
  160.6810  213.7690  147.0980 O   0  0  0  0  0  0  0  0  0  0  0  0
  163.0520  213.7410  146.6480 C   0  0  0  0  0  2  0  0  0  0  0  0
  160.6370  211.5200  147.5940 C   0  0  0  0  0  2  0  0  0  0  0  0
  159.8400  212.7320  147.3910 N   0  0  0  0  0  0  0  0  0  0  0  0
  162.9180  214.4530  147.9900 C   0  0  0  0  0  2  0  0  0  0  0  0
  161.9870  211.9680  148.0670 C   0  0  2  0  0  3  0  0  0  0  0  0
  158.8560  212.4600  145.9820 Cl  0  0  0  0  0  0  0  0  0  0  0  0
  1  4  1  0  0  0  0
  1  9  1  0  0  0  0
  3  8  1  0  0  0  0
  4 16  1  6  0  0  0
  4  6  1  0  0  0  0
  5  3  1  0  0  0  0
  5  2  1  0  0  0  0
  6 11  1  0  0  0  0
  7  3  2  0  0  0  0
  9  5  2  0  0  0  0
 10  7  1  0  0  0  0
 11  2  1  0  0  0  0
 12 10  2  0  0  0  0
 12  9  1  0  0  0  0
 13 14  2  0  0  0  0
 14 10  1  0  0  0  0
 15 14  1  0  0  0  0
 16 17  1  0  0  0  0
 17 19  2  0  0  0  0
 18 17  1  0  0  0  0
 20 18  1  0  0  0  0
 21 20  1  1  0  0  0
 22 24  1  0  0  0  0
 22 21  1  1  0  0  0
 23 27  1  0  0  0  0
 24 27  2  0  0  0  0
 25 23  1  0  0  0  0
 26 22  1  0  0  0  0
 26 25  1  0  0  0  0
 28 26  2  0  0  0  0
 29 32  1  6  0  0  0
 30 34  1  6  0  0  0
 30 33  1  0  0  0  0
 30 29  1  0  0  0  0
 31 32  1  0  0  0  0
 33 29  1  0  0  0  0
 33 21  1  0  0  0  0
 34 31  1  0  0  0  0
 35 12  1  0  0  0  0
 36 35  1  0  0  0  0
 37 42  1  0  0  0  0
 37 43  1  0  0  0  0
 38 41  1  0  0  0  0
 38 37  1  0  0  0  0
 39 37  1  0  0  0  0
 39 42  1  0  0  0  0
 40 43  1  0  0  0  0
 41 40  1  0  0  0  0
 43 36  1  1  0  0  0
 44 41  1  0  0  0  0
M  END
>  <MODEL>
8

>  <REMARK>
 VINA RESULT:      -6.1      2.170      3.958
  Name = 
  10 active torsions:
  status: ('A' for Active; 'I' for Inactive)
    1  A    between atoms: C_1  and  C_8
    2  A    between atoms: C_1  and  C_16
    3  A    between atoms: C_3  and  C_37
    4  A    between atoms: C_4  and  C_43
    5  A    between atoms: N_10  and  N_41
    6  A    between atoms: C_15  and  C_22
    7  A    between atoms: C_15  and  C_44
    8  A    between atoms: C_22  and  C_35
    9  A    between atoms: N_36  and  C_43
   10  A    between atoms: N_41  and  C_43
                            x       y       z     vdW  Elec       q    Type
                         _______ _______ _______ _____ _____    ______ ____

>  <TORSDO>
F 10

$$$$
=
 OpenBabel11042421493D

 44 50  0  0  1  0  0  0  0  0999 V2000
  161.7810  209.0100  152.5630 C   0  0  0  0  0  2  0  0  0  0  0  0
  160.8990  209.6380  155.2600 O   0  0  0  0  0  0  0  0  0  0  0  0
  159.9220  211.7080  154.4990 C   0  0  0  0  0  0  0  0  0  0  0  0
  161.0760  207.7160  152.9190 C   0  0  2  0  0  3  0  0  0  0  0  0
  160.5850  210.5100  154.2090 C   0  0  0  0  0  0  0  0  0  0  0  0
  161.3290  207.4070  154.3870 C   0  0  0  0  0  2  0  0  0  0  0  0
  159.5610  212.5750  153.4720 C   0  0  0  0  0  3  0  0  0  0  0  0
  159.5640  212.0650  155.9000 C   0  0  0  0  0  1  0  0  0  0  0  0
  160.9320  210.2100  152.8740 C   0  0  0  0  0  0  0  0  0  0  0  0
  159.8600  212.2880  152.1360 C   0  0  0  0  0  0  0  0  0  0  0  0
  160.4670  208.2820  155.2810 C   0  0  0  0  0  2  0  0  0  0  0  0
  160.5640  211.0940  151.8330 C   0  0  0  0  0  0  0  0  0  0  0  0
  160.1160  214.3020  150.8600 O   0  0  0  0  0  1  0  0  0  0  0  0
  159.4300  213.2790  151.1160 C   0  0  0  0  0  0  0  0  0  0  0  0
  158.2410  213.0830  150.4220 O   0  0  0  0  0  0  0  0  0  0  0  0
  161.6380  206.6050  152.0490 C   0  0  0  0  0  2  0  0  0  0  0  0
  161.9150  207.0950  150.6630 C   0  0  0  0  0  0  0  0  0  0  0  0
  161.2760  206.4940  149.5380 N   0  0  0  0  0  2  0  0  0  0  0  0
  162.7030  208.0610  150.4900 O   0  0  0  0  0  0  0  0  0  0  0  0
  160.4260  205.3910  149.6950 N   0  0  0  0  0  2  0  0  0  0  0  0
  160.7100  204.4730  148.6000 C   0  0  2  0  0  3  0  0  0  0  0  0
  161.4770  203.2600  149.1460 C   0  0  1  0  0  3  0  0  0  0  0  0
  160.0070  201.5610  150.9800 N   0  0  0  0  0  2  0  0  0  0  0  0
  161.5940  203.3500  150.6470 C   0  0  0  0  0  3  0  0  0  0  0  0
  159.7120  201.4070  149.5590 C   0  0  0  0  0  2  0  0  0  0  0  0
  160.8370  201.9570  148.7410 C   0  0  0  0  0  0  0  0  0  0  0  0
  160.8960  202.5680  151.4790 C   0  0  0  0  0  3  0  0  0  0  0  0
  161.1970  201.3820  147.7260 O   0  0  0  0  0  0  0  0  0  0  0  0
  160.8460  204.9300  146.2790 C   0  0  2  0  0  3  0  0  0  0  0  0
  162.0200  204.1440  146.6610 C   0  0  2  0  0  3  0  0  0  0  0  0
  162.6650  205.5680  144.8090 C   0  0  0  0  0  2  0  0  0  0  0  0
  161.2950  205.9850  145.2850 C   0  0  0  0  0  2  0  0  0  0  0  0
  161.4940  205.1680  147.5820 N   0  0  0  0  0  0  0  0  0  0  0  0
  163.2170  204.7030  145.9150 C   0  0  0  0  0  2  0  0  0  0  0  0
  160.9160  210.7330  150.4180 C   0  0  0  0  0  2  0  0  0  0  0  0
  161.9670  211.6930  149.8860 C   0  0  0  0  0  2  0  0  0  0  0  0
  162.2210  213.0230  147.8250 C   0  0  0  0  0  0  0  0  0  0  0  0
  161.0900  213.6100  147.2540 O   0  0  0  0  0  0  0  0  0  0  0  0
  163.4280  213.1150  146.9200 C   0  0  0  0  0  2  0  0  0  0  0  0
  160.6010  211.4400  147.8510 C   0  0  0  0  0  2  0  0  0  0  0  0
  160.0570  212.7660  147.5530 N   0  0  0  0  0  0  0  0  0  0  0  0
  163.3790  213.9120  148.2200 C   0  0  0  0  0  2  0  0  0  0  0  0
  161.9920  211.6530  148.3660 C   0  0  2  0  0  3  0  0  0  0  0  0
  159.0940  212.6070  146.1130 Cl  0  0  0  0  0  0  0  0  0  0  0  0
  1  9  1  0  0  0  0
  1  4  1  0  0  0  0
  2 11  1  0  0  0  0
  3  8  1  0  0  0  0
  4 16  1  6  0  0  0
  4  6  1  0  0  0  0
  5  3  1  0  0  0  0
  5  2  1  0  0  0  0
  6 11  1  0  0  0  0
  7  3  2  0  0  0  0
  9  5  2  0  0  0  0
 10  7  1  0  0  0  0
 12 10  2  0  0  0  0
 12  9  1  0  0  0  0
 13 14  1  0  0  0  0
 14 10  1  0  0  0  0
 15 14  2  0  0  0  0
 17 16  1  0  0  0  0
 18 20  1  0  0  0  0
 18 17  1  0  0  0  0
 19 17  2  0  0  0  0
 21 20  1  1  0  0  0
 22 21  1  1  0  0  0
 22 24  1  0  0  0  0
 23 27  1  0  0  0  0
 24 27  2  0  0  0  0
 25 23  1  0  0  0  0
 26 22  1  0  0  0  0
 26 25  1  0  0  0  0
 28 26  2  0  0  0  0
 29 32  1  6  0  0  0
 29 30  1  0  0  0  0
 29 33  1  0  0  0  0
 30 34  1  6  0  0  0
 30 33  1  0  0  0  0
 31 32  1  0  0  0  0
 31 34  1  0  0  0  0
 33 21  1  0  0  0  0
 35 12  1  0  0  0  0
 36 35  1  0  0  0  0
 37 42  1  0  0  0  0
 37 43  1  0  0  0  0
 38 41  1  0  0  0  0
 38 37  1  0  0  0  0
 39 37  1  0  0  0  0
 39 42  1  0  0  0  0
 40 43  1  0  0  0  0
 41 40  1  0  0  0  0
 43 36  1  1  0  0  0
 44 41  1  0  0  0  0
M  END
>  <MODEL>
9

>  <REMARK>
 VINA RESULT:      -6.0      1.741      2.784
  Name = 
  10 active torsions:
  status: ('A' for Active; 'I' for Inactive)
    1  A    between atoms: C_1  and  C_8
    2  A    between atoms: C_1  and  C_16
    3  A    between atoms: C_3  and  C_37
    4  A    between atoms: C_4  and  C_43
    5  A    between atoms: N_10  and  N_41
    6  A    between atoms: C_15  and  C_22
    7  A    between atoms: C_15  and  C_44
    8  A    between atoms: C_22  and  C_35
    9  A    between atoms: N_36  and  C_43
   10  A    between atoms: N_41  and  C_43
                            x       y       z     vdW  Elec       q    Type
                         _______ _______ _______ _____ _____    ______ ____

>  <TORSDO>
F 10

$$$$
