=
 OpenBabel11052409413D

 38 40  0  0  1  0  0  0  0  0999 V2000
  161.2650  206.7770  149.5150 C   0  0  0  0  0  0  0  0  0  0  0  0
  161.7400  205.6570  151.7620 C   0  0  2  0  0  3  0  0  0  0  0  0
  161.6670  206.8210  150.8010 C   0  0  0  0  0  3  0  0  0  0  0  0
  161.3550  204.2750  149.2510 C   0  0  2  0  0  3  0  0  0  0  0  0
  160.5400  204.7300  151.6340 C   0  0  0  0  0  2  0  0  0  0  0  0
  160.7650  203.6850  150.5370 C   0  0  0  0  0  2  0  0  0  0  0  0
  160.6510  205.5670  148.8580 C   0  0  0  0  0  2  0  0  0  0  0  0
  160.6450  202.2160  148.2680 O   0  0  0  0  0  0  0  0  0  0  0  0
  161.2980  203.2850  148.1310 C   0  0  0  0  0  0  0  0  0  0  0  0
  161.9520  203.5480  146.8870 N   0  0  0  0  0  2  0  0  0  0  0  0
  162.7140  204.7640  146.6190 C   0  0  0  0  0  2  0  0  0  0  0  0
  162.3920  205.3140  145.2350 C   0  0  0  0  0  2  0  0  0  0  0  0
  160.1540  206.2740  145.3170 N   0  0  0  0  0  1  0  0  0  0  0  0
  160.9240  205.1190  144.8910 C   0  0  0  0  0  2  0  0  0  0  0  0
  161.8380  206.1670  153.1890 C   0  0  0  0  0  2  0  0  0  0  0  0
  160.7780  207.2250  153.4460 C   0  0  0  0  0  2  0  0  0  0  0  0
  161.3410  208.3070  154.2370 N   0  0  0  0  0  2  0  0  0  0  0  0
  161.4360  209.4760  153.3750 C   0  0  1  0  0  3  0  0  0  0  0  0
  160.2290  209.6390  152.6550 O   0  0  0  0  0  0  0  0  0  0  0  0
  160.5970  211.5410  153.9200 C   0  0  1  0  0  3  0  0  0  0  0  0
  161.6570  210.6350  154.1710 O   0  0  0  0  0  0  0  0  0  0  0  0
  158.6650  211.3310  152.4660 O   0  0  0  0  0  0  0  0  0  0  0  0
  159.7260  210.8630  152.9600 C   0  0  0  0  0  0  0  0  0  0  0  0
  159.8410  211.8130  155.2090 C   0  0  0  0  0  2  0  0  0  0  0  0
  159.2330  210.6390  155.6560 O   0  0  0  0  0  1  0  0  0  0  0  0
  161.3220  208.0320  148.7110 C   0  0  0  0  0  2  0  0  0  0  0  0
  162.0280  209.0630  149.4540 N   0  0  0  0  0  2  0  0  0  0  0  0
  162.3700  210.0590  148.5320 N   0  0  0  0  0  2  0  0  0  0  0  0
  161.9580  211.3240  149.1160 C   0  0  0  0  0  2  0  0  0  0  0  0
  162.5970  212.4230  148.4070 N   0  0  0  0  0  2  0  0  0  0  0  0
  161.6070  213.3860  148.1620 N   0  0  0  0  0  0  0  0  0  0  0  0
  160.5860  213.2130  149.1910 C   0  0  0  0  0  2  0  0  0  0  0  0
  159.5940  214.2100  149.0670 O   0  0  0  0  0  0  0  0  0  0  0  0
  160.9890  213.0390  146.8870 C   0  0  0  0  0  2  0  0  0  0  0  0
  158.8990  214.0370  147.8440 C   0  0  1  0  0  3  0  0  0  0  0  0
  159.8170  213.9710  146.6140 C   0  0  0  0  0  2  0  0  0  0  0  0
  157.8180  212.9510  147.8970 C   0  0  0  0  0  2  0  0  0  0  0  0
  156.9870  213.0750  149.0850 N   0  0  0  0  0  1  0  0  0  0  0  0
  1  3  2  0  0  0  0
  2 15  1  1  0  0  0
  3  2  1  0  0  0  0
  4  9  1  6  0  0  0
  4  6  1  0  0  0  0
  5  2  1  0  0  0  0
  6  5  1  0  0  0  0
  7  4  1  0  0  0  0
  7  1  1  0  0  0  0
  9  8  2  0  0  0  0
 10  9  1  0  0  0  0
 11 10  1  0  0  0  0
 12 11  1  0  0  0  0
 14 12  1  0  0  0  0
 14 13  1  0  0  0  0
 15 16  1  0  0  0  0
 16 17  1  0  0  0  0
 18 21  1  0  0  0  0
 18 17  1  1  0  0  0
 19 23  1  0  0  0  0
 19 18  1  0  0  0  0
 20 21  1  0  0  0  0
 20 24  1  1  0  0  0
 22 23  2  0  0  0  0
 23 20  1  0  0  0  0
 24 25  1  0  0  0  0
 26 27  1  0  0  0  0
 26  1  1  0  0  0  0
 28 29  1  0  0  0  0
 28 27  1  0  0  0  0
 30 29  1  0  0  0  0
 31 30  1  0  0  0  0
 31 32  1  0  0  0  0
 33 32  1  0  0  0  0
 34 31  1  0  0  0  0
 35 37  1  1  0  0  0
 35 33  1  0  0  0  0
 36 34  1  0  0  0  0
 36 35  1  0  0  0  0
 37 38  1  0  0  0  0
M  END
>  <MODEL>
1

>  <REMARK>
 VINA RESULT:      -7.5      0.000      0.000
  Name = 
  16 active torsions:
  status: ('A' for Active; 'I' for Inactive)
    1  A    between atoms: C_1  and  C_8
    2  A    between atoms: C_1  and  C_34
    3  A    between atoms: C_2  and  C_21
    4  A    between atoms: N_3  and  N_4
    5  A    between atoms: N_4  and  C_14
    6  A    between atoms: C_6  and  N_7
    7  A    between atoms: N_7  and  C_34
    8  A    between atoms: N_11  and  C_14
    9  A    between atoms: N_11  and  N_28
   10  A    between atoms: C_12  and  C_25
   11  A    between atoms: C_16  and  C_27
   12  A    between atoms: C_18  and  C_26
   13  A    between atoms: C_19  and  C_20
   14  A    between atoms: C_19  and  C_22
   15  A    between atoms: C_21  and  N_28
   16  A    between atoms: C_22  and  N_38
                            x       y       z     vdW  Elec       q    Type
                         _______ _______ _______ _____ _____    ______ ____

>  <TORSDO>
F 16

$$$$
=
 OpenBabel11052409413D

 38 40  0  0  1  0  0  0  0  0999 V2000
  161.3510  206.8770  149.6570 C   0  0  0  0  0  0  0  0  0  0  0  0
  161.8520  205.8550  151.9450 C   0  0  2  0  0  3  0  0  0  0  0  0
  161.8130  206.9660  150.9210 C   0  0  0  0  0  3  0  0  0  0  0  0
  161.2630  204.3630  149.5400 C   0  0  2  0  0  3  0  0  0  0  0  0
  160.5880  205.0080  151.9220 C   0  0  0  0  0  2  0  0  0  0  0  0
  160.6940  203.8900  150.8820 C   0  0  0  0  0  2  0  0  0  0  0  0
  160.6290  205.6770  149.0990 C   0  0  0  0  0  2  0  0  0  0  0  0
  160.3870  202.2990  148.7160 O   0  0  0  0  0  0  0  0  0  0  0  0
  161.0900  203.3180  148.4830 C   0  0  0  0  0  0  0  0  0  0  0  0
  161.6910  203.4720  147.1940 N   0  0  0  0  0  2  0  0  0  0  0  0
  162.5050  204.6240  146.8180 C   0  0  0  0  0  2  0  0  0  0  0  0
  162.3790  204.9150  145.3270 C   0  0  0  0  0  2  0  0  0  0  0  0
  160.3270  206.2280  145.3810 N   0  0  0  0  0  1  0  0  0  0  0  0
  160.9220  204.9930  144.9010 C   0  0  0  0  0  2  0  0  0  0  0  0
  162.0470  206.4370  153.3340 C   0  0  0  0  0  2  0  0  0  0  0  0
  160.8070  207.2010  153.7670 C   0  0  0  0  0  2  0  0  0  0  0  0
  160.6250  207.0750  155.2040 N   0  0  0  0  0  2  0  0  0  0  0  0
  160.4620  208.4160  155.7450 C   0  0  1  0  0  3  0  0  0  0  0  0
  161.6630  208.8300  156.3680 O   0  0  0  0  0  0  0  0  0  0  0  0
  161.1590  210.3230  154.6750 C   0  0  1  0  0  3  0  0  0  0  0  0
  160.1580  209.3200  154.6880 O   0  0  0  0  0  0  0  0  0  0  0  0
  163.1140  210.6060  156.0830 O   0  0  0  0  0  0  0  0  0  0  0  0
  162.0820  209.9640  155.7510 C   0  0  0  0  0  0  0  0  0  0  0  0
  161.8830  210.3040  153.3390 C   0  0  0  0  0  2  0  0  0  0  0  0
  160.9910  210.6190  152.3140 O   0  0  0  0  0  1  0  0  0  0  0  0
  161.4560  208.0770  148.7780 C   0  0  0  0  0  2  0  0  0  0  0  0
  161.9480  209.2100  149.5460 N   0  0  0  0  0  2  0  0  0  0  0  0
  162.5050  210.1060  148.6260 N   0  0  0  0  0  2  0  0  0  0  0  0
  161.4700  211.0760  148.3120 C   0  0  0  0  0  2  0  0  0  0  0  0
  161.9290  212.4120  148.6620 N   0  0  0  0  0  2  0  0  0  0  0  0
  161.4920  213.2770  147.6480 N   0  0  0  0  0  0  0  0  0  0  0  0
  160.1330  212.8700  147.3030 C   0  0  0  0  0  2  0  0  0  0  0  0
  159.5870  213.7530  146.3470 O   0  0  0  0  0  0  0  0  0  0  0  0
  162.3250  213.0110  146.4810 C   0  0  0  0  0  2  0  0  0  0  0  0
  160.3100  213.6440  145.1330 C   0  0  1  0  0  3  0  0  0  0  0  0
  161.8260  213.8280  145.2960 C   0  0  0  0  0  2  0  0  0  0  0  0
  159.8970  212.4420  144.2760 C   0  0  0  0  0  2  0  0  0  0  0  0
  160.2630  212.6250  142.8790 N   0  0  0  0  0  1  0  0  0  0  0  0
  1  3  2  0  0  0  0
  2 15  1  1  0  0  0
  3  2  1  0  0  0  0
  4  9  1  6  0  0  0
  4  6  1  0  0  0  0
  5  2  1  0  0  0  0
  6  5  1  0  0  0  0
  7  4  1  0  0  0  0
  7  1  1  0  0  0  0
  9  8  2  0  0  0  0
 10  9  1  0  0  0  0
 11 10  1  0  0  0  0
 12 11  1  0  0  0  0
 14 12  1  0  0  0  0
 14 13  1  0  0  0  0
 15 16  1  0  0  0  0
 16 17  1  0  0  0  0
 18 17  1  6  0  0  0
 18 19  1  0  0  0  0
 20 24  1  6  0  0  0
 20 21  1  0  0  0  0
 20 23  1  0  0  0  0
 21 18  1  0  0  0  0
 23 22  2  0  0  0  0
 23 19  1  0  0  0  0
 25 24  1  0  0  0  0
 26 27  1  0  0  0  0
 26  1  1  0  0  0  0
 28 27  1  0  0  0  0
 29 28  1  0  0  0  0
 29 30  1  0  0  0  0
 31 30  1  0  0  0  0
 32 31  1  0  0  0  0
 33 32  1  0  0  0  0
 34 31  1  0  0  0  0
 35 37  1  1  0  0  0
 35 36  1  0  0  0  0
 35 33  1  0  0  0  0
 36 34  1  0  0  0  0
 38 37  1  0  0  0  0
M  END
>  <MODEL>
2

>  <REMARK>
 VINA RESULT:      -6.9      1.598      2.323
  Name = 
  16 active torsions:
  status: ('A' for Active; 'I' for Inactive)
    1  A    between atoms: C_1  and  C_8
    2  A    between atoms: C_1  and  C_34
    3  A    between atoms: C_2  and  C_21
    4  A    between atoms: N_3  and  N_4
    5  A    between atoms: N_4  and  C_14
    6  A    between atoms: C_6  and  N_7
    7  A    between atoms: N_7  and  C_34
    8  A    between atoms: N_11  and  C_14
    9  A    between atoms: N_11  and  N_28
   10  A    between atoms: C_12  and  C_25
   11  A    between atoms: C_16  and  C_27
   12  A    between atoms: C_18  and  C_26
   13  A    between atoms: C_19  and  C_20
   14  A    between atoms: C_19  and  C_22
   15  A    between atoms: C_21  and  N_28
   16  A    between atoms: C_22  and  N_38
                            x       y       z     vdW  Elec       q    Type
                         _______ _______ _______ _____ _____    ______ ____

>  <TORSDO>
F 16

$$$$
=
 OpenBabel11052409413D

 38 40  0  0  1  0  0  0  0  0999 V2000
  161.2420  206.5930  153.1370 C   0  0  0  0  0  0  0  0  0  0  0  0
  161.8460  208.6730  151.7810 C   0  0  2  0  0  3  0  0  0  0  0  0
  161.7060  207.1870  152.0180 C   0  0  0  0  0  3  0  0  0  0  0  0
  161.3630  208.6150  154.6310 C   0  0  2  0  0  3  0  0  0  0  0  0
  160.6570  209.4560  152.3200 C   0  0  0  0  0  2  0  0  0  0  0  0
  160.8470  209.7960  153.8000 C   0  0  0  0  0  2  0  0  0  0  0  0
  160.6180  207.3300  154.2940 C   0  0  0  0  0  2  0  0  0  0  0  0
  162.1900  208.5360  156.8710 O   0  0  0  0  0  0  0  0  0  0  0  0
  161.2680  208.9070  156.0950 C   0  0  0  0  0  0  0  0  0  0  0  0
  160.1550  209.6280  156.6290 N   0  0  0  0  0  2  0  0  0  0  0  0
  159.0480  210.1180  155.8140 C   0  0  0  0  0  2  0  0  0  0  0  0
  158.4050  211.3440  156.4520 C   0  0  0  0  0  2  0  0  0  0  0  0
  159.4900  212.9290  154.9520 N   0  0  0  0  0  1  0  0  0  0  0  0
  159.3100  212.5610  156.3450 C   0  0  0  0  0  2  0  0  0  0  0  0
  162.0040  208.9490  150.2950 C   0  0  0  0  0  2  0  0  0  0  0  0
  162.0000  210.4460  150.0320 C   0  0  0  0  0  2  0  0  0  0  0  0
  162.2900  210.7010  148.6300 N   0  0  0  0  0  2  0  0  0  0  0  0
  162.2010  212.1390  148.4200 C   0  0  1  0  0  3  0  0  0  0  0  0
  163.0320  212.5170  147.3400 O   0  0  0  0  0  0  0  0  0  0  0  0
  160.8550  213.1230  146.8440 C   0  0  1  0  0  3  0  0  0  0  0  0
  160.8560  212.4910  148.1120 O   0  0  0  0  0  0  0  0  0  0  0  0
  162.6850  213.5860  145.3200 O   0  0  0  0  0  0  0  0  0  0  0  0
  162.2490  213.1110  146.4020 C   0  0  0  0  0  0  0  0  0  0  0  0
  159.9950  212.3260  145.8770 C   0  0  0  0  0  2  0  0  0  0  0  0
  158.6480  212.4810  146.2070 O   0  0  0  0  0  1  0  0  0  0  0  0
  161.2380  205.1030  153.1970 C   0  0  0  0  0  2  0  0  0  0  0  0
  161.8550  204.5580  151.9990 N   0  0  0  0  0  2  0  0  0  0  0  0
  161.1980  203.3530  151.7230 N   0  0  0  0  0  2  0  0  0  0  0  0
  160.9190  203.3490  150.2970 C   0  0  0  0  0  2  0  0  0  0  0  0
  160.3890  204.6450  149.8980 N   0  0  0  0  0  2  0  0  0  0  0  0
  161.2590  205.1650  148.9280 N   0  0  0  0  0  0  0  0  0  0  0  0
  160.5480  206.2550  148.2650 C   0  0  0  0  0  2  0  0  0  0  0  0
  161.3930  206.8920  147.3320 O   0  0  0  0  0  0  0  0  0  0  0  0
  161.4530  204.1170  147.9320 C   0  0  0  0  0  2  0  0  0  0  0  0
  161.7120  205.9890  146.2870 C   0  0  1  0  0  3  0  0  0  0  0  0
  162.2890  204.6530  146.7780 C   0  0  0  0  0  2  0  0  0  0  0  0
  160.6140  205.8630  145.2250 C   0  0  0  0  0  2  0  0  0  0  0  0
  160.8120  204.6930  144.3810 N   0  0  0  0  0  1  0  0  0  0  0  0
  1 26  1  0  0  0  0
  1  7  1  0  0  0  0
  2 15  1  6  0  0  0
  2  3  1  0  0  0  0
  2  5  1  0  0  0  0
  3  1  2  0  0  0  0
  4  9  1  1  0  0  0
  5  6  1  0  0  0  0
  6  4  1  0  0  0  0
  7  4  1  0  0  0  0
  9 10  1  0  0  0  0
  9  8  2  0  0  0  0
 11 12  1  0  0  0  0
 11 10  1  0  0  0  0
 13 14  1  0  0  0  0
 14 12  1  0  0  0  0
 16 15  1  0  0  0  0
 17 16  1  0  0  0  0
 18 17  1  6  0  0  0
 19 18  1  0  0  0  0
 20 24  1  6  0  0  0
 20 21  1  0  0  0  0
 21 18  1  0  0  0  0
 22 23  2  0  0  0  0
 23 20  1  0  0  0  0
 23 19  1  0  0  0  0
 24 25  1  0  0  0  0
 27 26  1  0  0  0  0
 28 27  1  0  0  0  0
 29 28  1  0  0  0  0
 30 29  1  0  0  0  0
 31 30  1  0  0  0  0
 32 31  1  0  0  0  0
 33 32  1  0  0  0  0
 34 31  1  0  0  0  0
 35 37  1  1  0  0  0
 35 36  1  0  0  0  0
 35 33  1  0  0  0  0
 36 34  1  0  0  0  0
 38 37  1  0  0  0  0
M  END
>  <MODEL>
3

>  <REMARK>
 VINA RESULT:      -6.8      2.523      8.195
  Name = 
  16 active torsions:
  status: ('A' for Active; 'I' for Inactive)
    1  A    between atoms: C_1  and  C_8
    2  A    between atoms: C_1  and  C_34
    3  A    between atoms: C_2  and  C_21
    4  A    between atoms: N_3  and  N_4
    5  A    between atoms: N_4  and  C_14
    6  A    between atoms: C_6  and  N_7
    7  A    between atoms: N_7  and  C_34
    8  A    between atoms: N_11  and  C_14
    9  A    between atoms: N_11  and  N_28
   10  A    between atoms: C_12  and  C_25
   11  A    between atoms: C_16  and  C_27
   12  A    between atoms: C_18  and  C_26
   13  A    between atoms: C_19  and  C_20
   14  A    between atoms: C_19  and  C_22
   15  A    between atoms: C_21  and  N_28
   16  A    between atoms: C_22  and  N_38
                            x       y       z     vdW  Elec       q    Type
                         _______ _______ _______ _____ _____    ______ ____

>  <TORSDO>
F 16

$$$$
=
 OpenBabel11052409413D

 38 40  0  0  1  0  0  0  0  0999 V2000
  161.7000  208.7200  151.6430 C   0  0  0  0  0  0  0  0  0  0  0  0
  160.9490  206.3260  152.1300 C   0  0  2  0  0  3  0  0  0  0  0  0
  161.4240  207.4600  151.2500 C   0  0  0  0  0  3  0  0  0  0  0  0
  160.6040  208.5830  153.9050 C   0  0  2  0  0  3  0  0  0  0  0  0
  161.6700  206.2980  153.4700 C   0  0  0  0  0  2  0  0  0  0  0  0
  160.9830  207.2150  154.4850 C   0  0  0  0  0  2  0  0  0  0  0  0
  161.7410  209.1720  153.0800 C   0  0  0  0  0  2  0  0  0  0  0  0
  160.5550  209.3200  156.1770 O   0  0  0  0  0  0  0  0  0  0  0  0
  160.1960  209.5310  154.9880 C   0  0  0  0  0  0  0  0  0  0  0  0
  159.4240  210.6970  154.6880 N   0  0  0  0  0  2  0  0  0  0  0  0
  158.9770  211.0430  153.3420 C   0  0  0  0  0  2  0  0  0  0  0  0
  159.6720  212.3050  152.8460 C   0  0  0  0  0  2  0  0  0  0  0  0
  157.8740  213.7180  152.0020 N   0  0  0  0  0  1  0  0  0  0  0  0
  158.8170  213.5380  153.0920 C   0  0  0  0  0  2  0  0  0  0  0  0
  161.1460  204.9990  151.4180 C   0  0  0  0  0  2  0  0  0  0  0  0
  161.0410  205.1850  149.9130 C   0  0  0  0  0  2  0  0  0  0  0  0
  160.6240  203.9400  149.2890 N   0  0  0  0  0  2  0  0  0  0  0  0
  161.6400  203.5780  148.3120 C   0  0  1  0  0  3  0  0  0  0  0  0
  161.1000  202.6680  147.3730 O   0  0  0  0  0  0  0  0  0  0  0  0
  161.8310  204.5490  146.2410 C   0  0  1  0  0  3  0  0  0  0  0  0
  162.0730  204.7470  147.6230 O   0  0  0  0  0  0  0  0  0  0  0  0
  160.8480  202.6610  145.0760 O   0  0  0  0  0  0  0  0  0  0  0  0
  161.2150  203.2260  146.1410 C   0  0  0  0  0  0  0  0  0  0  0  0
  160.8700  205.6110  145.7340 C   0  0  0  0  0  2  0  0  0  0  0  0
  160.7190  206.6090  146.6970 O   0  0  0  0  0  1  0  0  0  0  0  0
  162.1020  209.7140  150.6050 C   0  0  0  0  0  2  0  0  0  0  0  0
  161.9320  209.1400  149.2800 N   0  0  0  0  0  2  0  0  0  0  0  0
  162.1750  210.1700  148.3640 N   0  0  0  0  0  2  0  0  0  0  0  0
  161.9980  211.4180  149.0850 C   0  0  0  0  0  2  0  0  0  0  0  0
  162.6130  212.5070  148.3400 N   0  0  0  0  0  2  0  0  0  0  0  0
  161.6450  213.5110  148.2010 N   0  0  0  0  0  0  0  0  0  0  0  0
  160.7300  213.3750  149.3320 C   0  0  0  0  0  2  0  0  0  0  0  0
  159.7740  214.4120  149.3140 O   0  0  0  0  0  0  0  0  0  0  0  0
  160.8820  213.1980  146.9990 C   0  0  0  0  0  2  0  0  0  0  0  0
  158.9480  214.2750  148.1710 C   0  0  1  0  0  3  0  0  0  0  0  0
  159.7270  214.1790  146.8510 C   0  0  0  0  0  2  0  0  0  0  0  0
  157.8340  213.2350  148.3370 C   0  0  0  0  0  2  0  0  0  0  0  0
  156.5600  213.8560  148.6700 N   0  0  0  0  0  1  0  0  0  0  0  0
  1  7  1  0  0  0  0
  2 15  1  6  0  0  0
  2  5  1  0  0  0  0
  3  1  2  0  0  0  0
  3  2  1  0  0  0  0
  4  6  1  0  0  0  0
  4  9  1  1  0  0  0
  5  6  1  0  0  0  0
  7  4  1  0  0  0  0
  9  8  2  0  0  0  0
 10  9  1  0  0  0  0
 11 10  1  0  0  0  0
 12 14  1  0  0  0  0
 12 11  1  0  0  0  0
 13 14  1  0  0  0  0
 16 15  1  0  0  0  0
 17 16  1  0  0  0  0
 18 17  1  1  0  0  0
 19 18  1  0  0  0  0
 20 24  1  1  0  0  0
 20 21  1  0  0  0  0
 21 18  1  0  0  0  0
 22 23  2  0  0  0  0
 23 20  1  0  0  0  0
 23 19  1  0  0  0  0
 24 25  1  0  0  0  0
 26  1  1  0  0  0  0
 27 26  1  0  0  0  0
 28 29  1  0  0  0  0
 28 27  1  0  0  0  0
 30 29  1  0  0  0  0
 31 30  1  0  0  0  0
 31 32  1  0  0  0  0
 33 32  1  0  0  0  0
 34 31  1  0  0  0  0
 35 37  1  1  0  0  0
 35 33  1  0  0  0  0
 36 34  1  0  0  0  0
 36 35  1  0  0  0  0
 37 38  1  0  0  0  0
M  END
>  <MODEL>
4

>  <REMARK>
 VINA RESULT:      -6.8      1.752      6.819
  Name = 
  16 active torsions:
  status: ('A' for Active; 'I' for Inactive)
    1  A    between atoms: C_1  and  C_8
    2  A    between atoms: C_1  and  C_34
    3  A    between atoms: C_2  and  C_21
    4  A    between atoms: N_3  and  N_4
    5  A    between atoms: N_4  and  C_14
    6  A    between atoms: C_6  and  N_7
    7  A    between atoms: N_7  and  C_34
    8  A    between atoms: N_11  and  C_14
    9  A    between atoms: N_11  and  N_28
   10  A    between atoms: C_12  and  C_25
   11  A    between atoms: C_16  and  C_27
   12  A    between atoms: C_18  and  C_26
   13  A    between atoms: C_19  and  C_20
   14  A    between atoms: C_19  and  C_22
   15  A    between atoms: C_21  and  N_28
   16  A    between atoms: C_22  and  N_38
                            x       y       z     vdW  Elec       q    Type
                         _______ _______ _______ _____ _____    ______ ____

>  <TORSDO>
F 16

$$$$
=
 OpenBabel11052409413D

 38 40  0  0  1  0  0  0  0  0999 V2000
  161.6130  209.3070  152.5300 C   0  0  0  0  0  0  0  0  0  0  0  0
  160.7510  207.3760  153.9650 C   0  0  2  0  0  3  0  0  0  0  0  0
  161.3000  208.0060  152.7060 C   0  0  0  0  0  3  0  0  0  0  0  0
  160.4380  210.1840  154.5760 C   0  0  2  0  0  3  0  0  0  0  0  0
  161.4250  207.9130  155.2190 C   0  0  0  0  0  2  0  0  0  0  0  0
  160.7420  209.1940  155.7060 C   0  0  0  0  0  2  0  0  0  0  0  0
  161.6240  210.3340  153.6330 C   0  0  0  0  0  2  0  0  0  0  0  0
  160.6160  211.9830  156.1390 O   0  0  0  0  0  0  0  0  0  0  0  0
  160.0330  211.5170  155.1240 C   0  0  0  0  0  0  0  0  0  0  0  0
  159.0060  212.2870  154.4920 N   0  0  0  0  0  2  0  0  0  0  0  0
  158.2860  211.8470  153.3020 C   0  0  0  0  0  2  0  0  0  0  0  0
  159.0220  212.2650  152.0350 C   0  0  0  0  0  2  0  0  0  0  0  0
  157.5670  213.3760  150.4260 N   0  0  0  0  0  1  0  0  0  0  0  0
  158.5070  213.5960  151.5110 C   0  0  0  0  0  2  0  0  0  0  0  0
  160.9180  205.8670  153.9050 C   0  0  0  0  0  2  0  0  0  0  0  0
  161.5670  205.4590  152.5930 C   0  0  0  0  0  2  0  0  0  0  0  0
  161.2370  204.0760  152.2880 N   0  0  0  0  0  2  0  0  0  0  0  0
  160.4320  204.0750  151.0760 C   0  0  1  0  0  3  0  0  0  0  0  0
  161.2310  204.4440  149.9690 O   0  0  0  0  0  0  0  0  0  0  0  0
  160.3650  202.3340  149.5820 C   0  0  1  0  0  3  0  0  0  0  0  0
  159.9120  202.7680  150.8530 O   0  0  0  0  0  0  0  0  0  0  0  0
  161.7850  203.4460  147.9590 O   0  0  0  0  0  0  0  0  0  0  0  0
  161.1930  203.4260  149.0710 C   0  0  0  0  0  0  0  0  0  0  0  0
  161.2020  201.0760  149.7410 C   0  0  0  0  0  2  0  0  0  0  0  0
  161.2800  200.4040  148.5210 O   0  0  0  0  0  1  0  0  0  0  0  0
  162.0880  209.7450  151.1860 C   0  0  0  0  0  2  0  0  0  0  0  0
  162.3870  208.5830  150.3650 N   0  0  0  0  0  2  0  0  0  0  0  0
  161.9350  208.8790  149.0730 N   0  0  0  0  0  2  0  0  0  0  0  0
  161.3100  207.6700  148.5650 C   0  0  0  0  0  2  0  0  0  0  0  0
  162.3260  206.7920  148.0020 N   0  0  0  0  0  2  0  0  0  0  0  0
  162.0510  206.6680  146.6320 N   0  0  0  0  0  0  0  0  0  0  0  0
  160.6170  206.4200  146.5110 C   0  0  0  0  0  2  0  0  0  0  0  0
  160.2440  206.3730  145.1510 O   0  0  0  0  0  0  0  0  0  0  0  0
  162.7320  205.4620  146.1740 C   0  0  0  0  0  2  0  0  0  0  0  0
  160.8520  205.2530  144.5310 C   0  0  1  0  0  3  0  0  0  0  0  0
  162.3750  205.1920  144.7190 C   0  0  0  0  0  2  0  0  0  0  0  0
  160.1200  203.9320  144.7900 C   0  0  0  0  0  2  0  0  0  0  0  0
  161.0400  202.8700  145.1700 N   0  0  0  0  0  1  0  0  0  0  0  0
  1  3  2  0  0  0  0
  1  7  1  0  0  0  0
  2 15  1  6  0  0  0
  2  5  1  0  0  0  0
  3  2  1  0  0  0  0
  4  9  1  1  0  0  0
  4  6  1  0  0  0  0
  5  6  1  0  0  0  0
  7  4  1  0  0  0  0
  9  8  2  0  0  0  0
 10  9  1  0  0  0  0
 11 10  1  0  0  0  0
 12 11  1  0  0  0  0
 13 14  1  0  0  0  0
 14 12  1  0  0  0  0
 16 15  1  0  0  0  0
 17 16  1  0  0  0  0
 18 17  1  1  0  0  0
 19 18  1  0  0  0  0
 20 24  1  1  0  0  0
 20 21  1  0  0  0  0
 21 18  1  0  0  0  0
 22 23  2  0  0  0  0
 23 20  1  0  0  0  0
 23 19  1  0  0  0  0
 25 24  1  0  0  0  0
 26  1  1  0  0  0  0
 27 26  1  0  0  0  0
 28 27  1  0  0  0  0
 29 28  1  0  0  0  0
 30 29  1  0  0  0  0
 31 30  1  0  0  0  0
 32 31  1  0  0  0  0
 33 32  1  0  0  0  0
 34 31  1  0  0  0  0
 35 36  1  0  0  0  0
 35 37  1  1  0  0  0
 35 33  1  0  0  0  0
 36 34  1  0  0  0  0
 37 38  1  0  0  0  0
M  END
>  <MODEL>
5

>  <REMARK>
 VINA RESULT:      -6.7      2.772      8.149
  Name = 
  16 active torsions:
  status: ('A' for Active; 'I' for Inactive)
    1  A    between atoms: C_1  and  C_8
    2  A    between atoms: C_1  and  C_34
    3  A    between atoms: C_2  and  C_21
    4  A    between atoms: N_3  and  N_4
    5  A    between atoms: N_4  and  C_14
    6  A    between atoms: C_6  and  N_7
    7  A    between atoms: N_7  and  C_34
    8  A    between atoms: N_11  and  C_14
    9  A    between atoms: N_11  and  N_28
   10  A    between atoms: C_12  and  C_25
   11  A    between atoms: C_16  and  C_27
   12  A    between atoms: C_18  and  C_26
   13  A    between atoms: C_19  and  C_20
   14  A    between atoms: C_19  and  C_22
   15  A    between atoms: C_21  and  N_28
   16  A    between atoms: C_22  and  N_38
                            x       y       z     vdW  Elec       q    Type
                         _______ _______ _______ _____ _____    ______ ____

>  <TORSDO>
F 16

$$$$
=
 OpenBabel11052409413D

 38 40  0  0  1  0  0  0  0  0999 V2000
  161.2130  206.4850  152.7330 C   0  0  0  0  0  0  0  0  0  0  0  0
  161.1030  204.2380  151.5200 C   0  0  2  0  0  3  0  0  0  0  0  0
  161.2150  205.1360  152.7310 C   0  0  0  0  0  3  0  0  0  0  0  0
  161.5930  206.7960  150.2640 C   0  0  2  0  0  3  0  0  0  0  0  0
  160.0790  204.7500  150.5180 C   0  0  0  0  0  2  0  0  0  0  0  0
  160.7050  205.7650  149.5590 C   0  0  0  0  0  2  0  0  0  0  0  0
  160.9260  207.3360  151.5230 C   0  0  0  0  0  2  0  0  0  0  0  0
  161.9720  209.1030  149.7680 O   0  0  0  0  0  0  0  0  0  0  0  0
  161.9540  207.9170  149.3410 C   0  0  0  0  0  0  0  0  0  0  0  0
  162.3090  207.6600  147.9800 N   0  0  0  0  0  2  0  0  0  0  0  0
  162.3400  206.3230  147.3940 C   0  0  0  0  0  2  0  0  0  0  0  0
  161.3320  206.2030  146.2580 C   0  0  0  0  0  2  0  0  0  0  0  0
  163.0560  204.6300  145.5570 N   0  0  0  0  0  1  0  0  0  0  0  0
  161.8850  205.3660  145.1160 C   0  0  0  0  0  2  0  0  0  0  0  0
  160.7330  202.8300  151.9510 C   0  0  0  0  0  2  0  0  0  0  0  0
  161.3120  201.8110  150.9830 C   0  0  0  0  0  2  0  0  0  0  0  0
  160.5920  201.8630  149.7210 N   0  0  0  0  0  2  0  0  0  0  0  0
  161.5670  201.6900  148.6540 C   0  0  1  0  0  3  0  0  0  0  0  0
  161.5880  200.3380  148.2390 O   0  0  0  0  0  0  0  0  0  0  0  0
  161.0310  201.6580  146.4230 C   0  0  1  0  0  3  0  0  0  0  0  0
  161.2040  202.5060  147.5450 O   0  0  0  0  0  0  0  0  0  0  0  0
  161.2400  199.2480  146.2310 O   0  0  0  0  0  0  0  0  0  0  0  0
  161.2830  200.3040  146.9170 C   0  0  0  0  0  0  0  0  0  0  0  0
  159.6040  201.7700  145.9130 C   0  0  0  0  0  2  0  0  0  0  0  0
  159.5770  201.5540  144.5350 O   0  0  0  0  0  1  0  0  0  0  0  0
  161.3950  207.1910  154.0350 C   0  0  0  0  0  2  0  0  0  0  0  0
  160.3020  206.8580  154.9340 N   0  0  0  0  0  2  0  0  0  0  0  0
  160.2210  207.8970  155.8680 N   0  0  0  0  0  2  0  0  0  0  0  0
  161.3660  208.7600  155.6300 C   0  0  0  0  0  2  0  0  0  0  0  0
  160.9420  210.1520  155.6450 N   0  0  0  0  0  2  0  0  0  0  0  0
  159.9520  210.2920  154.6600 N   0  0  0  0  0  0  0  0  0  0  0  0
  160.6250  210.7500  153.4480 C   0  0  0  0  0  2  0  0  0  0  0  0
  159.7060  210.8290  152.3800 O   0  0  0  0  0  0  0  0  0  0  0  0
  159.0770  211.3750  155.0950 C   0  0  0  0  0  2  0  0  0  0  0  0
  158.7460  211.8340  152.6540 C   0  0  1  0  0  3  0  0  0  0  0  0
  158.0480  211.6700  154.0130 C   0  0  0  0  0  2  0  0  0  0  0  0
  159.2370  213.2550  152.3520 C   0  0  0  0  0  2  0  0  0  0  0  0
  159.7770  213.3640  151.0050 N   0  0  0  0  0  1  0  0  0  0  0  0
  1 26  1  0  0  0  0
  2 15  1  1  0  0  0
  2  3  1  0  0  0  0
  3  1  2  0  0  0  0
  4  9  1  6  0  0  0
  4  7  1  0  0  0  0
  5  2  1  0  0  0  0
  6  4  1  0  0  0  0
  6  5  1  0  0  0  0
  7  1  1  0  0  0  0
  9  8  2  0  0  0  0
 10  9  1  0  0  0  0
 11 10  1  0  0  0  0
 12 11  1  0  0  0  0
 14 13  1  0  0  0  0
 14 12  1  0  0  0  0
 16 15  1  0  0  0  0
 17 16  1  0  0  0  0
 18 17  1  1  0  0  0
 19 18  1  0  0  0  0
 20 24  1  1  0  0  0
 20 23  1  0  0  0  0
 20 21  1  0  0  0  0
 21 18  1  0  0  0  0
 22 23  2  0  0  0  0
 23 19  1  0  0  0  0
 25 24  1  0  0  0  0
 26 27  1  0  0  0  0
 27 28  1  0  0  0  0
 29 30  1  0  0  0  0
 29 28  1  0  0  0  0
 31 34  1  0  0  0  0
 31 30  1  0  0  0  0
 32 31  1  0  0  0  0
 33 35  1  0  0  0  0
 33 32  1  0  0  0  0
 35 37  1  1  0  0  0
 35 36  1  0  0  0  0
 36 34  1  0  0  0  0
 38 37  1  0  0  0  0
M  END
>  <MODEL>
6

>  <REMARK>
 VINA RESULT:      -6.4      2.655      7.250
  Name = 
  16 active torsions:
  status: ('A' for Active; 'I' for Inactive)
    1  A    between atoms: C_1  and  C_8
    2  A    between atoms: C_1  and  C_34
    3  A    between atoms: C_2  and  C_21
    4  A    between atoms: N_3  and  N_4
    5  A    between atoms: N_4  and  C_14
    6  A    between atoms: C_6  and  N_7
    7  A    between atoms: N_7  and  C_34
    8  A    between atoms: N_11  and  C_14
    9  A    between atoms: N_11  and  N_28
   10  A    between atoms: C_12  and  C_25
   11  A    between atoms: C_16  and  C_27
   12  A    between atoms: C_18  and  C_26
   13  A    between atoms: C_19  and  C_20
   14  A    between atoms: C_19  and  C_22
   15  A    between atoms: C_21  and  N_28
   16  A    between atoms: C_22  and  N_38
                            x       y       z     vdW  Elec       q    Type
                         _______ _______ _______ _____ _____    ______ ____

>  <TORSDO>
F 16

$$$$
=
 OpenBabel11052409413D

 38 40  0  0  1  0  0  0  0  0999 V2000
  160.9360  207.0200  153.5890 C   0  0  0  0  0  0  0  0  0  0  0  0
  161.1240  208.4590  151.4850 C   0  0  2  0  0  3  0  0  0  0  0  0
  160.8290  208.2000  152.9450 C   0  0  0  0  0  3  0  0  0  0  0  0
  161.1130  205.5680  151.5400 C   0  0  2  0  0  3  0  0  0  0  0  0
  162.3750  207.7300  151.0140 C   0  0  0  0  0  2  0  0  0  0  0  0
  162.0470  206.3020  150.5720 C   0  0  0  0  0  2  0  0  0  0  0  0
  161.5390  205.7760  152.9880 C   0  0  0  0  0  2  0  0  0  0  0  0
  161.0440  203.2580  152.1500 O   0  0  0  0  0  0  0  0  0  0  0  0
  161.0460  204.1080  151.2190 C   0  0  0  0  0  0  0  0  0  0  0  0
  160.9540  203.6590  149.8650 N   0  0  0  0  0  2  0  0  0  0  0  0
  160.9270  204.5610  148.7170 C   0  0  0  0  0  2  0  0  0  0  0  0
  161.6840  203.9630  147.5380 C   0  0  0  0  0  2  0  0  0  0  0  0
  161.6460  206.1720  146.5100 N   0  0  0  0  0  1  0  0  0  0  0  0
  162.4850  205.0240  146.8020 C   0  0  0  0  0  2  0  0  0  0  0  0
  161.2830  209.9490  151.2440 C   0  0  0  0  0  2  0  0  0  0  0  0
  162.4550  210.2130  150.3130 C   0  0  0  0  0  2  0  0  0  0  0  0
  161.9660  210.5300  148.9810 N   0  0  0  0  0  2  0  0  0  0  0  0
  162.1180  211.9650  148.7890 C   0  0  1  0  0  3  0  0  0  0  0  0
  162.9540  212.2140  147.6760 O   0  0  0  0  0  0  0  0  0  0  0  0
  160.8950  213.1940  147.2860 C   0  0  1  0  0  3  0  0  0  0  0  0
  160.8420  212.5490  148.5460 O   0  0  0  0  0  0  0  0  0  0  0  0
  162.7110  213.3620  145.6840 O   0  0  0  0  0  0  0  0  0  0  0  0
  162.2470  212.9490  146.7810 C   0  0  0  0  0  0  0  0  0  0  0  0
  159.8690  212.5740  146.3510 C   0  0  0  0  0  2  0  0  0  0  0  0
  159.2240  213.5770  145.6280 O   0  0  0  0  0  1  0  0  0  0  0  0
  160.5390  206.9580  155.0260 C   0  0  0  0  0  2  0  0  0  0  0  0
  161.1920  208.0260  155.7650 N   0  0  0  0  0  2  0  0  0  0  0  0
  160.2960  208.4310  156.7610 N   0  0  0  0  0  2  0  0  0  0  0  0
  160.0640  209.8500  156.5590 C   0  0  0  0  0  2  0  0  0  0  0  0
  161.2620  210.4690  156.0100 N   0  0  0  0  0  2  0  0  0  0  0  0
  160.8660  211.6740  155.4090 N   0  0  0  0  0  0  0  0  0  0  0  0
  160.1380  212.4320  156.4240 C   0  0  0  0  0  2  0  0  0  0  0  0
  159.7820  213.7020  155.9220 O   0  0  0  0  0  0  0  0  0  0  0  0
  159.9060  211.3280  154.3670 C   0  0  0  0  0  2  0  0  0  0  0  0
  158.8560  213.5490  154.8610 C   0  0  1  0  0  3  0  0  0  0  0  0
  159.3350  212.5990  153.7530 C   0  0  0  0  0  2  0  0  0  0  0  0
  157.4150  213.3170  155.3280 C   0  0  0  0  0  2  0  0  0  0  0  0
  156.4700  213.3960  154.2230 N   0  0  0  0  0  1  0  0  0  0  0  0
  1 26  1  0  0  0  0
  2 15  1  1  0  0  0
  2  3  1  0  0  0  0
  3  1  2  0  0  0  0
  4  9  1  6  0  0  0
  4  7  1  0  0  0  0
  5  2  1  0  0  0  0
  6  5  1  0  0  0  0
  6  4  1  0  0  0  0
  7  1  1  0  0  0  0
  9  8  2  0  0  0  0
 10  9  1  0  0  0  0
 11 10  1  0  0  0  0
 12 11  1  0  0  0  0
 13 14  1  0  0  0  0
 14 12  1  0  0  0  0
 16 15  1  0  0  0  0
 17 16  1  0  0  0  0
 18 17  1  6  0  0  0
 19 18  1  0  0  0  0
 20 24  1  6  0  0  0
 20 21  1  0  0  0  0
 21 18  1  0  0  0  0
 22 23  2  0  0  0  0
 23 20  1  0  0  0  0
 23 19  1  0  0  0  0
 25 24  1  0  0  0  0
 26 27  1  0  0  0  0
 27 28  1  0  0  0  0
 29 28  1  0  0  0  0
 30 29  1  0  0  0  0
 31 30  1  0  0  0  0
 31 32  1  0  0  0  0
 33 32  1  0  0  0  0
 34 31  1  0  0  0  0
 35 37  1  1  0  0  0
 35 33  1  0  0  0  0
 36 34  1  0  0  0  0
 36 35  1  0  0  0  0
 38 37  1  0  0  0  0
M  END
>  <MODEL>
7

>  <REMARK>
 VINA RESULT:      -6.3      2.301      5.959
  Name = 
  16 active torsions:
  status: ('A' for Active; 'I' for Inactive)
    1  A    between atoms: C_1  and  C_8
    2  A    between atoms: C_1  and  C_34
    3  A    between atoms: C_2  and  C_21
    4  A    between atoms: N_3  and  N_4
    5  A    between atoms: N_4  and  C_14
    6  A    between atoms: C_6  and  N_7
    7  A    between atoms: N_7  and  C_34
    8  A    between atoms: N_11  and  C_14
    9  A    between atoms: N_11  and  N_28
   10  A    between atoms: C_12  and  C_25
   11  A    between atoms: C_16  and  C_27
   12  A    between atoms: C_18  and  C_26
   13  A    between atoms: C_19  and  C_20
   14  A    between atoms: C_19  and  C_22
   15  A    between atoms: C_21  and  N_28
   16  A    between atoms: C_22  and  N_38
                            x       y       z     vdW  Elec       q    Type
                         _______ _______ _______ _____ _____    ______ ____

>  <TORSDO>
F 16

$$$$
=
 OpenBabel11052409413D

 38 40  0  0  1  0  0  0  0  0999 V2000
  161.3960  206.9290  152.6950 C   0  0  0  0  0  0  0  0  0  0  0  0
  160.7310  209.2790  153.4450 C   0  0  2  0  0  3  0  0  0  0  0  0
  160.7990  207.7740  153.5600 C   0  0  0  0  0  3  0  0  0  0  0  0
  161.6710  208.5690  150.8040 C   0  0  2  0  0  3  0  0  0  0  0  0
  162.0460  209.8800  152.9690 C   0  0  0  0  0  2  0  0  0  0  0  0
  162.1280  209.8860  151.4410 C   0  0  0  0  0  2  0  0  0  0  0  0
  162.2550  207.3660  151.5350 C   0  0  0  0  0  2  0  0  0  0  0  0
  162.1770  207.4100  148.7770 O   0  0  0  0  0  0  0  0  0  0  0  0
  162.0260  208.5220  149.3520 C   0  0  0  0  0  0  0  0  0  0  0  0
  162.1710  209.7250  148.5930 N   0  0  0  0  0  2  0  0  0  0  0  0
  161.9960  211.0590  149.1590 C   0  0  0  0  0  2  0  0  0  0  0  0
  161.5660  212.0530  148.0860 C   0  0  0  0  0  2  0  0  0  0  0  0
  162.3700  213.8690  146.6730 N   0  0  0  0  0  1  0  0  0  0  0  0
  162.5870  213.1680  147.9260 C   0  0  0  0  0  2  0  0  0  0  0  0
  160.3510  209.8850  154.7850 C   0  0  0  0  0  2  0  0  0  0  0  0
  160.6800  211.3690  154.8070 C   0  0  0  0  0  2  0  0  0  0  0  0
  159.7340  212.0730  155.6560 N   0  0  0  0  0  2  0  0  0  0  0  0
  159.3440  213.2910  154.9620 C   0  0  1  0  0  3  0  0  0  0  0  0
  159.3130  213.0590  153.5670 O   0  0  0  0  0  0  0  0  0  0  0  0
  157.2080  213.7330  154.2500 C   0  0  1  0  0  3  0  0  0  0  0  0
  158.0450  213.6860  155.3920 O   0  0  0  0  0  0  0  0  0  0  0  0
  157.6980  213.2410  151.9240 O   0  0  0  0  0  0  0  0  0  0  0  0
  158.0570  213.3260  153.1290 C   0  0  0  0  0  0  0  0  0  0  0  0
  156.0600  212.7510  154.4180 C   0  0  0  0  0  2  0  0  0  0  0  0
  156.5640  211.4620  154.5880 O   0  0  0  0  0  1  0  0  0  0  0  0
  161.3010  205.4630  152.9560 C   0  0  0  0  0  2  0  0  0  0  0  0
  161.9600  204.7270  151.8900 N   0  0  0  0  0  2  0  0  0  0  0  0
  161.0480  203.7630  151.4460 N   0  0  0  0  0  2  0  0  0  0  0  0
  160.8340  204.0130  150.0310 C   0  0  0  0  0  2  0  0  0  0  0  0
  160.4970  202.7680  149.3580 N   0  0  0  0  0  2  0  0  0  0  0  0
  161.2470  202.7230  148.1730 N   0  0  0  0  0  0  0  0  0  0  0  0
  161.5250  204.1060  147.7970 C   0  0  0  0  0  2  0  0  0  0  0  0
  162.3570  204.1440  146.6580 O   0  0  0  0  0  0  0  0  0  0  0  0
  160.3750  202.1690  147.1440 C   0  0  0  0  0  2  0  0  0  0  0  0
  161.6630  203.6060  145.5460 C   0  0  1  0  0  3  0  0  0  0  0  0
  161.0830  202.2060  145.7960 C   0  0  0  0  0  2  0  0  0  0  0  0
  160.6960  204.5940  144.8860 C   0  0  0  0  0  2  0  0  0  0  0  0
  161.3940  205.5510  144.0410 N   0  0  0  0  0  1  0  0  0  0  0  0
  1 26  1  0  0  0  0
  1  3  2  0  0  0  0
  2  3  1  0  0  0  0
  2 15  1  1  0  0  0
  4  9  1  6  0  0  0
  4  6  1  0  0  0  0
  4  7  1  0  0  0  0
  5  2  1  0  0  0  0
  6  5  1  0  0  0  0
  7  1  1  0  0  0  0
  8  9  2  0  0  0  0
 10 11  1  0  0  0  0
 10  9  1  0  0  0  0
 12 11  1  0  0  0  0
 13 14  1  0  0  0  0
 14 12  1  0  0  0  0
 15 16  1  0  0  0  0
 16 17  1  0  0  0  0
 18 21  1  0  0  0  0
 18 17  1  1  0  0  0
 19 18  1  0  0  0  0
 20 24  1  1  0  0  0
 20 21  1  0  0  0  0
 22 23  2  0  0  0  0
 23 19  1  0  0  0  0
 23 20  1  0  0  0  0
 24 25  1  0  0  0  0
 27 26  1  0  0  0  0
 28 27  1  0  0  0  0
 29 28  1  0  0  0  0
 30 29  1  0  0  0  0
 31 30  1  0  0  0  0
 32 31  1  0  0  0  0
 33 32  1  0  0  0  0
 34 31  1  0  0  0  0
 35 37  1  1  0  0  0
 35 36  1  0  0  0  0
 35 33  1  0  0  0  0
 36 34  1  0  0  0  0
 38 37  1  0  0  0  0
M  END
>  <MODEL>
8

>  <REMARK>
 VINA RESULT:      -6.3      2.384      6.866
  Name = 
  16 active torsions:
  status: ('A' for Active; 'I' for Inactive)
    1  A    between atoms: C_1  and  C_8
    2  A    between atoms: C_1  and  C_34
    3  A    between atoms: C_2  and  C_21
    4  A    between atoms: N_3  and  N_4
    5  A    between atoms: N_4  and  C_14
    6  A    between atoms: C_6  and  N_7
    7  A    between atoms: N_7  and  C_34
    8  A    between atoms: N_11  and  C_14
    9  A    between atoms: N_11  and  N_28
   10  A    between atoms: C_12  and  C_25
   11  A    between atoms: C_16  and  C_27
   12  A    between atoms: C_18  and  C_26
   13  A    between atoms: C_19  and  C_20
   14  A    between atoms: C_19  and  C_22
   15  A    between atoms: C_21  and  N_28
   16  A    between atoms: C_22  and  N_38
                            x       y       z     vdW  Elec       q    Type
                         _______ _______ _______ _____ _____    ______ ____

>  <TORSDO>
F 16

$$$$
=
 OpenBabel11052409413D

 38 40  0  0  1  0  0  0  0  0999 V2000
  161.8610  206.7290  151.8640 C   0  0  0  0  0  0  0  0  0  0  0  0
  160.8860  208.6580  153.2290 C   0  0  2  0  0  3  0  0  0  0  0  0
  161.2060  207.2090  152.9420 C   0  0  0  0  0  3  0  0  0  0  0  0
  161.7130  208.8150  150.4620 C   0  0  2  0  0  3  0  0  0  0  0  0
  162.0440  209.5820  152.8800 C   0  0  0  0  0  2  0  0  0  0  0  0
  162.0000  209.9880  151.4050 C   0  0  0  0  0  2  0  0  0  0  0  0
  162.5400  207.5900  150.8300 C   0  0  0  0  0  2  0  0  0  0  0  0
  162.3310  210.3680  148.7550 O   0  0  0  0  0  0  0  0  0  0  0  0
  161.9520  209.1990  149.0360 C   0  0  0  0  0  0  0  0  0  0  0  0
  161.7830  208.2470  147.9820 N   0  0  0  0  0  2  0  0  0  0  0  0
  161.3690  206.8650  148.2040 C   0  0  0  0  0  2  0  0  0  0  0  0
  160.8240  206.2480  146.9220 C   0  0  0  0  0  2  0  0  0  0  0  0
  161.4030  205.3170  144.7450 N   0  0  0  0  0  1  0  0  0  0  0  0
  161.9490  205.8320  145.9880 C   0  0  0  0  0  2  0  0  0  0  0  0
  160.5230  208.8290  154.6930 C   0  0  0  0  0  2  0  0  0  0  0  0
  161.0530  210.1530  155.2190 C   0  0  0  0  0  2  0  0  0  0  0  0
  160.0190  210.8320  155.9820 N   0  0  0  0  0  2  0  0  0  0  0  0
  159.8680  212.1670  155.4220 C   0  0  1  0  0  3  0  0  0  0  0  0
  159.9580  212.1090  154.0120 O   0  0  0  0  0  0  0  0  0  0  0  0
  157.8970  212.9900  154.5840 C   0  0  1  0  0  3  0  0  0  0  0  0
  158.5930  212.6900  155.7810 O   0  0  0  0  0  0  0  0  0  0  0  0
  158.5670  212.7130  152.2680 O   0  0  0  0  0  0  0  0  0  0  0  0
  158.8020  212.6030  153.5010 C   0  0  0  0  0  0  0  0  0  0  0  0
  156.6200  212.1690  154.5150 C   0  0  0  0  0  2  0  0  0  0  0  0
  156.1130  211.9780  155.8010 O   0  0  0  0  0  1  0  0  0  0  0  0
  162.0250  205.2520  151.7360 C   0  0  0  0  0  2  0  0  0  0  0  0
  160.7210  204.6130  151.6770 N   0  0  0  0  0  2  0  0  0  0  0  0
  160.8110  203.4480  152.4470 N   0  0  0  0  0  2  0  0  0  0  0  0
  161.4960  202.4610  151.6300 C   0  0  0  0  0  2  0  0  0  0  0  0
  160.5880  201.9520  150.6120 N   0  0  0  0  0  2  0  0  0  0  0  0
  161.3140  201.8720  149.4150 N   0  0  0  0  0  0  0  0  0  0  0  0
  160.8370  202.9560  148.5590 C   0  0  0  0  0  2  0  0  0  0  0  0
  161.5860  202.9990  147.3640 O   0  0  0  0  0  0  0  0  0  0  0  0
  160.9280  200.6220  148.7710 C   0  0  0  0  0  2  0  0  0  0  0  0
  161.3470  201.8220  146.6120 C   0  0  1  0  0  3  0  0  0  0  0  0
  161.5830  200.5250  147.4000 C   0  0  0  0  0  2  0  0  0  0  0  0
  160.0420  201.8570  145.8100 C   0  0  0  0  0  2  0  0  0  0  0  0
  159.9820  200.7830  144.8290 N   0  0  0  0  0  1  0  0  0  0  0  0
  1  3  2  0  0  0  0
  2 15  1  1  0  0  0
  3  2  1  0  0  0  0
  4  9  1  6  0  0  0
  4  7  1  0  0  0  0
  4  6  1  0  0  0  0
  5  2  1  0  0  0  0
  6  5  1  0  0  0  0
  7  1  1  0  0  0  0
  8  9  2  0  0  0  0
 10 11  1  0  0  0  0
 10  9  1  0  0  0  0
 12 11  1  0  0  0  0
 13 14  1  0  0  0  0
 14 12  1  0  0  0  0
 15 16  1  0  0  0  0
 16 17  1  0  0  0  0
 18 21  1  0  0  0  0
 18 17  1  1  0  0  0
 19 18  1  0  0  0  0
 20 24  1  6  0  0  0
 20 21  1  0  0  0  0
 22 23  2  0  0  0  0
 23 19  1  0  0  0  0
 23 20  1  0  0  0  0
 24 25  1  0  0  0  0
 26  1  1  0  0  0  0
 27 26  1  0  0  0  0
 27 28  1  0  0  0  0
 29 28  1  0  0  0  0
 30 29  1  0  0  0  0
 31 30  1  0  0  0  0
 32 31  1  0  0  0  0
 33 32  1  0  0  0  0
 34 31  1  0  0  0  0
 35 37  1  1  0  0  0
 35 33  1  0  0  0  0
 35 36  1  0  0  0  0
 36 34  1  0  0  0  0
 38 37  1  0  0  0  0
M  END
>  <MODEL>
9

>  <REMARK>
 VINA RESULT:      -6.1      2.950      7.028
  Name = 
  16 active torsions:
  status: ('A' for Active; 'I' for Inactive)
    1  A    between atoms: C_1  and  C_8
    2  A    between atoms: C_1  and  C_34
    3  A    between atoms: C_2  and  C_21
    4  A    between atoms: N_3  and  N_4
    5  A    between atoms: N_4  and  C_14
    6  A    between atoms: C_6  and  N_7
    7  A    between atoms: N_7  and  C_34
    8  A    between atoms: N_11  and  C_14
    9  A    between atoms: N_11  and  N_28
   10  A    between atoms: C_12  and  C_25
   11  A    between atoms: C_16  and  C_27
   12  A    between atoms: C_18  and  C_26
   13  A    between atoms: C_19  and  C_20
   14  A    between atoms: C_19  and  C_22
   15  A    between atoms: C_21  and  N_28
   16  A    between atoms: C_22  and  N_38
                            x       y       z     vdW  Elec       q    Type
                         _______ _______ _______ _____ _____    ______ ____

>  <TORSDO>
F 16

$$$$
