=
 OpenBabel11042421343D

 45 51  0  0  1  0  0  0  0  0999 V2000
  161.8500  210.6030  150.1440 N   0  0  0  0  0  0  0  0  0  0  0  0
  159.8300  213.6160  150.1770 C   0  0  0  0  0  3  0  0  0  0  0  0
  162.1360  211.0340  148.8380 N   0  0  0  0  0  0  0  0  0  0  0  0
  159.3170  213.6520  151.4850 C   0  0  0  0  0  3  0  0  0  0  0  0
  160.6990  214.4520  145.7380 C   0  0  0  0  0  2  0  0  0  0  0  0
  161.3960  212.9040  147.4520 C   0  0  1  0  0  3  0  0  0  0  0  0
  159.6470  212.6470  152.4260 C   0  0  0  0  0  0  0  0  0  0  0  0
  160.6600  212.5500  149.8360 C   0  0  0  0  0  0  0  0  0  0  0  0
  160.5550  214.1070  147.2090 C   0  0  0  0  0  2  0  0  0  0  0  0
  161.3850  212.2290  148.6050 C   0  0  0  0  0  0  0  0  0  0  0  0
  161.0760  213.1790  144.9990 C   0  0  2  0  0  3  0  0  0  0  0  0
  160.4880  211.5860  152.0430 C   0  0  0  0  0  3  0  0  0  0  0  0
  160.9770  211.5620  150.7380 C   0  0  0  0  0  0  0  0  0  0  0  0
  162.2940  212.3110  146.0280 S   0  0  0  0  0  0  0  0  0  0  0  0
  161.6580  213.5170  143.7100 N   0  0  0  0  0  2  0  0  0  0  0  0
  161.4470  212.7260  142.5380 C   0  0  0  0  0  0  0  0  0  0  0  0
  160.7070  211.7070  142.5850 O   0  0  0  0  0  0  0  0  0  0  0  0
  160.9650  211.5280  139.4890 C   0  0  0  0  0  2  0  0  0  0  0  0
  162.0940  213.0960  141.2730 C   0  0  0  0  0  0  0  0  0  0  0  0
  162.6380  213.1270  139.1550 N   0  0  0  0  0  0  0  0  0  0  0  0
  163.2120  213.8630  141.1850 N   0  0  0  0  0  0  0  0  0  0  0  0
  161.7650  212.6530  140.0090 C   0  0  0  0  0  0  0  0  0  0  0  0
  161.5070  211.4050  138.0430 C   0  0  1  0  0  3  0  0  0  0  0  0
  162.6690  212.4180  137.9010 C   0  0  0  0  0  2  0  0  0  0  0  0
  164.7740  214.4240  139.3040 C   0  0  0  0  0  1  0  0  0  0  0  0
  163.5240  213.8410  139.8660 C   0  0  0  0  0  0  0  0  0  0  0  0
  162.0040  209.9910  137.8050 C   0  0  0  0  0  2  0  0  0  0  0  0
  161.4970  209.1060  138.8400 N   0  0  0  0  0  1  0  0  0  0  0  0
  162.3270  209.5920  152.3540 C   0  0  0  0  0  1  0  0  0  0  0  0
  162.6530  209.6080  150.8640 C   0  0  1  0  0  3  0  0  0  0  0  0
  162.5250  208.2720  150.2720 N   0  0  0  0  0  2  0  0  0  0  0  0
  161.4200  206.2000  150.8770 C   0  0  0  0  0  2  0  0  0  0  0  0
  160.8670  206.6580  149.5470 C   0  0  0  0  0  2  0  0  0  0  0  0
  161.2330  207.6790  150.6060 C   0  0  0  0  0  3  0  0  0  0  0  0
  159.1210  212.6550  153.7610 N   0  0  0  0  0  2  0  0  0  0  0  0
  160.0500  209.7490  156.1150 C   0  0  1  0  0  3  0  0  0  0  0  0
  160.0410  212.6000  155.9990 C   0  0  0  0  0  3  0  0  0  0  0  0
  160.5520  211.9030  157.2290 C   0  0  0  0  0  2  0  0  0  0  0  0
  161.1040  210.5210  156.9010 C   0  0  0  0  0  2  0  0  0  0  0  0
  159.7870  210.4530  154.7780 C   0  0  0  0  0  2  0  0  0  0  0  0
  159.6070  211.9450  154.9110 C   0  0  0  0  0  0  0  0  0  0  0  0
  161.7710  208.1000  156.3350 F   0  0  0  0  0  0  0  0  0  0  0  0
  160.4720  208.2970  155.8980 C   0  0  0  0  0  0  0  0  0  0  0  0
  160.3950  207.9850  154.5520 F   0  0  0  0  0  0  0  0  0  0  0  0
  159.6270  207.4550  156.5960 F   0  0  0  0  0  0  0  0  0  0  0  0
  1 13  1  0  0  0  0
  1 30  1  0  0  0  0
  2  4  1  0  0  0  0
  3  1  1  0  0  0  0
  4  7  2  0  0  0  0
  5  9  1  0  0  0  0
  6 10  1  6  0  0  0
  7 35  1  0  0  0  0
  8  2  2  0  0  0  0
  8 13  1  0  0  0  0
  9  6  1  0  0  0  0
 10  3  2  0  0  0  0
 10  8  1  0  0  0  0
 11 15  1  6  0  0  0
 11  5  1  0  0  0  0
 11 14  1  0  0  0  0
 12  7  1  0  0  0  0
 13 12  2  0  0  0  0
 14  6  1  0  0  0  0
 16 17  2  0  0  0  0
 16 15  1  0  0  0  0
 18 22  1  0  0  0  0
 19 16  1  0  0  0  0
 20 26  1  0  0  0  0
 20 22  1  0  0  0  0
 21 19  1  0  0  0  0
 22 19  2  0  0  0  0
 23 27  1  1  0  0  0
 23 18  1  0  0  0  0
 24 23  1  0  0  0  0
 24 20  1  0  0  0  0
 25 26  1  0  0  0  0
 26 21  2  0  0  0  0
 27 28  1  0  0  0  0
 30 29  1  1  0  0  0
 31 34  1  0  0  0  0
 31 30  1  0  0  0  0
 33 34  1  0  0  0  0
 33 32  1  0  0  0  0
 34 32  1  0  0  0  0
 35 41  1  0  0  0  0
 36 43  1  6  0  0  0
 36 39  1  0  0  0  0
 37 38  1  0  0  0  0
 39 38  1  0  0  0  0
 40 41  1  0  0  0  0
 40 36  1  0  0  0  0
 41 37  2  0  0  0  0
 43 42  1  0  0  0  0
 43 45  1  0  0  0  0
 44 43  1  0  0  0  0
M  END
>  <MODEL>
1

>  <REMARK>
 VINA RESULT:      -5.7      0.000      0.000
  Name = 
  9 active torsions:
  status: ('A' for Active; 'I' for Inactive)
    1  A    between atoms: C_1  and  C_25
    2  A    between atoms: N_2  and  C_29
    3  A    between atoms: N_2  and  C_43
    4  A    between atoms: N_3  and  C_37
    5  A    between atoms: N_6  and  C_38
    6  A    between atoms: C_12  and  C_28
    7  A    between atoms: N_17  and  C_37
    8  A    between atoms: N_17  and  C_39
    9  A    between atoms: C_20  and  C_23
                            x       y       z     vdW  Elec       q    Type
                         _______ _______ _______ _____ _____    ______ ____

>  <TORSDO>
F 9

$$$$
=
 OpenBabel11042421343D

 45 51  0  0  1  0  0  0  0  0999 V2000
  159.4260  213.7950  149.8100 N   0  0  0  0  0  0  0  0  0  0  0  0
  162.0170  211.2870  149.4140 C   0  0  0  0  0  3  0  0  0  0  0  0
  159.7260  214.0480  148.4620 N   0  0  0  0  0  0  0  0  0  0  0  0
  162.0420  210.6420  150.6620 C   0  0  0  0  0  3  0  0  0  0  0  0
  162.9660  212.6990  145.1400 C   0  0  0  0  0  2  0  0  0  0  0  0
  161.3510  213.1540  146.8720 C   0  0  1  0  0  3  0  0  0  0  0  0
  161.1630  211.0290  151.7010 C   0  0  0  0  0  0  0  0  0  0  0  0
  161.1080  212.3300  149.2420 C   0  0  0  0  0  0  0  0  0  0  0  0
  162.5050  212.2820  146.5240 C   0  0  0  0  0  2  0  0  0  0  0  0
  160.7920  213.1710  148.0860 C   0  0  0  0  0  0  0  0  0  0  0  0
  162.5500  214.1450  144.9300 C   0  0  2  0  0  3  0  0  0  0  0  0
  160.2600  212.0880  151.4900 C   0  0  0  0  0  3  0  0  0  0  0  0
  160.2590  212.7230  150.2480 C   0  0  0  0  0  0  0  0  0  0  0  0
  160.8730  214.3170  145.6050 S   0  0  0  0  0  0  0  0  0  0  0  0
  162.5530  214.4530  143.5090 N   0  0  0  0  0  2  0  0  0  0  0  0
  162.4460  213.4450  142.5010 C   0  0  0  0  0  0  0  0  0  0  0  0
  162.3120  212.2350  142.8260 O   0  0  0  0  0  0  0  0  0  0  0  0
  159.9750  213.8220  140.3300 C   0  0  0  0  0  2  0  0  0  0  0  0
  162.4950  213.8150  141.0800 C   0  0  0  0  0  0  0  0  0  0  0  0
  161.8700  214.2690  139.0360 N   0  0  0  0  0  0  0  0  0  0  0  0
  163.6330  213.8360  140.3380 N   0  0  0  0  0  0  0  0  0  0  0  0
  161.4250  214.0820  140.2530 C   0  0  0  0  0  0  0  0  0  0  0  0
  159.5620  213.9300  138.8410 C   0  0  1  0  0  3  0  0  0  0  0  0
  160.8580  214.1350  138.0190 C   0  0  0  0  0  2  0  0  0  0  0  0
  164.0820  214.0710  137.8820 C   0  0  0  0  0  1  0  0  0  0  0  0
  163.2000  214.1010  139.0810 C   0  0  0  0  0  0  0  0  0  0  0  0
  158.8600  212.6530  138.4140 C   0  0  0  0  0  2  0  0  0  0  0  0
  159.1300  211.5940  139.3720 N   0  0  0  0  0  1  0  0  0  0  0  0
  156.9550  213.8850  149.6650 C   0  0  0  0  0  1  0  0  0  0  0  0
  158.1980  214.2530  150.4690 C   0  0  1  0  0  3  0  0  0  0  0  0
  158.1060  213.7700  151.8510 N   0  0  0  0  0  2  0  0  0  0  0  0
  157.1630  214.2210  154.0380 C   0  0  0  0  0  2  0  0  0  0  0  0
  156.2060  213.3220  153.2890 C   0  0  0  0  0  2  0  0  0  0  0  0
  156.9810  214.3900  152.5430 C   0  0  0  0  0  3  0  0  0  0  0  0
  161.1830  210.3950  152.9890 N   0  0  0  0  0  2  0  0  0  0  0  0
  160.9000  206.5790  152.5390 C   0  0  1  0  0  3  0  0  0  0  0  0
  160.6840  208.6040  154.5370 C   0  0  0  0  0  3  0  0  0  0  0  0
  160.4780  207.1620  154.9090 C   0  0  0  0  0  2  0  0  0  0  0  0
  161.2480  206.2300  153.9820 C   0  0  0  0  0  2  0  0  0  0  0  0
  161.3690  208.0050  152.2270 C   0  0  0  0  0  2  0  0  0  0  0  0
  161.0020  209.0040  153.2970 C   0  0  0  0  0  0  0  0  0  0  0  0
  162.8730  205.4620  151.7710 F   0  0  0  0  0  0  0  0  0  0  0  0
  161.5090  205.5750  151.5630 C   0  0  0  0  0  0  0  0  0  0  0  0
  161.2820  205.9910  150.2630 F   0  0  0  0  0  0  0  0  0  0  0  0
  160.9190  204.3360  151.7390 F   0  0  0  0  0  0  0  0  0  0  0  0
  1 13  1  0  0  0  0
  1 30  1  0  0  0  0
  2  4  1  0  0  0  0
  3  1  1  0  0  0  0
  4  7  2  0  0  0  0
  5  9  1  0  0  0  0
  6 10  1  1  0  0  0
  7 35  1  0  0  0  0
  8  2  2  0  0  0  0
  8 13  1  0  0  0  0
  9  6  1  0  0  0  0
 10  3  2  0  0  0  0
 10  8  1  0  0  0  0
 11 15  1  6  0  0  0
 11  5  1  0  0  0  0
 11 14  1  0  0  0  0
 12  7  1  0  0  0  0
 13 12  2  0  0  0  0
 14  6  1  0  0  0  0
 16 17  2  0  0  0  0
 16 15  1  0  0  0  0
 19 16  1  0  0  0  0
 20 26  1  0  0  0  0
 20 22  1  0  0  0  0
 21 19  1  0  0  0  0
 22 18  1  0  0  0  0
 22 19  2  0  0  0  0
 23 27  1  6  0  0  0
 23 18  1  0  0  0  0
 24 23  1  0  0  0  0
 24 20  1  0  0  0  0
 25 26  1  0  0  0  0
 26 21  2  0  0  0  0
 27 28  1  0  0  0  0
 30 29  1  6  0  0  0
 30 31  1  0  0  0  0
 31 34  1  0  0  0  0
 33 32  1  0  0  0  0
 34 33  1  0  0  0  0
 34 32  1  0  0  0  0
 35 41  1  0  0  0  0
 36 43  1  6  0  0  0
 36 39  1  0  0  0  0
 37 38  1  0  0  0  0
 39 38  1  0  0  0  0
 40 36  1  0  0  0  0
 40 41  1  0  0  0  0
 41 37  2  0  0  0  0
 43 45  1  0  0  0  0
 43 42  1  0  0  0  0
 44 43  1  0  0  0  0
M  END
>  <MODEL>
2

>  <REMARK>
 VINA RESULT:      -5.2      2.550      4.220
  Name = 
  9 active torsions:
  status: ('A' for Active; 'I' for Inactive)
    1  A    between atoms: C_1  and  C_25
    2  A    between atoms: N_2  and  C_29
    3  A    between atoms: N_2  and  C_43
    4  A    between atoms: N_3  and  C_37
    5  A    between atoms: N_6  and  C_38
    6  A    between atoms: C_12  and  C_28
    7  A    between atoms: N_17  and  C_37
    8  A    between atoms: N_17  and  C_39
    9  A    between atoms: C_20  and  C_23
                            x       y       z     vdW  Elec       q    Type
                         _______ _______ _______ _____ _____    ______ ____

>  <TORSDO>
F 9

$$$$
=
 OpenBabel11042421343D

 45 51  0  0  1  0  0  0  0  0999 V2000
  161.5550  211.0810  150.0220 N   0  0  0  0  0  0  0  0  0  0  0  0
  159.7650  214.2230  149.7260 C   0  0  0  0  0  3  0  0  0  0  0  0
  161.8370  211.3300  148.6690 N   0  0  0  0  0  0  0  0  0  0  0  0
  159.2920  214.4530  151.0290 C   0  0  0  0  0  3  0  0  0  0  0  0
  160.5740  214.4530  145.2040 C   0  0  0  0  0  2  0  0  0  0  0  0
  161.2010  213.0720  147.0800 C   0  0  1  0  0  3  0  0  0  0  0  0
  159.5710  213.5460  152.0780 C   0  0  0  0  0  0  0  0  0  0  0  0
  160.5040  213.0630  149.5020 C   0  0  0  0  0  0  0  0  0  0  0  0
  160.4440  214.2980  146.7080 C   0  0  0  0  0  2  0  0  0  0  0  0
  161.1710  212.5420  148.3060 C   0  0  0  0  0  0  0  0  0  0  0  0
  160.8370  213.0760  144.6180 C   0  0  2  0  0  3  0  0  0  0  0  0
  160.3210  212.3850  151.8120 C   0  0  0  0  0  3  0  0  0  0  0  0
  160.7710  212.1680  150.5110 C   0  0  0  0  0  0  0  0  0  0  0  0
  162.0140  212.2460  145.7230 S   0  0  0  0  0  0  0  0  0  0  0  0
  161.4070  213.2110  143.2870 N   0  0  0  0  0  2  0  0  0  0  0  0
  161.1620  212.2660  142.2430 C   0  0  0  0  0  0  0  0  0  0  0  0
  160.4000  211.2820  142.4440 O   0  0  0  0  0  0  0  0  0  0  0  0
  160.5160  210.7510  139.3700 C   0  0  0  0  0  2  0  0  0  0  0  0
  161.7990  212.4360  140.9310 C   0  0  0  0  0  0  0  0  0  0  0  0
  162.2860  212.1750  138.8150 N   0  0  0  0  0  0  0  0  0  0  0  0
  162.9640  213.1050  140.7310 N   0  0  0  0  0  0  0  0  0  0  0  0
  161.4050  211.8700  139.7360 C   0  0  0  0  0  0  0  0  0  0  0  0
  161.0090  210.4190  137.9400 C   0  0  1  0  0  3  0  0  0  0  0  0
  162.2340  211.3220  137.6560 C   0  0  0  0  0  2  0  0  0  0  0  0
  164.5090  213.3240  138.7670 C   0  0  0  0  0  1  0  0  0  0  0  0
  163.2380  212.9030  139.4190 C   0  0  0  0  0  0  0  0  0  0  0  0
  161.4010  208.9550  137.8650 C   0  0  0  0  0  2  0  0  0  0  0  0
  161.7410  208.4630  139.1900 N   0  0  0  0  0  1  0  0  0  0  0  0
  161.7440  210.0390  152.2620 C   0  0  0  0  0  1  0  0  0  0  0  0
  162.3010  210.1210  150.8440 C   0  0  1  0  0  3  0  0  0  0  0  0
  162.3630  208.7970  150.2140 N   0  0  0  0  0  2  0  0  0  0  0  0
  161.7830  206.5340  150.8610 C   0  0  0  0  0  2  0  0  0  0  0  0
  160.9770  206.8950  149.6350 C   0  0  0  0  0  2  0  0  0  0  0  0
  161.2720  207.9490  150.6830 C   0  0  0  0  0  3  0  0  0  0  0  0
  159.0830  213.7540  153.4120 N   0  0  0  0  0  2  0  0  0  0  0  0
  156.9620  211.4220  155.6280 C   0  0  1  0  0  3  0  0  0  0  0  0
  159.6700  212.1910  155.1640 C   0  0  0  0  0  3  0  0  0  0  0  0
  159.3550  211.1580  156.2100 C   0  0  0  0  0  2  0  0  0  0  0  0
  158.0700  210.4060  155.8840 C   0  0  0  0  0  2  0  0  0  0  0  0
  157.3110  212.2640  154.3940 C   0  0  0  0  0  2  0  0  0  0  0  0
  158.7330  212.7660  154.3940 C   0  0  0  0  0  0  0  0  0  0  0  0
  154.8860  210.7920  156.6390 F   0  0  0  0  0  0  0  0  0  0  0  0
  155.6080  210.7350  155.4590 C   0  0  0  0  0  0  0  0  0  0  0  0
  155.7970  209.4110  155.1070 F   0  0  0  0  0  0  0  0  0  0  0  0
  154.8890  211.3610  154.4580 F   0  0  0  0  0  0  0  0  0  0  0  0
  1 13  1  0  0  0  0
  1 30  1  0  0  0  0
  2  4  1  0  0  0  0
  3  1  1  0  0  0  0
  4  7  2  0  0  0  0
  5  9  1  0  0  0  0
  6 10  1  6  0  0  0
  7 35  1  0  0  0  0
  8  2  2  0  0  0  0
  8 13  1  0  0  0  0
  9  6  1  0  0  0  0
 10  3  2  0  0  0  0
 10  8  1  0  0  0  0
 11 15  1  6  0  0  0
 11  5  1  0  0  0  0
 11 14  1  0  0  0  0
 12  7  1  0  0  0  0
 13 12  2  0  0  0  0
 14  6  1  0  0  0  0
 16 17  2  0  0  0  0
 16 15  1  0  0  0  0
 18 22  1  0  0  0  0
 19 16  1  0  0  0  0
 20 26  1  0  0  0  0
 20 22  1  0  0  0  0
 21 19  1  0  0  0  0
 22 19  2  0  0  0  0
 23 27  1  1  0  0  0
 23 18  1  0  0  0  0
 24 23  1  0  0  0  0
 24 20  1  0  0  0  0
 25 26  1  0  0  0  0
 26 21  2  0  0  0  0
 27 28  1  0  0  0  0
 30 29  1  1  0  0  0
 31 34  1  0  0  0  0
 31 30  1  0  0  0  0
 33 34  1  0  0  0  0
 33 32  1  0  0  0  0
 34 32  1  0  0  0  0
 35 41  1  0  0  0  0
 36 43  1  6  0  0  0
 36 39  1  0  0  0  0
 37 38  1  0  0  0  0
 39 38  1  0  0  0  0
 40 41  1  0  0  0  0
 40 36  1  0  0  0  0
 41 37  2  0  0  0  0
 43 42  1  0  0  0  0
 44 43  1  0  0  0  0
 45 43  1  0  0  0  0
M  END
>  <MODEL>
3

>  <REMARK>
 VINA RESULT:      -5.2      1.859      2.160
  Name = 
  9 active torsions:
  status: ('A' for Active; 'I' for Inactive)
    1  A    between atoms: C_1  and  C_25
    2  A    between atoms: N_2  and  C_29
    3  A    between atoms: N_2  and  C_43
    4  A    between atoms: N_3  and  C_37
    5  A    between atoms: N_6  and  C_38
    6  A    between atoms: C_12  and  C_28
    7  A    between atoms: N_17  and  C_37
    8  A    between atoms: N_17  and  C_39
    9  A    between atoms: C_20  and  C_23
                            x       y       z     vdW  Elec       q    Type
                         _______ _______ _______ _____ _____    ______ ____

>  <TORSDO>
F 9

$$$$
=
 OpenBabel11042421343D

 45 51  0  0  1  0  0  0  0  0999 V2000
  161.0090  213.6980  144.6740 N   0  0  0  0  0  0  0  0  0  0  0  0
  157.4250  214.1000  145.0670 C   0  0  0  0  0  3  0  0  0  0  0  0
  160.9510  213.5100  146.0650 N   0  0  0  0  0  0  0  0  0  0  0  0
  156.9700  214.2750  143.7490 C   0  0  0  0  0  3  0  0  0  0  0  0
  157.7260  213.8340  149.6490 C   0  0  0  0  0  2  0  0  0  0  0  0
  159.1660  213.5860  147.7300 C   0  0  1  0  0  3  0  0  0  0  0  0
  157.8700  214.2550  142.6570 C   0  0  0  0  0  0  0  0  0  0  0  0
  158.7940  213.9210  145.2600 C   0  0  0  0  0  0  0  0  0  0  0  0
  157.7540  213.8270  148.1320 C   0  0  0  0  0  2  0  0  0  0  0  0
  159.5880  213.6740  146.4650 C   0  0  0  0  0  0  0  0  0  0  0  0
  159.1120  214.2200  150.1360 C   0  0  2  0  0  3  0  0  0  0  0  0
  159.2450  214.0740  142.8930 C   0  0  0  0  0  3  0  0  0  0  0  0
  159.6780  213.9130  144.2080 C   0  0  0  0  0  0  0  0  0  0  0  0
  160.3060  213.3480  149.0830 S   0  0  0  0  0  0  0  0  0  0  0  0
  159.2750  213.8130  151.5230 N   0  0  0  0  0  2  0  0  0  0  0  0
  159.9210  212.5950  151.8980 C   0  0  0  0  0  0  0  0  0  0  0  0
  160.4080  211.8370  151.0170 O   0  0  0  0  0  0  0  0  0  0  0  0
  161.3000  209.9220  153.2830 C   0  0  0  0  0  2  0  0  0  0  0  0
  160.0190  212.2190  153.3150 C   0  0  0  0  0  0  0  0  0  0  0  0
  160.4740  211.0920  155.1320 N   0  0  0  0  0  0  0  0  0  0  0  0
  159.3220  212.8220  154.3120 N   0  0  0  0  0  0  0  0  0  0  0  0
  160.7170  211.1550  153.8460 C   0  0  0  0  0  0  0  0  0  0  0  0
  161.4240  209.0340  154.5460 C   0  0  1  0  0  3  0  0  0  0  0  0
  160.7830  209.8140  155.7200 C   0  0  0  0  0  2  0  0  0  0  0  0
  158.9580  212.2770  156.7330 C   0  0  0  0  0  1  0  0  0  0  0  0
  159.6160  212.0860  155.4110 C   0  0  0  0  0  0  0  0  0  0  0  0
  160.6930  207.7240  154.3200 C   0  0  0  0  0  2  0  0  0  0  0  0
  160.8770  207.2840  152.9470 N   0  0  0  0  0  1  0  0  0  0  0  0
  163.3780  212.9750  144.7010 C   0  0  0  0  0  1  0  0  0  0  0  0
  162.1570  213.3040  143.8490 C   0  0  1  0  0  3  0  0  0  0  0  0
  161.8230  212.2020  142.9410 N   0  0  0  0  0  2  0  0  0  0  0  0
  161.3070  211.8270  140.6020 C   0  0  0  0  0  2  0  0  0  0  0  0
  162.6630  211.2240  140.8870 C   0  0  0  0  0  2  0  0  0  0  0  0
  162.2450  212.5070  141.5770 C   0  0  0  0  0  3  0  0  0  0  0  0
  157.4280  214.4490  141.3050 N   0  0  0  0  0  2  0  0  0  0  0  0
  157.3880  211.5800  138.7340 C   0  0  1  0  0  3  0  0  0  0  0  0
  155.6330  213.3800  140.0830 C   0  0  0  0  0  3  0  0  0  0  0  0
  155.0740  212.3730  139.1170 C   0  0  0  0  0  2  0  0  0  0  0  0
  155.9580  211.1360  139.0240 C   0  0  0  0  0  2  0  0  0  0  0  0
  157.9150  212.4160  139.9070 C   0  0  0  0  0  2  0  0  0  0  0  0
  156.9390  213.4650  140.3800 C   0  0  0  0  0  0  0  0  0  0  0  0
  158.7090  209.8070  139.6520 F   0  0  0  0  0  0  0  0  0  0  0  0
  158.2960  210.3820  138.4620 C   0  0  0  0  0  0  0  0  0  0  0  0
  159.4080  210.7930  137.7470 F   0  0  0  0  0  0  0  0  0  0  0  0
  157.6140  209.4390  137.7150 F   0  0  0  0  0  0  0  0  0  0  0  0
  1  3  1  0  0  0  0
  2  8  1  0  0  0  0
  3 10  2  0  0  0  0
  4  2  2  0  0  0  0
  5 11  1  0  0  0  0
  6 10  1  1  0  0  0
  6  9  1  0  0  0  0
  6 14  1  0  0  0  0
  7 12  2  0  0  0  0
  7  4  1  0  0  0  0
  8 10  1  0  0  0  0
  9  5  1  0  0  0  0
 11 15  1  1  0  0  0
 12 13  1  0  0  0  0
 13  1  1  0  0  0  0
 13  8  2  0  0  0  0
 14 11  1  0  0  0  0
 15 16  1  0  0  0  0
 16 19  1  0  0  0  0
 17 16  2  0  0  0  0
 18 22  1  0  0  0  0
 18 23  1  0  0  0  0
 19 22  2  0  0  0  0
 19 21  1  0  0  0  0
 20 26  1  0  0  0  0
 20 24  1  0  0  0  0
 21 26  2  0  0  0  0
 22 20  1  0  0  0  0
 23 27  1  6  0  0  0
 23 24  1  0  0  0  0
 26 25  1  0  0  0  0
 28 27  1  0  0  0  0
 30  1  1  0  0  0  0
 30 29  1  1  0  0  0
 31 30  1  0  0  0  0
 32 33  1  0  0  0  0
 32 34  1  0  0  0  0
 33 34  1  0  0  0  0
 34 31  1  0  0  0  0
 35  7  1  0  0  0  0
 36 43  1  1  0  0  0
 36 39  1  0  0  0  0
 36 40  1  0  0  0  0
 37 41  2  0  0  0  0
 38 37  1  0  0  0  0
 39 38  1  0  0  0  0
 40 41  1  0  0  0  0
 41 35  1  0  0  0  0
 43 42  1  0  0  0  0
 44 43  1  0  0  0  0
 45 43  1  0  0  0  0
M  END
>  <MODEL>
4

>  <REMARK>
 VINA RESULT:      -4.8      5.181     12.589
  Name = 
  9 active torsions:
  status: ('A' for Active; 'I' for Inactive)
    1  A    between atoms: C_1  and  C_25
    2  A    between atoms: N_2  and  C_29
    3  A    between atoms: N_2  and  C_43
    4  A    between atoms: N_3  and  C_37
    5  A    between atoms: N_6  and  C_38
    6  A    between atoms: C_12  and  C_28
    7  A    between atoms: N_17  and  C_37
    8  A    between atoms: N_17  and  C_39
    9  A    between atoms: C_20  and  C_23
                            x       y       z     vdW  Elec       q    Type
                         _______ _______ _______ _____ _____    ______ ____

>  <TORSDO>
F 9

$$$$
=
 OpenBabel11042421343D

 45 51  0  0  1  0  0  0  0  0999 V2000
  159.2520  213.3020  149.6380 N   0  0  0  0  0  0  0  0  0  0  0  0
  161.8990  211.1460  148.4080 C   0  0  0  0  0  3  0  0  0  0  0  0
  159.1280  213.6120  148.2730 N   0  0  0  0  0  0  0  0  0  0  0  0
  162.3500  210.4890  149.5650 C   0  0  0  0  0  3  0  0  0  0  0  0
  161.4310  212.7370  144.1170 C   0  0  0  0  0  2  0  0  0  0  0  0
  160.3300  212.9560  146.2510 C   0  0  1  0  0  3  0  0  0  0  0  0
  161.7610  210.7460  150.8260 C   0  0  0  0  0  0  0  0  0  0  0  0
  160.8640  212.0700  148.5490 C   0  0  0  0  0  0  0  0  0  0  0  0
  161.4310  212.2410  145.5510 C   0  0  0  0  0  2  0  0  0  0  0  0
  160.1380  212.8830  147.5720 C   0  0  0  0  0  0  0  0  0  0  0  0
  160.8070  214.1220  144.1050 C   0  0  2  0  0  3  0  0  0  0  0  0
  160.7190  211.6860  150.9290 C   0  0  0  0  0  3  0  0  0  0  0  0
  160.2940  212.3360  149.7710 C   0  0  0  0  0  0  0  0  0  0  0  0
  159.3820  214.0700  145.2280 S   0  0  0  0  0  0  0  0  0  0  0  0
  160.3730  214.4510  142.7570 N   0  0  0  0  0  2  0  0  0  0  0  0
  159.8150  213.4800  141.8680 C   0  0  0  0  0  0  0  0  0  0  0  0
  159.6520  212.2900  142.2490 O   0  0  0  0  0  0  0  0  0  0  0  0
  156.8400  213.4270  140.4160 C   0  0  0  0  0  2  0  0  0  0  0  0
  159.4320  213.8650  140.5030 C   0  0  0  0  0  0  0  0  0  0  0  0
  158.2310  214.2180  138.7110 N   0  0  0  0  0  0  0  0  0  0  0  0
  160.3180  214.0960  139.5000 N   0  0  0  0  0  0  0  0  0  0  0  0
  158.1540  213.9430  139.9890 C   0  0  0  0  0  0  0  0  0  0  0  0
  156.0440  213.4720  139.0880 C   0  0  1  0  0  3  0  0  0  0  0  0
  157.0290  213.9130  137.9780 C   0  0  0  0  0  2  0  0  0  0  0  0
  160.0700  214.4290  137.0260 C   0  0  0  0  0  1  0  0  0  0  0  0
  159.5360  214.2900  138.4090 C   0  0  0  0  0  0  0  0  0  0  0  0
  155.4850  212.0940  138.7840 C   0  0  0  0  0  2  0  0  0  0  0  0
  156.4190  211.0710  139.2220 N   0  0  0  0  0  1  0  0  0  0  0  0
  156.8470  213.7810  149.9870 C   0  0  0  0  0  1  0  0  0  0  0  0
  158.2160  213.5920  150.6340 C   0  0  1  0  0  3  0  0  0  0  0  0
  158.1740  212.5740  151.6900 N   0  0  0  0  0  2  0  0  0  0  0  0
  158.9080  212.3210  153.9870 C   0  0  0  0  0  2  0  0  0  0  0  0
  157.3980  212.2980  153.9700 C   0  0  0  0  0  2  0  0  0  0  0  0
  158.1500  213.1970  153.0100 C   0  0  0  0  0  3  0  0  0  0  0  0
  162.2180  210.0990  152.0230 N   0  0  0  0  0  2  0  0  0  0  0  0
  160.9300  206.5050  152.5430 C   0  0  1  0  0  3  0  0  0  0  0  0
  161.2740  208.9670  153.9430 C   0  0  0  0  0  3  0  0  0  0  0  0
  160.6960  207.7760  154.6560 C   0  0  0  0  0  2  0  0  0  0  0  0
  161.1850  206.4680  154.0470 C   0  0  0  0  0  2  0  0  0  0  0  0
  161.7580  207.6280  151.9090 C   0  0  0  0  0  2  0  0  0  0  0  0
  161.6780  208.9320  152.6640 C   0  0  0  0  0  0  0  0  0  0  0  0
  160.2970  204.8530  150.9300 F   0  0  0  0  0  0  0  0  0  0  0  0
  161.2430  205.1580  151.8940 C   0  0  0  0  0  0  0  0  0  0  0  0
  161.2450  204.1640  152.8580 F   0  0  0  0  0  0  0  0  0  0  0  0
  162.4930  205.2030  151.3040 F   0  0  0  0  0  0  0  0  0  0  0  0
  1 13  1  0  0  0  0
  1 30  1  0  0  0  0
  2  8  2  0  0  0  0
  2  4  1  0  0  0  0
  3  1  1  0  0  0  0
  4  7  2  0  0  0  0
  5  9  1  0  0  0  0
  6 10  1  1  0  0  0
  7 12  1  0  0  0  0
  7 35  1  0  0  0  0
  8 13  1  0  0  0  0
  9  6  1  0  0  0  0
 10  3  2  0  0  0  0
 10  8  1  0  0  0  0
 11 15  1  6  0  0  0
 11  5  1  0  0  0  0
 11 14  1  0  0  0  0
 13 12  2  0  0  0  0
 14  6  1  0  0  0  0
 16 17  2  0  0  0  0
 16 15  1  0  0  0  0
 19 16  1  0  0  0  0
 20 22  1  0  0  0  0
 21 19  1  0  0  0  0
 22 18  1  0  0  0  0
 22 19  2  0  0  0  0
 23 27  1  6  0  0  0
 23 18  1  0  0  0  0
 24 20  1  0  0  0  0
 24 23  1  0  0  0  0
 25 26  1  0  0  0  0
 26 20  1  0  0  0  0
 26 21  2  0  0  0  0
 27 28  1  0  0  0  0
 30 29  1  6  0  0  0
 30 31  1  0  0  0  0
 31 34  1  0  0  0  0
 33 32  1  0  0  0  0
 34 33  1  0  0  0  0
 34 32  1  0  0  0  0
 35 41  1  0  0  0  0
 36 43  1  6  0  0  0
 36 39  1  0  0  0  0
 37 38  1  0  0  0  0
 39 38  1  0  0  0  0
 40 36  1  0  0  0  0
 40 41  1  0  0  0  0
 41 37  2  0  0  0  0
 42 43  1  0  0  0  0
 43 44  1  0  0  0  0
 45 43  1  0  0  0  0
M  END
>  <MODEL>
5

>  <REMARK>
 VINA RESULT:      -4.8      2.920      4.620
  Name = 
  9 active torsions:
  status: ('A' for Active; 'I' for Inactive)
    1  A    between atoms: C_1  and  C_25
    2  A    between atoms: N_2  and  C_29
    3  A    between atoms: N_2  and  C_43
    4  A    between atoms: N_3  and  C_37
    5  A    between atoms: N_6  and  C_38
    6  A    between atoms: C_12  and  C_28
    7  A    between atoms: N_17  and  C_37
    8  A    between atoms: N_17  and  C_39
    9  A    between atoms: C_20  and  C_23
                            x       y       z     vdW  Elec       q    Type
                         _______ _______ _______ _____ _____    ______ ____

>  <TORSDO>
F 9

$$$$
=
 OpenBabel11042421343D

 45 51  0  0  1  0  0  0  0  0999 V2000
  161.3370  214.0120  145.5420 N   0  0  0  0  0  0  0  0  0  0  0  0
  157.7150  213.8950  145.7210 C   0  0  0  0  0  3  0  0  0  0  0  0
  161.2260  213.7400  146.9160 N   0  0  0  0  0  0  0  0  0  0  0  0
  157.3160  214.0800  144.3860 C   0  0  0  0  0  3  0  0  0  0  0  0
  157.7870  213.4140  150.2950 C   0  0  0  0  0  2  0  0  0  0  0  0
  159.3550  213.4760  148.4640 C   0  0  1  0  0  3  0  0  0  0  0  0
  158.2700  214.2460  143.3550 C   0  0  0  0  0  0  0  0  0  0  0  0
  159.0820  213.8950  145.9940 C   0  0  0  0  0  0  0  0  0  0  0  0
  157.9020  213.4970  148.7840 C   0  0  0  0  0  2  0  0  0  0  0  0
  159.8330  213.6910  147.2340 C   0  0  0  0  0  0  0  0  0  0  0  0
  159.0750  213.9590  150.8880 C   0  0  2  0  0  3  0  0  0  0  0  0
  159.6420  214.2420  143.6700 C   0  0  0  0  0  3  0  0  0  0  0  0
  160.0170  214.0680  145.0020 C   0  0  0  0  0  0  0  0  0  0  0  0
  160.4380  213.3200  149.8740 S   0  0  0  0  0  0  0  0  0  0  0  0
  159.2130  213.5010  152.2620 N   0  0  0  0  0  2  0  0  0  0  0  0
  159.6910  212.1950  152.5940 C   0  0  0  0  0  0  0  0  0  0  0  0
  160.0450  211.3980  151.6850 O   0  0  0  0  0  0  0  0  0  0  0  0
  157.2990  211.9800  154.8730 C   0  0  0  0  0  2  0  0  0  0  0  0
  159.7710  211.7760  154.0000 C   0  0  0  0  0  0  0  0  0  0  0  0
  159.2010  211.3150  156.0590 N   0  0  0  0  0  0  0  0  0  0  0  0
  160.9340  211.6240  154.6840 N   0  0  0  0  0  0  0  0  0  0  0  0
  158.7190  211.5830  154.8710 C   0  0  0  0  0  0  0  0  0  0  0  0
  156.9470  211.8620  156.3770 C   0  0  1  0  0  3  0  0  0  0  0  0
  158.2540  211.5100  157.1270 C   0  0  0  0  0  2  0  0  0  0  0  0
  161.4730  211.2670  157.1070 C   0  0  0  0  0  1  0  0  0  0  0  0
  160.5380  211.3590  155.9530 C   0  0  0  0  0  0  0  0  0  0  0  0
  156.3900  213.1840  156.8740 C   0  0  0  0  0  2  0  0  0  0  0  0
  154.9660  213.0550  157.1370 N   0  0  0  0  0  1  0  0  0  0  0  0
  163.5830  212.9670  145.5300 C   0  0  0  0  0  1  0  0  0  0  0  0
  162.5730  213.8270  144.7750 C   0  0  1  0  0  3  0  0  0  0  0  0
  162.3090  213.2920  143.4350 N   0  0  0  0  0  2  0  0  0  0  0  0
  162.1430  214.4030  141.2860 C   0  0  0  0  0  2  0  0  0  0  0  0
  163.0800  213.2270  141.1370 C   0  0  0  0  0  2  0  0  0  0  0  0
  163.0680  214.0250  142.4250 C   0  0  0  0  0  3  0  0  0  0  0  0
  157.8840  214.4530  141.9880 N   0  0  0  0  0  2  0  0  0  0  0  0
  159.3350  211.8870  139.5080 C   0  0  1  0  0  3  0  0  0  0  0  0
  156.9510  213.3590  140.0420 C   0  0  0  0  0  3  0  0  0  0  0  0
  157.0000  212.4140  138.8740 C   0  0  0  0  0  2  0  0  0  0  0  0
  157.9920  211.2830  139.1110 C   0  0  0  0  0  2  0  0  0  0  0  0
  159.1890  212.6370  140.8370 C   0  0  0  0  0  2  0  0  0  0  0  0
  157.9760  213.5330  140.8890 C   0  0  0  0  0  0  0  0  0  0  0  0
  161.4880  211.1370  138.7780 F   0  0  0  0  0  0  0  0  0  0  0  0
  160.4200  210.8150  139.5990 C   0  0  0  0  0  0  0  0  0  0  0  0
  159.9030  209.5920  139.2090 F   0  0  0  0  0  0  0  0  0  0  0  0
  160.8660  210.7120  140.9030 F   0  0  0  0  0  0  0  0  0  0  0  0
  1  3  1  0  0  0  0
  2  8  1  0  0  0  0
  3 10  2  0  0  0  0
  4  2  2  0  0  0  0
  5 11  1  0  0  0  0
  6 10  1  1  0  0  0
  6  9  1  0  0  0  0
  6 14  1  0  0  0  0
  7 12  2  0  0  0  0
  7  4  1  0  0  0  0
  8 10  1  0  0  0  0
  9  5  1  0  0  0  0
 11 15  1  1  0  0  0
 12 13  1  0  0  0  0
 13  1  1  0  0  0  0
 13  8  2  0  0  0  0
 14 11  1  0  0  0  0
 15 16  1  0  0  0  0
 16 19  1  0  0  0  0
 17 16  2  0  0  0  0
 18 23  1  0  0  0  0
 19 21  1  0  0  0  0
 19 22  2  0  0  0  0
 20 24  1  0  0  0  0
 21 26  2  0  0  0  0
 22 18  1  0  0  0  0
 22 20  1  0  0  0  0
 23 27  1  1  0  0  0
 23 24  1  0  0  0  0
 26 20  1  0  0  0  0
 26 25  1  0  0  0  0
 27 28  1  0  0  0  0
 30 29  1  1  0  0  0
 30  1  1  0  0  0  0
 31 30  1  0  0  0  0
 32 34  1  0  0  0  0
 33 32  1  0  0  0  0
 33 34  1  0  0  0  0
 34 31  1  0  0  0  0
 35  7  1  0  0  0  0
 36 43  1  1  0  0  0
 36 40  1  0  0  0  0
 37 41  2  0  0  0  0
 38 39  1  0  0  0  0
 38 37  1  0  0  0  0
 39 36  1  0  0  0  0
 40 41  1  0  0  0  0
 41 35  1  0  0  0  0
 42 43  1  0  0  0  0
 43 45  1  0  0  0  0
 44 43  1  0  0  0  0
M  END
>  <MODEL>
6

>  <REMARK>
 VINA RESULT:      -4.6      5.078     12.871
  Name = 
  9 active torsions:
  status: ('A' for Active; 'I' for Inactive)
    1  A    between atoms: C_1  and  C_25
    2  A    between atoms: N_2  and  C_29
    3  A    between atoms: N_2  and  C_43
    4  A    between atoms: N_3  and  C_37
    5  A    between atoms: N_6  and  C_38
    6  A    between atoms: C_12  and  C_28
    7  A    between atoms: N_17  and  C_37
    8  A    between atoms: N_17  and  C_39
    9  A    between atoms: C_20  and  C_23
                            x       y       z     vdW  Elec       q    Type
                         _______ _______ _______ _____ _____    ______ ____

>  <TORSDO>
F 9

$$$$
=
 OpenBabel11042421343D

 45 51  0  0  1  0  0  0  0  0999 V2000
  161.8110  209.3080  149.8060 N   0  0  0  0  0  0  0  0  0  0  0  0
  160.5830  212.5330  150.9240 C   0  0  0  0  0  3  0  0  0  0  0  0
  161.8950  209.9770  148.5740 N   0  0  0  0  0  0  0  0  0  0  0  0
  160.3900  212.3490  152.3030 C   0  0  0  0  0  3  0  0  0  0  0  0
  160.6290  214.2240  146.6460 C   0  0  0  0  0  2  0  0  0  0  0  0
  161.3140  212.2200  147.8010 C   0  0  1  0  0  3  0  0  0  0  0  0
  160.6800  211.1100  152.9220 C   0  0  0  0  0  0  0  0  0  0  0  0
  161.0550  211.4490  150.1860 C   0  0  0  0  0  0  0  0  0  0  0  0
  160.7350  213.5740  148.0130 C   0  0  0  0  0  2  0  0  0  0  0  0
  161.4030  211.3050  148.7710 C   0  0  0  0  0  0  0  0  0  0  0  0
  160.5390  213.1140  145.6120 C   0  0  2  0  0  3  0  0  0  0  0  0
  161.1550  210.0390  152.1440 C   0  0  0  0  0  3  0  0  0  0  0  0
  161.3290  210.2380  150.7750 C   0  0  0  0  0  0  0  0  0  0  0  0
  161.7230  211.8300  146.1070 S   0  0  0  0  0  0  0  0  0  0  0  0
  160.8860  213.6390  144.3010 N   0  0  0  0  0  2  0  0  0  0  0  0
  160.5660  212.9550  143.0870 C   0  0  0  0  0  0  0  0  0  0  0  0
  159.9290  211.8680  143.1200 O   0  0  0  0  0  0  0  0  0  0  0  0
  158.7160  213.9160  140.5140 C   0  0  0  0  0  2  0  0  0  0  0  0
  160.9790  213.5160  141.7940 C   0  0  0  0  0  0  0  0  0  0  0  0
  160.8930  214.3260  139.7650 N   0  0  0  0  0  0  0  0  0  0  0  0
  162.2580  213.5130  141.3370 N   0  0  0  0  0  0  0  0  0  0  0  0
  160.1590  214.0180  140.8050 C   0  0  0  0  0  0  0  0  0  0  0  0
  158.6770  214.2820  139.0100 C   0  0  1  0  0  3  0  0  0  0  0  0
  160.1430  214.4530  138.5420 C   0  0  0  0  0  2  0  0  0  0  0  0
  163.2930  214.0430  139.1150 C   0  0  0  0  0  1  0  0  0  0  0  0
  162.1580  214.0020  140.0760 C   0  0  0  0  0  0  0  0  0  0  0  0
  158.0000  213.1680  138.2330 C   0  0  0  0  0  2  0  0  0  0  0  0
  156.8170  212.7140  138.9450 N   0  0  0  0  0  1  0  0  0  0  0  0
  161.7590  207.2180  151.1350 C   0  0  0  0  0  1  0  0  0  0  0  0
  162.5050  208.0480  150.0950 C   0  0  1  0  0  3  0  0  0  0  0  0
  162.7610  207.2740  148.8750 N   0  0  0  0  0  2  0  0  0  0  0  0
  161.3290  205.3680  148.4420 C   0  0  0  0  0  2  0  0  0  0  0  0
  161.8110  205.9050  147.1140 C   0  0  0  0  0  2  0  0  0  0  0  0
  161.5080  206.8600  148.2510 C   0  0  0  0  0  3  0  0  0  0  0  0
  160.4740  210.8960  154.3270 N   0  0  0  0  0  2  0  0  0  0  0  0
  157.0300  211.9140  155.7210 C   0  0  1  0  0  3  0  0  0  0  0  0
  159.8180  212.2420  156.2280 C   0  0  0  0  0  3  0  0  0  0  0  0
  158.8120  212.8810  157.1430 C   0  0  0  0  0  2  0  0  0  0  0  0
  157.4990  212.1080  157.1590 C   0  0  0  0  0  2  0  0  0  0  0  0
  158.0450  211.0530  154.9600 C   0  0  0  0  0  2  0  0  0  0  0  0
  159.4750  211.4810  155.1770 C   0  0  0  0  0  0  0  0  0  0  0  0
  155.7190  209.9370  155.4010 F   0  0  0  0  0  0  0  0  0  0  0  0
  155.6350  211.2920  155.6710 C   0  0  0  0  0  0  0  0  0  0  0  0
  154.8860  211.9060  154.6830 F   0  0  0  0  0  0  0  0  0  0  0  0
  154.9990  211.4740  156.8860 F   0  0  0  0  0  0  0  0  0  0  0  0
  1 30  1  0  0  0  0
  1 13  1  0  0  0  0
  2  4  1  0  0  0  0
  3 10  2  0  0  0  0
  3  1  1  0  0  0  0
  4  7  2  0  0  0  0
  5  9  1  0  0  0  0
  6  9  1  0  0  0  0
  6 10  1  6  0  0  0
  7 35  1  0  0  0  0
  8 13  1  0  0  0  0
  8  2  2  0  0  0  0
 10  8  1  0  0  0  0
 11 15  1  6  0  0  0
 11 14  1  0  0  0  0
 11  5  1  0  0  0  0
 12  7  1  0  0  0  0
 13 12  2  0  0  0  0
 14  6  1  0  0  0  0
 16 17  2  0  0  0  0
 16 15  1  0  0  0  0
 18 22  1  0  0  0  0
 19 16  1  0  0  0  0
 20 26  1  0  0  0  0
 20 22  1  0  0  0  0
 21 19  1  0  0  0  0
 22 19  2  0  0  0  0
 23 27  1  6  0  0  0
 23 18  1  0  0  0  0
 24 23  1  0  0  0  0
 24 20  1  0  0  0  0
 25 26  1  0  0  0  0
 26 21  2  0  0  0  0
 27 28  1  0  0  0  0
 30 29  1  1  0  0  0
 31 30  1  0  0  0  0
 33 34  1  0  0  0  0
 33 32  1  0  0  0  0
 34 32  1  0  0  0  0
 34 31  1  0  0  0  0
 35 41  1  0  0  0  0
 36 43  1  1  0  0  0
 36 39  1  0  0  0  0
 37 38  1  0  0  0  0
 38 39  1  0  0  0  0
 40 41  1  0  0  0  0
 40 36  1  0  0  0  0
 41 37  2  0  0  0  0
 42 43  1  0  0  0  0
 43 45  1  0  0  0  0
 44 43  1  0  0  0  0
M  END
>  <MODEL>
7

>  <REMARK>
 VINA RESULT:      -3.6      2.492      2.897
  Name = 
  9 active torsions:
  status: ('A' for Active; 'I' for Inactive)
    1  A    between atoms: C_1  and  C_25
    2  A    between atoms: N_2  and  C_29
    3  A    between atoms: N_2  and  C_43
    4  A    between atoms: N_3  and  C_37
    5  A    between atoms: N_6  and  C_38
    6  A    between atoms: C_12  and  C_28
    7  A    between atoms: N_17  and  C_37
    8  A    between atoms: N_17  and  C_39
    9  A    between atoms: C_20  and  C_23
                            x       y       z     vdW  Elec       q    Type
                         _______ _______ _______ _____ _____    ______ ____

>  <TORSDO>
F 9

$$$$
=
 OpenBabel11042421343D

 45 51  0  0  1  0  0  0  0  0999 V2000
  161.5310  204.1330  150.6320 N   0  0  0  0  0  0  0  0  0  0  0  0
  161.4580  206.7290  148.0990 C   0  0  0  0  0  3  0  0  0  0  0  0
  161.3630  205.2310  151.4930 N   0  0  0  0  0  0  0  0  0  0  0  0
  161.5460  206.0120  146.8930 C   0  0  0  0  0  3  0  0  0  0  0  0
  161.3200  210.0580  151.2710 C   0  0  0  0  0  2  0  0  0  0  0  0
  161.2310  207.6490  151.1790 C   0  0  1  0  0  3  0  0  0  0  0  0
  161.6260  204.5990  146.8890 C   0  0  0  0  0  0  0  0  0  0  0  0
  161.4680  206.0010  149.2870 C   0  0  0  0  0  0  0  0  0  0  0  0
  161.2890  208.8680  150.3290 C   0  0  0  0  0  2  0  0  0  0  0  0
  161.3510  206.4120  150.6880 C   0  0  0  0  0  0  0  0  0  0  0  0
  161.8970  209.5850  152.5940 C   0  0  2  0  0  3  0  0  0  0  0  0
  161.6340  203.9000  148.1100 C   0  0  0  0  0  3  0  0  0  0  0  0
  161.5570  204.6300  149.2950 C   0  0  0  0  0  0  0  0  0  0  0  0
  161.1720  207.9560  152.9370 S   0  0  0  0  0  0  0  0  0  0  0  0
  161.5420  210.5240  153.6460 N   0  0  0  0  0  2  0  0  0  0  0  0
  160.2440  210.5580  154.2430 C   0  0  0  0  0  0  0  0  0  0  0  0
  159.3600  209.7330  153.8870 O   0  0  0  0  0  0  0  0  0  0  0  0
  157.3050  211.5740  155.3810 C   0  0  0  0  0  2  0  0  0  0  0  0
  159.9320  211.5570  155.2740 C   0  0  0  0  0  0  0  0  0  0  0  0
  158.8100  212.8680  156.6150 N   0  0  0  0  0  0  0  0  0  0  0  0
  160.8380  212.4320  155.7840 N   0  0  0  0  0  0  0  0  0  0  0  0
  158.6920  211.8500  155.8000 C   0  0  0  0  0  0  0  0  0  0  0  0
  156.5220  212.6520  156.1710 C   0  0  1  0  0  3  0  0  0  0  0  0
  157.5650  213.5370  156.8960 C   0  0  0  0  0  2  0  0  0  0  0  0
  160.6400  214.4510  157.2580 C   0  0  0  0  0  1  0  0  0  0  0  0
  160.1010  213.2340  156.5910 C   0  0  0  0  0  0  0  0  0  0  0  0
  155.6960  213.4870  155.2090 C   0  0  0  0  0  2  0  0  0  0  0  0
  155.9170  213.0370  153.8450 N   0  0  0  0  0  1  0  0  0  0  0  0
  161.6120  202.5070  152.4990 C   0  0  0  0  0  1  0  0  0  0  0  0
  161.2790  202.7440  151.0290 C   0  0  1  0  0  3  0  0  0  0  0  0
  159.9070  202.3270  150.7160 N   0  0  0  0  0  2  0  0  0  0  0  0
  160.9450  200.9360  149.0230 C   0  0  0  0  0  2  0  0  0  0  0  0
  159.4900  201.1150  148.6580 C   0  0  0  0  0  2  0  0  0  0  0  0
  159.8950  200.9970  150.1130 C   0  0  0  0  0  3  0  0  0  0  0  0
  161.7340  203.8490  145.6700 N   0  0  0  0  0  2  0  0  0  0  0  0
  160.9170  200.1310  145.0730 C   0  0  1  0  0  3  0  0  0  0  0  0
  159.8100  202.7360  144.7120 C   0  0  0  0  0  3  0  0  0  0  0  0
  159.0250  201.5250  144.2920 C   0  0  0  0  0  2  0  0  0  0  0  0
  159.4020  200.3000  145.1150 C   0  0  0  0  0  2  0  0  0  0  0  0
  161.5880  201.3380  145.7390 C   0  0  0  0  0  2  0  0  0  0  0  0
  161.0190  202.6620  145.2910 C   0  0  0  0  0  0  0  0  0  0  0  0
  162.4990  198.3350  145.1450 F   0  0  0  0  0  0  0  0  0  0  0  0
  161.3490  198.8260  145.7400 C   0  0  0  0  0  0  0  0  0  0  0  0
  160.3410  197.8850  145.6210 F   0  0  0  0  0  0  0  0  0  0  0  0
  161.5920  199.0460  147.0830 F   0  0  0  0  0  0  0  0  0  0  0  0
  1 30  1  0  0  0  0
  1  3  1  0  0  0  0
  2  8  1  0  0  0  0
  4  2  2  0  0  0  0
  5 11  1  0  0  0  0
  6 10  1  1  0  0  0
  6 14  1  0  0  0  0
  7  4  1  0  0  0  0
  7 12  2  0  0  0  0
  8 13  2  0  0  0  0
  8 10  1  0  0  0  0
  9  6  1  0  0  0  0
  9  5  1  0  0  0  0
 10  3  2  0  0  0  0
 11 14  1  0  0  0  0
 11 15  1  1  0  0  0
 12 13  1  0  0  0  0
 13  1  1  0  0  0  0
 15 16  1  0  0  0  0
 16 19  1  0  0  0  0
 17 16  2  0  0  0  0
 18 22  1  0  0  0  0
 18 23  1  0  0  0  0
 19 21  1  0  0  0  0
 19 22  2  0  0  0  0
 20 24  1  0  0  0  0
 21 26  2  0  0  0  0
 22 20  1  0  0  0  0
 23 27  1  6  0  0  0
 23 24  1  0  0  0  0
 26 20  1  0  0  0  0
 26 25  1  0  0  0  0
 28 27  1  0  0  0  0
 30 29  1  1  0  0  0
 31 30  1  0  0  0  0
 32 34  1  0  0  0  0
 33 32  1  0  0  0  0
 33 34  1  0  0  0  0
 34 31  1  0  0  0  0
 35  7  1  0  0  0  0
 36 39  1  0  0  0  0
 36 40  1  0  0  0  0
 36 43  1  1  0  0  0
 37 41  2  0  0  0  0
 38 37  1  0  0  0  0
 38 39  1  0  0  0  0
 41 35  1  0  0  0  0
 41 40  1  0  0  0  0
 42 43  1  0  0  0  0
 43 45  1  0  0  0  0
 44 43  1  0  0  0  0
M  END
>  <MODEL>
8

>  <REMARK>
 VINA RESULT:      -2.9      7.152     12.410
  Name = 
  9 active torsions:
  status: ('A' for Active; 'I' for Inactive)
    1  A    between atoms: C_1  and  C_25
    2  A    between atoms: N_2  and  C_29
    3  A    between atoms: N_2  and  C_43
    4  A    between atoms: N_3  and  C_37
    5  A    between atoms: N_6  and  C_38
    6  A    between atoms: C_12  and  C_28
    7  A    between atoms: N_17  and  C_37
    8  A    between atoms: N_17  and  C_39
    9  A    between atoms: C_20  and  C_23
                            x       y       z     vdW  Elec       q    Type
                         _______ _______ _______ _____ _____    ______ ____

>  <TORSDO>
F 9

$$$$
