=
 OpenBabel11042420473D

 27 28  0  0  1  0  0  0  0  0999 V2000
  161.6860  208.5690  151.0130 C   0  0  0  0  0  0  0  0  0  0  0  0
  160.8260  207.9240  153.0290 C   0  0  0  0  0  0  0  0  0  0  0  0
  160.8190  209.1060  152.1160 C   0  0  1  0  0  3  0  0  0  0  0  0
  161.5860  206.9750  152.5000 C   0  0  0  0  0  0  0  0  0  0  0  0
  162.1120  207.3690  151.2420 N   0  0  0  0  0  0  0  0  0  0  0  0
  161.9950  210.7190  149.7560 N   0  0  0  0  0  2  0  0  0  0  0  0
  162.0020  209.2910  149.7720 C   0  0  0  0  0  0  0  0  0  0  0  0
  162.2760  208.6490  148.7220 O   0  0  0  0  0  0  0  0  0  0  0  0
  162.2950  211.4280  148.5880 N   0  0  0  0  0  2  0  0  0  0  0  0
  161.3770  211.7900  147.8250 O   0  0  0  0  0  1  0  0  0  0  0  0
  162.6550  210.2860  153.1260 O   0  0  0  0  0  1  0  0  0  0  0  0
  160.6750  211.4310  153.0080 O   0  0  0  0  0  0  0  0  0  0  0  0
  161.4450  210.3000  152.7740 C   0  0  0  0  0  0  0  0  0  0  0  0
  160.0500  207.8110  154.3050 C   0  0  0  0  0  2  0  0  0  0  0  0
  160.7790  208.4650  155.4280 C   0  0  0  0  0  0  0  0  0  0  0  0
  161.8340  207.9490  155.8780 O   0  0  0  0  0  0  0  0  0  0  0  0
  160.2670  209.6580  156.0100 N   0  0  0  0  0  1  0  0  0  0  0  0
  161.7840  205.6070  153.0670 C   0  0  0  0  0  2  0  0  0  0  0  0
  160.8570  202.6800  151.1440 C   0  0  0  0  0  3  0  0  0  0  0  0
  161.4360  204.6030  152.0750 N   0  0  0  0  0  0  0  0  0  0  0  0
  161.1610  203.4340  148.7700 N   0  0  0  0  0  0  0  0  0  0  0  0
  161.0410  203.3460  152.3450 C   0  0  0  0  0  3  0  0  0  0  0  0
  161.5340  204.7950  150.7730 N   0  0  0  0  0  0  0  0  0  0  0  0
  160.6750  202.1850  148.2060 C   0  0  0  0  0  1  0  0  0  0  0  0
  161.1810  203.6360  150.1910 C   0  0  0  0  0  0  0  0  0  0  0  0
  161.6310  203.9770  146.4370 C   0  0  0  0  0  1  0  0  0  0  0  0
  161.5240  204.5070  147.8560 C   0  0  0  0  0  2  0  0  0  0  0  0
  1  5  2  0  0  0  0
  1  3  1  0  0  0  0
  2 14  1  0  0  0  0
  3 13  1  1  0  0  0
  3  2  1  0  0  0  0
  4  2  2  0  0  0  0
  4 18  1  0  0  0  0
  5  4  1  0  0  0  0
  6  7  1  0  0  0  0
  7  1  1  0  0  0  0
  8  7  2  0  0  0  0
  9  6  1  0  0  0  0
 10  9  1  0  0  0  0
 13 12  2  0  0  0  0
 13 11  1  0  0  0  0
 14 15  1  0  0  0  0
 15 16  2  0  0  0  0
 15 17  1  0  0  0  0
 19 22  2  0  0  0  0
 20 22  1  0  0  0  0
 20 18  1  0  0  0  0
 21 25  1  0  0  0  0
 23 20  1  0  0  0  0
 24 21  1  0  0  0  0
 25 23  2  0  0  0  0
 25 19  1  0  0  0  0
 26 27  1  0  0  0  0
 27 21  1  0  0  0  0
M  END
>  <MODEL>
1

>  <REMARK>
 VINA RESULT:      -6.9      0.000      0.000
  Name = 
  8 active torsions:
  status: ('A' for Active; 'I' for Inactive)
    1  A    between atoms: N_1  and  N_13
    2  A    between atoms: C_2  and  C_3
    3  A    between atoms: C_4  and  C_8
    4  A    between atoms: C_8  and  C_9
    5  A    between atoms: N_11  and  C_19
    6  A    between atoms: N_14  and  C_22
    7  A    between atoms: C_17  and  C_26
    8  A    between atoms: C_19  and  C_21
                            x       y       z     vdW  Elec       q    Type
                         _______ _______ _______ _____ _____    ______ ____

>  <TORSDO>
F 8

$$$$
=
 OpenBabel11042420473D

 27 28  0  0  1  0  0  0  0  0999 V2000
  161.0490  204.0030  149.7950 C   0  0  0  0  0  0  0  0  0  0  0  0
  161.2460  206.2720  149.9820 C   0  0  0  0  0  0  0  0  0  0  0  0
  160.5410  205.2570  149.1430 C   0  0  1  0  0  3  0  0  0  0  0  0
  162.0000  205.6440  150.8740 C   0  0  0  0  0  0  0  0  0  0  0  0
  161.8700  204.2350  150.7680 N   0  0  0  0  0  0  0  0  0  0  0  0
  161.5180  201.8250  148.6380 N   0  0  0  0  0  2  0  0  0  0  0  0
  160.6430  202.6410  149.4180 C   0  0  0  0  0  0  0  0  0  0  0  0
  159.5200  202.1960  149.7800 O   0  0  0  0  0  0  0  0  0  0  0  0
  161.1540  200.5260  148.2690 N   0  0  0  0  0  2  0  0  0  0  0  0
  161.5520  200.0500  147.1880 O   0  0  0  0  0  1  0  0  0  0  0  0
  161.9930  204.7210  147.3020 O   0  0  0  0  0  1  0  0  0  0  0  0
  160.2540  206.1330  146.8240 O   0  0  0  0  0  0  0  0  0  0  0  0
  160.9760  205.3440  147.7090 C   0  0  0  0  0  0  0  0  0  0  0  0
  161.0770  207.7550  149.8690 C   0  0  0  0  0  2  0  0  0  0  0  0
  162.0970  208.3360  148.9500 C   0  0  0  0  0  0  0  0  0  0  0  0
  162.9790  207.5980  148.4430 O   0  0  0  0  0  0  0  0  0  0  0  0
  162.0890  209.7300  148.6670 N   0  0  0  0  0  1  0  0  0  0  0  0
  162.7980  206.3040  151.9500 C   0  0  0  0  0  2  0  0  0  0  0  0
  160.3840  207.0480  154.5470 C   0  0  0  0  0  3  0  0  0  0  0  0
  161.9090  206.8680  152.9530 N   0  0  0  0  0  0  0  0  0  0  0  0
  160.3220  209.5560  154.5720 N   0  0  0  0  0  0  0  0  0  0  0  0
  161.1190  206.1590  153.7800 C   0  0  0  0  0  3  0  0  0  0  0  0
  161.7250  208.1630  153.1250 N   0  0  0  0  0  0  0  0  0  0  0  0
  159.3950  209.6220  155.6900 C   0  0  0  0  0  1  0  0  0  0  0  0
  160.8030  208.2910  154.0940 C   0  0  0  0  0  0  0  0  0  0  0  0
  159.9960  211.2330  152.8290 C   0  0  0  0  0  1  0  0  0  0  0  0
  160.8290  210.8060  154.0230 C   0  0  0  0  0  2  0  0  0  0  0  0
  1  5  2  0  0  0  0
  2  4  2  0  0  0  0
  3 13  1  6  0  0  0
  3  1  1  0  0  0  0
  3  2  1  0  0  0  0
  4 18  1  0  0  0  0
  5  4  1  0  0  0  0
  6  7  1  0  0  0  0
  7  8  2  0  0  0  0
  7  1  1  0  0  0  0
  9  6  1  0  0  0  0
 10  9  1  0  0  0  0
 11 13  1  0  0  0  0
 12 13  2  0  0  0  0
 14  2  1  0  0  0  0
 15 14  1  0  0  0  0
 16 15  2  0  0  0  0
 17 15  1  0  0  0  0
 18 20  1  0  0  0  0
 20 23  1  0  0  0  0
 20 22  1  0  0  0  0
 21 24  1  0  0  0  0
 22 19  2  0  0  0  0
 23 25  2  0  0  0  0
 25 19  1  0  0  0  0
 25 21  1  0  0  0  0
 26 27  1  0  0  0  0
 27 21  1  0  0  0  0
M  END
>  <MODEL>
2

>  <REMARK>
 VINA RESULT:      -6.7      2.847      7.025
  Name = 
  8 active torsions:
  status: ('A' for Active; 'I' for Inactive)
    1  A    between atoms: N_1  and  N_13
    2  A    between atoms: C_2  and  C_3
    3  A    between atoms: C_4  and  C_8
    4  A    between atoms: C_8  and  C_9
    5  A    between atoms: N_11  and  C_19
    6  A    between atoms: N_14  and  C_22
    7  A    between atoms: C_17  and  C_26
    8  A    between atoms: C_19  and  C_21
                            x       y       z     vdW  Elec       q    Type
                         _______ _______ _______ _____ _____    ______ ____

>  <TORSDO>
F 8

$$$$
=
 OpenBabel11042420473D

 27 28  0  0  1  0  0  0  0  0999 V2000
  159.3700  211.3670  153.3270 C   0  0  0  0  0  0  0  0  0  0  0  0
  160.8300  209.8370  154.1920 C   0  0  0  0  0  0  0  0  0  0  0  0
  159.5270  210.4840  154.5320 C   0  0  1  0  0  3  0  0  0  0  0  0
  161.2690  210.3300  153.0420 C   0  0  0  0  0  0  0  0  0  0  0  0
  160.3580  211.2720  152.4970 N   0  0  0  0  0  0  0  0  0  0  0  0
  158.2370  213.1620  151.9880 N   0  0  0  0  0  2  0  0  0  0  0  0
  158.2080  212.2310  153.0690 C   0  0  0  0  0  0  0  0  0  0  0  0
  157.1880  212.1500  153.8060 O   0  0  0  0  0  0  0  0  0  0  0  0
  157.1420  213.9920  151.7220 N   0  0  0  0  0  2  0  0  0  0  0  0
  156.5820  213.9470  150.6090 O   0  0  0  0  0  1  0  0  0  0  0  0
  159.0110  210.9530  156.8330 O   0  0  0  0  0  1  0  0  0  0  0  0
  160.4270  212.4310  155.8060 O   0  0  0  0  0  0  0  0  0  0  0  0
  159.6360  211.2900  155.7920 C   0  0  0  0  0  0  0  0  0  0  0  0
  161.4980  208.7640  154.9940 C   0  0  0  0  0  2  0  0  0  0  0  0
  160.5880  207.5980  155.1810 C   0  0  0  0  0  0  0  0  0  0  0  0
  160.4730  206.7380  154.2720 O   0  0  0  0  0  0  0  0  0  0  0  0
  159.8280  207.4740  156.3770 N   0  0  0  0  0  1  0  0  0  0  0  0
  162.4970  209.8810  152.3200 C   0  0  0  0  0  2  0  0  0  0  0  0
  161.5930  208.1090  149.2930 C   0  0  0  0  0  3  0  0  0  0  0  0
  162.1410  208.9430  151.2690 N   0  0  0  0  0  0  0  0  0  0  0  0
  161.1480  205.7770  150.1040 N   0  0  0  0  0  0  0  0  0  0  0  0
  161.9870  209.2530  149.9680 C   0  0  0  0  0  3  0  0  0  0  0  0
  161.8590  207.6720  151.4840 N   0  0  0  0  0  0  0  0  0  0  0  0
  160.8960  205.2550  148.7700 C   0  0  0  0  0  1  0  0  0  0  0  0
  161.5280  207.1490  150.2920 C   0  0  0  0  0  0  0  0  0  0  0  0
  160.7930  203.4480  150.7390 C   0  0  0  0  0  1  0  0  0  0  0  0
  161.1100  204.8500  151.2250 C   0  0  0  0  0  2  0  0  0  0  0  0
  1  3  1  0  0  0  0
  2  3  1  0  0  0  0
  2 14  1  0  0  0  0
  3 13  1  1  0  0  0
  4  2  2  0  0  0  0
  5  4  1  0  0  0  0
  5  1  2  0  0  0  0
  6  7  1  0  0  0  0
  7  1  1  0  0  0  0
  7  8  2  0  0  0  0
  9  6  1  0  0  0  0
 10  9  1  0  0  0  0
 13 12  2  0  0  0  0
 13 11  1  0  0  0  0
 14 15  1  0  0  0  0
 15 17  1  0  0  0  0
 16 15  2  0  0  0  0
 18  4  1  0  0  0  0
 19 22  2  0  0  0  0
 19 25  1  0  0  0  0
 20 23  1  0  0  0  0
 20 18  1  0  0  0  0
 21 25  1  0  0  0  0
 21 27  1  0  0  0  0
 22 20  1  0  0  0  0
 24 21  1  0  0  0  0
 25 23  2  0  0  0  0
 26 27  1  0  0  0  0
M  END
>  <MODEL>
3

>  <REMARK>
 VINA RESULT:      -6.5      2.780      4.366
  Name = 
  8 active torsions:
  status: ('A' for Active; 'I' for Inactive)
    1  A    between atoms: N_1  and  N_13
    2  A    between atoms: C_2  and  C_3
    3  A    between atoms: C_4  and  C_8
    4  A    between atoms: C_8  and  C_9
    5  A    between atoms: N_11  and  C_19
    6  A    between atoms: N_14  and  C_22
    7  A    between atoms: C_17  and  C_26
    8  A    between atoms: C_19  and  C_21
                            x       y       z     vdW  Elec       q    Type
                         _______ _______ _______ _____ _____    ______ ____

>  <TORSDO>
F 8

$$$$
=
 OpenBabel11042420473D

 27 28  0  0  1  0  0  0  0  0999 V2000
  161.3140  206.6600  151.7740 C   0  0  0  0  0  0  0  0  0  0  0  0
  161.0540  206.3400  149.5260 C   0  0  0  0  0  0  0  0  0  0  0  0
  160.5970  205.7470  150.8190 C   0  0  1  0  0  3  0  0  0  0  0  0
  161.8780  207.3470  149.7810 C   0  0  0  0  0  0  0  0  0  0  0  0
  162.0320  207.5550  151.1760 N   0  0  0  0  0  0  0  0  0  0  0  0
  160.9220  207.7780  153.9860 N   0  0  0  0  0  2  0  0  0  0  0  0
  161.1980  206.5940  153.2380 C   0  0  0  0  0  0  0  0  0  0  0  0
  161.3480  205.4920  153.8320 O   0  0  0  0  0  0  0  0  0  0  0  0
  160.8050  207.7390  155.3800 N   0  0  0  0  0  2  0  0  0  0  0  0
  159.6780  207.7700  155.9120 O   0  0  0  0  0  1  0  0  0  0  0  0
  162.2470  204.0700  151.3140 O   0  0  0  0  0  1  0  0  0  0  0  0
  160.1900  203.2900  150.6800 O   0  0  0  0  0  0  0  0  0  0  0  0
  161.0670  204.3290  150.9590 C   0  0  0  0  0  0  0  0  0  0  0  0
  160.6030  205.9030  148.1670 C   0  0  0  0  0  2  0  0  0  0  0  0
  161.6340  205.0450  147.5170 C   0  0  0  0  0  0  0  0  0  0  0  0
  161.7050  203.8220  147.8010 O   0  0  0  0  0  0  0  0  0  0  0  0
  162.5560  205.6150  146.5960 N   0  0  0  0  0  1  0  0  0  0  0  0
  162.4850  208.2490  148.7570 C   0  0  0  0  0  2  0  0  0  0  0  0
  161.6930  211.4690  150.2140 C   0  0  0  0  0  3  0  0  0  0  0  0
  162.1900  209.6350  149.0790 N   0  0  0  0  0  0  0  0  0  0  0  0
  161.4160  212.9540  148.2100 N   0  0  0  0  0  0  0  0  0  0  0  0
  162.0090  210.1250  150.3190 C   0  0  0  0  0  3  0  0  0  0  0  0
  161.9990  210.5740  148.1720 N   0  0  0  0  0  0  0  0  0  0  0  0
  161.1950  214.1520  149.0030 C   0  0  0  0  0  1  0  0  0  0  0  0
  161.7000  211.6980  148.8450 C   0  0  0  0  0  0  0  0  0  0  0  0
  160.0620  212.8640  146.1820 C   0  0  0  0  0  1  0  0  0  0  0  0
  161.4480  213.0840  146.7610 C   0  0  0  0  0  2  0  0  0  0  0  0
  1  7  1  0  0  0  0
  2  4  2  0  0  0  0
  2  3  1  0  0  0  0
  3 13  1  6  0  0  0
  3  1  1  0  0  0  0
  4  5  1  0  0  0  0
  5  1  2  0  0  0  0
  6  9  1  0  0  0  0
  7  8  2  0  0  0  0
  7  6  1  0  0  0  0
  9 10  1  0  0  0  0
 12 13  2  0  0  0  0
 13 11  1  0  0  0  0
 14  2  1  0  0  0  0
 15 16  2  0  0  0  0
 15 14  1  0  0  0  0
 17 15  1  0  0  0  0
 18 20  1  0  0  0  0
 18  4  1  0  0  0  0
 19 22  2  0  0  0  0
 20 22  1  0  0  0  0
 21 25  1  0  0  0  0
 21 24  1  0  0  0  0
 23 25  2  0  0  0  0
 23 20  1  0  0  0  0
 25 19  1  0  0  0  0
 26 27  1  0  0  0  0
 27 21  1  0  0  0  0
M  END
>  <MODEL>
4

>  <REMARK>
 VINA RESULT:      -6.2      3.029      7.259
  Name = 
  8 active torsions:
  status: ('A' for Active; 'I' for Inactive)
    1  A    between atoms: N_1  and  N_13
    2  A    between atoms: C_2  and  C_3
    3  A    between atoms: C_4  and  C_8
    4  A    between atoms: C_8  and  C_9
    5  A    between atoms: N_11  and  C_19
    6  A    between atoms: N_14  and  C_22
    7  A    between atoms: C_17  and  C_26
    8  A    between atoms: C_19  and  C_21
                            x       y       z     vdW  Elec       q    Type
                         _______ _______ _______ _____ _____    ______ ____

>  <TORSDO>
F 8

$$$$
=
 OpenBabel11042420473D

 27 28  0  0  1  0  0  0  0  0999 V2000
  161.8150  207.2710  148.2550 C   0  0  0  0  0  0  0  0  0  0  0  0
  162.1020  207.9960  150.4030 C   0  0  0  0  0  0  0  0  0  0  0  0
  162.0490  206.7180  149.6330 C   0  0  1  0  0  3  0  0  0  0  0  0
  161.8980  209.0090  149.5730 C   0  0  0  0  0  0  0  0  0  0  0  0
  161.7310  208.5620  148.2360 N   0  0  0  0  0  0  0  0  0  0  0  0
  162.7140  205.4630  146.7650 N   0  0  0  0  0  2  0  0  0  0  0  0
  161.7270  206.4590  147.0330 C   0  0  0  0  0  0  0  0  0  0  0  0
  160.7820  206.6460  146.2200 O   0  0  0  0  0  0  0  0  0  0  0  0
  162.6490  204.6760  145.6100 N   0  0  0  0  0  2  0  0  0  0  0  0
  161.9550  203.6400  145.5990 O   0  0  0  0  0  1  0  0  0  0  0  0
  159.7160  206.1470  149.7590 O   0  0  0  0  0  0  0  0  0  0  0  0
  161.1480  204.7530  150.8770 O   0  0  0  0  0  1  0  0  0  0  0  0
  160.9010  205.8630  150.0830 C   0  0  0  0  0  0  0  0  0  0  0  0
  162.3990  208.1130  151.8660 C   0  0  0  0  0  2  0  0  0  0  0  0
  161.1410  208.0910  152.6650 C   0  0  0  0  0  0  0  0  0  0  0  0
  160.3640  209.0790  152.6410 O   0  0  0  0  0  0  0  0  0  0  0  0
  160.8330  206.9650  153.4780 N   0  0  0  0  0  1  0  0  0  0  0  0
  161.9570  210.4560  149.9400 C   0  0  0  0  0  2  0  0  0  0  0  0
  162.7170  212.6150  147.1330 C   0  0  0  0  0  3  0  0  0  0  0  0
  161.9970  211.2720  148.7380 N   0  0  0  0  0  0  0  0  0  0  0  0
  160.4900  212.9070  146.0140 N   0  0  0  0  0  0  0  0  0  0  0  0
  163.0890  211.8930  148.2550 C   0  0  0  0  0  3  0  0  0  0  0  0
  160.9350  211.5560  148.0090 N   0  0  0  0  0  0  0  0  0  0  0  0
  161.0310  213.7020  144.9230 C   0  0  0  0  0  1  0  0  0  0  0  0
  161.3560  212.3680  147.0250 C   0  0  0  0  0  0  0  0  0  0  0  0
  158.2760  213.6630  146.7090 C   0  0  0  0  0  1  0  0  0  0  0  0
  159.0710  212.5860  145.9940 C   0  0  0  0  0  2  0  0  0  0  0  0
  1  3  1  0  0  0  0
  2 14  1  0  0  0  0
  3 13  1  1  0  0  0
  3  2  1  0  0  0  0
  4 18  1  0  0  0  0
  4  2  2  0  0  0  0
  5  1  2  0  0  0  0
  5  4  1  0  0  0  0
  6  7  1  0  0  0  0
  7  1  1  0  0  0  0
  8  7  2  0  0  0  0
  9  6  1  0  0  0  0
 10  9  1  0  0  0  0
 11 13  2  0  0  0  0
 13 12  1  0  0  0  0
 14 15  1  0  0  0  0
 15 17  1  0  0  0  0
 16 15  2  0  0  0  0
 19 22  2  0  0  0  0
 20 18  1  0  0  0  0
 21 25  1  0  0  0  0
 22 20  1  0  0  0  0
 23 20  1  0  0  0  0
 24 21  1  0  0  0  0
 25 19  1  0  0  0  0
 25 23  2  0  0  0  0
 27 21  1  0  0  0  0
 27 26  1  0  0  0  0
M  END
>  <MODEL>
5

>  <REMARK>
 VINA RESULT:      -6.1      3.509      6.858
  Name = 
  8 active torsions:
  status: ('A' for Active; 'I' for Inactive)
    1  A    between atoms: N_1  and  N_13
    2  A    between atoms: C_2  and  C_3
    3  A    between atoms: C_4  and  C_8
    4  A    between atoms: C_8  and  C_9
    5  A    between atoms: N_11  and  C_19
    6  A    between atoms: N_14  and  C_22
    7  A    between atoms: C_17  and  C_26
    8  A    between atoms: C_19  and  C_21
                            x       y       z     vdW  Elec       q    Type
                         _______ _______ _______ _____ _____    ______ ____

>  <TORSDO>
F 8

$$$$
=
 OpenBabel11042420473D

 27 28  0  0  1  0  0  0  0  0999 V2000
  161.3260  207.9690  152.3250 C   0  0  0  0  0  0  0  0  0  0  0  0
  162.0620  209.5440  150.8420 C   0  0  0  0  0  0  0  0  0  0  0  0
  161.9100  209.3540  152.3150 C   0  0  1  0  0  3  0  0  0  0  0  0
  161.6060  208.4660  150.2180 C   0  0  0  0  0  0  0  0  0  0  0  0
  161.1600  207.4820  151.1380 N   0  0  0  0  0  0  0  0  0  0  0  0
  160.5300  207.8830  154.7030 N   0  0  0  0  0  2  0  0  0  0  0  0
  161.0060  207.2060  153.5400 C   0  0  0  0  0  0  0  0  0  0  0  0
  161.1560  205.9540  153.5550 O   0  0  0  0  0  0  0  0  0  0  0  0
  160.2160  207.1780  155.8710 N   0  0  0  0  0  2  0  0  0  0  0  0
  160.8460  207.4030  156.9230 O   0  0  0  0  0  1  0  0  0  0  0  0
  161.3320  211.1790  153.7690 O   0  0  0  0  0  1  0  0  0  0  0  0
  159.6340  210.3640  152.4670 O   0  0  0  0  0  0  0  0  0  0  0  0
  160.9550  210.3550  152.8940 C   0  0  0  0  0  0  0  0  0  0  0  0
  162.6840  210.7360  150.1830 C   0  0  0  0  0  2  0  0  0  0  0  0
  161.6530  211.5510  149.4800 C   0  0  0  0  0  0  0  0  0  0  0  0
  160.8410  212.2450  150.1420 O   0  0  0  0  0  0  0  0  0  0  0  0
  161.5710  211.5230  148.0600 N   0  0  0  0  0  1  0  0  0  0  0  0
  161.6570  208.2310  148.7440 C   0  0  0  0  0  2  0  0  0  0  0  0
  161.6310  204.8700  147.3940 C   0  0  0  0  0  3  0  0  0  0  0  0
  161.5890  206.8060  148.4650 N   0  0  0  0  0  0  0  0  0  0  0  0
  160.8180  203.4840  149.3200 N   0  0  0  0  0  0  0  0  0  0  0  0
  161.8650  206.2310  147.2800 C   0  0  0  0  0  3  0  0  0  0  0  0
  161.1780  205.9070  149.3390 N   0  0  0  0  0  0  0  0  0  0  0  0
  160.9610  202.2260  148.6050 C   0  0  0  0  0  1  0  0  0  0  0  0
  161.2020  204.7230  148.7050 C   0  0  0  0  0  0  0  0  0  0  0  0
  161.5180  203.0040  151.6080 C   0  0  0  0  0  1  0  0  0  0  0  0
  160.3780  203.4420  150.7070 C   0  0  0  0  0  2  0  0  0  0  0  0
  1  7  1  0  0  0  0
  2  3  1  0  0  0  0
  3  1  1  0  0  0  0
  3 13  1  6  0  0  0
  4  2  2  0  0  0  0
  4  5  1  0  0  0  0
  5  1  2  0  0  0  0
  6  9  1  0  0  0  0
  7  8  2  0  0  0  0
  7  6  1  0  0  0  0
  9 10  1  0  0  0  0
 12 13  2  0  0  0  0
 13 11  1  0  0  0  0
 14  2  1  0  0  0  0
 15 16  2  0  0  0  0
 15 14  1  0  0  0  0
 17 15  1  0  0  0  0
 18  4  1  0  0  0  0
 19 25  1  0  0  0  0
 20 18  1  0  0  0  0
 20 23  1  0  0  0  0
 21 27  1  0  0  0  0
 22 19  2  0  0  0  0
 22 20  1  0  0  0  0
 24 21  1  0  0  0  0
 25 21  1  0  0  0  0
 25 23  2  0  0  0  0
 27 26  1  0  0  0  0
M  END
>  <MODEL>
6

>  <REMARK>
 VINA RESULT:      -6.1      1.646      4.840
  Name = 
  8 active torsions:
  status: ('A' for Active; 'I' for Inactive)
    1  A    between atoms: N_1  and  N_13
    2  A    between atoms: C_2  and  C_3
    3  A    between atoms: C_4  and  C_8
    4  A    between atoms: C_8  and  C_9
    5  A    between atoms: N_11  and  C_19
    6  A    between atoms: N_14  and  C_22
    7  A    between atoms: C_17  and  C_26
    8  A    between atoms: C_19  and  C_21
                            x       y       z     vdW  Elec       q    Type
                         _______ _______ _______ _____ _____    ______ ____

>  <TORSDO>
F 8

$$$$
=
 OpenBabel11042420473D

 27 28  0  0  1  0  0  0  0  0999 V2000
  161.8160  208.0440  150.4040 C   0  0  0  0  0  0  0  0  0  0  0  0
  161.8920  205.9680  151.3560 C   0  0  0  0  0  0  0  0  0  0  0  0
  162.1980  206.6330  150.0540 C   0  0  1  0  0  3  0  0  0  0  0  0
  161.4110  206.8720  152.2000 C   0  0  0  0  0  0  0  0  0  0  0  0
  161.3740  208.1640  151.6140 N   0  0  0  0  0  0  0  0  0  0  0  0
  161.9220  210.5230  150.0260 N   0  0  0  0  0  2  0  0  0  0  0  0
  161.9580  209.1950  149.5010 C   0  0  0  0  0  0  0  0  0  0  0  0
  162.1070  209.0100  148.2630 O   0  0  0  0  0  0  0  0  0  0  0  0
  162.0570  211.6340  149.1860 N   0  0  0  0  0  2  0  0  0  0  0  0
  161.2450  212.5770  149.2660 O   0  0  0  0  0  1  0  0  0  0  0  0
  160.0820  206.2050  148.9950 O   0  0  0  0  0  1  0  0  0  0  0  0
  161.9290  205.4370  147.8820 O   0  0  0  0  0  0  0  0  0  0  0  0
  161.3360  206.0890  148.9540 C   0  0  0  0  0  0  0  0  0  0  0  0
  162.1460  204.5270  151.6720 C   0  0  0  0  0  2  0  0  0  0  0  0
  160.9180  203.7120  151.4530 C   0  0  0  0  0  0  0  0  0  0  0  0
  160.0830  203.5700  152.3820 O   0  0  0  0  0  0  0  0  0  0  0  0
  160.7030  203.0710  150.2010 N   0  0  0  0  0  1  0  0  0  0  0  0
  161.0620  206.6220  153.6300 C   0  0  0  0  0  2  0  0  0  0  0  0
  161.2440  209.4170  155.9270 C   0  0  0  0  0  3  0  0  0  0  0  0
  160.9960  207.8820  154.3520 N   0  0  0  0  0  0  0  0  0  0  0  0
  159.8050  211.1560  154.8310 N   0  0  0  0  0  0  0  0  0  0  0  0
  161.5820  208.1310  155.5380 C   0  0  0  0  0  3  0  0  0  0  0  0
  160.2870  208.9200  153.9520 N   0  0  0  0  0  0  0  0  0  0  0  0
  160.0820  212.1650  155.8400 C   0  0  0  0  0  1  0  0  0  0  0  0
  160.4310  209.8650  154.8960 C   0  0  0  0  0  0  0  0  0  0  0  0
  159.8120  212.1000  152.5810 C   0  0  0  0  0  1  0  0  0  0  0  0
  158.9650  211.5240  153.7010 C   0  0  0  0  0  2  0  0  0  0  0  0
  1  5  2  0  0  0  0
  2 14  1  0  0  0  0
  2  4  2  0  0  0  0
  3 13  1  6  0  0  0
  3  1  1  0  0  0  0
  3  2  1  0  0  0  0
  4 18  1  0  0  0  0
  5  4  1  0  0  0  0
  7  6  1  0  0  0  0
  7  1  1  0  0  0  0
  8  7  2  0  0  0  0
  9 10  1  0  0  0  0
  9  6  1  0  0  0  0
 12 13  2  0  0  0  0
 13 11  1  0  0  0  0
 15 14  1  0  0  0  0
 15 16  2  0  0  0  0
 17 15  1  0  0  0  0
 18 20  1  0  0  0  0
 20 22  1  0  0  0  0
 21 25  1  0  0  0  0
 21 24  1  0  0  0  0
 22 19  2  0  0  0  0
 23 20  1  0  0  0  0
 23 25  2  0  0  0  0
 25 19  1  0  0  0  0
 26 27  1  0  0  0  0
 27 21  1  0  0  0  0
M  END
>  <MODEL>
7

>  <REMARK>
 VINA RESULT:      -5.9      2.313      6.080
  Name = 
  8 active torsions:
  status: ('A' for Active; 'I' for Inactive)
    1  A    between atoms: N_1  and  N_13
    2  A    between atoms: C_2  and  C_3
    3  A    between atoms: C_4  and  C_8
    4  A    between atoms: C_8  and  C_9
    5  A    between atoms: N_11  and  C_19
    6  A    between atoms: N_14  and  C_22
    7  A    between atoms: C_17  and  C_26
    8  A    between atoms: C_19  and  C_21
                            x       y       z     vdW  Elec       q    Type
                         _______ _______ _______ _____ _____    ______ ____

>  <TORSDO>
F 8

$$$$
=
 OpenBabel11042420473D

 27 28  0  0  1  0  0  0  0  0999 V2000
  161.9430  210.4250  154.9260 C   0  0  0  0  0  0  0  0  0  0  0  0
  160.2140  210.6280  153.4460 C   0  0  0  0  0  0  0  0  0  0  0  0
  160.5220  210.9120  154.8790 C   0  0  1  0  0  3  0  0  0  0  0  0
  161.2750  210.0680  152.8800 C   0  0  0  0  0  0  0  0  0  0  0  0
  162.3540  209.9520  153.7940 N   0  0  0  0  0  0  0  0  0  0  0  0
  163.8900  211.4420  156.1420 N   0  0  0  0  0  0  0  0  0  0  0  0
  162.8140  210.5030  156.1080 C   0  0  0  0  0  0  0  0  0  0  0  0
  162.6130  209.7380  157.0900 O   0  0  0  0  0  0  0  0  0  0  0  0
  164.7300  211.5360  157.2560 N   0  0  0  0  0  0  0  0  0  0  0  0
  165.6700  212.3550  157.2610 O   0  0  0  0  0  1  0  0  0  0  0  0
  158.9510  210.6740  156.6840 O   0  0  0  0  0  1  0  0  0  0  0  0
  159.5890  208.7320  155.6540 O   0  0  0  0  0  0  0  0  0  0  0  0
  159.6390  210.1120  155.7910 C   0  0  0  0  0  0  0  0  0  0  0  0
  158.9350  210.9760  152.7500 C   0  0  0  0  0  2  0  0  0  0  0  0
  158.6620  212.4380  152.8450 C   0  0  0  0  0  0  0  0  0  0  0  0
  159.2740  213.2420  152.0960 O   0  0  0  0  0  0  0  0  0  0  0  0
  157.7290  212.9280  153.8010 N   0  0  0  0  0  1  0  0  0  0  0  0
  161.3970  209.7100  151.4350 C   0  0  0  0  0  2  0  0  0  0  0  0
  161.2850  206.1000  151.7100 C   0  0  0  0  0  3  0  0  0  0  0  0
  161.2990  208.2690  151.2710 N   0  0  0  0  0  0  0  0  0  0  0  0
  161.0950  205.3480  149.3240 N   0  0  0  0  0  0  0  0  0  0  0  0
  161.3600  207.3660  152.2670 C   0  0  0  0  0  3  0  0  0  0  0  0
  161.2010  207.6690  150.0990 N   0  0  0  0  0  0  0  0  0  0  0  0
  160.9870  203.9400  149.6720 C   0  0  0  0  0  1  0  0  0  0  0  0
  161.1870  206.3490  150.3490 C   0  0  0  0  0  0  0  0  0  0  0  0
  161.8800  204.8170  147.0750 C   0  0  0  0  0  1  0  0  0  0  0  0
  160.9990  205.7200  147.9200 C   0  0  0  0  0  2  0  0  0  0  0  0
  1  7  1  0  0  0  0
  2  3  1  0  0  0  0
  3  1  1  0  0  0  0
  3 13  1  1  0  0  0
  4  2  2  0  0  0  0
  4  5  1  0  0  0  0
  5  1  2  0  0  0  0
  6  9  2  0  0  0  0
  7  6  1  0  0  0  0
  7  8  2  0  0  0  0
  9 10  1  0  0  0  0
 12 13  2  0  0  0  0
 13 11  1  0  0  0  0
 14 15  1  0  0  0  0
 14  2  1  0  0  0  0
 15 17  1  0  0  0  0
 16 15  2  0  0  0  0
 18  4  1  0  0  0  0
 19 22  2  0  0  0  0
 20 18  1  0  0  0  0
 20 22  1  0  0  0  0
 21 24  1  0  0  0  0
 21 25  1  0  0  0  0
 23 25  2  0  0  0  0
 23 20  1  0  0  0  0
 25 19  1  0  0  0  0
 26 27  1  0  0  0  0
 27 21  1  0  0  0  0
M  END
>  <MODEL>
8

>  <REMARK>
 VINA RESULT:      -5.9      2.713      4.962
  Name = 
  8 active torsions:
  status: ('A' for Active; 'I' for Inactive)
    1  A    between atoms: N_1  and  N_13
    2  A    between atoms: C_2  and  C_3
    3  A    between atoms: C_4  and  C_8
    4  A    between atoms: C_8  and  C_9
    5  A    between atoms: N_11  and  C_19
    6  A    between atoms: N_14  and  C_22
    7  A    between atoms: C_17  and  C_26
    8  A    between atoms: C_19  and  C_21
                            x       y       z     vdW  Elec       q    Type
                         _______ _______ _______ _____ _____    ______ ____

>  <TORSDO>
F 8

$$$$
=
 OpenBabel11042420473D

 27 28  0  0  1  0  0  0  0  0999 V2000
  161.2750  207.4170  151.9620 C   0  0  0  0  0  0  0  0  0  0  0  0
  161.0330  207.0310  149.7220 C   0  0  0  0  0  0  0  0  0  0  0  0
  160.6060  206.4470  151.0290 C   0  0  1  0  0  3  0  0  0  0  0  0
  161.8050  208.0840  149.9530 C   0  0  0  0  0  0  0  0  0  0  0  0
  161.9480  208.3320  151.3430 N   0  0  0  0  0  0  0  0  0  0  0  0
  161.2360  208.5900  154.1800 N   0  0  0  0  0  2  0  0  0  0  0  0
  161.1620  207.3790  153.4270 C   0  0  0  0  0  0  0  0  0  0  0  0
  161.0050  206.2770  154.0190 O   0  0  0  0  0  0  0  0  0  0  0  0
  161.1280  208.5800  155.5750 N   0  0  0  0  0  2  0  0  0  0  0  0
  160.0040  208.5470  156.1130 O   0  0  0  0  0  1  0  0  0  0  0  0
  162.3650  204.8640  151.4520 O   0  0  0  0  0  1  0  0  0  0  0  0
  160.2900  203.9730  151.0720 O   0  0  0  0  0  0  0  0  0  0  0  0
  161.1460  205.0580  151.2020 C   0  0  0  0  0  0  0  0  0  0  0  0
  160.6050  206.5400  148.3740 C   0  0  0  0  0  2  0  0  0  0  0  0
  161.6340  205.6340  147.7900 C   0  0  0  0  0  0  0  0  0  0  0  0
  162.6030  206.1140  147.1480 O   0  0  0  0  0  0  0  0  0  0  0  0
  161.5060  204.2250  147.9330 N   0  0  0  0  0  1  0  0  0  0  0  0
  162.3670  208.9920  148.9080 C   0  0  0  0  0  2  0  0  0  0  0  0
  161.4580  212.4960  148.7990 C   0  0  0  0  0  3  0  0  0  0  0  0
  161.8760  210.3450  149.1080 N   0  0  0  0  0  0  0  0  0  0  0  0
  160.4090  212.8870  151.0440 N   0  0  0  0  0  0  0  0  0  0  0  0
  161.9990  211.3550  148.2280 C   0  0  0  0  0  3  0  0  0  0  0  0
  161.3000  210.7580  150.2200 N   0  0  0  0  0  0  0  0  0  0  0  0
  160.0650  214.2690  150.7540 C   0  0  0  0  0  1  0  0  0  0  0  0
  161.0360  212.0650  150.0480 C   0  0  0  0  0  0  0  0  0  0  0  0
  158.5150  212.0520  152.3360 C   0  0  0  0  0  1  0  0  0  0  0  0
  160.0060  212.3320  152.3280 C   0  0  0  0  0  2  0  0  0  0  0  0
  1  7  1  0  0  0  0
  2  4  2  0  0  0  0
  2  3  1  0  0  0  0
  3 13  1  1  0  0  0
  3  1  1  0  0  0  0
  4  5  1  0  0  0  0
  5  1  2  0  0  0  0
  6  9  1  0  0  0  0
  7  8  2  0  0  0  0
  7  6  1  0  0  0  0
  9 10  1  0  0  0  0
 12 13  2  0  0  0  0
 13 11  1  0  0  0  0
 14  2  1  0  0  0  0
 15 17  1  0  0  0  0
 15 14  1  0  0  0  0
 16 15  2  0  0  0  0
 18 20  1  0  0  0  0
 18  4  1  0  0  0  0
 19 25  1  0  0  0  0
 20 23  1  0  0  0  0
 21 27  1  0  0  0  0
 22 19  2  0  0  0  0
 22 20  1  0  0  0  0
 24 21  1  0  0  0  0
 25 23  2  0  0  0  0
 25 21  1  0  0  0  0
 27 26  1  0  0  0  0
M  END
>  <MODEL>
9

>  <REMARK>
 VINA RESULT:      -5.6      2.587      7.339
  Name = 
  8 active torsions:
  status: ('A' for Active; 'I' for Inactive)
    1  A    between atoms: N_1  and  N_13
    2  A    between atoms: C_2  and  C_3
    3  A    between atoms: C_4  and  C_8
    4  A    between atoms: C_8  and  C_9
    5  A    between atoms: N_11  and  C_19
    6  A    between atoms: N_14  and  C_22
    7  A    between atoms: C_17  and  C_26
    8  A    between atoms: C_19  and  C_21
                            x       y       z     vdW  Elec       q    Type
                         _______ _______ _______ _____ _____    ______ ____

>  <TORSDO>
F 8

$$$$
