=
 OpenBabel11042420343D

 49 52  0  0  1  0  0  0  0  0999 V2000
  162.1120  210.3080  152.4630 C   0  0  0  0  0  2  0  0  0  0  0  0
  161.1110  207.5800  149.7630 C   0  0  2  0  0  3  0  0  0  0  0  0
  161.0710  208.7160  150.8430 C   0  0  2  0  0  0  0  0  0  0  0  0
  161.7160  209.8890  150.0780 C   0  0  0  0  0  2  0  0  0  0  0  0
  162.3870  209.3780  151.2910 C   0  0  1  0  0  3  0  0  0  0  0  0
  161.4780  207.2740  151.1620 C   0  0  0  0  0  2  0  0  0  0  0  0
  162.3380  207.5390  148.9640 N   0  0  0  0  0  2  0  0  0  0  0  0
  162.0570  206.8880  147.7420 N   0  0  0  0  0  2  0  0  0  0  0  0
  163.2400  206.1290  147.3430 C   0  0  0  0  0  2  0  0  0  0  0  0
  161.6980  205.5810  145.4840 C   0  0  0  0  0  3  0  0  0  0  0  0
  162.9470  205.1570  146.1990 C   0  0  2  0  0  3  0  0  0  0  0  0
  162.5920  203.8500  146.7470 N   0  0  0  0  0  0  0  0  0  0  0  0
  161.3630  203.5940  146.4330 C   0  0  0  0  0  0  0  0  0  0  0  0
  160.7650  204.6460  145.6200 C   0  0  0  0  0  3  0  0  0  0  0  0
  160.7060  202.3100  146.8370 C   0  0  1  0  0  3  0  0  0  0  0  0
  161.1380  200.0480  146.2010 O   0  0  0  0  0  1  0  0  0  0  0  0
  160.7130  201.2810  145.7080 C   0  0  0  0  0  2  0  0  0  0  0  0
  161.2840  201.7720  148.1460 C   0  0  0  0  0  2  0  0  0  0  0  0
  160.3540  201.9670  149.3370 C   0  0  1  0  0  3  0  0  0  0  0  0
  159.0190  201.3120  149.0350 C   0  0  0  0  0  1  0  0  0  0  0  0
  160.9710  201.3110  150.5600 C   0  0  0  0  0  2  0  0  0  0  0  0
  161.9780  202.2340  151.2320 C   0  0  0  0  0  2  0  0  0  0  0  0
  161.4410  203.6500  151.3430 C   0  0  0  0  0  2  0  0  0  0  0  0
  160.7520  203.8670  152.6890 C   0  0  0  0  0  2  0  0  0  0  0  0
  161.1560  205.1460  153.2540 N   0  0  0  0  0  1  0  0  0  0  0  0
  160.7290  210.0230  153.0480 C   0  0  2  0  0  3  0  0  0  0  0  0
  159.7400  212.3570  152.7590 C   0  0  0  0  0  0  0  0  0  0  0  0
  159.2620  213.4400  153.2920 N   0  0  0  0  0  0  0  0  0  0  0  0
  160.1260  211.2470  153.5800 N   0  0  0  0  0  2  0  0  0  0  0  0
  159.9140  212.2910  151.3360 N   0  0  0  0  0  2  0  0  0  0  0  0
  159.0200  213.6020  154.7190 C   0  0  0  0  0  2  0  0  0  0  0  0
  156.6740  213.1260  154.0180 O   0  0  0  0  0  1  0  0  0  0  0  0
  157.1080  213.8040  156.2220 C   0  0  0  0  0  2  0  0  0  0  0  0
  157.5620  213.4990  155.0140 C   0  0  0  0  0  0  0  0  0  0  0  0
  159.8320  213.4600  150.4730 C   0  0  0  0  0  2  0  0  0  0  0  0
  160.8380  213.3230  149.3450 C   0  0  0  0  0  2  0  0  0  0  0  0
  160.1710  212.8350  148.1500 N   0  0  0  0  0  2  0  0  0  0  0  0
  161.2080  212.5470  147.1640 C   0  0  0  0  0  2  0  0  0  0  0  0
  161.4250  213.0210  144.7240 C   0  0  0  0  0  1  0  0  0  0  0  0
  161.2520  213.6390  146.0960 C   0  0  1  0  0  3  0  0  0  0  0  0
  160.0550  214.3610  146.1230 O   0  0  0  0  0  1  0  0  0  0  0  0
  160.7900  208.9420  154.0490 N   0  0  0  0  0  2  0  0  0  0  0  0
  160.7630  209.3840  155.4460 C   0  0  2  0  0  0  0  0  0  0  0  0
  159.6230  207.1690  156.0260 C   0  0  0  0  0  1  0  0  0  0  0  0
  160.1640  208.4910  156.5340 C   0  0  2  0  0  3  0  0  0  0  0  0
  159.3420  209.6140  155.9180 C   0  0  0  0  0  2  0  0  0  0  0  0
  161.6630  210.5400  155.8580 C   0  0  0  0  0  2  0  0  0  0  0  0
  163.6930  210.9200  156.5980 C   0  0  0  0  0  1  0  0  0  0  0  0
  162.5800  210.1180  156.8160 O   0  0  0  0  0  0  0  0  0  0  0  0
  2  7  1  6  0  0  0
  2  3  1  0  0  0  0
  2  6  1  0  0  0  0
  3  4  1  1  0  0  0
  3  6  1  0  0  0  0
  3  5  1  0  0  0  0
  4  5  1  0  0  0  0
  5  1  1  1  0  0  0
  8  7  1  0  0  0  0
  9  8  1  0  0  0  0
 10 14  2  0  0  0  0
 10 11  1  0  0  0  0
 11 12  1  0  0  0  0
 11  9  1  1  0  0  0
 13 12  2  0  0  0  0
 13 15  1  0  0  0  0
 14 13  1  0  0  0  0
 15 17  1  6  0  0  0
 15 18  1  0  0  0  0
 17 16  1  0  0  0  0
 18 19  1  0  0  0  0
 19 20  1  6  0  0  0
 19 21  1  0  0  0  0
 21 22  1  0  0  0  0
 22 23  1  0  0  0  0
 23 24  1  0  0  0  0
 24 25  1  0  0  0  0
 26  1  1  1  0  0  0
 26 29  1  0  0  0  0
 26 42  1  0  0  0  0
 27 28  2  0  0  0  0
 27 29  1  0  0  0  0
 28 31  1  0  0  0  0
 30 27  1  0  0  0  0
 31 34  1  0  0  0  0
 32 34  1  0  0  0  0
 34 33  2  0  0  0  0
 35 30  1  0  0  0  0
 36 35  1  0  0  0  0
 37 36  1  0  0  0  0
 38 37  1  0  0  0  0
 40 39  1  6  0  0  0
 40 41  1  0  0  0  0
 40 38  1  0  0  0  0
 42 43  1  0  0  0  0
 43 47  1  1  0  0  0
 43 46  1  0  0  0  0
 43 45  1  0  0  0  0
 45 44  1  6  0  0  0
 46 45  1  0  0  0  0
 47 49  1  0  0  0  0
 48 49  1  0  0  0  0
M  END
>  <MODEL>
1

>  <REMARK>
 VINA RESULT:      -5.1      0.000      0.000
  Name = 
  26 active torsions:
  status: ('A' for Active; 'I' for Inactive)
    1  A    between atoms: C_1  and  N_12
    2  A    between atoms: C_3  and  C_4
    3  A    between atoms: C_3  and  N_32
    4  A    between atoms: C_4  and  N_49
    5  A    between atoms: C_7  and  C_17
    6  A    between atoms: C_7  and  C_24
    7  A    between atoms: C_8  and  N_10
    8  A    between atoms: C_8  and  C_23
    9  A    between atoms: N_10  and  C_44
   10  A    between atoms: C_11  and  C_39
   11  A    between atoms: N_12  and  N_15
   12  A    between atoms: C_14  and  C_37
   13  A    between atoms: N_15  and  C_37
   14  A    between atoms: C_17  and  C_39
   15  A    between atoms: C_19  and  C_46
   16  A    between atoms: C_20  and  C_28
   17  A    between atoms: C_20  and  C_44
   18  A    between atoms: C_23  and  O_35
   19  A    between atoms: C_24  and  C_36
   20  A    between atoms: C_29  and  C_31
   21  A    between atoms: C_29  and  C_36
   22  A    between atoms: C_29  and  C_47
   23  A    between atoms: N_32  and  C_46
   24  A    between atoms: N_38  and  C_43
   25  A    between atoms: C_42  and  C_43
   26  A    between atoms: C_44  and  N_48
                            x       y       z     vdW  Elec       q    Type
                         _______ _______ _______ _____ _____    ______ ____

>  <TORSDO>
F 26

$$$$
=
 OpenBabel11042420343D

 49 52  0  0  1  0  0  0  0  0999 V2000
  161.2400  211.3610  151.5880 C   0  0  0  0  0  2  0  0  0  0  0  0
  160.9540  207.4070  151.6730 C   0  0  2  0  0  3  0  0  0  0  0  0
  160.8350  208.9160  151.2700 C   0  0  2  0  0  0  0  0  0  0  0  0
  162.2950  209.2530  150.9070 C   0  0  0  0  0  2  0  0  0  0  0  0
  161.6610  209.9690  152.0330 C   0  0  1  0  0  3  0  0  0  0  0  0
  160.1310  208.3210  152.4940 C   0  0  0  0  0  2  0  0  0  0  0  0
  162.1520  207.0740  152.4490 N   0  0  0  0  0  2  0  0  0  0  0  0
  161.9660  205.8030  153.0380 N   0  0  0  0  0  2  0  0  0  0  0  0
  162.3270  204.7840  152.0550 C   0  0  0  0  0  2  0  0  0  0  0  0
  160.9300  202.7630  151.7430 C   0  0  0  0  0  3  0  0  0  0  0  0
  161.1020  204.2000  151.3490 C   0  0  2  0  0  3  0  0  0  0  0  0
  161.3570  204.1250  149.9120 N   0  0  0  0  0  0  0  0  0  0  0  0
  161.3630  202.8800  149.5610 C   0  0  0  0  0  0  0  0  0  0  0  0
  161.0780  201.9860  150.6770 C   0  0  0  0  0  3  0  0  0  0  0  0
  161.5810  202.4720  148.1370 C   0  0  1  0  0  3  0  0  0  0  0  0
  161.1600  200.7160  146.5710 O   0  0  0  0  0  1  0  0  0  0  0  0
  161.3540  200.9750  147.9270 C   0  0  0  0  0  2  0  0  0  0  0  0
  160.7740  203.3440  147.1740 C   0  0  0  0  0  2  0  0  0  0  0  0
  161.3460  203.3640  145.7630 C   0  0  1  0  0  3  0  0  0  0  0  0
  160.4140  204.1510  144.8610 C   0  0  0  0  0  1  0  0  0  0  0  0
  162.7070  204.0390  145.7890 C   0  0  0  0  0  2  0  0  0  0  0  0
  162.5710  205.5530  145.8660 C   0  0  0  0  0  2  0  0  0  0  0  0
  162.5030  206.0290  147.3060 C   0  0  0  0  0  2  0  0  0  0  0  0
  161.4740  207.1480  147.4610 C   0  0  0  0  0  2  0  0  0  0  0  0
  160.3490  206.6830  148.2580 N   0  0  0  0  0  1  0  0  0  0  0  0
  160.2740  211.9700  152.6030 C   0  0  2  0  0  3  0  0  0  0  0  0
  160.0850  211.7000  155.1330 C   0  0  0  0  0  0  0  0  0  0  0  0
  160.0860  210.9260  156.1740 N   0  0  0  0  0  0  0  0  0  0  0  0
  160.2050  211.1500  153.8140 N   0  0  0  0  0  2  0  0  0  0  0  0
  160.0010  213.1210  155.3120 N   0  0  0  0  0  2  0  0  0  0  0  0
  160.1390  209.4720  156.1040 C   0  0  0  0  0  2  0  0  0  0  0  0
  162.4260  209.8700  157.0160 O   0  0  0  0  0  1  0  0  0  0  0  0
  161.6970  207.6720  156.6400 C   0  0  0  0  0  2  0  0  0  0  0  0
  161.4500  208.9740  156.6120 C   0  0  0  0  0  0  0  0  0  0  0  0
  160.1770  213.7680  156.6030 C   0  0  0  0  0  2  0  0  0  0  0  0
  158.8220  213.9570  157.2610 C   0  0  0  0  0  2  0  0  0  0  0  0
  157.8290  214.2800  156.2510 N   0  0  0  0  0  2  0  0  0  0  0  0
  156.5230  214.2380  156.9020 C   0  0  0  0  0  2  0  0  0  0  0  0
  156.5650  211.7430  156.9080 C   0  0  0  0  0  1  0  0  0  0  0  0
  155.7680  212.9690  156.5100 C   0  0  1  0  0  3  0  0  0  0  0  0
  154.5340  212.9430  157.1680 O   0  0  0  0  0  1  0  0  0  0  0  0
  158.9480  212.2000  151.9990 N   0  0  0  0  0  2  0  0  0  0  0  0
  158.7290  213.5500  151.4700 C   0  0  2  0  0  0  0  0  0  0  0  0
  156.6650  213.7020  152.9720 C   0  0  0  0  0  1  0  0  0  0  0  0
  157.5450  214.3910  151.9480 C   0  0  2  0  0  3  0  0  0  0  0  0
  157.4610  213.6130  150.6430 C   0  0  0  0  0  2  0  0  0  0  0  0
  159.8790  214.2410  150.7510 C   0  0  0  0  0  2  0  0  0  0  0  0
  161.0450  214.4530  148.9050 C   0  0  0  0  0  1  0  0  0  0  0  0
  160.1260  213.6210  149.5310 O   0  0  0  0  0  0  0  0  0  0  0  0
  2  7  1  1  0  0  0
  2  6  1  0  0  0  0
  3  4  1  6  0  0  0
  3  2  1  0  0  0  0
  3  5  1  0  0  0  0
  3  6  1  0  0  0  0
  4  5  1  0  0  0  0
  5  1  1  6  0  0  0
  7  8  1  0  0  0  0
  9  8  1  0  0  0  0
 11 10  1  0  0  0  0
 11  9  1  1  0  0  0
 12 11  1  0  0  0  0
 13 12  2  0  0  0  0
 13 14  1  0  0  0  0
 14 10  2  0  0  0  0
 15 18  1  6  0  0  0
 15 13  1  0  0  0  0
 16 17  1  0  0  0  0
 17 15  1  0  0  0  0
 19 20  1  6  0  0  0
 19 21  1  0  0  0  0
 19 18  1  0  0  0  0
 21 22  1  0  0  0  0
 22 23  1  0  0  0  0
 23 24  1  0  0  0  0
 24 25  1  0  0  0  0
 26  1  1  6  0  0  0
 26 29  1  0  0  0  0
 27 30  1  0  0  0  0
 27 28  2  0  0  0  0
 29 27  1  0  0  0  0
 30 35  1  0  0  0  0
 31 28  1  0  0  0  0
 31 34  1  0  0  0  0
 34 33  2  0  0  0  0
 34 32  1  0  0  0  0
 35 36  1  0  0  0  0
 37 38  1  0  0  0  0
 37 36  1  0  0  0  0
 40 38  1  0  0  0  0
 40 39  1  1  0  0  0
 40 41  1  0  0  0  0
 42 26  1  0  0  0  0
 43 47  1  6  0  0  0
 43 45  1  0  0  0  0
 43 42  1  0  0  0  0
 45 44  1  1  0  0  0
 46 43  1  0  0  0  0
 46 45  1  0  0  0  0
 48 49  1  0  0  0  0
 49 47  1  0  0  0  0
M  END
>  <MODEL>
2

>  <REMARK>
 VINA RESULT:      -4.9      1.887      6.109
  Name = 
  26 active torsions:
  status: ('A' for Active; 'I' for Inactive)
    1  A    between atoms: C_1  and  N_12
    2  A    between atoms: C_3  and  C_4
    3  A    between atoms: C_3  and  N_32
    4  A    between atoms: C_4  and  N_49
    5  A    between atoms: C_7  and  C_17
    6  A    between atoms: C_7  and  C_24
    7  A    between atoms: C_8  and  N_10
    8  A    between atoms: C_8  and  C_23
    9  A    between atoms: N_10  and  C_44
   10  A    between atoms: C_11  and  C_39
   11  A    between atoms: N_12  and  N_15
   12  A    between atoms: C_14  and  C_37
   13  A    between atoms: N_15  and  C_37
   14  A    between atoms: C_17  and  C_39
   15  A    between atoms: C_19  and  C_46
   16  A    between atoms: C_20  and  C_28
   17  A    between atoms: C_20  and  C_44
   18  A    between atoms: C_23  and  O_35
   19  A    between atoms: C_24  and  C_36
   20  A    between atoms: C_29  and  C_31
   21  A    between atoms: C_29  and  C_36
   22  A    between atoms: C_29  and  C_47
   23  A    between atoms: N_32  and  C_46
   24  A    between atoms: N_38  and  C_43
   25  A    between atoms: C_42  and  C_43
   26  A    between atoms: C_44  and  N_48
                            x       y       z     vdW  Elec       q    Type
                         _______ _______ _______ _____ _____    ______ ____

>  <TORSDO>
F 26

$$$$
=
 OpenBabel11042420343D

 49 52  0  0  1  0  0  0  0  0999 V2000
  162.2880  206.3280  148.4490 C   0  0  0  0  0  2  0  0  0  0  0  0
  161.6060  204.8080  144.8500 C   0  0  2  0  0  3  0  0  0  0  0  0
  161.6670  205.0430  146.3980 C   0  0  2  0  0  0  0  0  0  0  0  0
  160.7210  206.2510  146.5620 C   0  0  0  0  0  2  0  0  0  0  0  0
  162.1420  206.4050  146.9370 C   0  0  1  0  0  3  0  0  0  0  0  0
  162.9060  204.7430  145.5500 C   0  0  0  0  0  2  0  0  0  0  0  0
  161.5970  206.0330  144.0450 N   0  0  0  0  0  2  0  0  0  0  0  0
  161.3440  205.6840  142.6990 N   0  0  0  0  0  2  0  0  0  0  0  0
  161.9960  206.6690  141.8400 C   0  0  0  0  0  2  0  0  0  0  0  0
  162.9810  206.4770  139.5750 C   0  0  0  0  0  3  0  0  0  0  0  0
  161.7020  206.4310  140.3570 C   0  0  2  0  0  3  0  0  0  0  0  0
  160.9410  207.5590  139.8230 N   0  0  0  0  0  0  0  0  0  0  0  0
  161.6650  208.1550  138.9300 C   0  0  0  0  0  0  0  0  0  0  0  0
  162.9490  207.4960  138.7250 C   0  0  0  0  0  3  0  0  0  0  0  0
  161.1540  209.3460  138.1810 C   0  0  1  0  0  3  0  0  0  0  0  0
  158.8280  209.8780  138.0380 O   0  0  0  0  0  1  0  0  0  0  0  0
  159.8190  209.0630  137.4920 C   0  0  0  0  0  2  0  0  0  0  0  0
  161.1220  210.5930  139.0660 C   0  0  0  0  0  2  0  0  0  0  0  0
  162.3450  210.7190  139.9650 C   0  0  1  0  0  3  0  0  0  0  0  0
  163.3310  211.6810  139.3300 C   0  0  0  0  0  1  0  0  0  0  0  0
  161.9120  211.2620  141.3160 C   0  0  0  0  0  2  0  0  0  0  0  0
  162.5130  212.6370  141.5770 C   0  0  0  0  0  2  0  0  0  0  0  0
  161.6090  213.4740  142.4650 C   0  0  0  0  0  2  0  0  0  0  0  0
  161.6070  212.9400  143.8970 C   0  0  0  0  0  2  0  0  0  0  0  0
  162.8900  213.2080  144.5280 N   0  0  0  0  0  1  0  0  0  0  0  0
  161.3040  207.2830  149.1230 C   0  0  2  0  0  3  0  0  0  0  0  0
  161.9810  209.6280  149.8670 C   0  0  0  0  0  0  0  0  0  0  0  0
  162.2300  210.8650  149.5650 N   0  0  0  0  0  0  0  0  0  0  0  0
  161.6560  208.6770  148.8440 N   0  0  0  0  0  2  0  0  0  0  0  0
  161.9960  209.2220  151.2430 N   0  0  0  0  0  2  0  0  0  0  0  0
  162.2680  211.3750  148.2010 C   0  0  0  0  0  2  0  0  0  0  0  0
  160.1490  212.2110  147.1840 O   0  0  0  0  0  1  0  0  0  0  0  0
  161.3800  213.6110  148.6090 C   0  0  0  0  0  2  0  0  0  0  0  0
  161.2370  212.4350  148.0130 C   0  0  0  0  0  0  0  0  0  0  0  0
  162.0190  210.1700  152.3480 C   0  0  0  0  0  2  0  0  0  0  0  0
  160.6090  210.6640  152.6150 C   0  0  0  0  0  2  0  0  0  0  0  0
  160.2230  210.3330  153.9760 N   0  0  0  0  0  2  0  0  0  0  0  0
  160.5760  211.4740  154.8140 C   0  0  0  0  0  2  0  0  0  0  0  0
  158.0820  211.4860  154.8990 C   0  0  0  0  0  1  0  0  0  0  0  0
  159.3350  212.3010  155.1460 C   0  0  1  0  0  3  0  0  0  0  0  0
  159.3760  212.6760  156.4930 O   0  0  0  0  0  1  0  0  0  0  0  0
  161.2010  207.0040  150.5670 N   0  0  0  0  0  2  0  0  0  0  0  0
  161.0120  205.5930  150.9180 C   0  0  2  0  0  0  0  0  0  0  0  0
  161.2360  206.2700  153.3740 C   0  0  0  0  0  1  0  0  0  0  0  0
  161.0170  205.1470  152.3810 C   0  0  2  0  0  3  0  0  0  0  0  0
  162.2700  205.0090  151.5280 C   0  0  0  0  0  2  0  0  0  0  0  0
  160.4360  204.6560  149.8660 C   0  0  0  0  0  2  0  0  0  0  0  0
  160.3870  202.5550  149.2380 C   0  0  0  0  0  1  0  0  0  0  0  0
  161.2430  203.5310  149.7300 O   0  0  0  0  0  0  0  0  0  0  0  0
  2  7  1  6  0  0  0
  2  6  1  0  0  0  0
  2  3  1  0  0  0  0
  3  6  1  1  0  0  0
  3  4  1  0  0  0  0
  3  5  1  0  0  0  0
  4  5  1  0  0  0  0
  5  1  1  1  0  0  0
  8  7  1  0  0  0  0
  9  8  1  0  0  0  0
 10 11  1  0  0  0  0
 11  9  1  1  0  0  0
 12 11  1  0  0  0  0
 13 12  2  0  0  0  0
 14 13  1  0  0  0  0
 14 10  2  0  0  0  0
 15 17  1  1  0  0  0
 15 13  1  0  0  0  0
 15 18  1  0  0  0  0
 17 16  1  0  0  0  0
 18 19  1  0  0  0  0
 19 20  1  6  0  0  0
 19 21  1  0  0  0  0
 21 22  1  0  0  0  0
 22 23  1  0  0  0  0
 23 24  1  0  0  0  0
 24 25  1  0  0  0  0
 26  1  1  1  0  0  0
 26 42  1  0  0  0  0
 27 30  1  0  0  0  0
 28 27  2  0  0  0  0
 29 26  1  0  0  0  0
 29 27  1  0  0  0  0
 30 35  1  0  0  0  0
 31 28  1  0  0  0  0
 32 34  1  0  0  0  0
 34 31  1  0  0  0  0
 34 33  2  0  0  0  0
 35 36  1  0  0  0  0
 36 37  1  0  0  0  0
 37 38  1  0  0  0  0
 38 40  1  0  0  0  0
 40 39  1  1  0  0  0
 40 41  1  0  0  0  0
 42 43  1  0  0  0  0
 43 47  1  6  0  0  0
 43 46  1  0  0  0  0
 43 45  1  0  0  0  0
 45 44  1  1  0  0  0
 46 45  1  0  0  0  0
 48 49  1  0  0  0  0
 49 47  1  0  0  0  0
M  END
>  <MODEL>
3

>  <REMARK>
 VINA RESULT:      -4.8      3.934      8.647
  Name = 
  26 active torsions:
  status: ('A' for Active; 'I' for Inactive)
    1  A    between atoms: C_1  and  N_12
    2  A    between atoms: C_3  and  C_4
    3  A    between atoms: C_3  and  N_32
    4  A    between atoms: C_4  and  N_49
    5  A    between atoms: C_7  and  C_17
    6  A    between atoms: C_7  and  C_24
    7  A    between atoms: C_8  and  N_10
    8  A    between atoms: C_8  and  C_23
    9  A    between atoms: N_10  and  C_44
   10  A    between atoms: C_11  and  C_39
   11  A    between atoms: N_12  and  N_15
   12  A    between atoms: C_14  and  C_37
   13  A    between atoms: N_15  and  C_37
   14  A    between atoms: C_17  and  C_39
   15  A    between atoms: C_19  and  C_46
   16  A    between atoms: C_20  and  C_28
   17  A    between atoms: C_20  and  C_44
   18  A    between atoms: C_23  and  O_35
   19  A    between atoms: C_24  and  C_36
   20  A    between atoms: C_29  and  C_31
   21  A    between atoms: C_29  and  C_36
   22  A    between atoms: C_29  and  C_47
   23  A    between atoms: N_32  and  C_46
   24  A    between atoms: N_38  and  C_43
   25  A    between atoms: C_42  and  C_43
   26  A    between atoms: C_44  and  N_48
                            x       y       z     vdW  Elec       q    Type
                         _______ _______ _______ _____ _____    ______ ____

>  <TORSDO>
F 26

$$$$
=
 OpenBabel11042420343D

 49 52  0  0  1  0  0  0  0  0999 V2000
  159.9090  209.4340  153.0770 C   0  0  0  0  0  2  0  0  0  0  0  0
  162.7350  208.3840  150.5000 C   0  0  2  0  0  3  0  0  0  0  0  0
  161.8960  208.6120  151.8040 C   0  0  2  0  0  0  0  0  0  0  0  0
  160.6990  207.6690  151.5660 C   0  0  0  0  0  2  0  0  0  0  0  0
  160.4460  209.1200  151.6890 C   0  0  1  0  0  3  0  0  0  0  0  0
  162.5480  209.7550  151.0200 C   0  0  0  0  0  2  0  0  0  0  0  0
  161.9410  208.2630  149.2750 N   0  0  0  0  0  2  0  0  0  0  0  0
  162.7530  207.6980  148.2670 N   0  0  0  0  0  2  0  0  0  0  0  0
  161.8880  207.2380  147.1840 C   0  0  0  0  0  2  0  0  0  0  0  0
  161.8250  205.8520  145.1310 C   0  0  0  0  0  3  0  0  0  0  0  0
  162.4340  205.9850  146.4960 C   0  0  2  0  0  3  0  0  0  0  0  0
  161.9540  204.7950  147.1950 N   0  0  0  0  0  0  0  0  0  0  0  0
  161.1890  204.1290  146.3920 C   0  0  0  0  0  0  0  0  0  0  0  0
  161.0940  204.7450  145.0740 C   0  0  0  0  0  3  0  0  0  0  0  0
  160.5520  202.8400  146.8110 C   0  0  1  0  0  3  0  0  0  0  0  0
  159.4790  201.2610  145.3740 O   0  0  0  0  0  1  0  0  0  0  0  0
  160.7280  201.7440  145.7610 C   0  0  0  0  0  2  0  0  0  0  0  0
  161.0110  202.4170  148.2070 C   0  0  0  0  0  2  0  0  0  0  0  0
  160.7160  200.9540  148.5160 C   0  0  1  0  0  3  0  0  0  0  0  0
  161.9300  200.1180  148.1580 C   0  0  0  0  0  1  0  0  0  0  0  0
  160.4250  200.8100  149.9990 C   0  0  0  0  0  2  0  0  0  0  0  0
  161.3210  201.7190  150.8290 C   0  0  0  0  0  2  0  0  0  0  0  0
  160.7920  203.1430  150.8510 C   0  0  0  0  0  2  0  0  0  0  0  0
  160.8000  203.7040  152.2720 C   0  0  0  0  0  2  0  0  0  0  0  0
  161.8120  204.7420  152.3910 N   0  0  0  0  0  1  0  0  0  0  0  0
  160.3000  210.8540  153.4850 C   0  0  2  0  0  3  0  0  0  0  0  0
  159.5380  212.8370  152.0710 C   0  0  0  0  0  0  0  0  0  0  0  0
  159.6450  213.5370  150.9840 N   0  0  0  0  0  0  0  0  0  0  0  0
  160.4080  211.7220  152.3100 N   0  0  0  0  0  2  0  0  0  0  0  0
  158.5150  213.1640  153.0220 N   0  0  0  0  0  2  0  0  0  0  0  0
  160.6640  213.3080  149.9680 C   0  0  0  0  0  2  0  0  0  0  0  0
  160.9310  214.2290  147.6660 O   0  0  0  0  0  1  0  0  0  0  0  0
  158.8620  213.3390  148.3230 C   0  0  0  0  0  2  0  0  0  0  0  0
  160.1260  213.6160  148.6120 C   0  0  0  0  0  0  0  0  0  0  0  0
  157.4170  214.0720  152.7230 C   0  0  0  0  0  2  0  0  0  0  0  0
  156.2960  213.8510  153.7220 C   0  0  0  0  0  2  0  0  0  0  0  0
  156.5060  212.5960  154.4230 N   0  0  0  0  0  2  0  0  0  0  0  0
  155.4490  212.4790  155.4240 C   0  0  0  0  0  2  0  0  0  0  0  0
  156.9500  211.7020  157.2590 C   0  0  0  0  0  1  0  0  0  0  0  0
  155.9920  212.7890  156.8170 C   0  0  1  0  0  3  0  0  0  0  0  0
  156.6730  214.0110  156.7870 O   0  0  0  0  0  1  0  0  0  0  0  0
  161.5290  210.8510  154.3010 N   0  0  0  0  0  2  0  0  0  0  0  0
  161.3370  210.5170  155.7150 C   0  0  2  0  0  0  0  0  0  0  0  0
  160.0580  212.7170  155.9640 C   0  0  0  0  0  1  0  0  0  0  0  0
  160.5670  211.4600  156.6400 C   0  0  2  0  0  3  0  0  0  0  0  0
  162.0880  211.4820  156.6100 C   0  0  0  0  0  2  0  0  0  0  0  0
  161.5670  209.0790  156.1580 C   0  0  0  0  0  2  0  0  0  0  0  0
  160.3610  207.2710  155.8610 C   0  0  0  0  0  1  0  0  0  0  0  0
  161.1340  208.1970  155.1730 O   0  0  0  0  0  0  0  0  0  0  0  0
  2  7  1  6  0  0  0
  2  6  1  0  0  0  0
  2  3  1  0  0  0  0
  3  6  1  1  0  0  0
  4  5  1  0  0  0  0
  4  3  1  0  0  0  0
  5  3  1  0  0  0  0
  5  1  1  1  0  0  0
  8  7  1  0  0  0  0
  9  8  1  0  0  0  0
 10 11  1  0  0  0  0
 11  9  1  1  0  0  0
 11 12  1  0  0  0  0
 13 15  1  0  0  0  0
 13 12  2  0  0  0  0
 14 10  2  0  0  0  0
 14 13  1  0  0  0  0
 15 17  1  6  0  0  0
 15 18  1  0  0  0  0
 16 17  1  0  0  0  0
 18 19  1  0  0  0  0
 19 20  1  1  0  0  0
 19 21  1  0  0  0  0
 21 22  1  0  0  0  0
 22 23  1  0  0  0  0
 23 24  1  0  0  0  0
 24 25  1  0  0  0  0
 26  1  1  6  0  0  0
 26 42  1  0  0  0  0
 27 29  1  0  0  0  0
 27 30  1  0  0  0  0
 28 27  2  0  0  0  0
 29 26  1  0  0  0  0
 31 28  1  0  0  0  0
 32 34  1  0  0  0  0
 33 34  2  0  0  0  0
 34 31  1  0  0  0  0
 35 30  1  0  0  0  0
 35 36  1  0  0  0  0
 36 37  1  0  0  0  0
 37 38  1  0  0  0  0
 38 40  1  0  0  0  0
 40 39  1  6  0  0  0
 41 40  1  0  0  0  0
 42 43  1  0  0  0  0
 43 47  1  1  0  0  0
 43 46  1  0  0  0  0
 43 45  1  0  0  0  0
 45 44  1  6  0  0  0
 46 45  1  0  0  0  0
 49 48  1  0  0  0  0
 49 47  1  0  0  0  0
M  END
>  <MODEL>
4

>  <REMARK>
 VINA RESULT:      -4.6      1.580      4.566
  Name = 
  26 active torsions:
  status: ('A' for Active; 'I' for Inactive)
    1  A    between atoms: C_1  and  N_12
    2  A    between atoms: C_3  and  C_4
    3  A    between atoms: C_3  and  N_32
    4  A    between atoms: C_4  and  N_49
    5  A    between atoms: C_7  and  C_17
    6  A    between atoms: C_7  and  C_24
    7  A    between atoms: C_8  and  N_10
    8  A    between atoms: C_8  and  C_23
    9  A    between atoms: N_10  and  C_44
   10  A    between atoms: C_11  and  C_39
   11  A    between atoms: N_12  and  N_15
   12  A    between atoms: C_14  and  C_37
   13  A    between atoms: N_15  and  C_37
   14  A    between atoms: C_17  and  C_39
   15  A    between atoms: C_19  and  C_46
   16  A    between atoms: C_20  and  C_28
   17  A    between atoms: C_20  and  C_44
   18  A    between atoms: C_23  and  O_35
   19  A    between atoms: C_24  and  C_36
   20  A    between atoms: C_29  and  C_31
   21  A    between atoms: C_29  and  C_36
   22  A    between atoms: C_29  and  C_47
   23  A    between atoms: N_32  and  C_46
   24  A    between atoms: N_38  and  C_43
   25  A    between atoms: C_42  and  C_43
   26  A    between atoms: C_44  and  N_48
                            x       y       z     vdW  Elec       q    Type
                         _______ _______ _______ _____ _____    ______ ____

>  <TORSDO>
F 26

$$$$
=
 OpenBabel11042420343D

 49 52  0  0  1  0  0  0  0  0999 V2000
  162.5390  206.0610  148.3630 C   0  0  0  0  0  2  0  0  0  0  0  0
  161.4440  204.7680  144.7770 C   0  0  2  0  0  3  0  0  0  0  0  0
  161.5800  204.9830  146.3230 C   0  0  2  0  0  0  0  0  0  0  0  0
  160.9920  206.4000  146.4880 C   0  0  0  0  0  2  0  0  0  0  0  0
  162.4060  206.1700  146.8510 C   0  0  1  0  0  3  0  0  0  0  0  0
  162.6870  204.3610  145.4670 C   0  0  0  0  0  2  0  0  0  0  0  0
  161.7560  205.9490  143.9660 N   0  0  0  0  0  2  0  0  0  0  0  0
  161.3290  205.7080  142.6410 N   0  0  0  0  0  2  0  0  0  0  0  0
  162.0020  206.6610  141.7620 C   0  0  0  0  0  2  0  0  0  0  0  0
  162.7100  206.4280  139.3990 C   0  0  0  0  0  3  0  0  0  0  0  0
  161.5250  206.5510  140.3120 C   0  0  2  0  0  3  0  0  0  0  0  0
  160.9140  207.8140  139.9020 N   0  0  0  0  0  0  0  0  0  0  0  0
  161.6340  208.3290  138.9570 C   0  0  0  0  0  0  0  0  0  0  0  0
  162.7630  207.4820  138.5930 C   0  0  0  0  0  3  0  0  0  0  0  0
  161.2570  209.6250  138.3080 C   0  0  1  0  0  3  0  0  0  0  0  0
  163.1110  211.0790  137.9120 O   0  0  0  0  0  1  0  0  0  0  0  0
  162.3170  210.1000  137.3160 C   0  0  0  0  0  2  0  0  0  0  0  0
  159.8530  209.5620  137.7060 C   0  0  0  0  0  2  0  0  0  0  0  0
  159.0700  210.8580  137.8760 C   0  0  1  0  0  3  0  0  0  0  0  0
  157.6670  210.5300  138.3520 C   0  0  0  0  0  1  0  0  0  0  0  0
  159.7640  211.7230  138.9130 C   0  0  0  0  0  2  0  0  0  0  0  0
  158.8050  212.1320  140.0220 C   0  0  0  0  0  2  0  0  0  0  0  0
  159.5330  212.3010  141.3450 C   0  0  0  0  0  2  0  0  0  0  0  0
  159.1590  213.6270  142.0060 C   0  0  0  0  0  2  0  0  0  0  0  0
  158.4060  214.4520  141.0730 N   0  0  0  0  0  1  0  0  0  0  0  0
  161.4480  206.8820  149.0490 C   0  0  2  0  0  3  0  0  0  0  0  0
  161.9820  209.3160  149.5960 C   0  0  0  0  0  0  0  0  0  0  0  0
  162.0000  210.5620  149.2330 N   0  0  0  0  0  0  0  0  0  0  0  0
  161.5530  208.2960  148.6840 N   0  0  0  0  0  2  0  0  0  0  0  0
  162.3610  208.9670  150.9350 N   0  0  0  0  0  2  0  0  0  0  0  0
  161.6630  211.0220  147.8930 C   0  0  0  0  0  2  0  0  0  0  0  0
  162.3540  213.1120  146.7200 O   0  0  0  0  0  1  0  0  0  0  0  0
  161.2980  213.2530  148.8100 C   0  0  0  0  0  2  0  0  0  0  0  0
  161.7550  212.5080  147.8140 C   0  0  0  0  0  0  0  0  0  0  0  0
  162.5170  209.9510  151.9960 C   0  0  0  0  0  2  0  0  0  0  0  0
  161.4820  209.6930  153.0760 C   0  0  0  0  0  2  0  0  0  0  0  0
  161.0400  210.9570  153.6410 N   0  0  0  0  0  2  0  0  0  0  0  0
  160.0710  210.6450  154.6880 C   0  0  0  0  0  2  0  0  0  0  0  0
  162.0570  210.1660  156.1210 C   0  0  0  0  0  1  0  0  0  0  0  0
  160.6780  209.6890  155.7140 C   0  0  1  0  0  3  0  0  0  0  0  0
  159.8590  209.6450  156.8470 O   0  0  0  0  0  1  0  0  0  0  0  0
  161.4670  206.6720  150.5090 N   0  0  0  0  0  2  0  0  0  0  0  0
  161.0160  205.3500  150.9540 C   0  0  2  0  0  0  0  0  0  0  0  0
  161.2350  206.1900  153.3600 C   0  0  0  0  0  1  0  0  0  0  0  0
  160.8700  205.0390  152.4440 C   0  0  2  0  0  3  0  0  0  0  0  0
  162.1200  204.6140  151.6860 C   0  0  0  0  0  2  0  0  0  0  0  0
  160.3360  204.4380  149.9430 C   0  0  0  0  0  2  0  0  0  0  0  0
  160.8530  202.7140  148.6900 C   0  0  0  0  0  1  0  0  0  0  0  0
  160.8820  203.1600  150.0040 O   0  0  0  0  0  0  0  0  0  0  0  0
  2  7  1  6  0  0  0
  2  6  1  0  0  0  0
  2  3  1  0  0  0  0
  3  6  1  1  0  0  0
  3  4  1  0  0  0  0
  3  5  1  0  0  0  0
  4  5  1  0  0  0  0
  5  1  1  1  0  0  0
  8  7  1  0  0  0  0
  9  8  1  0  0  0  0
 10 11  1  0  0  0  0
 11  9  1  1  0  0  0
 12 11  1  0  0  0  0
 13 12  2  0  0  0  0
 14 13  1  0  0  0  0
 14 10  2  0  0  0  0
 15 17  1  6  0  0  0
 15 13  1  0  0  0  0
 17 16  1  0  0  0  0
 18 19  1  0  0  0  0
 18 15  1  0  0  0  0
 19 20  1  1  0  0  0
 19 21  1  0  0  0  0
 21 22  1  0  0  0  0
 22 23  1  0  0  0  0
 23 24  1  0  0  0  0
 25 24  1  0  0  0  0
 26  1  1  6  0  0  0
 26 42  1  0  0  0  0
 27 30  1  0  0  0  0
 28 27  2  0  0  0  0
 29 26  1  0  0  0  0
 29 27  1  0  0  0  0
 30 35  1  0  0  0  0
 31 28  1  0  0  0  0
 32 34  1  0  0  0  0
 34 31  1  0  0  0  0
 34 33  2  0  0  0  0
 35 36  1  0  0  0  0
 36 37  1  0  0  0  0
 37 38  1  0  0  0  0
 38 40  1  0  0  0  0
 40 39  1  1  0  0  0
 40 41  1  0  0  0  0
 42 43  1  0  0  0  0
 43 47  1  6  0  0  0
 43 46  1  0  0  0  0
 43 45  1  0  0  0  0
 45 44  1  1  0  0  0
 46 45  1  0  0  0  0
 47 49  1  0  0  0  0
 48 49  1  0  0  0  0
M  END
>  <MODEL>
5

>  <REMARK>
 VINA RESULT:      -4.3      4.326      9.201
  Name = 
  26 active torsions:
  status: ('A' for Active; 'I' for Inactive)
    1  A    between atoms: C_1  and  N_12
    2  A    between atoms: C_3  and  C_4
    3  A    between atoms: C_3  and  N_32
    4  A    between atoms: C_4  and  N_49
    5  A    between atoms: C_7  and  C_17
    6  A    between atoms: C_7  and  C_24
    7  A    between atoms: C_8  and  N_10
    8  A    between atoms: C_8  and  C_23
    9  A    between atoms: N_10  and  C_44
   10  A    between atoms: C_11  and  C_39
   11  A    between atoms: N_12  and  N_15
   12  A    between atoms: C_14  and  C_37
   13  A    between atoms: N_15  and  C_37
   14  A    between atoms: C_17  and  C_39
   15  A    between atoms: C_19  and  C_46
   16  A    between atoms: C_20  and  C_28
   17  A    between atoms: C_20  and  C_44
   18  A    between atoms: C_23  and  O_35
   19  A    between atoms: C_24  and  C_36
   20  A    between atoms: C_29  and  C_31
   21  A    between atoms: C_29  and  C_36
   22  A    between atoms: C_29  and  C_47
   23  A    between atoms: N_32  and  C_46
   24  A    between atoms: N_38  and  C_43
   25  A    between atoms: C_42  and  C_43
   26  A    between atoms: C_44  and  N_48
                            x       y       z     vdW  Elec       q    Type
                         _______ _______ _______ _____ _____    ______ ____

>  <TORSDO>
F 26

$$$$
=
 OpenBabel11042420343D

 49 52  0  0  1  0  0  0  0  0999 V2000
  160.8240  206.8000  150.0320 C   0  0  0  0  0  2  0  0  0  0  0  0
  162.4730  210.4060  150.0620 C   0  0  2  0  0  3  0  0  0  0  0  0
  162.1890  208.8790  150.2690 C   0  0  2  0  0  0  0  0  0  0  0  0
  162.2930  208.3500  148.8240 C   0  0  0  0  0  2  0  0  0  0  0  0
  161.0030  208.2260  149.5340 C   0  0  1  0  0  3  0  0  0  0  0  0
  161.3830  209.9800  150.9640 C   0  0  0  0  0  2  0  0  0  0  0  0
  161.8560  210.9870  148.8660 N   0  0  0  0  0  2  0  0  0  0  0  0
  162.2140  212.3520  148.7930 N   0  0  0  0  0  2  0  0  0  0  0  0
  162.3350  212.7200  147.3850 C   0  0  0  0  0  2  0  0  0  0  0  0
  159.9970  212.4500  146.6110 C   0  0  0  0  0  3  0  0  0  0  0  0
  161.0910  213.4450  146.8660 C   0  0  2  0  0  3  0  0  0  0  0  0
  161.3630  213.9920  145.5380 N   0  0  0  0  0  0  0  0  0  0  0  0
  160.5940  213.3970  144.6840 C   0  0  0  0  0  0  0  0  0  0  0  0
  159.7020  212.4320  145.3170 C   0  0  0  0  0  3  0  0  0  0  0  0
  160.6210  213.7520  143.2300 C   0  0  1  0  0  3  0  0  0  0  0  0
  162.7010  212.5760  143.3010 O   0  0  0  0  0  1  0  0  0  0  0  0
  162.0140  213.5840  142.6240 C   0  0  0  0  0  2  0  0  0  0  0  0
  159.5330  213.0120  142.4520 C   0  0  0  0  0  2  0  0  0  0  0  0
  159.8720  212.8270  140.9780 C   0  0  1  0  0  3  0  0  0  0  0  0
  160.0650  211.3480  140.6960 C   0  0  0  0  0  1  0  0  0  0  0  0
  158.7240  213.3540  140.1350 C   0  0  0  0  0  2  0  0  0  0  0  0
  157.7930  212.2290  139.7040 C   0  0  0  0  0  2  0  0  0  0  0  0
  156.5290  212.7740  139.0620 C   0  0  0  0  0  2  0  0  0  0  0  0
  155.3220  211.9070  139.4160 C   0  0  0  0  0  2  0  0  0  0  0  0
  154.1970  212.2460  138.5580 N   0  0  0  0  0  1  0  0  0  0  0  0
  162.0830  205.9810  149.7500 C   0  0  2  0  0  3  0  0  0  0  0  0
  161.4230  204.2830  147.9620 C   0  0  0  0  0  0  0  0  0  0  0  0
  161.5080  203.8650  146.7370 N   0  0  0  0  0  0  0  0  0  0  0  0
  162.0860  205.4880  148.3710 N   0  0  0  0  0  2  0  0  0  0  0  0
  160.6890  203.5090  148.9210 N   0  0  0  0  0  2  0  0  0  0  0  0
  162.2040  204.5860  145.6800 C   0  0  0  0  0  2  0  0  0  0  0  0
  160.3280  206.2270  145.5990 O   0  0  0  0  0  1  0  0  0  0  0  0
  161.2580  205.4340  143.5960 C   0  0  0  0  0  2  0  0  0  0  0  0
  161.2500  205.4460  144.9220 C   0  0  0  0  0  0  0  0  0  0  0  0
  160.2470  202.1460  148.6680 C   0  0  0  0  0  2  0  0  0  0  0  0
  161.3440  201.1780  149.0730 C   0  0  0  0  0  2  0  0  0  0  0  0
  161.7040  200.3440  147.9390 N   0  0  0  0  0  2  0  0  0  0  0  0
  160.5890  200.3910  146.9980 C   0  0  0  0  0  2  0  0  0  0  0  0
  161.2220  198.5730  145.4100 C   0  0  0  0  0  1  0  0  0  0  0  0
  161.0670  200.0700  145.5830 C   0  0  1  0  0  3  0  0  0  0  0  0
  160.1280  200.5400  144.6590 O   0  0  0  0  0  1  0  0  0  0  0  0
  162.2420  204.8970  150.7380 N   0  0  0  0  0  2  0  0  0  0  0  0
  161.7020  205.1850  152.0700 C   0  0  2  0  0  0  0  0  0  0  0  0
  161.0310  202.7220  152.2270 C   0  0  0  0  0  1  0  0  0  0  0  0
  161.0560  204.0770  152.9040 C   0  0  2  0  0  3  0  0  0  0  0  0
  160.1940  205.0350  152.0930 C   0  0  0  0  0  2  0  0  0  0  0  0
  162.1280  206.4720  152.7620 C   0  0  0  0  0  2  0  0  0  0  0  0
  161.1520  207.2920  154.5470 C   0  0  0  0  0  1  0  0  0  0  0  0
  161.0090  207.1910  153.1690 O   0  0  0  0  0  0  0  0  0  0  0  0
  2  7  1  6  0  0  0
  2  3  1  0  0  0  0
  2  6  1  0  0  0  0
  3  4  1  1  0  0  0
  3  6  1  0  0  0  0
  4  5  1  0  0  0  0
  5  1  1  1  0  0  0
  5  3  1  0  0  0  0
  8  7  1  0  0  0  0
  9  8  1  0  0  0  0
 10 11  1  0  0  0  0
 11  9  1  6  0  0  0
 12 11  1  0  0  0  0
 13 14  1  0  0  0  0
 13 12  2  0  0  0  0
 14 10  2  0  0  0  0
 15 18  1  6  0  0  0
 15 13  1  0  0  0  0
 17 15  1  0  0  0  0
 17 16  1  0  0  0  0
 19 20  1  1  0  0  0
 19 18  1  0  0  0  0
 21 19  1  0  0  0  0
 22 21  1  0  0  0  0
 23 24  1  0  0  0  0
 23 22  1  0  0  0  0
 25 24  1  0  0  0  0
 26  1  1  1  0  0  0
 26 42  1  0  0  0  0
 27 29  1  0  0  0  0
 27 30  1  0  0  0  0
 28 27  2  0  0  0  0
 29 26  1  0  0  0  0
 31 28  1  0  0  0  0
 33 34  2  0  0  0  0
 34 32  1  0  0  0  0
 34 31  1  0  0  0  0
 35 30  1  0  0  0  0
 35 36  1  0  0  0  0
 37 36  1  0  0  0  0
 38 37  1  0  0  0  0
 40 39  1  1  0  0  0
 40 38  1  0  0  0  0
 41 40  1  0  0  0  0
 42 43  1  0  0  0  0
 43 46  1  0  0  0  0
 43 47  1  1  0  0  0
 43 45  1  0  0  0  0
 45 44  1  6  0  0  0
 46 45  1  0  0  0  0
 47 49  1  0  0  0  0
 49 48  1  0  0  0  0
M  END
>  <MODEL>
6

>  <REMARK>
 VINA RESULT:      -4.2      3.408     10.525
  Name = 
  26 active torsions:
  status: ('A' for Active; 'I' for Inactive)
    1  A    between atoms: C_1  and  N_12
    2  A    between atoms: C_3  and  C_4
    3  A    between atoms: C_3  and  N_32
    4  A    between atoms: C_4  and  N_49
    5  A    between atoms: C_7  and  C_17
    6  A    between atoms: C_7  and  C_24
    7  A    between atoms: C_8  and  N_10
    8  A    between atoms: C_8  and  C_23
    9  A    between atoms: N_10  and  C_44
   10  A    between atoms: C_11  and  C_39
   11  A    between atoms: N_12  and  N_15
   12  A    between atoms: C_14  and  C_37
   13  A    between atoms: N_15  and  C_37
   14  A    between atoms: C_17  and  C_39
   15  A    between atoms: C_19  and  C_46
   16  A    between atoms: C_20  and  C_28
   17  A    between atoms: C_20  and  C_44
   18  A    between atoms: C_23  and  O_35
   19  A    between atoms: C_24  and  C_36
   20  A    between atoms: C_29  and  C_31
   21  A    between atoms: C_29  and  C_36
   22  A    between atoms: C_29  and  C_47
   23  A    between atoms: N_32  and  C_46
   24  A    between atoms: N_38  and  C_43
   25  A    between atoms: C_42  and  C_43
   26  A    between atoms: C_44  and  N_48
                            x       y       z     vdW  Elec       q    Type
                         _______ _______ _______ _____ _____    ______ ____

>  <TORSDO>
F 26

$$$$
=
 OpenBabel11042420343D

 49 52  0  0  1  0  0  0  0  0999 V2000
  160.4610  205.0440  149.8550 C   0  0  0  0  0  2  0  0  0  0  0  0
  161.6340  205.8190  153.5640 C   0  0  2  0  0  3  0  0  0  0  0  0
  161.4250  205.1600  152.1570 C   0  0  2  0  0  0  0  0  0  0  0  0
  162.1520  206.1630  151.2380 C   0  0  0  0  0  2  0  0  0  0  0  0
  160.7010  205.9510  151.0520 C   0  0  1  0  0  3  0  0  0  0  0  0
  160.3140  205.2590  153.2060 C   0  0  0  0  0  2  0  0  0  0  0  0
  161.5050  207.2790  153.5800 N   0  0  0  0  0  2  0  0  0  0  0  0
  161.3000  207.6970  154.9140 N   0  0  0  0  0  2  0  0  0  0  0  0
  160.4030  208.8500  154.9010 C   0  0  0  0  0  2  0  0  0  0  0  0
  160.7360  210.6530  156.5670 C   0  0  0  0  0  3  0  0  0  0  0  0
  161.1350  210.1580  155.2070 C   0  0  2  0  0  3  0  0  0  0  0  0
  160.6530  211.2080  154.3130 N   0  0  0  0  0  0  0  0  0  0  0  0
  160.0620  212.1130  155.0250 C   0  0  0  0  0  0  0  0  0  0  0  0
  160.1080  211.8170  156.4520 C   0  0  0  0  0  3  0  0  0  0  0  0
  159.4720  213.3380  154.3960 C   0  0  1  0  0  3  0  0  0  0  0  0
  159.6420  213.7680  152.0520 O   0  0  0  0  0  1  0  0  0  0  0  0
  158.9120  213.0550  153.0030 C   0  0  0  0  0  2  0  0  0  0  0  0
  158.4630  214.0130  155.3250 C   0  0  0  0  0  2  0  0  0  0  0  0
  157.0930  214.2010  154.6850 C   0  0  1  0  0  3  0  0  0  0  0  0
  156.7930  213.0080  153.7980 C   0  0  0  0  0  1  0  0  0  0  0  0
  156.0430  214.2910  155.7790 C   0  0  0  0  0  2  0  0  0  0  0  0
  156.5850  213.7840  157.1080 C   0  0  0  0  0  2  0  0  0  0  0  0
  156.3830  212.2850  157.2510 C   0  0  0  0  0  2  0  0  0  0  0  0
  155.0780  211.8470  156.5890 C   0  0  0  0  0  2  0  0  0  0  0  0
  155.0980  210.4120  156.3510 N   0  0  0  0  0  1  0  0  0  0  0  0
  161.7880  204.4780  149.3500 C   0  0  2  0  0  3  0  0  0  0  0  0
  162.3610  206.2290  147.5850 C   0  0  0  0  0  0  0  0  0  0  0  0
  162.5130  206.5440  146.3360 N   0  0  0  0  0  0  0  0  0  0  0  0
  162.0350  204.8850  147.9650 N   0  0  0  0  0  2  0  0  0  0  0  0
  162.4850  207.2470  148.5880 N   0  0  0  0  0  2  0  0  0  0  0  0
  162.4360  205.5850  145.2420 C   0  0  0  0  0  2  0  0  0  0  0  0
  161.1520  205.7140  143.1080 O   0  0  0  0  0  1  0  0  0  0  0  0
  160.0290  205.9740  145.1510 C   0  0  0  0  0  2  0  0  0  0  0  0
  161.1580  205.7510  144.4930 C   0  0  0  0  0  0  0  0  0  0  0  0
  162.5150  208.6680  148.2750 C   0  0  0  0  0  2  0  0  0  0  0  0
  161.5480  209.4040  149.1840 C   0  0  0  0  0  2  0  0  0  0  0  0
  162.1200  210.6790  149.5790 N   0  0  0  0  0  2  0  0  0  0  0  0
  162.1750  211.5170  148.3840 C   0  0  0  0  0  2  0  0  0  0  0  0
  161.9110  213.9940  148.5230 C   0  0  0  0  0  1  0  0  0  0  0  0
  161.1770  212.6690  148.4900 C   0  0  1  0  0  3  0  0  0  0  0  0
  160.3260  212.6470  147.3800 O   0  0  0  0  0  1  0  0  0  0  0  0
  161.8390  203.0140  149.5260 N   0  0  0  0  0  2  0  0  0  0  0  0
  160.9230  202.2510  148.6720 C   0  0  2  0  0  0  0  0  0  0  0  0
  159.8350  201.3510  150.8040 C   0  0  0  0  0  1  0  0  0  0  0  0
  159.8440  201.3600  149.2890 C   0  0  2  0  0  3  0  0  0  0  0  0
  161.1600  200.7610  148.8130 C   0  0  0  0  0  2  0  0  0  0  0  0
  160.8040  202.6430  147.2060 C   0  0  0  0  0  2  0  0  0  0  0  0
  160.3420  201.8440  145.2160 C   0  0  0  0  0  1  0  0  0  0  0  0
  161.0100  201.5330  146.3930 O   0  0  0  0  0  0  0  0  0  0  0  0
  2  7  1  6  0  0  0
  3  4  1  6  0  0  0
  3  6  1  0  0  0  0
  3  2  1  0  0  0  0
  5  1  1  6  0  0  0
  5  4  1  0  0  0  0
  5  3  1  0  0  0  0
  6  2  1  0  0  0  0
  7  8  1  0  0  0  0
  9  8  1  0  0  0  0
 11  9  1  6  0  0  0
 11 10  1  0  0  0  0
 12 13  2  0  0  0  0
 12 11  1  0  0  0  0
 13 14  1  0  0  0  0
 14 10  2  0  0  0  0
 15 17  1  6  0  0  0
 15 13  1  0  0  0  0
 15 18  1  0  0  0  0
 16 17  1  0  0  0  0
 19 20  1  6  0  0  0
 19 18  1  0  0  0  0
 19 21  1  0  0  0  0
 21 22  1  0  0  0  0
 22 23  1  0  0  0  0
 24 23  1  0  0  0  0
 25 24  1  0  0  0  0
 26 42  1  0  0  0  0
 26  1  1  6  0  0  0
 27 29  1  0  0  0  0
 27 30  1  0  0  0  0
 28 27  2  0  0  0  0
 29 26  1  0  0  0  0
 31 28  1  0  0  0  0
 32 34  1  0  0  0  0
 34 33  2  0  0  0  0
 34 31  1  0  0  0  0
 35 30  1  0  0  0  0
 35 36  1  0  0  0  0
 36 37  1  0  0  0  0
 38 40  1  0  0  0  0
 38 37  1  0  0  0  0
 40 39  1  6  0  0  0
 41 40  1  0  0  0  0
 43 47  1  6  0  0  0
 43 46  1  0  0  0  0
 43 45  1  0  0  0  0
 43 42  1  0  0  0  0
 45 44  1  1  0  0  0
 46 45  1  0  0  0  0
 48 49  1  0  0  0  0
 49 47  1  0  0  0  0
M  END
>  <MODEL>
7

>  <REMARK>
 VINA RESULT:      -3.8      2.076     10.112
  Name = 
  26 active torsions:
  status: ('A' for Active; 'I' for Inactive)
    1  A    between atoms: C_1  and  N_12
    2  A    between atoms: C_3  and  C_4
    3  A    between atoms: C_3  and  N_32
    4  A    between atoms: C_4  and  N_49
    5  A    between atoms: C_7  and  C_17
    6  A    between atoms: C_7  and  C_24
    7  A    between atoms: C_8  and  N_10
    8  A    between atoms: C_8  and  C_23
    9  A    between atoms: N_10  and  C_44
   10  A    between atoms: C_11  and  C_39
   11  A    between atoms: N_12  and  N_15
   12  A    between atoms: C_14  and  C_37
   13  A    between atoms: N_15  and  C_37
   14  A    between atoms: C_17  and  C_39
   15  A    between atoms: C_19  and  C_46
   16  A    between atoms: C_20  and  C_28
   17  A    between atoms: C_20  and  C_44
   18  A    between atoms: C_23  and  O_35
   19  A    between atoms: C_24  and  C_36
   20  A    between atoms: C_29  and  C_31
   21  A    between atoms: C_29  and  C_36
   22  A    between atoms: C_29  and  C_47
   23  A    between atoms: N_32  and  C_46
   24  A    between atoms: N_38  and  C_43
   25  A    between atoms: C_42  and  C_43
   26  A    between atoms: C_44  and  N_48
                            x       y       z     vdW  Elec       q    Type
                         _______ _______ _______ _____ _____    ______ ____

>  <TORSDO>
F 26

$$$$
=
 OpenBabel11042420343D

 49 52  0  0  1  0  0  0  0  0999 V2000
  160.4600  203.8570  149.8350 C   0  0  0  0  0  2  0  0  0  0  0  0
  161.3960  205.5240  153.3090 C   0  0  2  0  0  3  0  0  0  0  0  0
  161.2900  204.5470  152.0880 C   0  0  2  0  0  0  0  0  0  0  0  0
  162.0300  205.3440  150.9940 C   0  0  0  0  0  2  0  0  0  0  0  0
  160.6010  205.0270  150.7960 C   0  0  1  0  0  3  0  0  0  0  0  0
  160.1180  204.8340  153.0320 C   0  0  0  0  0  2  0  0  0  0  0  0
  161.2150  206.9400  152.9780 N   0  0  0  0  0  2  0  0  0  0  0  0
  161.7200  207.7180  154.0440 N   0  0  0  0  0  2  0  0  0  0  0  0
  160.7100  208.7100  154.4050 C   0  0  0  0  0  2  0  0  0  0  0  0
  161.1400  211.0890  154.9490 C   0  0  0  0  0  3  0  0  0  0  0  0
  161.0250  210.0940  153.8310 C   0  0  2  0  0  3  0  0  0  0  0  0
  159.8770  210.5780  153.0680 N   0  0  0  0  0  0  0  0  0  0  0  0
  159.4070  211.6300  153.6580 C   0  0  0  0  0  0  0  0  0  0  0  0
  160.1830  212.0010  154.8350 C   0  0  0  0  0  3  0  0  0  0  0  0
  158.2310  212.3740  153.1050 C   0  0  1  0  0  3  0  0  0  0  0  0
  157.1000  213.8960  154.5590 O   0  0  0  0  0  1  0  0  0  0  0  0
  157.1300  212.5640  154.1470 C   0  0  0  0  0  2  0  0  0  0  0  0
  158.6600  213.6810  152.4360 C   0  0  0  0  0  2  0  0  0  0  0  0
  158.6970  213.5900  150.9160 C   0  0  1  0  0  3  0  0  0  0  0  0
  157.4490  214.2410  150.3490 C   0  0  0  0  0  1  0  0  0  0  0  0
  159.9230  214.3270  150.4050 C   0  0  0  0  0  2  0  0  0  0  0  0
  160.7870  213.4250  149.5340 C   0  0  0  0  0  2  0  0  0  0  0  0
  160.4410  213.5840  148.0640 C   0  0  0  0  0  2  0  0  0  0  0  0
  161.6610  214.0410  147.2650 C   0  0  0  0  0  2  0  0  0  0  0  0
  162.0140  213.0340  146.2760 N   0  0  0  0  0  1  0  0  0  0  0  0
  161.4880  203.9720  148.7100 C   0  0  2  0  0  3  0  0  0  0  0  0
  161.5350  206.1530  147.3870 C   0  0  0  0  0  0  0  0  0  0  0  0
  161.9810  207.3640  147.2480 N   0  0  0  0  0  0  0  0  0  0  0  0
  161.9050  205.3640  148.5260 N   0  0  0  0  0  2  0  0  0  0  0  0
  160.6940  205.5920  146.3690 N   0  0  0  0  0  2  0  0  0  0  0  0
  162.8170  208.0380  148.2330 C   0  0  0  0  0  2  0  0  0  0  0  0
  161.5940  210.2110  148.2890 O   0  0  0  0  0  1  0  0  0  0  0  0
  161.7850  208.9400  150.2520 C   0  0  0  0  0  2  0  0  0  0  0  0
  162.0320  209.0790  148.9570 C   0  0  0  0  0  0  0  0  0  0  0  0
  160.5190  206.2040  145.0600 C   0  0  0  0  0  2  0  0  0  0  0  0
  161.5900  205.6890  144.1160 C   0  0  0  0  0  2  0  0  0  0  0  0
  161.1850  205.9230  142.7410 N   0  0  0  0  0  2  0  0  0  0  0  0
  162.3940  206.2240  141.9800 C   0  0  0  0  0  2  0  0  0  0  0  0
  161.5650  207.8490  140.2780 C   0  0  0  0  0  1  0  0  0  0  0  0
  162.0610  206.4350  140.5040 C   0  0  1  0  0  3  0  0  0  0  0  0
  163.2120  206.2290  139.7360 O   0  0  0  0  0  1  0  0  0  0  0  0
  160.9820  203.3640  147.4650 N   0  0  0  0  0  2  0  0  0  0  0  0
  161.0120  201.8980  147.4310 C   0  0  2  0  0  0  0  0  0  0  0  0
  160.2320  202.0330  144.9990 C   0  0  0  0  0  1  0  0  0  0  0  0
  160.6310  201.1420  146.1580 C   0  0  2  0  0  3  0  0  0  0  0  0
  159.6160  201.3270  147.2770 C   0  0  0  0  0  2  0  0  0  0  0  0
  161.7790  201.1630  148.5210 C   0  0  0  0  0  2  0  0  0  0  0  0
  161.1140  200.8670  150.5890 C   0  0  0  0  0  1  0  0  0  0  0  0
  160.9070  200.4060  149.2960 O   0  0  0  0  0  0  0  0  0  0  0  0
  2  7  1  6  0  0  0
  3  4  1  1  0  0  0
  3  6  1  0  0  0  0
  3  2  1  0  0  0  0
  5  1  1  6  0  0  0
  5  4  1  0  0  0  0
  5  3  1  0  0  0  0
  6  2  1  0  0  0  0
  7  8  1  0  0  0  0
  8  9  1  0  0  0  0
 11  9  1  1  0  0  0
 11 10  1  0  0  0  0
 12 13  2  0  0  0  0
 12 11  1  0  0  0  0
 13 14  1  0  0  0  0
 14 10  2  0  0  0  0
 15 18  1  1  0  0  0
 15 13  1  0  0  0  0
 15 17  1  0  0  0  0
 17 16  1  0  0  0  0
 19 20  1  6  0  0  0
 19 18  1  0  0  0  0
 21 19  1  0  0  0  0
 22 21  1  0  0  0  0
 23 22  1  0  0  0  0
 24 23  1  0  0  0  0
 25 24  1  0  0  0  0
 26  1  1  1  0  0  0
 27 29  1  0  0  0  0
 28 27  2  0  0  0  0
 28 31  1  0  0  0  0
 29 26  1  0  0  0  0
 30 27  1  0  0  0  0
 31 34  1  0  0  0  0
 32 34  1  0  0  0  0
 34 33  2  0  0  0  0
 35 30  1  0  0  0  0
 36 35  1  0  0  0  0
 37 36  1  0  0  0  0
 38 37  1  0  0  0  0
 40 39  1  1  0  0  0
 40 38  1  0  0  0  0
 41 40  1  0  0  0  0
 42 26  1  0  0  0  0
 43 42  1  0  0  0  0
 43 47  1  1  0  0  0
 45 44  1  6  0  0  0
 45 46  1  0  0  0  0
 45 43  1  0  0  0  0
 46 43  1  0  0  0  0
 47 49  1  0  0  0  0
 49 48  1  0  0  0  0
M  END
>  <MODEL>
8

>  <REMARK>
 VINA RESULT:      -3.7      2.505      9.994
  Name = 
  26 active torsions:
  status: ('A' for Active; 'I' for Inactive)
    1  A    between atoms: C_1  and  N_12
    2  A    between atoms: C_3  and  C_4
    3  A    between atoms: C_3  and  N_32
    4  A    between atoms: C_4  and  N_49
    5  A    between atoms: C_7  and  C_17
    6  A    between atoms: C_7  and  C_24
    7  A    between atoms: C_8  and  N_10
    8  A    between atoms: C_8  and  C_23
    9  A    between atoms: N_10  and  C_44
   10  A    between atoms: C_11  and  C_39
   11  A    between atoms: N_12  and  N_15
   12  A    between atoms: C_14  and  C_37
   13  A    between atoms: N_15  and  C_37
   14  A    between atoms: C_17  and  C_39
   15  A    between atoms: C_19  and  C_46
   16  A    between atoms: C_20  and  C_28
   17  A    between atoms: C_20  and  C_44
   18  A    between atoms: C_23  and  O_35
   19  A    between atoms: C_24  and  C_36
   20  A    between atoms: C_29  and  C_31
   21  A    between atoms: C_29  and  C_36
   22  A    between atoms: C_29  and  C_47
   23  A    between atoms: N_32  and  C_46
   24  A    between atoms: N_38  and  C_43
   25  A    between atoms: C_42  and  C_43
   26  A    between atoms: C_44  and  N_48
                            x       y       z     vdW  Elec       q    Type
                         _______ _______ _______ _____ _____    ______ ____

>  <TORSDO>
F 26

$$$$
=
 OpenBabel11042420343D

 49 52  0  0  1  0  0  0  0  0999 V2000
  161.8670  210.2430  151.8830 C   0  0  0  0  0  2  0  0  0  0  0  0
  161.3580  208.0510  148.6180 C   0  0  2  0  0  3  0  0  0  0  0  0
  161.2340  209.1510  149.7270 C   0  0  2  0  0  0  0  0  0  0  0  0
  162.5650  209.9110  149.5540 C   0  0  0  0  0  2  0  0  0  0  0  0
  162.2990  209.2270  150.8370 C   0  0  1  0  0  3  0  0  0  0  0  0
  160.8420  207.6880  149.9550 C   0  0  0  0  0  2  0  0  0  0  0  0
  162.6940  207.4640  148.4840 N   0  0  0  0  0  2  0  0  0  0  0  0
  162.6480  206.4640  147.4880 N   0  0  0  0  0  2  0  0  0  0  0  0
  162.6300  205.1600  148.1460 C   0  0  0  0  0  2  0  0  0  0  0  0
  161.5230  204.5850  150.2870 C   0  0  0  0  0  3  0  0  0  0  0  0
  161.2920  204.8750  148.8330 C   0  0  2  0  0  3  0  0  0  0  0  0
  160.7400  203.6210  148.3240 N   0  0  0  0  0  0  0  0  0  0  0  0
  160.6960  202.7680  149.2960 C   0  0  0  0  0  0  0  0  0  0  0  0
  161.1600  203.3370  150.5570 C   0  0  0  0  0  3  0  0  0  0  0  0
  160.1570  201.3850  149.0970 C   0  0  1  0  0  3  0  0  0  0  0  0
  157.8220  200.8780  149.0920 O   0  0  0  0  0  1  0  0  0  0  0  0
  158.9040  201.1310  149.9340 C   0  0  0  0  0  2  0  0  0  0  0  0
  159.9660  201.0670  147.6140 C   0  0  0  0  0  2  0  0  0  0  0  0
  161.2810  200.9460  146.8540 C   0  0  1  0  0  3  0  0  0  0  0  0
  161.4750  199.5040  146.4250 C   0  0  0  0  0  1  0  0  0  0  0  0
  161.2240  201.8330  145.6220 C   0  0  0  0  0  2  0  0  0  0  0  0
  159.7860  202.1010  145.2000 C   0  0  0  0  0  2  0  0  0  0  0  0
  159.6550  203.4490  144.5130 C   0  0  0  0  0  2  0  0  0  0  0  0
  160.8670  204.3310  144.8110 C   0  0  0  0  0  2  0  0  0  0  0  0
  160.4290  205.6730  145.1670 N   0  0  0  0  0  1  0  0  0  0  0  0
  160.4670  209.9090  152.3960 C   0  0  2  0  0  3  0  0  0  0  0  0
  159.6780  212.2350  153.0860 C   0  0  0  0  0  0  0  0  0  0  0  0
  159.3560  213.0700  154.0260 N   0  0  0  0  0  0  0  0  0  0  0  0
  160.0340  210.8820  153.4010 N   0  0  0  0  0  2  0  0  0  0  0  0
  159.7120  212.6860  151.7250 N   0  0  0  0  0  2  0  0  0  0  0  0
  159.2640  212.7090  155.4340 C   0  0  0  0  0  2  0  0  0  0  0  0
  157.9290  210.6400  155.8330 O   0  0  0  0  0  1  0  0  0  0  0  0
  156.8510  212.7240  155.8020 C   0  0  0  0  0  2  0  0  0  0  0  0
  157.9710  212.0190  155.7110 C   0  0  0  0  0  0  0  0  0  0  0  0
  159.6590  214.0930  151.3550 C   0  0  0  0  0  2  0  0  0  0  0  0
  159.9870  214.2380  149.8800 C   0  0  0  0  0  2  0  0  0  0  0  0
  160.7170  213.0680  149.4230 N   0  0  0  0  0  2  0  0  0  0  0  0
  161.6120  213.5070  148.3570 C   0  0  0  0  0  2  0  0  0  0  0  0
  160.0250  213.4830  146.4320 C   0  0  0  0  0  1  0  0  0  0  0  0
  161.2500  212.8280  147.0380 C   0  0  1  0  0  3  0  0  0  0  0  0
  162.3190  212.9510  146.1450 O   0  0  0  0  0  1  0  0  0  0  0  0
  160.4020  208.5200  152.8890 N   0  0  0  0  0  2  0  0  0  0  0  0
  160.9950  208.3000  154.2120 C   0  0  2  0  0  0  0  0  0  0  0  0
  161.2160  205.8270  153.5970 C   0  0  0  0  0  1  0  0  0  0  0  0
  161.4460  206.9030  154.6400 C   0  0  2  0  0  3  0  0  0  0  0  0
  160.0930  207.4440  155.0780 C   0  0  0  0  0  2  0  0  0  0  0  0
  161.5030  209.5060  154.9880 C   0  0  0  0  0  2  0  0  0  0  0  0
  161.5360  210.6290  156.8720 C   0  0  0  0  0  1  0  0  0  0  0  0
  161.0280  209.4730  156.2950 O   0  0  0  0  0  0  0  0  0  0  0  0
  2  7  1  1  0  0  0
  2  3  1  0  0  0  0
  2  6  1  0  0  0  0
  3  4  1  6  0  0  0
  3  6  1  0  0  0  0
  3  5  1  0  0  0  0
  4  5  1  0  0  0  0
  5  1  1  1  0  0  0
  8  9  1  0  0  0  0
  8  7  1  0  0  0  0
 10 14  2  0  0  0  0
 11  9  1  6  0  0  0
 11 10  1  0  0  0  0
 12 11  1  0  0  0  0
 12 13  2  0  0  0  0
 13 14  1  0  0  0  0
 15 18  1  6  0  0  0
 15 13  1  0  0  0  0
 15 17  1  0  0  0  0
 16 17  1  0  0  0  0
 19 20  1  6  0  0  0
 19 18  1  0  0  0  0
 21 19  1  0  0  0  0
 22 21  1  0  0  0  0
 23 24  1  0  0  0  0
 23 22  1  0  0  0  0
 24 25  1  0  0  0  0
 26  1  1  1  0  0  0
 26 42  1  0  0  0  0
 26 29  1  0  0  0  0
 27 29  1  0  0  0  0
 27 28  2  0  0  0  0
 28 31  1  0  0  0  0
 30 27  1  0  0  0  0
 31 34  1  0  0  0  0
 34 33  2  0  0  0  0
 34 32  1  0  0  0  0
 35 30  1  0  0  0  0
 36 35  1  0  0  0  0
 37 36  1  0  0  0  0
 38 37  1  0  0  0  0
 40 39  1  6  0  0  0
 40 38  1  0  0  0  0
 41 40  1  0  0  0  0
 42 43  1  0  0  0  0
 43 45  1  0  0  0  0
 43 47  1  1  0  0  0
 43 46  1  0  0  0  0
 45 44  1  6  0  0  0
 45 46  1  0  0  0  0
 47 49  1  0  0  0  0
 49 48  1  0  0  0  0
M  END
>  <MODEL>
9

>  <REMARK>
 VINA RESULT:      -3.6      1.636      3.135
  Name = 
  26 active torsions:
  status: ('A' for Active; 'I' for Inactive)
    1  A    between atoms: C_1  and  N_12
    2  A    between atoms: C_3  and  C_4
    3  A    between atoms: C_3  and  N_32
    4  A    between atoms: C_4  and  N_49
    5  A    between atoms: C_7  and  C_17
    6  A    between atoms: C_7  and  C_24
    7  A    between atoms: C_8  and  N_10
    8  A    between atoms: C_8  and  C_23
    9  A    between atoms: N_10  and  C_44
   10  A    between atoms: C_11  and  C_39
   11  A    between atoms: N_12  and  N_15
   12  A    between atoms: C_14  and  C_37
   13  A    between atoms: N_15  and  C_37
   14  A    between atoms: C_17  and  C_39
   15  A    between atoms: C_19  and  C_46
   16  A    between atoms: C_20  and  C_28
   17  A    between atoms: C_20  and  C_44
   18  A    between atoms: C_23  and  O_35
   19  A    between atoms: C_24  and  C_36
   20  A    between atoms: C_29  and  C_31
   21  A    between atoms: C_29  and  C_36
   22  A    between atoms: C_29  and  C_47
   23  A    between atoms: N_32  and  C_46
   24  A    between atoms: N_38  and  C_43
   25  A    between atoms: C_42  and  C_43
   26  A    between atoms: C_44  and  N_48
                            x       y       z     vdW  Elec       q    Type
                         _______ _______ _______ _____ _____    ______ ____

>  <TORSDO>
F 26

$$$$
