=
 OpenBabel11052411353D

 43 49  0  0  1  0  0  0  0  0999 V2000
  160.2270  209.8620  153.2570 N   0  0  0  0  0  0  0  0  0  0  0  0
  161.0940  210.0620  152.1100 C   0  0  0  0  0  2  0  0  0  0  0  0
  160.4750  209.5490  154.5370 C   0  0  0  0  0  0  0  0  0  0  0  0
  161.3950  206.0050  153.4590 C   0  0  0  0  0  2  0  0  0  0  0  0
  159.2660  210.7710  153.2810 C   0  0  0  0  0  0  0  0  0  0  0  0
  160.7480  208.0960  147.8650 C   0  0  0  0  0  2  0  0  0  0  0  0
  159.5700  210.2670  155.3100 C   0  0  0  0  0  0  0  0  0  0  0  0
  162.4460  210.2220  149.1980 C   0  0  0  0  0  0  0  0  0  0  0  0
  161.3200  207.3730  155.5380 C   0  0  2  0  0  3  0  0  0  0  0  0
  161.4070  205.7080  147.9370 C   0  0  0  0  0  0  0  0  0  0  0  0
  161.6710  203.6620  149.2940 C   0  0  0  0  0  2  0  0  0  0  0  0
  158.8390  211.0910  154.5200 N   0  0  0  0  0  0  0  0  0  0  0  0
  162.1010  211.4630  149.4080 C   0  0  0  0  0  0  0  0  0  0  0  0
  161.6680  208.7690  155.0060 C   0  0  0  0  0  2  0  0  0  0  0  0
  160.5020  206.5490  154.5560 C   0  0  0  0  0  2  0  0  0  0  0  0
  160.7480  203.9710  150.4620 C   0  0  0  0  0  2  0  0  0  0  0  0
  160.9520  211.8970  150.2080 C   0  0  0  0  0  0  0  0  0  0  0  0
  160.4220  211.2360  151.4220 C   0  0  0  0  0  0  0  0  0  0  0  0
  162.9880  212.5290  147.2570 N   0  0  0  0  0  1  0  0  0  0  0  0
  160.3330  205.2920  147.4210 O   0  0  0  0  0  0  0  0  0  0  0  0
  160.4600  212.9910  149.7170 N   0  0  0  0  0  0  0  0  0  0  0  0
  159.3510  211.6350  152.1280 C   0  0  0  0  0  0  0  0  0  0  0  0
  161.1800  213.3580  148.5740 N   0  0  0  0  0  0  0  0  0  0  0  0
  161.8770  207.1010  147.6800 C   0  0  2  0  0  3  0  0  0  0  0  0
  161.5250  204.6740  151.5590 C   0  0  0  0  0  2  0  0  0  0  0  0
  160.6070  205.1850  152.5580 N   0  0  0  0  0  2  0  0  0  0  0  0
  161.7650  207.8930  148.9740 C   0  0  1  0  0  3  0  0  0  0  0  0
  158.4810  212.8190  151.8710 C   0  0  0  0  0  1  0  0  0  0  0  0
  162.1150  212.4920  148.3810 C   0  0  0  0  0  0  0  0  0  0  0  0
  160.6230  207.4640  156.8090 N   0  0  0  0  0  1  0  0  0  0  0  0
  162.1800  204.8710  148.7450 O   0  0  0  0  0  0  0  0  0  0  0  0
  162.7830  208.9820  148.9660 C   0  0  0  0  0  3  0  0  0  0  0  0
  159.5620  210.3470  156.8010 C   0  0  0  0  0  2  0  0  0  0  0  0
  159.8230  211.7710  157.2540 C   0  0  1  0  0  3  0  0  0  0  0  0
  160.8170  212.3400  156.4410 O   0  0  0  0  0  0  0  0  0  0  0  0
  159.4880  212.7110  156.1650 C   0  0  2  0  0  3  0  0  0  0  0  0
  159.2290  214.0880  156.7460 C   0  0  0  0  0  2  0  0  0  0  0  0
  157.0370  213.4000  157.1550 C   0  0  0  0  0  2  0  0  0  0  0  0
  155.8160  213.1970  156.2850 C   0  0  1  0  0  3  0  0  0  0  0  0
  156.1690  213.8050  154.9500 C   0  0  0  0  0  2  0  0  0  0  0  0
  155.5700  211.8320  156.1330 O   0  0  0  0  0  1  0  0  0  0  0  0
  157.8360  214.4530  156.5520 N   0  0  0  0  0  0  0  0  0  0  0  0
  157.5620  214.3770  155.1230 C   0  0  0  0  0  2  0  0  0  0  0  0
  1  5  1  0  0  0  0
  1  3  1  0  0  0  0
  2  1  1  0  0  0  0
  3 14  1  0  0  0  0
  3  7  2  0  0  0  0
  4 15  1  0  0  0  0
  5 12  2  0  0  0  0
  7 33  1  0  0  0  0
  8 13  2  0  0  0  0
  9 30  1  1  0  0  0
 10 31  1  0  0  0  0
 11 16  1  0  0  0  0
 12  7  1  0  0  0  0
 13 17  1  0  0  0  0
 14  9  1  0  0  0  0
 15  9  1  0  0  0  0
 16 25  1  0  0  0  0
 17 18  1  0  0  0  0
 18  2  1  0  0  0  0
 18 22  2  0  0  0  0
 19 29  1  0  0  0  0
 20 10  2  0  0  0  0
 21 17  2  0  0  0  0
 22  5  1  0  0  0  0
 23 21  1  0  0  0  0
 24  6  1  6  0  0  0
 24 10  1  0  0  0  0
 24 27  1  0  0  0  0
 25 26  1  0  0  0  0
 26  4  1  0  0  0  0
 27  6  1  6  0  0  0
 28 22  1  0  0  0  0
 29 23  2  0  0  0  0
 29 13  1  0  0  0  0
 31 11  1  0  0  0  0
 32 27  1  0  0  0  0
 32  8  2  0  0  0  0
 34 33  1  6  0  0  0
 35 34  1  0  0  0  0
 36 35  1  0  0  0  0
 36 37  1  1  0  0  0
 36 34  1  0  0  0  0
 39 41  1  6  0  0  0
 39 38  1  0  0  0  0
 40 43  1  0  0  0  0
 40 39  1  0  0  0  0
 42 37  1  0  0  0  0
 42 38  1  0  0  0  0
 43 42  1  0  0  0  0
M  END
>  <MODEL>
1

>  <REMARK>
 VINA RESULT:      -4.5      0.000      0.000
  Name = 
  4 active torsions:
  status: ('A' for Active; 'I' for Inactive)
    1  A    between atoms: C_5  and  C_9
    2  A    between atoms: C_5  and  C_22
    3  A    between atoms: C_12  and  N_24
    4  A    between atoms: C_12  and  C_42
                            x       y       z     vdW  Elec       q    Type
                         _______ _______ _______ _____ _____    ______ ____

>  <TORSDO>
F 4

$$$$
=
 OpenBabel11052411353D

 43 49  0  0  1  0  0  0  0  0999 V2000
  161.6290  208.5710  149.9400 N   0  0  0  0  0  0  0  0  0  0  0  0
  160.6410  209.4530  150.5350 C   0  0  0  0  0  2  0  0  0  0  0  0
  161.5360  207.3630  149.3640 C   0  0  0  0  0  0  0  0  0  0  0  0
  160.8750  205.8160  152.7910 C   0  0  0  0  0  2  0  0  0  0  0  0
  162.4930  209.2590  149.2120 C   0  0  0  0  0  0  0  0  0  0  0  0
  160.7730  211.4920  154.7570 C   0  0  0  0  0  2  0  0  0  0  0  0
  162.4360  207.3530  148.3040 C   0  0  0  0  0  0  0  0  0  0  0  0
  159.0080  211.5890  152.2970 C   0  0  0  0  0  0  0  0  0  0  0  0
  161.0110  205.1080  150.4070 C   0  0  2  0  0  3  0  0  0  0  0  0
  160.3640  209.8360  156.5550 C   0  0  0  0  0  0  0  0  0  0  0  0
  160.4360  207.4710  157.2610 C   0  0  0  0  0  2  0  0  0  0  0  0
  163.0030  208.5760  148.1660 N   0  0  0  0  0  0  0  0  0  0  0  0
  159.2460  212.2610  151.2040 C   0  0  0  0  0  0  0  0  0  0  0  0
  160.4770  206.3490  149.6820 C   0  0  0  0  0  2  0  0  0  0  0  0
  161.8100  205.4480  151.6570 C   0  0  0  0  0  2  0  0  0  0  0  0
  161.4310  206.9030  156.2610 C   0  0  0  0  0  2  0  0  0  0  0  0
  160.4170  212.0830  150.3400 C   0  0  0  0  0  0  0  0  0  0  0  0
  161.1240  210.8120  150.0630 C   0  0  0  0  0  0  0  0  0  0  0  0
  158.0560  214.4530  151.7760 N   0  0  0  0  0  1  0  0  0  0  0  0
  161.4200  210.1130  157.1880 O   0  0  0  0  0  0  0  0  0  0  0  0
  160.7490  213.2170  149.8080 N   0  0  0  0  0  0  0  0  0  0  0  0
  162.2130  210.6730  149.2880 C   0  0  0  0  0  0  0  0  0  0  0  0
  159.8900  214.2220  150.2690 N   0  0  0  0  0  0  0  0  0  0  0  0
  159.7360  210.8480  155.6570 C   0  0  2  0  0  3  0  0  0  0  0  0
  160.6970  206.4050  155.0310 C   0  0  0  0  0  2  0  0  0  0  0  0
  161.6510  206.0920  153.9850 N   0  0  0  0  0  2  0  0  0  0  0  0
  159.8930  210.3790  154.2190 C   0  0  1  0  0  3  0  0  0  0  0  0
  162.9320  211.7380  148.5300 C   0  0  0  0  0  1  0  0  0  0  0  0
  159.0320  213.6930  151.0710 C   0  0  0  0  0  0  0  0  0  0  0  0
  161.8140  204.2930  149.5130 N   0  0  0  0  0  1  0  0  0  0  0  0
  159.7590  208.5840  156.6920 O   0  0  0  0  0  0  0  0  0  0  0  0
  158.7750  210.9350  153.4030 C   0  0  0  0  0  3  0  0  0  0  0  0
  162.5780  206.2680  147.2880 C   0  0  0  0  0  2  0  0  0  0  0  0
  161.2160  205.8560  146.7630 C   0  0  1  0  0  3  0  0  0  0  0  0
  160.6980  206.8870  145.9610 O   0  0  0  0  0  0  0  0  0  0  0  0
  161.2500  205.7820  145.2880 C   0  0  2  0  0  3  0  0  0  0  0  0
  160.1260  204.8900  144.7980 C   0  0  0  0  0  2  0  0  0  0  0  0
  159.4750  202.6960  144.3390 C   0  0  0  0  0  2  0  0  0  0  0  0
  159.7910  201.3520  144.9570 C   0  0  1  0  0  3  0  0  0  0  0  0
  160.9330  201.6070  145.9100 C   0  0  0  0  0  2  0  0  0  0  0  0
  158.6800  200.8880  145.6630 O   0  0  0  0  0  1  0  0  0  0  0  0
  160.6320  203.5540  144.5370 N   0  0  0  0  0  0  0  0  0  0  0  0
  161.2590  203.0800  145.7630 C   0  0  0  0  0  2  0  0  0  0  0  0
  1  2  1  0  0  0  0
  3 14  1  0  0  0  0
  3  1  1  0  0  0  0
  4 26  1  0  0  0  0
  5 22  1  0  0  0  0
  5  1  1  0  0  0  0
  7  3  2  0  0  0  0
  8 32  2  0  0  0  0
  9 30  1  6  0  0  0
  9 15  1  0  0  0  0
 10 31  1  0  0  0  0
 10 20  2  0  0  0  0
 12  7  1  0  0  0  0
 12  5  2  0  0  0  0
 13  8  2  0  0  0  0
 14  9  1  0  0  0  0
 15  4  1  0  0  0  0
 16 11  1  0  0  0  0
 17 13  1  0  0  0  0
 18 17  1  0  0  0  0
 18  2  1  0  0  0  0
 21 23  1  0  0  0  0
 21 17  2  0  0  0  0
 22 18  2  0  0  0  0
 23 29  2  0  0  0  0
 24  6  1  6  0  0  0
 24 10  1  0  0  0  0
 25 16  1  0  0  0  0
 26 25  1  0  0  0  0
 27 32  1  6  0  0  0
 27  6  1  0  0  0  0
 27 24  1  0  0  0  0
 28 22  1  0  0  0  0
 29 13  1  0  0  0  0
 29 19  1  0  0  0  0
 31 11  1  0  0  0  0
 33  7  1  0  0  0  0
 34 33  1  6  0  0  0
 35 34  1  0  0  0  0
 36 37  1  1  0  0  0
 36 35  1  0  0  0  0
 36 34  1  0  0  0  0
 38 42  1  0  0  0  0
 38 39  1  0  0  0  0
 39 41  1  1  0  0  0
 39 40  1  0  0  0  0
 42 37  1  0  0  0  0
 42 43  1  0  0  0  0
 43 40  1  0  0  0  0
M  END
>  <MODEL>
2

>  <REMARK>
 VINA RESULT:      -3.7      2.691      9.060
  Name = 
  4 active torsions:
  status: ('A' for Active; 'I' for Inactive)
    1  A    between atoms: C_5  and  C_9
    2  A    between atoms: C_5  and  C_22
    3  A    between atoms: C_12  and  N_24
    4  A    between atoms: C_12  and  C_42
                            x       y       z     vdW  Elec       q    Type
                         _______ _______ _______ _____ _____    ______ ____

>  <TORSDO>
F 4

$$$$
=
 OpenBabel11052411353D

 43 49  0  0  1  0  0  0  0  0999 V2000
  160.9800  211.1140  150.5970 N   0  0  0  0  0  0  0  0  0  0  0  0
  160.9510  211.0320  152.0470 C   0  0  0  0  0  2  0  0  0  0  0  0
  161.4600  212.0380  149.7520 C   0  0  0  0  0  0  0  0  0  0  0  0
  158.6100  214.3760  150.7410 C   0  0  0  0  0  2  0  0  0  0  0  0
  161.2830  209.9400  150.0680 C   0  0  0  0  0  0  0  0  0  0  0  0
  157.2570  210.1640  154.8040 C   0  0  0  0  0  2  0  0  0  0  0  0
  161.9990  211.3520  148.6690 C   0  0  0  0  0  0  0  0  0  0  0  0
  160.2490  210.5000  155.1390 C   0  0  0  0  0  0  0  0  0  0  0  0
  160.6280  214.3910  149.2820 C   0  0  2  0  0  3  0  0  0  0  0  0
  155.7370  212.1190  154.8920 C   0  0  0  0  0  0  0  0  0  0  0  0
  154.9290  214.1780  153.7940 C   0  0  0  0  0  2  0  0  0  0  0  0
  161.9430  210.0160  148.8940 N   0  0  0  0  0  0  0  0  0  0  0  0
  161.1570  209.5920  154.9040 C   0  0  0  0  0  0  0  0  0  0  0  0
  161.5920  213.4980  150.0730 C   0  0  0  0  0  2  0  0  0  0  0  0
  159.1760  213.9510  149.4020 C   0  0  0  0  0  2  0  0  0  0  0  0
  155.3360  213.9130  152.3530 C   0  0  0  0  0  2  0  0  0  0  0  0
  161.3870  208.9420  153.6110 C   0  0  0  0  0  0  0  0  0  0  0  0
  161.2380  209.5590  152.2740 C   0  0  0  0  0  0  0  0  0  0  0  0
  161.3190  208.5320  157.2280 N   0  0  0  0  0  1  0  0  0  0  0  0
  154.7150  211.4670  154.5430 O   0  0  0  0  0  0  0  0  0  0  0  0
  161.7830  207.7210  153.7950 N   0  0  0  0  0  0  0  0  0  0  0  0
  161.4290  208.9380  151.0970 C   0  0  0  0  0  0  0  0  0  0  0  0
  161.8220  207.4420  155.1660 N   0  0  0  0  0  0  0  0  0  0  0  0
  156.8820  211.4280  155.5530 C   0  0  2  0  0  3  0  0  0  0  0  0
  156.7310  214.4530  152.1050 C   0  0  0  0  0  2  0  0  0  0  0  0
  157.2140  213.9900  150.8190 N   0  0  0  0  0  2  0  0  0  0  0  0
  158.0640  211.4320  154.5950 C   0  0  1  0  0  3  0  0  0  0  0  0
  161.8470  207.5240  150.8720 C   0  0  0  0  0  1  0  0  0  0  0  0
  161.4600  208.4970  155.8110 C   0  0  0  0  0  0  0  0  0  0  0  0
  161.0120  214.4530  147.8830 N   0  0  0  0  0  1  0  0  0  0  0  0
  155.8090  213.4980  154.6800 O   0  0  0  0  0  0  0  0  0  0  0  0
  159.3280  211.3920  155.3850 C   0  0  0  0  0  3  0  0  0  0  0  0
  162.7720  211.9590  147.5460 C   0  0  0  0  0  2  0  0  0  0  0  0
  161.8320  212.6140  146.5520 C   0  0  1  0  0  3  0  0  0  0  0  0
  162.3470  213.8690  146.1860 O   0  0  0  0  0  0  0  0  0  0  0  0
  162.5280  212.8200  145.2660 C   0  0  2  0  0  3  0  0  0  0  0  0
  161.5070  212.9570  144.1520 C   0  0  0  0  0  2  0  0  0  0  0  0
  162.7920  213.0620  142.2070 C   0  0  0  0  0  2  0  0  0  0  0  0
  162.5180  212.7770  140.7470 C   0  0  1  0  0  3  0  0  0  0  0  0
  161.1750  212.0900  140.7170 C   0  0  0  0  0  2  0  0  0  0  0  0
  162.4510  213.9780  140.0390 O   0  0  0  0  0  1  0  0  0  0  0  0
  161.9320  212.1920  142.9930 N   0  0  0  0  0  0  0  0  0  0  0  0
  160.7540  211.9640  142.1680 C   0  0  0  0  0  2  0  0  0  0  0  0
  1  2  1  0  0  0  0
  2 18  1  0  0  0  0
  3 14  1  0  0  0  0
  3  1  1  0  0  0  0
  4 26  1  0  0  0  0
  5  1  1  0  0  0  0
  5 22  1  0  0  0  0
  7 12  1  0  0  0  0
  7  3  2  0  0  0  0
  8 32  2  0  0  0  0
  9 30  1  6  0  0  0
  9 15  1  0  0  0  0
  9 14  1  0  0  0  0
 10 24  1  0  0  0  0
 11 31  1  0  0  0  0
 12  5  2  0  0  0  0
 13  8  2  0  0  0  0
 13 29  1  0  0  0  0
 15  4  1  0  0  0  0
 16 11  1  0  0  0  0
 17 21  2  0  0  0  0
 17 13  1  0  0  0  0
 18 17  1  0  0  0  0
 20 10  2  0  0  0  0
 21 23  1  0  0  0  0
 22 18  2  0  0  0  0
 23 29  2  0  0  0  0
 24  6  1  6  0  0  0
 25 16  1  0  0  0  0
 26 25  1  0  0  0  0
 27  6  1  6  0  0  0
 27 32  1  0  0  0  0
 27 24  1  0  0  0  0
 28 22  1  0  0  0  0
 29 19  1  0  0  0  0
 31 10  1  0  0  0  0
 33  7  1  0  0  0  0
 34 33  1  1  0  0  0
 35 34  1  0  0  0  0
 36 37  1  6  0  0  0
 36 35  1  0  0  0  0
 36 34  1  0  0  0  0
 38 42  1  0  0  0  0
 39 41  1  6  0  0  0
 39 38  1  0  0  0  0
 40 39  1  0  0  0  0
 40 43  1  0  0  0  0
 42 37  1  0  0  0  0
 43 42  1  0  0  0  0
M  END
>  <MODEL>
3

>  <REMARK>
 VINA RESULT:      -2.6      3.689     10.049
  Name = 
  4 active torsions:
  status: ('A' for Active; 'I' for Inactive)
    1  A    between atoms: C_5  and  C_9
    2  A    between atoms: C_5  and  C_22
    3  A    between atoms: C_12  and  N_24
    4  A    between atoms: C_12  and  C_42
                            x       y       z     vdW  Elec       q    Type
                         _______ _______ _______ _____ _____    ______ ____

>  <TORSDO>
F 4

$$$$
