=
 OpenBabel11042422293D

 34 36  0  0  1  0  0  0  0  0999 V2000
  162.1530  207.9790  148.2090 C   0  0  0  0  0  3  0  0  0  0  0  0
  161.7500  206.7160  147.7720 C   0  0  0  0  0  3  0  0  0  0  0  0
  161.2810  207.4990  150.4230 C   0  0  0  0  0  0  0  0  0  0  0  0
  160.8830  206.2380  149.9710 C   0  0  0  0  0  3  0  0  0  0  0  0
  161.9290  208.3930  149.5280 C   0  0  0  0  0  0  0  0  0  0  0  0
  161.1140  205.8400  148.6490 C   0  0  0  0  0  0  0  0  0  0  0  0
  161.0170  207.8030  151.8050 C   0  0  0  0  0  0  0  0  0  0  0  0
  160.7700  208.0680  152.9550 C   0  0  0  0  0  0  0  0  0  0  0  0
  158.0510  213.4580  154.8400 O   0  0  0  0  0  1  0  0  0  0  0  0
  160.6250  210.1540  156.1720 C   0  0  1  0  0  3  0  0  0  0  0  0
  160.0880  212.7380  155.9160 C   0  0  2  0  0  3  0  0  0  0  0  0
  160.8430  209.8480  154.6730 C   0  0  2  0  0  3  0  0  0  0  0  0
  161.3830  209.1570  157.0510 C   0  0  0  0  0  2  0  0  0  0  0  0
  160.1340  210.8640  153.7470 C   0  0  0  0  0  2  0  0  0  0  0  0
  160.2400  214.0310  156.7070 C   0  0  0  0  0  1  0  0  0  0  0  0
  161.2060  207.4250  155.2600 C   0  0  0  0  0  2  0  0  0  0  0  0
  161.8450  211.8670  157.2600 O   0  0  0  0  0  0  0  0  0  0  0  0
  158.5880  212.4640  155.6610 C   0  0  2  0  0  3  0  0  0  0  0  0
  160.9350  207.7370  156.7270 C   0  0  0  0  0  2  0  0  0  0  0  0
  160.4540  208.3950  154.3500 C   0  0  2  0  0  3  0  0  0  0  0  0
  160.8930  211.6010  156.5400 C   0  0  0  0  0  0  0  0  0  0  0  0
  158.2420  211.0790  155.0890 C   0  0  0  0  0  2  0  0  0  0  0  0
  158.7190  210.8360  153.7800 O   0  0  0  0  0  0  0  0  0  0  0  0
  162.3720  209.6840  149.8620 O   0  0  0  0  0  0  0  0  0  0  0  0
  162.0350  210.8800  149.1750 C   0  0  0  0  0  1  0  0  0  0  0  0
  160.7060  204.5500  148.1830 N   0  0  0  0  0  2  0  0  0  0  0  0
  161.6330  203.5630  147.6350 C   0  0  2  0  0  3  0  0  0  0  0  0
  161.4310  203.4010  146.1280 C   0  0  0  0  0  2  0  0  0  0  0  0
  160.8550  202.0320  145.8070 C   0  0  0  0  0  2  0  0  0  0  0  0
  159.8990  202.1440  144.7970 O   0  0  0  0  0  1  0  0  0  0  0  0
  161.5140  202.2850  148.3410 N   0  0  0  0  0  2  0  0  0  0  0  0
  160.3980  202.3210  149.2820 C   0  0  0  0  0  2  0  0  0  0  0  0
  161.1790  202.8800  151.4910 N   0  0  0  0  0  2  0  0  0  0  0  0
  160.8750  201.9630  150.6500 C   0  0  0  0  0  3  0  0  0  0  0  0
  1  5  1  0  0  0  0
  2  1  2  0  0  0  0
  2  6  1  0  0  0  0
  3  7  1  0  0  0  0
  4  3  1  0  0  0  0
  5 24  1  0  0  0  0
  5  3  2  0  0  0  0
  6  4  2  0  0  0  0
  7  8  3  0  0  0  0
 10 21  1  0  0  0  0
 10 13  1  1  0  0  0
 11 21  1  0  0  0  0
 11 15  1  1  0  0  0
 12 14  1  6  0  0  0
 12 10  1  0  0  0  0
 14 23  1  0  0  0  0
 16 19  1  0  0  0  0
 18  9  1  6  0  0  0
 18 11  1  0  0  0  0
 19 13  1  0  0  0  0
 20  8  1  6  0  0  0
 20 12  1  0  0  0  0
 20 16  1  0  0  0  0
 21 17  2  0  0  0  0
 22 18  1  0  0  0  0
 23 22  1  0  0  0  0
 25 24  1  0  0  0  0
 26  6  1  0  0  0  0
 27 28  1  6  0  0  0
 27 26  1  0  0  0  0
 27 31  1  0  0  0  0
 29 28  1  0  0  0  0
 30 29  1  0  0  0  0
 31 32  1  0  0  0  0
 32 34  1  0  0  0  0
 34 33  2  0  0  0  0
M  END
>  <MODEL>
1

>  <REMARK>
 VINA RESULT:      -7.4      0.000      0.000
  Name = 
  10 active torsions:
  status: ('A' for Active; 'I' for Inactive)
    1  A    between atoms: C_2  and  C_8
    2  A    between atoms: C_8  and  C_10
    3  A    between atoms: C_10  and  N_32
    4  A    between atoms: C_10  and  N_33
    5  A    between atoms: C_11  and  C_14
    6  A    between atoms: C_17  and  C_29
    7  A    between atoms: C_19  and  O_24
    8  A    between atoms: C_21  and  C_23
    9  A    between atoms: C_23  and  N_32
   10  A    between atoms: C_25  and  N_33
                            x       y       z     vdW  Elec       q    Type
                         _______ _______ _______ _____ _____    ______ ____

>  <TORSDO>
F 10

$$$$
=
 OpenBabel11042422293D

 34 36  0  0  1  0  0  0  0  0999 V2000
  161.3450  206.0460  153.6390 C   0  0  0  0  0  3  0  0  0  0  0  0
  161.6260  205.4640  152.4010 C   0  0  0  0  0  3  0  0  0  0  0  0
  160.9120  208.1720  152.5510 C   0  0  0  0  0  0  0  0  0  0  0  0
  161.1970  207.5760  151.3190 C   0  0  0  0  0  3  0  0  0  0  0  0
  160.9880  207.3960  153.7400 C   0  0  0  0  0  0  0  0  0  0  0  0
  161.5530  206.2250  151.2360 C   0  0  0  0  0  0  0  0  0  0  0  0
  160.5350  209.5600  152.5250 C   0  0  0  0  0  0  0  0  0  0  0  0
  160.2200  210.7240  152.5320 C   0  0  0  0  0  0  0  0  0  0  0  0
  156.7330  213.4190  157.0670 O   0  0  0  0  0  1  0  0  0  0  0  0
  157.9320  213.7860  152.8550 C   0  0  1  0  0  3  0  0  0  0  0  0
  156.0900  213.7250  154.7610 C   0  0  2  0  0  3  0  0  0  0  0  0
  158.3630  212.3060  152.9490 C   0  0  2  0  0  3  0  0  0  0  0  0
  158.2110  214.3510  151.4610 C   0  0  0  0  0  2  0  0  0  0  0  0
  158.0510  211.6790  154.3290 C   0  0  0  0  0  2  0  0  0  0  0  0
  154.7770  214.4110  155.1180 C   0  0  0  0  0  1  0  0  0  0  0  0
  160.0960  212.7370  151.1720 C   0  0  0  0  0  2  0  0  0  0  0  0
  155.6640  214.3800  152.5150 O   0  0  0  0  0  0  0  0  0  0  0  0
  157.1340  214.0060  155.8650 C   0  0  2  0  0  3  0  0  0  0  0  0
  159.6920  214.2060  151.1320 C   0  0  0  0  0  2  0  0  0  0  0  0
  159.8410  212.1420  152.5560 C   0  0  2  0  0  3  0  0  0  0  0  0
  156.5120  214.0350  153.3270 C   0  0  0  0  0  0  0  0  0  0  0  0
  158.5810  213.5930  155.5470 C   0  0  0  0  0  2  0  0  0  0  0  0
  158.7910  212.2010  155.4170 O   0  0  0  0  0  0  0  0  0  0  0  0
  160.7290  207.8800  155.0330 O   0  0  0  0  0  0  0  0  0  0  0  0
  159.8640  207.2800  155.9850 C   0  0  0  0  0  1  0  0  0  0  0  0
  161.8460  205.6130  149.9770 N   0  0  0  0  0  2  0  0  0  0  0  0
  160.8220  205.0610  149.0940 C   0  0  2  0  0  3  0  0  0  0  0  0
  161.2370  203.6870  148.5660 C   0  0  0  0  0  2  0  0  0  0  0  0
  160.5070  202.5820  149.3100 C   0  0  0  0  0  2  0  0  0  0  0  0
  160.8770  202.5890  150.6550 O   0  0  0  0  0  1  0  0  0  0  0  0
  160.5140  205.9920  148.0050 N   0  0  0  0  0  2  0  0  0  0  0  0
  161.6930  206.2170  147.1730 C   0  0  0  0  0  2  0  0  0  0  0  0
  160.1510  206.1730  145.3230 N   0  0  0  0  0  2  0  0  0  0  0  0
  161.3510  205.9990  145.7370 C   0  0  0  0  0  3  0  0  0  0  0  0
  1  5  1  0  0  0  0
  2  1  2  0  0  0  0
  3  5  2  0  0  0  0
  4  3  1  0  0  0  0
  5 24  1  0  0  0  0
  6  4  2  0  0  0  0
  6  2  1  0  0  0  0
  7  8  3  0  0  0  0
  7  3  1  0  0  0  0
 10 13  1  6  0  0  0
 10 12  1  0  0  0  0
 10 21  1  0  0  0  0
 11 15  1  1  0  0  0
 11 18  1  0  0  0  0
 12 14  1  1  0  0  0
 14 23  1  0  0  0  0
 16 20  1  0  0  0  0
 17 21  2  0  0  0  0
 18  9  1  1  0  0  0
 19 16  1  0  0  0  0
 19 13  1  0  0  0  0
 20  8  1  6  0  0  0
 20 12  1  0  0  0  0
 21 11  1  0  0  0  0
 22 18  1  0  0  0  0
 23 22  1  0  0  0  0
 24 25  1  0  0  0  0
 26  6  1  0  0  0  0
 27 28  1  6  0  0  0
 27 26  1  0  0  0  0
 28 29  1  0  0  0  0
 29 30  1  0  0  0  0
 31 27  1  0  0  0  0
 32 31  1  0  0  0  0
 33 34  2  0  0  0  0
 34 32  1  0  0  0  0
M  END
>  <MODEL>
2

>  <REMARK>
 VINA RESULT:      -7.3      2.614      4.931
  Name = 
  10 active torsions:
  status: ('A' for Active; 'I' for Inactive)
    1  A    between atoms: C_2  and  C_8
    2  A    between atoms: C_8  and  C_10
    3  A    between atoms: C_10  and  N_32
    4  A    between atoms: C_10  and  N_33
    5  A    between atoms: C_11  and  C_14
    6  A    between atoms: C_17  and  C_29
    7  A    between atoms: C_19  and  O_24
    8  A    between atoms: C_21  and  C_23
    9  A    between atoms: C_23  and  N_32
   10  A    between atoms: C_25  and  N_33
                            x       y       z     vdW  Elec       q    Type
                         _______ _______ _______ _____ _____    ______ ____

>  <TORSDO>
F 10

$$$$
=
 OpenBabel11042422293D

 34 36  0  0  1  0  0  0  0  0999 V2000
  162.2330  207.7560  148.6080 C   0  0  0  0  0  3  0  0  0  0  0  0
  162.0240  206.4090  148.3040 C   0  0  0  0  0  3  0  0  0  0  0  0
  161.3740  207.3910  150.8490 C   0  0  0  0  0  0  0  0  0  0  0  0
  161.1690  206.0460  150.5290 C   0  0  0  0  0  3  0  0  0  0  0  0
  161.9150  208.2700  149.8710 C   0  0  0  0  0  0  0  0  0  0  0  0
  161.4920  205.5490  149.2620 C   0  0  0  0  0  0  0  0  0  0  0  0
  161.0290  207.7970  152.1860 C   0  0  0  0  0  0  0  0  0  0  0  0
  160.7330  208.1620  153.2960 C   0  0  0  0  0  0  0  0  0  0  0  0
  157.5730  213.5020  154.5180 O   0  0  0  0  0  1  0  0  0  0  0  0
  160.3640  210.5820  156.2500 C   0  0  1  0  0  3  0  0  0  0  0  0
  159.6360  213.0700  155.6940 C   0  0  2  0  0  3  0  0  0  0  0  0
  160.6350  210.1260  154.7990 C   0  0  2  0  0  3  0  0  0  0  0  0
  161.1770  209.7540  157.2460 C   0  0  0  0  0  2  0  0  0  0  0  0
  159.8690  210.9720  153.7540 C   0  0  0  0  0  2  0  0  0  0  0  0
  159.6740  214.4530  156.3330 C   0  0  0  0  0  1  0  0  0  0  0  0
  161.1700  207.8200  155.6640 C   0  0  0  0  0  2  0  0  0  0  0  0
  161.4280  212.4980  157.1490 O   0  0  0  0  0  0  0  0  0  0  0  0
  158.1670  212.6540  155.4540 C   0  0  2  0  0  3  0  0  0  0  0  0
  160.8460  208.2760  157.0830 C   0  0  0  0  0  2  0  0  0  0  0  0
  160.3650  208.6200  154.6410 C   0  0  2  0  0  3  0  0  0  0  0  0
  160.5130  212.0780  156.4530 C   0  0  0  0  0  0  0  0  0  0  0  0
  157.9400  211.1890  155.0410 C   0  0  0  0  0  2  0  0  0  0  0  0
  158.4610  210.8370  153.7750 O   0  0  0  0  0  0  0  0  0  0  0  0
  162.1630  209.6390  150.0710 O   0  0  0  0  0  0  0  0  0  0  0  0
  162.0050  210.6600  149.0990 C   0  0  0  0  0  1  0  0  0  0  0  0
  161.2820  204.1730  148.9310 N   0  0  0  0  0  2  0  0  0  0  0  0
  161.1590  203.6850  147.5600 C   0  0  2  0  0  3  0  0  0  0  0  0
  161.1290  202.1560  147.5230 C   0  0  0  0  0  2  0  0  0  0  0  0
  160.6910  201.5950  148.8650 C   0  0  0  0  0  2  0  0  0  0  0  0
  159.3100  201.3950  148.8680 O   0  0  0  0  0  1  0  0  0  0  0  0
  162.2240  204.2290  146.7140 N   0  0  0  0  0  2  0  0  0  0  0  0
  161.8830  204.0840  145.3020 C   0  0  0  0  0  2  0  0  0  0  0  0
  160.6370  206.1250  145.0100 N   0  0  0  0  0  2  0  0  0  0  0  0
  160.6350  204.8440  145.0000 C   0  0  0  0  0  3  0  0  0  0  0  0
  1  5  1  0  0  0  0
  2  1  2  0  0  0  0
  2  6  1  0  0  0  0
  3  7  1  0  0  0  0
  4  3  1  0  0  0  0
  5 24  1  0  0  0  0
  5  3  2  0  0  0  0
  6  4  2  0  0  0  0
  7  8  3  0  0  0  0
 10 21  1  0  0  0  0
 10 13  1  1  0  0  0
 11 15  1  1  0  0  0
 11 21  1  0  0  0  0
 12 14  1  6  0  0  0
 12 10  1  0  0  0  0
 14 23  1  0  0  0  0
 16 19  1  0  0  0  0
 18  9  1  6  0  0  0
 18 11  1  0  0  0  0
 19 13  1  0  0  0  0
 20  8  1  6  0  0  0
 20 12  1  0  0  0  0
 20 16  1  0  0  0  0
 21 17  2  0  0  0  0
 22 18  1  0  0  0  0
 23 22  1  0  0  0  0
 25 24  1  0  0  0  0
 26  6  1  0  0  0  0
 27 28  1  1  0  0  0
 27 26  1  0  0  0  0
 28 29  1  0  0  0  0
 29 30  1  0  0  0  0
 31 27  1  0  0  0  0
 32 31  1  0  0  0  0
 34 33  2  0  0  0  0
 34 32  1  0  0  0  0
M  END
>  <MODEL>
3

>  <REMARK>
 VINA RESULT:      -6.7      1.228      2.170
  Name = 
  10 active torsions:
  status: ('A' for Active; 'I' for Inactive)
    1  A    between atoms: C_2  and  C_8
    2  A    between atoms: C_8  and  C_10
    3  A    between atoms: C_10  and  N_32
    4  A    between atoms: C_10  and  N_33
    5  A    between atoms: C_11  and  C_14
    6  A    between atoms: C_17  and  C_29
    7  A    between atoms: C_19  and  O_24
    8  A    between atoms: C_21  and  C_23
    9  A    between atoms: C_23  and  N_32
   10  A    between atoms: C_25  and  N_33
                            x       y       z     vdW  Elec       q    Type
                         _______ _______ _______ _____ _____    ______ ____

>  <TORSDO>
F 10

$$$$
=
 OpenBabel11042422293D

 34 36  0  0  1  0  0  0  0  0999 V2000
  161.5180  205.6730  152.5870 C   0  0  0  0  0  3  0  0  0  0  0  0
  161.3180  205.1600  151.3040 C   0  0  0  0  0  3  0  0  0  0  0  0
  160.8370  207.8740  151.8230 C   0  0  0  0  0  0  0  0  0  0  0  0
  160.6420  207.3470  150.5430 C   0  0  0  0  0  3  0  0  0  0  0  0
  161.2870  207.0240  152.8700 C   0  0  0  0  0  0  0  0  0  0  0  0
  160.8790  205.9930  150.2760 C   0  0  0  0  0  0  0  0  0  0  0  0
  160.5440  209.2720  151.9970 C   0  0  0  0  0  0  0  0  0  0  0  0
  160.3250  210.4470  152.1540 C   0  0  0  0  0  0  0  0  0  0  0  0
  157.5330  212.9230  157.2600 O   0  0  0  0  0  1  0  0  0  0  0  0
  158.3500  213.6260  152.9990 C   0  0  1  0  0  3  0  0  0  0  0  0
  156.7010  213.5110  155.0720 C   0  0  2  0  0  3  0  0  0  0  0  0
  158.6590  212.1150  152.9090 C   0  0  2  0  0  3  0  0  0  0  0  0
  158.5420  214.3070  151.6430 C   0  0  0  0  0  2  0  0  0  0  0  0
  158.4280  211.3770  154.2490 C   0  0  0  0  0  2  0  0  0  0  0  0
  155.4920  214.2550  155.6260 C   0  0  0  0  0  1  0  0  0  0  0  0
  160.2450  212.5920  151.0090 C   0  0  0  0  0  2  0  0  0  0  0  0
  156.1200  214.4220  152.9540 O   0  0  0  0  0  0  0  0  0  0  0  0
  157.8660  213.5970  156.0840 C   0  0  2  0  0  3  0  0  0  0  0  0
  159.9670  214.0840  151.1500 C   0  0  0  0  0  2  0  0  0  0  0  0
  160.0730  211.8790  152.3500 C   0  0  2  0  0  3  0  0  0  0  0  0
  157.0090  213.9320  153.6380 C   0  0  0  0  0  0  0  0  0  0  0  0
  159.2350  213.1090  155.5790 C   0  0  0  0  0  2  0  0  0  0  0  0
  159.3110  211.7260  155.2980 O   0  0  0  0  0  0  0  0  0  0  0  0
  161.5220  207.4360  154.1930 O   0  0  0  0  0  0  0  0  0  0  0  0
  160.8090  206.9930  155.3380 C   0  0  0  0  0  1  0  0  0  0  0  0
  160.6810  205.4510  148.9670 N   0  0  0  0  0  2  0  0  0  0  0  0
  161.7780  205.0860  148.0740 C   0  0  2  0  0  3  0  0  0  0  0  0
  161.9270  206.1070  146.9450 C   0  0  0  0  0  2  0  0  0  0  0  0
  160.7870  205.9770  145.9500 C   0  0  0  0  0  2  0  0  0  0  0  0
  161.2930  205.6880  144.6820 O   0  0  0  0  0  1  0  0  0  0  0  0
  161.6020  203.7260  147.5590 N   0  0  0  0  0  2  0  0  0  0  0  0
  161.2130  202.8170  148.6330 C   0  0  0  0  0  2  0  0  0  0  0  0
  161.1550  200.8900  147.1890 N   0  0  0  0  0  2  0  0  0  0  0  0
  160.5510  201.6080  148.0610 C   0  0  0  0  0  3  0  0  0  0  0  0
  1  5  1  0  0  0  0
  2  1  2  0  0  0  0
  3  7  1  0  0  0  0
  3  5  2  0  0  0  0
  4  3  1  0  0  0  0
  5 24  1  0  0  0  0
  6  4  2  0  0  0  0
  6  2  1  0  0  0  0
  7  8  3  0  0  0  0
 10 13  1  6  0  0  0
 10 21  1  0  0  0  0
 11 15  1  1  0  0  0
 11 18  1  0  0  0  0
 12 10  1  0  0  0  0
 12 14  1  1  0  0  0
 14 23  1  0  0  0  0
 16 19  1  0  0  0  0
 16 20  1  0  0  0  0
 17 21  2  0  0  0  0
 18  9  1  1  0  0  0
 19 13  1  0  0  0  0
 20  8  1  6  0  0  0
 20 12  1  0  0  0  0
 21 11  1  0  0  0  0
 22 18  1  0  0  0  0
 23 22  1  0  0  0  0
 24 25  1  0  0  0  0
 26  6  1  0  0  0  0
 27 28  1  6  0  0  0
 27 26  1  0  0  0  0
 29 28  1  0  0  0  0
 30 29  1  0  0  0  0
 31 27  1  0  0  0  0
 31 32  1  0  0  0  0
 33 34  2  0  0  0  0
 34 32  1  0  0  0  0
M  END
>  <MODEL>
4

>  <REMARK>
 VINA RESULT:      -6.5      2.282      4.223
  Name = 
  10 active torsions:
  status: ('A' for Active; 'I' for Inactive)
    1  A    between atoms: C_2  and  C_8
    2  A    between atoms: C_8  and  C_10
    3  A    between atoms: C_10  and  N_32
    4  A    between atoms: C_10  and  N_33
    5  A    between atoms: C_11  and  C_14
    6  A    between atoms: C_17  and  C_29
    7  A    between atoms: C_19  and  O_24
    8  A    between atoms: C_21  and  C_23
    9  A    between atoms: C_23  and  N_32
   10  A    between atoms: C_25  and  N_33
                            x       y       z     vdW  Elec       q    Type
                         _______ _______ _______ _____ _____    ______ ____

>  <TORSDO>
F 10

$$$$
=
 OpenBabel11042422293D

 34 36  0  0  1  0  0  0  0  0999 V2000
  160.5250  202.8230  150.9730 C   0  0  0  0  0  3  0  0  0  0  0  0
  160.8460  202.3140  149.7130 C   0  0  0  0  0  3  0  0  0  0  0  0
  161.2070  205.0410  150.2590 C   0  0  0  0  0  0  0  0  0  0  0  0
  161.5250  204.5160  149.0030 C   0  0  0  0  0  3  0  0  0  0  0  0
  160.6980  204.1800  151.2700 C   0  0  0  0  0  0  0  0  0  0  0  0
  161.3460  203.1570  148.7230 C   0  0  0  0  0  0  0  0  0  0  0  0
  161.4070  206.4550  150.4380 C   0  0  0  0  0  0  0  0  0  0  0  0
  161.5860  207.6340  150.6130 C   0  0  0  0  0  0  0  0  0  0  0  0
  160.6220  210.5800  156.1260 O   0  0  0  0  0  1  0  0  0  0  0  0
  160.8330  211.2100  151.7810 C   0  0  1  0  0  3  0  0  0  0  0  0
  159.6240  211.4890  154.1240 C   0  0  2  0  0  3  0  0  0  0  0  0
  160.6570  209.6810  151.6480 C   0  0  2  0  0  3  0  0  0  0  0  0
  160.9730  211.8670  150.4070 C   0  0  0  0  0  2  0  0  0  0  0  0
  160.4600  208.9810  153.0140 C   0  0  0  0  0  2  0  0  0  0  0  0
  158.8120  212.5290  154.8860 C   0  0  0  0  0  1  0  0  0  0  0  0
  161.9450  209.7580  149.4840 C   0  0  0  0  0  2  0  0  0  0  0  0
  158.9720  212.6290  152.1420 O   0  0  0  0  0  0  0  0  0  0  0  0
  160.9240  211.1800  154.9020 C   0  0  2  0  0  3  0  0  0  0  0  0
  162.1540  211.2580  149.6610 C   0  0  0  0  0  2  0  0  0  0  0  0
  161.8120  209.0660  150.8400 C   0  0  2  0  0  3  0  0  0  0  0  0
  159.7820  211.8680  152.6540 C   0  0  0  0  0  0  0  0  0  0  0  0
  161.9720  210.3350  154.1570 C   0  0  0  0  0  2  0  0  0  0  0  0
  161.5800  209.0060  153.8790 O   0  0  0  0  0  0  0  0  0  0  0  0
  160.3460  204.5880  152.5680 O   0  0  0  0  0  0  0  0  0  0  0  0
  161.2060  205.2310  153.4960 C   0  0  0  0  0  1  0  0  0  0  0  0
  161.6710  202.6170  147.4390 N   0  0  0  0  0  2  0  0  0  0  0  0
  160.8360  202.8000  146.2540 C   0  0  2  0  0  3  0  0  0  0  0  0
  160.4470  201.4530  145.6450 C   0  0  0  0  0  2  0  0  0  0  0  0
  160.9930  200.3070  146.4790 C   0  0  0  0  0  2  0  0  0  0  0  0
  161.2250  199.1960  145.6690 O   0  0  0  0  0  1  0  0  0  0  0  0
  161.4980  203.6690  145.2780 N   0  0  0  0  0  2  0  0  0  0  0  0
  160.5120  204.4230  144.5090 C   0  0  0  0  0  2  0  0  0  0  0  0
  160.5730  206.1890  146.1460 N   0  0  0  0  0  2  0  0  0  0  0  0
  160.5470  205.8600  144.9090 C   0  0  0  0  0  3  0  0  0  0  0  0
  1  5  1  0  0  0  0
  2  1  2  0  0  0  0
  3  7  1  0  0  0  0
  3  5  2  0  0  0  0
  4  3  1  0  0  0  0
  5 24  1  0  0  0  0
  6  4  2  0  0  0  0
  6  2  1  0  0  0  0
  7  8  3  0  0  0  0
 10 13  1  6  0  0  0
 10 21  1  0  0  0  0
 11 15  1  1  0  0  0
 11 18  1  0  0  0  0
 12 10  1  0  0  0  0
 12 14  1  1  0  0  0
 14 23  1  0  0  0  0
 16 19  1  0  0  0  0
 16 20  1  0  0  0  0
 17 21  2  0  0  0  0
 18  9  1  1  0  0  0
 19 13  1  0  0  0  0
 20  8  1  6  0  0  0
 20 12  1  0  0  0  0
 21 11  1  0  0  0  0
 22 18  1  0  0  0  0
 23 22  1  0  0  0  0
 24 25  1  0  0  0  0
 26  6  1  0  0  0  0
 27 28  1  6  0  0  0
 27 26  1  0  0  0  0
 28 29  1  0  0  0  0
 30 29  1  0  0  0  0
 31 27  1  0  0  0  0
 32 34  1  0  0  0  0
 32 31  1  0  0  0  0
 34 33  2  0  0  0  0
M  END
>  <MODEL>
5

>  <REMARK>
 VINA RESULT:      -6.3      2.102      4.448
  Name = 
  10 active torsions:
  status: ('A' for Active; 'I' for Inactive)
    1  A    between atoms: C_2  and  C_8
    2  A    between atoms: C_8  and  C_10
    3  A    between atoms: C_10  and  N_32
    4  A    between atoms: C_10  and  N_33
    5  A    between atoms: C_11  and  C_14
    6  A    between atoms: C_17  and  C_29
    7  A    between atoms: C_19  and  O_24
    8  A    between atoms: C_21  and  C_23
    9  A    between atoms: C_23  and  N_32
   10  A    between atoms: C_25  and  N_33
                            x       y       z     vdW  Elec       q    Type
                         _______ _______ _______ _____ _____    ______ ____

>  <TORSDO>
F 10

$$$$
=
 OpenBabel11042422293D

 34 36  0  0  1  0  0  0  0  0999 V2000
  158.6920  212.4430  154.1830 C   0  0  0  0  0  3  0  0  0  0  0  0
  158.7800  213.4450  153.2150 C   0  0  0  0  0  3  0  0  0  0  0  0
  159.8730  210.9110  152.7180 C   0  0  0  0  0  0  0  0  0  0  0  0
  159.9530  211.9240  151.7570 C   0  0  0  0  0  3  0  0  0  0  0  0
  159.2280  211.1700  153.9580 C   0  0  0  0  0  0  0  0  0  0  0  0
  159.4100  213.1910  151.9980 C   0  0  0  0  0  0  0  0  0  0  0  0
  160.4810  209.6510  152.3800 C   0  0  0  0  0  0  0  0  0  0  0  0
  161.0100  208.6010  152.1160 C   0  0  0  0  0  0  0  0  0  0  0  0
  162.3330  206.5740  146.2740 O   0  0  0  0  0  1  0  0  0  0  0  0
  161.5760  205.2230  150.3870 C   0  0  1  0  0  3  0  0  0  0  0  0
  161.1350  205.1110  147.7750 C   0  0  2  0  0  3  0  0  0  0  0  0
  160.9670  206.6210  150.6310 C   0  0  2  0  0  3  0  0  0  0  0  0
  161.5280  204.3750  151.6590 C   0  0  0  0  0  2  0  0  0  0  0  0
  160.9490  207.4960  149.3550 C   0  0  0  0  0  2  0  0  0  0  0  0
  160.8590  204.0720  146.6960 C   0  0  0  0  0  1  0  0  0  0  0  0
  161.6230  206.4430  153.0570 C   0  0  0  0  0  2  0  0  0  0  0  0
  160.3250  203.5100  149.3340 O   0  0  0  0  0  0  0  0  0  0  0  0
  162.4590  205.8430  147.4570 C   0  0  2  0  0  3  0  0  0  0  0  0
  162.2670  205.0880  152.7850 C   0  0  0  0  0  2  0  0  0  0  0  0
  161.6640  207.3230  151.8090 C   0  0  2  0  0  3  0  0  0  0  0  0
  161.0030  204.5160  149.1740 C   0  0  0  0  0  0  0  0  0  0  0  0
  163.0110  206.7530  148.5690 C   0  0  0  0  0  2  0  0  0  0  0  0
  162.2180  207.8850  148.8650 O   0  0  0  0  0  0  0  0  0  0  0  0
  159.0820  210.2360  154.9970 O   0  0  0  0  0  0  0  0  0  0  0  0
  159.4250  210.4490  156.3580 C   0  0  0  0  0  1  0  0  0  0  0  0
  159.4890  214.2290  151.0170 N   0  0  0  0  0  2  0  0  0  0  0  0
  158.5470  214.3610  149.9090 C   0  0  2  0  0  3  0  0  0  0  0  0
  157.1440  213.9200  150.3290 C   0  0  0  0  0  2  0  0  0  0  0  0
  156.1290  214.2550  149.2490 C   0  0  0  0  0  2  0  0  0  0  0  0
  154.8360  214.0850  149.7430 O   0  0  0  0  0  1  0  0  0  0  0  0
  159.0190  213.6290  148.7310 N   0  0  0  0  0  2  0  0  0  0  0  0
  160.4540  213.8210  148.5480 C   0  0  0  0  0  2  0  0  0  0  0  0
  162.3430  212.3510  148.2800 N   0  0  0  0  0  2  0  0  0  0  0  0
  161.0870  212.5410  148.1150 C   0  0  0  0  0  3  0  0  0  0  0  0
  2  1  2  0  0  0  0
  3  5  2  0  0  0  0
  4  6  2  0  0  0  0
  4  3  1  0  0  0  0
  5  1  1  0  0  0  0
  5 24  1  0  0  0  0
  6  2  1  0  0  0  0
  7  3  1  0  0  0  0
  8  7  3  0  0  0  0
 10 12  1  0  0  0  0
 10 13  1  1  0  0  0
 11 15  1  6  0  0  0
 11 21  1  0  0  0  0
 12 14  1  6  0  0  0
 12 20  1  0  0  0  0
 13 19  1  0  0  0  0
 18  9  1  6  0  0  0
 18 11  1  0  0  0  0
 18 22  1  0  0  0  0
 19 16  1  0  0  0  0
 20  8  1  1  0  0  0
 20 16  1  0  0  0  0
 21 17  2  0  0  0  0
 21 10  1  0  0  0  0
 22 23  1  0  0  0  0
 23 14  1  0  0  0  0
 24 25  1  0  0  0  0
 26  6  1  0  0  0  0
 27 28  1  1  0  0  0
 27 26  1  0  0  0  0
 29 30  1  0  0  0  0
 29 28  1  0  0  0  0
 31 27  1  0  0  0  0
 32 31  1  0  0  0  0
 34 33  2  0  0  0  0
 34 32  1  0  0  0  0
M  END
>  <MODEL>
6

>  <REMARK>
 VINA RESULT:      -6.1      3.913      9.112
  Name = 
  10 active torsions:
  status: ('A' for Active; 'I' for Inactive)
    1  A    between atoms: C_2  and  C_8
    2  A    between atoms: C_8  and  C_10
    3  A    between atoms: C_10  and  N_32
    4  A    between atoms: C_10  and  N_33
    5  A    between atoms: C_11  and  C_14
    6  A    between atoms: C_17  and  C_29
    7  A    between atoms: C_19  and  O_24
    8  A    between atoms: C_21  and  C_23
    9  A    between atoms: C_23  and  N_32
   10  A    between atoms: C_25  and  N_33
                            x       y       z     vdW  Elec       q    Type
                         _______ _______ _______ _____ _____    ______ ____

>  <TORSDO>
F 10

$$$$
=
 OpenBabel11042422293D

 34 36  0  0  1  0  0  0  0  0999 V2000
  158.7260  212.7630  153.9590 C   0  0  0  0  0  3  0  0  0  0  0  0
  158.6960  213.6310  152.8660 C   0  0  0  0  0  3  0  0  0  0  0  0
  159.8350  211.0820  152.6060 C   0  0  0  0  0  0  0  0  0  0  0  0
  159.7980  211.9610  151.5200 C   0  0  0  0  0  3  0  0  0  0  0  0
  159.2870  211.4850  153.8540 C   0  0  0  0  0  0  0  0  0  0  0  0
  159.2320  213.2350  151.6420 C   0  0  0  0  0  0  0  0  0  0  0  0
  160.4590  209.8040  152.3810 C   0  0  0  0  0  0  0  0  0  0  0  0
  160.9860  208.7420  152.1650 C   0  0  0  0  0  0  0  0  0  0  0  0
  162.3170  206.5750  146.3750 O   0  0  0  0  0  1  0  0  0  0  0  0
  161.5390  205.3220  150.5160 C   0  0  1  0  0  3  0  0  0  0  0  0
  161.1060  205.1540  147.9050 C   0  0  2  0  0  3  0  0  0  0  0  0
  160.9370  206.7290  150.7260 C   0  0  2  0  0  3  0  0  0  0  0  0
  161.4820  204.5030  151.8060 C   0  0  0  0  0  2  0  0  0  0  0  0
  160.9280  207.5750  149.4300 C   0  0  0  0  0  2  0  0  0  0  0  0
  160.8270  204.0920  146.8490 C   0  0  0  0  0  1  0  0  0  0  0  0
  161.5840  206.6020  153.1570 C   0  0  0  0  0  2  0  0  0  0  0  0
  160.2810  203.5930  149.4980 O   0  0  0  0  0  0  0  0  0  0  0  0
  162.4350  205.8710  147.5750 C   0  0  2  0  0  3  0  0  0  0  0  0
  162.2210  205.2380  152.9180 C   0  0  0  0  0  2  0  0  0  0  0  0
  161.6340  207.4540  151.8890 C   0  0  2  0  0  3  0  0  0  0  0  0
  160.9660  204.5910  149.3170 C   0  0  0  0  0  0  0  0  0  0  0  0
  162.9890  206.8030  148.6680 C   0  0  0  0  0  2  0  0  0  0  0  0
  162.2010  207.9450  148.9350 O   0  0  0  0  0  0  0  0  0  0  0  0
  159.2620  210.6910  155.0130 O   0  0  0  0  0  0  0  0  0  0  0  0
  159.6650  211.1060  156.3100 C   0  0  0  0  0  1  0  0  0  0  0  0
  159.1920  214.1370  150.5320 N   0  0  0  0  0  2  0  0  0  0  0  0
  159.5570  213.7530  149.1710 C   0  0  2  0  0  3  0  0  0  0  0  0
  160.9130  214.3440  148.7820 C   0  0  0  0  0  2  0  0  0  0  0  0
  161.6720  213.3940  147.8720 C   0  0  0  0  0  2  0  0  0  0  0  0
  161.7220  212.1230  148.4470 O   0  0  0  0  0  1  0  0  0  0  0  0
  158.5060  214.1300  148.2220 N   0  0  0  0  0  2  0  0  0  0  0  0
  157.7080  212.9650  147.8520 C   0  0  0  0  0  2  0  0  0  0  0  0
  158.7510  212.9860  145.6810 N   0  0  0  0  0  2  0  0  0  0  0  0
  157.6820  212.8180  146.3670 C   0  0  0  0  0  3  0  0  0  0  0  0
  2  1  2  0  0  0  0
  3  5  2  0  0  0  0
  4  6  2  0  0  0  0
  4  3  1  0  0  0  0
  5  1  1  0  0  0  0
  5 24  1  0  0  0  0
  6  2  1  0  0  0  0
  7  3  1  0  0  0  0
  8  7  3  0  0  0  0
 10 12  1  0  0  0  0
 10 13  1  1  0  0  0
 11 15  1  6  0  0  0
 11 21  1  0  0  0  0
 12 14  1  6  0  0  0
 12 20  1  0  0  0  0
 13 19  1  0  0  0  0
 18  9  1  6  0  0  0
 18 11  1  0  0  0  0
 18 22  1  0  0  0  0
 19 16  1  0  0  0  0
 20  8  1  1  0  0  0
 20 16  1  0  0  0  0
 21 17  2  0  0  0  0
 21 10  1  0  0  0  0
 22 23  1  0  0  0  0
 23 14  1  0  0  0  0
 24 25  1  0  0  0  0
 26  6  1  0  0  0  0
 27 28  1  6  0  0  0
 27 26  1  0  0  0  0
 29 30  1  0  0  0  0
 29 28  1  0  0  0  0
 31 27  1  0  0  0  0
 32 31  1  0  0  0  0
 33 34  2  0  0  0  0
 34 32  1  0  0  0  0
M  END
>  <MODEL>
7

>  <REMARK>
 VINA RESULT:      -6.0      3.826      8.897
  Name = 
  10 active torsions:
  status: ('A' for Active; 'I' for Inactive)
    1  A    between atoms: C_2  and  C_8
    2  A    between atoms: C_8  and  C_10
    3  A    between atoms: C_10  and  N_32
    4  A    between atoms: C_10  and  N_33
    5  A    between atoms: C_11  and  C_14
    6  A    between atoms: C_17  and  C_29
    7  A    between atoms: C_19  and  O_24
    8  A    between atoms: C_21  and  C_23
    9  A    between atoms: C_23  and  N_32
   10  A    between atoms: C_25  and  N_33
                            x       y       z     vdW  Elec       q    Type
                         _______ _______ _______ _____ _____    ______ ____

>  <TORSDO>
F 10

$$$$
=
 OpenBabel11042422293D

 34 36  0  0  1  0  0  0  0  0999 V2000
  161.2520  203.3830  151.9080 C   0  0  0  0  0  3  0  0  0  0  0  0
  161.0500  202.9120  150.6090 C   0  0  0  0  0  3  0  0  0  0  0  0
  161.2660  205.6670  151.0880 C   0  0  0  0  0  0  0  0  0  0  0  0
  161.0650  205.1820  149.7920 C   0  0  0  0  0  3  0  0  0  0  0  0
  161.3650  204.7530  152.1720 C   0  0  0  0  0  0  0  0  0  0  0  0
  160.9560  203.8080  149.5450 C   0  0  0  0  0  0  0  0  0  0  0  0
  161.3430  207.0960  151.2360 C   0  0  0  0  0  0  0  0  0  0  0  0
  161.4160  208.2900  151.3880 C   0  0  0  0  0  0  0  0  0  0  0  0
  160.2060  211.2400  156.8500 O   0  0  0  0  0  1  0  0  0  0  0  0
  160.3470  211.8050  152.4930 C   0  0  1  0  0  3  0  0  0  0  0  0
  159.1240  212.0180  154.8360 C   0  0  2  0  0  3  0  0  0  0  0  0
  160.3090  210.2640  152.3900 C   0  0  2  0  0  3  0  0  0  0  0  0
  160.4230  212.4460  151.1060 C   0  0  0  0  0  2  0  0  0  0  0  0
  160.1800  209.5750  153.7690 C   0  0  0  0  0  2  0  0  0  0  0  0
  158.2240  212.9940  155.5830 C   0  0  0  0  0  1  0  0  0  0  0  0
  161.5780  210.4170  150.2180 C   0  0  0  0  0  2  0  0  0  0  0  0
  158.3650  213.0560  152.8370 O   0  0  0  0  0  0  0  0  0  0  0  0
  160.4490  211.8430  155.6140 C   0  0  2  0  0  3  0  0  0  0  0  0
  161.6520  211.9320  150.3660 C   0  0  0  0  0  2  0  0  0  0  0  0
  161.5130  209.7410  151.5870 C   0  0  2  0  0  3  0  0  0  0  0  0
  159.2420  212.3810  153.3590 C   0  0  0  0  0  0  0  0  0  0  0  0
  161.5670  211.0820  154.8790 C   0  0  0  0  0  2  0  0  0  0  0  0
  161.2960  209.7170  154.6280 O   0  0  0  0  0  0  0  0  0  0  0  0
  161.5680  205.1180  153.5130 O   0  0  0  0  0  0  0  0  0  0  0  0
  160.8300  206.0980  154.2270 C   0  0  0  0  0  1  0  0  0  0  0  0
  160.7510  203.3080  148.2210 N   0  0  0  0  0  2  0  0  0  0  0  0
  161.5880  203.6800  147.0830 C   0  0  2  0  0  3  0  0  0  0  0  0
  161.2740  205.1010  146.6140 C   0  0  0  0  0  2  0  0  0  0  0  0
  161.9460  205.3890  145.2820 C   0  0  0  0  0  2  0  0  0  0  0  0
  160.9910  205.7710  144.3400 O   0  0  0  0  0  1  0  0  0  0  0  0
  161.4560  202.7060  145.9960 N   0  0  0  0  0  2  0  0  0  0  0  0
  160.4940  201.6680  146.3520 C   0  0  0  0  0  2  0  0  0  0  0  0
  161.4090  199.4540  146.0980 N   0  0  0  0  0  2  0  0  0  0  0  0
  161.2120  200.4630  146.8620 C   0  0  0  0  0  3  0  0  0  0  0  0
  1  5  1  0  0  0  0
  2  1  2  0  0  0  0
  3  7  1  0  0  0  0
  3  5  2  0  0  0  0
  4  3  1  0  0  0  0
  5 24  1  0  0  0  0
  6  4  2  0  0  0  0
  6  2  1  0  0  0  0
  7  8  3  0  0  0  0
 10 13  1  6  0  0  0
 10 21  1  0  0  0  0
 11 15  1  1  0  0  0
 11 18  1  0  0  0  0
 12 10  1  0  0  0  0
 12 14  1  1  0  0  0
 14 23  1  0  0  0  0
 16 19  1  0  0  0  0
 16 20  1  0  0  0  0
 17 21  2  0  0  0  0
 18  9  1  1  0  0  0
 19 13  1  0  0  0  0
 20  8  1  6  0  0  0
 20 12  1  0  0  0  0
 21 11  1  0  0  0  0
 22 18  1  0  0  0  0
 23 22  1  0  0  0  0
 24 25  1  0  0  0  0
 26  6  1  0  0  0  0
 27 28  1  6  0  0  0
 27 26  1  0  0  0  0
 29 28  1  0  0  0  0
 30 29  1  0  0  0  0
 31 32  1  0  0  0  0
 31 27  1  0  0  0  0
 32 34  1  0  0  0  0
 33 34  2  0  0  0  0
M  END
>  <MODEL>
8

>  <REMARK>
 VINA RESULT:      -6.0      2.110      4.020
  Name = 
  10 active torsions:
  status: ('A' for Active; 'I' for Inactive)
    1  A    between atoms: C_2  and  C_8
    2  A    between atoms: C_8  and  C_10
    3  A    between atoms: C_10  and  N_32
    4  A    between atoms: C_10  and  N_33
    5  A    between atoms: C_11  and  C_14
    6  A    between atoms: C_17  and  C_29
    7  A    between atoms: C_19  and  O_24
    8  A    between atoms: C_21  and  C_23
    9  A    between atoms: C_23  and  N_32
   10  A    between atoms: C_25  and  N_33
                            x       y       z     vdW  Elec       q    Type
                         _______ _______ _______ _____ _____    ______ ____

>  <TORSDO>
F 10

$$$$
=
 OpenBabel11042422293D

 34 36  0  0  1  0  0  0  0  0999 V2000
  160.0880  209.5040  154.8270 C   0  0  0  0  0  3  0  0  0  0  0  0
  159.9970  210.6840  154.0860 C   0  0  0  0  0  3  0  0  0  0  0  0
  160.6400  208.2700  152.8110 C   0  0  0  0  0  0  0  0  0  0  0  0
  160.5440  209.4590  152.0820 C   0  0  0  0  0  3  0  0  0  0  0  0
  160.4060  208.2870  154.2130 C   0  0  0  0  0  0  0  0  0  0  0  0
  160.2250  210.6680  152.7110 C   0  0  0  0  0  0  0  0  0  0  0  0
  160.9960  207.0870  152.0730 C   0  0  0  0  0  0  0  0  0  0  0  0
  161.3100  206.0880  151.4770 C   0  0  0  0  0  0  0  0  0  0  0  0
  162.5100  205.7900  145.2750 O   0  0  0  0  0  1  0  0  0  0  0  0
  161.2570  203.3980  148.7420 C   0  0  1  0  0  3  0  0  0  0  0  0
  160.9510  204.2210  146.2400 C   0  0  2  0  0  3  0  0  0  0  0  0
  160.9390  204.7420  149.4330 C   0  0  2  0  0  3  0  0  0  0  0  0
  160.9610  202.2200  149.6720 C   0  0  0  0  0  2  0  0  0  0  0  0
  161.1760  205.9600  148.5080 C   0  0  0  0  0  2  0  0  0  0  0  0
  160.5250  203.6650  144.8870 C   0  0  0  0  0  1  0  0  0  0  0  0
  161.4050  203.6640  151.6620 C   0  0  0  0  0  2  0  0  0  0  0  0
  159.7370  202.4210  147.2100 O   0  0  0  0  0  0  0  0  0  0  0  0
  162.4140  204.7120  146.1570 C   0  0  2  0  0  3  0  0  0  0  0  0
  161.7670  202.3610  150.9580 C   0  0  0  0  0  2  0  0  0  0  0  0
  161.6990  204.8650  150.7640 C   0  0  2  0  0  3  0  0  0  0  0  0
  160.6180  203.2540  147.3730 C   0  0  0  0  0  0  0  0  0  0  0  0
  163.0800  205.0790  147.4950 C   0  0  0  0  0  2  0  0  0  0  0  0
  162.5250  206.2010  148.1520 O   0  0  0  0  0  0  0  0  0  0  0  0
  160.4690  207.1600  155.0510 O   0  0  0  0  0  0  0  0  0  0  0  0
  160.4510  207.1810  156.4700 C   0  0  0  0  0  1  0  0  0  0  0  0
  160.1250  211.8860  151.9680 N   0  0  0  0  0  2  0  0  0  0  0  0
  158.9280  212.7240  151.9550 C   0  0  2  0  0  3  0  0  0  0  0  0
  158.7480  213.3990  150.5940 C   0  0  0  0  0  2  0  0  0  0  0  0
  157.2960  213.3430  150.1540 C   0  0  0  0  0  2  0  0  0  0  0  0
  157.2170  212.9290  148.8240 O   0  0  0  0  0  1  0  0  0  0  0  0
  158.9620  213.7000  153.0470 N   0  0  0  0  0  2  0  0  0  0  0  0
  157.6180  213.9370  153.5650 C   0  0  0  0  0  2  0  0  0  0  0  0
  156.4890  212.4250  155.0620 N   0  0  0  0  0  2  0  0  0  0  0  0
  156.9620  212.6370  153.8900 C   0  0  0  0  0  3  0  0  0  0  0  0
  2  1  2  0  0  0  0
  3  5  2  0  0  0  0
  4  6  2  0  0  0  0
  4  3  1  0  0  0  0
  5  1  1  0  0  0  0
  5 24  1  0  0  0  0
  6  2  1  0  0  0  0
  7  3  1  0  0  0  0
  8  7  3  0  0  0  0
 10 12  1  0  0  0  0
 10 13  1  1  0  0  0
 11 15  1  6  0  0  0
 11 21  1  0  0  0  0
 12 14  1  6  0  0  0
 12 20  1  0  0  0  0
 13 19  1  0  0  0  0
 17 21  2  0  0  0  0
 18  9  1  6  0  0  0
 18 11  1  0  0  0  0
 18 22  1  0  0  0  0
 19 16  1  0  0  0  0
 20  8  1  1  0  0  0
 20 16  1  0  0  0  0
 21 10  1  0  0  0  0
 22 23  1  0  0  0  0
 23 14  1  0  0  0  0
 24 25  1  0  0  0  0
 26  6  1  0  0  0  0
 27 28  1  6  0  0  0
 27 26  1  0  0  0  0
 27 31  1  0  0  0  0
 29 28  1  0  0  0  0
 30 29  1  0  0  0  0
 31 32  1  0  0  0  0
 32 34  1  0  0  0  0
 34 33  2  0  0  0  0
M  END
>  <MODEL>
9

>  <REMARK>
 VINA RESULT:      -5.8      3.813      9.715
  Name = 
  10 active torsions:
  status: ('A' for Active; 'I' for Inactive)
    1  A    between atoms: C_2  and  C_8
    2  A    between atoms: C_8  and  C_10
    3  A    between atoms: C_10  and  N_32
    4  A    between atoms: C_10  and  N_33
    5  A    between atoms: C_11  and  C_14
    6  A    between atoms: C_17  and  C_29
    7  A    between atoms: C_19  and  O_24
    8  A    between atoms: C_21  and  C_23
    9  A    between atoms: C_23  and  N_32
   10  A    between atoms: C_25  and  N_33
                            x       y       z     vdW  Elec       q    Type
                         _______ _______ _______ _____ _____    ______ ____

>  <TORSDO>
F 10

$$$$
