=
 OpenBabel11042421153D

 53 58  0  0  1  0  0  0  0  0999 V2000
  161.1530  205.8980  151.2150 C   0  0  2  0  0  3  0  0  0  0  0  0
  161.6050  203.7340  148.0910 C   0  0  0  0  0  2  0  0  0  0  0  0
  161.6980  201.3170  150.2240 C   0  0  0  0  0  1  0  0  0  0  0  0
  160.9020  204.7870  150.2260 C   0  0  0  0  0  0  0  0  0  0  0  0
  160.7210  203.5440  150.7110 C   0  0  0  0  0  3  0  0  0  0  0  0
  160.7020  202.6190  148.3910 N   0  0  0  0  0  2  0  0  0  0  0  0
  159.2660  201.6830  150.0870 C   0  0  0  0  0  1  0  0  0  0  0  0
  160.6240  202.3170  149.8300 C   0  0  0  0  0  0  0  0  0  0  0  0
  161.0640  205.0020  148.7400 C   0  0  0  0  0  2  0  0  0  0  0  0
  162.0890  206.9890  150.7490 C   0  0  0  0  0  0  0  0  0  0  0  0
  163.3330  206.7830  150.7210 O   0  0  0  0  0  0  0  0  0  0  0  0
  162.2530  209.8570  148.5780 C   0  0  0  0  0  3  0  0  0  0  0  0
  162.2920  211.0420  149.1780 C   0  0  0  0  0  0  0  0  0  0  0  0
  161.3130  209.1550  151.3780 N   0  0  0  0  0  0  0  0  0  0  0  0
  160.9920  210.5560  151.2920 C   0  0  0  0  0  3  0  0  0  0  0  0
  161.3740  207.7170  148.0570 O   0  0  0  0  0  1  0  0  0  0  0  0
  161.4360  211.3920  150.3380 C   0  0  0  0  0  3  0  0  0  0  0  0
  161.3210  208.7680  148.9830 C   0  0  1  0  0  3  0  0  0  0  0  0
  161.5620  208.3300  150.4060 C   0  0  0  0  0  0  0  0  0  0  0  0
  163.1600  211.9910  148.6400 O   0  0  0  0  0  0  0  0  0  0  0  0
  162.7040  213.2340  148.1160 C   0  0  0  0  0  2  0  0  0  0  0  0
  163.0780  213.3090  146.6510 C   0  0  0  0  0  2  0  0  0  0  0  0
  162.2400  214.3760  145.9650 C   0  0  0  0  0  2  0  0  0  0  0  0
  161.3160  213.1190  144.1560 N   0  0  0  0  0  0  0  0  0  0  0  0
  158.7600  213.2640  145.1370 C   0  0  0  0  0  0  0  0  0  0  0  0
  159.0140  212.5820  143.9440 C   0  0  0  0  0  3  0  0  0  0  0  0
  161.0910  213.7740  145.2930 N   0  0  0  0  0  0  0  0  0  0  0  0
  159.8300  213.8570  145.8180 C   0  0  0  0  0  0  0  0  0  0  0  0
  160.3140  212.5200  143.4530 C   0  0  0  0  0  0  0  0  0  0  0  0
  159.6240  214.4530  146.9080 O   0  0  0  0  0  0  0  0  0  0  0  0
  162.0540  211.9050  141.8040 C   0  0  0  0  0  1  0  0  0  0  0  0
  160.6010  211.7200  142.2130 C   0  0  0  0  0  3  0  0  0  0  0  0
  159.6900  212.1260  141.0690 C   0  0  0  0  0  1  0  0  0  0  0  0
  157.4270  213.3540  145.6620 N   0  0  0  0  0  2  0  0  0  0  0  0
  156.5230  214.4530  145.3590 C   0  0  0  0  0  1  0  0  0  0  0  0
  161.5280  205.3360  152.5910 C   0  0  0  0  0  2  0  0  0  0  0  0
  160.0990  206.0200  154.5240 C   0  0  0  0  0  3  0  0  0  0  0  0
  161.9200  207.4870  153.8860 C   0  0  0  0  0  3  0  0  0  0  0  0
  161.5680  208.3780  154.9030 C   0  0  0  0  0  3  0  0  0  0  0  0
  161.2050  206.2890  153.7070 C   0  0  0  0  0  0  0  0  0  0  0  0
  159.7230  206.9330  155.5290 C   0  0  0  0  0  3  0  0  0  0  0  0
  160.4730  208.1030  155.7270 C   0  0  0  0  0  0  0  0  0  0  0  0
  160.0930  209.0660  156.8050 C   0  0  0  0  0  2  0  0  0  0  0  0
  158.9260  210.8580  155.5700 N   0  0  1  0  0  0  0  0  0  0  0  0
  159.4930  213.1750  155.6570 C   0  0  0  0  0  3  0  0  0  0  0  0
  159.2060  212.0390  154.7360 C   0  0  2  0  0  3  0  0  0  0  0  0
  160.1700  210.4930  156.2920 C   0  0  1  0  0  3  0  0  0  0  0  0
  159.1400  211.2990  156.9640 C   0  0  1  0  0  3  0  0  0  0  0  0
  159.4650  212.7580  156.9010 C   0  0  0  0  0  3  0  0  0  0  0  0
  158.2150  211.8040  152.5620 F   0  0  0  0  0  0  0  0  0  0  0  0
  157.7940  213.7140  153.7070 F   0  0  0  0  0  0  0  0  0  0  0  0
  156.8740  211.7360  154.3500 F   0  0  0  0  0  0  0  0  0  0  0  0
  158.0130  212.3430  153.8190 C   0  0  0  0  0  0  0  0  0  0  0  0
  1 36  1  1  0  0  0
  2  6  1  0  0  0  0
  2  9  1  0  0  0  0
  4  5  2  0  0  0  0
  4  1  1  0  0  0  0
  6  8  1  0  0  0  0
  8  7  1  0  0  0  0
  8  3  1  0  0  0  0
  8  5  1  0  0  0  0
  9  4  1  0  0  0  0
 10  1  1  0  0  0  0
 11 10  2  0  0  0  0
 12 18  1  0  0  0  0
 12 13  2  0  0  0  0
 13 17  1  0  0  0  0
 15 14  1  0  0  0  0
 17 15  2  0  0  0  0
 18 16  1  6  0  0  0
 18 19  1  0  0  0  0
 19 10  1  0  0  0  0
 19 14  2  0  0  0  0
 20 13  1  0  0  0  0
 21 20  1  0  0  0  0
 22 21  1  0  0  0  0
 23 22  1  0  0  0  0
 24 27  1  0  0  0  0
 25 34  1  0  0  0  0
 25 28  1  0  0  0  0
 26 25  2  0  0  0  0
 27 28  1  0  0  0  0
 27 23  1  0  0  0  0
 28 30  2  0  0  0  0
 29 26  1  0  0  0  0
 29 24  2  0  0  0  0
 31 32  1  0  0  0  0
 32 29  1  0  0  0  0
 33 32  1  0  0  0  0
 35 34  1  0  0  0  0
 36 40  1  0  0  0  0
 37 41  1  0  0  0  0
 38 39  2  0  0  0  0
 39 42  1  0  0  0  0
 40 38  1  0  0  0  0
 40 37  2  0  0  0  0
 41 42  2  0  0  0  0
 42 43  1  0  0  0  0
 44 47  1  0  0  0  0
 44 48  1  0  0  0  0
 45 49  2  0  0  0  0
 46 44  1  0  0  0  0
 46 45  1  0  0  0  0
 47 43  1  0  0  0  0
 47 48  1  0  0  0  0
 49 48  1  0  0  0  0
 50 53  1  0  0  0  0
 51 53  1  0  0  0  0
 53 52  1  0  0  0  0
 53 46  1  0  0  0  0
M  END
>  <MODEL>
1

>  <REMARK>
 VINA RESULT:      -6.1      0.000      0.000
  Name = 
  15 active torsions:
  status: ('A' for Active; 'I' for Inactive)
    1  A    between atoms: C_2  and  C_20
    2  A    between atoms: C_2  and  C_51
    3  A    between atoms: C_8  and  C_28
    4  A    between atoms: C_8  and  O_45
    5  A    between atoms: C_9  and  C_20
    6  A    between atoms: N_11  and  C_13
    7  A    between atoms: C_12  and  O_45
    8  A    between atoms: C_17  and  C_53
    9  A    between atoms: C_20  and  C_53
   10  A    between atoms: C_21  and  C_30
   11  A    between atoms: C_21  and  C_48
   12  A    between atoms: N_26  and  C_34
   13  A    between atoms: C_28  and  C_34
   14  A    between atoms: C_35  and  C_40
   15  A    between atoms: C_37  and  C_38
                            x       y       z     vdW  Elec       q    Type
                         _______ _______ _______ _____ _____    ______ ____

>  <TORSDO>
F 15

$$$$
=
 OpenBabel11042421153D

 53 58  0  0  1  0  0  0  0  0999 V2000
  161.1460  205.8350  151.1040 C   0  0  2  0  0  3  0  0  0  0  0  0
  161.7010  203.6860  147.9860 C   0  0  0  0  0  2  0  0  0  0  0  0
  161.5890  201.2480  150.0940 C   0  0  0  0  0  1  0  0  0  0  0  0
  160.9140  204.7430  150.0900 C   0  0  0  0  0  0  0  0  0  0  0  0
  160.6630  203.5030  150.5490 C   0  0  0  0  0  3  0  0  0  0  0  0
  160.7450  202.6000  148.2210 N   0  0  0  0  0  2  0  0  0  0  0  0
  159.1840  201.6990  149.8220 C   0  0  0  0  0  1  0  0  0  0  0  0
  160.5750  202.2880  149.6510 C   0  0  0  0  0  0  0  0  0  0  0  0
  161.1680  204.9650  148.6170 C   0  0  0  0  0  2  0  0  0  0  0  0
  162.0810  206.9410  150.6720 C   0  0  0  0  0  0  0  0  0  0  0  0
  163.3260  206.7450  150.6590 O   0  0  0  0  0  0  0  0  0  0  0  0
  162.2360  209.8360  148.5350 C   0  0  0  0  0  3  0  0  0  0  0  0
  162.2690  211.0130  149.1510 C   0  0  0  0  0  0  0  0  0  0  0  0
  161.2950  209.0960  151.3260 N   0  0  0  0  0  0  0  0  0  0  0  0
  160.9690  210.4970  151.2570 C   0  0  0  0  0  3  0  0  0  0  0  0
  161.3650  207.6990  147.9880 O   0  0  0  0  0  1  0  0  0  0  0  0
  161.4110  211.3460  150.3140 C   0  0  0  0  0  3  0  0  0  0  0  0
  161.3070  208.7390  148.9270 C   0  0  1  0  0  3  0  0  0  0  0  0
  161.5480  208.2840  150.3440 C   0  0  0  0  0  0  0  0  0  0  0  0
  163.1350  211.9730  148.6250 O   0  0  0  0  0  0  0  0  0  0  0  0
  162.6730  213.2140  148.1020 C   0  0  0  0  0  2  0  0  0  0  0  0
  162.6630  213.1300  146.5910 C   0  0  0  0  0  2  0  0  0  0  0  0
  162.0300  214.3870  146.0150 C   0  0  0  0  0  2  0  0  0  0  0  0
  159.7370  213.7460  145.8170 N   0  0  0  0  0  0  0  0  0  0  0  0
  159.8040  213.7220  143.0760 C   0  0  0  0  0  0  0  0  0  0  0  0
  158.6210  213.4070  143.7500 C   0  0  0  0  0  3  0  0  0  0  0  0
  160.8720  214.0470  145.1900 N   0  0  0  0  0  0  0  0  0  0  0  0
  160.9400  214.0550  143.8230 C   0  0  0  0  0  0  0  0  0  0  0  0
  158.6000  213.4170  145.1410 C   0  0  0  0  0  0  0  0  0  0  0  0
  162.0080  214.3680  143.2330 O   0  0  0  0  0  0  0  0  0  0  0  0
  156.5030  214.4430  145.9630 C   0  0  0  0  0  1  0  0  0  0  0  0
  157.3090  213.1580  145.8660 C   0  0  0  0  0  3  0  0  0  0  0  0
  157.5570  212.6020  147.2570 C   0  0  0  0  0  1  0  0  0  0  0  0
  159.8580  213.7090  141.6410 N   0  0  0  0  0  2  0  0  0  0  0  0
  158.9290  214.4530  140.8020 C   0  0  0  0  0  1  0  0  0  0  0  0
  161.5080  205.2480  152.4720 C   0  0  0  0  0  2  0  0  0  0  0  0
  160.1230  205.9230  154.4400 C   0  0  0  0  0  3  0  0  0  0  0  0
  161.9290  207.3920  153.7690 C   0  0  0  0  0  3  0  0  0  0  0  0
  161.6010  208.2790  154.7970 C   0  0  0  0  0  3  0  0  0  0  0  0
  161.2100  206.1960  153.6000 C   0  0  0  0  0  0  0  0  0  0  0  0
  159.7700  206.8310  155.4580 C   0  0  0  0  0  3  0  0  0  0  0  0
  160.5240  208.0000  155.6440 C   0  0  0  0  0  0  0  0  0  0  0  0
  160.1690  208.9580  156.7350 C   0  0  0  0  0  2  0  0  0  0  0  0
  158.9360  210.7830  155.6180 N   0  0  1  0  0  0  0  0  0  0  0  0
  159.5560  213.0870  155.6700 C   0  0  0  0  0  3  0  0  0  0  0  0
  159.1650  211.9640  154.7700 C   0  0  2  0  0  3  0  0  0  0  0  0
  160.2300  210.3870  156.2260 C   0  0  1  0  0  3  0  0  0  0  0  0
  159.2810  211.2090  156.9910 C   0  0  1  0  0  3  0  0  0  0  0  0
  159.6290  212.6610  156.9080 C   0  0  0  0  0  3  0  0  0  0  0  0
  157.4390  213.5610  154.2870 F   0  0  0  0  0  0  0  0  0  0  0  0
  156.8960  211.3630  154.1820 F   0  0  0  0  0  0  0  0  0  0  0  0
  158.2310  212.3170  152.6070 F   0  0  0  0  0  0  0  0  0  0  0  0
  157.9030  212.3000  153.9630 C   0  0  0  0  0  0  0  0  0  0  0  0
  1 36  1  1  0  0  0
  2  6  1  0  0  0  0
  2  9  1  0  0  0  0
  4  5  2  0  0  0  0
  4  1  1  0  0  0  0
  6  8  1  0  0  0  0
  8  7  1  0  0  0  0
  8  3  1  0  0  0  0
  8  5  1  0  0  0  0
  9  4  1  0  0  0  0
 10  1  1  0  0  0  0
 11 10  2  0  0  0  0
 12 18  1  0  0  0  0
 12 13  2  0  0  0  0
 13 17  1  0  0  0  0
 15 14  1  0  0  0  0
 17 15  2  0  0  0  0
 18 16  1  6  0  0  0
 18 19  1  0  0  0  0
 19 10  1  0  0  0  0
 19 14  2  0  0  0  0
 20 13  1  0  0  0  0
 21 20  1  0  0  0  0
 22 21  1  0  0  0  0
 23 22  1  0  0  0  0
 25 26  2  0  0  0  0
 25 28  1  0  0  0  0
 26 29  1  0  0  0  0
 27 24  1  0  0  0  0
 27 23  1  0  0  0  0
 28 27  1  0  0  0  0
 29 24  2  0  0  0  0
 29 32  1  0  0  0  0
 30 28  2  0  0  0  0
 32 31  1  0  0  0  0
 32 33  1  0  0  0  0
 34 25  1  0  0  0  0
 35 34  1  0  0  0  0
 36 40  1  0  0  0  0
 37 41  1  0  0  0  0
 38 39  2  0  0  0  0
 39 42  1  0  0  0  0
 40 38  1  0  0  0  0
 40 37  2  0  0  0  0
 41 42  2  0  0  0  0
 42 43  1  0  0  0  0
 44 47  1  0  0  0  0
 44 48  1  0  0  0  0
 45 49  2  0  0  0  0
 46 44  1  0  0  0  0
 46 45  1  0  0  0  0
 47 43  1  0  0  0  0
 47 48  1  0  0  0  0
 49 48  1  0  0  0  0
 52 53  1  0  0  0  0
 53 51  1  0  0  0  0
 53 50  1  0  0  0  0
 53 46  1  0  0  0  0
M  END
>  <MODEL>
2

>  <REMARK>
 VINA RESULT:      -6.0      1.023      2.107
  Name = 
  15 active torsions:
  status: ('A' for Active; 'I' for Inactive)
    1  A    between atoms: C_2  and  C_20
    2  A    between atoms: C_2  and  C_51
    3  A    between atoms: C_8  and  C_28
    4  A    between atoms: C_8  and  O_45
    5  A    between atoms: C_9  and  C_20
    6  A    between atoms: N_11  and  C_13
    7  A    between atoms: C_12  and  O_45
    8  A    between atoms: C_17  and  C_53
    9  A    between atoms: C_20  and  C_53
   10  A    between atoms: C_21  and  C_30
   11  A    between atoms: C_21  and  C_48
   12  A    between atoms: N_26  and  C_34
   13  A    between atoms: C_28  and  C_34
   14  A    between atoms: C_35  and  C_40
   15  A    between atoms: C_37  and  C_38
                            x       y       z     vdW  Elec       q    Type
                         _______ _______ _______ _____ _____    ______ ____

>  <TORSDO>
F 15

$$$$
=
 OpenBabel11042421153D

 53 58  0  0  1  0  0  0  0  0999 V2000
  161.6040  206.5650  149.5770 C   0  0  2  0  0  3  0  0  0  0  0  0
  160.9010  202.8660  148.8910 C   0  0  0  0  0  2  0  0  0  0  0  0
  162.5360  202.4230  151.6350 C   0  0  0  0  0  1  0  0  0  0  0  0
  161.1380  205.1520  149.8280 C   0  0  0  0  0  0  0  0  0  0  0  0
  161.4840  204.5760  150.9940 C   0  0  0  0  0  3  0  0  0  0  0  0
  160.5200  202.4020  150.2280 N   0  0  0  0  0  2  0  0  0  0  0  0
  160.3370  203.0690  152.5370 C   0  0  0  0  0  1  0  0  0  0  0  0
  161.2260  203.1170  151.3050 C   0  0  0  0  0  0  0  0  0  0  0  0
  160.4980  204.3270  148.7360 C   0  0  0  0  0  2  0  0  0  0  0  0
  162.0380  206.8690  148.1610 C   0  0  0  0  0  0  0  0  0  0  0  0
  162.7710  207.8680  147.9270 O   0  0  0  0  0  0  0  0  0  0  0  0
  162.7300  205.3160  144.9870 C   0  0  0  0  0  3  0  0  0  0  0  0
  161.8320  205.5220  144.0290 C   0  0  0  0  0  0  0  0  0  0  0  0
  160.3410  206.2940  146.5860 N   0  0  0  0  0  0  0  0  0  0  0  0
  159.7180  205.7820  145.3930 C   0  0  0  0  0  3  0  0  0  0  0  0
  163.5080  204.6250  147.1180 O   0  0  0  0  0  1  0  0  0  0  0  0
  160.3680  205.4600  144.2620 C   0  0  0  0  0  3  0  0  0  0  0  0
  162.3610  204.9660  146.3870 C   0  0  1  0  0  3  0  0  0  0  0  0
  161.5360  206.0500  147.0330 C   0  0  0  0  0  0  0  0  0  0  0  0
  162.3250  205.7640  142.7470 O   0  0  0  0  0  0  0  0  0  0  0  0
  161.5770  206.4690  141.7610 C   0  0  0  0  0  2  0  0  0  0  0  0
  162.5330  206.9910  140.7090 C   0  0  0  0  0  2  0  0  0  0  0  0
  161.7810  207.2190  139.4070 C   0  0  0  0  0  2  0  0  0  0  0  0
  161.9430  209.5000  140.1000 N   0  0  0  0  0  0  0  0  0  0  0  0
  160.0440  210.3540  138.3150 C   0  0  0  0  0  0  0  0  0  0  0  0
  160.6650  211.2700  139.1690 C   0  0  0  0  0  3  0  0  0  0  0  0
  161.3600  208.6140  139.2950 N   0  0  0  0  0  0  0  0  0  0  0  0
  160.4160  209.0060  138.3850 C   0  0  0  0  0  0  0  0  0  0  0  0
  161.6230  210.8240  140.0740 C   0  0  0  0  0  0  0  0  0  0  0  0
  159.8870  208.1700  137.6060 O   0  0  0  0  0  0  0  0  0  0  0  0
  161.6100  211.9970  142.2530 C   0  0  0  0  0  1  0  0  0  0  0  0
  162.3490  211.8190  140.9370 C   0  0  0  0  0  3  0  0  0  0  0  0
  162.4860  213.1600  140.2390 C   0  0  0  0  0  1  0  0  0  0  0  0
  159.0450  210.7830  137.3780 N   0  0  0  0  0  2  0  0  0  0  0  0
  157.8210  211.4650  137.7740 C   0  0  0  0  0  1  0  0  0  0  0  0
  162.6360  206.9980  150.6230 C   0  0  0  0  0  2  0  0  0  0  0  0
  161.4900  207.2400  152.8310 C   0  0  0  0  0  3  0  0  0  0  0  0
  161.9180  209.2520  151.5510 C   0  0  0  0  0  3  0  0  0  0  0  0
  161.3130  210.0230  152.5460 C   0  0  0  0  0  3  0  0  0  0  0  0
  162.0350  207.8590  151.6990 C   0  0  0  0  0  0  0  0  0  0  0  0
  160.8500  208.0120  153.8210 C   0  0  0  0  0  3  0  0  0  0  0  0
  160.7810  209.4070  153.6830 C   0  0  0  0  0  0  0  0  0  0  0  0
  160.1230  210.2360  154.7380 C   0  0  0  0  0  2  0  0  0  0  0  0
  158.0820  211.6260  154.7860 N   0  0  1  0  0  0  0  0  0  0  0  0
  157.8710  213.7850  153.7890 C   0  0  0  0  0  3  0  0  0  0  0  0
  157.2350  212.4410  153.9000 C   0  0  2  0  0  3  0  0  0  0  0  0
  159.3850  211.4050  154.1110 C   0  0  1  0  0  3  0  0  0  0  0  0
  159.2470  212.4760  155.1100 C   0  0  1  0  0  3  0  0  0  0  0  0
  159.0000  213.7990  154.4570 C   0  0  0  0  0  3  0  0  0  0  0  0
  154.9670  213.1440  153.5460 F   0  0  0  0  0  0  0  0  0  0  0  0
  155.7790  213.2430  155.6600 F   0  0  0  0  0  0  0  0  0  0  0  0
  155.3240  211.2450  154.6710 F   0  0  0  0  0  0  0  0  0  0  0  0
  155.8080  212.5370  154.4590 C   0  0  0  0  0  0  0  0  0  0  0  0
  1  4  1  0  0  0  0
  1 36  1  1  0  0  0
  2  6  1  0  0  0  0
  4  5  2  0  0  0  0
  5  8  1  0  0  0  0
  6  8  1  0  0  0  0
  8  3  1  0  0  0  0
  8  7  1  0  0  0  0
  9  2  1  0  0  0  0
  9  4  1  0  0  0  0
 10  1  1  0  0  0  0
 11 10  2  0  0  0  0
 12 18  1  0  0  0  0
 13 17  1  0  0  0  0
 13 12  2  0  0  0  0
 14 19  2  0  0  0  0
 15 14  1  0  0  0  0
 17 15  2  0  0  0  0
 18 19  1  0  0  0  0
 18 16  1  1  0  0  0
 19 10  1  0  0  0  0
 20 13  1  0  0  0  0
 21 20  1  0  0  0  0
 22 21  1  0  0  0  0
 23 22  1  0  0  0  0
 25 28  1  0  0  0  0
 25 26  2  0  0  0  0
 26 29  1  0  0  0  0
 27 23  1  0  0  0  0
 27 24  1  0  0  0  0
 28 27  1  0  0  0  0
 29 24  2  0  0  0  0
 29 32  1  0  0  0  0
 30 28  2  0  0  0  0
 32 31  1  0  0  0  0
 33 32  1  0  0  0  0
 34 35  1  0  0  0  0
 34 25  1  0  0  0  0
 36 40  1  0  0  0  0
 37 41  1  0  0  0  0
 38 40  1  0  0  0  0
 38 39  2  0  0  0  0
 39 42  1  0  0  0  0
 40 37  2  0  0  0  0
 42 41  2  0  0  0  0
 42 43  1  0  0  0  0
 44 48  1  0  0  0  0
 45 46  1  0  0  0  0
 45 49  2  0  0  0  0
 46 53  1  0  0  0  0
 46 44  1  0  0  0  0
 47 43  1  0  0  0  0
 47 44  1  0  0  0  0
 47 48  1  0  0  0  0
 49 48  1  0  0  0  0
 50 53  1  0  0  0  0
 53 52  1  0  0  0  0
 53 51  1  0  0  0  0
M  END
>  <MODEL>
3

>  <REMARK>
 VINA RESULT:      -5.8      3.331      5.064
  Name = 
  15 active torsions:
  status: ('A' for Active; 'I' for Inactive)
    1  A    between atoms: C_2  and  C_20
    2  A    between atoms: C_2  and  C_51
    3  A    between atoms: C_8  and  C_28
    4  A    between atoms: C_8  and  O_45
    5  A    between atoms: C_9  and  C_20
    6  A    between atoms: N_11  and  C_13
    7  A    between atoms: C_12  and  O_45
    8  A    between atoms: C_17  and  C_53
    9  A    between atoms: C_20  and  C_53
   10  A    between atoms: C_21  and  C_30
   11  A    between atoms: C_21  and  C_48
   12  A    between atoms: N_26  and  C_34
   13  A    between atoms: C_28  and  C_34
   14  A    between atoms: C_35  and  C_40
   15  A    between atoms: C_37  and  C_38
                            x       y       z     vdW  Elec       q    Type
                         _______ _______ _______ _____ _____    ______ ____

>  <TORSDO>
F 15

$$$$
=
 OpenBabel11042421153D

 53 58  0  0  1  0  0  0  0  0999 V2000
  161.1880  205.2720  148.5610 C   0  0  2  0  0  3  0  0  0  0  0  0
  161.7720  201.7250  147.2490 C   0  0  0  0  0  2  0  0  0  0  0  0
  161.3090  200.9010  150.3320 C   0  0  0  0  0  1  0  0  0  0  0  0
  160.9340  203.8060  148.3100 C   0  0  0  0  0  0  0  0  0  0  0  0
  160.5480  203.0490  149.3540 C   0  0  0  0  0  3  0  0  0  0  0  0
  160.7130  200.9900  147.9480 N   0  0  0  0  0  2  0  0  0  0  0  0
  158.9750  201.1970  149.6060 C   0  0  0  0  0  1  0  0  0  0  0  0
  160.4190  201.5420  149.2820 C   0  0  0  0  0  0  0  0  0  0  0  0
  161.3070  203.1530  147.0000 C   0  0  0  0  0  2  0  0  0  0  0  0
  161.0320  205.7270  149.9930 C   0  0  0  0  0  0  0  0  0  0  0  0
  160.3050  205.0710  150.7880 O   0  0  0  0  0  0  0  0  0  0  0  0
  161.4320  208.1460  152.6300 C   0  0  0  0  0  3  0  0  0  0  0  0
  161.2960  209.4200  152.2780 C   0  0  0  0  0  0  0  0  0  0  0  0
  161.7130  207.9820  149.6120 N   0  0  0  0  0  0  0  0  0  0  0  0
  162.0850  209.3470  149.8770 C   0  0  0  0  0  3  0  0  0  0  0  0
  162.3430  205.9580  152.5460 O   0  0  0  0  0  1  0  0  0  0  0  0
  161.8860  209.9880  151.0410 C   0  0  0  0  0  3  0  0  0  0  0  0
  162.2210  207.1630  151.8370 C   0  0  1  0  0  3  0  0  0  0  0  0
  161.6600  206.9890  150.4490 C   0  0  0  0  0  0  0  0  0  0  0  0
  160.5950  210.2440  153.1590 O   0  0  0  0  0  0  0  0  0  0  0  0
  160.4920  211.6520  152.9700 C   0  0  0  0  0  2  0  0  0  0  0  0
  159.2140  211.9470  152.2150 C   0  0  0  0  0  2  0  0  0  0  0  0
  159.1900  213.4120  151.8070 C   0  0  0  0  0  2  0  0  0  0  0  0
  160.5460  213.6560  149.8550 N   0  0  0  0  0  0  0  0  0  0  0  0
  158.3960  213.6620  148.1540 C   0  0  0  0  0  0  0  0  0  0  0  0
  159.6920  213.7810  147.6450 C   0  0  0  0  0  3  0  0  0  0  0  0
  159.3180  213.5440  150.3580 N   0  0  0  0  0  0  0  0  0  0  0  0
  158.2220  213.5320  149.5380 C   0  0  0  0  0  0  0  0  0  0  0  0
  160.7750  213.7820  148.5180 C   0  0  0  0  0  0  0  0  0  0  0  0
  157.0640  213.3970  150.0130 O   0  0  0  0  0  0  0  0  0  0  0  0
  162.1390  214.2720  146.5130 C   0  0  0  0  0  1  0  0  0  0  0  0
  162.1720  213.8290  147.9670 C   0  0  0  0  0  3  0  0  0  0  0  0
  162.8560  212.4790  148.0770 C   0  0  0  0  0  1  0  0  0  0  0  0
  157.2590  213.6680  147.2780 N   0  0  0  0  0  2  0  0  0  0  0  0
  157.1890  212.8810  146.0560 C   0  0  0  0  0  1  0  0  0  0  0  0
  160.4100  206.1430  147.5690 C   0  0  0  0  0  2  0  0  0  0  0  0
  160.0990  206.0270  145.0910 C   0  0  0  0  0  3  0  0  0  0  0  0
  162.3630  205.9660  145.9520 C   0  0  0  0  0  3  0  0  0  0  0  0
  162.8630  205.8600  144.6520 C   0  0  0  0  0  3  0  0  0  0  0  0
  160.9800  206.0770  146.1790 C   0  0  0  0  0  0  0  0  0  0  0  0
  160.5990  205.8860  143.7820 C   0  0  0  0  0  3  0  0  0  0  0  0
  161.9840  205.8220  143.5650 C   0  0  0  0  0  0  0  0  0  0  0  0
  162.5230  205.6950  142.1770 C   0  0  0  0  0  2  0  0  0  0  0  0
  162.5880  207.7610  140.8250 N   0  0  1  0  0  0  0  0  0  0  0  0
  161.1030  208.2690  139.0270 C   0  0  0  0  0  3  0  0  0  0  0  0
  161.6970  208.8010  140.2860 C   0  0  2  0  0  3  0  0  0  0  0  0
  161.7580  206.5980  141.2260 C   0  0  1  0  0  3  0  0  0  0  0  0
  162.4350  206.6020  139.9210 C   0  0  1  0  0  3  0  0  0  0  0  0
  161.5090  207.0370  138.8300 C   0  0  0  0  0  3  0  0  0  0  0  0
  161.7830  211.1870  140.5370 F   0  0  0  0  0  0  0  0  0  0  0  0
  162.7250  210.2920  138.6800 F   0  0  0  0  0  0  0  0  0  0  0  0
  163.6880  210.0330  140.7250 F   0  0  0  0  0  0  0  0  0  0  0  0
  162.4760  210.1000  140.0370 C   0  0  0  0  0  0  0  0  0  0  0  0
  1 36  1  6  0  0  0
  1 10  1  0  0  0  0
  2  6  1  0  0  0  0
  4  1  1  0  0  0  0
  4  5  2  0  0  0  0
  6  8  1  0  0  0  0
  8  5  1  0  0  0  0
  8  7  1  0  0  0  0
  8  3  1  0  0  0  0
  9  2  1  0  0  0  0
  9  4  1  0  0  0  0
 10 19  1  0  0  0  0
 10 11  2  0  0  0  0
 13 12  2  0  0  0  0
 13 20  1  0  0  0  0
 14 15  1  0  0  0  0
 14 19  2  0  0  0  0
 15 17  2  0  0  0  0
 17 13  1  0  0  0  0
 18 16  1  1  0  0  0
 18 12  1  0  0  0  0
 19 18  1  0  0  0  0
 21 20  1  0  0  0  0
 22 21  1  0  0  0  0
 23 22  1  0  0  0  0
 24 27  1  0  0  0  0
 25 28  1  0  0  0  0
 26 25  2  0  0  0  0
 26 29  1  0  0  0  0
 27 23  1  0  0  0  0
 28 30  2  0  0  0  0
 28 27  1  0  0  0  0
 29 24  2  0  0  0  0
 31 32  1  0  0  0  0
 32 33  1  0  0  0  0
 32 29  1  0  0  0  0
 34 25  1  0  0  0  0
 35 34  1  0  0  0  0
 37 40  1  0  0  0  0
 38 40  2  0  0  0  0
 39 38  1  0  0  0  0
 40 36  1  0  0  0  0
 41 37  2  0  0  0  0
 42 41  1  0  0  0  0
 42 39  2  0  0  0  0
 43 42  1  0  0  0  0
 44 47  1  0  0  0  0
 45 46  1  0  0  0  0
 46 44  1  0  0  0  0
 47 43  1  0  0  0  0
 48 44  1  0  0  0  0
 48 47  1  0  0  0  0
 49 45  2  0  0  0  0
 49 48  1  0  0  0  0
 51 53  1  0  0  0  0
 53 46  1  0  0  0  0
 53 50  1  0  0  0  0
 53 52  1  0  0  0  0
M  END
>  <MODEL>
4

>  <REMARK>
 VINA RESULT:      -4.5      4.448      8.699
  Name = 
  15 active torsions:
  status: ('A' for Active; 'I' for Inactive)
    1  A    between atoms: C_2  and  C_20
    2  A    between atoms: C_2  and  C_51
    3  A    between atoms: C_8  and  C_28
    4  A    between atoms: C_8  and  O_45
    5  A    between atoms: C_9  and  C_20
    6  A    between atoms: N_11  and  C_13
    7  A    between atoms: C_12  and  O_45
    8  A    between atoms: C_17  and  C_53
    9  A    between atoms: C_20  and  C_53
   10  A    between atoms: C_21  and  C_30
   11  A    between atoms: C_21  and  C_48
   12  A    between atoms: N_26  and  C_34
   13  A    between atoms: C_28  and  C_34
   14  A    between atoms: C_35  and  C_40
   15  A    between atoms: C_37  and  C_38
                            x       y       z     vdW  Elec       q    Type
                         _______ _______ _______ _____ _____    ______ ____

>  <TORSDO>
F 15

$$$$
=
 OpenBabel11042421153D

 53 58  0  0  1  0  0  0  0  0999 V2000
  161.1480  205.2990  148.6090 C   0  0  2  0  0  3  0  0  0  0  0  0
  160.8260  202.0950  150.6750 C   0  0  0  0  0  2  0  0  0  0  0  0
  159.2550  201.0110  148.0760 C   0  0  0  0  0  1  0  0  0  0  0  0
  161.2390  203.8330  148.9530 C   0  0  0  0  0  0  0  0  0  0  0  0
  160.8050  202.9460  148.0380 C   0  0  0  0  0  3  0  0  0  0  0  0
  161.1310  201.0780  149.6640 N   0  0  0  0  0  2  0  0  0  0  0  0
  161.5830  200.7450  147.3190 C   0  0  0  0  0  1  0  0  0  0  0  0
  160.6850  201.4630  148.3140 C   0  0  0  0  0  0  0  0  0  0  0  0
  161.5910  203.3700  150.3470 C   0  0  0  0  0  2  0  0  0  0  0  0
  160.9210  206.2320  149.7750 C   0  0  0  0  0  0  0  0  0  0  0  0
  160.0820  205.9330  150.6680 O   0  0  0  0  0  0  0  0  0  0  0  0
  161.6530  209.2060  151.6700 C   0  0  0  0  0  3  0  0  0  0  0  0
  161.4980  210.3590  151.0290 C   0  0  0  0  0  0  0  0  0  0  0  0
  161.5900  208.2920  148.7760 N   0  0  0  0  0  0  0  0  0  0  0  0
  162.0100  209.6640  148.6520 C   0  0  0  0  0  3  0  0  0  0  0  0
  162.5140  207.0270  152.0380 O   0  0  0  0  0  1  0  0  0  0  0  0
  161.9530  210.5790  149.6340 C   0  0  0  0  0  3  0  0  0  0  0  0
  162.3320  208.0240  151.0690 C   0  0  1  0  0  3  0  0  0  0  0  0
  161.6160  207.5390  149.8340 C   0  0  0  0  0  0  0  0  0  0  0  0
  160.9130  211.4030  151.7450 O   0  0  0  0  0  0  0  0  0  0  0  0
  160.2100  212.4660  151.1090 C   0  0  0  0  0  2  0  0  0  0  0  0
  159.6250  213.3660  152.1770 C   0  0  0  0  0  2  0  0  0  0  0  0
  158.2400  212.8690  152.5590 C   0  0  0  0  0  2  0  0  0  0  0  0
  159.3040  211.5770  154.2640 N   0  0  0  0  0  0  0  0  0  0  0  0
  157.2820  211.9810  156.0710 C   0  0  0  0  0  0  0  0  0  0  0  0
  158.3950  211.2140  156.4260 C   0  0  0  0  0  3  0  0  0  0  0  0
  158.2500  212.3090  153.9090 N   0  0  0  0  0  0  0  0  0  0  0  0
  157.2270  212.5400  154.7880 C   0  0  0  0  0  0  0  0  0  0  0  0
  159.4130  211.0120  155.4990 C   0  0  0  0  0  0  0  0  0  0  0  0
  156.2450  213.2560  154.4590 O   0  0  0  0  0  0  0  0  0  0  0  0
  161.8280  210.7020  155.0600 C   0  0  0  0  0  1  0  0  0  0  0  0
  160.6460  210.2560  155.9060 C   0  0  0  0  0  3  0  0  0  0  0  0
  160.4500  208.7570  155.7620 C   0  0  0  0  0  1  0  0  0  0  0  0
  156.2120  212.1990  157.0030 N   0  0  0  0  0  2  0  0  0  0  0  0
  155.0130  211.3740  157.0480 C   0  0  0  0  0  1  0  0  0  0  0  0
  160.1670  205.5350  147.4560 C   0  0  0  0  0  2  0  0  0  0  0  0
  160.1030  205.4520  144.9580 C   0  0  0  0  0  3  0  0  0  0  0  0
  162.2520  205.7900  146.0260 C   0  0  0  0  0  3  0  0  0  0  0  0
  162.8760  205.8280  144.7770 C   0  0  0  0  0  3  0  0  0  0  0  0
  160.8590  205.6290  146.1250 C   0  0  0  0  0  0  0  0  0  0  0  0
  160.7340  205.4580  143.6990 C   0  0  0  0  0  3  0  0  0  0  0  0
  162.1200  205.6650  143.6120 C   0  0  0  0  0  0  0  0  0  0  0  0
  162.7940  205.6930  142.2780 C   0  0  0  0  0  2  0  0  0  0  0  0
  162.6060  207.7640  140.9450 N   0  0  1  0  0  0  0  0  0  0  0  0
  161.1900  208.0470  139.0450 C   0  0  0  0  0  3  0  0  0  0  0  0
  161.5930  208.6490  140.3470 C   0  0  2  0  0  3  0  0  0  0  0  0
  161.9570  206.4720  141.2780 C   0  0  1  0  0  3  0  0  0  0  0  0
  162.7160  206.6120  140.0260 C   0  0  1  0  0  3  0  0  0  0  0  0
  161.8110  206.9040  138.8720 C   0  0  0  0  0  3  0  0  0  0  0  0
  161.6120  210.9320  141.0920 F   0  0  0  0  0  0  0  0  0  0  0  0
  161.9160  210.5460  138.8790 F   0  0  0  0  0  0  0  0  0  0  0  0
  163.5350  210.0300  140.3920 F   0  0  0  0  0  0  0  0  0  0  0  0
  162.1580  210.0650  140.1630 C   0  0  0  0  0  0  0  0  0  0  0  0
  1 36  1  6  0  0  0
  1  4  1  0  0  0  0
  1 10  1  0  0  0  0
  3  8  1  0  0  0  0
  4  9  1  0  0  0  0
  5  8  1  0  0  0  0
  5  4  2  0  0  0  0
  6  2  1  0  0  0  0
  7  8  1  0  0  0  0
  8  6  1  0  0  0  0
  9  2  1  0  0  0  0
 10 19  1  0  0  0  0
 10 11  2  0  0  0  0
 13 12  2  0  0  0  0
 13 20  1  0  0  0  0
 14 19  2  0  0  0  0
 15 14  1  0  0  0  0
 15 17  2  0  0  0  0
 17 13  1  0  0  0  0
 18 12  1  0  0  0  0
 18 16  1  1  0  0  0
 19 18  1  0  0  0  0
 21 20  1  0  0  0  0
 21 22  1  0  0  0  0
 22 23  1  0  0  0  0
 23 27  1  0  0  0  0
 24 29  2  0  0  0  0
 25 26  2  0  0  0  0
 25 34  1  0  0  0  0
 27 24  1  0  0  0  0
 27 28  1  0  0  0  0
 28 25  1  0  0  0  0
 29 32  1  0  0  0  0
 29 26  1  0  0  0  0
 30 28  2  0  0  0  0
 31 32  1  0  0  0  0
 33 32  1  0  0  0  0
 34 35  1  0  0  0  0
 37 40  1  0  0  0  0
 38 40  2  0  0  0  0
 39 38  1  0  0  0  0
 40 36  1  0  0  0  0
 41 37  2  0  0  0  0
 42 41  1  0  0  0  0
 42 39  2  0  0  0  0
 43 42  1  0  0  0  0
 44 47  1  0  0  0  0
 45 46  1  0  0  0  0
 46 44  1  0  0  0  0
 47 43  1  0  0  0  0
 48 44  1  0  0  0  0
 48 47  1  0  0  0  0
 49 45  2  0  0  0  0
 49 48  1  0  0  0  0
 51 53  1  0  0  0  0
 53 46  1  0  0  0  0
 53 52  1  0  0  0  0
 53 50  1  0  0  0  0
M  END
>  <MODEL>
5

>  <REMARK>
 VINA RESULT:      -3.8      4.475     10.045
  Name = 
  15 active torsions:
  status: ('A' for Active; 'I' for Inactive)
    1  A    between atoms: C_2  and  C_20
    2  A    between atoms: C_2  and  C_51
    3  A    between atoms: C_8  and  C_28
    4  A    between atoms: C_8  and  O_45
    5  A    between atoms: C_9  and  C_20
    6  A    between atoms: N_11  and  C_13
    7  A    between atoms: C_12  and  O_45
    8  A    between atoms: C_17  and  C_53
    9  A    between atoms: C_20  and  C_53
   10  A    between atoms: C_21  and  C_30
   11  A    between atoms: C_21  and  C_48
   12  A    between atoms: N_26  and  C_34
   13  A    between atoms: C_28  and  C_34
   14  A    between atoms: C_35  and  C_40
   15  A    between atoms: C_37  and  C_38
                            x       y       z     vdW  Elec       q    Type
                         _______ _______ _______ _____ _____    ______ ____

>  <TORSDO>
F 15

$$$$
=
 OpenBabel11042421153D

 53 58  0  0  1  0  0  0  0  0999 V2000
  161.4490  204.9920  149.2160 C   0  0  2  0  0  3  0  0  0  0  0  0
  161.9810  203.3270  145.8120 C   0  0  0  0  0  2  0  0  0  0  0  0
  161.7320  200.6000  147.5170 C   0  0  0  0  0  1  0  0  0  0  0  0
  161.1940  204.0790  148.0430 C   0  0  0  0  0  0  0  0  0  0  0  0
  160.8850  202.7950  148.3030 C   0  0  0  0  0  3  0  0  0  0  0  0
  160.9780  202.2580  145.8640 N   0  0  0  0  0  2  0  0  0  0  0  0
  159.3520  201.1880  147.2860 C   0  0  0  0  0  1  0  0  0  0  0  0
  160.7680  201.7370  147.2260 C   0  0  0  0  0  0  0  0  0  0  0  0
  161.4850  204.5150  146.6260 C   0  0  0  0  0  2  0  0  0  0  0  0
  162.2930  206.2110  148.9260 C   0  0  0  0  0  0  0  0  0  0  0  0
  163.4430  206.0780  148.4270 O   0  0  0  0  0  0  0  0  0  0  0  0
  162.0120  209.6930  148.0510 C   0  0  0  0  0  3  0  0  0  0  0  0
  162.3550  210.5620  148.9970 C   0  0  0  0  0  0  0  0  0  0  0  0
  161.9700  207.9450  150.5330 N   0  0  0  0  0  0  0  0  0  0  0  0
  161.7720  209.2590  151.0850 C   0  0  0  0  0  3  0  0  0  0  0  0
  160.8140  207.8790  147.1040 O   0  0  0  0  0  1  0  0  0  0  0  0
  161.9590  210.4110  150.4190 C   0  0  0  0  0  3  0  0  0  0  0  0
  161.1640  208.4970  148.3130 C   0  0  1  0  0  3  0  0  0  0  0  0
  161.8110  207.5610  149.3010 C   0  0  0  0  0  0  0  0  0  0  0  0
  163.0870  211.6770  148.5910 O   0  0  0  0  0  0  0  0  0  0  0  0
  162.4700  212.9150  148.2540 C   0  0  0  0  0  2  0  0  0  0  0  0
  163.0450  213.4020  146.9410 C   0  0  0  0  0  2  0  0  0  0  0  0
  162.1220  214.4490  146.3380 C   0  0  0  0  0  2  0  0  0  0  0  0
  161.3230  213.2290  144.4460 N   0  0  0  0  0  0  0  0  0  0  0  0
  158.7400  213.1660  145.3640 C   0  0  0  0  0  0  0  0  0  0  0  0
  159.0650  212.5620  144.1460 C   0  0  0  0  0  3  0  0  0  0  0  0
  161.0300  213.8110  145.6070 N   0  0  0  0  0  0  0  0  0  0  0  0
  159.7540  213.7900  146.1010 C   0  0  0  0  0  0  0  0  0  0  0  0
  160.3780  212.6040  143.6880 C   0  0  0  0  0  0  0  0  0  0  0  0
  159.4850  214.3170  147.2130 O   0  0  0  0  0  0  0  0  0  0  0  0
  162.1890  212.1900  142.0530 C   0  0  0  0  0  1  0  0  0  0  0  0
  160.7450  211.8860  142.4200 C   0  0  0  0  0  3  0  0  0  0  0  0
  159.8310  212.2830  141.2740 C   0  0  0  0  0  1  0  0  0  0  0  0
  157.3920  213.1470  145.8560 N   0  0  0  0  0  2  0  0  0  0  0  0
  157.0250  212.6030  147.1560 C   0  0  0  0  0  1  0  0  0  0  0  0
  161.9420  204.2010  150.4320 C   0  0  0  0  0  2  0  0  0  0  0  0
  160.3930  204.8180  152.2950 C   0  0  0  0  0  3  0  0  0  0  0  0
  162.6310  205.7460  152.3280 C   0  0  0  0  0  3  0  0  0  0  0  0
  162.3370  206.4340  153.5080 C   0  0  0  0  0  3  0  0  0  0  0  0
  161.6700  204.9130  151.7280 C   0  0  0  0  0  0  0  0  0  0  0  0
  160.0840  205.5360  153.4670 C   0  0  0  0  0  3  0  0  0  0  0  0
  161.0660  206.3290  154.0810 C   0  0  0  0  0  0  0  0  0  0  0  0
  160.7530  207.0770  155.3360 C   0  0  0  0  0  2  0  0  0  0  0  0
  160.4930  209.5030  155.7180 N   0  0  1  0  0  0  0  0  0  0  0  0
  162.2890  211.0310  156.0890 C   0  0  0  0  0  3  0  0  0  0  0  0
  161.0550  210.7930  155.2870 C   0  0  2  0  0  3  0  0  0  0  0  0
  161.4430  208.4290  155.3340 C   0  0  1  0  0  3  0  0  0  0  0  0
  161.4540  208.9640  156.7040 C   0  0  1  0  0  3  0  0  0  0  0  0
  162.5150  210.0040  156.8730 C   0  0  0  0  0  3  0  0  0  0  0  0
  159.7800  212.5630  154.2840 F   0  0  0  0  0  0  0  0  0  0  0  0
  160.4640  212.8450  156.4270 F   0  0  0  0  0  0  0  0  0  0  0  0
  158.8250  211.3560  155.9050 F   0  0  0  0  0  0  0  0  0  0  0  0
  160.0290  211.9180  155.4810 C   0  0  0  0  0  0  0  0  0  0  0  0
  1 36  1  1  0  0  0
  2  6  1  0  0  0  0
  2  9  1  0  0  0  0
  4  5  2  0  0  0  0
  4  1  1  0  0  0  0
  6  8  1  0  0  0  0
  8  7  1  0  0  0  0
  8  3  1  0  0  0  0
  8  5  1  0  0  0  0
  9  4  1  0  0  0  0
 10  1  1  0  0  0  0
 10 19  1  0  0  0  0
 11 10  2  0  0  0  0
 12 18  1  0  0  0  0
 12 13  2  0  0  0  0
 13 17  1  0  0  0  0
 14 15  1  0  0  0  0
 17 15  2  0  0  0  0
 18 16  1  6  0  0  0
 18 19  1  0  0  0  0
 19 14  2  0  0  0  0
 20 13  1  0  0  0  0
 21 20  1  0  0  0  0
 22 21  1  0  0  0  0
 23 22  1  0  0  0  0
 24 27  1  0  0  0  0
 25 34  1  0  0  0  0
 25 28  1  0  0  0  0
 26 25  2  0  0  0  0
 27 28  1  0  0  0  0
 27 23  1  0  0  0  0
 28 30  2  0  0  0  0
 29 26  1  0  0  0  0
 29 24  2  0  0  0  0
 31 32  1  0  0  0  0
 32 29  1  0  0  0  0
 33 32  1  0  0  0  0
 34 35  1  0  0  0  0
 36 40  1  0  0  0  0
 37 41  1  0  0  0  0
 38 39  2  0  0  0  0
 39 42  1  0  0  0  0
 40 37  2  0  0  0  0
 40 38  1  0  0  0  0
 41 42  2  0  0  0  0
 42 43  1  0  0  0  0
 44 48  1  0  0  0  0
 45 49  2  0  0  0  0
 46 53  1  0  0  0  0
 46 44  1  0  0  0  0
 46 45  1  0  0  0  0
 47 43  1  0  0  0  0
 47 44  1  0  0  0  0
 47 48  1  0  0  0  0
 48 49  1  0  0  0  0
 50 53  1  0  0  0  0
 53 52  1  0  0  0  0
 53 51  1  0  0  0  0
M  END
>  <MODEL>
6

>  <REMARK>
 VINA RESULT:      -3.7      1.518      2.069
  Name = 
  15 active torsions:
  status: ('A' for Active; 'I' for Inactive)
    1  A    between atoms: C_2  and  C_20
    2  A    between atoms: C_2  and  C_51
    3  A    between atoms: C_8  and  C_28
    4  A    between atoms: C_8  and  O_45
    5  A    between atoms: C_9  and  C_20
    6  A    between atoms: N_11  and  C_13
    7  A    between atoms: C_12  and  O_45
    8  A    between atoms: C_17  and  C_53
    9  A    between atoms: C_20  and  C_53
   10  A    between atoms: C_21  and  C_30
   11  A    between atoms: C_21  and  C_48
   12  A    between atoms: N_26  and  C_34
   13  A    between atoms: C_28  and  C_34
   14  A    between atoms: C_35  and  C_40
   15  A    between atoms: C_37  and  C_38
                            x       y       z     vdW  Elec       q    Type
                         _______ _______ _______ _____ _____    ______ ____

>  <TORSDO>
F 15

$$$$
=
 OpenBabel11042421153D

 53 58  0  0  1  0  0  0  0  0999 V2000
  161.4700  205.3820  149.6280 C   0  0  2  0  0  3  0  0  0  0  0  0
  161.0950  201.7270  150.6960 C   0  0  0  0  0  2  0  0  0  0  0  0
  158.7870  201.6870  148.4440 C   0  0  0  0  0  1  0  0  0  0  0  0
  161.3830  203.8820  149.4990 C   0  0  0  0  0  0  0  0  0  0  0  0
  160.5970  203.3810  148.5280 C   0  0  0  0  0  3  0  0  0  0  0  0
  160.9690  201.0670  149.3930 N   0  0  0  0  0  2  0  0  0  0  0  0
  160.7860  201.4660  147.0230 C   0  0  0  0  0  1  0  0  0  0  0  0
  160.2890  201.9050  148.3910 C   0  0  0  0  0  0  0  0  0  0  0  0
  161.9700  202.9640  150.5450 C   0  0  0  0  0  2  0  0  0  0  0  0
  161.5950  206.1450  148.3300 C   0  0  0  0  0  0  0  0  0  0  0  0
  161.8520  207.3800  148.3460 O   0  0  0  0  0  0  0  0  0  0  0  0
  162.7510  205.3820  145.0060 C   0  0  0  0  0  3  0  0  0  0  0  0
  161.8780  205.5840  144.0240 C   0  0  0  0  0  0  0  0  0  0  0  0
  160.1350  205.5540  146.5370 N   0  0  0  0  0  0  0  0  0  0  0  0
  159.6930  205.1620  145.2250 C   0  0  0  0  0  3  0  0  0  0  0  0
  163.5520  204.4700  147.0430 O   0  0  0  0  0  1  0  0  0  0  0  0
  160.4500  205.1920  144.1150 C   0  0  0  0  0  3  0  0  0  0  0  0
  162.3960  204.7100  146.2860 C   0  0  1  0  0  3  0  0  0  0  0  0
  161.3320  205.4700  147.0370 C   0  0  0  0  0  0  0  0  0  0  0  0
  162.3720  206.1540  142.8510 O   0  0  0  0  0  0  0  0  0  0  0  0
  161.5810  206.2890  141.6750 C   0  0  0  0  0  2  0  0  0  0  0  0
  162.4380  206.8890  140.5810 C   0  0  0  0  0  2  0  0  0  0  0  0
  161.5840  207.1460  139.3490 C   0  0  0  0  0  2  0  0  0  0  0  0
  159.8210  208.7070  138.9460 N   0  0  0  0  0  0  0  0  0  0  0  0
  161.3070  210.8590  139.7700 C   0  0  0  0  0  0  0  0  0  0  0  0
  159.9910  211.0420  139.3360 C   0  0  0  0  0  3  0  0  0  0  0  0
  161.0730  208.5150  139.3550 N   0  0  0  0  0  0  0  0  0  0  0  0
  161.8410  209.5640  139.7830 C   0  0  0  0  0  0  0  0  0  0  0  0
  159.2480  209.9430  138.9150 C   0  0  0  0  0  0  0  0  0  0  0  0
  163.0160  209.3760  140.1950 O   0  0  0  0  0  0  0  0  0  0  0  0
  157.6900  210.2050  137.0110 C   0  0  0  0  0  1  0  0  0  0  0  0
  157.8090  210.1260  138.5250 C   0  0  0  0  0  3  0  0  0  0  0  0
  157.2200  211.3780  139.1510 C   0  0  0  0  0  1  0  0  0  0  0  0
  162.1010  211.9750  140.2000 N   0  0  0  0  0  2  0  0  0  0  0  0
  161.8070  213.3520  139.8310 C   0  0  0  0  0  1  0  0  0  0  0  0
  162.5270  205.7860  150.6610 C   0  0  0  0  0  2  0  0  0  0  0  0
  161.6190  205.6230  152.9850 C   0  0  0  0  0  3  0  0  0  0  0  0
  161.5670  207.7870  151.8970 C   0  0  0  0  0  3  0  0  0  0  0  0
  160.9640  208.3480  153.0260 C   0  0  0  0  0  3  0  0  0  0  0  0
  161.9230  206.4270  151.8790 C   0  0  0  0  0  0  0  0  0  0  0  0
  160.9820  206.1780  154.1110 C   0  0  0  0  0  3  0  0  0  0  0  0
  160.6720  207.5470  154.1350 C   0  0  0  0  0  0  0  0  0  0  0  0
  160.0160  208.1490  155.3340 C   0  0  0  0  0  2  0  0  0  0  0  0
  159.2280  210.4300  154.8070 N   0  0  1  0  0  0  0  0  0  0  0  0
  160.0470  212.4310  155.8190 C   0  0  0  0  0  3  0  0  0  0  0  0
  159.7450  211.7770  154.5140 C   0  0  2  0  0  3  0  0  0  0  0  0
  160.3220  209.6340  155.4170 C   0  0  1  0  0  3  0  0  0  0  0  0
  159.3190  210.2830  156.2750 C   0  0  1  0  0  3  0  0  0  0  0  0
  159.8180  211.5910  156.8010 C   0  0  0  0  0  3  0  0  0  0  0  0
  159.3470  213.3240  152.7220 F   0  0  0  0  0  0  0  0  0  0  0  0
  157.9760  213.4290  154.5230 F   0  0  0  0  0  0  0  0  0  0  0  0
  157.8590  211.6910  153.0600 F   0  0  0  0  0  0  0  0  0  0  0  0
  158.7190  212.5820  153.7040 C   0  0  0  0  0  0  0  0  0  0  0  0
  1 36  1  1  0  0  0
  4  1  1  0  0  0  0
  4  9  1  0  0  0  0
  5  4  2  0  0  0  0
  6  2  1  0  0  0  0
  7  8  1  0  0  0  0
  8  3  1  0  0  0  0
  8  5  1  0  0  0  0
  8  6  1  0  0  0  0
  9  2  1  0  0  0  0
 10 11  2  0  0  0  0
 10  1  1  0  0  0  0
 12 18  1  0  0  0  0
 13 17  1  0  0  0  0
 13 12  2  0  0  0  0
 14 19  2  0  0  0  0
 15 14  1  0  0  0  0
 17 15  2  0  0  0  0
 18 19  1  0  0  0  0
 18 16  1  1  0  0  0
 19 10  1  0  0  0  0
 20 13  1  0  0  0  0
 21 20  1  0  0  0  0
 22 21  1  0  0  0  0
 23 27  1  0  0  0  0
 23 22  1  0  0  0  0
 24 27  1  0  0  0  0
 25 28  1  0  0  0  0
 25 34  1  0  0  0  0
 26 25  2  0  0  0  0
 27 28  1  0  0  0  0
 28 30  2  0  0  0  0
 29 24  2  0  0  0  0
 29 26  1  0  0  0  0
 31 32  1  0  0  0  0
 32 29  1  0  0  0  0
 32 33  1  0  0  0  0
 35 34  1  0  0  0  0
 36 40  1  0  0  0  0
 37 41  1  0  0  0  0
 38 39  2  0  0  0  0
 39 42  1  0  0  0  0
 40 38  1  0  0  0  0
 40 37  2  0  0  0  0
 41 42  2  0  0  0  0
 42 43  1  0  0  0  0
 43 47  1  0  0  0  0
 44 47  1  0  0  0  0
 44 48  1  0  0  0  0
 45 49  2  0  0  0  0
 46 44  1  0  0  0  0
 46 45  1  0  0  0  0
 47 48  1  0  0  0  0
 48 49  1  0  0  0  0
 50 53  1  0  0  0  0
 52 53  1  0  0  0  0
 53 46  1  0  0  0  0
 53 51  1  0  0  0  0
M  END
>  <MODEL>
7

>  <REMARK>
 VINA RESULT:      -3.5      3.435      5.003
  Name = 
  15 active torsions:
  status: ('A' for Active; 'I' for Inactive)
    1  A    between atoms: C_2  and  C_20
    2  A    between atoms: C_2  and  C_51
    3  A    between atoms: C_8  and  C_28
    4  A    between atoms: C_8  and  O_45
    5  A    between atoms: C_9  and  C_20
    6  A    between atoms: N_11  and  C_13
    7  A    between atoms: C_12  and  O_45
    8  A    between atoms: C_17  and  C_53
    9  A    between atoms: C_20  and  C_53
   10  A    between atoms: C_21  and  C_30
   11  A    between atoms: C_21  and  C_48
   12  A    between atoms: N_26  and  C_34
   13  A    between atoms: C_28  and  C_34
   14  A    between atoms: C_35  and  C_40
   15  A    between atoms: C_37  and  C_38
                            x       y       z     vdW  Elec       q    Type
                         _______ _______ _______ _____ _____    ______ ____

>  <TORSDO>
F 15

$$$$
=
 OpenBabel11042421153D

 53 58  0  0  1  0  0  0  0  0999 V2000
  161.4870  210.6300  151.7960 C   0  0  2  0  0  3  0  0  0  0  0  0
  160.0830  214.0490  150.8040 C   0  0  0  0  0  2  0  0  0  0  0  0
  162.2940  213.8710  148.4630 C   0  0  0  0  0  1  0  0  0  0  0  0
  160.8960  211.7070  150.9200 C   0  0  0  0  0  0  0  0  0  0  0  0
  161.4450  211.9000  149.7060 C   0  0  0  0  0  3  0  0  0  0  0  0
  159.9990  213.9050  149.3480 N   0  0  0  0  0  2  0  0  0  0  0  0
  160.5310  212.4430  147.5070 C   0  0  0  0  0  1  0  0  0  0  0  0
  161.0620  213.0470  148.7960 C   0  0  0  0  0  0  0  0  0  0  0  0
  159.8770  212.6870  151.4520 C   0  0  0  0  0  2  0  0  0  0  0  0
  160.6230  209.4090  152.0040 C   0  0  0  0  0  0  0  0  0  0  0  0
  159.3700  209.5290  152.0840 O   0  0  0  0  0  0  0  0  0  0  0  0
  160.9600  206.0110  150.8600 C   0  0  0  0  0  3  0  0  0  0  0  0
  160.8400  205.0680  151.7890 C   0  0  0  0  0  0  0  0  0  0  0  0
  161.3240  207.6150  153.4120 N   0  0  0  0  0  0  0  0  0  0  0  0
  161.6940  206.2890  153.8320 C   0  0  0  0  0  3  0  0  0  0  0  0
  161.8630  207.9570  149.8500 O   0  0  0  0  0  1  0  0  0  0  0  0
  161.4660  205.1660  153.1310 C   0  0  0  0  0  3  0  0  0  0  0  0
  161.7660  207.2480  151.0560 C   0  0  1  0  0  3  0  0  0  0  0  0
  161.2440  208.0780  152.2010 C   0  0  0  0  0  0  0  0  0  0  0  0
  160.1180  203.9280  151.4370 O   0  0  0  0  0  0  0  0  0  0  0  0
  160.5680  202.6130  151.7480 C   0  0  0  0  0  2  0  0  0  0  0  0
  161.7140  202.2620  150.8240 C   0  0  0  0  0  2  0  0  0  0  0  0
  161.2220  201.3180  149.7380 C   0  0  0  0  0  2  0  0  0  0  0  0
  161.1820  203.3460  148.4760 N   0  0  0  0  0  0  0  0  0  0  0  0
  160.8750  202.0500  146.0800 C   0  0  0  0  0  0  0  0  0  0  0  0
  160.9450  203.4450  146.1170 C   0  0  0  0  0  3  0  0  0  0  0  0
  161.1160  202.0170  148.4590 N   0  0  0  0  0  0  0  0  0  0  0  0
  160.9730  201.3360  147.2800 C   0  0  0  0  0  0  0  0  0  0  0  0
  161.0950  204.0920  147.3390 C   0  0  0  0  0  0  0  0  0  0  0  0
  160.9390  200.0770  147.2640 O   0  0  0  0  0  0  0  0  0  0  0  0
  160.5110  206.2110  146.2010 C   0  0  0  0  0  1  0  0  0  0  0  0
  161.2510  205.5870  147.3730 C   0  0  0  0  0  3  0  0  0  0  0  0
  162.7140  205.9920  147.3310 C   0  0  0  0  0  1  0  0  0  0  0  0
  160.7100  201.3560  144.8340 N   0  0  0  0  0  2  0  0  0  0  0  0
  159.6180  200.4280  144.5780 C   0  0  0  0  0  1  0  0  0  0  0  0
  162.0180  211.2170  153.1080 C   0  0  0  0  0  2  0  0  0  0  0  0
  160.0240  212.3560  154.0940 C   0  0  0  0  0  3  0  0  0  0  0  0
  160.9330  210.4430  155.2710 C   0  0  0  0  0  3  0  0  0  0  0  0
  159.9610  210.5830  156.2640 C   0  0  0  0  0  3  0  0  0  0  0  0
  160.9550  211.3120  154.1650 C   0  0  0  0  0  0  0  0  0  0  0  0
  159.0630  212.5190  155.1110 C   0  0  0  0  0  3  0  0  0  0  0  0
  159.0230  211.6170  156.1860 C   0  0  0  0  0  0  0  0  0  0  0  0
  157.9930  211.7700  157.2580 C   0  0  0  0  0  2  0  0  0  0  0  0
  156.2820  212.6660  155.7200 N   0  0  1  0  0  0  0  0  0  0  0  0
  154.7830  214.4530  156.2300 C   0  0  0  0  0  3  0  0  0  0  0  0
  155.7550  213.9470  155.2190 C   0  0  2  0  0  3  0  0  0  0  0  0
  157.0720  212.9360  156.9470 C   0  0  1  0  0  3  0  0  0  0  0  0
  155.6760  212.4860  157.0570 C   0  0  1  0  0  3  0  0  0  0  0  0
  154.7480  213.6400  157.2600 C   0  0  0  0  0  3  0  0  0  0  0  0
  154.7990  212.4230  153.6300 F   0  0  0  0  0  0  0  0  0  0  0  0
  155.9110  214.2240  152.8200 F   0  0  0  0  0  0  0  0  0  0  0  0
  153.8860  214.4530  153.8310 F   0  0  0  0  0  0  0  0  0  0  0  0
  155.0950  213.7560  153.8470 C   0  0  0  0  0  0  0  0  0  0  0  0
  1 10  1  0  0  0  0
  1 36  1  1  0  0  0
  2  9  1  0  0  0  0
  3  8  1  0  0  0  0
  4  9  1  0  0  0  0
  4  1  1  0  0  0  0
  5  4  2  0  0  0  0
  6  2  1  0  0  0  0
  7  8  1  0  0  0  0
  8  6  1  0  0  0  0
  8  5  1  0  0  0  0
 10 11  2  0  0  0  0
 10 19  1  0  0  0  0
 12 18  1  0  0  0  0
 12 13  2  0  0  0  0
 13 17  1  0  0  0  0
 14 15  1  0  0  0  0
 17 15  2  0  0  0  0
 18 16  1  6  0  0  0
 18 19  1  0  0  0  0
 19 14  2  0  0  0  0
 20 21  1  0  0  0  0
 20 13  1  0  0  0  0
 22 21  1  0  0  0  0
 23 22  1  0  0  0  0
 25 26  2  0  0  0  0
 25 28  1  0  0  0  0
 26 29  1  0  0  0  0
 27 24  1  0  0  0  0
 27 23  1  0  0  0  0
 28 27  1  0  0  0  0
 29 32  1  0  0  0  0
 29 24  2  0  0  0  0
 30 28  2  0  0  0  0
 31 32  1  0  0  0  0
 33 32  1  0  0  0  0
 34 25  1  0  0  0  0
 35 34  1  0  0  0  0
 36 40  1  0  0  0  0
 37 40  2  0  0  0  0
 37 41  1  0  0  0  0
 38 39  2  0  0  0  0
 40 38  1  0  0  0  0
 41 42  2  0  0  0  0
 42 39  1  0  0  0  0
 42 43  1  0  0  0  0
 44 47  1  0  0  0  0
 44 48  1  0  0  0  0
 45 49  2  0  0  0  0
 46 44  1  0  0  0  0
 46 45  1  0  0  0  0
 47 48  1  0  0  0  0
 47 43  1  0  0  0  0
 48 49  1  0  0  0  0
 50 53  1  0  0  0  0
 51 53  1  0  0  0  0
 52 53  1  0  0  0  0
 53 46  1  0  0  0  0
M  END
>  <MODEL>
8

>  <REMARK>
 VINA RESULT:      -3.3      2.868      8.039
  Name = 
  15 active torsions:
  status: ('A' for Active; 'I' for Inactive)
    1  A    between atoms: C_2  and  C_20
    2  A    between atoms: C_2  and  C_51
    3  A    between atoms: C_8  and  C_28
    4  A    between atoms: C_8  and  O_45
    5  A    between atoms: C_9  and  C_20
    6  A    between atoms: N_11  and  C_13
    7  A    between atoms: C_12  and  O_45
    8  A    between atoms: C_17  and  C_53
    9  A    between atoms: C_20  and  C_53
   10  A    between atoms: C_21  and  C_30
   11  A    between atoms: C_21  and  C_48
   12  A    between atoms: N_26  and  C_34
   13  A    between atoms: C_28  and  C_34
   14  A    between atoms: C_35  and  C_40
   15  A    between atoms: C_37  and  C_38
                            x       y       z     vdW  Elec       q    Type
                         _______ _______ _______ _____ _____    ______ ____

>  <TORSDO>
F 15

$$$$
=
 OpenBabel11042421153D

 53 58  0  0  1  0  0  0  0  0999 V2000
  161.1460  205.2510  148.9680 C   0  0  2  0  0  3  0  0  0  0  0  0
  161.9460  201.6270  148.0370 C   0  0  0  0  0  2  0  0  0  0  0  0
  160.8550  201.0070  151.0070 C   0  0  0  0  0  1  0  0  0  0  0  0
  160.9320  203.7720  148.7670 C   0  0  0  0  0  0  0  0  0  0  0  0
  160.3330  203.0840  149.7560 C   0  0  0  0  0  3  0  0  0  0  0  0
  160.7590  200.9380  148.5510 N   0  0  0  0  0  2  0  0  0  0  0  0
  158.7210  201.2490  149.8020 C   0  0  0  0  0  1  0  0  0  0  0  0
  160.2050  201.5760  149.7580 C   0  0  0  0  0  0  0  0  0  0  0  0
  161.5570  203.0350  147.6050 C   0  0  0  0  0  2  0  0  0  0  0  0
  161.2010  206.0830  147.7070 C   0  0  0  0  0  0  0  0  0  0  0  0
  161.1490  207.3410  147.7790 O   0  0  0  0  0  0  0  0  0  0  0  0
  162.7720  205.8180  144.4780 C   0  0  0  0  0  3  0  0  0  0  0  0
  161.9550  205.8290  143.4300 C   0  0  0  0  0  0  0  0  0  0  0  0
  160.0960  205.2150  145.7790 N   0  0  0  0  0  0  0  0  0  0  0  0
  159.8770  204.7850  144.4230 C   0  0  0  0  0  3  0  0  0  0  0  0
  163.6280  205.0520  146.5520 O   0  0  0  0  0  1  0  0  0  0  0  0
  160.6820  205.0690  143.3850 C   0  0  0  0  0  3  0  0  0  0  0  0
  162.5120  205.0140  145.7040 C   0  0  1  0  0  3  0  0  0  0  0  0
  161.2290  205.4260  146.3790 C   0  0  0  0  0  0  0  0  0  0  0  0
  162.3670  206.5670  142.3200 O   0  0  0  0  0  0  0  0  0  0  0  0
  161.6000  206.6390  141.1230 C   0  0  0  0  0  2  0  0  0  0  0  0
  162.0170  207.8730  140.3530 C   0  0  0  0  0  2  0  0  0  0  0  0
  161.2010  207.9770  139.0740 C   0  0  0  0  0  2  0  0  0  0  0  0
  162.0030  210.1800  138.6140 N   0  0  0  0  0  0  0  0  0  0  0  0
  159.4880  211.1960  138.2140 C   0  0  0  0  0  0  0  0  0  0  0  0
  160.6060  212.0250  138.0910 C   0  0  0  0  0  3  0  0  0  0  0  0
  160.9490  209.3760  138.7370 N   0  0  0  0  0  0  0  0  0  0  0  0
  159.6790  209.8460  138.5350 C   0  0  0  0  0  0  0  0  0  0  0  0
  161.8770  211.5000  138.3010 C   0  0  0  0  0  0  0  0  0  0  0  0
  158.6860  209.0770  138.6250 O   0  0  0  0  0  0  0  0  0  0  0  0
  164.2580  211.8280  138.8880 C   0  0  0  0  0  1  0  0  0  0  0  0
  163.0840  212.3700  138.0890 C   0  0  0  0  0  3  0  0  0  0  0  0
  162.8080  213.8070  138.4930 C   0  0  0  0  0  1  0  0  0  0  0  0
  158.1640  211.7130  138.0140 N   0  0  0  0  0  2  0  0  0  0  0  0
  157.8980  213.0650  137.5460 C   0  0  0  0  0  1  0  0  0  0  0  0
  162.3270  205.5140  149.9080 C   0  0  0  0  0  2  0  0  0  0  0  0
  161.6380  205.3020  152.3010 C   0  0  0  0  0  3  0  0  0  0  0  0
  161.6590  207.5180  151.3210 C   0  0  0  0  0  3  0  0  0  0  0  0
  161.2160  208.0640  152.5280 C   0  0  0  0  0  3  0  0  0  0  0  0
  161.8990  206.1370  151.2070 C   0  0  0  0  0  0  0  0  0  0  0  0
  161.1610  205.8460  153.5100 C   0  0  0  0  0  3  0  0  0  0  0  0
  160.9690  207.2320  153.6240 C   0  0  0  0  0  0  0  0  0  0  0  0
  160.4830  207.8200  154.9090 C   0  0  0  0  0  2  0  0  0  0  0  0
  159.1920  209.8480  155.4770 N   0  0  1  0  0  0  0  0  0  0  0  0
  160.0600  212.0720  155.4640 C   0  0  0  0  0  3  0  0  0  0  0  0
  158.9380  211.2130  154.9880 C   0  0  2  0  0  3  0  0  0  0  0  0
  160.4120  209.3330  154.8060 C   0  0  1  0  0  3  0  0  0  0  0  0
  160.5040  209.9100  156.1560 C   0  0  1  0  0  3  0  0  0  0  0  0
  160.9380  211.3400  156.1070 C   0  0  0  0  0  3  0  0  0  0  0  0
  156.6140  210.7440  155.3660 F   0  0  0  0  0  0  0  0  0  0  0  0
  157.1800  212.8690  154.8160 F   0  0  0  0  0  0  0  0  0  0  0  0
  157.6950  212.0100  156.8580 F   0  0  0  0  0  0  0  0  0  0  0  0
  157.5820  211.7220  155.4980 C   0  0  0  0  0  0  0  0  0  0  0  0
  1 36  1  6  0  0  0
  2  6  1  0  0  0  0
  4  1  1  0  0  0  0
  4  5  2  0  0  0  0
  5  8  1  0  0  0  0
  6  8  1  0  0  0  0
  8  7  1  0  0  0  0
  8  3  1  0  0  0  0
  9  2  1  0  0  0  0
  9  4  1  0  0  0  0
 10 11  2  0  0  0  0
 10  1  1  0  0  0  0
 12 18  1  0  0  0  0
 13 12  2  0  0  0  0
 14 19  2  0  0  0  0
 15 14  1  0  0  0  0
 17 13  1  0  0  0  0
 17 15  2  0  0  0  0
 18 19  1  0  0  0  0
 18 16  1  1  0  0  0
 19 10  1  0  0  0  0
 20 13  1  0  0  0  0
 21 20  1  0  0  0  0
 22 21  1  0  0  0  0
 23 22  1  0  0  0  0
 24 27  1  0  0  0  0
 25 28  1  0  0  0  0
 26 25  2  0  0  0  0
 26 29  1  0  0  0  0
 27 23  1  0  0  0  0
 28 30  2  0  0  0  0
 28 27  1  0  0  0  0
 29 24  2  0  0  0  0
 32 29  1  0  0  0  0
 32 33  1  0  0  0  0
 32 31  1  0  0  0  0
 34 25  1  0  0  0  0
 35 34  1  0  0  0  0
 36 40  1  0  0  0  0
 37 41  1  0  0  0  0
 38 39  2  0  0  0  0
 39 42  1  0  0  0  0
 40 38  1  0  0  0  0
 40 37  2  0  0  0  0
 41 42  2  0  0  0  0
 42 43  1  0  0  0  0
 44 48  1  0  0  0  0
 45 49  2  0  0  0  0
 46 45  1  0  0  0  0
 46 44  1  0  0  0  0
 46 53  1  0  0  0  0
 47 43  1  0  0  0  0
 47 44  1  0  0  0  0
 47 48  1  0  0  0  0
 49 48  1  0  0  0  0
 50 53  1  0  0  0  0
 51 53  1  0  0  0  0
 53 52  1  0  0  0  0
M  END
>  <MODEL>
9

>  <REMARK>
 VINA RESULT:      -3.3      3.943      5.172
  Name = 
  15 active torsions:
  status: ('A' for Active; 'I' for Inactive)
    1  A    between atoms: C_2  and  C_20
    2  A    between atoms: C_2  and  C_51
    3  A    between atoms: C_8  and  C_28
    4  A    between atoms: C_8  and  O_45
    5  A    between atoms: C_9  and  C_20
    6  A    between atoms: N_11  and  C_13
    7  A    between atoms: C_12  and  O_45
    8  A    between atoms: C_17  and  C_53
    9  A    between atoms: C_20  and  C_53
   10  A    between atoms: C_21  and  C_30
   11  A    between atoms: C_21  and  C_48
   12  A    between atoms: N_26  and  C_34
   13  A    between atoms: C_28  and  C_34
   14  A    between atoms: C_35  and  C_40
   15  A    between atoms: C_37  and  C_38
                            x       y       z     vdW  Elec       q    Type
                         _______ _______ _______ _____ _____    ______ ____

>  <TORSDO>
F 15

$$$$
