=
 OpenBabel11052411233D

 41 46  0  0  1  0  0  0  0  0999 V2000
  160.2150  209.6390  154.1490 C   0  0  0  0  0  0  0  0  0  0  0  0
  160.8500  207.3650  153.9950 C   0  0  0  0  0  3  0  0  0  0  0  0
  161.3650  207.5790  152.7120 C   0  0  0  0  0  0  0  0  0  0  0  0
  160.7120  209.8680  152.9030 N   0  0  0  0  0  0  0  0  0  0  0  0
  161.7820  209.1390  150.8730 N   0  0  0  0  0  0  0  0  0  0  0  0
  160.2910  208.3900  154.6860 N   0  0  0  0  0  0  0  0  0  0  0  0
  161.2830  208.8690  152.1800 C   0  0  0  0  0  0  0  0  0  0  0  0
  162.4260  208.7190  149.5950 C   0  0  2  0  0  3  0  0  0  0  0  0
  162.0250  210.0340  149.7040 C   0  0  0  0  0  2  0  0  0  0  0  0
  158.4940  212.2070  153.3230 C   0  0  0  0  0  2  0  0  0  0  0  0
  157.3650  213.3660  154.9630 N   0  0  0  0  0  0  0  0  0  0  0  0
  159.6040  210.7400  154.9110 C   0  0  0  0  0  0  0  0  0  0  0  0
  159.0840  210.6010  156.1380 C   0  0  0  0  0  3  0  0  0  0  0  0
  159.0460  213.2700  156.6600 N   0  0  0  0  0  2  0  0  0  0  0  0
  159.3190  212.1200  154.3650 C   0  0  2  0  0  3  0  0  0  0  0  0
  157.3050  212.9820  153.7250 C   0  0  0  0  0  3  0  0  0  0  0  0
  158.6390  211.9040  156.3630 N   0  0  0  0  0  0  0  0  0  0  0  0
  158.6810  212.9780  155.4050 C   0  0  2  0  0  0  0  0  0  0  0  0
  161.9420  206.5460  151.9640 O   0  0  0  0  0  0  0  0  0  0  0  0
  160.2930  203.9530  149.8260 C   0  0  0  0  0  2  0  0  0  0  0  0
  161.4650  202.8470  151.5760 C   0  0  0  0  0  2  0  0  0  0  0  0
  162.1550  204.1360  152.0140 C   0  0  0  0  0  2  0  0  0  0  0  0
  160.9170  205.3010  150.1780 C   0  0  0  0  0  2  0  0  0  0  0  0
  161.2700  205.3300  151.6620 C   0  0  0  0  0  3  0  0  0  0  0  0
  161.2310  202.8730  150.1310 N   0  0  0  0  0  0  0  0  0  0  0  0
  161.4660  200.4850  148.5070 C   0  0  0  0  0  1  0  0  0  0  0  0
  160.2900  200.5240  150.9170 O   0  0  0  0  0  0  0  0  0  0  0  0
  159.1260  201.6540  149.0860 O   0  0  0  0  0  0  0  0  0  0  0  0
  160.4730  201.3740  149.6900 S   0  0  0  0  0  0  0  0  0  0  0  0
  161.4180  207.9170  148.7940 C   0  0  0  0  0  2  0  0  0  0  0  0
  162.1060  207.1810  147.6560 C   0  0  0  0  0  2  0  0  0  0  0  0
  161.1790  206.3860  146.9590 O   0  0  0  0  0  0  0  0  0  0  0  0
  161.7430  205.9790  145.7260 C   0  0  1  0  0  3  0  0  0  0  0  0
  163.6630  204.5810  146.2570 O   0  0  0  0  0  1  0  0  0  0  0  0
  162.3510  204.5670  145.7740 C   0  0  1  0  0  3  0  0  0  0  0  0
  161.4810  203.5860  146.5580 C   0  0  0  0  0  2  0  0  0  0  0  0
  161.1250  202.3310  145.7720 C   0  0  0  0  0  2  0  0  0  0  0  0
  160.0600  202.5920  144.9110 O   0  0  0  0  0  1  0  0  0  0  0  0
  160.8220  206.1590  144.6050 N   0  0  0  0  0  2  0  0  0  0  0  0
  161.6290  206.1730  142.3210 C   0  0  0  0  0  1  0  0  0  0  0  0
  161.2950  205.3160  143.5230 C   0  0  0  0  0  2  0  0  0  0  0  0
  1  6  1  0  0  0  0
  1 12  1  0  0  0  0
  2  6  2  0  0  0  0
  3  2  1  0  0  0  0
  4  1  2  0  0  0  0
  5  7  1  0  0  0  0
  7  3  2  0  0  0  0
  7  4  1  0  0  0  0
  8 30  1  6  0  0  0
  8  9  1  0  0  0  0
  8  5  1  0  0  0  0
  9  5  1  0  0  0  0
 10 16  1  0  0  0  0
 12 13  2  0  0  0  0
 13 17  1  0  0  0  0
 15 10  1  6  0  0  0
 15 12  1  0  0  0  0
 15 18  1  0  0  0  0
 16 11  2  0  0  0  0
 17 14  1  0  0  0  0
 18 11  1  6  0  0  0
 18 17  1  0  0  0  0
 18 14  1  0  0  0  0
 19  3  1  0  0  0  0
 20 25  1  0  0  0  0
 20 23  1  0  0  0  0
 21 22  1  0  0  0  0
 23 24  1  0  0  0  0
 24 19  1  0  0  0  0
 24 22  1  0  0  0  0
 25 21  1  0  0  0  0
 26 29  1  0  0  0  0
 28 29  2  0  0  0  0
 29 25  1  0  0  0  0
 29 27  2  0  0  0  0
 31 30  1  0  0  0  0
 32 31  1  0  0  0  0
 33 39  1  6  0  0  0
 33 35  1  0  0  0  0
 33 32  1  0  0  0  0
 35 34  1  1  0  0  0
 35 36  1  0  0  0  0
 37 36  1  0  0  0  0
 38 37  1  0  0  0  0
 40 41  1  0  0  0  0
 41 39  1  0  0  0  0
M  END
>  <MODEL>
1

>  <REMARK>
 VINA RESULT:      -6.2      0.000      0.000
  Name = 
  13 active torsions:
  status: ('A' for Active; 'I' for Inactive)
    1  A    between atoms: O_2  and  C_11
    2  A    between atoms: O_2  and  C_35
    3  A    between atoms: C_3  and  N_21
    4  A    between atoms: C_3  and  O_23
    5  A    between atoms: C_3  and  C_27
    6  A    between atoms: C_5  and  C_6
    7  A    between atoms: C_14  and  C_19
    8  A    between atoms: C_15  and  O_23
    9  A    between atoms: C_15  and  C_37
   10  A    between atoms: C_19  and  C_27
   11  A    between atoms: N_21  and  C_30
   12  A    between atoms: S_34  and  N_40
   13  A    between atoms: C_37  and  C_38
                            x       y       z     vdW  Elec       q    Type
                         _______ _______ _______ _____ _____    ______ ____

>  <TORSDO>
F 13

$$$$
=
 OpenBabel11052411233D

 41 46  0  0  1  0  0  0  0  0999 V2000
  161.5150  207.3030  149.9920 C   0  0  0  0  0  0  0  0  0  0  0  0
  162.1210  209.3120  148.8980 C   0  0  0  0  0  3  0  0  0  0  0  0
  161.8790  210.0400  150.0680 C   0  0  0  0  0  0  0  0  0  0  0  0
  161.2760  207.9930  151.1390 N   0  0  0  0  0  0  0  0  0  0  0  0
  161.1790  210.0350  152.4130 N   0  0  0  0  0  0  0  0  0  0  0  0
  161.9380  207.9670  148.8810 N   0  0  0  0  0  0  0  0  0  0  0  0
  161.4500  209.3400  151.1990 C   0  0  0  0  0  0  0  0  0  0  0  0
  161.0900  211.2820  153.2270 C   0  0  2  0  0  3  0  0  0  0  0  0
  160.7210  210.0980  153.8320 C   0  0  0  0  0  2  0  0  0  0  0  0
  161.4100  205.1480  147.6300 C   0  0  0  0  0  2  0  0  0  0  0  0
  161.5610  202.9100  148.1550 N   0  0  0  0  0  0  0  0  0  0  0  0
  161.3210  205.8440  149.9560 C   0  0  0  0  0  0  0  0  0  0  0  0
  161.7700  205.0080  150.9010 C   0  0  0  0  0  3  0  0  0  0  0  0
  160.1950  202.9330  150.1170 N   0  0  0  0  0  2  0  0  0  0  0  0
  160.7550  205.0730  148.7860 C   0  0  2  0  0  3  0  0  0  0  0  0
  161.8900  203.7990  147.2700 C   0  0  0  0  0  3  0  0  0  0  0  0
  161.3450  203.7890  150.3690 N   0  0  0  0  0  0  0  0  0  0  0  0
  160.7150  203.6130  149.0870 C   0  0  2  0  0  0  0  0  0  0  0  0
  162.0470  211.4290  150.1240 O   0  0  0  0  0  0  0  0  0  0  0  0
  162.6480  212.9400  146.7520 C   0  0  0  0  0  2  0  0  0  0  0  0
  160.2990  212.8330  147.1170 C   0  0  0  0  0  2  0  0  0  0  0  0
  160.4700  211.9830  148.3730 C   0  0  0  0  0  2  0  0  0  0  0  0
  162.9410  212.1000  147.9930 C   0  0  0  0  0  2  0  0  0  0  0  0
  161.8220  212.2890  149.0140 C   0  0  0  0  0  3  0  0  0  0  0  0
  161.3700  212.5360  146.1640 N   0  0  0  0  0  0  0  0  0  0  0  0
  162.5640  214.4530  144.3500 C   0  0  0  0  0  1  0  0  0  0  0  0
  160.7600  212.6210  143.5880 O   0  0  0  0  0  0  0  0  0  0  0  0
  159.9650  214.4530  145.0000 O   0  0  0  0  0  0  0  0  0  0  0  0
  161.1070  213.5090  144.7510 S   0  0  0  0  0  0  0  0  0  0  0  0
  159.8660  212.0570  152.7790 C   0  0  0  0  0  2  0  0  0  0  0  0
  159.2690  212.8300  153.9430 C   0  0  0  0  0  2  0  0  0  0  0  0
  158.5850  213.9650  153.4760 O   0  0  0  0  0  0  0  0  0  0  0  0
  157.3860  213.5630  152.8400 C   0  0  1  0  0  3  0  0  0  0  0  0
  155.0140  214.0570  153.0730 O   0  0  0  0  0  1  0  0  0  0  0  0
  156.1570  213.6380  153.7610 C   0  0  1  0  0  3  0  0  0  0  0  0
  155.9080  212.3260  154.5050 C   0  0  0  0  0  2  0  0  0  0  0  0
  156.2560  212.3950  155.9860 C   0  0  0  0  0  2  0  0  0  0  0  0
  155.1040  212.6110  156.7390 O   0  0  0  0  0  1  0  0  0  0  0  0
  157.1770  214.2420  151.5630 N   0  0  0  0  0  2  0  0  0  0  0  0
  156.5970  213.5200  149.3240 C   0  0  0  0  0  1  0  0  0  0  0  0
  157.5030  213.2930  150.5150 C   0  0  0  0  0  2  0  0  0  0  0  0
  1  4  2  0  0  0  0
  2  3  1  0  0  0  0
  3 19  1  0  0  0  0
  3  7  2  0  0  0  0
  4  7  1  0  0  0  0
  5  8  1  0  0  0  0
  5  9  1  0  0  0  0
  6  2  2  0  0  0  0
  6  1  1  0  0  0  0
  7  5  1  0  0  0  0
  8 30  1  6  0  0  0
  8  9  1  0  0  0  0
 12  1  1  0  0  0  0
 12 13  2  0  0  0  0
 14 17  1  0  0  0  0
 15 10  1  6  0  0  0
 15 18  1  0  0  0  0
 15 12  1  0  0  0  0
 16 10  1  0  0  0  0
 16 11  2  0  0  0  0
 17 13  1  0  0  0  0
 18 11  1  6  0  0  0
 18 14  1  0  0  0  0
 18 17  1  0  0  0  0
 20 23  1  0  0  0  0
 21 22  1  0  0  0  0
 22 24  1  0  0  0  0
 23 24  1  0  0  0  0
 24 19  1  0  0  0  0
 25 20  1  0  0  0  0
 25 21  1  0  0  0  0
 26 29  1  0  0  0  0
 27 29  2  0  0  0  0
 29 28  2  0  0  0  0
 29 25  1  0  0  0  0
 30 31  1  0  0  0  0
 32 31  1  0  0  0  0
 33 39  1  6  0  0  0
 33 32  1  0  0  0  0
 33 35  1  0  0  0  0
 35 34  1  6  0  0  0
 35 36  1  0  0  0  0
 36 37  1  0  0  0  0
 37 38  1  0  0  0  0
 40 41  1  0  0  0  0
 41 39  1  0  0  0  0
M  END
>  <MODEL>
2

>  <REMARK>
 VINA RESULT:      -6.1      4.558     10.194
  Name = 
  13 active torsions:
  status: ('A' for Active; 'I' for Inactive)
    1  A    between atoms: O_2  and  C_11
    2  A    between atoms: O_2  and  C_35
    3  A    between atoms: C_3  and  N_21
    4  A    between atoms: C_3  and  O_23
    5  A    between atoms: C_3  and  C_27
    6  A    between atoms: C_5  and  C_6
    7  A    between atoms: C_14  and  C_19
    8  A    between atoms: C_15  and  O_23
    9  A    between atoms: C_15  and  C_37
   10  A    between atoms: C_19  and  C_27
   11  A    between atoms: N_21  and  C_30
   12  A    between atoms: S_34  and  N_40
   13  A    between atoms: C_37  and  C_38
                            x       y       z     vdW  Elec       q    Type
                         _______ _______ _______ _____ _____    ______ ____

>  <TORSDO>
F 13

$$$$
=
 OpenBabel11052411233D

 41 46  0  0  1  0  0  0  0  0999 V2000
  161.4800  206.3190  151.1680 C   0  0  0  0  0  0  0  0  0  0  0  0
  161.7850  208.0500  152.7520 C   0  0  0  0  0  3  0  0  0  0  0  0
  161.7750  209.0070  151.7310 C   0  0  0  0  0  0  0  0  0  0  0  0
  161.4660  207.2340  150.1620 N   0  0  0  0  0  0  0  0  0  0  0  0
  161.6020  209.4930  149.3390 N   0  0  0  0  0  0  0  0  0  0  0  0
  161.6360  206.7350  152.4550 N   0  0  0  0  0  0  0  0  0  0  0  0
  161.6080  208.5620  150.4170 C   0  0  0  0  0  0  0  0  0  0  0  0
  161.7010  210.8780  148.7920 C   0  0  2  0  0  3  0  0  0  0  0  0
  161.5440  209.8460  147.8900 C   0  0  0  0  0  2  0  0  0  0  0  0
  161.0960  204.6690  148.4540 C   0  0  0  0  0  2  0  0  0  0  0  0
  161.3780  202.3830  148.4890 N   0  0  0  0  0  0  0  0  0  0  0  0
  161.3200  204.8880  150.8640 C   0  0  0  0  0  0  0  0  0  0  0  0
  161.9210  203.9070  151.5500 C   0  0  0  0  0  3  0  0  0  0  0  0
  160.3050  201.9450  150.5810 N   0  0  0  0  0  2  0  0  0  0  0  0
  160.6140  204.3330  149.6480 C   0  0  2  0  0  3  0  0  0  0  0  0
  161.5540  203.4460  147.7670 C   0  0  0  0  0  3  0  0  0  0  0  0
  161.4570  202.7960  150.8440 N   0  0  0  0  0  0  0  0  0  0  0  0
  160.6550  202.8420  149.6490 C   0  0  2  0  0  0  0  0  0  0  0  0
  161.9340  210.3730  151.9950 O   0  0  0  0  0  0  0  0  0  0  0  0
  158.5890  211.4970  153.2450 C   0  0  0  0  0  2  0  0  0  0  0  0
  160.1380  211.6010  155.0490 C   0  0  0  0  0  2  0  0  0  0  0  0
  161.2130  210.8680  154.2510 C   0  0  0  0  0  2  0  0  0  0  0  0
  159.5870  210.7640  152.3510 C   0  0  0  0  0  2  0  0  0  0  0  0
  161.0100  211.1340  152.7610 C   0  0  0  0  0  3  0  0  0  0  0  0
  158.8100  211.1340  154.6450 N   0  0  0  0  0  0  0  0  0  0  0  0
  158.2410  212.2490  157.2570 C   0  0  0  0  0  1  0  0  0  0  0  0
  157.3330  213.3090  154.9670 O   0  0  0  0  0  0  0  0  0  0  0  0
  156.3700  211.1730  155.6690 O   0  0  0  0  0  0  0  0  0  0  0  0
  157.6350  211.9800  155.6030 S   0  0  0  0  0  0  0  0  0  0  0  0
  163.1510  211.3150  148.8590 C   0  0  0  0  0  2  0  0  0  0  0  0
  163.4370  212.3740  147.8070 C   0  0  0  0  0  2  0  0  0  0  0  0
  162.9700  213.6280  148.2380 O   0  0  0  0  0  0  0  0  0  0  0  0
  162.0060  214.1120  147.3220 C   0  0  1  0  0  3  0  0  0  0  0  0
  160.7250  212.6910  145.8170 O   0  0  0  0  0  1  0  0  0  0  0  0
  161.9630  213.3130  146.0090 C   0  0  1  0  0  3  0  0  0  0  0  0
  162.3510  214.1620  144.7990 C   0  0  0  0  0  2  0  0  0  0  0  0
  163.3060  213.4560  143.8460 C   0  0  0  0  0  2  0  0  0  0  0  0
  162.6230  212.4860  143.1150 O   0  0  0  0  0  1  0  0  0  0  0  0
  160.6870  214.2700  147.9310 N   0  0  0  0  0  2  0  0  0  0  0  0
  159.8460  213.6650  150.1200 C   0  0  0  0  0  1  0  0  0  0  0  0
  160.8910  214.4480  149.3560 C   0  0  0  0  0  2  0  0  0  0  0  0
  1  6  1  0  0  0  0
  3 19  1  0  0  0  0
  3  2  1  0  0  0  0
  4  7  1  0  0  0  0
  4  1  2  0  0  0  0
  5  7  1  0  0  0  0
  6  2  2  0  0  0  0
  7  3  2  0  0  0  0
  8 30  1  6  0  0  0
  8  5  1  0  0  0  0
  9  8  1  0  0  0  0
  9  5  1  0  0  0  0
 12  1  1  0  0  0  0
 12 13  2  0  0  0  0
 14 17  1  0  0  0  0
 15 10  1  6  0  0  0
 15 18  1  0  0  0  0
 15 12  1  0  0  0  0
 16 10  1  0  0  0  0
 16 11  2  0  0  0  0
 17 13  1  0  0  0  0
 18 11  1  6  0  0  0
 18 14  1  0  0  0  0
 18 17  1  0  0  0  0
 19 24  1  0  0  0  0
 20 25  1  0  0  0  0
 22 21  1  0  0  0  0
 23 24  1  0  0  0  0
 23 20  1  0  0  0  0
 24 22  1  0  0  0  0
 25 21  1  0  0  0  0
 25 29  1  0  0  0  0
 27 29  2  0  0  0  0
 29 28  2  0  0  0  0
 29 26  1  0  0  0  0
 31 32  1  0  0  0  0
 31 30  1  0  0  0  0
 33 39  1  1  0  0  0
 33 32  1  0  0  0  0
 35 34  1  6  0  0  0
 35 33  1  0  0  0  0
 36 35  1  0  0  0  0
 37 36  1  0  0  0  0
 38 37  1  0  0  0  0
 39 41  1  0  0  0  0
 41 40  1  0  0  0  0
M  END
>  <MODEL>
3

>  <REMARK>
 VINA RESULT:      -6.0      4.344      8.853
  Name = 
  13 active torsions:
  status: ('A' for Active; 'I' for Inactive)
    1  A    between atoms: O_2  and  C_11
    2  A    between atoms: O_2  and  C_35
    3  A    between atoms: C_3  and  N_21
    4  A    between atoms: C_3  and  O_23
    5  A    between atoms: C_3  and  C_27
    6  A    between atoms: C_5  and  C_6
    7  A    between atoms: C_14  and  C_19
    8  A    between atoms: C_15  and  O_23
    9  A    between atoms: C_15  and  C_37
   10  A    between atoms: C_19  and  C_27
   11  A    between atoms: N_21  and  C_30
   12  A    between atoms: S_34  and  N_40
   13  A    between atoms: C_37  and  C_38
                            x       y       z     vdW  Elec       q    Type
                         _______ _______ _______ _____ _____    ______ ____

>  <TORSDO>
F 13

$$$$
=
 OpenBabel11052411233D

 41 46  0  0  1  0  0  0  0  0999 V2000
  161.3290  205.9490  150.7530 C   0  0  0  0  0  0  0  0  0  0  0  0
  161.9960  208.0990  150.0250 C   0  0  0  0  0  3  0  0  0  0  0  0
  161.7700  208.6190  151.3040 C   0  0  0  0  0  0  0  0  0  0  0  0
  161.1050  206.4350  152.0030 N   0  0  0  0  0  0  0  0  0  0  0  0
  161.0590  208.2260  153.6130 N   0  0  0  0  0  0  0  0  0  0  0  0
  161.7760  206.7840  149.7750 N   0  0  0  0  0  0  0  0  0  0  0  0
  161.3160  207.7460  152.2960 C   0  0  0  0  0  0  0  0  0  0  0  0
  161.0010  209.3140  154.6310 C   0  0  2  0  0  3  0  0  0  0  0  0
  160.5970  208.0540  155.0210 C   0  0  0  0  0  2  0  0  0  0  0  0
  161.2070  204.2350  148.0540 C   0  0  0  0  0  2  0  0  0  0  0  0
  161.2850  201.9370  148.1870 N   0  0  0  0  0  0  0  0  0  0  0  0
  161.0950  204.5250  150.4640 C   0  0  0  0  0  0  0  0  0  0  0  0
  161.5030  203.5240  151.2560 C   0  0  0  0  0  3  0  0  0  0  0  0
  159.8850  201.6650  150.1070 N   0  0  0  0  0  2  0  0  0  0  0  0
  160.5290  203.9830  149.1710 C   0  0  2  0  0  3  0  0  0  0  0  0
  161.6550  202.9550  147.4740 C   0  0  0  0  0  3  0  0  0  0  0  0
  161.0540  202.4290  150.5170 N   0  0  0  0  0  0  0  0  0  0  0  0
  160.4420  202.4950  149.2160 C   0  0  2  0  0  0  0  0  0  0  0  0
  161.9760  209.9720  151.6010 O   0  0  0  0  0  0  0  0  0  0  0  0
  162.1370  211.4180  148.1510 C   0  0  0  0  0  2  0  0  0  0  0  0
  160.9200  212.9200  149.5380 C   0  0  0  0  0  2  0  0  0  0  0  0
  160.8600  211.9140  150.6840 C   0  0  0  0  0  2  0  0  0  0  0  0
  162.1460  210.3350  149.2280 C   0  0  0  0  0  2  0  0  0  0  0  0
  162.0700  210.9850  150.6070 C   0  0  0  0  0  3  0  0  0  0  0  0
  160.9150  212.2160  148.2540 N   0  0  0  0  0  0  0  0  0  0  0  0
  162.4730  214.3440  147.0540 C   0  0  0  0  0  1  0  0  0  0  0  0
  160.8470  212.7320  145.6570 O   0  0  0  0  0  0  0  0  0  0  0  0
  159.7950  214.3500  147.1600 O   0  0  0  0  0  0  0  0  0  0  0  0
  160.9560  213.4100  146.9940 S   0  0  0  0  0  0  0  0  0  0  0  0
  159.8020  210.1900  154.3260 C   0  0  0  0  0  2  0  0  0  0  0  0
  159.7200  211.3440  155.3110 C   0  0  0  0  0  2  0  0  0  0  0  0
  159.7800  212.5730  154.6290 O   0  0  0  0  0  0  0  0  0  0  0  0
  158.4790  212.9470  154.2180 C   0  0  1  0  0  3  0  0  0  0  0  0
  157.3040  213.9770  156.0840 O   0  0  0  0  0  1  0  0  0  0  0  0
  157.4270  212.8060  155.3300 C   0  0  1  0  0  3  0  0  0  0  0  0
  156.0720  212.3460  154.7930 C   0  0  0  0  0  2  0  0  0  0  0  0
  155.8060  210.8630  155.0120 C   0  0  0  0  0  2  0  0  0  0  0  0
  155.1690  210.6670  156.2360 O   0  0  0  0  0  1  0  0  0  0  0  0
  158.4520  214.2600  153.5780 N   0  0  0  0  0  2  0  0  0  0  0  0
  156.8120  214.4500  151.8050 C   0  0  0  0  0  1  0  0  0  0  0  0
  158.2250  214.0420  152.1620 C   0  0  0  0  0  2  0  0  0  0  0  0
  1  4  2  0  0  0  0
  2  3  1  0  0  0  0
  3 19  1  0  0  0  0
  3  7  2  0  0  0  0
  4  7  1  0  0  0  0
  5  8  1  0  0  0  0
  5  9  1  0  0  0  0
  6  2  2  0  0  0  0
  6  1  1  0  0  0  0
  7  5  1  0  0  0  0
  8 30  1  6  0  0  0
  8  9  1  0  0  0  0
 12  1  1  0  0  0  0
 12 13  2  0  0  0  0
 14 17  1  0  0  0  0
 15 10  1  6  0  0  0
 15 18  1  0  0  0  0
 15 12  1  0  0  0  0
 16 10  1  0  0  0  0
 16 11  2  0  0  0  0
 17 13  1  0  0  0  0
 18 11  1  6  0  0  0
 18 14  1  0  0  0  0
 18 17  1  0  0  0  0
 20 25  1  0  0  0  0
 20 23  1  0  0  0  0
 21 22  1  0  0  0  0
 23 24  1  0  0  0  0
 24 22  1  0  0  0  0
 24 19  1  0  0  0  0
 25 21  1  0  0  0  0
 27 29  2  0  0  0  0
 29 26  1  0  0  0  0
 29 28  2  0  0  0  0
 29 25  1  0  0  0  0
 30 31  1  0  0  0  0
 32 31  1  0  0  0  0
 33 39  1  1  0  0  0
 33 32  1  0  0  0  0
 33 35  1  0  0  0  0
 35 34  1  6  0  0  0
 36 37  1  0  0  0  0
 36 35  1  0  0  0  0
 37 38  1  0  0  0  0
 40 41  1  0  0  0  0
 41 39  1  0  0  0  0
M  END
>  <MODEL>
4

>  <REMARK>
 VINA RESULT:      -6.0      4.178     10.146
  Name = 
  13 active torsions:
  status: ('A' for Active; 'I' for Inactive)
    1  A    between atoms: O_2  and  C_11
    2  A    between atoms: O_2  and  C_35
    3  A    between atoms: C_3  and  N_21
    4  A    between atoms: C_3  and  O_23
    5  A    between atoms: C_3  and  C_27
    6  A    between atoms: C_5  and  C_6
    7  A    between atoms: C_14  and  C_19
    8  A    between atoms: C_15  and  O_23
    9  A    between atoms: C_15  and  C_37
   10  A    between atoms: C_19  and  C_27
   11  A    between atoms: N_21  and  C_30
   12  A    between atoms: S_34  and  N_40
   13  A    between atoms: C_37  and  C_38
                            x       y       z     vdW  Elec       q    Type
                         _______ _______ _______ _____ _____    ______ ____

>  <TORSDO>
F 13

$$$$
=
 OpenBabel11052411233D

 41 46  0  0  1  0  0  0  0  0999 V2000
  161.4230  206.3620  151.1040 C   0  0  0  0  0  0  0  0  0  0  0  0
  161.8040  207.9880  152.7790 C   0  0  0  0  0  3  0  0  0  0  0  0
  161.7840  209.0050  151.8180 C   0  0  0  0  0  0  0  0  0  0  0  0
  161.3990  207.3370  150.1550 N   0  0  0  0  0  0  0  0  0  0  0  0
  161.5540  209.6390  149.4660 N   0  0  0  0  0  0  0  0  0  0  0  0
  161.6230  206.6960  152.4080 N   0  0  0  0  0  0  0  0  0  0  0  0
  161.5730  208.6430  150.4850 C   0  0  0  0  0  0  0  0  0  0  0  0
  161.6640  211.0510  149.0010 C   0  0  2  0  0  3  0  0  0  0  0  0
  161.4640  210.0790  148.0430 C   0  0  0  0  0  2  0  0  0  0  0  0
  161.2500  204.8470  148.2910 C   0  0  0  0  0  2  0  0  0  0  0  0
  161.4170  202.5500  148.2490 N   0  0  0  0  0  0  0  0  0  0  0  0
  161.2290  204.9550  150.7180 C   0  0  0  0  0  0  0  0  0  0  0  0
  161.7050  203.9160  151.4170 C   0  0  0  0  0  3  0  0  0  0  0  0
  160.1090  202.0830  150.1960 N   0  0  0  0  0  2  0  0  0  0  0  0
  160.6290  204.4880  149.4120 C   0  0  2  0  0  3  0  0  0  0  0  0
  161.7200  203.6310  147.5990 C   0  0  0  0  0  3  0  0  0  0  0  0
  161.2660  202.8610  150.6160 N   0  0  0  0  0  0  0  0  0  0  0  0
  160.5990  202.9980  149.3480 C   0  0  2  0  0  0  0  0  0  0  0  0
  161.9760  210.3500  152.1590 O   0  0  0  0  0  0  0  0  0  0  0  0
  158.5550  211.4020  153.2550 C   0  0  0  0  0  2  0  0  0  0  0  0
  160.0690  211.7920  155.0480 C   0  0  0  0  0  2  0  0  0  0  0  0
  161.1960  211.0420  154.3430 C   0  0  0  0  0  2  0  0  0  0  0  0
  159.6060  210.6370  152.4540 C   0  0  0  0  0  2  0  0  0  0  0  0
  160.9980  211.1330  152.8310 C   0  0  0  0  0  3  0  0  0  0  0  0
  158.7770  211.2050  154.6880 N   0  0  0  0  0  0  0  0  0  0  0  0
  157.8270  213.8360  155.4440 C   0  0  0  0  0  1  0  0  0  0  0  0
  156.2000  211.7650  154.9400 O   0  0  0  0  0  0  0  0  0  0  0  0
  157.5400  211.6610  156.9840 O   0  0  0  0  0  0  0  0  0  0  0  0
  157.5420  212.0790  155.5400 S   0  0  0  0  0  0  0  0  0  0  0  0
  163.1230  211.4600  149.0520 C   0  0  0  0  0  2  0  0  0  0  0  0
  163.4240  212.4990  147.9850 C   0  0  0  0  0  2  0  0  0  0  0  0
  162.2850  213.2850  147.7350 O   0  0  0  0  0  0  0  0  0  0  0  0
  161.9660  213.2250  146.3580 C   0  0  1  0  0  3  0  0  0  0  0  0
  159.8890  212.1350  145.7110 O   0  0  0  0  0  1  0  0  0  0  0  0
  160.4600  213.3570  146.0770 C   0  0  1  0  0  3  0  0  0  0  0  0
  159.7060  213.9960  147.2430 C   0  0  0  0  0  2  0  0  0  0  0  0
  158.4700  213.2120  147.6660 C   0  0  0  0  0  2  0  0  0  0  0  0
  158.2450  213.3750  149.0320 O   0  0  0  0  0  1  0  0  0  0  0  0
  162.7720  214.1450  145.5580 N   0  0  0  0  0  2  0  0  0  0  0  0
  163.7900  214.4160  143.3770 C   0  0  0  0  0  1  0  0  0  0  0  0
  163.1350  213.4480  144.3390 C   0  0  0  0  0  2  0  0  0  0  0  0
  1  6  1  0  0  0  0
  3 19  1  0  0  0  0
  3  2  1  0  0  0  0
  4  7  1  0  0  0  0
  4  1  2  0  0  0  0
  5  7  1  0  0  0  0
  6  2  2  0  0  0  0
  7  3  2  0  0  0  0
  8 30  1  6  0  0  0
  8  5  1  0  0  0  0
  9  8  1  0  0  0  0
  9  5  1  0  0  0  0
 12  1  1  0  0  0  0
 12 13  2  0  0  0  0
 14 17  1  0  0  0  0
 15 10  1  6  0  0  0
 15 12  1  0  0  0  0
 16 11  2  0  0  0  0
 16 10  1  0  0  0  0
 17 13  1  0  0  0  0
 18 11  1  6  0  0  0
 18 15  1  0  0  0  0
 18 14  1  0  0  0  0
 18 17  1  0  0  0  0
 19 24  1  0  0  0  0
 20 25  1  0  0  0  0
 22 21  1  0  0  0  0
 23 24  1  0  0  0  0
 23 20  1  0  0  0  0
 24 22  1  0  0  0  0
 25 21  1  0  0  0  0
 25 29  1  0  0  0  0
 26 29  1  0  0  0  0
 27 29  2  0  0  0  0
 29 28  2  0  0  0  0
 31 30  1  0  0  0  0
 32 31  1  0  0  0  0
 33 39  1  6  0  0  0
 33 32  1  0  0  0  0
 35 34  1  1  0  0  0
 35 33  1  0  0  0  0
 35 36  1  0  0  0  0
 36 37  1  0  0  0  0
 37 38  1  0  0  0  0
 40 41  1  0  0  0  0
 41 39  1  0  0  0  0
M  END
>  <MODEL>
5

>  <REMARK>
 VINA RESULT:      -5.9      4.388      8.737
  Name = 
  13 active torsions:
  status: ('A' for Active; 'I' for Inactive)
    1  A    between atoms: O_2  and  C_11
    2  A    between atoms: O_2  and  C_35
    3  A    between atoms: C_3  and  N_21
    4  A    between atoms: C_3  and  O_23
    5  A    between atoms: C_3  and  C_27
    6  A    between atoms: C_5  and  C_6
    7  A    between atoms: C_14  and  C_19
    8  A    between atoms: C_15  and  O_23
    9  A    between atoms: C_15  and  C_37
   10  A    between atoms: C_19  and  C_27
   11  A    between atoms: N_21  and  C_30
   12  A    between atoms: S_34  and  N_40
   13  A    between atoms: C_37  and  C_38
                            x       y       z     vdW  Elec       q    Type
                         _______ _______ _______ _____ _____    ______ ____

>  <TORSDO>
F 13

$$$$
=
 OpenBabel11052411233D

 41 46  0  0  1  0  0  0  0  0999 V2000
  161.5580  206.7410  149.7860 C   0  0  0  0  0  0  0  0  0  0  0  0
  162.1910  208.7490  148.7050 C   0  0  0  0  0  3  0  0  0  0  0  0
  162.0590  209.4540  149.9070 C   0  0  0  0  0  0  0  0  0  0  0  0
  161.4270  207.4090  150.9630 N   0  0  0  0  0  0  0  0  0  0  0  0
  161.5100  209.4160  152.2910 N   0  0  0  0  0  0  0  0  0  0  0  0
  161.9420  207.4160  148.6670 N   0  0  0  0  0  0  0  0  0  0  0  0
  161.6690  208.7440  151.0450 C   0  0  0  0  0  0  0  0  0  0  0  0
  161.5330  210.6420  153.1400 C   0  0  2  0  0  3  0  0  0  0  0  0
  161.1470  209.4610  153.7380 C   0  0  0  0  0  2  0  0  0  0  0  0
  161.5710  204.5900  147.4170 C   0  0  0  0  0  2  0  0  0  0  0  0
  161.5510  202.3480  147.9470 N   0  0  0  0  0  0  0  0  0  0  0  0
  161.2910  205.2950  149.7260 C   0  0  0  0  0  0  0  0  0  0  0  0
  161.6010  204.4370  150.7070 C   0  0  0  0  0  3  0  0  0  0  0  0
  160.0030  202.4470  149.7660 N   0  0  0  0  0  2  0  0  0  0  0  0
  160.8030  204.5520  148.5040 C   0  0  2  0  0  3  0  0  0  0  0  0
  162.0120  203.2180  147.1020 C   0  0  0  0  0  3  0  0  0  0  0  0
  161.1670  203.2410  150.1320 N   0  0  0  0  0  0  0  0  0  0  0  0
  160.6560  203.0970  148.7940 C   0  0  2  0  0  0  0  0  0  0  0  0
  162.2980  210.8320  149.9860 O   0  0  0  0  0  0  0  0  0  0  0  0
  162.5760  213.2440  147.1370 C   0  0  0  0  0  2  0  0  0  0  0  0
  160.5250  212.0570  146.9170 C   0  0  0  0  0  2  0  0  0  0  0  0
  160.9010  211.0770  148.0250 C   0  0  0  0  0  2  0  0  0  0  0  0
  163.0550  212.3290  148.2620 C   0  0  0  0  0  2  0  0  0  0  0  0
  161.8510  211.7610  149.0070 C   0  0  0  0  0  3  0  0  0  0  0  0
  161.7300  212.4940  146.2080 N   0  0  0  0  0  0  0  0  0  0  0  0
  160.6820  212.6790  143.5130 C   0  0  0  0  0  1  0  0  0  0  0  0
  160.1180  214.4530  145.4440 O   0  0  0  0  0  0  0  0  0  0  0  0
  162.3980  214.4530  144.5570 O   0  0  0  0  0  0  0  0  0  0  0  0
  161.2370  213.5810  144.9470 S   0  0  0  0  0  0  0  0  0  0  0  0
  160.3230  211.4870  152.7920 C   0  0  0  0  0  2  0  0  0  0  0  0
  159.0410  210.7120  153.0460 C   0  0  0  0  0  2  0  0  0  0  0  0
  157.9950  211.5920  153.3740 O   0  0  0  0  0  0  0  0  0  0  0  0
  158.2340  212.1500  154.6520 C   0  0  1  0  0  3  0  0  0  0  0  0
  157.6710  214.4500  154.0900 O   0  0  0  0  0  1  0  0  0  0  0  0
  157.3690  213.3860  154.9460 C   0  0  1  0  0  3  0  0  0  0  0  0
  155.8740  213.0670  154.9280 C   0  0  0  0  0  2  0  0  0  0  0  0
  155.0300  214.1560  154.2800 C   0  0  0  0  0  2  0  0  0  0  0  0
  154.5980  213.7420  153.0220 O   0  0  0  0  0  1  0  0  0  0  0  0
  158.1720  211.1510  155.7170 N   0  0  0  0  0  2  0  0  0  0  0  0
  159.9210  210.2330  157.1190 C   0  0  0  0  0  1  0  0  0  0  0  0
  159.2000  211.4900  156.6830 C   0  0  0  0  0  2  0  0  0  0  0  0
  1  4  2  0  0  0  0
  2  3  1  0  0  0  0
  3 19  1  0  0  0  0
  3  7  2  0  0  0  0
  4  7  1  0  0  0  0
  5  8  1  0  0  0  0
  5  9  1  0  0  0  0
  6  2  2  0  0  0  0
  6  1  1  0  0  0  0
  7  5  1  0  0  0  0
  8 30  1  6  0  0  0
  8  9  1  0  0  0  0
 12  1  1  0  0  0  0
 12 13  2  0  0  0  0
 14 17  1  0  0  0  0
 15 10  1  6  0  0  0
 15 18  1  0  0  0  0
 15 12  1  0  0  0  0
 16 10  1  0  0  0  0
 16 11  2  0  0  0  0
 17 13  1  0  0  0  0
 18 11  1  6  0  0  0
 18 14  1  0  0  0  0
 18 17  1  0  0  0  0
 20 23  1  0  0  0  0
 21 22  1  0  0  0  0
 22 24  1  0  0  0  0
 23 24  1  0  0  0  0
 24 19  1  0  0  0  0
 25 21  1  0  0  0  0
 25 20  1  0  0  0  0
 26 29  1  0  0  0  0
 28 29  2  0  0  0  0
 29 27  2  0  0  0  0
 29 25  1  0  0  0  0
 30 31  1  0  0  0  0
 31 32  1  0  0  0  0
 33 32  1  6  0  0  0
 33 35  1  0  0  0  0
 33 39  1  0  0  0  0
 35 34  1  6  0  0  0
 36 35  1  0  0  0  0
 37 36  1  0  0  0  0
 38 37  1  0  0  0  0
 39 41  1  0  0  0  0
 41 40  1  0  0  0  0
M  END
>  <MODEL>
6

>  <REMARK>
 VINA RESULT:      -5.9      4.300     10.460
  Name = 
  13 active torsions:
  status: ('A' for Active; 'I' for Inactive)
    1  A    between atoms: O_2  and  C_11
    2  A    between atoms: O_2  and  C_35
    3  A    between atoms: C_3  and  N_21
    4  A    between atoms: C_3  and  O_23
    5  A    between atoms: C_3  and  C_27
    6  A    between atoms: C_5  and  C_6
    7  A    between atoms: C_14  and  C_19
    8  A    between atoms: C_15  and  O_23
    9  A    between atoms: C_15  and  C_37
   10  A    between atoms: C_19  and  C_27
   11  A    between atoms: N_21  and  C_30
   12  A    between atoms: S_34  and  N_40
   13  A    between atoms: C_37  and  C_38
                            x       y       z     vdW  Elec       q    Type
                         _______ _______ _______ _____ _____    ______ ____

>  <TORSDO>
F 13

$$$$
=
 OpenBabel11052411233D

 41 46  0  0  1  0  0  0  0  0999 V2000
  161.9620  210.8210  148.7480 C   0  0  0  0  0  0  0  0  0  0  0  0
  162.3740  208.5100  149.0420 C   0  0  0  0  0  3  0  0  0  0  0  0
  161.8100  208.5560  150.3210 C   0  0  0  0  0  0  0  0  0  0  0  0
  161.4090  210.8860  149.9890 N   0  0  0  0  0  0  0  0  0  0  0  0
  160.7480  209.8880  152.0790 N   0  0  0  0  0  0  0  0  0  0  0  0
  162.4370  209.6330  148.2840 N   0  0  0  0  0  0  0  0  0  0  0  0
  161.3230  209.7830  150.7790 C   0  0  0  0  0  0  0  0  0  0  0  0
  160.3440  209.3080  153.3920 C   0  0  2  0  0  3  0  0  0  0  0  0
  160.1360  210.6580  153.2010 C   0  0  0  0  0  2  0  0  0  0  0  0
  159.8860  212.3120  146.8240 C   0  0  0  0  0  2  0  0  0  0  0  0
  160.3590  214.4530  146.1170 N   0  0  0  0  0  0  0  0  0  0  0  0
  162.0400  212.0310  147.9130 C   0  0  0  0  0  0  0  0  0  0  0  0
  162.7480  213.1200  148.2390 C   0  0  0  0  0  3  0  0  0  0  0  0
  162.7010  214.1670  145.7290 N   0  0  0  0  0  2  0  0  0  0  0  0
  161.2090  212.2860  146.6770 C   0  0  2  0  0  3  0  0  0  0  0  0
  159.3970  213.6580  146.4690 C   0  0  0  0  0  3  0  0  0  0  0  0
  162.4570  213.9370  147.1460 N   0  0  0  0  0  0  0  0  0  0  0  0
  161.5340  213.6170  146.0880 C   0  0  2  0  0  0  0  0  0  0  0  0
  161.7330  207.4220  151.1380 O   0  0  0  0  0  0  0  0  0  0  0  0
  161.4620  203.6880  151.2080 C   0  0  0  0  0  2  0  0  0  0  0  0
  160.8380  204.4450  149.0400 C   0  0  0  0  0  2  0  0  0  0  0  0
  160.8260  205.9050  149.4840 C   0  0  0  0  0  2  0  0  0  0  0  0
  161.4890  205.1110  151.7630 C   0  0  0  0  0  2  0  0  0  0  0  0
  161.8080  206.0920  150.6390 C   0  0  0  0  0  3  0  0  0  0  0  0
  160.4500  203.5810  150.1570 N   0  0  0  0  0  0  0  0  0  0  0  0
  161.1730  201.8390  147.9580 C   0  0  0  0  0  1  0  0  0  0  0  0
  161.2480  201.0820  150.5300 O   0  0  0  0  0  0  0  0  0  0  0  0
  159.0420  201.4280  149.5300 O   0  0  0  0  0  0  0  0  0  0  0  0
  160.4540  201.9410  149.5850 S   0  0  0  0  0  0  0  0  0  0  0  0
  161.5950  209.0690  154.2150 C   0  0  0  0  0  2  0  0  0  0  0  0
  161.2350  208.5120  155.5820 C   0  0  0  0  0  2  0  0  0  0  0  0
  161.8140  209.2960  156.5960 O   0  0  0  0  0  0  0  0  0  0  0  0
  161.6180  210.6650  156.3020 C   0  0  1  0  0  3  0  0  0  0  0  0
  159.3740  210.1310  157.0780 O   0  0  0  0  0  1  0  0  0  0  0  0
  160.1620  211.1240  156.4900 C   0  0  1  0  0  3  0  0  0  0  0  0
  160.0640  212.4410  157.2600 C   0  0  0  0  0  2  0  0  0  0  0  0
  159.1800  213.4760  156.5770 C   0  0  0  0  0  2  0  0  0  0  0  0
  158.3770  212.8620  155.6170 O   0  0  0  0  0  1  0  0  0  0  0  0
  162.5750  211.5270  156.9920 N   0  0  0  0  0  2  0  0  0  0  0  0
  164.9680  211.7950  157.2600 C   0  0  0  0  0  1  0  0  0  0  0  0
  163.8370  210.8130  157.0390 C   0  0  0  0  0  2  0  0  0  0  0  0
  1  4  2  0  0  0  0
  2  3  1  0  0  0  0
  3  7  2  0  0  0  0
  3 19  1  0  0  0  0
  4  7  1  0  0  0  0
  5  9  1  0  0  0  0
  5  8  1  0  0  0  0
  6  1  1  0  0  0  0
  6  2  2  0  0  0  0
  7  5  1  0  0  0  0
  8 30  1  1  0  0  0
  9  8  1  0  0  0  0
 11 16  2  0  0  0  0
 12 13  2  0  0  0  0
 12  1  1  0  0  0  0
 14 17  1  0  0  0  0
 15 10  1  1  0  0  0
 15 12  1  0  0  0  0
 16 10  1  0  0  0  0
 17 13  1  0  0  0  0
 18 14  1  6  0  0  0
 18 11  1  0  0  0  0
 18 15  1  0  0  0  0
 18 17  1  0  0  0  0
 20 23  1  0  0  0  0
 21 22  1  0  0  0  0
 21 25  1  0  0  0  0
 22 24  1  0  0  0  0
 24 19  1  0  0  0  0
 24 23  1  0  0  0  0
 25 20  1  0  0  0  0
 26 29  1  0  0  0  0
 28 29  2  0  0  0  0
 29 25  1  0  0  0  0
 29 27  2  0  0  0  0
 30 31  1  0  0  0  0
 31 32  1  0  0  0  0
 33 35  1  0  0  0  0
 33 32  1  1  0  0  0
 33 39  1  0  0  0  0
 35 34  1  1  0  0  0
 35 36  1  0  0  0  0
 37 36  1  0  0  0  0
 38 37  1  0  0  0  0
 39 41  1  0  0  0  0
 41 40  1  0  0  0  0
M  END
>  <MODEL>
7

>  <REMARK>
 VINA RESULT:      -5.2      3.553      8.440
  Name = 
  13 active torsions:
  status: ('A' for Active; 'I' for Inactive)
    1  A    between atoms: O_2  and  C_11
    2  A    between atoms: O_2  and  C_35
    3  A    between atoms: C_3  and  N_21
    4  A    between atoms: C_3  and  O_23
    5  A    between atoms: C_3  and  C_27
    6  A    between atoms: C_5  and  C_6
    7  A    between atoms: C_14  and  C_19
    8  A    between atoms: C_15  and  O_23
    9  A    between atoms: C_15  and  C_37
   10  A    between atoms: C_19  and  C_27
   11  A    between atoms: N_21  and  C_30
   12  A    between atoms: S_34  and  N_40
   13  A    between atoms: C_37  and  C_38
                            x       y       z     vdW  Elec       q    Type
                         _______ _______ _______ _____ _____    ______ ____

>  <TORSDO>
F 13

$$$$
=
 OpenBabel11052411233D

 41 46  0  0  1  0  0  0  0  0999 V2000
  159.9350  210.8170  153.8440 C   0  0  0  0  0  0  0  0  0  0  0  0
  161.1310  209.0510  152.8180 C   0  0  0  0  0  3  0  0  0  0  0  0
  161.3870  209.8540  151.7010 C   0  0  0  0  0  0  0  0  0  0  0  0
  160.1760  211.6130  152.7670 N   0  0  0  0  0  0  0  0  0  0  0  0
  161.1130  212.0150  150.5860 N   0  0  0  0  0  0  0  0  0  0  0  0
  160.4170  209.5440  153.8620 N   0  0  0  0  0  0  0  0  0  0  0  0
  160.8890  211.1590  151.7030 C   0  0  0  0  0  0  0  0  0  0  0  0
  161.6630  212.2920  149.2280 C   0  0  2  0  0  3  0  0  0  0  0  0
  160.9430  213.2960  149.8400 C   0  0  0  0  0  2  0  0  0  0  0  0
  156.8320  211.4430  154.3040 C   0  0  0  0  0  2  0  0  0  0  0  0
  156.0700  211.7910  156.4500 N   0  0  0  0  0  0  0  0  0  0  0  0
  159.1620  211.3350  154.9840 C   0  0  0  0  0  0  0  0  0  0  0  0
  159.4510  211.0700  156.2650 C   0  0  0  0  0  3  0  0  0  0  0  0
  157.9140  213.0840  157.2540 N   0  0  0  0  0  2  0  0  0  0  0  0
  157.8510  212.0790  154.8770 C   0  0  2  0  0  3  0  0  0  0  0  0
  155.7530  211.2860  155.2990 C   0  0  0  0  0  3  0  0  0  0  0  0
  158.4200  211.7670  156.8970 N   0  0  0  0  0  0  0  0  0  0  0  0
  157.3380  212.4420  156.2300 C   0  0  2  0  0  0  0  0  0  0  0  0
  162.1120  209.3800  150.6000 O   0  0  0  0  0  0  0  0  0  0  0  0
  161.9110  207.2980  147.4960 C   0  0  0  0  0  2  0  0  0  0  0  0
  161.5460  205.8820  149.3730 C   0  0  0  0  0  2  0  0  0  0  0  0
  161.9470  206.9780  150.3570 C   0  0  0  0  0  2  0  0  0  0  0  0
  162.3240  208.4700  148.3830 C   0  0  0  0  0  2  0  0  0  0  0  0
  161.6460  208.3450  149.7450 C   0  0  0  0  0  3  0  0  0  0  0  0
  162.2960  206.0340  148.1250 N   0  0  0  0  0  0  0  0  0  0  0  0
  161.2180  203.3480  147.9860 C   0  0  0  0  0  1  0  0  0  0  0  0
  160.7340  205.2330  146.1400 O   0  0  0  0  0  0  0  0  0  0  0  0
  163.0010  204.3180  146.2360 O   0  0  0  0  0  0  0  0  0  0  0  0
  161.8190  204.7470  147.0610 S   0  0  0  0  0  0  0  0  0  0  0  0
  160.8080  211.5660  148.2080 C   0  0  0  0  0  2  0  0  0  0  0  0
  160.9510  212.2070  146.8380 C   0  0  0  0  0  2  0  0  0  0  0  0
  160.3440  213.4750  146.8270 O   0  0  0  0  0  0  0  0  0  0  0  0
  159.4210  213.5460  145.7570 C   0  0  1  0  0  3  0  0  0  0  0  0
  157.0780  212.8910  145.8000 O   0  0  0  0  0  1  0  0  0  0  0  0
  157.9890  213.8680  146.2120 C   0  0  1  0  0  3  0  0  0  0  0  0
  157.8980  214.1120  147.7180 C   0  0  0  0  0  2  0  0  0  0  0  0
  157.2180  212.9790  148.4750 C   0  0  0  0  0  2  0  0  0  0  0  0
  156.3220  213.4970  149.4080 O   0  0  0  0  0  1  0  0  0  0  0  0
  159.8820  214.4190  144.6790 N   0  0  0  0  0  2  0  0  0  0  0  0
  161.3170  213.5130  142.9510 C   0  0  0  0  0  1  0  0  0  0  0  0
  159.8980  213.6270  143.4640 C   0  0  0  0  0  2  0  0  0  0  0  0
  1  6  1  0  0  0  0
  1 12  1  0  0  0  0
  2  6  2  0  0  0  0
  3  7  2  0  0  0  0
  3  2  1  0  0  0  0
  4  1  2  0  0  0  0
  5  7  1  0  0  0  0
  7  4  1  0  0  0  0
  8 30  1  6  0  0  0
  8  9  1  0  0  0  0
  8  5  1  0  0  0  0
  9  5  1  0  0  0  0
 10 16  1  0  0  0  0
 12 13  2  0  0  0  0
 13 17  1  0  0  0  0
 15 10  1  1  0  0  0
 15 12  1  0  0  0  0
 15 18  1  0  0  0  0
 16 11  2  0  0  0  0
 17 14  1  0  0  0  0
 18 11  1  1  0  0  0
 18 17  1  0  0  0  0
 18 14  1  0  0  0  0
 19  3  1  0  0  0  0
 20 25  1  0  0  0  0
 20 23  1  0  0  0  0
 21 22  1  0  0  0  0
 23 24  1  0  0  0  0
 24 22  1  0  0  0  0
 24 19  1  0  0  0  0
 25 21  1  0  0  0  0
 27 29  2  0  0  0  0
 28 29  2  0  0  0  0
 29 26  1  0  0  0  0
 29 25  1  0  0  0  0
 31 30  1  0  0  0  0
 32 31  1  0  0  0  0
 33 39  1  6  0  0  0
 33 35  1  0  0  0  0
 33 32  1  0  0  0  0
 35 34  1  1  0  0  0
 35 36  1  0  0  0  0
 36 37  1  0  0  0  0
 37 38  1  0  0  0  0
 40 41  1  0  0  0  0
 41 39  1  0  0  0  0
M  END
>  <MODEL>
8

>  <REMARK>
 VINA RESULT:      -5.1      3.984      5.559
  Name = 
  13 active torsions:
  status: ('A' for Active; 'I' for Inactive)
    1  A    between atoms: O_2  and  C_11
    2  A    between atoms: O_2  and  C_35
    3  A    between atoms: C_3  and  N_21
    4  A    between atoms: C_3  and  O_23
    5  A    between atoms: C_3  and  C_27
    6  A    between atoms: C_5  and  C_6
    7  A    between atoms: C_14  and  C_19
    8  A    between atoms: C_15  and  O_23
    9  A    between atoms: C_15  and  C_37
   10  A    between atoms: C_19  and  C_27
   11  A    between atoms: N_21  and  C_30
   12  A    between atoms: S_34  and  N_40
   13  A    between atoms: C_37  and  C_38
                            x       y       z     vdW  Elec       q    Type
                         _______ _______ _______ _____ _____    ______ ____

>  <TORSDO>
F 13

$$$$
=
 OpenBabel11052411233D

 41 46  0  0  1  0  0  0  0  0999 V2000
  161.1960  204.8820  150.3430 C   0  0  0  0  0  0  0  0  0  0  0  0
  161.9740  206.9230  149.4350 C   0  0  0  0  0  3  0  0  0  0  0  0
  161.8480  207.5440  150.6830 C   0  0  0  0  0  0  0  0  0  0  0  0
  161.0690  205.4670  151.5640 N   0  0  0  0  0  0  0  0  0  0  0  0
  161.2280  207.3610  153.0430 N   0  0  0  0  0  0  0  0  0  0  0  0
  161.6510  205.6140  149.2890 N   0  0  0  0  0  0  0  0  0  0  0  0
  161.3850  206.7750  151.7540 C   0  0  0  0  0  0  0  0  0  0  0  0
  161.2960  208.5170  153.9830 C   0  0  2  0  0  3  0  0  0  0  0  0
  160.8250  207.3200  154.4790 C   0  0  0  0  0  2  0  0  0  0  0  0
  161.2590  202.8880  147.8420 C   0  0  0  0  0  2  0  0  0  0  0  0
  161.0660  200.6230  148.2150 N   0  0  0  0  0  0  0  0  0  0  0  0
  160.8500  203.4620  150.1670 C   0  0  0  0  0  0  0  0  0  0  0  0
  161.0330  202.5260  151.1080 C   0  0  0  0  0  3  0  0  0  0  0  0
  159.3950  200.7060  149.9230 N   0  0  0  0  0  2  0  0  0  0  0  0
  160.4100  202.8310  148.8660 C   0  0  2  0  0  3  0  0  0  0  0  0
  161.6390  201.5130  147.4660 C   0  0  0  0  0  3  0  0  0  0  0  0
  160.5730  201.3990  150.4240 N   0  0  0  0  0  0  0  0  0  0  0  0
  160.1570  201.3730  149.0460 C   0  0  2  0  0  0  0  0  0  0  0  0
  162.1630  208.8950  150.8730 O   0  0  0  0  0  0  0  0  0  0  0  0
  161.6000  212.4110  149.7140 C   0  0  0  0  0  2  0  0  0  0  0  0
  161.4430  210.9660  147.8300 C   0  0  0  0  0  2  0  0  0  0  0  0
  161.9580  209.7690  148.6250 C   0  0  0  0  0  2  0  0  0  0  0  0
  162.1180  211.2860  150.6090 C   0  0  0  0  0  2  0  0  0  0  0  0
  161.5970  209.9460  150.0990 C   0  0  0  0  0  3  0  0  0  0  0  0
  162.0470  212.1990  148.3370 N   0  0  0  0  0  0  0  0  0  0  0  0
  160.5910  212.9140  145.9360 C   0  0  0  0  0  1  0  0  0  0  0  0
  160.5010  214.3460  148.2020 O   0  0  0  0  0  0  0  0  0  0  0  0
  162.5970  214.3800  146.9400 O   0  0  0  0  0  0  0  0  0  0  0  0
  161.4470  213.5170  147.3780 S   0  0  0  0  0  0  0  0  0  0  0  0
  160.1470  209.4550  153.6700 C   0  0  0  0  0  2  0  0  0  0  0  0
  160.2120  210.6910  154.5510 C   0  0  0  0  0  2  0  0  0  0  0  0
  159.8790  211.8380  153.8090 O   0  0  0  0  0  0  0  0  0  0  0  0
  158.9970  212.6470  154.5640 C   0  0  1  0  0  3  0  0  0  0  0  0
  158.9780  213.9350  152.4990 O   0  0  0  0  0  1  0  0  0  0  0  0
  158.3570  213.7780  153.7420 C   0  0  1  0  0  3  0  0  0  0  0  0
  156.8460  213.6020  153.5900 C   0  0  0  0  0  2  0  0  0  0  0  0
  156.2540  214.4190  152.4490 C   0  0  0  0  0  2  0  0  0  0  0  0
  154.9160  214.0750  152.2590 O   0  0  0  0  0  1  0  0  0  0  0  0
  158.0130  211.8590  155.3040 N   0  0  0  0  0  2  0  0  0  0  0  0
  156.5460  211.9380  157.2300 C   0  0  0  0  0  1  0  0  0  0  0  0
  157.7320  212.5720  156.5350 C   0  0  0  0  0  2  0  0  0  0  0  0
  1  4  2  0  0  0  0
  2  3  1  0  0  0  0
  3 19  1  0  0  0  0
  3  7  2  0  0  0  0
  4  7  1  0  0  0  0
  5  8  1  0  0  0  0
  5  9  1  0  0  0  0
  6  2  2  0  0  0  0
  6  1  1  0  0  0  0
  7  5  1  0  0  0  0
  8 30  1  6  0  0  0
  8  9  1  0  0  0  0
 12  1  1  0  0  0  0
 12 13  2  0  0  0  0
 14 17  1  0  0  0  0
 15 10  1  6  0  0  0
 15 18  1  0  0  0  0
 15 12  1  0  0  0  0
 16 10  1  0  0  0  0
 16 11  2  0  0  0  0
 17 13  1  0  0  0  0
 18 11  1  6  0  0  0
 18 14  1  0  0  0  0
 18 17  1  0  0  0  0
 20 23  1  0  0  0  0
 21 25  1  0  0  0  0
 21 22  1  0  0  0  0
 22 24  1  0  0  0  0
 24 23  1  0  0  0  0
 24 19  1  0  0  0  0
 25 20  1  0  0  0  0
 26 29  1  0  0  0  0
 28 29  2  0  0  0  0
 29 27  2  0  0  0  0
 29 25  1  0  0  0  0
 30 31  1  0  0  0  0
 32 31  1  0  0  0  0
 33 32  1  6  0  0  0
 33 39  1  0  0  0  0
 35 34  1  6  0  0  0
 35 33  1  0  0  0  0
 36 35  1  0  0  0  0
 37 36  1  0  0  0  0
 38 37  1  0  0  0  0
 39 41  1  0  0  0  0
 41 40  1  0  0  0  0
M  END
>  <MODEL>
9

>  <REMARK>
 VINA RESULT:      -5.1      3.931     10.446
  Name = 
  13 active torsions:
  status: ('A' for Active; 'I' for Inactive)
    1  A    between atoms: O_2  and  C_11
    2  A    between atoms: O_2  and  C_35
    3  A    between atoms: C_3  and  N_21
    4  A    between atoms: C_3  and  O_23
    5  A    between atoms: C_3  and  C_27
    6  A    between atoms: C_5  and  C_6
    7  A    between atoms: C_14  and  C_19
    8  A    between atoms: C_15  and  O_23
    9  A    between atoms: C_15  and  C_37
   10  A    between atoms: C_19  and  C_27
   11  A    between atoms: N_21  and  C_30
   12  A    between atoms: S_34  and  N_40
   13  A    between atoms: C_37  and  C_38
                            x       y       z     vdW  Elec       q    Type
                         _______ _______ _______ _____ _____    ______ ____

>  <TORSDO>
F 13

$$$$
