=
 OpenBabel11042422503D

 38 43  0  0  1  0  0  0  0  0999 V2000
  160.4290  209.7920  154.0970 C   0  0  0  0  0  0  0  0  0  0  0  0
  159.1500  210.3190  156.2350 C   0  0  0  0  0  0  0  0  0  0  0  0
  160.9020  210.2590  152.9670 N   0  0  0  0  0  0  0  0  0  0  0  0
  159.7190  209.5030  157.1370 C   0  0  0  0  0  3  0  0  0  0  0  0
  162.3730  207.0440  149.9440 N   0  0  0  0  0  2  0  0  0  0  0  0
  161.3920  208.2390  155.7760 C   0  0  0  0  0  3  0  0  0  0  0  0
  161.6660  206.2780  153.4290 C   0  0  0  0  0  3  0  0  0  0  0  0
  161.6370  208.1410  152.1520 C   0  0  0  0  0  0  0  0  0  0  0  0
  159.6870  210.6710  154.9570 N   0  0  0  0  0  0  0  0  0  0  0  0
  162.2620  205.9700  152.1120 C   0  0  0  0  0  3  0  0  0  0  0  0
  160.6140  208.3380  154.5010 C   0  0  2  0  0  3  0  0  0  0  0  0
  159.6980  213.0180  154.2970 C   0  0  0  0  0  1  0  0  0  0  0  0
  157.8120  211.9300  155.4930 C   0  0  0  0  0  0  0  0  0  0  0  0
  160.9610  208.7300  156.9410 C   0  0  0  0  0  3  0  0  0  0  0  0
  162.3210  209.7290  148.6000 C   0  0  0  0  0  2  0  0  0  0  0  0
  156.6750  212.8800  155.3830 C   0  0  0  0  0  1  0  0  0  0  0  0
  161.2530  207.4960  149.1230 C   0  0  1  0  0  3  0  0  0  0  0  0
  157.9740  211.1130  156.5260 C   0  0  0  0  0  3  0  0  0  0  0  0
  162.3160  210.1490  150.8770 C   0  0  0  0  0  2  0  0  0  0  0  0
  161.2720  207.5470  153.4060 C   0  0  0  0  0  0  0  0  0  0  0  0
  162.2580  207.0760  151.3720 C   0  0  0  0  0  0  0  0  0  0  0  0
  161.4980  210.2560  149.6830 N   0  0  0  0  0  2  0  0  0  0  0  0
  161.5790  209.4630  151.9790 C   0  0  0  0  0  0  0  0  0  0  0  0
  158.8650  211.7530  154.4370 C   0  0  2  0  0  3  0  0  0  0  0  0
  161.7200  208.4510  148.0320 C   0  0  0  0  0  2  0  0  0  0  0  0
  160.5550  206.3060  148.4780 C   0  0  0  0  0  2  0  0  0  0  0  0
  160.8090  206.3300  146.6720 S   0  0  0  0  0  0  0  0  0  0  0  0
  162.0900  205.0330  146.7140 C   0  0  0  0  0  2  0  0  0  0  0  0
  160.6320  201.7810  147.9800 N   0  0  0  0  0  0  0  0  0  0  0  0
  161.0950  202.4420  150.0340 C   0  0  0  0  0  0  0  0  0  0  0  0
  161.5380  203.4070  149.1500 C   0  0  0  0  0  3  0  0  0  0  0  0
  160.5290  201.4300  149.2780 C   0  0  0  0  0  3  0  0  0  0  0  0
  161.4820  203.6630  146.6890 C   0  0  0  0  0  0  0  0  0  0  0  0
  161.2350  202.9590  147.9140 N   0  0  0  0  0  0  0  0  0  0  0  0
  161.1800  203.1330  145.5820 O   0  0  0  0  0  0  0  0  0  0  0  0
  161.2020  202.4820  151.5000 C   0  0  0  0  0  0  0  0  0  0  0  0
  160.2520  203.1650  152.2550 O   0  0  0  0  0  1  0  0  0  0  0  0
  162.1420  201.8780  152.0810 O   0  0  0  0  0  0  0  0  0  0  0  0
  1 11  1  0  0  0  0
  1  9  1  0  0  0  0
  2 18  1  0  0  0  0
  2  4  2  0  0  0  0
  3  1  2  0  0  0  0
  5 21  1  0  0  0  0
  6 14  2  0  0  0  0
  8 20  1  0  0  0  0
  9  2  1  0  0  0  0
 10  7  1  0  0  0  0
 11  6  1  1  0  0  0
 13 18  2  0  0  0  0
 14  4  1  0  0  0  0
 15 22  1  0  0  0  0
 16 13  1  0  0  0  0
 17 26  1  6  0  0  0
 17  5  1  0  0  0  0
 19 23  1  0  0  0  0
 20  7  2  0  0  0  0
 20 11  1  0  0  0  0
 21 10  2  0  0  0  0
 21  8  1  0  0  0  0
 22 19  1  0  0  0  0
 23  8  2  0  0  0  0
 23  3  1  0  0  0  0
 24 12  1  1  0  0  0
 24  9  1  0  0  0  0
 24 13  1  0  0  0  0
 25 15  1  0  0  0  0
 25 17  1  0  0  0  0
 27 28  1  0  0  0  0
 27 26  1  0  0  0  0
 29 32  2  0  0  0  0
 30 36  1  0  0  0  0
 31 30  2  0  0  0  0
 32 30  1  0  0  0  0
 33 28  1  0  0  0  0
 33 34  1  0  0  0  0
 34 29  1  0  0  0  0
 34 31  1  0  0  0  0
 35 33  2  0  0  0  0
 36 38  2  0  0  0  0
 36 37  1  0  0  0  0
M  END
>  <MODEL>
1

>  <REMARK>
 VINA RESULT:      -8.7      0.000      0.000
  Name = 
  5 active torsions:
  status: ('A' for Active; 'I' for Inactive)
    1  A    between atoms: C_6  and  C_16
    2  A    between atoms: C_9  and  C_25
    3  A    between atoms: C_25  and  S_28
    4  A    between atoms: C_27  and  C_34
    5  A    between atoms: S_28  and  C_34
                            x       y       z     vdW  Elec       q    Type
                         _______ _______ _______ _____ _____    ______ ____

>  <TORSDO>
F 5

$$$$
=
 OpenBabel11042422503D

 38 43  0  0  1  0  0  0  0  0999 V2000
  160.2700  210.7980  153.0290 C   0  0  0  0  0  0  0  0  0  0  0  0
  159.0340  212.6240  154.3030 C   0  0  0  0  0  0  0  0  0  0  0  0
  160.8280  210.4460  151.8960 N   0  0  0  0  0  0  0  0  0  0  0  0
  159.4630  212.4570  155.5630 C   0  0  0  0  0  3  0  0  0  0  0  0
  161.8930  205.9340  151.5170 N   0  0  0  0  0  2  0  0  0  0  0  0
  160.9670  210.4690  155.3870 C   0  0  0  0  0  3  0  0  0  0  0  0
  161.0100  207.4790  154.6900 C   0  0  0  0  0  3  0  0  0  0  0  0
  161.2720  208.2000  152.5660 C   0  0  0  0  0  0  0  0  0  0  0  0
  159.6430  212.0850  153.1250 N   0  0  0  0  0  0  0  0  0  0  0  0
  161.5840  206.3860  153.8770 C   0  0  0  0  0  3  0  0  0  0  0  0
  160.2380  209.8640  154.2280 C   0  0  2  0  0  3  0  0  0  0  0  0
  160.0000  213.5570  151.2140 C   0  0  0  0  0  1  0  0  0  0  0  0
  157.9540  213.5970  152.6220 C   0  0  0  0  0  0  0  0  0  0  0  0
  160.5860  211.5990  155.9880 C   0  0  0  0  0  3  0  0  0  0  0  0
  162.2500  207.2710  148.8520 C   0  0  0  0  0  2  0  0  0  0  0  0
  156.9650  214.4020  151.8580 C   0  0  0  0  0  1  0  0  0  0  0  0
  160.8650  205.9150  150.4790 C   0  0  1  0  0  3  0  0  0  0  0  0
  157.9760  213.5490  153.9480 C   0  0  0  0  0  3  0  0  0  0  0  0
  162.2570  208.9670  150.4290 C   0  0  0  0  0  2  0  0  0  0  0  0
  160.8010  208.5140  153.8840 C   0  0  0  0  0  0  0  0  0  0  0  0
  161.7530  206.8240  152.6310 C   0  0  0  0  0  0  0  0  0  0  0  0
  161.4870  208.4210  149.3260 N   0  0  0  0  0  2  0  0  0  0  0  0
  161.4060  209.1540  151.6420 C   0  0  0  0  0  0  0  0  0  0  0  0
  158.9930  212.7190  151.9860 C   0  0  2  0  0  3  0  0  0  0  0  0
  161.4860  205.9750  149.0890 C   0  0  0  0  0  2  0  0  0  0  0  0
  160.0200  204.6540  150.5920 C   0  0  0  0  0  2  0  0  0  0  0  0
  160.7360  203.5250  151.8320 S   0  0  0  0  0  0  0  0  0  0  0  0
  161.8330  202.7050  150.6280 C   0  0  0  0  0  2  0  0  0  0  0  0
  160.4700  201.6300  147.2690 N   0  0  0  0  0  0  0  0  0  0  0  0
  161.5230  203.3440  146.3590 C   0  0  0  0  0  0  0  0  0  0  0  0
  161.7340  203.3710  147.7250 C   0  0  0  0  0  3  0  0  0  0  0  0
  160.7280  202.2420  146.0940 C   0  0  0  0  0  3  0  0  0  0  0  0
  161.0490  201.9280  149.6150 C   0  0  0  0  0  0  0  0  0  0  0  0
  161.0730  202.3090  148.2330 N   0  0  0  0  0  0  0  0  0  0  0  0
  160.3700  200.9260  149.9840 O   0  0  0  0  0  0  0  0  0  0  0  0
  162.0460  204.3010  145.3740 C   0  0  0  0  0  0  0  0  0  0  0  0
  161.2610  204.6970  144.2940 O   0  0  0  0  0  0  0  0  0  0  0  0
  163.2010  204.7850  145.5150 O   0  0  0  0  0  1  0  0  0  0  0  0
  1  9  1  0  0  0  0
  1 11  1  0  0  0  0
  2  4  2  0  0  0  0
  3  1  2  0  0  0  0
  4 14  1  0  0  0  0
  5 21  1  0  0  0  0
  6 14  2  0  0  0  0
  8 21  1  0  0  0  0
  8 20  1  0  0  0  0
  9  2  1  0  0  0  0
 10  7  1  0  0  0  0
 11  6  1  1  0  0  0
 13 18  2  0  0  0  0
 15 25  1  0  0  0  0
 15 22  1  0  0  0  0
 16 13  1  0  0  0  0
 17 26  1  6  0  0  0
 17  5  1  0  0  0  0
 18  2  1  0  0  0  0
 19 23  1  0  0  0  0
 20 11  1  0  0  0  0
 20  7  2  0  0  0  0
 21 10  2  0  0  0  0
 22 19  1  0  0  0  0
 23  3  1  0  0  0  0
 23  8  2  0  0  0  0
 24 12  1  1  0  0  0
 24 13  1  0  0  0  0
 24  9  1  0  0  0  0
 25 17  1  0  0  0  0
 26 27  1  0  0  0  0
 28 27  1  0  0  0  0
 29 34  1  0  0  0  0
 30 31  2  0  0  0  0
 31 34  1  0  0  0  0
 32 30  1  0  0  0  0
 32 29  2  0  0  0  0
 33 35  2  0  0  0  0
 33 28  1  0  0  0  0
 34 33  1  0  0  0  0
 36 38  1  0  0  0  0
 36 30  1  0  0  0  0
 37 36  2  0  0  0  0
M  END
>  <MODEL>
2

>  <REMARK>
 VINA RESULT:      -8.7      1.950      3.358
  Name = 
  5 active torsions:
  status: ('A' for Active; 'I' for Inactive)
    1  A    between atoms: C_6  and  C_16
    2  A    between atoms: C_9  and  C_25
    3  A    between atoms: C_25  and  S_28
    4  A    between atoms: C_27  and  C_34
    5  A    between atoms: S_28  and  C_34
                            x       y       z     vdW  Elec       q    Type
                         _______ _______ _______ _____ _____    ______ ____

>  <TORSDO>
F 5

$$$$
=
 OpenBabel11042422503D

 38 43  0  0  1  0  0  0  0  0999 V2000
  161.5150  205.4650  149.8690 C   0  0  0  0  0  0  0  0  0  0  0  0
  161.2130  203.6410  148.1180 C   0  0  0  0  0  0  0  0  0  0  0  0
  161.6160  205.7450  151.1460 N   0  0  0  0  0  0  0  0  0  0  0  0
  161.9220  204.1020  147.0760 C   0  0  0  0  0  3  0  0  0  0  0  0
  161.3100  210.2570  152.2290 N   0  0  0  0  0  2  0  0  0  0  0  0
  162.7400  206.3200  147.8880 C   0  0  0  0  0  3  0  0  0  0  0  0
  161.7990  209.0900  148.8190 C   0  0  0  0  0  3  0  0  0  0  0  0
  161.6280  208.1110  150.8460 C   0  0  0  0  0  0  0  0  0  0  0  0
  161.3000  204.1030  149.4700 N   0  0  0  0  0  0  0  0  0  0  0  0
  161.8120  210.1370  149.8630 C   0  0  0  0  0  2  0  0  0  0  0  0
  161.5800  206.5510  148.8060 C   0  0  0  0  0  0  0  0  0  0  0  0
  161.4730  202.4590  151.2610 C   0  0  0  0  0  1  0  0  0  0  0  0
  159.9960  202.1920  149.2820 C   0  0  0  0  0  0  0  0  0  0  0  0
  162.8550  205.2460  147.1020 C   0  0  0  0  0  3  0  0  0  0  0  0
  161.2340  208.6200  154.7450 C   0  0  0  0  0  2  0  0  0  0  0  0
  159.0780  201.0740  149.6240 C   0  0  0  0  0  1  0  0  0  0  0  0
  160.0620  209.8780  152.8880 C   0  0  1  0  0  3  0  0  0  0  0  0
  160.3790  202.4590  148.0400 C   0  0  0  0  0  3  0  0  0  0  0  0
  162.1310  207.2470  153.1100 C   0  0  0  0  0  2  0  0  0  0  0  0
  161.6490  207.9180  149.4260 C   0  0  0  0  0  0  0  0  0  0  0  0
  161.7290  209.5510  151.0550 C   0  0  0  0  0  0  0  0  0  0  0  0
  160.9650  207.4210  153.9580 N   0  0  0  0  0  2  0  0  0  0  0  0
  161.7390  207.0740  151.6800 C   0  0  0  0  0  0  0  0  0  0  0  0
  160.5440  203.1650  150.2860 C   0  0  2  0  0  3  0  0  0  0  0  0
  160.2570  209.7330  154.3930 C   0  0  0  0  0  2  0  0  0  0  0  0
  158.9840  210.9200  152.6240 C   0  0  0  0  0  2  0  0  0  0  0  0
  158.7640  211.9840  154.0890 S   0  0  0  0  0  0  0  0  0  0  0  0
  159.1050  213.5230  153.1720 C   0  0  0  0  0  2  0  0  0  0  0  0
  157.9830  213.7060  149.5660 N   0  0  0  0  0  0  0  0  0  0  0  0
  160.0990  213.5470  148.9600 C   0  0  0  0  0  0  0  0  0  0  0  0
  160.0350  213.5600  150.3410 C   0  0  0  0  0  3  0  0  0  0  0  0
  158.7990  213.6390  148.4940 C   0  0  0  0  0  3  0  0  0  0  0  0
  158.1950  213.6690  151.9910 C   0  0  0  0  0  0  0  0  0  0  0  0
  158.7280  213.6590  150.6600 N   0  0  0  0  0  0  0  0  0  0  0  0
  156.9500  213.7950  152.1740 O   0  0  0  0  0  0  0  0  0  0  0  0
  161.3160  213.4510  148.1410 C   0  0  0  0  0  0  0  0  0  0  0  0
  162.3310  214.3950  148.2770 O   0  0  0  0  0  1  0  0  0  0  0  0
  161.4560  212.4990  147.3280 O   0  0  0  0  0  0  0  0  0  0  0  0
  1  3  1  0  0  0  0
  2  9  1  0  0  0  0
  3 23  2  0  0  0  0
  4 14  1  0  0  0  0
  4  2  2  0  0  0  0
  5 17  1  0  0  0  0
  6 11  1  0  0  0  0
  7 20  2  0  0  0  0
  7 10  1  0  0  0  0
  8 21  2  0  0  0  0
  8 23  1  0  0  0  0
  9  1  1  0  0  0  0
  9 24  1  0  0  0  0
 10 21  1  0  0  0  0
 11 20  1  0  0  0  0
 11  1  2  0  0  0  0
 13 16  1  0  0  0  0
 13 24  1  0  0  0  0
 14  6  2  0  0  0  0
 17 26  1  1  0  0  0
 17 25  1  0  0  0  0
 18  2  1  0  0  0  0
 18 13  2  0  0  0  0
 19 22  1  0  0  0  0
 20  8  1  0  0  0  0
 21  5  1  0  0  0  0
 22 15  1  0  0  0  0
 23 19  1  0  0  0  0
 24 12  1  1  0  0  0
 25 15  1  0  0  0  0
 26 27  1  0  0  0  0
 28 27  1  0  0  0  0
 29 34  1  0  0  0  0
 30 31  2  0  0  0  0
 31 34  1  0  0  0  0
 32 30  1  0  0  0  0
 32 29  2  0  0  0  0
 33 35  2  0  0  0  0
 33 28  1  0  0  0  0
 34 33  1  0  0  0  0
 36 37  1  0  0  0  0
 36 30  1  0  0  0  0
 38 36  2  0  0  0  0
M  END
>  <MODEL>
3

>  <REMARK>
 VINA RESULT:      -8.6      4.043      9.153
  Name = 
  5 active torsions:
  status: ('A' for Active; 'I' for Inactive)
    1  A    between atoms: C_6  and  C_16
    2  A    between atoms: C_9  and  C_25
    3  A    between atoms: C_25  and  S_28
    4  A    between atoms: C_27  and  C_34
    5  A    between atoms: S_28  and  C_34
                            x       y       z     vdW  Elec       q    Type
                         _______ _______ _______ _____ _____    ______ ____

>  <TORSDO>
F 5

$$$$
=
 OpenBabel11042422503D

 38 43  0  0  1  0  0  0  0  0999 V2000
  159.2520  211.2780  154.1970 C   0  0  0  0  0  0  0  0  0  0  0  0
  157.5110  212.9160  155.0760 C   0  0  0  0  0  0  0  0  0  0  0  0
  160.0920  210.9940  153.2310 N   0  0  0  0  0  0  0  0  0  0  0  0
  157.6720  212.8430  156.4070 C   0  0  0  0  0  3  0  0  0  0  0  0
  161.8640  206.6950  153.3320 N   0  0  0  0  0  2  0  0  0  0  0  0
  159.4530  211.1080  156.6640 C   0  0  0  0  0  3  0  0  0  0  0  0
  160.0870  208.1480  156.1540 C   0  0  0  0  0  3  0  0  0  0  0  0
  160.7020  208.8580  154.1000 C   0  0  0  0  0  0  0  0  0  0  0  0
  158.4370  212.4550  154.0870 N   0  0  0  0  0  0  0  0  0  0  0  0
  160.9800  207.1410  155.5420 C   0  0  0  0  0  3  0  0  0  0  0  0
  159.0940  210.3750  155.4100 C   0  0  2  0  0  3  0  0  0  0  0  0
  158.9860  213.9250  152.2220 C   0  0  0  0  0  1  0  0  0  0  0  0
  156.6970  213.6760  153.1540 C   0  0  0  0  0  0  0  0  0  0  0  0
  158.7880  212.1780  157.1080 C   0  0  0  0  0  3  0  0  0  0  0  0
  162.5990  208.0170  150.7380 C   0  0  0  0  0  2  0  0  0  0  0  0
  155.7940  214.3030  152.1530 C   0  0  0  0  0  1  0  0  0  0  0  0
  161.1040  206.4970  152.1000 C   0  0  1  0  0  3  0  0  0  0  0  0
  156.4340  213.6590  154.4540 C   0  0  0  0  0  3  0  0  0  0  0  0
  162.0090  209.7250  152.1860 C   0  0  0  0  0  2  0  0  0  0  0  0
  159.9110  209.1220  155.2670 C   0  0  0  0  0  0  0  0  0  0  0  0
  161.3530  207.5750  154.3400 C   0  0  0  0  0  0  0  0  0  0  0  0
  161.5900  209.0450  150.9740 N   0  0  0  0  0  2  0  0  0  0  0  0
  160.8940  209.8020  153.1770 C   0  0  0  0  0  0  0  0  0  0  0  0
  157.9680  212.9570  152.8040 C   0  0  2  0  0  3  0  0  0  0  0  0
  162.0000  206.6240  150.8740 C   0  0  0  0  0  2  0  0  0  0  0  0
  160.4490  205.1220  152.0960 C   0  0  0  0  0  2  0  0  0  0  0  0
  161.6660  203.8450  151.6350 S   0  0  0  0  0  0  0  0  0  0  0  0
  160.4130  202.7470  150.8930 C   0  0  0  0  0  2  0  0  0  0  0  0
  161.5610  202.6480  147.2910 N   0  0  0  0  0  0  0  0  0  0  0  0
  161.1980  204.8220  147.1770 C   0  0  0  0  0  0  0  0  0  0  0  0
  160.8390  204.3810  148.4370 C   0  0  0  0  0  3  0  0  0  0  0  0
  161.6500  203.7180  146.4750 C   0  0  0  0  0  3  0  0  0  0  0  0
  160.8820  202.1880  149.5840 C   0  0  0  0  0  0  0  0  0  0  0  0
  161.0780  203.0520  148.4560 N   0  0  0  0  0  0  0  0  0  0  0  0
  161.1130  200.9500  149.4800 O   0  0  0  0  0  0  0  0  0  0  0  0
  161.1190  206.2030  146.6780 C   0  0  0  0  0  0  0  0  0  0  0  0
  160.3850  206.4940  145.5320 O   0  0  0  0  0  0  0  0  0  0  0  0
  161.6990  207.1330  147.3000 O   0  0  0  0  0  1  0  0  0  0  0  0
  1 11  1  0  0  0  0
  2  4  2  0  0  0  0
  3  1  2  0  0  0  0
  4 14  1  0  0  0  0
  5 21  1  0  0  0  0
  6 14  2  0  0  0  0
  8 21  1  0  0  0  0
  8 20  1  0  0  0  0
  9  1  1  0  0  0  0
  9  2  1  0  0  0  0
 10  7  1  0  0  0  0
 11  6  1  1  0  0  0
 13 18  2  0  0  0  0
 15 25  1  0  0  0  0
 15 22  1  0  0  0  0
 16 13  1  0  0  0  0
 17 26  1  1  0  0  0
 17  5  1  0  0  0  0
 18  2  1  0  0  0  0
 19 23  1  0  0  0  0
 20 11  1  0  0  0  0
 20  7  2  0  0  0  0
 21 10  2  0  0  0  0
 22 19  1  0  0  0  0
 23  3  1  0  0  0  0
 23  8  2  0  0  0  0
 24 12  1  1  0  0  0
 24 13  1  0  0  0  0
 24  9  1  0  0  0  0
 25 17  1  0  0  0  0
 27 26  1  0  0  0  0
 28 27  1  0  0  0  0
 29 34  1  0  0  0  0
 30 31  2  0  0  0  0
 31 34  1  0  0  0  0
 32 30  1  0  0  0  0
 32 29  2  0  0  0  0
 33 28  1  0  0  0  0
 34 33  1  0  0  0  0
 35 33  2  0  0  0  0
 36 30  1  0  0  0  0
 36 38  1  0  0  0  0
 37 36  2  0  0  0  0
M  END
>  <MODEL>
4

>  <REMARK>
 VINA RESULT:      -8.3      2.010      3.622
  Name = 
  5 active torsions:
  status: ('A' for Active; 'I' for Inactive)
    1  A    between atoms: C_6  and  C_16
    2  A    between atoms: C_9  and  C_25
    3  A    between atoms: C_25  and  S_28
    4  A    between atoms: C_27  and  C_34
    5  A    between atoms: S_28  and  C_34
                            x       y       z     vdW  Elec       q    Type
                         _______ _______ _______ _____ _____    ______ ____

>  <TORSDO>
F 5

$$$$
=
 OpenBabel11042422503D

 38 43  0  0  1  0  0  0  0  0999 V2000
  161.5020  205.2480  149.7970 C   0  0  0  0  0  0  0  0  0  0  0  0
  161.1390  203.5020  147.9780 C   0  0  0  0  0  0  0  0  0  0  0  0
  161.6130  205.4750  151.0830 N   0  0  0  0  0  0  0  0  0  0  0  0
  161.8630  203.9790  146.9530 C   0  0  0  0  0  3  0  0  0  0  0  0
  161.4580  209.9510  152.3380 N   0  0  0  0  0  2  0  0  0  0  0  0
  162.7540  206.1360  147.8480 C   0  0  0  0  0  3  0  0  0  0  0  0
  161.9080  208.8980  148.8850 C   0  0  0  0  0  3  0  0  0  0  0  0
  161.7040  207.8490  150.8740 C   0  0  0  0  0  0  0  0  0  0  0  0
  161.2410  203.9100  149.3460 N   0  0  0  0  0  0  0  0  0  0  0  0
  161.9560  209.9030  149.9680 C   0  0  0  0  0  2  0  0  0  0  0  0
  161.6040  206.3700  148.7760 C   0  0  0  0  0  0  0  0  0  0  0  0
  161.3600  202.1930  151.0730 C   0  0  0  0  0  1  0  0  0  0  0  0
  159.8740  202.0520  149.0880 C   0  0  0  0  0  0  0  0  0  0  0  0
  162.8330  205.0890  147.0220 C   0  0  0  0  0  3  0  0  0  0  0  0
  161.3280  208.2220  154.7900 C   0  0  0  0  0  2  0  0  0  0  0  0
  158.9190  200.9530  149.3880 C   0  0  0  0  0  1  0  0  0  0  0  0
  160.1990  209.5880  152.9840 C   0  0  1  0  0  3  0  0  0  0  0  0
  160.2660  202.3530  147.8560 C   0  0  0  0  0  3  0  0  0  0  0  0
  162.1780  206.8830  153.1030 C   0  0  0  0  0  2  0  0  0  0  0  0
  161.7180  207.7100  149.4470 C   0  0  0  0  0  0  0  0  0  0  0  0
  161.8530  209.2760  151.1370 C   0  0  0  0  0  0  0  0  0  0  0  0
  161.0190  207.0640  153.9580 N   0  0  0  0  0  2  0  0  0  0  0  0
  161.7800  206.7780  151.6670 C   0  0  0  0  0  0  0  0  0  0  0  0
  160.4550  202.9670  150.1280 C   0  0  2  0  0  3  0  0  0  0  0  0
  160.3890  209.3800  154.4810 C   0  0  0  0  0  2  0  0  0  0  0  0
  159.1560  210.6750  152.7610 C   0  0  0  0  0  2  0  0  0  0  0  0
  159.7050  212.2400  153.5210 S   0  0  0  0  0  0  0  0  0  0  0  0
  159.6760  213.1550  151.9440 C   0  0  0  0  0  2  0  0  0  0  0  0
  156.6300  214.2990  150.0180 N   0  0  0  0  0  0  0  0  0  0  0  0
  157.6820  213.7640  148.1520 C   0  0  0  0  0  0  0  0  0  0  0  0
  158.5270  213.5220  149.2190 C   0  0  0  0  0  3  0  0  0  0  0  0
  156.4970  214.2500  148.6760 C   0  0  0  0  0  3  0  0  0  0  0  0
  158.3240  213.7400  151.6760 C   0  0  0  0  0  0  0  0  0  0  0  0
  157.8420  213.8640  150.3310 N   0  0  0  0  0  0  0  0  0  0  0  0
  157.6030  214.1200  152.6440 O   0  0  0  0  0  0  0  0  0  0  0  0
  157.9840  213.5440  146.7300 C   0  0  0  0  0  0  0  0  0  0  0  0
  156.9890  213.6990  145.7690 O   0  0  0  0  0  0  0  0  0  0  0  0
  159.1530  213.2360  146.3730 O   0  0  0  0  0  1  0  0  0  0  0  0
  1  3  1  0  0  0  0
  2  9  1  0  0  0  0
  3 23  2  0  0  0  0
  4 14  1  0  0  0  0
  4  2  2  0  0  0  0
  5 17  1  0  0  0  0
  6 11  1  0  0  0  0
  7 20  2  0  0  0  0
  7 10  1  0  0  0  0
  8 21  2  0  0  0  0
  8 23  1  0  0  0  0
  9  1  1  0  0  0  0
  9 24  1  0  0  0  0
 10 21  1  0  0  0  0
 11 20  1  0  0  0  0
 11  1  2  0  0  0  0
 13 16  1  0  0  0  0
 13 24  1  0  0  0  0
 14  6  2  0  0  0  0
 17 26  1  1  0  0  0
 17 25  1  0  0  0  0
 18  2  1  0  0  0  0
 18 13  2  0  0  0  0
 19 22  1  0  0  0  0
 20  8  1  0  0  0  0
 21  5  1  0  0  0  0
 22 15  1  0  0  0  0
 23 19  1  0  0  0  0
 24 12  1  1  0  0  0
 25 15  1  0  0  0  0
 26 27  1  0  0  0  0
 28 27  1  0  0  0  0
 29 34  1  0  0  0  0
 30 32  1  0  0  0  0
 30 31  2  0  0  0  0
 31 34  1  0  0  0  0
 32 29  2  0  0  0  0
 33 28  1  0  0  0  0
 33 35  2  0  0  0  0
 34 33  1  0  0  0  0
 36 30  1  0  0  0  0
 37 36  2  0  0  0  0
 38 36  1  0  0  0  0
M  END
>  <MODEL>
5

>  <REMARK>
 VINA RESULT:      -8.0      4.361      9.405
  Name = 
  5 active torsions:
  status: ('A' for Active; 'I' for Inactive)
    1  A    between atoms: C_6  and  C_16
    2  A    between atoms: C_9  and  C_25
    3  A    between atoms: C_25  and  S_28
    4  A    between atoms: C_27  and  C_34
    5  A    between atoms: S_28  and  C_34
                            x       y       z     vdW  Elec       q    Type
                         _______ _______ _______ _____ _____    ______ ____

>  <TORSDO>
F 5

$$$$
=
 OpenBabel11042422503D

 38 43  0  0  1  0  0  0  0  0999 V2000
  159.6860  210.6980  153.6910 C   0  0  0  0  0  0  0  0  0  0  0  0
  158.0910  211.8660  155.2960 C   0  0  0  0  0  0  0  0  0  0  0  0
  160.3060  210.7530  152.5370 N   0  0  0  0  0  0  0  0  0  0  0  0
  158.5460  211.4900  156.5010 C   0  0  0  0  0  3  0  0  0  0  0  0
  162.3020  206.7860  151.1550 N   0  0  0  0  0  2  0  0  0  0  0  0
  160.4370  209.9570  155.9360 C   0  0  0  0  0  3  0  0  0  0  0  0
  161.1130  207.3000  154.5540 C   0  0  0  0  0  3  0  0  0  0  0  0
  161.2160  208.5530  152.6780 C   0  0  0  0  0  0  0  0  0  0  0  0
  158.8000  211.7660  154.0570 N   0  0  0  0  0  0  0  0  0  0  0  0
  161.9050  206.5790  153.5350 C   0  0  0  0  0  3  0  0  0  0  0  0
  159.8530  209.5150  154.6320 C   0  0  2  0  0  3  0  0  0  0  0  0
  158.8370  213.6980  152.5700 C   0  0  0  0  0  1  0  0  0  0  0  0
  156.8290  212.9740  153.8410 C   0  0  0  0  0  0  0  0  0  0  0  0
  159.8260  210.8050  156.7680 C   0  0  0  0  0  3  0  0  0  0  0  0
  162.3680  208.7730  148.9040 C   0  0  0  0  0  2  0  0  0  0  0  0
  155.6920  213.7190  153.2390 C   0  0  0  0  0  1  0  0  0  0  0  0
  161.3020  206.8090  150.0910 C   0  0  1  0  0  3  0  0  0  0  0  0
  156.8610  212.6110  155.1170 C   0  0  0  0  0  3  0  0  0  0  0  0
  162.0150  210.0000  150.8360 C   0  0  0  0  0  2  0  0  0  0  0  0
  160.6890  208.4340  154.0060 C   0  0  0  0  0  0  0  0  0  0  0  0
  161.9770  207.3310  152.4390 C   0  0  0  0  0  0  0  0  0  0  0  0
  161.3780  209.5920  149.5970 N   0  0  0  0  0  2  0  0  0  0  0  0
  161.1440  209.7080  152.0140 C   0  0  0  0  0  0  0  0  0  0  0  0
  158.0310  212.5090  153.0690 C   0  0  2  0  0  3  0  0  0  0  0  0
  161.8960  207.3300  148.7880 C   0  0  0  0  0  2  0  0  0  0  0  0
  160.7430  205.4120  149.8580 C   0  0  0  0  0  2  0  0  0  0  0  0
  161.3780  204.2610  151.1220 S   0  0  0  0  0  0  0  0  0  0  0  0
  160.1620  202.9620  150.7240 C   0  0  0  0  0  2  0  0  0  0  0  0
  161.5810  200.3570  148.3780 N   0  0  0  0  0  0  0  0  0  0  0  0
  160.7870  201.5330  146.6870 C   0  0  0  0  0  0  0  0  0  0  0  0
  160.4310  202.1600  147.8660 C   0  0  0  0  0  3  0  0  0  0  0  0
  161.5100  200.4040  147.0310 C   0  0  0  0  0  3  0  0  0  0  0  0
  160.8360  201.7050  150.2640 C   0  0  0  0  0  0  0  0  0  0  0  0
  160.9360  201.4060  148.8650 N   0  0  0  0  0  0  0  0  0  0  0  0
  161.3240  200.9090  151.1170 O   0  0  0  0  0  0  0  0  0  0  0  0
  160.4640  201.9810  145.3250 C   0  0  0  0  0  0  0  0  0  0  0  0
  160.8500  203.2470  144.8910 O   0  0  0  0  0  1  0  0  0  0  0  0
  159.8550  201.2110  144.5350 O   0  0  0  0  0  0  0  0  0  0  0  0
  1  9  1  0  0  0  0
  1 11  1  0  0  0  0
  2  4  2  0  0  0  0
  3  1  2  0  0  0  0
  4 14  1  0  0  0  0
  5 21  1  0  0  0  0
  6 14  2  0  0  0  0
  8 20  1  0  0  0  0
  9  2  1  0  0  0  0
 10  7  1  0  0  0  0
 11  6  1  1  0  0  0
 13 18  2  0  0  0  0
 15 22  1  0  0  0  0
 16 13  1  0  0  0  0
 17 26  1  6  0  0  0
 17  5  1  0  0  0  0
 18  2  1  0  0  0  0
 19 23  1  0  0  0  0
 20  7  2  0  0  0  0
 20 11  1  0  0  0  0
 21  8  1  0  0  0  0
 21 10  2  0  0  0  0
 22 19  1  0  0  0  0
 23  3  1  0  0  0  0
 23  8  2  0  0  0  0
 24 12  1  1  0  0  0
 24 13  1  0  0  0  0
 24  9  1  0  0  0  0
 25 15  1  0  0  0  0
 25 17  1  0  0  0  0
 26 27  1  0  0  0  0
 28 27  1  0  0  0  0
 29 34  1  0  0  0  0
 30 32  1  0  0  0  0
 30 31  2  0  0  0  0
 31 34  1  0  0  0  0
 32 29  2  0  0  0  0
 33 28  1  0  0  0  0
 33 35  2  0  0  0  0
 34 33  1  0  0  0  0
 36 30  1  0  0  0  0
 37 36  1  0  0  0  0
 38 36  2  0  0  0  0
M  END
>  <MODEL>
6

>  <REMARK>
 VINA RESULT:      -7.9      1.602      3.060
  Name = 
  5 active torsions:
  status: ('A' for Active; 'I' for Inactive)
    1  A    between atoms: C_6  and  C_16
    2  A    between atoms: C_9  and  C_25
    3  A    between atoms: C_25  and  S_28
    4  A    between atoms: C_27  and  C_34
    5  A    between atoms: S_28  and  C_34
                            x       y       z     vdW  Elec       q    Type
                         _______ _______ _______ _____ _____    ______ ____

>  <TORSDO>
F 5

$$$$
=
 OpenBabel11042422503D

 38 43  0  0  1  0  0  0  0  0999 V2000
  158.8160  211.6940  154.3080 C   0  0  0  0  0  0  0  0  0  0  0  0
  156.9290  213.1920  155.1340 C   0  0  0  0  0  0  0  0  0  0  0  0
  159.7010  211.4750  153.3650 N   0  0  0  0  0  0  0  0  0  0  0  0
  157.0600  213.1340  156.4690 C   0  0  0  0  0  3  0  0  0  0  0  0
  161.8030  207.3300  153.5310 N   0  0  0  0  0  2  0  0  0  0  0  0
  158.9650  211.5470  156.7800 C   0  0  0  0  0  3  0  0  0  0  0  0
  159.8440  208.6450  156.2990 C   0  0  0  0  0  3  0  0  0  0  0  0
  160.4540  209.3960  154.2590 C   0  0  0  0  0  0  0  0  0  0  0  0
  157.9140  212.8020  154.1710 N   0  0  0  0  0  0  0  0  0  0  0  0
  160.8290  207.7100  155.7160 C   0  0  0  0  0  3  0  0  0  0  0  0
  158.6980  210.7840  155.5200 C   0  0  2  0  0  3  0  0  0  0  0  0
  158.3940  214.3070  152.3140 C   0  0  0  0  0  1  0  0  0  0  0  0
  156.1080  213.8810  153.1880 C   0  0  0  0  0  0  0  0  0  0  0  0
  158.2060  212.5620  157.2020 C   0  0  0  0  0  3  0  0  0  0  0  0
  162.5000  208.7000  150.9510 C   0  0  0  0  0  2  0  0  0  0  0  0
  155.1850  214.4320  152.1610 C   0  0  0  0  0  1  0  0  0  0  0  0
  161.0940  207.0690  152.2800 C   0  0  1  0  0  3  0  0  0  0  0  0
  155.8130  213.8450  154.4810 C   0  0  0  0  0  3  0  0  0  0  0  0
  161.7390  210.3590  152.3760 C   0  0  0  0  0  2  0  0  0  0  0  0
  159.6150  209.5990  155.4040 C   0  0  0  0  0  0  0  0  0  0  0  0
  161.1980  208.1690  154.5220 C   0  0  0  0  0  0  0  0  0  0  0  0
  161.4070  209.6450  151.1570 N   0  0  0  0  0  2  0  0  0  0  0  0
  160.5960  210.3500  153.3370 C   0  0  0  0  0  0  0  0  0  0  0  0
  157.4410  213.2630  152.8740 C   0  0  2  0  0  3  0  0  0  0  0  0
  162.0090  207.2640  151.0780 C   0  0  0  0  0  2  0  0  0  0  0  0
  160.5500  205.6470  152.2660 C   0  0  0  0  0  2  0  0  0  0  0  0
  161.7460  204.5230  151.4710 S   0  0  0  0  0  0  0  0  0  0  0  0
  160.4510  203.4640  150.7440 C   0  0  0  0  0  2  0  0  0  0  0  0
  161.5260  200.5070  148.6480 N   0  0  0  0  0  0  0  0  0  0  0  0
  160.7910  201.5790  146.8640 C   0  0  0  0  0  0  0  0  0  0  0  0
  160.5390  202.3540  147.9800 C   0  0  0  0  0  3  0  0  0  0  0  0
  161.4130  200.4240  147.3070 C   0  0  0  0  0  3  0  0  0  0  0  0
  160.9830  202.1060  150.4020 C   0  0  0  0  0  0  0  0  0  0  0  0
  161.0040  201.6590  149.0390 N   0  0  0  0  0  0  0  0  0  0  0  0
  161.4210  201.3570  151.3210 O   0  0  0  0  0  0  0  0  0  0  0  0
  160.4650  201.9160  145.4710 C   0  0  0  0  0  0  0  0  0  0  0  0
  160.7230  203.1930  144.9790 O   0  0  0  0  0  1  0  0  0  0  0  0
  159.9710  201.0430  144.7090 O   0  0  0  0  0  0  0  0  0  0  0  0
  1 11  1  0  0  0  0
  2  4  2  0  0  0  0
  3  1  2  0  0  0  0
  4 14  1  0  0  0  0
  5 21  1  0  0  0  0
  6 14  2  0  0  0  0
  8 21  1  0  0  0  0
  8 20  1  0  0  0  0
  9  1  1  0  0  0  0
  9  2  1  0  0  0  0
 10  7  1  0  0  0  0
 11  6  1  1  0  0  0
 13 18  2  0  0  0  0
 15 25  1  0  0  0  0
 15 22  1  0  0  0  0
 16 13  1  0  0  0  0
 17 26  1  1  0  0  0
 17  5  1  0  0  0  0
 18  2  1  0  0  0  0
 19 23  1  0  0  0  0
 20 11  1  0  0  0  0
 20  7  2  0  0  0  0
 21 10  2  0  0  0  0
 22 19  1  0  0  0  0
 23  3  1  0  0  0  0
 23  8  2  0  0  0  0
 24 12  1  1  0  0  0
 24 13  1  0  0  0  0
 24  9  1  0  0  0  0
 25 17  1  0  0  0  0
 27 26  1  0  0  0  0
 28 27  1  0  0  0  0
 29 34  1  0  0  0  0
 30 32  1  0  0  0  0
 30 31  2  0  0  0  0
 31 34  1  0  0  0  0
 32 29  2  0  0  0  0
 33 28  1  0  0  0  0
 33 35  2  0  0  0  0
 34 33  1  0  0  0  0
 36 30  1  0  0  0  0
 37 36  1  0  0  0  0
 38 36  2  0  0  0  0
M  END
>  <MODEL>
7

>  <REMARK>
 VINA RESULT:      -7.7      1.928      3.868
  Name = 
  5 active torsions:
  status: ('A' for Active; 'I' for Inactive)
    1  A    between atoms: C_6  and  C_16
    2  A    between atoms: C_9  and  C_25
    3  A    between atoms: C_25  and  S_28
    4  A    between atoms: C_27  and  C_34
    5  A    between atoms: S_28  and  C_34
                            x       y       z     vdW  Elec       q    Type
                         _______ _______ _______ _____ _____    ______ ____

>  <TORSDO>
F 5

$$$$
=
 OpenBabel11042422503D

 38 43  0  0  1  0  0  0  0  0999 V2000
  161.4430  206.2450  151.0770 C   0  0  0  0  0  0  0  0  0  0  0  0
  161.3620  204.9150  148.9060 C   0  0  0  0  0  0  0  0  0  0  0  0
  161.5420  206.1940  152.3830 N   0  0  0  0  0  0  0  0  0  0  0  0
  161.9620  205.7330  148.0270 C   0  0  0  0  0  3  0  0  0  0  0  0
  160.6020  210.1680  154.6080 N   0  0  0  0  0  2  0  0  0  0  0  0
  162.4660  207.7610  149.4000 C   0  0  0  0  0  3  0  0  0  0  0  0
  161.1540  210.0180  151.0160 C   0  0  0  0  0  3  0  0  0  0  0  0
  161.1930  208.5300  152.7140 C   0  0  0  0  0  0  0  0  0  0  0  0
  161.4210  205.0170  150.3320 N   0  0  0  0  0  0  0  0  0  0  0  0
  161.0440  210.7460  152.2970 C   0  0  0  0  0  2  0  0  0  0  0  0
  161.3140  207.5660  150.3350 C   0  0  0  0  0  0  0  0  0  0  0  0
  161.8920  203.0090  151.6310 C   0  0  0  0  0  1  0  0  0  0  0  0
  160.4100  203.0460  149.6390 C   0  0  0  0  0  0  0  0  0  0  0  0
  162.7150  206.9580  148.3610 C   0  0  0  0  0  3  0  0  0  0  0  0
  160.8490  207.9400  156.6060 C   0  0  0  0  0  2  0  0  0  0  0  0
  159.6790  201.7520  149.6670 C   0  0  0  0  0  1  0  0  0  0  0  0
  159.4470  209.4460  155.1330 C   0  0  1  0  0  3  0  0  0  0  0  0
  160.7110  203.6820  148.5130 C   0  0  0  0  0  3  0  0  0  0  0  0
  161.8890  207.1930  154.6770 C   0  0  0  0  0  2  0  0  0  0  0  0
  161.1980  208.7190  151.2930 C   0  0  0  0  0  0  0  0  0  0  0  0
  161.0850  209.8640  153.2940 C   0  0  0  0  0  0  0  0  0  0  0  0
  160.7370  206.9620  155.5300 N   0  0  0  0  0  2  0  0  0  0  0  0
  161.4820  207.3410  153.2470 C   0  0  0  0  0  0  0  0  0  0  0  0
  160.8390  203.7950  150.8670 C   0  0  2  0  0  3  0  0  0  0  0  0
  159.7070  208.9460  156.5490 C   0  0  0  0  0  2  0  0  0  0  0  0
  158.2180  210.3450  155.1420 C   0  0  0  0  0  2  0  0  0  0  0  0
  158.2820  211.4860  156.5630 S   0  0  0  0  0  0  0  0  0  0  0  0
  158.6760  212.9390  155.5340 C   0  0  0  0  0  2  0  0  0  0  0  0
  156.3910  214.0750  152.7430 N   0  0  0  0  0  0  0  0  0  0  0  0
  158.0550  213.7540  151.3290 C   0  0  0  0  0  0  0  0  0  0  0  0
  158.5000  213.4690  152.6060 C   0  0  0  0  0  3  0  0  0  0  0  0
  156.7280  214.1310  151.4380 C   0  0  0  0  0  3  0  0  0  0  0  0
  157.4550  213.4710  154.8490 C   0  0  0  0  0  0  0  0  0  0  0  0
  157.4530  213.6800  153.4300 N   0  0  0  0  0  0  0  0  0  0  0  0
  156.4200  213.7300  155.5280 O   0  0  0  0  0  0  0  0  0  0  0  0
  158.8400  213.6690  150.0890 C   0  0  0  0  0  0  0  0  0  0  0  0
  160.2210  213.4970  150.1420 O   0  0  0  0  0  1  0  0  0  0  0  0
  158.2620  213.7280  148.9710 O   0  0  0  0  0  0  0  0  0  0  0  0
  1  3  1  0  0  0  0
  2  9  1  0  0  0  0
  3 23  2  0  0  0  0
  4 14  1  0  0  0  0
  4  2  2  0  0  0  0
  5 17  1  0  0  0  0
  6 11  1  0  0  0  0
  7 20  2  0  0  0  0
  7 10  1  0  0  0  0
  8 23  1  0  0  0  0
  8 21  2  0  0  0  0
  9 24  1  0  0  0  0
  9  1  1  0  0  0  0
 10 21  1  0  0  0  0
 11  1  2  0  0  0  0
 11 20  1  0  0  0  0
 13 16  1  0  0  0  0
 13 24  1  0  0  0  0
 14  6  2  0  0  0  0
 17 26  1  1  0  0  0
 17 25  1  0  0  0  0
 18  2  1  0  0  0  0
 18 13  2  0  0  0  0
 19 22  1  0  0  0  0
 20  8  1  0  0  0  0
 21  5  1  0  0  0  0
 22 15  1  0  0  0  0
 23 19  1  0  0  0  0
 24 12  1  6  0  0  0
 25 15  1  0  0  0  0
 26 27  1  0  0  0  0
 28 27  1  0  0  0  0
 29 34  1  0  0  0  0
 30 32  1  0  0  0  0
 30 31  2  0  0  0  0
 31 34  1  0  0  0  0
 32 29  2  0  0  0  0
 33 35  2  0  0  0  0
 33 28  1  0  0  0  0
 34 33  1  0  0  0  0
 36 37  1  0  0  0  0
 36 30  1  0  0  0  0
 38 36  2  0  0  0  0
M  END
>  <MODEL>
8

>  <REMARK>
 VINA RESULT:      -7.3      4.186      9.401
  Name = 
  5 active torsions:
  status: ('A' for Active; 'I' for Inactive)
    1  A    between atoms: C_6  and  C_16
    2  A    between atoms: C_9  and  C_25
    3  A    between atoms: C_25  and  S_28
    4  A    between atoms: C_27  and  C_34
    5  A    between atoms: S_28  and  C_34
                            x       y       z     vdW  Elec       q    Type
                         _______ _______ _______ _____ _____    ______ ____

>  <TORSDO>
F 5

$$$$
=
 OpenBabel11042422503D

 38 43  0  0  1  0  0  0  0  0999 V2000
  161.5120  205.1890  149.7100 C   0  0  0  0  0  0  0  0  0  0  0  0
  161.0570  203.4340  147.9220 C   0  0  0  0  0  0  0  0  0  0  0  0
  161.6780  205.4250  150.9890 N   0  0  0  0  0  0  0  0  0  0  0  0
  161.7430  203.8960  146.8640 C   0  0  0  0  0  3  0  0  0  0  0  0
  161.6170  209.9110  152.2140 N   0  0  0  0  0  2  0  0  0  0  0  0
  162.6910  206.0500  147.7050 C   0  0  0  0  0  3  0  0  0  0  0  0
  161.9140  208.8290  148.7540 C   0  0  0  0  0  3  0  0  0  0  0  0
  161.7820  207.7960  150.7580 C   0  0  0  0  0  0  0  0  0  0  0  0
  161.2200  203.8510  149.2810 N   0  0  0  0  0  0  0  0  0  0  0  0
  162.0160  209.8410  149.8260 C   0  0  0  0  0  2  0  0  0  0  0  0
  161.5820  206.3030  148.6770 C   0  0  0  0  0  0  0  0  0  0  0  0
  161.3930  202.1460  151.0150 C   0  0  0  0  0  1  0  0  0  0  0  0
  159.8250  202.0040  149.0940 C   0  0  0  0  0  0  0  0  0  0  0  0
  162.7260  204.9970  146.8840 C   0  0  0  0  0  3  0  0  0  0  0  0
  161.5720  208.2020  154.6830 C   0  0  0  0  0  2  0  0  0  0  0  0
  158.8730  200.9170  149.4410 C   0  0  0  0  0  1  0  0  0  0  0  0
  160.3820  209.5660  152.9140 C   0  0  1  0  0  3  0  0  0  0  0  0
  160.1690  202.2920  147.8450 C   0  0  0  0  0  3  0  0  0  0  0  0
  162.3390  206.8420  152.9730 C   0  0  0  0  0  2  0  0  0  0  0  0
  161.7360  207.6460  149.3330 C   0  0  0  0  0  0  0  0  0  0  0  0
  161.9560  209.2240  151.0040 C   0  0  0  0  0  0  0  0  0  0  0  0
  161.2180  207.0410  153.8730 N   0  0  0  0  0  2  0  0  0  0  0  0
  161.8810  206.7310  151.5550 C   0  0  0  0  0  0  0  0  0  0  0  0
  160.4570  202.9210  150.1010 C   0  0  2  0  0  3  0  0  0  0  0  0
  160.6310  209.3670  154.4040 C   0  0  0  0  0  2  0  0  0  0  0  0
  159.3410  210.6610  152.7260 C   0  0  0  0  0  2  0  0  0  0  0  0
  159.9840  211.9560  151.6130 S   0  0  0  0  0  0  0  0  0  0  0  0
  159.5320  213.3170  152.7390 C   0  0  0  0  0  2  0  0  0  0  0  0
  155.8770  214.0570  153.3690 N   0  0  0  0  0  0  0  0  0  0  0  0
  156.0720  213.0510  155.3250 C   0  0  0  0  0  0  0  0  0  0  0  0
  157.2850  212.9750  154.6670 C   0  0  0  0  0  3  0  0  0  0  0  0
  155.2030  213.7350  154.4930 C   0  0  0  0  0  3  0  0  0  0  0  0
  158.1320  213.7910  152.4900 C   0  0  0  0  0  0  0  0  0  0  0  0
  157.1150  213.6000  153.4830 N   0  0  0  0  0  0  0  0  0  0  0  0
  157.8530  214.3690  151.4000 O   0  0  0  0  0  0  0  0  0  0  0  0
  155.7620  212.5110  156.6570 C   0  0  0  0  0  0  0  0  0  0  0  0
  154.5330  212.7760  157.2540 O   0  0  0  0  0  0  0  0  0  0  0  0
  156.6020  211.7860  157.2540 O   0  0  0  0  0  1  0  0  0  0  0  0
  1  3  1  0  0  0  0
  2  9  1  0  0  0  0
  3 23  2  0  0  0  0
  4 14  1  0  0  0  0
  4  2  2  0  0  0  0
  5 17  1  0  0  0  0
  6 11  1  0  0  0  0
  7 20  2  0  0  0  0
  7 10  1  0  0  0  0
  8 21  2  0  0  0  0
  8 23  1  0  0  0  0
  9  1  1  0  0  0  0
  9 24  1  0  0  0  0
 10 21  1  0  0  0  0
 11 20  1  0  0  0  0
 11  1  2  0  0  0  0
 13 16  1  0  0  0  0
 13 24  1  0  0  0  0
 14  6  2  0  0  0  0
 17 26  1  1  0  0  0
 17 25  1  0  0  0  0
 18  2  1  0  0  0  0
 18 13  2  0  0  0  0
 19 22  1  0  0  0  0
 20  8  1  0  0  0  0
 21  5  1  0  0  0  0
 22 15  1  0  0  0  0
 23 19  1  0  0  0  0
 24 12  1  1  0  0  0
 25 15  1  0  0  0  0
 27 26  1  0  0  0  0
 27 28  1  0  0  0  0
 29 34  1  0  0  0  0
 29 32  2  0  0  0  0
 30 36  1  0  0  0  0
 31 30  2  0  0  0  0
 32 30  1  0  0  0  0
 33 28  1  0  0  0  0
 33 34  1  0  0  0  0
 34 31  1  0  0  0  0
 35 33  2  0  0  0  0
 36 37  2  0  0  0  0
 36 38  1  0  0  0  0
M  END
>  <MODEL>
9

>  <REMARK>
 VINA RESULT:      -7.2      3.919      9.542
  Name = 
  5 active torsions:
  status: ('A' for Active; 'I' for Inactive)
    1  A    between atoms: C_6  and  C_16
    2  A    between atoms: C_9  and  C_25
    3  A    between atoms: C_25  and  S_28
    4  A    between atoms: C_27  and  C_34
    5  A    between atoms: S_28  and  C_34
                            x       y       z     vdW  Elec       q    Type
                         _______ _______ _______ _____ _____    ______ ____

>  <TORSDO>
F 5

$$$$
