=
 OpenBabel11042422103D

 34 39  0  0  0  0  0  0  0  0999 V2000
  162.0250  208.9120  149.2560 C   0  0  0  0  0  0  0  0  0  0  0  0
  161.0860  209.8370  151.2610 C   0  0  0  0  0  0  0  0  0  0  0  0
  161.3110  207.3240  150.9770 C   0  0  0  0  0  0  0  0  0  0  0  0
  160.9500  205.6680  152.6640 C   0  0  0  0  0  0  0  0  0  0  0  0
  162.0590  211.2170  149.6330 N   0  0  0  0  0  0  0  0  0  0  0  0
  161.4200  211.0650  150.7900 N   0  0  0  0  0  0  0  0  0  0  0  0
  161.3590  207.6470  153.4230 C   0  0  0  0  0  3  0  0  0  0  0  0
  161.4840  208.6820  150.5430 C   0  0  0  0  0  0  0  0  0  0  0  0
  160.9200  205.5170  154.0340 C   0  0  0  0  0  3  0  0  0  0  0  0
  162.3320  210.1700  148.8610 N   0  0  0  0  0  0  0  0  0  0  0  0
  161.3890  206.2770  150.0070 C   0  0  0  0  0  0  0  0  0  0  0  0
  162.2010  207.8640  148.3600 C   0  0  0  0  0  3  0  0  0  0  0  0
  160.1530  209.7760  152.3350 N   0  0  0  0  0  1  0  0  0  0  0  0
  160.8770  204.6420  151.7360 C   0  0  0  0  0  3  0  0  0  0  0  0
  161.0920  204.9350  150.3820 C   0  0  0  0  0  0  0  0  0  0  0  0
  161.1870  206.7930  154.4960 C   0  0  0  0  0  0  0  0  0  0  0  0
  161.1720  206.9430  152.2910 N   0  0  0  0  0  0  0  0  0  0  0  0
  161.8540  206.5690  148.7200 C   0  0  0  0  0  3  0  0  0  0  0  0
  161.1990  202.9630  147.1330 C   0  0  0  0  0  0  0  0  0  0  0  0
  160.8480  201.6870  147.5750 C   0  0  0  0  0  3  0  0  0  0  0  0
  161.0320  203.8120  149.4090 C   0  0  0  0  0  0  0  0  0  0  0  0
  160.5820  201.4670  148.9280 C   0  0  0  0  0  3  0  0  0  0  0  0
  161.2850  204.0200  148.0430 C   0  0  0  0  0  3  0  0  0  0  0  0
  160.6690  202.5240  149.8390 C   0  0  0  0  0  3  0  0  0  0  0  0
  161.4780  203.2010  145.6930 C   0  0  0  0  0  1  0  0  0  0  0  0
  161.2480  207.1930  155.9280 C   0  0  0  0  0  2  0  0  0  0  0  0
  161.8310  208.5210  156.0400 N   0  0  0  0  0  2  0  0  0  0  0  0
  162.9200  211.1570  156.0880 O   0  0  0  0  0  0  0  0  0  0  0  0
  161.0340  209.7060  156.0670 C   0  0  0  0  0  0  0  0  0  0  0  0
  161.6730  211.0240  156.2050 C   0  0  0  0  0  0  0  0  0  0  0  0
  159.4960  211.9560  156.8150 C   0  0  0  0  0  2  0  0  0  0  0  0
  158.8830  210.8300  155.9790 C   0  0  0  0  0  2  0  0  0  0  0  0
  159.7340  209.6350  156.0180 N   0  0  0  0  0  0  0  0  0  0  0  0
  160.8670  212.1330  156.4610 O   0  0  0  0  0  0  0  0  0  0  0  0
  1  8  1  0  0  0  0
  2 13  1  0  0  0  0
  3 17  1  0  0  0  0
  4  9  2  0  0  0  0
  5  6  2  0  0  0  0
  6  2  1  0  0  0  0
  7 16  2  0  0  0  0
  8  3  1  0  0  0  0
  8  2  2  0  0  0  0
  9 16  1  0  0  0  0
 10  1  2  0  0  0  0
 10  5  1  0  0  0  0
 11 15  1  0  0  0  0
 11  3  2  0  0  0  0
 12 18  2  0  0  0  0
 12  1  1  0  0  0  0
 14  4  1  0  0  0  0
 15 14  2  0  0  0  0
 16 26  1  0  0  0  0
 17  4  1  0  0  0  0
 17  7  1  0  0  0  0
 18 11  1  0  0  0  0
 19 20  2  0  0  0  0
 19 23  1  0  0  0  0
 20 22  1  0  0  0  0
 21 24  1  0  0  0  0
 21 15  1  0  0  0  0
 22 24  2  0  0  0  0
 23 21  2  0  0  0  0
 25 19  1  0  0  0  0
 26 27  1  0  0  0  0
 27 29  1  0  0  0  0
 28 30  2  0  0  0  0
 29 30  1  0  0  0  0
 30 34  1  0  0  0  0
 32 33  1  0  0  0  0
 32 31  1  0  0  0  0
 33 29  2  0  0  0  0
 34 31  1  0  0  0  0
M  END
>  <MODEL>
1

>  <REMARK>
 VINA RESULT:     -10.6      0.000      0.000
  Name = 
  3 active torsions:
  status: ('A' for Active; 'I' for Inactive)
    1  A    between atoms: N_3  and  C_17
    2  A    between atoms: C_12  and  C_28
    3  A    between atoms: C_17  and  C_29
                            x       y       z     vdW  Elec       q    Type
                         _______ _______ _______ _____ _____    ______ ____

>  <TORSDO>
F 3

$$$$
=
 OpenBabel11042422103D

 34 39  0  0  0  0  0  0  0  0999 V2000
  160.8250  208.0950  154.5860 C   0  0  0  0  0  0  0  0  0  0  0  0
  162.0410  210.0510  153.9130 C   0  0  0  0  0  0  0  0  0  0  0  0
  161.5430  208.2000  152.2490 C   0  0  0  0  0  0  0  0  0  0  0  0
  161.9010  208.2820  149.8860 C   0  0  0  0  0  0  0  0  0  0  0  0
  161.0550  209.9110  156.0370 N   0  0  0  0  0  0  0  0  0  0  0  0
  161.7850  210.5700  155.1400 N   0  0  0  0  0  0  0  0  0  0  0  0
  161.7660  210.2140  150.8410 C   0  0  0  0  0  3  0  0  0  0  0  0
  161.4630  208.8100  153.5460 C   0  0  0  0  0  0  0  0  0  0  0  0
  162.0510  209.1820  148.8510 C   0  0  0  0  0  3  0  0  0  0  0  0
  160.6060  208.6860  155.7850 N   0  0  0  0  0  0  0  0  0  0  0  0
  161.2680  206.8020  152.1290 C   0  0  0  0  0  0  0  0  0  0  0  0
  160.4590  206.7650  154.4160 C   0  0  0  0  0  3  0  0  0  0  0  0
  163.0640  210.6680  153.1380 N   0  0  0  0  0  1  0  0  0  0  0  0
  161.7820  206.9090  149.7510 C   0  0  0  0  0  3  0  0  0  0  0  0
  161.4660  206.1420  150.8810 C   0  0  0  0  0  0  0  0  0  0  0  0
  161.9570  210.4080  149.4860 C   0  0  0  0  0  0  0  0  0  0  0  0
  161.7720  208.8890  151.0810 N   0  0  0  0  0  0  0  0  0  0  0  0
  160.7100  206.1180  153.2150 C   0  0  0  0  0  3  0  0  0  0  0  0
  160.9220  202.7320  149.2890 C   0  0  0  0  0  0  0  0  0  0  0  0
  160.9760  201.8960  150.4060 C   0  0  0  0  0  3  0  0  0  0  0  0
  161.3190  204.6720  150.7060 C   0  0  0  0  0  0  0  0  0  0  0  0
  161.1940  202.4400  151.6730 C   0  0  0  0  0  3  0  0  0  0  0  0
  161.0870  204.1120  149.4390 C   0  0  0  0  0  3  0  0  0  0  0  0
  161.3600  203.8200  151.8230 C   0  0  0  0  0  3  0  0  0  0  0  0
  160.6850  202.1560  147.9400 C   0  0  0  0  0  1  0  0  0  0  0  0
  162.0760  211.7310  148.8180 C   0  0  0  0  0  2  0  0  0  0  0  0
  161.0320  211.8680  147.8140 N   0  0  0  0  0  2  0  0  0  0  0  0
  158.9840  212.3160  145.8800 O   0  0  0  0  0  0  0  0  0  0  0  0
  161.2530  212.5260  146.5650 C   0  0  0  0  0  0  0  0  0  0  0  0
  160.1680  212.6160  145.5760 C   0  0  0  0  0  0  0  0  0  0  0  0
  161.8370  213.1770  143.8780 C   0  0  0  0  0  2  0  0  0  0  0  0
  162.6750  213.7490  145.0240 C   0  0  0  0  0  2  0  0  0  0  0  0
  162.4240  213.0120  146.2670 N   0  0  0  0  0  0  0  0  0  0  0  0
  160.4750  213.0530  144.2870 O   0  0  0  0  0  0  0  0  0  0  0  0
  1 10  2  0  0  0  0
  2  6  1  0  0  0  0
  3  8  1  0  0  0  0
  4 17  1  0  0  0  0
  6  5  2  0  0  0  0
  7 17  1  0  0  0  0
  8  2  2  0  0  0  0
  8  1  1  0  0  0  0
  9 16  1  0  0  0  0
  9  4  2  0  0  0  0
 10  5  1  0  0  0  0
 11  3  2  0  0  0  0
 11 18  1  0  0  0  0
 12  1  1  0  0  0  0
 13  2  1  0  0  0  0
 14  4  1  0  0  0  0
 14 15  2  0  0  0  0
 15 11  1  0  0  0  0
 16  7  2  0  0  0  0
 17  3  1  0  0  0  0
 18 12  2  0  0  0  0
 19 23  2  0  0  0  0
 19 20  1  0  0  0  0
 20 22  2  0  0  0  0
 21 15  1  0  0  0  0
 21 24  2  0  0  0  0
 22 24  1  0  0  0  0
 23 21  1  0  0  0  0
 25 19  1  0  0  0  0
 26 16  1  0  0  0  0
 27 26  1  0  0  0  0
 29 27  1  0  0  0  0
 30 28  2  0  0  0  0
 30 29  1  0  0  0  0
 31 34  1  0  0  0  0
 31 32  1  0  0  0  0
 32 33  1  0  0  0  0
 33 29  2  0  0  0  0
 34 30  1  0  0  0  0
M  END
>  <MODEL>
2

>  <REMARK>
 VINA RESULT:     -10.4      3.756      6.593
  Name = 
  3 active torsions:
  status: ('A' for Active; 'I' for Inactive)
    1  A    between atoms: N_3  and  C_17
    2  A    between atoms: C_12  and  C_28
    3  A    between atoms: C_17  and  C_29
                            x       y       z     vdW  Elec       q    Type
                         _______ _______ _______ _____ _____    ______ ____

>  <TORSDO>
F 3

$$$$
=
 OpenBabel11042422103D

 34 39  0  0  0  0  0  0  0  0999 V2000
  162.0540  209.9160  149.1500 C   0  0  0  0  0  0  0  0  0  0  0  0
  161.0780  211.5250  150.6390 C   0  0  0  0  0  0  0  0  0  0  0  0
  161.3620  209.1050  151.3530 C   0  0  0  0  0  0  0  0  0  0  0  0
  161.0240  208.2260  153.5510 C   0  0  0  0  0  0  0  0  0  0  0  0
  162.0330  212.1860  148.6010 N   0  0  0  0  0  0  0  0  0  0  0  0
  161.3890  212.4800  149.7270 N   0  0  0  0  0  0  0  0  0  0  0  0
  161.3820  210.3540  153.4820 C   0  0  0  0  0  3  0  0  0  0  0  0
  161.5080  210.1910  150.4260 C   0  0  0  0  0  0  0  0  0  0  0  0
  160.9860  208.6190  154.8730 C   0  0  0  0  0  3  0  0  0  0  0  0
  162.3360  210.9280  148.2960 N   0  0  0  0  0  0  0  0  0  0  0  0
  161.4710  207.7650  150.8660 C   0  0  0  0  0  0  0  0  0  0  0  0
  162.2610  208.6060  148.7310 C   0  0  0  0  0  3  0  0  0  0  0  0
  160.1380  211.8630  151.6530 N   0  0  0  0  0  1  0  0  0  0  0  0
  160.9820  206.9190  153.0960 C   0  0  0  0  0  3  0  0  0  0  0  0
  161.2010  206.6680  151.7340 C   0  0  0  0  0  0  0  0  0  0  0  0
  161.2200  209.9800  154.8020 C   0  0  0  0  0  0  0  0  0  0  0  0
  161.2200  209.2610  152.7120 N   0  0  0  0  0  0  0  0  0  0  0  0
  161.9410  207.5450  149.5660 C   0  0  0  0  0  3  0  0  0  0  0  0
  161.1030  203.6040  149.4840 C   0  0  0  0  0  0  0  0  0  0  0  0
  161.0570  202.5740  150.4260 C   0  0  0  0  0  3  0  0  0  0  0  0
  161.1750  205.2540  151.2740 C   0  0  0  0  0  0  0  0  0  0  0  0
  161.0620  202.8750  151.7890 C   0  0  0  0  0  3  0  0  0  0  0  0
  161.1560  204.9350  149.9060 C   0  0  0  0  0  3  0  0  0  0  0  0
  161.1170  204.2070  152.2110 C   0  0  0  0  0  3  0  0  0  0  0  0
  161.0920  203.2860  148.0330 C   0  0  0  0  0  1  0  0  0  0  0  0
  161.2600  210.9060  155.9660 C   0  0  0  0  0  2  0  0  0  0  0  0
  160.5460  212.1300  155.6410 N   0  0  0  0  0  2  0  0  0  0  0  0
  159.0910  214.4520  154.8460 O   0  0  0  0  0  0  0  0  0  0  0  0
  159.1190  212.1990  155.6100 C   0  0  0  0  0  0  0  0  0  0  0  0
  158.4460  213.4690  155.2970 C   0  0  0  0  0  0  0  0  0  0  0  0
  156.3800  212.5380  156.2160 C   0  0  0  0  0  2  0  0  0  0  0  0
  156.9320  211.1650  155.8220 C   0  0  0  0  0  2  0  0  0  0  0  0
  158.3970  211.1550  155.9030 N   0  0  0  0  0  0  0  0  0  0  0  0
  157.0690  213.5620  155.5010 O   0  0  0  0  0  0  0  0  0  0  0  0
  1  8  1  0  0  0  0
  2 13  1  0  0  0  0
  3 17  1  0  0  0  0
  4  9  2  0  0  0  0
  5  6  1  0  0  0  0
  6  2  2  0  0  0  0
  7 16  2  0  0  0  0
  8  2  1  0  0  0  0
  8  3  2  0  0  0  0
 10  5  2  0  0  0  0
 10  1  1  0  0  0  0
 11  3  1  0  0  0  0
 11 15  1  0  0  0  0
 12  1  2  0  0  0  0
 12 18  1  0  0  0  0
 14  4  1  0  0  0  0
 15 14  2  0  0  0  0
 16  9  1  0  0  0  0
 16 26  1  0  0  0  0
 17  7  1  0  0  0  0
 17  4  1  0  0  0  0
 18 11  2  0  0  0  0
 19 23  2  0  0  0  0
 19 20  1  0  0  0  0
 20 22  2  0  0  0  0
 21 15  1  0  0  0  0
 21 24  2  0  0  0  0
 22 24  1  0  0  0  0
 23 21  1  0  0  0  0
 25 19  1  0  0  0  0
 27 26  1  0  0  0  0
 28 30  2  0  0  0  0
 29 27  1  0  0  0  0
 29 33  2  0  0  0  0
 30 34  1  0  0  0  0
 30 29  1  0  0  0  0
 32 33  1  0  0  0  0
 32 31  1  0  0  0  0
 34 31  1  0  0  0  0
M  END
>  <MODEL>
3

>  <REMARK>
 VINA RESULT:      -9.7      1.752      2.696
  Name = 
  3 active torsions:
  status: ('A' for Active; 'I' for Inactive)
    1  A    between atoms: N_3  and  C_17
    2  A    between atoms: C_12  and  C_28
    3  A    between atoms: C_17  and  C_29
                            x       y       z     vdW  Elec       q    Type
                         _______ _______ _______ _____ _____    ______ ____

>  <TORSDO>
F 3

$$$$
=
 OpenBabel11042422103D

 34 39  0  0  0  0  0  0  0  0999 V2000
  160.9120  207.4300  153.5320 C   0  0  0  0  0  0  0  0  0  0  0  0
  162.0850  209.5170  153.3540 C   0  0  0  0  0  0  0  0  0  0  0  0
  161.5840  208.1310  151.2860 C   0  0  0  0  0  0  0  0  0  0  0  0
  161.8970  208.8090  149.0140 C   0  0  0  0  0  0  0  0  0  0  0  0
  161.1400  208.8300  155.3880 N   0  0  0  0  0  0  0  0  0  0  0  0
  161.8430  209.7060  154.6750 N   0  0  0  0  0  0  0  0  0  0  0  0
  161.7490  210.4380  150.4240 C   0  0  0  0  0  3  0  0  0  0  0  0
  161.5200  208.3960  152.6950 C   0  0  0  0  0  0  0  0  0  0  0  0
  162.0130  209.9420  148.2360 C   0  0  0  0  0  3  0  0  0  0  0  0
  160.7070  207.6970  154.8440 N   0  0  0  0  0  0  0  0  0  0  0  0
  161.3300  206.8030  150.8230 C   0  0  0  0  0  0  0  0  0  0  0  0
  160.5650  206.1780  153.0400 C   0  0  0  0  0  3  0  0  0  0  0  0
  163.0820  210.3280  152.7430 N   0  0  0  0  0  1  0  0  0  0  0  0
  161.7980  207.5110  148.5410 C   0  0  0  0  0  3  0  0  0  0  0  0
  161.5160  206.4800  149.4470 C   0  0  0  0  0  0  0  0  0  0  0  0
  161.9110  210.9680  149.1580 C   0  0  0  0  0  0  0  0  0  0  0  0
  161.7800  209.0950  150.3250 N   0  0  0  0  0  0  0  0  0  0  0  0
  160.8040  205.8570  151.7110 C   0  0  0  0  0  3  0  0  0  0  0  0
  160.9520  202.7250  149.2390 C   0  0  0  0  0  0  0  0  0  0  0  0
  161.2210  202.4820  147.8910 C   0  0  0  0  0  3  0  0  0  0  0  0
  161.3890  205.0980  148.9110 C   0  0  0  0  0  0  0  0  0  0  0  0
  161.5810  203.5380  147.0510 C   0  0  0  0  0  3  0  0  0  0  0  0
  161.0410  204.0240  149.7470 C   0  0  0  0  0  3  0  0  0  0  0  0
  161.6680  204.8370  147.5590 C   0  0  0  0  0  3  0  0  0  0  0  0
  160.5740  201.6030  150.1360 C   0  0  0  0  0  1  0  0  0  0  0  0
  161.9960  212.4190  148.8420 C   0  0  0  0  0  2  0  0  0  0  0  0
  160.6860  213.0310  149.0010 N   0  0  0  0  0  2  0  0  0  0  0  0
  158.1720  214.3650  149.1970 O   0  0  0  0  0  0  0  0  0  0  0  0
  159.7300  213.0800  147.9390 C   0  0  0  0  0  0  0  0  0  0  0  0
  158.4110  213.6910  148.1610 C   0  0  0  0  0  0  0  0  0  0  0  0
  157.6160  212.5780  146.1330 C   0  0  0  0  0  2  0  0  0  0  0  0
  159.0670  212.6280  145.6480 C   0  0  0  0  0  2  0  0  0  0  0  0
  159.9940  212.5450  146.7820 N   0  0  0  0  0  0  0  0  0  0  0  0
  157.4240  213.5180  147.1900 O   0  0  0  0  0  0  0  0  0  0  0  0
  1 10  2  0  0  0  0
  2  6  1  0  0  0  0
  3  8  1  0  0  0  0
  4 17  1  0  0  0  0
  6  5  2  0  0  0  0
  8  2  2  0  0  0  0
  8  1  1  0  0  0  0
  9  4  2  0  0  0  0
  9 16  1  0  0  0  0
 10  5  1  0  0  0  0
 11  3  2  0  0  0  0
 11 18  1  0  0  0  0
 12  1  1  0  0  0  0
 13  2  1  0  0  0  0
 14  4  1  0  0  0  0
 14 15  2  0  0  0  0
 15 11  1  0  0  0  0
 16  7  2  0  0  0  0
 17  7  1  0  0  0  0
 17  3  1  0  0  0  0
 18 12  2  0  0  0  0
 19 23  1  0  0  0  0
 19 25  1  0  0  0  0
 20 19  2  0  0  0  0
 21 15  1  0  0  0  0
 21 23  2  0  0  0  0
 22 24  2  0  0  0  0
 22 20  1  0  0  0  0
 24 21  1  0  0  0  0
 26 27  1  0  0  0  0
 26 16  1  0  0  0  0
 29 30  1  0  0  0  0
 29 27  1  0  0  0  0
 30 28  2  0  0  0  0
 31 34  1  0  0  0  0
 32 31  1  0  0  0  0
 32 33  1  0  0  0  0
 33 29  2  0  0  0  0
 34 30  1  0  0  0  0
M  END
>  <MODEL>
4

>  <REMARK>
 VINA RESULT:      -9.5      3.303      5.996
  Name = 
  3 active torsions:
  status: ('A' for Active; 'I' for Inactive)
    1  A    between atoms: N_3  and  C_17
    2  A    between atoms: C_12  and  C_28
    3  A    between atoms: C_17  and  C_29
                            x       y       z     vdW  Elec       q    Type
                         _______ _______ _______ _____ _____    ______ ____

>  <TORSDO>
F 3

$$$$
=
 OpenBabel11042422103D

 34 39  0  0  0  0  0  0  0  0999 V2000
  160.6730  207.4170  153.4930 C   0  0  0  0  0  0  0  0  0  0  0  0
  161.8730  209.4930  153.4020 C   0  0  0  0  0  0  0  0  0  0  0  0
  161.4490  208.1480  151.2900 C   0  0  0  0  0  0  0  0  0  0  0  0
  161.8670  208.8610  149.0460 C   0  0  0  0  0  0  0  0  0  0  0  0
  160.8350  208.7820  155.3810 N   0  0  0  0  0  0  0  0  0  0  0  0
  161.5770  209.6630  154.7140 N   0  0  0  0  0  0  0  0  0  0  0  0
  161.6750  210.4670  150.4770 C   0  0  0  0  0  3  0  0  0  0  0  0
  161.3260  208.3890  152.7000 C   0  0  0  0  0  0  0  0  0  0  0  0
  162.0280  210.0060  148.2930 C   0  0  0  0  0  3  0  0  0  0  0  0
  160.4130  207.6640  154.7990 N   0  0  0  0  0  0  0  0  0  0  0  0
  161.2010  206.8300  150.7940 C   0  0  0  0  0  0  0  0  0  0  0  0
  160.3350  206.1770  152.9640 C   0  0  0  0  0  3  0  0  0  0  0  0
  162.9050  210.3040  152.8490 N   0  0  0  0  0  1  0  0  0  0  0  0
  161.7750  207.5720  148.5470 C   0  0  0  0  0  3  0  0  0  0  0  0
  161.4430  206.5290  149.4220 C   0  0  0  0  0  0  0  0  0  0  0  0
  161.8970  211.0170  149.2280 C   0  0  0  0  0  0  0  0  0  0  0  0
  161.6960  209.1260  150.3560 N   0  0  0  0  0  0  0  0  0  0  0  0
  160.6270  205.8760  151.6420 C   0  0  0  0  0  3  0  0  0  0  0  0
  161.0360  202.7570  149.1510 C   0  0  0  0  0  0  0  0  0  0  0  0
  161.1740  202.5660  147.7750 C   0  0  0  0  0  3  0  0  0  0  0  0
  161.3260  205.1580  148.8580 C   0  0  0  0  0  0  0  0  0  0  0  0
  161.3950  203.6610  146.9370 C   0  0  0  0  0  3  0  0  0  0  0  0
  161.1170  204.0450  149.6890 C   0  0  0  0  0  3  0  0  0  0  0  0
  161.4740  204.9480  147.4760 C   0  0  0  0  0  3  0  0  0  0  0  0
  160.8070  201.5940  150.0450 C   0  0  0  0  0  1  0  0  0  0  0  0
  162.0110  212.4720  148.9410 C   0  0  0  0  0  2  0  0  0  0  0  0
  162.4830  212.6650  147.5790 N   0  0  0  0  0  2  0  0  0  0  0  0
  163.3210  212.8890  144.8610 O   0  0  0  0  0  0  0  0  0  0  0  0
  161.6000  212.9830  146.5010 C   0  0  0  0  0  0  0  0  0  0  0  0
  162.1320  213.1910  145.1460 C   0  0  0  0  0  0  0  0  0  0  0  0
  160.0230  214.2710  144.5410 C   0  0  0  0  0  2  0  0  0  0  0  0
  159.3750  213.4030  145.6230 C   0  0  0  0  0  2  0  0  0  0  0  0
  160.3240  213.1390  146.7110 N   0  0  0  0  0  0  0  0  0  0  0  0
  161.2880  213.7230  144.1710 O   0  0  0  0  0  0  0  0  0  0  0  0
  1 10  2  0  0  0  0
  2  6  1  0  0  0  0
  3  8  1  0  0  0  0
  4 17  1  0  0  0  0
  6  5  2  0  0  0  0
  8  2  2  0  0  0  0
  8  1  1  0  0  0  0
  9  4  2  0  0  0  0
  9 16  1  0  0  0  0
 10  5  1  0  0  0  0
 11  3  2  0  0  0  0
 11 18  1  0  0  0  0
 12  1  1  0  0  0  0
 13  2  1  0  0  0  0
 14  4  1  0  0  0  0
 14 15  2  0  0  0  0
 15 11  1  0  0  0  0
 16  7  2  0  0  0  0
 17  7  1  0  0  0  0
 17  3  1  0  0  0  0
 18 12  2  0  0  0  0
 19 23  1  0  0  0  0
 19 25  1  0  0  0  0
 20 19  2  0  0  0  0
 21 15  1  0  0  0  0
 21 23  2  0  0  0  0
 22 24  2  0  0  0  0
 22 20  1  0  0  0  0
 24 21  1  0  0  0  0
 26 16  1  0  0  0  0
 27 26  1  0  0  0  0
 28 30  2  0  0  0  0
 29 33  2  0  0  0  0
 29 27  1  0  0  0  0
 30 29  1  0  0  0  0
 31 32  1  0  0  0  0
 32 33  1  0  0  0  0
 34 31  1  0  0  0  0
 34 30  1  0  0  0  0
M  END
>  <MODEL>
5

>  <REMARK>
 VINA RESULT:      -9.0      3.883      6.550
  Name = 
  3 active torsions:
  status: ('A' for Active; 'I' for Inactive)
    1  A    between atoms: N_3  and  C_17
    2  A    between atoms: C_12  and  C_28
    3  A    between atoms: C_17  and  C_29
                            x       y       z     vdW  Elec       q    Type
                         _______ _______ _______ _____ _____    ______ ____

>  <TORSDO>
F 3

$$$$
=
 OpenBabel11042422103D

 34 39  0  0  0  0  0  0  0  0999 V2000
  160.9820  207.5270  153.5790 C   0  0  0  0  0  0  0  0  0  0  0  0
  162.1200  209.6330  153.4100 C   0  0  0  0  0  0  0  0  0  0  0  0
  161.6050  208.2680  151.3320 C   0  0  0  0  0  0  0  0  0  0  0  0
  161.8690  208.9820  149.0650 C   0  0  0  0  0  0  0  0  0  0  0  0
  161.2210  208.9040  155.4510 N   0  0  0  0  0  0  0  0  0  0  0  0
  161.8980  209.8010  154.7380 N   0  0  0  0  0  0  0  0  0  0  0  0
  161.7210  210.5890  150.5000 C   0  0  0  0  0  3  0  0  0  0  0  0
  161.5600  208.5130  152.7460 C   0  0  0  0  0  0  0  0  0  0  0  0
  161.9550  210.1270  148.3000 C   0  0  0  0  0  3  0  0  0  0  0  0
  160.7940  207.7730  154.8980 N   0  0  0  0  0  0  0  0  0  0  0  0
  161.3620  206.9420  150.8550 C   0  0  0  0  0  0  0  0  0  0  0  0
  160.6450  206.2760  153.0750 C   0  0  0  0  0  3  0  0  0  0  0  0
  163.0950  210.4680  152.7940 N   0  0  0  0  0  1  0  0  0  0  0  0
  161.7810  207.6890  148.5760 C   0  0  0  0  0  3  0  0  0  0  0  0
  161.5290  206.6410  149.4720 C   0  0  0  0  0  0  0  0  0  0  0  0
  161.8530  211.1380  149.2390 C   0  0  0  0  0  0  0  0  0  0  0  0
  161.7700  209.2480  150.3810 N   0  0  0  0  0  0  0  0  0  0  0  0
  160.8650  205.9770  151.7380 C   0  0  0  0  0  3  0  0  0  0  0  0
  161.0210  202.8810  149.2220 C   0  0  0  0  0  0  0  0  0  0  0  0
  161.2670  202.6610  147.8650 C   0  0  0  0  0  3  0  0  0  0  0  0
  161.4140  205.2650  148.9190 C   0  0  0  0  0  0  0  0  0  0  0  0
  161.5930  203.7340  147.0330 C   0  0  0  0  0  3  0  0  0  0  0  0
  161.1000  204.1740  149.7460 C   0  0  0  0  0  3  0  0  0  0  0  0
  161.6700  205.0280  147.5580 C   0  0  0  0  0  3  0  0  0  0  0  0
  160.6800  201.7400  150.1100 C   0  0  0  0  0  1  0  0  0  0  0  0
  161.9120  212.5950  148.9410 C   0  0  0  0  0  2  0  0  0  0  0  0
  160.6610  213.0190  148.3330 N   0  0  0  0  0  2  0  0  0  0  0  0
  158.1360  213.6900  147.1860 O   0  0  0  0  0  0  0  0  0  0  0  0
  159.4860  213.2800  149.1030 C   0  0  0  0  0  0  0  0  0  0  0  0
  158.2520  213.7300  148.4400 C   0  0  0  0  0  0  0  0  0  0  0  0
  157.4090  214.4530  150.6190 C   0  0  0  0  0  2  0  0  0  0  0  0
  158.3030  213.3660  151.2210 C   0  0  0  0  0  2  0  0  0  0  0  0
  159.5030  213.1690  150.4000 N   0  0  0  0  0  0  0  0  0  0  0  0
  157.2010  214.1960  149.2300 O   0  0  0  0  0  0  0  0  0  0  0  0
  1 10  2  0  0  0  0
  2  6  1  0  0  0  0
  3  8  1  0  0  0  0
  4 17  1  0  0  0  0
  6  5  2  0  0  0  0
  8  2  2  0  0  0  0
  8  1  1  0  0  0  0
  9  4  2  0  0  0  0
  9 16  1  0  0  0  0
 10  5  1  0  0  0  0
 11  3  2  0  0  0  0
 11 18  1  0  0  0  0
 12  1  1  0  0  0  0
 13  2  1  0  0  0  0
 14  4  1  0  0  0  0
 14 15  2  0  0  0  0
 15 11  1  0  0  0  0
 16  7  2  0  0  0  0
 17  7  1  0  0  0  0
 17  3  1  0  0  0  0
 18 12  2  0  0  0  0
 19 23  1  0  0  0  0
 19 25  1  0  0  0  0
 20 19  2  0  0  0  0
 21 15  1  0  0  0  0
 21 23  2  0  0  0  0
 22 24  2  0  0  0  0
 22 20  1  0  0  0  0
 24 21  1  0  0  0  0
 26 16  1  0  0  0  0
 27 26  1  0  0  0  0
 27 29  1  0  0  0  0
 28 30  2  0  0  0  0
 29 33  2  0  0  0  0
 30 29  1  0  0  0  0
 30 34  1  0  0  0  0
 31 32  1  0  0  0  0
 33 32  1  0  0  0  0
 34 31  1  0  0  0  0
M  END
>  <MODEL>
6

>  <REMARK>
 VINA RESULT:      -9.0      3.175      5.477
  Name = 
  3 active torsions:
  status: ('A' for Active; 'I' for Inactive)
    1  A    between atoms: N_3  and  C_17
    2  A    between atoms: C_12  and  C_28
    3  A    between atoms: C_17  and  C_29
                            x       y       z     vdW  Elec       q    Type
                         _______ _______ _______ _____ _____    ______ ____

>  <TORSDO>
F 3

$$$$
=
 OpenBabel11042422103D

 34 39  0  0  0  0  0  0  0  0999 V2000
  161.4390  204.9560  150.4060 C   0  0  0  0  0  0  0  0  0  0  0  0
  161.1080  206.2280  148.3980 C   0  0  0  0  0  0  0  0  0  0  0  0
  161.3030  207.3880  150.6490 C   0  0  0  0  0  0  0  0  0  0  0  0
  161.4950  209.7430  151.0190 C   0  0  0  0  0  0  0  0  0  0  0  0
  161.5250  203.9220  148.3140 N   0  0  0  0  0  0  0  0  0  0  0  0
  161.2590  205.0730  147.7030 N   0  0  0  0  0  0  0  0  0  0  0  0
  162.0590  209.0980  149.0370 C   0  0  0  0  0  3  0  0  0  0  0  0
  161.3060  206.2290  149.8020 C   0  0  0  0  0  0  0  0  0  0  0  0
  161.8720  210.9050  150.3800 C   0  0  0  0  0  3  0  0  0  0  0  0
  161.5850  203.8500  149.6400 N   0  0  0  0  0  0  0  0  0  0  0  0
  161.1180  207.2110  152.0550 C   0  0  0  0  0  0  0  0  0  0  0  0
  161.3700  204.8130  151.7870 C   0  0  0  0  0  3  0  0  0  0  0  0
  160.5340  207.3380  147.7160 N   0  0  0  0  0  1  0  0  0  0  0  0
  161.1780  209.6260  152.3620 C   0  0  0  0  0  3  0  0  0  0  0  0
  160.9780  208.3480  152.9030 C   0  0  0  0  0  0  0  0  0  0  0  0
  162.2310  210.4660  149.1180 C   0  0  0  0  0  0  0  0  0  0  0  0
  161.5650  208.6660  150.2130 N   0  0  0  0  0  0  0  0  0  0  0  0
  161.1770  205.9230  152.5970 C   0  0  0  0  0  3  0  0  0  0  0  0
  160.0660  209.2870  156.4740 C   0  0  0  0  0  0  0  0  0  0  0  0
  160.1380  208.0460  157.1100 C   0  0  0  0  0  3  0  0  0  0  0  0
  160.6630  208.2480  154.3530 C   0  0  0  0  0  0  0  0  0  0  0  0
  160.4780  206.9060  156.3780 C   0  0  0  0  0  3  0  0  0  0  0  0
  160.3330  209.3870  155.1050 C   0  0  0  0  0  3  0  0  0  0  0  0
  160.7430  207.0070  155.0090 C   0  0  0  0  0  3  0  0  0  0  0  0
  159.7100  210.5010  157.2510 C   0  0  0  0  0  1  0  0  0  0  0  0
  162.7000  211.3380  148.0070 C   0  0  0  0  0  2  0  0  0  0  0  0
  161.6160  212.2080  147.5790 N   0  0  0  0  0  2  0  0  0  0  0  0
  159.5970  214.0580  146.7790 O   0  0  0  0  0  0  0  0  0  0  0  0
  161.7030  213.0150  146.4030 C   0  0  0  0  0  0  0  0  0  0  0  0
  160.5680  213.8610  146.0020 C   0  0  0  0  0  0  0  0  0  0  0  0
  161.5680  214.0550  143.7780 C   0  0  0  0  0  2  0  0  0  0  0  0
  162.9180  213.8380  144.4680 C   0  0  0  0  0  2  0  0  0  0  0  0
  162.7630  212.9790  145.6480 N   0  0  0  0  0  0  0  0  0  0  0  0
  160.5900  214.4530  144.7380 O   0  0  0  0  0  0  0  0  0  0  0  0
  1 12  1  0  0  0  0
  2  8  1  0  0  0  0
  3 11  2  0  0  0  0
  4 14  1  0  0  0  0
  5 10  2  0  0  0  0
  6  5  1  0  0  0  0
  6  2  2  0  0  0  0
  7 16  2  0  0  0  0
  7 17  1  0  0  0  0
  8  1  2  0  0  0  0
  8  3  1  0  0  0  0
  9  4  2  0  0  0  0
 10  1  1  0  0  0  0
 11 18  1  0  0  0  0
 11 15  1  0  0  0  0
 12 18  2  0  0  0  0
 13  2  1  0  0  0  0
 14 15  2  0  0  0  0
 15 21  1  0  0  0  0
 16  9  1  0  0  0  0
 17  3  1  0  0  0  0
 17  4  1  0  0  0  0
 19 20  1  0  0  0  0
 19 25  1  0  0  0  0
 21 24  2  0  0  0  0
 21 23  1  0  0  0  0
 22 20  2  0  0  0  0
 23 19  2  0  0  0  0
 24 22  1  0  0  0  0
 26 16  1  0  0  0  0
 27 26  1  0  0  0  0
 29 27  1  0  0  0  0
 30 29  1  0  0  0  0
 30 28  2  0  0  0  0
 31 32  1  0  0  0  0
 31 34  1  0  0  0  0
 32 33  1  0  0  0  0
 33 29  2  0  0  0  0
 34 30  1  0  0  0  0
M  END
>  <MODEL>
7

>  <REMARK>
 VINA RESULT:      -8.7      4.007      8.119
  Name = 
  3 active torsions:
  status: ('A' for Active; 'I' for Inactive)
    1  A    between atoms: N_3  and  C_17
    2  A    between atoms: C_12  and  C_28
    3  A    between atoms: C_17  and  C_29
                            x       y       z     vdW  Elec       q    Type
                         _______ _______ _______ _____ _____    ______ ____

>  <TORSDO>
F 3

$$$$
=
 OpenBabel11042422103D

 34 39  0  0  0  0  0  0  0  0999 V2000
  161.3000  206.1200  149.1060 C   0  0  0  0  0  0  0  0  0  0  0  0
  161.7450  205.5580  151.3960 C   0  0  0  0  0  0  0  0  0  0  0  0
  161.5600  207.9840  150.6710 C   0  0  0  0  0  0  0  0  0  0  0  0
  161.4840  209.8930  152.1090 C   0  0  0  0  0  0  0  0  0  0  0  0
  161.2090  203.9000  149.8250 N   0  0  0  0  0  0  0  0  0  0  0  0
  161.5500  204.2580  151.0610 N   0  0  0  0  0  0  0  0  0  0  0  0
  160.9330  208.0330  153.0570 C   0  0  0  0  0  3  0  0  0  0  0  0
  161.5150  206.5700  150.4300 C   0  0  0  0  0  0  0  0  0  0  0  0
  161.1840  210.2510  153.4070 C   0  0  0  0  0  3  0  0  0  0  0  0
  161.1140  204.8030  148.8540 N   0  0  0  0  0  0  0  0  0  0  0  0
  161.7020  208.8670  149.5550 C   0  0  0  0  0  0  0  0  0  0  0  0
  161.3290  207.0100  148.0380 C   0  0  0  0  0  3  0  0  0  0  0  0
  162.3930  205.8290  152.6340 N   0  0  0  0  0  1  0  0  0  0  0  0
  161.7630  210.7690  151.0730 C   0  0  0  0  0  3  0  0  0  0  0  0
  161.8830  210.2640  149.7710 C   0  0  0  0  0  0  0  0  0  0  0  0
  160.8310  209.0470  153.9900 C   0  0  0  0  0  0  0  0  0  0  0  0
  161.3760  208.5660  151.9030 N   0  0  0  0  0  0  0  0  0  0  0  0
  161.5620  208.3600  148.2580 C   0  0  0  0  0  3  0  0  0  0  0  0
  161.3890  212.6320  146.8370 C   0  0  0  0  0  0  0  0  0  0  0  0
  162.7060  212.9990  146.5570 C   0  0  0  0  0  3  0  0  0  0  0  0
  162.1580  211.2290  148.6730 C   0  0  0  0  0  0  0  0  0  0  0  0
  163.7530  212.4820  147.3240 C   0  0  0  0  0  3  0  0  0  0  0  0
  161.1170  211.7470  147.8850 C   0  0  0  0  0  3  0  0  0  0  0  0
  163.4800  211.5990  148.3730 C   0  0  0  0  0  3  0  0  0  0  0  0
  160.2750  213.1770  146.0190 C   0  0  0  0  0  1  0  0  0  0  0  0
  160.4360  208.8660  155.4130 C   0  0  0  0  0  2  0  0  0  0  0  0
  160.4530  210.1520  156.0920 N   0  0  0  0  0  2  0  0  0  0  0  0
  160.4650  212.7540  157.2610 O   0  0  0  0  0  0  0  0  0  0  0  0
  159.2950  210.9830  156.1860 C   0  0  0  0  0  0  0  0  0  0  0  0
  159.3610  212.2650  156.9040 C   0  0  0  0  0  0  0  0  0  0  0  0
  156.9170  212.2880  156.9790 C   0  0  0  0  0  2  0  0  0  0  0  0
  156.9620  211.4490  155.6990 C   0  0  0  0  0  2  0  0  0  0  0  0
  158.1580  210.5990  155.6800 N   0  0  0  0  0  0  0  0  0  0  0  0
  158.1710  212.9390  157.1780 O   0  0  0  0  0  0  0  0  0  0  0  0
  1  8  1  0  0  0  0
  2 13  1  0  0  0  0
  3 17  1  0  0  0  0
  4  9  2  0  0  0  0
  5  6  2  0  0  0  0
  6  2  1  0  0  0  0
  7 16  2  0  0  0  0
  8  3  1  0  0  0  0
  8  2  2  0  0  0  0
  9 16  1  0  0  0  0
 10  1  2  0  0  0  0
 10  5  1  0  0  0  0
 11 15  1  0  0  0  0
 11  3  2  0  0  0  0
 12 18  2  0  0  0  0
 12  1  1  0  0  0  0
 14  4  1  0  0  0  0
 15 14  2  0  0  0  0
 16 26  1  0  0  0  0
 17  4  1  0  0  0  0
 17  7  1  0  0  0  0
 18 11  1  0  0  0  0
 19 23  1  0  0  0  0
 20 19  2  0  0  0  0
 20 22  1  0  0  0  0
 21 15  1  0  0  0  0
 22 24  2  0  0  0  0
 23 21  2  0  0  0  0
 24 21  1  0  0  0  0
 25 19  1  0  0  0  0
 26 27  1  0  0  0  0
 27 29  1  0  0  0  0
 29 30  1  0  0  0  0
 30 34  1  0  0  0  0
 30 28  2  0  0  0  0
 31 34  1  0  0  0  0
 32 31  1  0  0  0  0
 33 32  1  0  0  0  0
 33 29  2  0  0  0  0
M  END
>  <MODEL>
8

>  <REMARK>
 VINA RESULT:      -8.1      2.500      5.524
  Name = 
  3 active torsions:
  status: ('A' for Active; 'I' for Inactive)
    1  A    between atoms: N_3  and  C_17
    2  A    between atoms: C_12  and  C_28
    3  A    between atoms: C_17  and  C_29
                            x       y       z     vdW  Elec       q    Type
                         _______ _______ _______ _____ _____    ______ ____

>  <TORSDO>
F 3

$$$$
=
 OpenBabel11042422103D

 34 39  0  0  0  0  0  0  0  0999 V2000
  160.3000  213.4950  149.7150 C   0  0  0  0  0  0  0  0  0  0  0  0
  161.8610  212.4840  148.1990 C   0  0  0  0  0  0  0  0  0  0  0  0
  161.2300  211.3280  150.3690 C   0  0  0  0  0  0  0  0  0  0  0  0
  161.8050  209.0960  151.0080 C   0  0  0  0  0  0  0  0  0  0  0  0
  160.6810  214.4210  147.6050 N   0  0  0  0  0  0  0  0  0  0  0  0
  161.5810  213.4820  147.3250 N   0  0  0  0  0  0  0  0  0  0  0  0
  161.8880  209.4710  148.8830 C   0  0  0  0  0  3  0  0  0  0  0  0
  161.1320  212.3920  149.4110 C   0  0  0  0  0  0  0  0  0  0  0  0
  162.1830  207.8860  150.4650 C   0  0  0  0  0  3  0  0  0  0  0  0
  160.0700  214.4520  148.7850 N   0  0  0  0  0  0  0  0  0  0  0  0
  160.7520  211.5530  151.6980 C   0  0  0  0  0  0  0  0  0  0  0  0
  159.7490  213.6430  150.9820 C   0  0  0  0  0  3  0  0  0  0  0  0
  163.0310  211.7090  147.9600 N   0  0  0  0  0  1  0  0  0  0  0  0
  161.4860  209.3210  152.3370 C   0  0  0  0  0  3  0  0  0  0  0  0
  160.9560  210.5660  152.7050 C   0  0  0  0  0  0  0  0  0  0  0  0
  162.2250  208.1500  149.1080 C   0  0  0  0  0  0  0  0  0  0  0  0
  161.6660  210.0570  150.0750 N   0  0  0  0  0  0  0  0  0  0  0  0
  160.0010  212.7020  151.9700 C   0  0  0  0  0  3  0  0  0  0  0  0
  158.9430  211.2060  155.8670 C   0  0  0  0  0  0  0  0  0  0  0  0
  159.9510  211.2340  156.8320 C   0  0  0  0  0  3  0  0  0  0  0  0
  160.5980  210.7740  154.1330 C   0  0  0  0  0  0  0  0  0  0  0  0
  161.2820  211.0410  156.4560 C   0  0  0  0  0  3  0  0  0  0  0  0
  159.2650  210.9830  154.5250 C   0  0  0  0  0  3  0  0  0  0  0  0
  161.6040  210.8160  155.1150 C   0  0  0  0  0  3  0  0  0  0  0  0
  157.5270  211.4170  156.2640 C   0  0  0  0  0  1  0  0  0  0  0  0
  162.6080  207.1720  148.0550 C   0  0  0  0  0  2  0  0  0  0  0  0
  162.1530  205.8430  148.4340 N   0  0  0  0  0  2  0  0  0  0  0  0
  161.0920  203.2900  149.1350 O   0  0  0  0  0  0  0  0  0  0  0  0
  161.6500  204.9060  147.4800 C   0  0  0  0  0  0  0  0  0  0  0  0
  161.2240  203.5660  147.9140 C   0  0  0  0  0  0  0  0  0  0  0  0
  161.3220  202.8390  145.5810 C   0  0  0  0  0  2  0  0  0  0  0  0
  161.0360  204.2970  145.2110 C   0  0  0  0  0  2  0  0  0  0  0  0
  161.6040  205.2050  146.2130 N   0  0  0  0  0  0  0  0  0  0  0  0
  160.9600  202.6020  146.9410 O   0  0  0  0  0  0  0  0  0  0  0  0
  1 12  1  0  0  0  0
  2  8  1  0  0  0  0
  3 11  2  0  0  0  0
  4 14  1  0  0  0  0
  5 10  2  0  0  0  0
  6  5  1  0  0  0  0
  6  2  2  0  0  0  0
  7 16  2  0  0  0  0
  7 17  1  0  0  0  0
  8  1  2  0  0  0  0
  8  3  1  0  0  0  0
  9  4  2  0  0  0  0
 10  1  1  0  0  0  0
 11 18  1  0  0  0  0
 11 15  1  0  0  0  0
 12 18  2  0  0  0  0
 13  2  1  0  0  0  0
 14 15  2  0  0  0  0
 15 21  1  0  0  0  0
 16  9  1  0  0  0  0
 17  3  1  0  0  0  0
 17  4  1  0  0  0  0
 19 25  1  0  0  0  0
 19 20  1  0  0  0  0
 21 23  1  0  0  0  0
 21 24  2  0  0  0  0
 22 20  2  0  0  0  0
 23 19  2  0  0  0  0
 24 22  1  0  0  0  0
 26 27  1  0  0  0  0
 26 16  1  0  0  0  0
 29 30  1  0  0  0  0
 29 27  1  0  0  0  0
 30 28  2  0  0  0  0
 31 34  1  0  0  0  0
 32 31  1  0  0  0  0
 32 33  1  0  0  0  0
 33 29  2  0  0  0  0
 34 30  1  0  0  0  0
M  END
>  <MODEL>
9

>  <REMARK>
 VINA RESULT:      -8.0      3.704      8.628
  Name = 
  3 active torsions:
  status: ('A' for Active; 'I' for Inactive)
    1  A    between atoms: N_3  and  C_17
    2  A    between atoms: C_12  and  C_28
    3  A    between atoms: C_17  and  C_29
                            x       y       z     vdW  Elec       q    Type
                         _______ _______ _______ _____ _____    ______ ____

>  <TORSDO>
F 3

$$$$
