=
 OpenBabel11042420183D

 51 54  0  0  1  0  0  0  0  0999 V2000
  161.4130  208.5360  152.0820 C   0  0  0  0  0  0  0  0  0  0  0  0
  161.9540  209.4680  149.8440 C   0  0  0  0  0  0  0  0  0  0  0  0
  161.7020  210.0470  151.4080 S   0  0  0  0  0  0  0  0  0  0  0  0
  161.5020  207.5490  151.1110 C   0  0  0  0  0  3  0  0  0  0  0  0
  161.1130  208.3240  153.3320 C   0  0  0  0  0  0  0  0  0  0  0  0
  161.8140  208.0800  149.8500 C   0  0  0  0  0  0  0  0  0  0  0  0
  160.8100  208.1170  154.5840 C   0  0  0  0  0  3  0  0  0  0  0  0
  162.2390  210.2080  148.7720 C   0  0  0  0  0  3  0  0  0  0  0  0
  161.4630  208.9100  155.6620 C   0  0  2  0  0  3  0  0  0  0  0  0
  162.0960  208.0590  156.5500 F   0  0  0  0  0  0  0  0  0  0  0  0
  160.4260  209.7250  156.4080 C   0  0  0  0  0  2  0  0  0  0  0  0
  160.6210  211.0950  156.1590 O   0  0  0  0  0  0  0  0  0  0  0  0
  159.4890  213.1220  155.4630 C   0  0  0  0  0  1  0  0  0  0  0  0
  159.5880  211.1780  154.1460 F   0  0  0  0  0  0  0  0  0  0  0  0
  159.5020  211.5970  155.4590 C   0  0  0  0  0  0  0  0  0  0  0  0
  158.3120  211.1120  155.9850 F   0  0  0  0  0  0  0  0  0  0  0  0
  162.3770  211.6920  148.8330 C   0  0  0  0  0  2  0  0  0  0  0  0
  161.2440  213.4890  147.5720 C   0  0  1  0  0  3  0  0  0  0  0  0
  161.0590  213.7660  149.0530 C   0  0  0  0  0  2  0  0  0  0  0  0
  161.0400  212.3410  148.5480 C   0  0  2  0  0  3  0  0  0  0  0  0
  159.9740  213.7960  146.8340 C   0  0  0  0  0  0  0  0  0  0  0  0
  159.8200  213.4490  145.4570 N   0  0  0  0  0  2  0  0  0  0  0  0
  159.0040  214.3240  147.4440 O   0  0  0  0  0  0  0  0  0  0  0  0
  160.8750  212.8090  144.6840 C   0  0  0  0  0  2  0  0  0  0  0  0
  160.4990  212.7670  143.2120 C   0  0  0  0  0  2  0  0  0  0  0  0
  161.6650  211.5920  140.0510 C   0  0  2  0  0  3  0  0  0  0  0  0
  162.7250  212.5870  140.4830 C   0  0  0  0  0  2  0  0  0  0  0  0
  162.3070  213.1760  141.6850 O   0  0  0  0  0  0  0  0  0  0  0  0
  161.6140  212.1650  142.3720 C   0  0  2  0  0  3  0  0  0  0  0  0
  161.0190  211.2120  141.3600 C   0  0  0  0  0  2  0  0  0  0  0  0
  161.6560  208.1370  139.0130 C   0  0  0  0  0  2  0  0  0  0  0  0
  161.7490  210.3330  138.0390 C   0  0  0  0  0  2  0  0  0  0  0  0
  162.2690  210.4250  139.4000 N   0  0  0  0  0  0  0  0  0  0  0  0
  161.7740  209.2200  140.0600 C   0  0  0  0  0  2  0  0  0  0  0  0
  161.6100  208.8660  137.6940 C   0  0  0  0  0  2  0  0  0  0  0  0
  161.9250  207.2230  148.6290 C   0  0  0  0  0  2  0  0  0  0  0  0
  160.6210  206.4900  148.3690 C   0  0  0  0  0  2  0  0  0  0  0  0
  160.6300  205.9280  147.0260 N   0  0  0  0  0  2  0  0  0  0  0  0
  161.4300  204.8080  146.6370 C   0  0  0  0  0  0  0  0  0  0  0  0
  162.0720  204.7140  145.1310 S   0  0  0  0  0  0  0  0  0  0  0  0
  161.6880  203.7430  147.5570 N   0  0  0  0  0  2  0  0  0  0  0  0
  161.1930  202.4050  147.4410 C   0  0  0  0  0  0  0  0  0  0  0  0
  160.4670  202.0630  146.4680 O   0  0  0  0  0  0  0  0  0  0  0  0
  161.5480  201.4080  148.4980 C   0  0  2  0  0  3  0  0  0  0  0  0
  161.6280  200.0220  147.8760 C   0  0  0  0  0  1  0  0  0  0  0  0
  160.5460  201.4410  149.6590 C   0  0  2  0  0  3  0  0  0  0  0  0
  159.2960  201.8780  149.2120 O   0  0  0  0  0  1  0  0  0  0  0  0
  161.8130  201.9020  151.5860 O   0  0  0  0  0  0  0  0  0  0  0  0
  161.0130  202.3320  150.7720 C   0  0  0  0  0  0  0  0  0  0  0  0
  160.4950  203.7270  150.9040 C   0  0  0  0  0  2  0  0  0  0  0  0
  160.9250  204.2790  152.1110 O   0  0  0  0  0  1  0  0  0  0  0  0
  1  5  2  0  0  0  0
  2  6  1  0  0  0  0
  2  3  1  0  0  0  0
  3  1  1  0  0  0  0
  4  1  1  0  0  0  0
  5  7  2  0  0  0  0
  6  4  2  0  0  0  0
  7  9  1  0  0  0  0
  8 17  1  0  0  0  0
  8  2  2  0  0  0  0
  9 11  1  0  0  0  0
  9 10  1  1  0  0  0
 12 11  1  0  0  0  0
 14 15  1  0  0  0  0
 15 13  1  0  0  0  0
 15 16  1  0  0  0  0
 15 12  1  0  0  0  0
 18 21  1  6  0  0  0
 18 20  1  0  0  0  0
 18 19  1  0  0  0  0
 20 17  1  1  0  0  0
 20 19  1  0  0  0  0
 21 23  2  0  0  0  0
 22 21  1  0  0  0  0
 24 22  1  0  0  0  0
 25 24  1  0  0  0  0
 26 33  1  1  0  0  0
 26 27  1  0  0  0  0
 26 30  1  0  0  0  0
 27 28  1  0  0  0  0
 28 29  1  0  0  0  0
 29 25  1  6  0  0  0
 30 29  1  0  0  0  0
 31 34  1  0  0  0  0
 32 33  1  0  0  0  0
 33 34  1  0  0  0  0
 35 32  1  0  0  0  0
 35 31  1  0  0  0  0
 36  6  1  0  0  0  0
 37 36  1  0  0  0  0
 38 37  1  0  0  0  0
 39 38  1  0  0  0  0
 39 41  1  0  0  0  0
 40 39  2  0  0  0  0
 42 41  1  0  0  0  0
 42 44  1  0  0  0  0
 43 42  2  0  0  0  0
 44 45  1  6  0  0  0
 44 46  1  0  0  0  0
 46 47  1  6  0  0  0
 46 49  1  0  0  0  0
 49 50  1  0  0  0  0
 49 48  2  0  0  0  0
 50 51  1  0  0  0  0
M  END
>  <MODEL>
1

>  <REMARK>
 VINA RESULT:      -7.4      0.000      0.000
  Name = 
  20 active torsions:
  status: ('A' for Active; 'I' for Inactive)
    1  A    between atoms: C_1  and  N_30
    2  A    between atoms: C_1  and  C_40
    3  A    between atoms: C_4  and  N_8
    4  A    between atoms: C_4  and  N_30
    5  A    between atoms: C_5  and  C_23
    6  A    between atoms: C_5  and  C_44
    7  A    between atoms: C_6  and  C_9
    8  A    between atoms: N_12  and  C_38
    9  A    between atoms: C_13  and  N_18
   10  A    between atoms: C_14  and  C_15
   11  A    between atoms: C_14  and  C_24
   12  A    between atoms: C_15  and  C_17
   13  A    between atoms: C_17  and  C_25
   14  A    between atoms: C_19  and  C_46
   15  A    between atoms: C_19  and  C_49
   16  A    between atoms: C_23  and  O_35
   17  A    between atoms: C_32  and  C_36
   18  A    between atoms: C_32  and  C_38
   19  A    between atoms: C_33  and  O_35
   20  A    between atoms: C_39  and  C_40
                            x       y       z     vdW  Elec       q    Type
                         _______ _______ _______ _____ _____    ______ ____

>  <TORSDO>
F 20

$$$$
=
 OpenBabel11042420183D

 51 54  0  0  1  0  0  0  0  0999 V2000
  161.5060  213.2230  147.0150 C   0  0  0  0  0  0  0  0  0  0  0  0
  161.4270  212.2720  149.3080 C   0  0  0  0  0  0  0  0  0  0  0  0
  161.8880  211.7710  147.7650 S   0  0  0  0  0  0  0  0  0  0  0  0
  161.0090  214.1290  147.9400 C   0  0  0  0  0  2  0  0  0  0  0  0
  161.6250  213.4550  145.7380 C   0  0  0  0  0  0  0  0  0  0  0  0
  160.9730  213.5890  149.2350 C   0  0  0  0  0  0  0  0  0  0  0  0
  161.7440  213.6820  144.4590 C   0  0  0  0  0  3  0  0  0  0  0  0
  161.4810  211.5380  150.4200 C   0  0  0  0  0  2  0  0  0  0  0  0
  162.9040  213.1390  143.6980 C   0  0  2  0  0  3  0  0  0  0  0  0
  164.0510  213.8340  144.0380 F   0  0  0  0  0  0  0  0  0  0  0  0
  162.6610  213.2790  142.2090 C   0  0  0  0  0  2  0  0  0  0  0  0
  161.2920  213.1290  141.9290 O   0  0  0  0  0  0  0  0  0  0  0  0
  160.3930  211.9430  140.0160 C   0  0  0  0  0  1  0  0  0  0  0  0
  162.3000  211.2400  141.1950 F   0  0  0  0  0  0  0  0  0  0  0  0
  161.0730  211.8480  141.3780 C   0  0  0  0  0  0  0  0  0  0  0  0
  160.3220  211.0480  142.2280 F   0  0  0  0  0  0  0  0  0  0  0  0
  161.9800  210.1320  150.4310 C   0  0  0  0  0  2  0  0  0  0  0  0
  160.8190  208.5610  151.9420 C   0  0  1  0  0  3  0  0  0  0  0  0
  160.6210  209.9650  152.4830 C   0  0  0  0  0  2  0  0  0  0  0  0
  161.9370  209.5860  151.8420 C   0  0  2  0  0  3  0  0  0  0  0  0
  161.0670  207.6090  153.0760 C   0  0  0  0  0  0  0  0  0  0  0  0
  161.5250  206.2780  152.8330 N   0  0  0  0  0  2  0  0  0  0  0  0
  160.9180  207.9970  154.2670 O   0  0  0  0  0  0  0  0  0  0  0  0
  161.7540  205.7560  151.4930 C   0  0  0  0  0  2  0  0  0  0  0  0
  160.6880  204.7340  151.1350 C   0  0  0  0  0  2  0  0  0  0  0  0
  162.1810  204.7320  147.8950 C   0  0  2  0  0  3  0  0  0  0  0  0
  161.4250  203.4190  147.9480 C   0  0  0  0  0  2  0  0  0  0  0  0
  160.8730  203.2840  149.2290 O   0  0  0  0  0  0  0  0  0  0  0  0
  160.5410  204.5900  149.6290 C   0  0  2  0  0  3  0  0  0  0  0  0
  161.4760  205.5590  148.9400 C   0  0  0  0  0  2  0  0  0  0  0  0
  160.8750  204.9130  144.5370 C   0  0  0  0  0  2  0  0  0  0  0  0
  160.8960  206.2160  146.5560 C   0  0  0  0  0  2  0  0  0  0  0  0
  162.0730  205.3510  146.5690 N   0  0  0  0  0  0  0  0  0  0  0  0
  161.7670  204.3070  145.5960 C   0  0  0  0  0  2  0  0  0  0  0  0
  160.2830  206.1440  145.1750 C   0  0  0  0  0  2  0  0  0  0  0  0
  160.4380  214.3560  150.4040 C   0  0  0  0  0  2  0  0  0  0  0  0
  159.4060  213.5350  151.1560 C   0  0  0  0  0  2  0  0  0  0  0  0
  158.7490  214.3650  152.1550 N   0  0  0  0  0  2  0  0  0  0  0  0
  157.4060  214.1600  152.6030 C   0  0  0  0  0  0  0  0  0  0  0  0
  156.1330  214.4490  151.6120 S   0  0  0  0  0  0  0  0  0  0  0  0
  157.1450  213.6950  153.9320 N   0  0  0  0  0  2  0  0  0  0  0  0
  157.4220  212.3800  154.4220 C   0  0  0  0  0  0  0  0  0  0  0  0
  157.9460  211.5060  153.6790 O   0  0  0  0  0  0  0  0  0  0  0  0
  157.0800  212.0490  155.8400 C   0  0  2  0  0  3  0  0  0  0  0  0
  155.6920  212.5830  156.1610 C   0  0  0  0  0  1  0  0  0  0  0  0
  158.1280  212.6010  156.8130 C   0  0  2  0  0  3  0  0  0  0  0  0
  158.4600  213.9170  156.4780 O   0  0  0  0  0  1  0  0  0  0  0  0
  159.3230  210.6240  157.2560 O   0  0  0  0  0  0  0  0  0  0  0  0
  159.3730  211.7640  156.8250 C   0  0  0  0  0  0  0  0  0  0  0  0
  160.6720  212.3160  156.3340 C   0  0  0  0  0  2  0  0  0  0  0  0
  161.2760  211.4050  155.4680 O   0  0  0  0  0  1  0  0  0  0  0  0
  1  3  1  0  0  0  0
  1  4  1  0  0  0  0
  2  8  1  0  0  0  0
  3  2  1  0  0  0  0
  4  6  1  0  0  0  0
  5  1  2  0  0  0  0
  6  2  2  0  0  0  0
  6 36  1  0  0  0  0
  7  5  2  0  0  0  0
  8 17  1  0  0  0  0
  9 10  1  1  0  0  0
  9  7  1  0  0  0  0
 11  9  1  0  0  0  0
 12 11  1  0  0  0  0
 13 15  1  0  0  0  0
 14 15  1  0  0  0  0
 15 12  1  0  0  0  0
 15 16  1  0  0  0  0
 18 19  1  0  0  0  0
 18 21  1  1  0  0  0
 20 17  1  6  0  0  0
 20 18  1  0  0  0  0
 20 19  1  0  0  0  0
 21 23  2  0  0  0  0
 22 21  1  0  0  0  0
 24 22  1  0  0  0  0
 25 24  1  0  0  0  0
 26 33  1  6  0  0  0
 26 27  1  0  0  0  0
 26 30  1  0  0  0  0
 27 28  1  0  0  0  0
 28 29  1  0  0  0  0
 29 25  1  1  0  0  0
 30 29  1  0  0  0  0
 31 35  1  0  0  0  0
 31 34  1  0  0  0  0
 32 33  1  0  0  0  0
 34 33  1  0  0  0  0
 35 32  1  0  0  0  0
 36 37  1  0  0  0  0
 37 38  1  0  0  0  0
 38 39  1  0  0  0  0
 39 41  1  0  0  0  0
 40 39  2  0  0  0  0
 41 42  1  0  0  0  0
 42 44  1  0  0  0  0
 43 42  2  0  0  0  0
 44 45  1  1  0  0  0
 44 46  1  0  0  0  0
 46 47  1  6  0  0  0
 46 49  1  0  0  0  0
 49 48  2  0  0  0  0
 50 49  1  0  0  0  0
 51 50  1  0  0  0  0
M  END
>  <MODEL>
2

>  <REMARK>
 VINA RESULT:      -6.6      4.246     10.610
  Name = 
  20 active torsions:
  status: ('A' for Active; 'I' for Inactive)
    1  A    between atoms: C_1  and  N_30
    2  A    between atoms: C_1  and  C_40
    3  A    between atoms: C_4  and  N_8
    4  A    between atoms: C_4  and  N_30
    5  A    between atoms: C_5  and  C_23
    6  A    between atoms: C_5  and  C_44
    7  A    between atoms: C_6  and  C_9
    8  A    between atoms: N_12  and  C_38
    9  A    between atoms: C_13  and  N_18
   10  A    between atoms: C_14  and  C_15
   11  A    between atoms: C_14  and  C_24
   12  A    between atoms: C_15  and  C_17
   13  A    between atoms: C_17  and  C_25
   14  A    between atoms: C_19  and  C_46
   15  A    between atoms: C_19  and  C_49
   16  A    between atoms: C_23  and  O_35
   17  A    between atoms: C_32  and  C_36
   18  A    between atoms: C_32  and  C_38
   19  A    between atoms: C_33  and  O_35
   20  A    between atoms: C_39  and  C_40
                            x       y       z     vdW  Elec       q    Type
                         _______ _______ _______ _____ _____    ______ ____

>  <TORSDO>
F 20

$$$$
=
 OpenBabel11042420183D

 51 54  0  0  1  0  0  0  0  0999 V2000
  161.6610  207.3460  150.4540 C   0  0  0  0  0  0  0  0  0  0  0  0
  162.0240  209.7910  150.2070 C   0  0  0  0  0  0  0  0  0  0  0  0
  161.9770  208.4300  149.2110 S   0  0  0  0  0  0  0  0  0  0  0  0
  161.5890  208.0110  151.6690 C   0  0  0  0  0  3  0  0  0  0  0  0
  161.5380  206.0570  150.3040 C   0  0  0  0  0  0  0  0  0  0  0  0
  161.7870  209.3930  151.5230 C   0  0  0  0  0  0  0  0  0  0  0  0
  161.4190  204.7670  150.1490 C   0  0  0  0  0  3  0  0  0  0  0  0
  162.2510  211.0440  149.8100 C   0  0  0  0  0  3  0  0  0  0  0  0
  160.7250  204.2090  148.9550 C   0  0  2  0  0  3  0  0  0  0  0  0
  160.5280  202.8510  149.1220 F   0  0  0  0  0  0  0  0  0  0  0  0
  161.5610  204.4420  147.7120 C   0  0  0  0  0  2  0  0  0  0  0  0
  161.0310  205.5090  146.9680 O   0  0  0  0  0  0  0  0  0  0  0  0
  161.2080  203.8710  145.1910 C   0  0  0  0  0  1  0  0  0  0  0  0
  160.4890  206.0820  144.8460 F   0  0  0  0  0  0  0  0  0  0  0  0
  161.3630  205.3300  145.6080 C   0  0  0  0  0  0  0  0  0  0  0  0
  162.6520  205.7670  145.3350 F   0  0  0  0  0  0  0  0  0  0  0  0
  162.4950  211.4040  148.3840 C   0  0  0  0  0  2  0  0  0  0  0  0
  161.5700  212.8140  146.5800 C   0  0  1  0  0  3  0  0  0  0  0  0
  161.1760  213.4330  147.9080 C   0  0  0  0  0  2  0  0  0  0  0  0
  161.2180  211.9290  147.7640 C   0  0  2  0  0  3  0  0  0  0  0  0
  160.4210  212.9010  145.6180 C   0  0  0  0  0  0  0  0  0  0  0  0
  160.6380  212.8640  144.2060 N   0  0  0  0  0  2  0  0  0  0  0  0
  159.2380  212.9590  146.0530 O   0  0  0  0  0  0  0  0  0  0  0  0
  161.9660  212.7660  143.6170 C   0  0  0  0  0  2  0  0  0  0  0  0
  161.9650  213.3530  142.2150 C   0  0  0  0  0  2  0  0  0  0  0  0
  160.8880  212.4540  138.9340 C   0  0  2  0  0  3  0  0  0  0  0  0
  162.2700  211.8420  139.0430 C   0  0  0  0  0  2  0  0  0  0  0  0
  162.8190  212.2210  140.2760 O   0  0  0  0  0  0  0  0  0  0  0  0
  161.7310  212.2790  141.1650 C   0  0  2  0  0  3  0  0  0  0  0  0
  160.4830  212.6110  140.3790 C   0  0  0  0  0  2  0  0  0  0  0  0
  159.4060  209.2290  138.2890 C   0  0  0  0  0  2  0  0  0  0  0  0
  158.7480  211.4240  139.0110 C   0  0  0  0  0  2  0  0  0  0  0  0
  159.9690  211.5610  138.2210 N   0  0  0  0  0  0  0  0  0  0  0  0
  160.5440  210.2190  138.2090 C   0  0  0  0  0  2  0  0  0  0  0  0
  158.2410  210.0090  138.8410 C   0  0  0  0  0  2  0  0  0  0  0  0
  161.7970  210.3250  152.6930 C   0  0  0  0  0  2  0  0  0  0  0  0
  160.4830  210.2470  153.4510 C   0  0  0  0  0  2  0  0  0  0  0  0
  160.7090  209.6770  154.7710 N   0  0  0  0  0  2  0  0  0  0  0  0
  159.7390  209.6920  155.8220 C   0  0  0  0  0  0  0  0  0  0  0  0
  160.0300  208.9380  157.2480 S   0  0  0  0  0  0  0  0  0  0  0  0
  158.4890  210.3680  155.6490 N   0  0  0  0  0  2  0  0  0  0  0  0
  158.0710  211.5370  156.3600 C   0  0  0  0  0  0  0  0  0  0  0  0
  158.8180  212.0760  157.2230 O   0  0  0  0  0  0  0  0  0  0  0  0
  156.7250  212.1190  156.0680 C   0  0  2  0  0  3  0  0  0  0  0  0
  155.8770  211.0880  155.3390 C   0  0  0  0  0  1  0  0  0  0  0  0
  156.8390  213.4180  155.2610 C   0  0  2  0  0  3  0  0  0  0  0  0
  155.6420  213.6820  154.5890 O   0  0  0  0  0  1  0  0  0  0  0  0
  159.0500  213.8250  154.5680 O   0  0  0  0  0  0  0  0  0  0  0  0
  157.9630  213.3610  154.2690 C   0  0  0  0  0  0  0  0  0  0  0  0
  157.7590  212.7600  152.9160 C   0  0  0  0  0  2  0  0  0  0  0  0
  158.6960  213.2790  152.0220 O   0  0  0  0  0  1  0  0  0  0  0  0
  1  4  1  0  0  0  0
  2  6  1  0  0  0  0
  3  2  1  0  0  0  0
  3  1  1  0  0  0  0
  5  1  2  0  0  0  0
  6  4  2  0  0  0  0
  6 36  1  0  0  0  0
  7  5  2  0  0  0  0
  8  2  2  0  0  0  0
  9 10  1  1  0  0  0
  9  7  1  0  0  0  0
 11  9  1  0  0  0  0
 12 11  1  0  0  0  0
 13 15  1  0  0  0  0
 14 15  1  0  0  0  0
 15 12  1  0  0  0  0
 16 15  1  0  0  0  0
 17  8  1  0  0  0  0
 18 21  1  6  0  0  0
 18 20  1  0  0  0  0
 18 19  1  0  0  0  0
 20 19  1  0  0  0  0
 20 17  1  1  0  0  0
 21 23  2  0  0  0  0
 22 21  1  0  0  0  0
 24 22  1  0  0  0  0
 25 24  1  0  0  0  0
 26 33  1  6  0  0  0
 26 27  1  0  0  0  0
 26 30  1  0  0  0  0
 27 28  1  0  0  0  0
 28 29  1  0  0  0  0
 29 25  1  1  0  0  0
 30 29  1  0  0  0  0
 31 35  1  0  0  0  0
 33 32  1  0  0  0  0
 34 33  1  0  0  0  0
 34 31  1  0  0  0  0
 35 32  1  0  0  0  0
 36 37  1  0  0  0  0
 37 38  1  0  0  0  0
 38 39  1  0  0  0  0
 39 40  2  0  0  0  0
 41 39  1  0  0  0  0
 41 42  1  0  0  0  0
 42 43  2  0  0  0  0
 44 45  1  6  0  0  0
 44 42  1  0  0  0  0
 46 47  1  6  0  0  0
 46 44  1  0  0  0  0
 49 48  2  0  0  0  0
 49 46  1  0  0  0  0
 50 49  1  0  0  0  0
 51 50  1  0  0  0  0
M  END
>  <MODEL>
3

>  <REMARK>
 VINA RESULT:      -6.5      3.846      8.059
  Name = 
  20 active torsions:
  status: ('A' for Active; 'I' for Inactive)
    1  A    between atoms: C_1  and  N_30
    2  A    between atoms: C_1  and  C_40
    3  A    between atoms: C_4  and  N_8
    4  A    between atoms: C_4  and  N_30
    5  A    between atoms: C_5  and  C_23
    6  A    between atoms: C_5  and  C_44
    7  A    between atoms: C_6  and  C_9
    8  A    between atoms: N_12  and  C_38
    9  A    between atoms: C_13  and  N_18
   10  A    between atoms: C_14  and  C_15
   11  A    between atoms: C_14  and  C_24
   12  A    between atoms: C_15  and  C_17
   13  A    between atoms: C_17  and  C_25
   14  A    between atoms: C_19  and  C_46
   15  A    between atoms: C_19  and  C_49
   16  A    between atoms: C_23  and  O_35
   17  A    between atoms: C_32  and  C_36
   18  A    between atoms: C_32  and  C_38
   19  A    between atoms: C_33  and  O_35
   20  A    between atoms: C_39  and  C_40
                            x       y       z     vdW  Elec       q    Type
                         _______ _______ _______ _____ _____    ______ ____

>  <TORSDO>
F 20

$$$$
=
 OpenBabel11042420183D

 51 54  0  0  1  0  0  0  0  0999 V2000
  161.5710  208.3700  150.2780 C   0  0  0  0  0  0  0  0  0  0  0  0
  161.6830  210.7790  149.6830 C   0  0  0  0  0  0  0  0  0  0  0  0
  161.9210  209.2940  148.9200 S   0  0  0  0  0  0  0  0  0  0  0  0
  161.2650  209.1900  151.3540 C   0  0  0  0  0  3  0  0  0  0  0  0
  161.6150  207.0690  150.3230 C   0  0  0  0  0  0  0  0  0  0  0  0
  161.3240  210.5500  151.0110 C   0  0  0  0  0  0  0  0  0  0  0  0
  161.6640  205.7650  150.3660 C   0  0  0  0  0  3  0  0  0  0  0  0
  161.8160  211.9800  149.1180 C   0  0  0  0  0  3  0  0  0  0  0  0
  161.1990  204.9530  149.2070 C   0  0  2  0  0  3  0  0  0  0  0  0
  160.0840  205.5420  148.6400 F   0  0  0  0  0  0  0  0  0  0  0  0
  160.8440  203.5520  149.6640 C   0  0  0  0  0  2  0  0  0  0  0  0
  161.6540  202.6110  149.0060 O   0  0  0  0  0  0  0  0  0  0  0  0
  160.7790  202.0130  146.8260 C   0  0  0  0  0  1  0  0  0  0  0  0
  161.3670  200.4320  148.4620 F   0  0  0  0  0  0  0  0  0  0  0  0
  160.8290  201.6960  148.3170 C   0  0  0  0  0  0  0  0  0  0  0  0
  159.5430  201.6760  148.8410 F   0  0  0  0  0  0  0  0  0  0  0  0
  162.2020  212.1570  147.6880 C   0  0  0  0  0  2  0  0  0  0  0  0
  161.0570  213.2250  145.7770 C   0  0  1  0  0  3  0  0  0  0  0  0
  160.1840  213.4020  147.0050 C   0  0  0  0  0  2  0  0  0  0  0  0
  160.9640  212.1210  146.8170 C   0  0  2  0  0  3  0  0  0  0  0  0
  160.2010  212.9100  144.5850 C   0  0  0  0  0  0  0  0  0  0  0  0
  160.7860  212.6400  143.3100 N   0  0  0  0  0  2  0  0  0  0  0  0
  158.9490  212.8320  144.7130 O   0  0  0  0  0  0  0  0  0  0  0  0
  162.2230  212.6770  143.0790 C   0  0  0  0  0  2  0  0  0  0  0  0
  162.5270  212.4410  141.6090 C   0  0  0  0  0  2  0  0  0  0  0  0
  160.9120  211.1610  138.6960 C   0  0  2  0  0  3  0  0  0  0  0  0
  161.4540  209.9230  139.3850 C   0  0  0  0  0  2  0  0  0  0  0  0
  162.1910  210.3350  140.5040 O   0  0  0  0  0  0  0  0  0  0  0  0
  161.5300  211.4780  140.9840 C   0  0  2  0  0  3  0  0  0  0  0  0
  160.8370  212.1590  139.8240 C   0  0  0  0  0  2  0  0  0  0  0  0
  157.4630  210.1280  138.9270 C   0  0  0  0  0  2  0  0  0  0  0  0
  158.7470  212.0800  138.3640 C   0  0  0  0  0  2  0  0  0  0  0  0
  159.5850  210.9090  138.1230 N   0  0  0  0  0  0  0  0  0  0  0  0
  158.9470  209.8430  138.8890 C   0  0  0  0  0  2  0  0  0  0  0  0
  157.3350  211.5970  138.6130 C   0  0  0  0  0  2  0  0  0  0  0  0
  161.0750  211.6350  152.0100 C   0  0  0  0  0  2  0  0  0  0  0  0
  159.5870  211.9130  152.1390 C   0  0  0  0  0  2  0  0  0  0  0  0
  159.3710  213.0200  153.0600 N   0  0  0  0  0  2  0  0  0  0  0  0
  159.1080  212.8550  154.4560 C   0  0  0  0  0  0  0  0  0  0  0  0
  157.7740  213.5120  155.1450 S   0  0  0  0  0  0  0  0  0  0  0  0
  160.0070  212.1100  155.2830 N   0  0  0  0  0  2  0  0  0  0  0  0
  159.7810  210.7850  155.7750 C   0  0  0  0  0  0  0  0  0  0  0  0
  158.7250  210.1580  155.4900 O   0  0  0  0  0  0  0  0  0  0  0  0
  160.8210  210.1470  156.6390 C   0  0  2  0  0  3  0  0  0  0  0  0
  161.6930  211.2270  157.2600 C   0  0  0  0  0  1  0  0  0  0  0  0
  161.6620  209.1360  155.8510 C   0  0  2  0  0  3  0  0  0  0  0  0
  162.0170  209.6630  154.6050 O   0  0  0  0  0  1  0  0  0  0  0  0
  160.5310  207.2240  156.6230 O   0  0  0  0  0  0  0  0  0  0  0  0
  160.9340  207.8400  155.6500 C   0  0  0  0  0  0  0  0  0  0  0  0
  160.7150  207.2890  154.2790 C   0  0  0  0  0  2  0  0  0  0  0  0
  161.2840  206.0190  154.1830 O   0  0  0  0  0  1  0  0  0  0  0  0
  1  5  2  0  0  0  0
  1  4  1  0  0  0  0
  2  6  1  0  0  0  0
  3  2  1  0  0  0  0
  3  1  1  0  0  0  0
  5  7  2  0  0  0  0
  6  4  2  0  0  0  0
  6 36  1  0  0  0  0
  8  2  2  0  0  0  0
  9 10  1  1  0  0  0
  9 11  1  0  0  0  0
  9  7  1  0  0  0  0
 12 11  1  0  0  0  0
 13 15  1  0  0  0  0
 15 14  1  0  0  0  0
 15 16  1  0  0  0  0
 15 12  1  0  0  0  0
 17  8  1  0  0  0  0
 18 21  1  6  0  0  0
 18 20  1  0  0  0  0
 18 19  1  0  0  0  0
 20 19  1  0  0  0  0
 20 17  1  1  0  0  0
 21 23  2  0  0  0  0
 22 21  1  0  0  0  0
 24 22  1  0  0  0  0
 25 24  1  0  0  0  0
 26 33  1  1  0  0  0
 26 27  1  0  0  0  0
 26 30  1  0  0  0  0
 27 28  1  0  0  0  0
 28 29  1  0  0  0  0
 29 25  1  6  0  0  0
 30 29  1  0  0  0  0
 32 35  1  0  0  0  0
 33 32  1  0  0  0  0
 33 34  1  0  0  0  0
 34 31  1  0  0  0  0
 35 31  1  0  0  0  0
 36 37  1  0  0  0  0
 37 38  1  0  0  0  0
 38 39  1  0  0  0  0
 39 40  2  0  0  0  0
 39 41  1  0  0  0  0
 41 42  1  0  0  0  0
 42 44  1  0  0  0  0
 43 42  2  0  0  0  0
 44 45  1  6  0  0  0
 46 47  1  6  0  0  0
 46 44  1  0  0  0  0
 49 46  1  0  0  0  0
 49 48  2  0  0  0  0
 50 49  1  0  0  0  0
 51 50  1  0  0  0  0
M  END
>  <MODEL>
4

>  <REMARK>
 VINA RESULT:      -6.2      3.687      7.416
  Name = 
  20 active torsions:
  status: ('A' for Active; 'I' for Inactive)
    1  A    between atoms: C_1  and  N_30
    2  A    between atoms: C_1  and  C_40
    3  A    between atoms: C_4  and  N_8
    4  A    between atoms: C_4  and  N_30
    5  A    between atoms: C_5  and  C_23
    6  A    between atoms: C_5  and  C_44
    7  A    between atoms: C_6  and  C_9
    8  A    between atoms: N_12  and  C_38
    9  A    between atoms: C_13  and  N_18
   10  A    between atoms: C_14  and  C_15
   11  A    between atoms: C_14  and  C_24
   12  A    between atoms: C_15  and  C_17
   13  A    between atoms: C_17  and  C_25
   14  A    between atoms: C_19  and  C_46
   15  A    between atoms: C_19  and  C_49
   16  A    between atoms: C_23  and  O_35
   17  A    between atoms: C_32  and  C_36
   18  A    between atoms: C_32  and  C_38
   19  A    between atoms: C_33  and  O_35
   20  A    between atoms: C_39  and  C_40
                            x       y       z     vdW  Elec       q    Type
                         _______ _______ _______ _____ _____    ______ ____

>  <TORSDO>
F 20

$$$$
=
 OpenBabel11042420183D

 51 54  0  0  1  0  0  0  0  0999 V2000
  161.8350  208.5760  148.7370 C   0  0  0  0  0  0  0  0  0  0  0  0
  161.5390  210.5210  150.2540 C   0  0  0  0  0  0  0  0  0  0  0  0
  161.2610  208.8570  150.2900 S   0  0  0  0  0  0  0  0  0  0  0  0
  162.2520  209.7640  148.1540 C   0  0  0  0  0  2  0  0  0  0  0  0
  161.8540  207.4130  148.1500 C   0  0  0  0  0  0  0  0  0  0  0  0
  162.0880  210.8580  149.0170 C   0  0  0  0  0  0  0  0  0  0  0  0
  161.8680  206.2470  147.5650 C   0  0  0  0  0  3  0  0  0  0  0  0
  161.2770  211.3800  151.2400 C   0  0  0  0  0  2  0  0  0  0  0  0
  162.2010  205.0170  148.3370 C   0  0  2  0  0  3  0  0  0  0  0  0
  162.5750  204.0080  147.4680 F   0  0  0  0  0  0  0  0  0  0  0  0
  160.9970  204.5630  149.1370 C   0  0  0  0  0  2  0  0  0  0  0  0
  160.4290  203.4220  148.5470 O   0  0  0  0  0  0  0  0  0  0  0  0
  160.8340  202.8050  150.8560 C   0  0  0  0  0  1  0  0  0  0  0  0
  159.3840  201.6210  149.4360 F   0  0  0  0  0  0  0  0  0  0  0  0
  160.5700  202.3300  149.4310 C   0  0  0  0  0  0  0  0  0  0  0  0
  161.5800  201.4700  149.0230 F   0  0  0  0  0  0  0  0  0  0  0  0
  160.6890  210.9530  152.5430 C   0  0  0  0  0  2  0  0  0  0  0  0
  158.5060  211.9420  153.1400 C   0  0  1  0  0  3  0  0  0  0  0  0
  159.2030  212.8880  152.1790 C   0  0  0  0  0  2  0  0  0  0  0  0
  160.0130  212.1330  153.2080 C   0  0  2  0  0  3  0  0  0  0  0  0
  157.8200  212.7290  154.2190 C   0  0  0  0  0  0  0  0  0  0  0  0
  157.6240  212.1760  155.5210 N   0  0  0  0  0  2  0  0  0  0  0  0
  157.4500  213.9140  153.9950 O   0  0  0  0  0  0  0  0  0  0  0  0
  158.0470  210.8280  155.8760 C   0  0  0  0  0  2  0  0  0  0  0  0
  158.9750  210.8670  157.0790 C   0  0  0  0  0  2  0  0  0  0  0  0
  161.0470  208.9410  154.9050 C   0  0  2  0  0  3  0  0  0  0  0  0
  162.0280  209.8100  155.6660 C   0  0  0  0  0  2  0  0  0  0  0  0
  161.2960  210.6760  156.4900 O   0  0  0  0  0  0  0  0  0  0  0  0
  160.1660  209.9420  156.8900 C   0  0  2  0  0  3  0  0  0  0  0  0
  159.8450  208.9260  155.8160 C   0  0  0  0  0  2  0  0  0  0  0  0
  160.7740  205.5140  153.8110 C   0  0  0  0  0  2  0  0  0  0  0  0
  162.0760  207.4780  153.3410 C   0  0  0  0  0  2  0  0  0  0  0  0
  161.5790  207.5880  154.7100 N   0  0  0  0  0  0  0  0  0  0  0  0
  160.4690  206.6410  154.7700 C   0  0  0  0  0  2  0  0  0  0  0  0
  161.8020  206.0700  152.8590 C   0  0  0  0  0  2  0  0  0  0  0  0
  162.4260  212.2560  148.6050 C   0  0  0  0  0  2  0  0  0  0  0  0
  162.1290  212.4670  147.1310 C   0  0  0  0  0  2  0  0  0  0  0  0
  161.1920  213.5680  146.9690 N   0  0  0  0  0  2  0  0  0  0  0  0
  160.5410  213.8870  145.7360 C   0  0  0  0  0  0  0  0  0  0  0  0
  159.0030  214.4520  145.7160 S   0  0  0  0  0  0  0  0  0  0  0  0
  161.2240  213.7190  144.4890 N   0  0  0  0  0  2  0  0  0  0  0  0
  161.0310  212.6360  143.5740 C   0  0  0  0  0  0  0  0  0  0  0  0
  160.2010  211.7190  143.8190 O   0  0  0  0  0  0  0  0  0  0  0  0
  161.8340  212.6020  142.3130 C   0  0  2  0  0  3  0  0  0  0  0  0
  162.9400  213.6430  142.3910 C   0  0  0  0  0  1  0  0  0  0  0  0
  160.9490  212.8220  141.0800 C   0  0  2  0  0  3  0  0  0  0  0  0
  159.7460  213.4340  141.4440 O   0  0  0  0  0  1  0  0  0  0  0  0
  159.5060  211.1230  140.3290 O   0  0  0  0  0  0  0  0  0  0  0  0
  160.6530  211.5330  140.3690 C   0  0  0  0  0  0  0  0  0  0  0  0
  161.7480  210.7430  139.7300 C   0  0  0  0  0  2  0  0  0  0  0  0
  162.7260  211.6050  139.2320 O   0  0  0  0  0  1  0  0  0  0  0  0
  1  3  1  0  0  0  0
  2  3  1  0  0  0  0
  2  8  1  0  0  0  0
  4  1  1  0  0  0  0
  4  6  1  0  0  0  0
  5  1  2  0  0  0  0
  6  2  2  0  0  0  0
  7  5  2  0  0  0  0
  7  9  1  0  0  0  0
  8 17  1  0  0  0  0
  9 10  1  6  0  0  0
  9 11  1  0  0  0  0
 12 11  1  0  0  0  0
 12 15  1  0  0  0  0
 15 14  1  0  0  0  0
 15 13  1  0  0  0  0
 16 15  1  0  0  0  0
 18 20  1  0  0  0  0
 18 21  1  1  0  0  0
 19 18  1  0  0  0  0
 19 20  1  0  0  0  0
 20 17  1  6  0  0  0
 21 22  1  0  0  0  0
 22 24  1  0  0  0  0
 23 21  2  0  0  0  0
 24 25  1  0  0  0  0
 26 33  1  1  0  0  0
 26 27  1  0  0  0  0
 26 30  1  0  0  0  0
 27 28  1  0  0  0  0
 28 29  1  0  0  0  0
 29 25  1  6  0  0  0
 30 29  1  0  0  0  0
 31 34  1  0  0  0  0
 32 33  1  0  0  0  0
 33 34  1  0  0  0  0
 35 32  1  0  0  0  0
 35 31  1  0  0  0  0
 36  6  1  0  0  0  0
 37 36  1  0  0  0  0
 38 37  1  0  0  0  0
 39 38  1  0  0  0  0
 40 39  2  0  0  0  0
 41 39  1  0  0  0  0
 42 43  2  0  0  0  0
 42 41  1  0  0  0  0
 44 45  1  1  0  0  0
 44 42  1  0  0  0  0
 46 47  1  1  0  0  0
 46 44  1  0  0  0  0
 48 49  2  0  0  0  0
 49 46  1  0  0  0  0
 50 49  1  0  0  0  0
 51 50  1  0  0  0  0
M  END
>  <MODEL>
5

>  <REMARK>
 VINA RESULT:      -5.4      3.710     11.013
  Name = 
  20 active torsions:
  status: ('A' for Active; 'I' for Inactive)
    1  A    between atoms: C_1  and  N_30
    2  A    between atoms: C_1  and  C_40
    3  A    between atoms: C_4  and  N_8
    4  A    between atoms: C_4  and  N_30
    5  A    between atoms: C_5  and  C_23
    6  A    between atoms: C_5  and  C_44
    7  A    between atoms: C_6  and  C_9
    8  A    between atoms: N_12  and  C_38
    9  A    between atoms: C_13  and  N_18
   10  A    between atoms: C_14  and  C_15
   11  A    between atoms: C_14  and  C_24
   12  A    between atoms: C_15  and  C_17
   13  A    between atoms: C_17  and  C_25
   14  A    between atoms: C_19  and  C_46
   15  A    between atoms: C_19  and  C_49
   16  A    between atoms: C_23  and  O_35
   17  A    between atoms: C_32  and  C_36
   18  A    between atoms: C_32  and  C_38
   19  A    between atoms: C_33  and  O_35
   20  A    between atoms: C_39  and  C_40
                            x       y       z     vdW  Elec       q    Type
                         _______ _______ _______ _____ _____    ______ ____

>  <TORSDO>
F 20

$$$$
=
 OpenBabel11042420183D

 51 54  0  0  1  0  0  0  0  0999 V2000
  160.4200  212.9530  150.4040 C   0  0  0  0  0  0  0  0  0  0  0  0
  161.6790  211.1610  149.2330 C   0  0  0  0  0  0  0  0  0  0  0  0
  160.7410  211.3200  150.6260 S   0  0  0  0  0  0  0  0  0  0  0  0
  161.0340  213.4140  149.2490 C   0  0  0  0  0  2  0  0  0  0  0  0
  159.7220  213.6920  151.2200 C   0  0  0  0  0  0  0  0  0  0  0  0
  161.7390  212.3960  148.5880 C   0  0  0  0  0  0  0  0  0  0  0  0
  159.0260  214.4280  152.0420 C   0  0  0  0  0  3  0  0  0  0  0  0
  162.2720  210.0430  148.8120 C   0  0  0  0  0  2  0  0  0  0  0  0
  157.8150  213.8770  152.7110 C   0  0  2  0  0  3  0  0  0  0  0  0
  156.6880  214.2010  151.9790 F   0  0  0  0  0  0  0  0  0  0  0  0
  157.6850  214.4530  154.1070 C   0  0  0  0  0  2  0  0  0  0  0  0
  156.8230  213.6560  154.8790 O   0  0  0  0  0  0  0  0  0  0  0  0
  157.2190  211.8940  156.4960 C   0  0  0  0  0  1  0  0  0  0  0  0
  158.8170  213.5270  155.9440 F   0  0  0  0  0  0  0  0  0  0  0  0
  157.4560  213.3480  156.1030 C   0  0  0  0  0  0  0  0  0  0  0  0
  157.0310  214.1900  157.1220 F   0  0  0  0  0  0  0  0  0  0  0  0
  162.1670  208.7500  149.5490 C   0  0  0  0  0  2  0  0  0  0  0  0
  162.3010  206.4550  148.6480 C   0  0  1  0  0  3  0  0  0  0  0  0
  162.3250  207.4200  147.4770 C   0  0  0  0  0  2  0  0  0  0  0  0
  161.4670  207.7250  148.6830 C   0  0  2  0  0  3  0  0  0  0  0  0
  161.4490  205.2660  148.3080 C   0  0  0  0  0  0  0  0  0  0  0  0
  160.9930  204.3730  149.3260 N   0  0  0  0  0  2  0  0  0  0  0  0
  161.0870  205.0710  147.1160 O   0  0  0  0  0  0  0  0  0  0  0  0
  161.3370  204.5390  150.7310 C   0  0  0  0  0  2  0  0  0  0  0  0
  160.6740  205.7860  151.2920 C   0  0  0  0  0  2  0  0  0  0  0  0
  160.7600  207.8160  154.2250 C   0  0  2  0  0  3  0  0  0  0  0  0
  161.2930  206.4760  154.6950 C   0  0  0  0  0  2  0  0  0  0  0  0
  161.2110  205.5760  153.6240 O   0  0  0  0  0  0  0  0  0  0  0  0
  161.4530  206.3450  152.4730 C   0  0  2  0  0  3  0  0  0  0  0  0
  161.0070  207.7660  152.7390 C   0  0  0  0  0  2  0  0  0  0  0  0
  161.0750  211.2380  155.3240 C   0  0  0  0  0  2  0  0  0  0  0  0
  161.0920  209.0190  156.2470 C   0  0  0  0  0  2  0  0  0  0  0  0
  161.4940  208.9240  154.8460 N   0  0  0  0  0  0  0  0  0  0  0  0
  161.0340  210.1750  154.2510 C   0  0  0  0  0  2  0  0  0  0  0  0
  161.0830  210.4830  156.6290 C   0  0  0  0  0  2  0  0  0  0  0  0
  162.5210  212.6500  147.3380 C   0  0  0  0  0  2  0  0  0  0  0  0
  161.6550  213.3340  146.2940 C   0  0  0  0  0  2  0  0  0  0  0  0
  160.5610  212.4550  145.9080 N   0  0  0  0  0  2  0  0  0  0  0  0
  159.8120  212.5990  144.6980 C   0  0  0  0  0  0  0  0  0  0  0  0
  158.5630  213.6560  144.6010 S   0  0  0  0  0  0  0  0  0  0  0  0
  160.1400  211.8210  143.5420 N   0  0  0  0  0  2  0  0  0  0  0  0
  161.0020  212.2350  142.4780 C   0  0  0  0  0  0  0  0  0  0  0  0
  161.5610  213.3660  142.4960 O   0  0  0  0  0  0  0  0  0  0  0  0
  161.2360  211.3040  141.3320 C   0  0  2  0  0  3  0  0  0  0  0  0
  162.6640  211.4660  140.8330 C   0  0  0  0  0  1  0  0  0  0  0  0
  160.2220  211.5370  140.2050 C   0  0  2  0  0  3  0  0  0  0  0  0
  158.9810  211.9040  140.7330 O   0  0  0  0  0  1  0  0  0  0  0  0
  158.9380  209.9980  138.9750 O   0  0  0  0  0  0  0  0  0  0  0  0
  160.0540  210.3190  139.3450 C   0  0  0  0  0  0  0  0  0  0  0  0
  161.2340  209.4880  138.9570 C   0  0  0  0  0  2  0  0  0  0  0  0
  161.1060  208.2060  139.4910 O   0  0  0  0  0  1  0  0  0  0  0  0
  1  3  1  0  0  0  0
  1  5  2  0  0  0  0
  2  3  1  0  0  0  0
  4  1  1  0  0  0  0
  5  7  2  0  0  0  0
  6  2  2  0  0  0  0
  6  4  1  0  0  0  0
  7  9  1  0  0  0  0
  8  2  1  0  0  0  0
  8 17  1  0  0  0  0
  9 10  1  6  0  0  0
  9 11  1  0  0  0  0
 11 12  1  0  0  0  0
 12 15  1  0  0  0  0
 14 15  1  0  0  0  0
 15 13  1  0  0  0  0
 15 16  1  0  0  0  0
 18 21  1  6  0  0  0
 18 20  1  0  0  0  0
 19 18  1  0  0  0  0
 19 20  1  0  0  0  0
 20 17  1  1  0  0  0
 21 22  1  0  0  0  0
 22 24  1  0  0  0  0
 23 21  2  0  0  0  0
 24 25  1  0  0  0  0
 26 30  1  6  0  0  0
 26 27  1  0  0  0  0
 26 33  1  0  0  0  0
 28 27  1  0  0  0  0
 29 25  1  6  0  0  0
 29 30  1  0  0  0  0
 29 28  1  0  0  0  0
 31 35  1  0  0  0  0
 32 35  1  0  0  0  0
 33 32  1  0  0  0  0
 34 33  1  0  0  0  0
 34 31  1  0  0  0  0
 36  6  1  0  0  0  0
 37 36  1  0  0  0  0
 38 37  1  0  0  0  0
 39 38  1  0  0  0  0
 40 39  2  0  0  0  0
 41 39  1  0  0  0  0
 42 43  2  0  0  0  0
 42 41  1  0  0  0  0
 44 45  1  6  0  0  0
 44 42  1  0  0  0  0
 46 47  1  1  0  0  0
 46 44  1  0  0  0  0
 48 49  2  0  0  0  0
 49 46  1  0  0  0  0
 50 49  1  0  0  0  0
 50 51  1  0  0  0  0
M  END
>  <MODEL>
6

>  <REMARK>
 VINA RESULT:      -5.2      2.807     10.363
  Name = 
  20 active torsions:
  status: ('A' for Active; 'I' for Inactive)
    1  A    between atoms: C_1  and  N_30
    2  A    between atoms: C_1  and  C_40
    3  A    between atoms: C_4  and  N_8
    4  A    between atoms: C_4  and  N_30
    5  A    between atoms: C_5  and  C_23
    6  A    between atoms: C_5  and  C_44
    7  A    between atoms: C_6  and  C_9
    8  A    between atoms: N_12  and  C_38
    9  A    between atoms: C_13  and  N_18
   10  A    between atoms: C_14  and  C_15
   11  A    between atoms: C_14  and  C_24
   12  A    between atoms: C_15  and  C_17
   13  A    between atoms: C_17  and  C_25
   14  A    between atoms: C_19  and  C_46
   15  A    between atoms: C_19  and  C_49
   16  A    between atoms: C_23  and  O_35
   17  A    between atoms: C_32  and  C_36
   18  A    between atoms: C_32  and  C_38
   19  A    between atoms: C_33  and  O_35
   20  A    between atoms: C_39  and  C_40
                            x       y       z     vdW  Elec       q    Type
                         _______ _______ _______ _____ _____    ______ ____

>  <TORSDO>
F 20

$$$$
=
 OpenBabel11042420183D

 51 54  0  0  1  0  0  0  0  0999 V2000
  161.9740  208.9620  149.2470 C   0  0  0  0  0  0  0  0  0  0  0  0
  161.4630  211.2560  150.0510 C   0  0  0  0  0  0  0  0  0  0  0  0
  161.6360  210.4630  148.5730 S   0  0  0  0  0  0  0  0  0  0  0  0
  161.9630  209.0410  150.6320 C   0  0  0  0  0  3  0  0  0  0  0  0
  162.2430  207.8840  148.5660 C   0  0  0  0  0  0  0  0  0  0  0  0
  161.6670  210.3380  151.0810 C   0  0  0  0  0  0  0  0  0  0  0  0
  162.5150  206.8080  147.8800 C   0  0  0  0  0  3  0  0  0  0  0  0
  161.1790  212.5480  150.2180 C   0  0  0  0  0  3  0  0  0  0  0  0
  161.7900  206.5160  146.6120 C   0  0  2  0  0  3  0  0  0  0  0  0
  160.4390  206.3670  146.8690 F   0  0  0  0  0  0  0  0  0  0  0  0
  162.3220  205.2390  145.9920 C   0  0  0  0  0  2  0  0  0  0  0  0
  161.2660  204.3410  145.7600 O   0  0  0  0  0  0  0  0  0  0  0  0
  160.8280  202.0060  146.2390 C   0  0  0  0  0  1  0  0  0  0  0  0
  162.5520  203.2340  147.2590 F   0  0  0  0  0  0  0  0  0  0  0  0
  161.2630  203.3640  146.7790 C   0  0  0  0  0  0  0  0  0  0  0  0
  160.4480  203.7360  147.8400 F   0  0  0  0  0  0  0  0  0  0  0  0
  160.9690  213.4800  149.0720 C   0  0  0  0  0  2  0  0  0  0  0  0
  159.4640  214.1060  147.2160 C   0  0  1  0  0  3  0  0  0  0  0  0
  158.7540  214.4160  148.5210 C   0  0  0  0  0  2  0  0  0  0  0  0
  159.6340  213.1920  148.4180 C   0  0  2  0  0  3  0  0  0  0  0  0
  158.4910  213.5210  146.2340 C   0  0  0  0  0  0  0  0  0  0  0  0
  158.9450  212.8500  145.0580 N   0  0  0  0  0  2  0  0  0  0  0  0
  157.2520  213.5770  146.4670 O   0  0  0  0  0  0  0  0  0  0  0  0
  160.3570  212.7120  144.7260 C   0  0  0  0  0  2  0  0  0  0  0  0
  160.7580  213.7460  143.6870 C   0  0  0  0  0  2  0  0  0  0  0  0
  160.2400  211.7820  140.7540 C   0  0  2  0  0  3  0  0  0  0  0  0
  160.9430  213.0230  140.2410 C   0  0  0  0  0  2  0  0  0  0  0  0
  161.1100  213.9060  141.3170 O   0  0  0  0  0  0  0  0  0  0  0  0
  161.3230  213.0870  142.4390 C   0  0  2  0  0  3  0  0  0  0  0  0
  160.6250  211.7650  142.2120 C   0  0  0  0  0  2  0  0  0  0  0  0
  160.6590  209.7140  137.8280 C   0  0  0  0  0  2  0  0  0  0  0  0
  162.0040  210.8850  139.4390 C   0  0  0  0  0  2  0  0  0  0  0  0
  160.7200  210.5790  140.0650 N   0  0  0  0  0  0  0  0  0  0  0  0
  159.8270  210.3000  138.9450 C   0  0  0  0  0  2  0  0  0  0  0  0
  162.0770  210.1210  138.1350 C   0  0  0  0  0  2  0  0  0  0  0  0
  161.6360  210.6890  152.5350 C   0  0  0  0  0  2  0  0  0  0  0  0
  160.5510  209.9060  153.2530 C   0  0  0  0  0  2  0  0  0  0  0  0
  161.1320  209.1630  154.3610 N   0  0  0  0  0  2  0  0  0  0  0  0
  160.8530  207.7850  154.6300 C   0  0  0  0  0  0  0  0  0  0  0  0
  159.7140  207.3550  155.7280 S   0  0  0  0  0  0  0  0  0  0  0  0
  161.5650  206.7510  153.9430 N   0  0  0  0  0  2  0  0  0  0  0  0
  161.3260  206.3310  152.5960 C   0  0  0  0  0  0  0  0  0  0  0  0
  160.4330  206.8780  151.8930 O   0  0  0  0  0  0  0  0  0  0  0  0
  162.1550  205.2250  152.0260 C   0  0  2  0  0  3  0  0  0  0  0  0
  163.4530  205.7980  151.4770 C   0  0  0  0  0  1  0  0  0  0  0  0
  161.3880  204.4500  150.9470 C   0  0  2  0  0  3  0  0  0  0  0  0
  160.2220  205.1320  150.5920 O   0  0  0  0  0  1  0  0  0  0  0  0
  160.6300  202.8940  152.5400 O   0  0  0  0  0  0  0  0  0  0  0  0
  161.0330  203.0650  151.4020 C   0  0  0  0  0  0  0  0  0  0  0  0
  161.1860  201.8950  150.4860 C   0  0  0  0  0  2  0  0  0  0  0  0
  160.0090  201.7030  149.7620 O   0  0  0  0  0  1  0  0  0  0  0  0
  1  4  1  0  0  0  0
  2  8  2  0  0  0  0
  2  6  1  0  0  0  0
  3  1  1  0  0  0  0
  3  2  1  0  0  0  0
  4  6  2  0  0  0  0
  5  1  2  0  0  0  0
  6 36  1  0  0  0  0
  7  5  2  0  0  0  0
  9 10  1  1  0  0  0
  9  7  1  0  0  0  0
 11  9  1  0  0  0  0
 12 11  1  0  0  0  0
 12 15  1  0  0  0  0
 13 15  1  0  0  0  0
 15 14  1  0  0  0  0
 15 16  1  0  0  0  0
 17  8  1  0  0  0  0
 18 21  1  6  0  0  0
 18 20  1  0  0  0  0
 18 19  1  0  0  0  0
 20 19  1  0  0  0  0
 20 17  1  1  0  0  0
 21 23  2  0  0  0  0
 22 21  1  0  0  0  0
 24 22  1  0  0  0  0
 25 24  1  0  0  0  0
 26 33  1  6  0  0  0
 26 30  1  0  0  0  0
 27 26  1  0  0  0  0
 27 28  1  0  0  0  0
 28 29  1  0  0  0  0
 29 25  1  1  0  0  0
 30 29  1  0  0  0  0
 31 35  1  0  0  0  0
 31 34  1  0  0  0  0
 32 33  1  0  0  0  0
 34 33  1  0  0  0  0
 35 32  1  0  0  0  0
 36 37  1  0  0  0  0
 37 38  1  0  0  0  0
 38 39  1  0  0  0  0
 39 40  2  0  0  0  0
 41 39  1  0  0  0  0
 42 41  1  0  0  0  0
 43 42  2  0  0  0  0
 44 45  1  6  0  0  0
 44 42  1  0  0  0  0
 46 47  1  1  0  0  0
 46 49  1  0  0  0  0
 46 44  1  0  0  0  0
 49 48  2  0  0  0  0
 50 49  1  0  0  0  0
 51 50  1  0  0  0  0
M  END
>  <MODEL>
7

>  <REMARK>
 VINA RESULT:      -5.2      3.398      6.000
  Name = 
  20 active torsions:
  status: ('A' for Active; 'I' for Inactive)
    1  A    between atoms: C_1  and  N_30
    2  A    between atoms: C_1  and  C_40
    3  A    between atoms: C_4  and  N_8
    4  A    between atoms: C_4  and  N_30
    5  A    between atoms: C_5  and  C_23
    6  A    between atoms: C_5  and  C_44
    7  A    between atoms: C_6  and  C_9
    8  A    between atoms: N_12  and  C_38
    9  A    between atoms: C_13  and  N_18
   10  A    between atoms: C_14  and  C_15
   11  A    between atoms: C_14  and  C_24
   12  A    between atoms: C_15  and  C_17
   13  A    between atoms: C_17  and  C_25
   14  A    between atoms: C_19  and  C_46
   15  A    between atoms: C_19  and  C_49
   16  A    between atoms: C_23  and  O_35
   17  A    between atoms: C_32  and  C_36
   18  A    between atoms: C_32  and  C_38
   19  A    between atoms: C_33  and  O_35
   20  A    between atoms: C_39  and  C_40
                            x       y       z     vdW  Elec       q    Type
                         _______ _______ _______ _____ _____    ______ ____

>  <TORSDO>
F 20

$$$$
=
 OpenBabel11042420183D

 51 54  0  0  1  0  0  0  0  0999 V2000
  161.9100  208.1850  148.2760 C   0  0  0  0  0  0  0  0  0  0  0  0
  162.0290  209.7360  150.2130 C   0  0  0  0  0  0  0  0  0  0  0  0
  162.0100  208.0710  149.9490 S   0  0  0  0  0  0  0  0  0  0  0  0
  161.8850  209.5160  147.8840 C   0  0  0  0  0  2  0  0  0  0  0  0
  161.8310  207.1690  147.4650 C   0  0  0  0  0  0  0  0  0  0  0  0
  161.9580  210.3880  148.9820 C   0  0  0  0  0  0  0  0  0  0  0  0
  161.7480  206.1490  146.6560 C   0  0  0  0  0  3  0  0  0  0  0  0
  162.0960  210.3400  151.4000 C   0  0  0  0  0  2  0  0  0  0  0  0
  162.5320  204.9100  146.9190 C   0  0  2  0  0  3  0  0  0  0  0  0
  163.4060  204.6790  145.8720 F   0  0  0  0  0  0  0  0  0  0  0  0
  161.5980  203.7240  147.0570 C   0  0  0  0  0  2  0  0  0  0  0  0
  161.5630  202.9970  145.8550 O   0  0  0  0  0  0  0  0  0  0  0  0
  159.7620  201.6970  144.8830 C   0  0  0  0  0  1  0  0  0  0  0  0
  161.5670  200.7410  146.0450 F   0  0  0  0  0  0  0  0  0  0  0  0
  160.7510  201.8550  146.0330 C   0  0  0  0  0  0  0  0  0  0  0  0
  160.0690  201.8980  147.2420 F   0  0  0  0  0  0  0  0  0  0  0  0
  162.1720  209.5840  152.6840 C   0  0  0  0  0  2  0  0  0  0  0  0
  160.0940  209.9970  153.9550 C   0  0  1  0  0  3  0  0  0  0  0  0
  160.4570  211.2750  153.2210 C   0  0  0  0  0  2  0  0  0  0  0  0
  161.5500  210.4040  153.7950 C   0  0  2  0  0  3  0  0  0  0  0  0
  159.5970  210.3260  155.3320 C   0  0  0  0  0  0  0  0  0  0  0  0
  159.4310  209.3050  156.3180 N   0  0  0  0  0  2  0  0  0  0  0  0
  159.3640  211.5250  155.6480 O   0  0  0  0  0  0  0  0  0  0  0  0
  159.7060  207.9000  156.0510 C   0  0  0  0  0  2  0  0  0  0  0  0
  161.1720  207.7070  155.7000 C   0  0  0  0  0  2  0  0  0  0  0  0
  160.8630  206.0390  152.5610 C   0  0  2  0  0  3  0  0  0  0  0  0
  162.3240  205.8610  152.9260 C   0  0  0  0  0  2  0  0  0  0  0  0
  162.5670  206.5670  154.1120 O   0  0  0  0  0  0  0  0  0  0  0  0
  161.3810  206.4590  154.8580 C   0  0  2  0  0  3  0  0  0  0  0  0
  160.2200  206.3020  153.9000 C   0  0  0  0  0  2  0  0  0  0  0  0
  160.8270  203.4710  150.0270 C   0  0  0  0  0  2  0  0  0  0  0  0
  161.1020  203.6800  152.4060 C   0  0  0  0  0  2  0  0  0  0  0  0
  160.3200  204.8240  151.9440 N   0  0  0  0  0  0  0  0  0  0  0  0
  160.5760  204.8820  150.5080 C   0  0  0  0  0  2  0  0  0  0  0  0
  161.1990  202.6930  151.2640 C   0  0  0  0  0  2  0  0  0  0  0  0
  161.9080  211.8750  148.8230 C   0  0  0  0  0  2  0  0  0  0  0  0
  161.8860  212.2560  147.3530 C   0  0  0  0  0  2  0  0  0  0  0  0
  160.7170  213.0770  147.0740 N   0  0  0  0  0  2  0  0  0  0  0  0
  160.3170  213.4710  145.7580 C   0  0  0  0  0  0  0  0  0  0  0  0
  158.7920  213.9970  145.4640 S   0  0  0  0  0  0  0  0  0  0  0  0
  161.2430  213.4160  144.6680 N   0  0  0  0  0  2  0  0  0  0  0  0
  161.1250  212.5740  143.5180 C   0  0  0  0  0  0  0  0  0  0  0  0
  160.1440  211.7930  143.3820 O   0  0  0  0  0  0  0  0  0  0  0  0
  162.1880  212.6290  142.4680 C   0  0  2  0  0  3  0  0  0  0  0  0
  163.0790  213.8360  142.7160 C   0  0  0  0  0  1  0  0  0  0  0  0
  161.5830  212.6630  141.0590 C   0  0  2  0  0  3  0  0  0  0  0  0
  160.1970  212.8320  141.1270 O   0  0  0  0  0  1  0  0  0  0  0  0
  161.5650  210.3320  140.7470 O   0  0  0  0  0  0  0  0  0  0  0  0
  161.8930  211.4140  140.2890 C   0  0  0  0  0  0  0  0  0  0  0  0
  162.6130  211.4800  138.9820 C   0  0  0  0  0  2  0  0  0  0  0  0
  161.7750  212.0210  138.0070 O   0  0  0  0  0  1  0  0  0  0  0  0
  1  3  1  0  0  0  0
  2  8  1  0  0  0  0
  3  2  1  0  0  0  0
  4  1  1  0  0  0  0
  4  6  1  0  0  0  0
  5  1  2  0  0  0  0
  6  2  2  0  0  0  0
  7  9  1  0  0  0  0
  7  5  2  0  0  0  0
  8 17  1  0  0  0  0
  9 10  1  6  0  0  0
  9 11  1  0  0  0  0
 12 15  1  0  0  0  0
 12 11  1  0  0  0  0
 13 15  1  0  0  0  0
 15 14  1  0  0  0  0
 15 16  1  0  0  0  0
 18 21  1  1  0  0  0
 19 20  1  0  0  0  0
 19 18  1  0  0  0  0
 20 17  1  6  0  0  0
 20 18  1  0  0  0  0
 21 23  2  0  0  0  0
 21 22  1  0  0  0  0
 24 22  1  0  0  0  0
 25 24  1  0  0  0  0
 26 33  1  1  0  0  0
 26 27  1  0  0  0  0
 26 30  1  0  0  0  0
 27 28  1  0  0  0  0
 28 29  1  0  0  0  0
 29 25  1  6  0  0  0
 30 29  1  0  0  0  0
 31 34  1  0  0  0  0
 31 35  1  0  0  0  0
 33 32  1  0  0  0  0
 34 33  1  0  0  0  0
 35 32  1  0  0  0  0
 36  6  1  0  0  0  0
 37 36  1  0  0  0  0
 38 37  1  0  0  0  0
 39 38  1  0  0  0  0
 40 39  2  0  0  0  0
 41 39  1  0  0  0  0
 42 41  1  0  0  0  0
 43 42  2  0  0  0  0
 44 45  1  1  0  0  0
 44 42  1  0  0  0  0
 46 47  1  1  0  0  0
 46 44  1  0  0  0  0
 49 48  2  0  0  0  0
 49 46  1  0  0  0  0
 50 49  1  0  0  0  0
 51 50  1  0  0  0  0
M  END
>  <MODEL>
8

>  <REMARK>
 VINA RESULT:      -5.2      3.840     11.135
  Name = 
  20 active torsions:
  status: ('A' for Active; 'I' for Inactive)
    1  A    between atoms: C_1  and  N_30
    2  A    between atoms: C_1  and  C_40
    3  A    between atoms: C_4  and  N_8
    4  A    between atoms: C_4  and  N_30
    5  A    between atoms: C_5  and  C_23
    6  A    between atoms: C_5  and  C_44
    7  A    between atoms: C_6  and  C_9
    8  A    between atoms: N_12  and  C_38
    9  A    between atoms: C_13  and  N_18
   10  A    between atoms: C_14  and  C_15
   11  A    between atoms: C_14  and  C_24
   12  A    between atoms: C_15  and  C_17
   13  A    between atoms: C_17  and  C_25
   14  A    between atoms: C_19  and  C_46
   15  A    between atoms: C_19  and  C_49
   16  A    between atoms: C_23  and  O_35
   17  A    between atoms: C_32  and  C_36
   18  A    between atoms: C_32  and  C_38
   19  A    between atoms: C_33  and  O_35
   20  A    between atoms: C_39  and  C_40
                            x       y       z     vdW  Elec       q    Type
                         _______ _______ _______ _____ _____    ______ ____

>  <TORSDO>
F 20

$$$$
