=
 OpenBabel11042420273D

 31 35  0  0  0  0  0  0  0  0999 V2000
  161.5290  207.4660  152.1680 N   0  0  0  0  0  0  0  0  0  0  0  0
  161.3500  208.2720  153.2390 C   0  0  0  0  0  0  0  0  0  0  0  0
  161.5850  209.5870  152.8810 C   0  0  0  0  0  0  0  0  0  0  0  0
  161.8410  208.2530  151.1130 C   0  0  0  0  0  3  0  0  0  0  0  0
  161.9900  210.7400  150.6090 C   0  0  0  0  0  1  0  0  0  0  0  0
  161.8800  209.5720  151.5250 C   0  0  0  0  0  0  0  0  0  0  0  0
  160.8570  203.2140  150.0580 C   0  0  0  0  0  0  0  0  0  0  0  0
  160.8640  204.1240  151.1070 C   0  0  0  0  0  0  0  0  0  0  0  0
  161.0430  203.8830  152.4190 N   0  0  0  0  0  2  0  0  0  0  0  0
  160.8980  205.4560  150.8340 C   0  0  0  0  0  0  0  0  0  0  0  0
  160.8340  203.7000  148.7810 N   0  0  0  0  0  0  0  0  0  0  0  0
  160.8840  205.0480  148.5340 C   0  0  0  0  0  3  0  0  0  0  0  0
  160.9430  205.9370  149.5670 N   0  0  0  0  0  0  0  0  0  0  0  0
  160.8920  201.8100  150.2920 N   0  0  0  0  0  1  0  0  0  0  0  0
  161.2020  205.1090  152.9900 C   0  0  0  0  0  3  0  0  0  0  0  0
  161.0810  206.1090  152.0270 C   0  0  0  0  0  0  0  0  0  0  0  0
  158.8800  210.9050  153.0030 C   0  0  0  0  0  2  0  0  0  0  0  0
  161.2440  210.7340  153.6740 N   0  0  0  0  0  0  0  0  0  0  0  0
  157.8380  211.9070  153.4710 C   0  0  0  0  0  2  0  0  0  0  0  0
  159.7930  212.3880  154.7000 C   0  0  0  0  0  2  0  0  0  0  0  0
  160.0630  211.2640  153.7920 C   0  0  0  0  0  0  0  0  0  0  0  0
  158.3470  212.6350  154.6490 N   0  0  0  0  0  0  0  0  0  0  0  0
  158.1130  214.0720  154.4440 C   0  0  0  0  0  3  0  0  0  0  0  0
  156.6760  214.4530  154.7830 C   0  0  0  0  0  1  0  0  0  0  0  0
  158.3490  214.4530  152.9900 C   0  0  0  0  0  1  0  0  0  0  0  0
  161.0170  207.8010  154.5550 N   0  0  0  0  0  0  0  0  0  0  0  0
  162.0630  207.6830  155.5650 C   0  0  0  0  0  2  0  0  0  0  0  0
  161.7850  208.6970  156.6810 C   0  0  0  0  0  2  0  0  0  0  0  0
  160.4300  208.4990  157.2120 N   0  0  0  0  0  2  0  0  0  0  0  0
  159.6320  207.7520  155.0150 C   0  0  0  0  0  2  0  0  0  0  0  0
  159.4520  208.7570  156.1560 C   0  0  0  0  0  2  0  0  0  0  0  0
  1  2  1  0  0  0  0
  2 26  1  0  0  0  0
  3  2  2  0  0  0  0
  3 18  1  0  0  0  0
  4  6  2  0  0  0  0
  4  1  1  0  0  0  0
  5  6  1  0  0  0  0
  6  3  1  0  0  0  0
  7 14  1  0  0  0  0
  7  8  1  0  0  0  0
  8  9  1  0  0  0  0
  9 15  1  0  0  0  0
 10  8  2  0  0  0  0
 10 16  1  0  0  0  0
 11  7  2  0  0  0  0
 12 11  1  0  0  0  0
 12 13  2  0  0  0  0
 13 10  1  0  0  0  0
 16  1  1  0  0  0  0
 16 15  2  0  0  0  0
 17 19  1  0  0  0  0
 17 21  1  0  0  0  0
 18 21  2  0  0  0  0
 19 22  1  0  0  0  0
 21 20  1  0  0  0  0
 22 20  1  0  0  0  0
 23 22  1  0  0  0  0
 23 24  1  0  0  0  0
 25 23  1  0  0  0  0
 26 30  1  0  0  0  0
 26 27  1  0  0  0  0
 27 28  1  0  0  0  0
 28 29  1  0  0  0  0
 30 31  1  0  0  0  0
 31 29  1  0  0  0  0
M  END
>  <MODEL>
1

>  <REMARK>
 VINA RESULT:      -6.5      0.000      0.000
  Name = 
  4 active torsions:
  status: ('A' for Active; 'I' for Inactive)
    1  A    between atoms: N_1  and  C_28
    2  A    between atoms: C_3  and  N_8
    3  A    between atoms: C_5  and  N_30
    4  A    between atoms: N_6  and  C_23
                            x       y       z     vdW  Elec       q    Type
                         _______ _______ _______ _____ _____    ______ ____

>  <TORSDO>
F 4

$$$$
=
 OpenBabel11042420273D

 31 35  0  0  0  0  0  0  0  0999 V2000
  161.2380  209.3130  151.8000 N   0  0  0  0  0  0  0  0  0  0  0  0
  161.5090  208.1530  151.1580 C   0  0  0  0  0  0  0  0  0  0  0  0
  161.9310  208.4170  149.8690 C   0  0  0  0  0  0  0  0  0  0  0  0
  161.5190  210.3240  150.9470 C   0  0  0  0  0  3  0  0  0  0  0  0
  162.5410  210.6000  148.6360 C   0  0  0  0  0  1  0  0  0  0  0  0
  161.9510  209.8000  149.7440 C   0  0  0  0  0  0  0  0  0  0  0  0
  159.5190  211.1630  155.8740 C   0  0  0  0  0  0  0  0  0  0  0  0
  160.2320  210.2670  155.0880 C   0  0  0  0  0  0  0  0  0  0  0  0
  160.4920  208.9680  155.3300 N   0  0  0  0  0  0  0  0  0  0  0  0
  160.5660  210.6160  153.8170 C   0  0  0  0  0  0  0  0  0  0  0  0
  159.2240  212.3900  155.3520 N   0  0  0  0  0  2  0  0  0  0  0  0
  159.5600  212.7100  154.0600 C   0  0  0  0  0  3  0  0  0  0  0  0
  160.2150  211.8080  153.2740 N   0  0  0  0  0  0  0  0  0  0  0  0
  159.0850  210.8180  157.1860 N   0  0  0  0  0  1  0  0  0  0  0  0
  161.0030  208.4830  154.1650 C   0  0  0  0  0  3  0  0  0  0  0  0
  161.0930  209.5000  153.2160 C   0  0  0  0  0  0  0  0  0  0  0  0
  160.5970  207.0470  147.5430 C   0  0  0  0  0  2  0  0  0  0  0  0
  162.5470  207.4660  148.9880 N   0  0  0  0  0  0  0  0  0  0  0  0
  160.5000  206.1340  146.3330 C   0  0  0  0  0  2  0  0  0  0  0  0
  162.7460  206.0260  147.0440 C   0  0  0  0  0  2  0  0  0  0  0  0
  162.0050  206.9260  147.9370 C   0  0  0  0  0  0  0  0  0  0  0  0
  161.8530  205.7140  145.9220 N   0  0  0  0  0  0  0  0  0  0  0  0
  161.8430  204.2590  145.7080 C   0  0  0  0  0  3  0  0  0  0  0  0
  160.7060  203.8430  144.7810 C   0  0  0  0  0  1  0  0  0  0  0  0
  161.6400  203.5240  147.0250 C   0  0  0  0  0  1  0  0  0  0  0  0
  161.3250  206.8510  151.7380 N   0  0  0  0  0  0  0  0  0  0  0  0
  160.2620  205.9830  151.2400 C   0  0  0  0  0  2  0  0  0  0  0  0
  160.9000  204.7620  150.5670 C   0  0  0  0  0  2  0  0  0  0  0  0
  161.8150  204.0940  151.5020 N   0  0  0  0  0  2  0  0  0  0  0  0
  162.3590  206.2370  152.5680 C   0  0  0  0  0  2  0  0  0  0  0  0
  162.9080  205.0040  151.8460 C   0  0  0  0  0  2  0  0  0  0  0  0
  1 16  1  0  0  0  0
  2 26  1  0  0  0  0
  2  1  1  0  0  0  0
  3  2  2  0  0  0  0
  4  1  1  0  0  0  0
  5  6  1  0  0  0  0
  6  3  1  0  0  0  0
  6  4  2  0  0  0  0
  7 14  1  0  0  0  0
  8  9  1  0  0  0  0
  8  7  2  0  0  0  0
 10  8  1  0  0  0  0
 11  7  1  0  0  0  0
 12 11  1  0  0  0  0
 13 10  1  0  0  0  0
 13 12  2  0  0  0  0
 15  9  2  0  0  0  0
 16 10  2  0  0  0  0
 16 15  1  0  0  0  0
 17 21  1  0  0  0  0
 18  3  1  0  0  0  0
 19 17  1  0  0  0  0
 20 21  1  0  0  0  0
 21 18  2  0  0  0  0
 22 19  1  0  0  0  0
 22 20  1  0  0  0  0
 23 22  1  0  0  0  0
 23 25  1  0  0  0  0
 24 23  1  0  0  0  0
 26 30  1  0  0  0  0
 27 26  1  0  0  0  0
 28 27  1  0  0  0  0
 28 29  1  0  0  0  0
 29 31  1  0  0  0  0
 31 30  1  0  0  0  0
M  END
>  <MODEL>
2

>  <REMARK>
 VINA RESULT:      -5.4      1.922      7.889
  Name = 
  4 active torsions:
  status: ('A' for Active; 'I' for Inactive)
    1  A    between atoms: N_1  and  C_28
    2  A    between atoms: C_3  and  N_8
    3  A    between atoms: C_5  and  N_30
    4  A    between atoms: N_6  and  C_23
                            x       y       z     vdW  Elec       q    Type
                         _______ _______ _______ _____ _____    ______ ____

>  <TORSDO>
F 4

$$$$
=
 OpenBabel11042420273D

 31 35  0  0  0  0  0  0  0  0999 V2000
  161.2500  207.8980  151.6990 N   0  0  0  0  0  0  0  0  0  0  0  0
  161.3270  206.7620  150.9670 C   0  0  0  0  0  0  0  0  0  0  0  0
  161.7410  207.0610  149.6820 C   0  0  0  0  0  0  0  0  0  0  0  0
  161.6490  208.9200  150.9090 C   0  0  0  0  0  3  0  0  0  0  0  0
  162.6250  209.2200  148.5820 C   0  0  0  0  0  1  0  0  0  0  0  0
  161.9600  208.4320  149.6550 C   0  0  0  0  0  0  0  0  0  0  0  0
  160.2050  209.8160  155.9670 C   0  0  0  0  0  0  0  0  0  0  0  0
  160.6070  208.8190  155.0870 C   0  0  0  0  0  0  0  0  0  0  0  0
  160.4640  207.4860  155.2140 N   0  0  0  0  0  0  0  0  0  0  0  0
  161.0210  209.1610  153.8370 C   0  0  0  0  0  0  0  0  0  0  0  0
  160.2910  211.1160  155.5550 N   0  0  0  0  0  2  0  0  0  0  0  0
  160.6970  211.4310  154.2830 C   0  0  0  0  0  3  0  0  0  0  0  0
  161.0420  210.4460  153.4040 N   0  0  0  0  0  0  0  0  0  0  0  0
  159.6980  209.5040  157.2600 N   0  0  0  0  0  1  0  0  0  0  0  0
  160.7950  206.9730  153.9970 C   0  0  0  0  0  3  0  0  0  0  0  0
  161.1800  207.9950  153.1300 C   0  0  0  0  0  0  0  0  0  0  0  0
  160.4890  206.5790  146.9870 C   0  0  0  0  0  2  0  0  0  0  0  0
  162.1810  206.1000  148.7110 N   0  0  0  0  0  0  0  0  0  0  0  0
  160.3340  205.9420  145.6160 C   0  0  0  0  0  2  0  0  0  0  0  0
  162.2730  204.9830  146.5580 C   0  0  0  0  0  2  0  0  0  0  0  0
  161.6970  205.9360  147.5160 C   0  0  0  0  0  0  0  0  0  0  0  0
  161.5430  205.1580  145.2960 N   0  0  0  0  0  0  0  0  0  0  0  0
  161.1230  203.8400  144.7980 C   0  0  0  0  0  3  0  0  0  0  0  0
  159.6800  203.8670  144.3050 C   0  0  0  0  0  1  0  0  0  0  0  0
  161.2010  202.7980  145.9040 C   0  0  0  0  0  1  0  0  0  0  0  0
  160.9720  205.4600  151.4610 N   0  0  0  0  0  0  0  0  0  0  0  0
  159.8680  204.7310  150.8450 C   0  0  0  0  0  2  0  0  0  0  0  0
  160.4290  203.4840  150.1510 C   0  0  0  0  0  2  0  0  0  0  0  0
  161.2010  202.6830  151.1090 N   0  0  0  0  0  2  0  0  0  0  0  0
  161.8750  204.7050  152.3250 C   0  0  0  0  0  2  0  0  0  0  0  0
  162.3510  203.4580  151.5760 C   0  0  0  0  0  2  0  0  0  0  0  0
  1 16  1  0  0  0  0
  2 26  1  0  0  0  0
  2  1  1  0  0  0  0
  3  2  2  0  0  0  0
  4  1  1  0  0  0  0
  5  6  1  0  0  0  0
  6  3  1  0  0  0  0
  6  4  2  0  0  0  0
  7 14  1  0  0  0  0
  8  9  1  0  0  0  0
  8  7  2  0  0  0  0
 10  8  1  0  0  0  0
 11  7  1  0  0  0  0
 12 11  1  0  0  0  0
 13 10  1  0  0  0  0
 13 12  2  0  0  0  0
 15  9  2  0  0  0  0
 16 10  2  0  0  0  0
 16 15  1  0  0  0  0
 17 21  1  0  0  0  0
 18  3  1  0  0  0  0
 19 17  1  0  0  0  0
 20 21  1  0  0  0  0
 21 18  2  0  0  0  0
 22 19  1  0  0  0  0
 22 20  1  0  0  0  0
 23 22  1  0  0  0  0
 23 25  1  0  0  0  0
 24 23  1  0  0  0  0
 26 30  1  0  0  0  0
 27 26  1  0  0  0  0
 28 27  1  0  0  0  0
 28 29  1  0  0  0  0
 29 31  1  0  0  0  0
 31 30  1  0  0  0  0
M  END
>  <MODEL>
3

>  <REMARK>
 VINA RESULT:      -5.4      2.043      8.013
  Name = 
  4 active torsions:
  status: ('A' for Active; 'I' for Inactive)
    1  A    between atoms: N_1  and  C_28
    2  A    between atoms: C_3  and  N_8
    3  A    between atoms: C_5  and  N_30
    4  A    between atoms: N_6  and  C_23
                            x       y       z     vdW  Elec       q    Type
                         _______ _______ _______ _____ _____    ______ ____

>  <TORSDO>
F 4

$$$$
=
 OpenBabel11042420273D

 31 35  0  0  0  0  0  0  0  0999 V2000
  158.3860  213.3080  150.0100 N   0  0  0  0  0  0  0  0  0  0  0  0
  159.2900  213.5030  149.0220 C   0  0  0  0  0  0  0  0  0  0  0  0
  158.6390  213.8530  147.8540 C   0  0  0  0  0  0  0  0  0  0  0  0
  157.1610  213.5650  149.4970 C   0  0  0  0  0  3  0  0  0  0  0  0
  156.1860  214.4500  147.3240 C   0  0  0  0  0  1  0  0  0  0  0  0
  157.2870  213.9070  148.1650 C   0  0  0  0  0  0  0  0  0  0  0  0
  157.4110  213.0730  154.6970 C   0  0  0  0  0  0  0  0  0  0  0  0
  158.2130  213.0400  153.5640 C   0  0  0  0  0  0  0  0  0  0  0  0
  159.3540  212.3510  153.3690 N   0  0  0  0  0  0  0  0  0  0  0  0
  157.7530  213.5830  152.4060 C   0  0  0  0  0  0  0  0  0  0  0  0
  156.2010  213.7020  154.6150 N   0  0  0  0  0  2  0  0  0  0  0  0
  155.7550  214.2280  153.4300 C   0  0  0  0  0  3  0  0  0  0  0  0
  156.5240  214.1470  152.3060 N   0  0  0  0  0  0  0  0  0  0  0  0
  157.8190  212.4560  155.9150 N   0  0  0  0  0  1  0  0  0  0  0  0
  159.6150  212.4620  152.0380 C   0  0  0  0  0  3  0  0  0  0  0  0
  158.6500  213.2550  151.4200 C   0  0  0  0  0  0  0  0  0  0  0  0
  159.5030  212.2660  145.4450 C   0  0  0  0  0  2  0  0  0  0  0  0
  159.2730  214.3840  146.6810 N   0  0  0  0  0  0  0  0  0  0  0  0
  160.0870  212.0420  144.0600 C   0  0  0  0  0  2  0  0  0  0  0  0
  160.1500  214.3720  144.4170 C   0  0  0  0  0  2  0  0  0  0  0  0
  159.5810  213.7220  145.6050 C   0  0  0  0  0  0  0  0  0  0  0  0
  160.2560  213.3400  143.3790 N   0  0  0  0  0  0  0  0  0  0  0  0
  161.6040  213.3850  142.7940 C   0  0  0  0  0  3  0  0  0  0  0  0
  161.8510  212.1910  141.8780 C   0  0  0  0  0  1  0  0  0  0  0  0
  162.6650  213.3430  143.8830 C   0  0  0  0  0  1  0  0  0  0  0  0
  160.7060  213.3160  149.1790 N   0  0  0  0  0  0  0  0  0  0  0  0
  161.2840  211.9890  148.9910 C   0  0  0  0  0  2  0  0  0  0  0  0
  162.1890  212.0180  147.7530 C   0  0  0  0  0  2  0  0  0  0  0  0
  163.1920  213.0820  147.8900 N   0  0  0  0  0  2  0  0  0  0  0  0
  161.6240  214.4520  149.1900 C   0  0  0  0  0  2  0  0  0  0  0  0
  162.5190  214.3800  147.9500 C   0  0  0  0  0  2  0  0  0  0  0  0
  1 16  1  0  0  0  0
  2 26  1  0  0  0  0
  2  1  1  0  0  0  0
  3  6  1  0  0  0  0
  3  2  2  0  0  0  0
  4  1  1  0  0  0  0
  5  6  1  0  0  0  0
  6  4  2  0  0  0  0
  7 14  1  0  0  0  0
  8  7  2  0  0  0  0
  9  8  1  0  0  0  0
 10  8  1  0  0  0  0
 11  7  1  0  0  0  0
 12 11  1  0  0  0  0
 13 10  1  0  0  0  0
 13 12  2  0  0  0  0
 15  9  2  0  0  0  0
 16 15  1  0  0  0  0
 16 10  2  0  0  0  0
 17 21  1  0  0  0  0
 18  3  1  0  0  0  0
 19 17  1  0  0  0  0
 20 21  1  0  0  0  0
 21 18  2  0  0  0  0
 22 19  1  0  0  0  0
 22 20  1  0  0  0  0
 23 22  1  0  0  0  0
 23 25  1  0  0  0  0
 24 23  1  0  0  0  0
 26 30  1  0  0  0  0
 27 26  1  0  0  0  0
 28 29  1  0  0  0  0
 28 27  1  0  0  0  0
 29 31  1  0  0  0  0
 31 30  1  0  0  0  0
M  END
>  <MODEL>
4

>  <REMARK>
 VINA RESULT:      -5.2      5.682      9.581
  Name = 
  4 active torsions:
  status: ('A' for Active; 'I' for Inactive)
    1  A    between atoms: N_1  and  C_28
    2  A    between atoms: C_3  and  N_8
    3  A    between atoms: C_5  and  N_30
    4  A    between atoms: N_6  and  C_23
                            x       y       z     vdW  Elec       q    Type
                         _______ _______ _______ _____ _____    ______ ____

>  <TORSDO>
F 4

$$$$
=
 OpenBabel11042420273D

 31 35  0  0  0  0  0  0  0  0999 V2000
  161.8110  207.6950  149.5310 N   0  0  0  0  0  0  0  0  0  0  0  0
  162.0980  207.9670  150.8250 C   0  0  0  0  0  0  0  0  0  0  0  0
  162.2980  209.3260  150.9840 C   0  0  0  0  0  0  0  0  0  0  0  0
  161.7880  208.8700  148.8620 C   0  0  0  0  0  3  0  0  0  0  0  0
  161.9560  211.3450  149.4150 C   0  0  0  0  0  1  0  0  0  0  0  0
  162.0840  209.8980  149.7370 C   0  0  0  0  0  0  0  0  0  0  0  0
  161.5810  203.5740  147.0930 C   0  0  0  0  0  0  0  0  0  0  0  0
  161.1510  204.5460  147.9870 C   0  0  0  0  0  0  0  0  0  0  0  0
  160.3910  204.3900  149.0870 N   0  0  0  0  0  2  0  0  0  0  0  0
  161.6860  205.7950  147.9210 C   0  0  0  0  0  0  0  0  0  0  0  0
  162.4950  203.9280  146.1410 N   0  0  0  0  0  0  0  0  0  0  0  0
  163.0290  205.1920  146.1070 C   0  0  0  0  0  3  0  0  0  0  0  0
  162.6420  206.1290  147.0200 N   0  0  0  0  0  0  0  0  0  0  0  0
  161.1030  202.2340  147.1660 N   0  0  0  0  0  1  0  0  0  0  0  0
  160.4560  205.5830  149.7390 C   0  0  0  0  0  3  0  0  0  0  0  0
  161.2290  206.4880  149.0140 C   0  0  0  0  0  0  0  0  0  0  0  0
  159.9450  210.3610  152.5520 C   0  0  0  0  0  2  0  0  0  0  0  0
  162.3630  210.0100  152.2440 N   0  0  0  0  0  0  0  0  0  0  0  0
  159.2300  211.0260  153.7160 C   0  0  0  0  0  2  0  0  0  0  0  0
  161.5180  211.0110  154.2880 C   0  0  0  0  0  2  0  0  0  0  0  0
  161.3520  210.3940  152.9650 C   0  0  0  0  0  0  0  0  0  0  0  0
  160.1710  211.1990  154.8390 N   0  0  0  0  0  0  0  0  0  0  0  0
  160.0460  212.5760  155.3400 C   0  0  0  0  0  3  0  0  0  0  0  0
  159.9250  212.6040  156.8600 C   0  0  0  0  0  1  0  0  0  0  0  0
  158.8000  213.2420  154.7770 C   0  0  0  0  0  1  0  0  0  0  0  0
  162.2210  206.9680  151.8500 N   0  0  0  0  0  0  0  0  0  0  0  0
  161.2150  206.8880  152.9040 C   0  0  0  0  0  2  0  0  0  0  0  0
  160.4560  205.5630  152.7590 C   0  0  0  0  0  2  0  0  0  0  0  0
  161.4030  204.4400  152.7630 N   0  0  0  0  0  2  0  0  0  0  0  0
  163.1210  205.8280  151.6930 C   0  0  0  0  0  2  0  0  0  0  0  0
  162.2890  204.5470  151.6030 C   0  0  0  0  0  2  0  0  0  0  0  0
  1  2  1  0  0  0  0
  2  3  2  0  0  0  0
  2 26  1  0  0  0  0
  3 18  1  0  0  0  0
  4  1  1  0  0  0  0
  4  6  2  0  0  0  0
  5  6  1  0  0  0  0
  6  3  1  0  0  0  0
  7 14  1  0  0  0  0
  7  8  1  0  0  0  0
  8  9  1  0  0  0  0
  9 15  1  0  0  0  0
 10  8  2  0  0  0  0
 10 16  1  0  0  0  0
 11  7  2  0  0  0  0
 12 11  1  0  0  0  0
 12 13  2  0  0  0  0
 13 10  1  0  0  0  0
 16  1  1  0  0  0  0
 16 15  2  0  0  0  0
 17 21  1  0  0  0  0
 17 19  1  0  0  0  0
 18 21  2  0  0  0  0
 19 22  1  0  0  0  0
 20 22  1  0  0  0  0
 21 20  1  0  0  0  0
 22 23  1  0  0  0  0
 23 24  1  0  0  0  0
 25 23  1  0  0  0  0
 26 27  1  0  0  0  0
 28 29  1  0  0  0  0
 28 27  1  0  0  0  0
 30 26  1  0  0  0  0
 31 30  1  0  0  0  0
 31 29  1  0  0  0  0
M  END
>  <MODEL>
5

>  <REMARK>
 VINA RESULT:      -5.0      1.940      3.294
  Name = 
  4 active torsions:
  status: ('A' for Active; 'I' for Inactive)
    1  A    between atoms: N_1  and  C_28
    2  A    between atoms: C_3  and  N_8
    3  A    between atoms: C_5  and  N_30
    4  A    between atoms: N_6  and  C_23
                            x       y       z     vdW  Elec       q    Type
                         _______ _______ _______ _____ _____    ______ ____

>  <TORSDO>
F 4

$$$$
=
 OpenBabel11042420273D

 31 35  0  0  0  0  0  0  0  0999 V2000
  161.4310  205.9170  151.3070 N   0  0  0  0  0  0  0  0  0  0  0  0
  161.2470  205.5080  150.0300 C   0  0  0  0  0  0  0  0  0  0  0  0
  160.9610  204.1560  150.0080 C   0  0  0  0  0  0  0  0  0  0  0  0
  161.2290  204.8480  152.1100 C   0  0  0  0  0  3  0  0  0  0  0  0
  160.4560  202.4390  151.8670 C   0  0  0  0  0  1  0  0  0  0  0  0
  160.9350  203.7440  151.3340 C   0  0  0  0  0  0  0  0  0  0  0  0
  161.5100  209.4890  154.5030 C   0  0  0  0  0  0  0  0  0  0  0  0
  161.5660  208.9140  153.2400 C   0  0  0  0  0  0  0  0  0  0  0  0
  162.2330  209.3490  152.1550 N   0  0  0  0  0  0  0  0  0  0  0  0
  161.0790  207.6570  153.0590 C   0  0  0  0  0  0  0  0  0  0  0  0
  160.9150  208.7820  155.5100 N   0  0  0  0  0  2  0  0  0  0  0  0
  160.4460  207.5090  155.3020 C   0  0  0  0  0  3  0  0  0  0  0  0
  160.5510  206.9280  154.0720 N   0  0  0  0  0  0  0  0  0  0  0  0
  162.0680  210.7730  154.7610 N   0  0  0  0  0  1  0  0  0  0  0  0
  162.1670  208.3250  151.2600 C   0  0  0  0  0  3  0  0  0  0  0  0
  161.4220  207.2710  151.7870 C   0  0  0  0  0  0  0  0  0  0  0  0
  161.9630  201.4930  149.0220 C   0  0  0  0  0  2  0  0  0  0  0  0
  160.4560  203.4350  148.8740 N   0  0  0  0  0  0  0  0  0  0  0  0
  162.0040  200.2620  148.1330 C   0  0  0  0  0  2  0  0  0  0  0  0
  160.1900  201.5570  147.3600 C   0  0  0  0  0  2  0  0  0  0  0  0
  160.8290  202.2530  148.4850 C   0  0  0  0  0  0  0  0  0  0  0  0
  160.7920  200.2200  147.2930 N   0  0  0  0  0  0  0  0  0  0  0  0
  161.1970  199.9450  145.9060 C   0  0  0  0  0  3  0  0  0  0  0  0
  160.2290  200.5770  144.9110 C   0  0  0  0  0  1  0  0  0  0  0  0
  161.2060  198.4480  145.6360 C   0  0  0  0  0  1  0  0  0  0  0  0
  161.3860  206.3630  148.8830 N   0  0  0  0  0  0  0  0  0  0  0  0
  162.6930  206.5140  148.2510 C   0  0  0  0  0  2  0  0  0  0  0  0
  162.6320  205.9040  146.8450 C   0  0  0  0  0  2  0  0  0  0  0  0
  161.5350  206.5120  146.0820 N   0  0  0  0  0  2  0  0  0  0  0  0
  160.2200  206.8180  148.1310 C   0  0  0  0  0  2  0  0  0  0  0  0
  160.2600  206.2030  146.7310 C   0  0  0  0  0  2  0  0  0  0  0  0
  1 16  1  0  0  0  0
  1  4  1  0  0  0  0
  2  1  1  0  0  0  0
  3  2  2  0  0  0  0
  3  6  1  0  0  0  0
  6  5  1  0  0  0  0
  6  4  2  0  0  0  0
  7 14  1  0  0  0  0
  7 11  1  0  0  0  0
  8  7  2  0  0  0  0
  9  8  1  0  0  0  0
 10  8  1  0  0  0  0
 10 13  1  0  0  0  0
 12 11  1  0  0  0  0
 13 12  2  0  0  0  0
 15 16  1  0  0  0  0
 15  9  2  0  0  0  0
 16 10  2  0  0  0  0
 18  3  1  0  0  0  0
 19 17  1  0  0  0  0
 20 21  1  0  0  0  0
 21 18  2  0  0  0  0
 21 17  1  0  0  0  0
 22 20  1  0  0  0  0
 22 19  1  0  0  0  0
 23 22  1  0  0  0  0
 24 23  1  0  0  0  0
 25 23  1  0  0  0  0
 26  2  1  0  0  0  0
 27 26  1  0  0  0  0
 28 27  1  0  0  0  0
 29 31  1  0  0  0  0
 29 28  1  0  0  0  0
 30 26  1  0  0  0  0
 31 30  1  0  0  0  0
M  END
>  <MODEL>
6

>  <REMARK>
 VINA RESULT:      -4.9      2.738      9.521
  Name = 
  4 active torsions:
  status: ('A' for Active; 'I' for Inactive)
    1  A    between atoms: N_1  and  C_28
    2  A    between atoms: C_3  and  N_8
    3  A    between atoms: C_5  and  N_30
    4  A    between atoms: N_6  and  C_23
                            x       y       z     vdW  Elec       q    Type
                         _______ _______ _______ _____ _____    ______ ____

>  <TORSDO>
F 4

$$$$
=
 OpenBabel11042420273D

 31 35  0  0  0  0  0  0  0  0999 V2000
  158.2410  213.2370  150.3110 N   0  0  0  0  0  0  0  0  0  0  0  0
  159.1670  213.4520  149.3480 C   0  0  0  0  0  0  0  0  0  0  0  0
  158.5410  213.8050  148.1670 C   0  0  0  0  0  0  0  0  0  0  0  0
  157.0260  213.4850  149.7710 C   0  0  0  0  0  3  0  0  0  0  0  0
  156.0950  214.3790  147.5820 C   0  0  0  0  0  1  0  0  0  0  0  0
  157.1820  213.8400  148.4450 C   0  0  0  0  0  0  0  0  0  0  0  0
  160.2040  211.7460  154.4220 C   0  0  0  0  0  0  0  0  0  0  0  0
  159.4430  212.5710  153.6040 C   0  0  0  0  0  0  0  0  0  0  0  0
  159.1950  213.8870  153.7470 N   0  0  0  0  0  0  0  0  0  0  0  0
  159.0350  212.1130  152.3910 C   0  0  0  0  0  0  0  0  0  0  0  0
  160.4700  210.4760  153.9920 N   0  0  0  0  0  2  0  0  0  0  0  0
  160.0590  210.0460  152.7560 C   0  0  0  0  0  3  0  0  0  0  0  0
  159.3570  210.8780  151.9340 N   0  0  0  0  0  0  0  0  0  0  0  0
  160.7140  212.2030  155.6710 N   0  0  0  0  0  1  0  0  0  0  0  0
  158.6140  214.2700  152.5760 C   0  0  0  0  0  3  0  0  0  0  0  0
  158.4710  213.1740  151.7270 C   0  0  0  0  0  0  0  0  0  0  0  0
  159.3630  212.2730  145.7080 C   0  0  0  0  0  2  0  0  0  0  0  0
  159.1980  214.3540  147.0150 N   0  0  0  0  0  0  0  0  0  0  0  0
  159.9450  212.0770  144.3180 C   0  0  0  0  0  2  0  0  0  0  0  0
  160.0840  214.3910  144.7550 C   0  0  0  0  0  2  0  0  0  0  0  0
  159.4880  213.7200  145.9180 C   0  0  0  0  0  0  0  0  0  0  0  0
  160.1600  213.3910  143.6830 N   0  0  0  0  0  0  0  0  0  0  0  0
  161.5110  213.4120  143.1040 C   0  0  0  0  0  3  0  0  0  0  0  0
  162.5490  213.8520  144.1310 C   0  0  0  0  0  1  0  0  0  0  0  0
  161.5830  214.3930  141.9430 C   0  0  0  0  0  1  0  0  0  0  0  0
  160.5810  213.2800  149.5380 N   0  0  0  0  0  0  0  0  0  0  0  0
  161.1630  211.9440  149.4550 C   0  0  0  0  0  2  0  0  0  0  0  0
  162.0850  211.8850  148.2310 C   0  0  0  0  0  2  0  0  0  0  0  0
  163.0850  212.9580  148.3050 N   0  0  0  0  0  2  0  0  0  0  0  0
  161.4980  214.4150  149.4800 C   0  0  0  0  0  2  0  0  0  0  0  0
  162.4100  214.2550  148.2610 C   0  0  0  0  0  2  0  0  0  0  0  0
  1 16  1  0  0  0  0
  2 26  1  0  0  0  0
  2  1  1  0  0  0  0
  3  6  1  0  0  0  0
  3  2  2  0  0  0  0
  4  1  1  0  0  0  0
  5  6  1  0  0  0  0
  6  4  2  0  0  0  0
  7 14  1  0  0  0  0
  8  9  1  0  0  0  0
  8  7  2  0  0  0  0
 10  8  1  0  0  0  0
 11  7  1  0  0  0  0
 12 11  1  0  0  0  0
 13 10  1  0  0  0  0
 13 12  2  0  0  0  0
 15  9  2  0  0  0  0
 16 10  2  0  0  0  0
 16 15  1  0  0  0  0
 17 21  1  0  0  0  0
 18  3  1  0  0  0  0
 19 17  1  0  0  0  0
 20 21  1  0  0  0  0
 21 18  2  0  0  0  0
 22 19  1  0  0  0  0
 22 20  1  0  0  0  0
 23 22  1  0  0  0  0
 23 24  1  0  0  0  0
 25 23  1  0  0  0  0
 27 26  1  0  0  0  0
 28 29  1  0  0  0  0
 28 27  1  0  0  0  0
 30 26  1  0  0  0  0
 31 29  1  0  0  0  0
 31 30  1  0  0  0  0
M  END
>  <MODEL>
7

>  <REMARK>
 VINA RESULT:      -4.4      5.025      8.918
  Name = 
  4 active torsions:
  status: ('A' for Active; 'I' for Inactive)
    1  A    between atoms: N_1  and  C_28
    2  A    between atoms: C_3  and  N_8
    3  A    between atoms: C_5  and  N_30
    4  A    between atoms: N_6  and  C_23
                            x       y       z     vdW  Elec       q    Type
                         _______ _______ _______ _____ _____    ______ ____

>  <TORSDO>
F 4

$$$$
=
 OpenBabel11042420273D

 31 35  0  0  0  0  0  0  0  0999 V2000
  160.8830  208.7140  153.7310 N   0  0  0  0  0  0  0  0  0  0  0  0
  161.5410  208.9880  152.5810 C   0  0  0  0  0  0  0  0  0  0  0  0
  161.9820  207.8130  152.0020 C   0  0  0  0  0  0  0  0  0  0  0  0
  160.8620  207.3700  153.8780 C   0  0  0  0  0  3  0  0  0  0  0  0
  161.5470  205.3260  152.5320 C   0  0  0  0  0  1  0  0  0  0  0  0
  161.5340  206.7850  152.8210 C   0  0  0  0  0  0  0  0  0  0  0  0
  159.6170  212.3980  156.5250 C   0  0  0  0  0  0  0  0  0  0  0  0
  159.4130  211.3440  155.6440 C   0  0  0  0  0  0  0  0  0  0  0  0
  158.4420  211.2030  154.7220 N   0  0  0  0  0  0  0  0  0  0  0  0
  160.3820  210.4000  155.4980 C   0  0  0  0  0  0  0  0  0  0  0  0
  160.7720  212.4170  157.2550 N   0  0  0  0  0  2  0  0  0  0  0  0
  161.7390  211.4600  157.0770 C   0  0  0  0  0  3  0  0  0  0  0  0
  161.5570  210.4550  156.1720 N   0  0  0  0  0  0  0  0  0  0  0  0
  158.6640  213.4470  156.6610 N   0  0  0  0  0  1  0  0  0  0  0  0
  158.8180  210.1350  153.9660 C   0  0  0  0  0  3  0  0  0  0  0  0
  160.0070  209.5950  154.4520 C   0  0  0  0  0  0  0  0  0  0  0  0
  160.4980  206.6210  149.6680 C   0  0  0  0  0  2  0  0  0  0  0  0
  162.4830  207.6870  150.6630 N   0  0  0  0  0  0  0  0  0  0  0  0
  160.2800  206.1980  148.2250 C   0  0  0  0  0  2  0  0  0  0  0  0
  162.3960  207.2370  148.2790 C   0  0  0  0  0  2  0  0  0  0  0  0
  161.8250  207.2450  149.6320 C   0  0  0  0  0  0  0  0  0  0  0  0
  161.3340  206.7820  147.3740 N   0  0  0  0  0  0  0  0  0  0  0  0
  161.8670  205.7240  146.5030 C   0  0  0  0  0  3  0  0  0  0  0  0
  161.0290  205.5730  145.2380 C   0  0  0  0  0  1  0  0  0  0  0  0
  161.8490  204.3810  147.2170 C   0  0  0  0  0  1  0  0  0  0  0  0
  161.7790  210.3160  152.0860 N   0  0  0  0  0  0  0  0  0  0  0  0
  162.7470  210.5240  151.0150 C   0  0  0  0  0  2  0  0  0  0  0  0
  162.0010  211.0070  149.7650 C   0  0  0  0  0  2  0  0  0  0  0  0
  161.2110  212.2030  150.0840 N   0  0  0  0  0  2  0  0  0  0  0  0
  160.8570  211.4110  152.3790 C   0  0  0  0  0  2  0  0  0  0  0  0
  160.1920  211.8620  151.0770 C   0  0  0  0  0  2  0  0  0  0  0  0
  1  4  1  0  0  0  0
  1 16  1  0  0  0  0
  2  1  1  0  0  0  0
  3  2  2  0  0  0  0
  3  6  1  0  0  0  0
  5  6  1  0  0  0  0
  6  4  2  0  0  0  0
  7 14  1  0  0  0  0
  7 11  1  0  0  0  0
  8  7  2  0  0  0  0
  9  8  1  0  0  0  0
 10  8  1  0  0  0  0
 10 13  1  0  0  0  0
 12 11  1  0  0  0  0
 13 12  2  0  0  0  0
 15 16  1  0  0  0  0
 15  9  2  0  0  0  0
 16 10  2  0  0  0  0
 18  3  1  0  0  0  0
 19 17  1  0  0  0  0
 20 21  1  0  0  0  0
 21 17  1  0  0  0  0
 21 18  2  0  0  0  0
 22 19  1  0  0  0  0
 22 20  1  0  0  0  0
 23 25  1  0  0  0  0
 23 22  1  0  0  0  0
 24 23  1  0  0  0  0
 26 30  1  0  0  0  0
 26  2  1  0  0  0  0
 27 26  1  0  0  0  0
 28 29  1  0  0  0  0
 28 27  1  0  0  0  0
 29 31  1  0  0  0  0
 31 30  1  0  0  0  0
M  END
>  <MODEL>
8

>  <REMARK>
 VINA RESULT:      -4.0      2.403      7.955
  Name = 
  4 active torsions:
  status: ('A' for Active; 'I' for Inactive)
    1  A    between atoms: N_1  and  C_28
    2  A    between atoms: C_3  and  N_8
    3  A    between atoms: C_5  and  N_30
    4  A    between atoms: N_6  and  C_23
                            x       y       z     vdW  Elec       q    Type
                         _______ _______ _______ _____ _____    ______ ____

>  <TORSDO>
F 4

$$$$
=
 OpenBabel11042420273D

 31 35  0  0  0  0  0  0  0  0999 V2000
  161.6000  208.8650  152.2140 N   0  0  0  0  0  0  0  0  0  0  0  0
  161.6910  208.9270  150.8650 C   0  0  0  0  0  0  0  0  0  0  0  0
  161.3900  207.6940  150.3180 C   0  0  0  0  0  0  0  0  0  0  0  0
  161.2060  207.6120  152.5380 C   0  0  0  0  0  3  0  0  0  0  0  0
  160.4560  205.5090  151.3240 C   0  0  0  0  0  1  0  0  0  0  0  0
  161.0660  206.8650  151.3840 C   0  0  0  0  0  0  0  0  0  0  0  0
  159.5220  212.0980  155.0790 C   0  0  0  0  0  0  0  0  0  0  0  0
  160.5780  211.3890  154.5200 C   0  0  0  0  0  0  0  0  0  0  0  0
  161.7630  211.0800  155.0780 N   0  0  0  0  0  2  0  0  0  0  0  0
  160.3880  210.7260  153.3480 C   0  0  0  0  0  0  0  0  0  0  0  0
  158.3390  212.1430  154.3960 N   0  0  0  0  0  0  0  0  0  0  0  0
  158.1710  211.4510  153.2230 C   0  0  0  0  0  3  0  0  0  0  0  0
  159.1950  210.7130  152.7040 N   0  0  0  0  0  0  0  0  0  0  0  0
  159.6500  212.7510  156.3380 N   0  0  0  0  0  1  0  0  0  0  0  0
  162.3370  210.1850  154.2270 C   0  0  0  0  0  3  0  0  0  0  0  0
  161.5140  209.9730  153.1220 C   0  0  0  0  0  0  0  0  0  0  0  0
  161.6720  205.0440  148.9160 C   0  0  0  0  0  2  0  0  0  0  0  0
  161.1310  207.4460  148.9280 N   0  0  0  0  0  0  0  0  0  0  0  0
  161.6060  204.0690  147.7530 C   0  0  0  0  0  2  0  0  0  0  0  0
  160.8080  206.1250  146.9180 C   0  0  0  0  0  2  0  0  0  0  0  0
  161.1760  206.2930  148.3300 C   0  0  0  0  0  0  0  0  0  0  0  0
  160.8720  204.6870  146.6320 N   0  0  0  0  0  0  0  0  0  0  0  0
  161.6450  204.4770  145.3990 C   0  0  0  0  0  3  0  0  0  0  0  0
  163.1350  204.7030  145.6330 C   0  0  0  0  0  1  0  0  0  0  0  0
  161.2060  205.4530  144.3180 C   0  0  0  0  0  1  0  0  0  0  0  0
  162.0950  210.0990  150.1390 N   0  0  0  0  0  0  0  0  0  0  0  0
  162.3320  210.0110  148.7010 C   0  0  0  0  0  2  0  0  0  0  0  0
  161.2720  210.8500  147.9770 C   0  0  0  0  0  2  0  0  0  0  0  0
  161.2840  212.2260  148.4920 N   0  0  0  0  0  2  0  0  0  0  0  0
  161.9560  211.4340  150.7150 C   0  0  0  0  0  2  0  0  0  0  0  0
  160.9180  212.2180  149.9080 C   0  0  0  0  0  2  0  0  0  0  0  0
  1  4  1  0  0  0  0
  1 16  1  0  0  0  0
  2  1  1  0  0  0  0
  3  2  2  0  0  0  0
  3  6  1  0  0  0  0
  5  6  1  0  0  0  0
  6  4  2  0  0  0  0
  7 14  1  0  0  0  0
  8  9  1  0  0  0  0
  8  7  1  0  0  0  0
 10  8  2  0  0  0  0
 11  7  2  0  0  0  0
 12 11  1  0  0  0  0
 13 12  2  0  0  0  0
 13 10  1  0  0  0  0
 15  9  1  0  0  0  0
 16 10  1  0  0  0  0
 16 15  2  0  0  0  0
 18  3  1  0  0  0  0
 19 17  1  0  0  0  0
 20 21  1  0  0  0  0
 21 17  1  0  0  0  0
 21 18  2  0  0  0  0
 22 20  1  0  0  0  0
 22 19  1  0  0  0  0
 23 24  1  0  0  0  0
 23 22  1  0  0  0  0
 25 23  1  0  0  0  0
 26 30  1  0  0  0  0
 26  2  1  0  0  0  0
 27 26  1  0  0  0  0
 28 29  1  0  0  0  0
 28 27  1  0  0  0  0
 29 31  1  0  0  0  0
 31 30  1  0  0  0  0
M  END
>  <MODEL>
9

>  <REMARK>
 VINA RESULT:      -4.0      2.293      8.316
  Name = 
  4 active torsions:
  status: ('A' for Active; 'I' for Inactive)
    1  A    between atoms: N_1  and  C_28
    2  A    between atoms: C_3  and  N_8
    3  A    between atoms: C_5  and  N_30
    4  A    between atoms: N_6  and  C_23
                            x       y       z     vdW  Elec       q    Type
                         _______ _______ _______ _____ _____    ______ ____

>  <TORSDO>
F 4

$$$$
