=
 OpenBabel11052410083D

 54 56  0  0  1  0  0  0  0  0999 V2000
  161.0610  203.3140  146.7090 C   0  0  0  0  0  3  0  0  0  0  0  0
  161.3670  207.4660  148.4390 N   0  0  0  0  0  0  0  0  0  0  0  0
  160.9520  204.5110  146.1390 C   0  0  0  0  0  0  0  0  0  0  0  0
  161.6810  207.9910  149.6520 C   0  0  0  0  0  0  0  0  0  0  0  0
  161.4700  203.7540  149.1520 C   0  0  0  0  0  3  0  0  0  0  0  0
  161.8970  205.7510  150.5160 C   0  0  0  0  0  0  0  0  0  0  0  0
  161.0020  205.7540  146.8440 N   0  0  0  0  0  2  0  0  0  0  0  0
  161.3070  206.1290  148.1920 C   0  0  0  0  0  0  0  0  0  0  0  0
  161.9580  207.1270  150.7090 C   0  0  0  0  0  3  0  0  0  0  0  0
  161.5630  205.2200  149.2470 C   0  0  0  0  0  0  0  0  0  0  0  0
  161.2620  202.9630  148.1100 C   0  0  0  0  0  3  0  0  0  0  0  0
  159.9140  203.8100  144.1340 O   0  0  0  0  0  0  0  0  0  0  0  0
  160.7630  204.5670  144.6790 C   0  0  0  0  0  0  0  0  0  0  0  0
  161.5300  205.4730  143.8790 N   0  0  0  0  0  2  0  0  0  0  0  0
  161.2860  205.6700  142.4570 C   0  0  0  0  0  2  0  0  0  0  0  0
  162.1380  206.8110  141.9270 C   0  0  0  0  0  2  0  0  0  0  0  0
  162.4300  206.5930  140.1450 S   0  0  0  0  0  0  0  0  0  0  0  0
  162.7570  209.1780  139.5460 N   0  0  0  0  0  2  0  0  0  0  0  0
  160.4880  208.5540  139.8050 N   0  0  0  0  0  2  0  0  0  0  0  0
  161.8850  208.2500  139.7640 C   0  0  0  0  0  0  0  0  0  0  0  0
  159.6390  209.8010  137.8340 C   0  0  0  0  0  0  0  0  0  0  0  0
  159.7830  208.6890  137.0130 O   0  0  0  0  0  0  0  0  0  0  0  0
  159.2310  210.8840  137.3380 O   0  0  0  0  0  1  0  0  0  0  0  0
  159.9250  209.7120  139.2410 N   0  0  0  0  0  0  0  0  0  0  0  0
  159.5060  210.7770  140.1430 C   0  0  0  0  0  2  0  0  0  0  0  0
  161.2950  212.1710  139.4190 O   0  0  0  0  0  1  0  0  0  0  0  0
  160.7010  211.6170  140.5540 C   0  0  1  0  0  3  0  0  0  0  0  0
  160.2730  212.7310  141.5000 C   0  0  0  0  0  2  0  0  0  0  0  0
  161.4870  213.4350  142.1000 C   0  0  0  0  0  2  0  0  0  0  0  0
  160.6410  212.7260  144.2610 C   0  0  0  0  0  0  0  0  0  0  0  0
  159.6710  212.3560  144.9330 O   0  0  0  0  0  0  0  0  0  0  0  0
  161.6670  213.1140  143.5530 C   0  0  0  0  0  0  0  0  0  0  0  0
  163.0200  213.1210  144.1920 C   0  0  0  0  0  2  0  0  0  0  0  0
  162.9230  213.1690  145.5840 O   0  0  0  0  0  1  0  0  0  0  0  0
  161.7360  209.4600  149.8410 C   0  0  0  0  0  0  0  0  0  0  0  0
  161.9280  210.2370  148.7610 C   0  0  0  0  0  3  0  0  0  0  0  0
  161.2220  211.0190  153.8000 C   0  0  0  0  0  0  0  0  0  0  0  0
  161.5660  210.0230  151.1960 C   0  0  0  0  0  0  0  0  0  0  0  0
  162.5800  209.8650  152.1500 C   0  0  0  0  0  3  0  0  0  0  0  0
  160.2060  211.1680  152.8490 C   0  0  0  0  0  3  0  0  0  0  0  0
  160.3740  210.6690  151.5540 C   0  0  0  0  0  3  0  0  0  0  0  0
  162.4120  210.3640  153.4440 C   0  0  0  0  0  3  0  0  0  0  0  0
  161.0270  211.5390  155.1190 N   0  0  0  0  0  2  0  0  0  0  0  0
  160.9920  210.7080  156.3160 C   0  0  0  0  0  2  0  0  0  0  0  0
  159.8890  209.7100  156.2170 C   0  0  0  0  0  0  0  0  0  0  0  0
  158.7580  210.0610  155.7940 O   0  0  0  0  0  0  0  0  0  0  0  0
  160.1040  208.3970  156.6150 O   0  0  0  0  0  1  0  0  0  0  0  0
  162.0760  211.7040  148.7250 C   0  0  0  0  0  0  0  0  0  0  0  0
  163.2070  212.2540  148.6560 O   0  0  0  0  0  0  0  0  0  0  0  0
  160.9080  212.5150  148.7480 N   0  0  0  0  0  1  0  0  0  0  0  0
  162.2350  204.8730  151.6820 C   0  0  0  0  0  2  0  0  0  0  0  0
  160.4120  203.7800  152.7640 O   0  0  0  0  0  0  0  0  0  0  0  0
  160.7720  205.9590  153.3810 O   0  0  0  0  0  1  0  0  0  0  0  0
  161.0990  204.8290  152.6450 C   0  0  0  0  0  0  0  0  0  0  0  0
  1 11  1  0  0  0  0
  2  4  1  0  0  0  0
  3  1  2  0  0  0  0
  3  7  1  0  0  0  0
  4 35  1  0  0  0  0
  4  9  2  0  0  0  0
  5 10  1  0  0  0  0
  6  9  1  0  0  0  0
  6 51  1  0  0  0  0
  7  8  1  0  0  0  0
  8  2  2  0  0  0  0
  8 10  1  0  0  0  0
 10  6  2  0  0  0  0
 11  5  2  0  0  0  0
 12 13  2  0  0  0  0
 13  3  1  0  0  0  0
 14 13  1  0  0  0  0
 15 14  1  0  0  0  0
 16 15  1  0  0  0  0
 17 16  1  0  0  0  0
 18 20  2  0  0  0  0
 20 19  1  0  0  0  0
 20 17  1  0  0  0  0
 21 24  1  0  0  0  0
 22 21  2  0  0  0  0
 23 21  1  0  0  0  0
 24 19  1  0  0  0  0
 24 25  1  0  0  0  0
 25 27  1  0  0  0  0
 27 26  1  6  0  0  0
 27 28  1  0  0  0  0
 28 29  1  0  0  0  0
 29 32  1  0  0  0  0
 30 31  2  0  0  0  0
 32 33  1  0  0  0  0
 32 30  2  0  0  0  0
 33 34  1  0  0  0  0
 35 38  1  0  0  0  0
 36 35  2  0  0  0  0
 37 43  1  0  0  0  0
 38 41  2  0  0  0  0
 38 39  1  0  0  0  0
 39 42  2  0  0  0  0
 40 37  2  0  0  0  0
 41 40  1  0  0  0  0
 42 37  1  0  0  0  0
 43 44  1  0  0  0  0
 45 44  1  0  0  0  0
 45 47  1  0  0  0  0
 46 45  2  0  0  0  0
 48 50  1  0  0  0  0
 48 36  1  0  0  0  0
 49 48  2  0  0  0  0
 51 54  1  0  0  0  0
 54 52  2  0  0  0  0
 54 53  1  0  0  0  0
M  END
>  <MODEL>
1

>  <REMARK>
 VINA RESULT:      -4.9      0.000      0.000
  Name = 
  20 active torsions:
  status: ('A' for Active; 'I' for Inactive)
    1  A    between atoms: C_2  and  C_27
    2  A    between atoms: C_2  and  C_54
    3  A    between atoms: C_4  and  C_48
    4  A    between atoms: C_5  and  C_52
    5  A    between atoms: C_6  and  C_50
    6  A    between atoms: C_8  and  N_13
    7  A    between atoms: C_9  and  C_25
    8  A    between atoms: C_12  and  C_25
    9  A    between atoms: N_13  and  C_52
   10  A    between atoms: C_16  and  C_19
   11  A    between atoms: C_16  and  C_37
   12  A    between atoms: N_17  and  N_51
   13  A    between atoms: C_18  and  C_46
   14  A    between atoms: C_18  and  N_51
   15  A    between atoms: C_19  and  C_46
   16  A    between atoms: S_20  and  C_35
   17  A    between atoms: S_20  and  C_41
   18  A    between atoms: C_26  and  C_37
   19  A    between atoms: C_41  and  C_49
   20  A    between atoms: C_49  and  N_53
                            x       y       z     vdW  Elec       q    Type
                         _______ _______ _______ _____ _____    ______ ____

>  <TORSDO>
F 20

$$$$
=
 OpenBabel11052410083D

 54 56  0  0  1  0  0  0  0  0999 V2000
  161.1050  203.4700  146.6350 C   0  0  0  0  0  3  0  0  0  0  0  0
  161.3720  207.5920  148.4410 N   0  0  0  0  0  0  0  0  0  0  0  0
  160.9670  204.6760  146.0910 C   0  0  0  0  0  0  0  0  0  0  0  0
  161.6980  208.0990  149.6580 C   0  0  0  0  0  0  0  0  0  0  0  0
  161.5490  203.8700  149.0790 C   0  0  0  0  0  3  0  0  0  0  0  0
  161.9660  205.8470  150.4740 C   0  0  0  0  0  0  0  0  0  0  0  0
  161.0080  205.9050  146.8190 N   0  0  0  0  0  2  0  0  0  0  0  0
  161.3290  206.2590  148.1680 C   0  0  0  0  0  0  0  0  0  0  0  0
  162.0070  207.2200  150.6930 C   0  0  0  0  0  3  0  0  0  0  0  0
  161.6190  205.3350  149.2020 C   0  0  0  0  0  0  0  0  0  0  0  0
  161.3360  203.0960  148.0260 C   0  0  0  0  0  3  0  0  0  0  0  0
  159.8820  204.0190  144.0950 O   0  0  0  0  0  0  0  0  0  0  0  0
  160.7520  204.7560  144.6350 C   0  0  0  0  0  0  0  0  0  0  0  0
  161.5170  205.6640  143.8350 N   0  0  0  0  0  2  0  0  0  0  0  0
  161.2490  205.8860  142.4210 C   0  0  0  0  0  2  0  0  0  0  0  0
  162.3930  206.6550  141.7810 C   0  0  0  0  0  2  0  0  0  0  0  0
  162.3100  206.4970  139.9700 S   0  0  0  0  0  0  0  0  0  0  0  0
  162.1490  209.1030  140.5520 N   0  0  0  0  0  2  0  0  0  0  0  0
  160.7050  208.4400  138.7960 N   0  0  0  0  0  2  0  0  0  0  0  0
  161.7210  208.1710  139.7650 C   0  0  0  0  0  0  0  0  0  0  0  0
  161.2900  210.4790  137.5070 C   0  0  0  0  0  0  0  0  0  0  0  0
  162.4480  209.8890  137.0140 O   0  0  0  0  0  0  0  0  0  0  0  0
  161.0260  211.6700  137.1950 O   0  0  0  0  0  1  0  0  0  0  0  0
  160.3860  209.7310  138.3380 N   0  0  0  0  0  0  0  0  0  0  0  0
  159.0500  210.2430  138.6150 C   0  0  0  0  0  2  0  0  0  0  0  0
  157.7090  208.7080  137.3840 O   0  0  0  0  0  1  0  0  0  0  0  0
  158.1480  210.0330  137.4120 C   0  0  1  0  0  3  0  0  0  0  0  0
  156.9470  210.9670  137.4740 C   0  0  0  0  0  2  0  0  0  0  0  0
  156.2880  210.9190  138.8500 C   0  0  0  0  0  2  0  0  0  0  0  0
  154.3490  211.9480  139.8820 C   0  0  0  0  0  0  0  0  0  0  0  0
  153.3820  211.8250  140.6450 O   0  0  0  0  0  0  0  0  0  0  0  0
  155.3690  212.0810  139.0790 C   0  0  0  0  0  0  0  0  0  0  0  0
  155.6510  213.4280  138.4930 C   0  0  0  0  0  2  0  0  0  0  0  0
  155.0010  214.4370  139.2050 O   0  0  0  0  0  1  0  0  0  0  0  0
  161.7320  209.5650  149.8750 C   0  0  0  0  0  0  0  0  0  0  0  0
  162.0200  210.3600  148.8290 C   0  0  0  0  0  3  0  0  0  0  0  0
  160.9070  211.2080  153.7460 C   0  0  0  0  0  0  0  0  0  0  0  0
  161.4370  210.1060  151.2170 C   0  0  0  0  0  0  0  0  0  0  0  0
  160.2870  210.8800  151.4210 C   0  0  0  0  0  3  0  0  0  0  0  0
  162.0600  210.4440  153.5390 C   0  0  0  0  0  3  0  0  0  0  0  0
  162.3280  209.8980  152.2790 C   0  0  0  0  0  3  0  0  0  0  0  0
  160.0200  211.4240  152.6800 C   0  0  0  0  0  3  0  0  0  0  0  0
  160.6530  211.7540  155.0440 N   0  0  0  0  0  2  0  0  0  0  0  0
  159.4670  211.4450  155.8320 C   0  0  0  0  0  2  0  0  0  0  0  0
  158.7200  212.6950  156.1510 C   0  0  0  0  0  0  0  0  0  0  0  0
  158.8960  213.2690  157.2560 O   0  0  0  0  0  1  0  0  0  0  0  0
  157.8100  213.2120  155.2370 O   0  0  0  0  0  0  0  0  0  0  0  0
  162.1680  211.8270  148.8310 C   0  0  0  0  0  0  0  0  0  0  0  0
  161.3130  212.5780  149.3710 O   0  0  0  0  0  0  0  0  0  0  0  0
  163.3170  212.4050  148.2240 N   0  0  0  0  0  1  0  0  0  0  0  0
  162.3390  204.9520  151.6170 C   0  0  0  0  0  2  0  0  0  0  0  0
  160.5490  203.8090  152.7040 O   0  0  0  0  0  0  0  0  0  0  0  0
  160.8880  205.9770  153.3650 O   0  0  0  0  0  1  0  0  0  0  0  0
  161.2190  204.8700  152.5980 C   0  0  0  0  0  0  0  0  0  0  0  0
  1 11  1  0  0  0  0
  2  4  1  0  0  0  0
  3  1  2  0  0  0  0
  3  7  1  0  0  0  0
  4 35  1  0  0  0  0
  4  9  2  0  0  0  0
  5 10  1  0  0  0  0
  6  9  1  0  0  0  0
  6 51  1  0  0  0  0
  7  8  1  0  0  0  0
  8  2  2  0  0  0  0
  8 10  1  0  0  0  0
 10  6  2  0  0  0  0
 11  5  2  0  0  0  0
 12 13  2  0  0  0  0
 13  3  1  0  0  0  0
 14 13  1  0  0  0  0
 15 14  1  0  0  0  0
 16 15  1  0  0  0  0
 17 16  1  0  0  0  0
 19 20  1  0  0  0  0
 20 17  1  0  0  0  0
 20 18  2  0  0  0  0
 21 24  1  0  0  0  0
 22 21  2  0  0  0  0
 23 21  1  0  0  0  0
 24 25  1  0  0  0  0
 24 19  1  0  0  0  0
 27 26  1  1  0  0  0
 27 28  1  0  0  0  0
 27 25  1  0  0  0  0
 28 29  1  0  0  0  0
 29 32  1  0  0  0  0
 30 31  2  0  0  0  0
 32 30  2  0  0  0  0
 33 32  1  0  0  0  0
 33 34  1  0  0  0  0
 35 38  1  0  0  0  0
 36 48  1  0  0  0  0
 36 35  2  0  0  0  0
 37 43  1  0  0  0  0
 38 39  2  0  0  0  0
 38 41  1  0  0  0  0
 39 42  1  0  0  0  0
 40 37  1  0  0  0  0
 41 40  2  0  0  0  0
 42 37  2  0  0  0  0
 43 44  1  0  0  0  0
 44 45  1  0  0  0  0
 45 46  1  0  0  0  0
 47 45  2  0  0  0  0
 48 49  2  0  0  0  0
 50 48  1  0  0  0  0
 51 54  1  0  0  0  0
 54 52  2  0  0  0  0
 54 53  1  0  0  0  0
M  END
>  <MODEL>
2

>  <REMARK>
 VINA RESULT:      -4.5      2.144      3.349
  Name = 
  20 active torsions:
  status: ('A' for Active; 'I' for Inactive)
    1  A    between atoms: C_2  and  C_27
    2  A    between atoms: C_2  and  C_54
    3  A    between atoms: C_4  and  C_48
    4  A    between atoms: C_5  and  C_52
    5  A    between atoms: C_6  and  C_50
    6  A    between atoms: C_8  and  N_13
    7  A    between atoms: C_9  and  C_25
    8  A    between atoms: C_12  and  C_25
    9  A    between atoms: N_13  and  C_52
   10  A    between atoms: C_16  and  C_19
   11  A    between atoms: C_16  and  C_37
   12  A    between atoms: N_17  and  N_51
   13  A    between atoms: C_18  and  C_46
   14  A    between atoms: C_18  and  N_51
   15  A    between atoms: C_19  and  C_46
   16  A    between atoms: S_20  and  C_35
   17  A    between atoms: S_20  and  C_41
   18  A    between atoms: C_26  and  C_37
   19  A    between atoms: C_41  and  C_49
   20  A    between atoms: C_49  and  N_53
                            x       y       z     vdW  Elec       q    Type
                         _______ _______ _______ _____ _____    ______ ____

>  <TORSDO>
F 20

$$$$
=
 OpenBabel11052410083D

 54 56  0  0  1  0  0  0  0  0999 V2000
  162.0100  210.5910  150.8480 C   0  0  0  0  0  2  0  0  0  0  0  0
  161.6910  206.7140  148.5680 N   0  0  0  0  0  0  0  0  0  0  0  0
  161.7680  210.3470  149.5630 C   0  0  0  0  0  0  0  0  0  0  0  0
  161.7050  205.3940  148.8910 C   0  0  0  0  0  0  0  0  0  0  0  0
  162.3310  208.3380  151.9220 C   0  0  0  0  0  3  0  0  0  0  0  0
  162.0820  206.0070  151.1920 C   0  0  0  0  0  0  0  0  0  0  0  0
  161.7710  209.0470  148.9680 N   0  0  0  0  0  0  0  0  0  0  0  0
  161.8550  207.7120  149.4790 C   0  0  0  0  0  0  0  0  0  0  0  0
  161.8960  205.0280  150.2210 C   0  0  0  0  0  3  0  0  0  0  0  0
  162.0710  207.3770  150.8380 C   0  0  0  0  0  0  0  0  0  0  0  0
  162.3090  209.6630  151.9330 C   0  0  0  0  0  3  0  0  0  0  0  0
  161.7690  212.6590  149.0710 O   0  0  0  0  0  0  0  0  0  0  0  0
  161.4800  211.4940  148.6850 C   0  0  0  0  0  0  0  0  0  0  0  0
  160.8800  211.2950  147.4000 N   0  0  0  0  0  2  0  0  0  0  0  0
  160.7040  212.3730  146.4370 C   0  0  0  0  0  2  0  0  0  0  0  0
  159.2710  212.4020  145.9310 C   0  0  0  0  0  2  0  0  0  0  0  0
  158.6850  214.1210  145.8220 S   0  0  0  0  0  0  0  0  0  0  0  0
  157.9010  214.4200  143.2830 N   0  0  0  0  0  2  0  0  0  0  0  0
  160.1880  213.8500  143.4990 N   0  0  0  0  0  2  0  0  0  0  0  0
  158.9110  214.1770  144.0510 C   0  0  0  0  0  0  0  0  0  0  0  0
  161.9390  214.0820  141.7540 C   0  0  0  0  0  0  0  0  0  0  0  0
  162.9170  213.5830  142.6060 O   0  0  0  0  0  1  0  0  0  0  0  0
  162.2630  214.4520  140.5950 O   0  0  0  0  0  0  0  0  0  0  0  0
  160.5660  214.1480  142.1770 N   0  0  0  0  0  0  0  0  0  0  0  0
  159.5100  214.3950  141.2040 C   0  0  0  0  0  2  0  0  0  0  0  0
  158.8480  212.1330  140.8680 O   0  0  0  0  0  1  0  0  0  0  0  0
  159.4130  213.2360  140.2280 C   0  0  1  0  0  3  0  0  0  0  0  0
  158.5630  213.6190  139.0250 C   0  0  0  0  0  2  0  0  0  0  0  0
  157.3030  212.7620  138.9520 C   0  0  0  0  0  2  0  0  0  0  0  0
  158.6060  211.2950  137.5240 C   0  0  0  0  0  0  0  0  0  0  0  0
  159.7250  210.9430  137.1300 O   0  0  0  0  0  0  0  0  0  0  0  0
  157.4240  211.6620  137.9400 C   0  0  0  0  0  0  0  0  0  0  0  0
  156.2270  210.8970  137.4710 C   0  0  0  0  0  2  0  0  0  0  0  0
  155.0740  211.6810  137.5150 O   0  0  0  0  0  1  0  0  0  0  0  0
  161.5090  204.3650  147.8430 C   0  0  0  0  0  0  0  0  0  0  0  0
  161.3000  203.0930  148.2260 C   0  0  0  0  0  3  0  0  0  0  0  0
  161.5410  205.4580  143.6990 C   0  0  0  0  0  0  0  0  0  0  0  0
  161.5350  204.7650  146.4210 C   0  0  0  0  0  0  0  0  0  0  0  0
  160.4160  205.3850  145.8500 C   0  0  0  0  0  3  0  0  0  0  0  0
  162.6540  204.8300  144.2680 C   0  0  0  0  0  3  0  0  0  0  0  0
  162.6510  204.4800  145.6220 C   0  0  0  0  0  3  0  0  0  0  0  0
  160.4200  205.7340  144.4970 C   0  0  0  0  0  3  0  0  0  0  0  0
  161.5680  205.8070  142.3110 N   0  0  0  0  0  2  0  0  0  0  0  0
  162.6560  206.5510  141.6890 C   0  0  0  0  0  2  0  0  0  0  0  0
  162.2270  207.0750  140.3610 C   0  0  0  0  0  0  0  0  0  0  0  0
  162.5180  206.4460  139.3110 O   0  0  0  0  0  0  0  0  0  0  0  0
  161.5280  208.2730  140.2800 O   0  0  0  0  0  1  0  0  0  0  0  0
  161.1440  201.9090  147.3600 C   0  0  0  0  0  0  0  0  0  0  0  0
  160.7100  202.0030  146.1820 O   0  0  0  0  0  0  0  0  0  0  0  0
  161.5140  200.6330  147.8660 N   0  0  0  0  0  1  0  0  0  0  0  0
  162.2510  205.5520  152.6100 C   0  0  0  0  0  2  0  0  0  0  0  0
  160.4200  204.0930  153.0650 O   0  0  0  0  0  0  0  0  0  0  0  0
  160.2320  206.2160  153.9100 O   0  0  0  0  0  1  0  0  0  0  0  0
  160.9270  205.2360  153.2150 C   0  0  0  0  0  0  0  0  0  0  0  0
  1 11  1  0  0  0  0
  2  4  1  0  0  0  0
  2  8  2  0  0  0  0
  3  1  1  0  0  0  0
  4  9  2  0  0  0  0
  5 11  2  0  0  0  0
  6 51  1  0  0  0  0
  7  8  1  0  0  0  0
  7  3  2  0  0  0  0
  8 10  1  0  0  0  0
  9  6  1  0  0  0  0
 10  6  2  0  0  0  0
 10  5  1  0  0  0  0
 13 12  2  0  0  0  0
 13  3  1  0  0  0  0
 14 13  1  0  0  0  0
 15 14  1  0  0  0  0
 16 15  1  0  0  0  0
 17 16  1  0  0  0  0
 18 20  2  0  0  0  0
 19 20  1  0  0  0  0
 20 17  1  0  0  0  0
 21 24  1  0  0  0  0
 21 22  1  0  0  0  0
 23 21  2  0  0  0  0
 24 19  1  0  0  0  0
 25 24  1  0  0  0  0
 27 26  1  1  0  0  0
 27 25  1  0  0  0  0
 28 27  1  0  0  0  0
 29 28  1  0  0  0  0
 30 32  2  0  0  0  0
 31 30  2  0  0  0  0
 32 29  1  0  0  0  0
 33 34  1  0  0  0  0
 33 32  1  0  0  0  0
 35 36  2  0  0  0  0
 35  4  1  0  0  0  0
 37 40  2  0  0  0  0
 37 42  1  0  0  0  0
 38 35  1  0  0  0  0
 39 38  1  0  0  0  0
 40 41  1  0  0  0  0
 41 38  2  0  0  0  0
 42 39  2  0  0  0  0
 43 37  1  0  0  0  0
 44 43  1  0  0  0  0
 45 44  1  0  0  0  0
 46 45  2  0  0  0  0
 47 45  1  0  0  0  0
 48 50  1  0  0  0  0
 48 36  1  0  0  0  0
 49 48  2  0  0  0  0
 51 54  1  0  0  0  0
 52 54  2  0  0  0  0
 54 53  1  0  0  0  0
M  END
>  <MODEL>
3

>  <REMARK>
 VINA RESULT:      -3.5      2.793      8.314
  Name = 
  20 active torsions:
  status: ('A' for Active; 'I' for Inactive)
    1  A    between atoms: C_2  and  C_27
    2  A    between atoms: C_2  and  C_54
    3  A    between atoms: C_4  and  C_48
    4  A    between atoms: C_5  and  C_52
    5  A    between atoms: C_6  and  C_50
    6  A    between atoms: C_8  and  N_13
    7  A    between atoms: C_9  and  C_25
    8  A    between atoms: C_12  and  C_25
    9  A    between atoms: N_13  and  C_52
   10  A    between atoms: C_16  and  C_19
   11  A    between atoms: C_16  and  C_37
   12  A    between atoms: N_17  and  N_51
   13  A    between atoms: C_18  and  C_46
   14  A    between atoms: C_18  and  N_51
   15  A    between atoms: C_19  and  C_46
   16  A    between atoms: S_20  and  C_35
   17  A    between atoms: S_20  and  C_41
   18  A    between atoms: C_26  and  C_37
   19  A    between atoms: C_41  and  C_49
   20  A    between atoms: C_49  and  N_53
                            x       y       z     vdW  Elec       q    Type
                         _______ _______ _______ _____ _____    ______ ____

>  <TORSDO>
F 20

$$$$
=
 OpenBabel11052410083D

 54 56  0  0  1  0  0  0  0  0999 V2000
  161.9330  208.6870  151.6900 C   0  0  0  0  0  2  0  0  0  0  0  0
  161.5050  205.5240  148.5060 N   0  0  0  0  0  0  0  0  0  0  0  0
  161.9360  208.7740  150.3630 C   0  0  0  0  0  0  0  0  0  0  0  0
  161.2430  204.1910  148.4910 C   0  0  0  0  0  0  0  0  0  0  0  0
  161.6600  206.2420  152.2150 C   0  0  0  0  0  3  0  0  0  0  0  0
  161.2100  204.2160  150.9020 C   0  0  0  0  0  0  0  0  0  0  0  0
  161.8620  207.6540  149.4760 N   0  0  0  0  0  0  0  0  0  0  0  0
  161.6250  206.2530  149.6490 C   0  0  0  0  0  0  0  0  0  0  0  0
  161.0850  203.5220  149.7030 C   0  0  0  0  0  3  0  0  0  0  0  0
  161.4910  205.6030  150.9000 C   0  0  0  0  0  0  0  0  0  0  0  0
  161.8440  207.5100  152.5480 C   0  0  0  0  0  3  0  0  0  0  0  0
  162.6830  211.0170  150.3460 O   0  0  0  0  0  0  0  0  0  0  0  0
  162.0260  210.1140  149.7580 C   0  0  0  0  0  0  0  0  0  0  0  0
  161.3800  210.3960  148.5120 N   0  0  0  0  0  2  0  0  0  0  0  0
  161.5520  211.6550  147.8020 C   0  0  0  0  0  2  0  0  0  0  0  0
  160.6490  212.7240  148.3940 C   0  0  0  0  0  2  0  0  0  0  0  0
  161.2770  214.3760  147.9630 S   0  0  0  0  0  0  0  0  0  0  0  0
  159.7050  214.0810  145.8190 N   0  0  0  0  0  2  0  0  0  0  0  0
  162.0150  213.9440  145.3170 N   0  0  0  0  0  2  0  0  0  0  0  0
  160.9310  214.1500  146.2260 C   0  0  0  0  0  0  0  0  0  0  0  0
  163.0460  214.2510  143.0800 C   0  0  0  0  0  0  0  0  0  0  0  0
  164.3280  214.1910  143.6140 O   0  0  0  0  0  1  0  0  0  0  0  0
  162.9020  214.4520  141.8460 O   0  0  0  0  0  0  0  0  0  0  0  0
  161.8950  214.0570  143.9210 N   0  0  0  0  0  0  0  0  0  0  0  0
  160.5830  213.8350  143.3270 C   0  0  0  0  0  2  0  0  0  0  0  0
  160.3320  211.4830  143.0560 O   0  0  0  0  0  1  0  0  0  0  0  0
  160.6330  212.6600  142.3680 C   0  0  1  0  0  3  0  0  0  0  0  0
  159.6380  212.8540  141.2310 C   0  0  0  0  0  2  0  0  0  0  0  0
  159.3780  211.5390  140.5030 C   0  0  0  0  0  2  0  0  0  0  0  0
  161.1270  211.9880  138.8830 C   0  0  0  0  0  0  0  0  0  0  0  0
  162.2740  212.4010  138.6700 O   0  0  0  0  0  0  0  0  0  0  0  0
  159.9180  211.5500  139.1040 C   0  0  0  0  0  0  0  0  0  0  0  0
  159.1440  210.9690  137.9640 C   0  0  0  0  0  2  0  0  0  0  0  0
  159.6740  209.7400  137.5650 O   0  0  0  0  0  1  0  0  0  0  0  0
  161.1160  203.4660  147.2040 C   0  0  0  0  0  0  0  0  0  0  0  0
  160.9240  202.1360  147.2350 C   0  0  0  0  0  3  0  0  0  0  0  0
  161.3360  205.5890  143.4880 C   0  0  0  0  0  0  0  0  0  0  0  0
  161.1900  204.2230  145.9380 C   0  0  0  0  0  0  0  0  0  0  0  0
  160.0460  204.3670  145.1430 C   0  0  0  0  0  3  0  0  0  0  0  0
  162.4800  205.4360  144.2770 C   0  0  0  0  0  3  0  0  0  0  0  0
  162.4110  204.7520  145.4950 C   0  0  0  0  0  3  0  0  0  0  0  0
  160.1160  205.0510  143.9270 C   0  0  0  0  0  3  0  0  0  0  0  0
  161.4310  206.2950  142.2460 N   0  0  0  0  0  2  0  0  0  0  0  0
  162.6480  206.3550  141.4450 C   0  0  0  0  0  2  0  0  0  0  0  0
  162.3410  206.8770  140.0830 C   0  0  0  0  0  0  0  0  0  0  0  0
  163.0360  206.5160  139.0990 O   0  0  0  0  0  0  0  0  0  0  0  0
  161.3040  207.7830  139.9040 O   0  0  0  0  0  1  0  0  0  0  0  0
  160.8340  201.2160  146.0860 C   0  0  0  0  0  0  0  0  0  0  0  0
  161.4670  200.1270  146.0580 O   0  0  0  0  0  0  0  0  0  0  0  0
  159.9920  201.5600  144.9930 N   0  0  0  0  0  1  0  0  0  0  0  0
  160.9990  203.4480  152.1710 C   0  0  0  0  0  2  0  0  0  0  0  0
  162.3340  201.4730  152.2430 O   0  0  0  0  0  1  0  0  0  0  0  0
  160.2350  201.2210  151.3570 O   0  0  0  0  0  0  0  0  0  0  0  0
  161.2280  201.9940  151.9420 C   0  0  0  0  0  0  0  0  0  0  0  0
  1 11  1  0  0  0  0
  2  8  2  0  0  0  0
  3  1  1  0  0  0  0
  4  2  1  0  0  0  0
  4  9  2  0  0  0  0
  5 11  2  0  0  0  0
  6 51  1  0  0  0  0
  7  8  1  0  0  0  0
  7  3  2  0  0  0  0
  8 10  1  0  0  0  0
  9  6  1  0  0  0  0
 10  6  2  0  0  0  0
 10  5  1  0  0  0  0
 13 12  2  0  0  0  0
 13  3  1  0  0  0  0
 14 13  1  0  0  0  0
 15 16  1  0  0  0  0
 15 14  1  0  0  0  0
 17 16  1  0  0  0  0
 18 20  2  0  0  0  0
 19 20  1  0  0  0  0
 20 17  1  0  0  0  0
 21 22  1  0  0  0  0
 21 24  1  0  0  0  0
 23 21  2  0  0  0  0
 24 19  1  0  0  0  0
 25 24  1  0  0  0  0
 27 26  1  1  0  0  0
 27 25  1  0  0  0  0
 28 27  1  0  0  0  0
 29 28  1  0  0  0  0
 30 32  2  0  0  0  0
 31 30  2  0  0  0  0
 32 29  1  0  0  0  0
 33 32  1  0  0  0  0
 34 33  1  0  0  0  0
 35 36  2  0  0  0  0
 35  4  1  0  0  0  0
 37 42  2  0  0  0  0
 37 40  1  0  0  0  0
 38 35  1  0  0  0  0
 39 38  2  0  0  0  0
 40 41  2  0  0  0  0
 41 38  1  0  0  0  0
 42 39  1  0  0  0  0
 43 37  1  0  0  0  0
 44 43  1  0  0  0  0
 45 44  1  0  0  0  0
 46 45  2  0  0  0  0
 47 45  1  0  0  0  0
 48 36  1  0  0  0  0
 49 48  2  0  0  0  0
 50 48  1  0  0  0  0
 53 54  2  0  0  0  0
 54 51  1  0  0  0  0
 54 52  1  0  0  0  0
M  END
>  <MODEL>
4

>  <REMARK>
 VINA RESULT:      -3.1      3.109      8.488
  Name = 
  20 active torsions:
  status: ('A' for Active; 'I' for Inactive)
    1  A    between atoms: C_2  and  C_27
    2  A    between atoms: C_2  and  C_54
    3  A    between atoms: C_4  and  C_48
    4  A    between atoms: C_5  and  C_52
    5  A    between atoms: C_6  and  C_50
    6  A    between atoms: C_8  and  N_13
    7  A    between atoms: C_9  and  C_25
    8  A    between atoms: C_12  and  C_25
    9  A    between atoms: N_13  and  C_52
   10  A    between atoms: C_16  and  C_19
   11  A    between atoms: C_16  and  C_37
   12  A    between atoms: N_17  and  N_51
   13  A    between atoms: C_18  and  C_46
   14  A    between atoms: C_18  and  N_51
   15  A    between atoms: C_19  and  C_46
   16  A    between atoms: S_20  and  C_35
   17  A    between atoms: S_20  and  C_41
   18  A    between atoms: C_26  and  C_37
   19  A    between atoms: C_41  and  C_49
   20  A    between atoms: C_49  and  N_53
                            x       y       z     vdW  Elec       q    Type
                         _______ _______ _______ _____ _____    ______ ____

>  <TORSDO>
F 20

$$$$
=
 OpenBabel11052410083D

 54 56  0  0  1  0  0  0  0  0999 V2000
  161.5540  203.9100  145.0380 C   0  0  0  0  0  3  0  0  0  0  0  0
  161.5800  206.9430  148.3730 N   0  0  0  0  0  0  0  0  0  0  0  0
  161.8760  205.2010  145.0460 C   0  0  0  0  0  0  0  0  0  0  0  0
  161.3710  206.9120  149.7150 C   0  0  0  0  0  0  0  0  0  0  0  0
  160.8580  203.3640  147.3930 C   0  0  0  0  0  3  0  0  0  0  0  0
  160.8730  204.5600  149.5370 C   0  0  0  0  0  0  0  0  0  0  0  0
  161.7610  206.0590  146.1840 N   0  0  0  0  0  2  0  0  0  0  0  0
  161.4630  205.8510  147.5690 C   0  0  0  0  0  0  0  0  0  0  0  0
  161.0190  205.7050  150.3150 C   0  0  0  0  0  3  0  0  0  0  0  0
  161.0880  204.6110  148.1400 C   0  0  0  0  0  0  0  0  0  0  0  0
  161.0450  203.0690  146.1160 C   0  0  0  0  0  3  0  0  0  0  0  0
  163.5190  206.3410  143.7860 O   0  0  0  0  0  0  0  0  0  0  0  0
  162.3830  205.7940  143.7970 C   0  0  0  0  0  0  0  0  0  0  0  0
  161.5980  205.7520  142.6000 N   0  0  0  0  0  2  0  0  0  0  0  0
  162.1060  206.1940  141.3090 C   0  0  0  0  0  2  0  0  0  0  0  0
  161.3990  207.4670  140.8700 C   0  0  0  0  0  2  0  0  0  0  0  0
  161.7040  207.7690  139.1030 S   0  0  0  0  0  0  0  0  0  0  0  0
  160.9950  210.0020  140.3920 N   0  0  0  0  0  2  0  0  0  0  0  0
  161.1530  210.2800  138.0460 N   0  0  0  0  0  2  0  0  0  0  0  0
  161.2770  209.4970  139.2350 C   0  0  0  0  0  0  0  0  0  0  0  0
  159.9070  212.4160  138.2730 C   0  0  0  0  0  0  0  0  0  0  0  0
  158.7490  211.7500  138.6590 O   0  0  0  0  0  1  0  0  0  0  0  0
  159.8870  213.6690  138.1580 O   0  0  0  0  0  0  0  0  0  0  0  0
  161.1240  211.6860  138.0360 N   0  0  0  0  0  0  0  0  0  0  0  0
  162.3910  212.3940  137.9160 C   0  0  0  0  0  2  0  0  0  0  0  0
  164.5480  212.4070  138.9240 O   0  0  0  0  0  1  0  0  0  0  0  0
  163.1870  212.2710  139.2020 C   0  0  1  0  0  3  0  0  0  0  0  0
  162.7610  213.3400  140.1990 C   0  0  0  0  0  2  0  0  0  0  0  0
  162.4230  212.7210  141.5530 C   0  0  0  0  0  2  0  0  0  0  0  0
  160.0880  213.2090  141.9930 C   0  0  0  0  0  0  0  0  0  0  0  0
  158.9020  212.9610  141.7390 O   0  0  0  0  0  0  0  0  0  0  0  0
  161.3380  213.4710  142.2640 C   0  0  0  0  0  0  0  0  0  0  0  0
  161.6480  214.4400  143.3610 C   0  0  0  0  0  2  0  0  0  0  0  0
  162.9690  214.3120  143.7930 O   0  0  0  0  0  1  0  0  0  0  0  0
  161.5270  208.1430  150.5270 C   0  0  0  0  0  0  0  0  0  0  0  0
  161.9780  209.2550  149.9220 C   0  0  0  0  0  3  0  0  0  0  0  0
  160.4480  207.9960  154.6720 C   0  0  0  0  0  0  0  0  0  0  0  0
  161.1720  208.1140  151.9610 C   0  0  0  0  0  0  0  0  0  0  0  0
  161.8020  207.2030  152.8180 C   0  0  0  0  0  3  0  0  0  0  0  0
  159.8130  208.8990  153.8130 C   0  0  0  0  0  3  0  0  0  0  0  0
  160.1690  208.9560  152.4620 C   0  0  0  0  0  3  0  0  0  0  0  0
  161.4460  207.1470  154.1680 C   0  0  0  0  0  3  0  0  0  0  0  0
  160.0680  207.9570  156.0510 N   0  0  0  0  0  2  0  0  0  0  0  0
  160.3070  209.0510  156.9850 C   0  0  0  0  0  2  0  0  0  0  0  0
  161.6240  209.6900  156.7020 C   0  0  0  0  0  0  0  0  0  0  0  0
  161.6710  210.8090  156.1300 O   0  0  0  0  0  0  0  0  0  0  0  0
  162.8010  209.0380  157.0490 O   0  0  0  0  0  1  0  0  0  0  0  0
  162.2640  210.5620  150.5430 C   0  0  0  0  0  0  0  0  0  0  0  0
  163.0970  210.6820  151.4790 O   0  0  0  0  0  0  0  0  0  0  0  0
  161.5950  211.7180  150.0550 N   0  0  0  0  0  1  0  0  0  0  0  0
  160.5230  203.2850  150.2430 C   0  0  0  0  0  2  0  0  0  0  0  0
  160.6480  202.5620  152.5130 O   0  0  0  0  0  1  0  0  0  0  0  0
  162.3050  203.9930  151.8340 O   0  0  0  0  0  0  0  0  0  0  0  0
  161.1630  203.2440  151.5880 C   0  0  0  0  0  0  0  0  0  0  0  0
  1  3  2  0  0  0  0
  1 11  1  0  0  0  0
  2  4  1  0  0  0  0
  3  7  1  0  0  0  0
  4  9  2  0  0  0  0
  4 35  1  0  0  0  0
  5 10  1  0  0  0  0
  6 51  1  0  0  0  0
  6  9  1  0  0  0  0
  7  8  1  0  0  0  0
  8 10  1  0  0  0  0
  8  2  2  0  0  0  0
 10  6  2  0  0  0  0
 11  5  2  0  0  0  0
 12 13  2  0  0  0  0
 13  3  1  0  0  0  0
 14 13  1  0  0  0  0
 15 14  1  0  0  0  0
 16 15  1  0  0  0  0
 17 20  1  0  0  0  0
 17 16  1  0  0  0  0
 19 20  1  0  0  0  0
 20 18  2  0  0  0  0
 21 22  1  0  0  0  0
 23 21  2  0  0  0  0
 24 19  1  0  0  0  0
 24 21  1  0  0  0  0
 25 24  1  0  0  0  0
 25 27  1  0  0  0  0
 27 26  1  6  0  0  0
 27 28  1  0  0  0  0
 28 29  1  0  0  0  0
 29 32  1  0  0  0  0
 30 32  2  0  0  0  0
 31 30  2  0  0  0  0
 32 33  1  0  0  0  0
 33 34  1  0  0  0  0
 35 38  1  0  0  0  0
 36 35  2  0  0  0  0
 36 48  1  0  0  0  0
 37 43  1  0  0  0  0
 38 41  2  0  0  0  0
 38 39  1  0  0  0  0
 39 42  2  0  0  0  0
 40 37  2  0  0  0  0
 41 40  1  0  0  0  0
 42 37  1  0  0  0  0
 43 44  1  0  0  0  0
 45 44  1  0  0  0  0
 45 47  1  0  0  0  0
 46 45  2  0  0  0  0
 48 49  2  0  0  0  0
 50 48  1  0  0  0  0
 51 54  1  0  0  0  0
 54 53  2  0  0  0  0
 54 52  1  0  0  0  0
M  END
>  <MODEL>
5

>  <REMARK>
 VINA RESULT:      -2.8      2.007      2.387
  Name = 
  20 active torsions:
  status: ('A' for Active; 'I' for Inactive)
    1  A    between atoms: C_2  and  C_27
    2  A    between atoms: C_2  and  C_54
    3  A    between atoms: C_4  and  C_48
    4  A    between atoms: C_5  and  C_52
    5  A    between atoms: C_6  and  C_50
    6  A    between atoms: C_8  and  N_13
    7  A    between atoms: C_9  and  C_25
    8  A    between atoms: C_12  and  C_25
    9  A    between atoms: N_13  and  C_52
   10  A    between atoms: C_16  and  C_19
   11  A    between atoms: C_16  and  C_37
   12  A    between atoms: N_17  and  N_51
   13  A    between atoms: C_18  and  C_46
   14  A    between atoms: C_18  and  N_51
   15  A    between atoms: C_19  and  C_46
   16  A    between atoms: S_20  and  C_35
   17  A    between atoms: S_20  and  C_41
   18  A    between atoms: C_26  and  C_37
   19  A    between atoms: C_41  and  C_49
   20  A    between atoms: C_49  and  N_53
                            x       y       z     vdW  Elec       q    Type
                         _______ _______ _______ _____ _____    ______ ____

>  <TORSDO>
F 20

$$$$
=
 OpenBabel11052410083D

 54 56  0  0  1  0  0  0  0  0999 V2000
  161.3490  203.5230  144.8550 C   0  0  0  0  0  3  0  0  0  0  0  0
  161.3070  205.6400  148.8350 N   0  0  0  0  0  0  0  0  0  0  0  0
  161.7150  204.7550  145.1960 C   0  0  0  0  0  0  0  0  0  0  0  0
  161.0280  205.2900  150.1180 C   0  0  0  0  0  0  0  0  0  0  0  0
  160.5110  202.4490  146.9700 C   0  0  0  0  0  3  0  0  0  0  0  0
  160.4570  203.0800  149.3420 C   0  0  0  0  0  0  0  0  0  0  0  0
  161.5710  205.3130  146.5050 N   0  0  0  0  0  2  0  0  0  0  0  0
  161.1950  204.7860  147.7810 C   0  0  0  0  0  0  0  0  0  0  0  0
  160.6020  203.9910  150.3840 C   0  0  0  0  0  3  0  0  0  0  0  0
  160.7460  203.4620  148.0110 C   0  0  0  0  0  0  0  0  0  0  0  0
  160.7550  202.4680  145.6680 C   0  0  0  0  0  3  0  0  0  0  0  0
  163.4260  206.1590  144.3620 O   0  0  0  0  0  0  0  0  0  0  0  0
  162.3080  205.6130  144.1550 C   0  0  0  0  0  0  0  0  0  0  0  0
  161.6280  205.8260  142.9130 N   0  0  0  0  0  2  0  0  0  0  0  0
  162.2290  206.5460  141.7990 C   0  0  0  0  0  2  0  0  0  0  0  0
  161.5690  206.1420  140.4910 C   0  0  0  0  0  2  0  0  0  0  0  0
  162.5480  206.7570  139.0860 S   0  0  0  0  0  0  0  0  0  0  0  0
  160.6490  208.4940  139.8100 N   0  0  0  0  0  2  0  0  0  0  0  0
  161.6870  209.0400  137.7540 N   0  0  0  0  0  2  0  0  0  0  0  0
  161.5490  208.2280  138.9220 C   0  0  0  0  0  0  0  0  0  0  0  0
  159.7980  210.6150  137.4080 C   0  0  0  0  0  0  0  0  0  0  0  0
  158.8750  209.5760  137.4040 O   0  0  0  0  0  1  0  0  0  0  0  0
  159.3990  211.7940  137.2200 O   0  0  0  0  0  0  0  0  0  0  0  0
  161.1910  210.3520  137.6530 N   0  0  0  0  0  0  0  0  0  0  0  0
  162.1040  211.4510  137.9410 C   0  0  0  0  0  2  0  0  0  0  0  0
  164.2740  211.2140  138.8920 O   0  0  0  0  0  1  0  0  0  0  0  0
  162.9120  211.1490  139.1900 C   0  0  1  0  0  3  0  0  0  0  0  0
  162.5840  212.1450  140.2940 C   0  0  0  0  0  2  0  0  0  0  0  0
  161.8310  211.4670  141.4350 C   0  0  0  0  0  2  0  0  0  0  0  0
  159.7390  212.6510  141.1020 C   0  0  0  0  0  0  0  0  0  0  0  0
  158.8410  212.9860  140.3190 O   0  0  0  0  0  0  0  0  0  0  0  0
  160.6850  212.2970  141.9290 C   0  0  0  0  0  0  0  0  0  0  0  0
  160.5380  212.6410  143.3780 C   0  0  0  0  0  2  0  0  0  0  0  0
  159.7150  211.7260  144.0360 O   0  0  0  0  0  1  0  0  0  0  0  0
  161.1840  206.2750  151.2140 C   0  0  0  0  0  0  0  0  0  0  0  0
  161.1580  205.8300  152.4830 C   0  0  0  0  0  3  0  0  0  0  0  0
  161.6660  210.4190  150.2360 C   0  0  0  0  0  0  0  0  0  0  0  0
  161.3780  207.7010  150.8840 C   0  0  0  0  0  0  0  0  0  0  0  0
  161.0170  208.6880  151.8110 C   0  0  0  0  0  3  0  0  0  0  0  0
  162.0160  209.4340  149.3080 C   0  0  0  0  0  3  0  0  0  0  0  0
  161.8690  208.0800  149.6270 C   0  0  0  0  0  3  0  0  0  0  0  0
  161.1650  210.0400  151.4920 C   0  0  0  0  0  3  0  0  0  0  0  0
  161.8260  211.7980  149.8870 N   0  0  0  0  0  2  0  0  0  0  0  0
  161.4820  212.3440  148.5800 C   0  0  0  0  0  2  0  0  0  0  0  0
  162.7100  212.8210  147.8820 C   0  0  0  0  0  0  0  0  0  0  0  0
  163.7870  212.1800  147.9930 O   0  0  0  0  0  1  0  0  0  0  0  0
  162.6720  213.9870  147.1290 O   0  0  0  0  0  0  0  0  0  0  0  0
  161.2320  206.6330  153.7170 C   0  0  0  0  0  0  0  0  0  0  0  0
  162.2170  207.3780  153.9650 O   0  0  0  0  0  0  0  0  0  0  0  0
  160.1520  206.5790  154.6400 N   0  0  0  0  0  1  0  0  0  0  0  0
  160.0250  201.6880  149.6950 C   0  0  0  0  0  2  0  0  0  0  0  0
  161.6760  200.5740  151.0080 O   0  0  0  0  0  1  0  0  0  0  0  0
  161.8340  200.2640  148.7420 O   0  0  0  0  0  0  0  0  0  0  0  0
  161.2130  200.8030  149.8590 C   0  0  0  0  0  0  0  0  0  0  0  0
  1  3  2  0  0  0  0
  1 11  1  0  0  0  0
  2  4  1  0  0  0  0
  3  7  1  0  0  0  0
  4  9  2  0  0  0  0
  4 35  1  0  0  0  0
  5 10  1  0  0  0  0
  6 51  1  0  0  0  0
  6  9  1  0  0  0  0
  7  8  1  0  0  0  0
  8 10  1  0  0  0  0
  8  2  2  0  0  0  0
 10  6  2  0  0  0  0
 11  5  2  0  0  0  0
 13 12  2  0  0  0  0
 13  3  1  0  0  0  0
 14 13  1  0  0  0  0
 15 14  1  0  0  0  0
 16 15  1  0  0  0  0
 17 16  1  0  0  0  0
 19 20  1  0  0  0  0
 20 17  1  0  0  0  0
 20 18  2  0  0  0  0
 21 24  1  0  0  0  0
 22 21  1  0  0  0  0
 23 21  2  0  0  0  0
 24 19  1  0  0  0  0
 24 25  1  0  0  0  0
 25 27  1  0  0  0  0
 27 26  1  6  0  0  0
 27 28  1  0  0  0  0
 28 29  1  0  0  0  0
 29 32  1  0  0  0  0
 30 32  2  0  0  0  0
 31 30  2  0  0  0  0
 32 33  1  0  0  0  0
 33 34  1  0  0  0  0
 35 36  2  0  0  0  0
 36 48  1  0  0  0  0
 37 42  1  0  0  0  0
 38 35  1  0  0  0  0
 38 39  1  0  0  0  0
 40 41  1  0  0  0  0
 40 37  2  0  0  0  0
 41 38  2  0  0  0  0
 42 39  2  0  0  0  0
 43 37  1  0  0  0  0
 44 43  1  0  0  0  0
 45 46  1  0  0  0  0
 45 44  1  0  0  0  0
 47 45  2  0  0  0  0
 48 49  2  0  0  0  0
 48 50  1  0  0  0  0
 51 54  1  0  0  0  0
 53 54  2  0  0  0  0
 54 52  1  0  0  0  0
M  END
>  <MODEL>
6

>  <REMARK>
 VINA RESULT:      -2.5      2.056      4.302
  Name = 
  20 active torsions:
  status: ('A' for Active; 'I' for Inactive)
    1  A    between atoms: C_2  and  C_27
    2  A    between atoms: C_2  and  C_54
    3  A    between atoms: C_4  and  C_48
    4  A    between atoms: C_5  and  C_52
    5  A    between atoms: C_6  and  C_50
    6  A    between atoms: C_8  and  N_13
    7  A    between atoms: C_9  and  C_25
    8  A    between atoms: C_12  and  C_25
    9  A    between atoms: N_13  and  C_52
   10  A    between atoms: C_16  and  C_19
   11  A    between atoms: C_16  and  C_37
   12  A    between atoms: N_17  and  N_51
   13  A    between atoms: C_18  and  C_46
   14  A    between atoms: C_18  and  N_51
   15  A    between atoms: C_19  and  C_46
   16  A    between atoms: S_20  and  C_35
   17  A    between atoms: S_20  and  C_41
   18  A    between atoms: C_26  and  C_37
   19  A    between atoms: C_41  and  C_49
   20  A    between atoms: C_49  and  N_53
                            x       y       z     vdW  Elec       q    Type
                         _______ _______ _______ _____ _____    ______ ____

>  <TORSDO>
F 20

$$$$
=
 OpenBabel11052410083D

 54 56  0  0  1  0  0  0  0  0999 V2000
  161.6290  203.7780  144.9560 C   0  0  0  0  0  3  0  0  0  0  0  0
  161.3750  206.6480  148.4240 N   0  0  0  0  0  0  0  0  0  0  0  0
  161.8590  205.0870  145.0300 C   0  0  0  0  0  0  0  0  0  0  0  0
  161.1430  206.5400  149.7580 C   0  0  0  0  0  0  0  0  0  0  0  0
  160.9270  203.0760  147.2670 C   0  0  0  0  0  3  0  0  0  0  0  0
  160.8160  204.1700  149.4630 C   0  0  0  0  0  0  0  0  0  0  0  0
  161.6610  205.8810  146.2020 N   0  0  0  0  0  2  0  0  0  0  0  0
  161.3520  205.5890  147.5690 C   0  0  0  0  0  0  0  0  0  0  0  0
  160.8650  205.2850  150.2940 C   0  0  0  0  0  3  0  0  0  0  0  0
  161.0540  204.3010  148.0750 C   0  0  0  0  0  0  0  0  0  0  0  0
  161.1600  202.8550  145.9830 C   0  0  0  0  0  3  0  0  0  0  0  0
  163.4110  206.4460  143.8760 O   0  0  0  0  0  0  0  0  0  0  0  0
  162.3470  205.7720  143.8200 C   0  0  0  0  0  0  0  0  0  0  0  0
  161.6270  205.6730  142.5870 N   0  0  0  0  0  2  0  0  0  0  0  0
  162.1360  206.2090  141.3320 C   0  0  0  0  0  2  0  0  0  0  0  0
  161.3140  207.4120  140.8990 C   0  0  0  0  0  2  0  0  0  0  0  0
  161.5650  207.7300  139.1250 S   0  0  0  0  0  0  0  0  0  0  0  0
  161.0430  209.9760  140.4800 N   0  0  0  0  0  2  0  0  0  0  0  0
  161.1120  210.2870  138.1340 N   0  0  0  0  0  2  0  0  0  0  0  0
  161.2440  209.4770  139.3040 C   0  0  0  0  0  0  0  0  0  0  0  0
  160.0030  212.4850  138.4550 C   0  0  0  0  0  0  0  0  0  0  0  0
  158.8280  211.8790  138.8860 O   0  0  0  0  0  1  0  0  0  0  0  0
  160.0490  213.7400  138.3600 O   0  0  0  0  0  0  0  0  0  0  0  0
  161.1630  211.6930  138.1480 N   0  0  0  0  0  0  0  0  0  0  0  0
  162.4620  212.3300  137.9770 C   0  0  0  0  0  2  0  0  0  0  0  0
  164.6610  212.1530  138.8710 O   0  0  0  0  0  1  0  0  0  0  0  0
  163.3100  212.1380  139.2210 C   0  0  1  0  0  3  0  0  0  0  0  0
  163.0330  213.2400  140.2340 C   0  0  0  0  0  2  0  0  0  0  0  0
  162.7050  212.6520  141.6040 C   0  0  0  0  0  2  0  0  0  0  0  0
  160.4550  213.3600  142.1730 C   0  0  0  0  0  0  0  0  0  0  0  0
  159.2390  213.2230  141.9900 O   0  0  0  0  0  0  0  0  0  0  0  0
  161.7380  213.5040  142.3690 C   0  0  0  0  0  0  0  0  0  0  0  0
  162.2000  214.4450  143.4360 C   0  0  0  0  0  2  0  0  0  0  0  0
  163.3480  213.9680  144.0710 O   0  0  0  0  0  1  0  0  0  0  0  0
  161.1960  207.7390  150.6280 C   0  0  0  0  0  0  0  0  0  0  0  0
  160.9250  207.5930  151.9360 C   0  0  0  0  0  3  0  0  0  0  0  0
  162.3150  211.5010  148.9060 C   0  0  0  0  0  0  0  0  0  0  0  0
  161.5550  209.0450  150.0380 C   0  0  0  0  0  0  0  0  0  0  0  0
  161.6080  209.1920  148.6460 C   0  0  0  0  0  3  0  0  0  0  0  0
  162.2710  211.3500  150.2960 C   0  0  0  0  0  3  0  0  0  0  0  0
  161.8970  210.1270  150.8620 C   0  0  0  0  0  3  0  0  0  0  0  0
  161.9810  210.4150  148.0820 C   0  0  0  0  0  3  0  0  0  0  0  0
  162.6990  212.7630  148.3510 N   0  0  0  0  0  2  0  0  0  0  0  0
  161.8010  213.9070  148.2530 C   0  0  0  0  0  2  0  0  0  0  0  0
  160.4360  213.4580  147.8540 C   0  0  0  0  0  0  0  0  0  0  0  0
  159.5290  213.3560  148.7200 O   0  0  0  0  0  1  0  0  0  0  0  0
  160.1730  213.1280  146.5310 O   0  0  0  0  0  0  0  0  0  0  0  0
  160.8600  208.6510  152.9630 C   0  0  0  0  0  0  0  0  0  0  0  0
  160.0400  209.6030  152.8820 O   0  0  0  0  0  0  0  0  0  0  0  0
  161.7330  208.5780  154.0830 N   0  0  0  0  0  1  0  0  0  0  0  0
  160.5430  202.8420  150.1030 C   0  0  0  0  0  2  0  0  0  0  0  0
  161.8080  201.8270  151.8510 O   0  0  0  0  0  0  0  0  0  0  0  0
  160.8230  203.8300  152.3730 O   0  0  0  0  0  1  0  0  0  0  0  0
  161.1070  202.8050  151.4820 C   0  0  0  0  0  0  0  0  0  0  0  0
  1  3  2  0  0  0  0
  1 11  1  0  0  0  0
  2  4  1  0  0  0  0
  3  7  1  0  0  0  0
  4  9  2  0  0  0  0
  4 35  1  0  0  0  0
  5 10  1  0  0  0  0
  6 51  1  0  0  0  0
  6  9  1  0  0  0  0
  7  8  1  0  0  0  0
  8 10  1  0  0  0  0
  8  2  2  0  0  0  0
 10  6  2  0  0  0  0
 11  5  2  0  0  0  0
 13 12  2  0  0  0  0
 13  3  1  0  0  0  0
 14 13  1  0  0  0  0
 15 14  1  0  0  0  0
 16 15  1  0  0  0  0
 17 20  1  0  0  0  0
 17 16  1  0  0  0  0
 19 24  1  0  0  0  0
 19 20  1  0  0  0  0
 20 18  2  0  0  0  0
 21 22  1  0  0  0  0
 23 21  2  0  0  0  0
 24 21  1  0  0  0  0
 25 24  1  0  0  0  0
 25 27  1  0  0  0  0
 27 26  1  6  0  0  0
 27 28  1  0  0  0  0
 28 29  1  0  0  0  0
 29 32  1  0  0  0  0
 30 32  2  0  0  0  0
 31 30  2  0  0  0  0
 32 33  1  0  0  0  0
 33 34  1  0  0  0  0
 35 36  2  0  0  0  0
 36 48  1  0  0  0  0
 37 40  1  0  0  0  0
 38 35  1  0  0  0  0
 38 41  1  0  0  0  0
 39 38  2  0  0  0  0
 40 41  2  0  0  0  0
 42 39  1  0  0  0  0
 42 37  2  0  0  0  0
 43 37  1  0  0  0  0
 44 43  1  0  0  0  0
 45 44  1  0  0  0  0
 45 46  1  0  0  0  0
 47 45  2  0  0  0  0
 48 50  1  0  0  0  0
 49 48  2  0  0  0  0
 51 54  1  0  0  0  0
 54 52  2  0  0  0  0
 54 53  1  0  0  0  0
M  END
>  <MODEL>
7

>  <REMARK>
 VINA RESULT:      -2.4      2.068      3.906
  Name = 
  20 active torsions:
  status: ('A' for Active; 'I' for Inactive)
    1  A    between atoms: C_2  and  C_27
    2  A    between atoms: C_2  and  C_54
    3  A    between atoms: C_4  and  C_48
    4  A    between atoms: C_5  and  C_52
    5  A    between atoms: C_6  and  C_50
    6  A    between atoms: C_8  and  N_13
    7  A    between atoms: C_9  and  C_25
    8  A    between atoms: C_12  and  C_25
    9  A    between atoms: N_13  and  C_52
   10  A    between atoms: C_16  and  C_19
   11  A    between atoms: C_16  and  C_37
   12  A    between atoms: N_17  and  N_51
   13  A    between atoms: C_18  and  C_46
   14  A    between atoms: C_18  and  N_51
   15  A    between atoms: C_19  and  C_46
   16  A    between atoms: S_20  and  C_35
   17  A    between atoms: S_20  and  C_41
   18  A    between atoms: C_26  and  C_37
   19  A    between atoms: C_41  and  C_49
   20  A    between atoms: C_49  and  N_53
                            x       y       z     vdW  Elec       q    Type
                         _______ _______ _______ _____ _____    ______ ____

>  <TORSDO>
F 20

$$$$
