=
 OpenBabel11052410183D

 57 59  0  0  1  0  0  0  0  0999 V2000
  161.6930  205.4040  144.4870 C   0  0  0  0  0  0  0  0  0  0  0  0
  162.1540  203.1570  148.0480 N   0  0  0  0  0  1  0  0  0  0  0  0
  161.4670  203.3210  145.7180 C   0  0  0  0  0  3  0  0  0  0  0  0
  162.3820  205.2770  146.8210 C   0  0  0  0  0  0  0  0  0  0  0  0
  162.0010  203.9230  146.8590 C   0  0  0  0  0  0  0  0  0  0  0  0
  161.3130  204.0550  144.5410 C   0  0  0  0  0  3  0  0  0  0  0  0
  162.2320  206.0060  145.6380 C   0  0  0  0  0  3  0  0  0  0  0  0
  161.5330  206.1640  143.2260 C   0  0  0  0  0  0  0  0  0  0  0  0
  160.5630  207.0680  143.0980 C   0  0  0  0  0  2  0  0  0  0  0  0
  162.4380  205.9210  142.1410 N   0  0  0  0  0  2  0  0  0  0  0  0
  162.0770  206.0620  140.7390 C   0  0  0  0  0  2  0  0  0  0  0  0
  162.2130  207.5140  140.3310 C   0  0  0  0  0  2  0  0  0  0  0  0
  161.3560  207.7810  139.1120 C   0  0  0  0  0  2  0  0  0  0  0  0
  161.5760  209.2070  138.6560 C   0  0  0  0  0  2  0  0  0  0  0  0
  161.0260  210.1610  139.6950 C   0  0  0  0  0  2  0  0  0  0  0  0
  161.1060  211.5340  139.1840 N   0  0  0  0  0  0  0  0  0  0  0  0
  159.4500  211.9070  137.0890 O   0  0  0  0  0  0  0  0  0  0  0  0
  159.5350  212.0590  138.5920 P   0  0  0  0  0  0  0  0  0  0  0  0
  158.3110  211.1490  139.3230 O   0  0  0  0  0  1  0  0  0  0  0  0
  159.3160  213.6890  138.9890 O   0  0  0  0  0  1  0  0  0  0  0  0
  161.6330  212.4920  140.1000 N   0  0  0  0  0  0  0  0  0  0  0  0
  162.1570  214.2030  142.7020 C   0  0  0  0  0  2  0  0  0  0  0  0
  161.8290  211.9620  141.4840 C   0  0  1  0  0  3  0  0  0  0  0  0
  159.4370  212.7130  142.2070 C   0  0  0  0  0  2  0  0  0  0  0  0
  162.7260  212.8170  142.4040 C   0  0  0  0  0  2  0  0  0  0  0  0
  159.9690  214.1190  142.4630 C   0  0  0  0  0  2  0  0  0  0  0  0
  160.9710  214.1000  143.4340 O   0  0  0  0  0  0  0  0  0  0  0  0
  160.5090  211.6100  142.1930 C   0  0  0  0  0  2  0  0  0  0  0  0
  163.8160  214.2970  140.2960 O   0  0  0  0  0  1  0  0  0  0  0  0
  163.1580  213.0350  139.3840 P   0  0  0  0  0  0  0  0  0  0  0  0
  164.1440  211.8900  139.3240 O   0  0  0  0  0  1  0  0  0  0  0  0
  162.8750  213.5980  137.8150 O   0  0  0  0  0  0  0  0  0  0  0  0
  162.9670  205.9490  148.0210 C   0  0  0  0  0  2  0  0  0  0  0  0
  162.4400  207.3660  148.1340 C   0  0  0  0  0  2  0  0  0  0  0  0
  161.5740  207.4490  149.2220 O   0  0  0  0  0  0  0  0  0  0  0  0
  162.0360  208.5380  149.9620 C   0  0  0  0  0  2  0  0  0  0  0  0
  162.2810  208.1630  151.4230 C   0  0  1  0  0  3  0  0  0  0  0  0
  161.3200  209.4970  153.2520 C   0  0  0  0  0  0  0  0  0  0  0  0
  162.5880  210.2370  153.5390 C   0  0  0  0  0  1  0  0  0  0  0  0
  161.2210  208.6080  152.3140 N   0  0  0  0  0  0  0  0  0  0  0  0
  160.1190  209.8340  154.0860 C   0  0  1  0  0  3  0  0  0  0  0  0
  160.4130  209.5740  155.5590 C   0  0  0  0  0  2  0  0  0  0  0  0
  160.7490  208.1110  155.8070 C   0  0  0  0  0  2  0  0  0  0  0  0
  159.4880  207.2690  155.7850 C   0  0  0  0  0  1  0  0  0  0  0  0
  159.6810  211.2860  153.8780 C   0  0  0  0  0  2  0  0  0  0  0  0
  158.2230  212.5950  152.3960 C   0  0  0  0  0  2  0  0  0  0  0  0
  158.8040  211.4320  152.6760 C   0  0  0  0  0  3  0  0  0  0  0  0
  162.6720  206.7010  151.6330 C   0  0  0  0  0  2  0  0  0  0  0  0
  161.5290  205.6620  153.4380 O   0  0  0  0  0  1  0  0  0  0  0  0
  161.4630  205.8780  152.0570 C   0  0  2  0  0  3  0  0  0  0  0  0
  160.1190  203.1040  149.6660 C   0  0  0  0  0  2  0  0  0  0  0  0
  160.1050  201.6380  150.7420 S   0  0  0  0  0  0  0  0  0  0  0  0
  161.6180  203.3560  152.2290 C   0  0  0  0  0  2  0  0  0  0  0  0
  161.7230  202.0490  151.4610 C   0  0  0  0  0  2  0  0  0  0  0  0
  159.8680  205.5390  149.5330 C   0  0  0  0  0  1  0  0  0  0  0  0
  160.1090  204.3850  150.4900 C   0  0  2  0  0  3  0  0  0  0  0  0
  161.4270  204.5470  151.2790 C   0  0  1  0  0  3  0  0  0  0  0  0
  1  6  2  0  0  0  0
  1  7  1  0  0  0  0
  3  5  2  0  0  0  0
  4  5  1  0  0  0  0
  4 33  1  0  0  0  0
  5  2  1  0  0  0  0
  6  3  1  0  0  0  0
  7  4  2  0  0  0  0
  8  1  1  0  0  0  0
  9  8  2  0  0  0  0
 10  8  1  0  0  0  0
 11 10  1  0  0  0  0
 12 11  1  0  0  0  0
 13 12  1  0  0  0  0
 14 13  1  0  0  0  0
 14 15  1  0  0  0  0
 16 15  1  0  0  0  0
 16 21  1  0  0  0  0
 17 18  2  0  0  0  0
 18 20  1  0  0  0  0
 18 16  1  0  0  0  0
 18 19  1  0  0  0  0
 22 27  1  0  0  0  0
 23 21  1  6  0  0  0
 23 28  1  0  0  0  0
 23 25  1  0  0  0  0
 24 26  1  0  0  0  0
 25 22  1  0  0  0  0
 26 27  1  0  0  0  0
 28 24  1  0  0  0  0
 30 21  1  0  0  0  0
 30 29  1  0  0  0  0
 31 30  1  0  0  0  0
 32 30  2  0  0  0  0
 33 34  1  0  0  0  0
 34 35  1  0  0  0  0
 35 36  1  0  0  0  0
 37 36  1  6  0  0  0
 37 48  1  0  0  0  0
 37 40  1  0  0  0  0
 38 39  1  0  0  0  0
 38 41  1  0  0  0  0
 40 38  2  0  0  0  0
 41 45  1  1  0  0  0
 41 42  1  0  0  0  0
 42 43  1  0  0  0  0
 44 43  1  0  0  0  0
 46 47  2  0  0  0  0
 47 45  1  0  0  0  0
 48 50  1  0  0  0  0
 50 49  1  1  0  0  0
 51 56  1  0  0  0  0
 51 52  1  0  0  0  0
 52 54  1  0  0  0  0
 54 53  1  0  0  0  0
 56 55  1  6  0  0  0
 56 57  1  0  0  0  0
 57 50  1  1  0  0  0
 57 53  1  0  0  0  0
M  END
>  <MODEL>
1

>  <REMARK>
 VINA RESULT:      -1.8      0.000      0.000
  Name = 
  26 active torsions:
  status: ('A' for Active; 'I' for Inactive)
    1  A    between atoms: C_1  and  C_27
    2  A    between atoms: C_4  and  C_27
    3  A    between atoms: C_4  and  C_54
    4  A    between atoms: C_5  and  C_16
    5  A    between atoms: C_6  and  C_35
    6  A    between atoms: P_8  and  N_55
    7  A    between atoms: C_9  and  C_21
    8  A    between atoms: C_9  and  O_29
    9  A    between atoms: C_10  and  C_42
   10  A    between atoms: C_10  and  N_55
   11  A    between atoms: C_14  and  C_30
   12  A    between atoms: C_14  and  N_52
   13  A    between atoms: C_14  and  C_53
   14  A    between atoms: C_16  and  N_49
   15  A    between atoms: P_18  and  N_28
   16  A    between atoms: C_19  and  C_23
   17  A    between atoms: C_19  and  C_42
   18  A    between atoms: C_21  and  C_31
   19  A    between atoms: C_23  and  C_46
   20  A    between atoms: C_27  and  C_35
   21  A    between atoms: N_28  and  C_34
   22  A    between atoms: N_28  and  N_55
   23  A    between atoms: O_29  and  C_30
   24  A    between atoms: C_32  and  C_53
   25  A    between atoms: C_32  and  C_57
   26  A    between atoms: C_46  and  N_49
                            x       y       z     vdW  Elec       q    Type
                         _______ _______ _______ _____ _____    ______ ____

>  <TORSDO>
F 26

$$$$
=
 OpenBabel11052410183D

 57 59  0  0  1  0  0  0  0  0999 V2000
  161.0260  203.2620  147.5400 C   0  0  0  0  0  0  0  0  0  0  0  0
  161.4700  203.0620  151.7490 N   0  0  0  0  0  1  0  0  0  0  0  0
  161.2830  201.9680  149.5810 C   0  0  0  0  0  3  0  0  0  0  0  0
  161.2010  204.3890  149.6950 C   0  0  0  0  0  0  0  0  0  0  0  0
  161.3170  203.1420  150.3360 C   0  0  0  0  0  0  0  0  0  0  0  0
  161.1370  202.0260  148.1940 C   0  0  0  0  0  3  0  0  0  0  0  0
  161.0610  204.4420  148.3040 C   0  0  0  0  0  3  0  0  0  0  0  0
  160.8840  203.3050  146.0670 C   0  0  0  0  0  0  0  0  0  0  0  0
  160.1310  202.4070  145.4330 C   0  0  0  0  0  2  0  0  0  0  0  0
  161.5620  204.3270  145.3270 N   0  0  0  0  0  2  0  0  0  0  0  0
  160.9970  204.9940  144.1640 C   0  0  0  0  0  2  0  0  0  0  0  0
  162.1100  205.6460  143.3720 C   0  0  0  0  0  2  0  0  0  0  0  0
  161.6010  206.9220  142.7360 C   0  0  0  0  0  2  0  0  0  0  0  0
  161.8020  206.8440  141.2390 C   0  0  0  0  0  2  0  0  0  0  0  0
  160.8760  207.8250  140.5520 C   0  0  0  0  0  2  0  0  0  0  0  0
  161.6370  208.6070  139.5710 N   0  0  0  0  0  0  0  0  0  0  0  0
  160.4680  207.4880  137.4130 O   0  0  0  0  0  1  0  0  0  0  0  0
  161.8130  207.7020  138.0710 P   0  0  0  0  0  0  0  0  0  0  0  0
  162.8340  208.5380  137.0130 O   0  0  0  0  0  0  0  0  0  0  0  0
  162.4990  206.1960  138.4180 O   0  0  0  0  0  1  0  0  0  0  0  0
  161.1220  209.9090  139.3030 N   0  0  0  0  0  0  0  0  0  0  0  0
  159.4960  212.6150  139.2110 C   0  0  0  0  0  2  0  0  0  0  0  0
  159.7210  210.1160  139.7790 C   0  0  1  0  0  3  0  0  0  0  0  0
  158.8080  210.1910  137.3360 C   0  0  0  0  0  2  0  0  0  0  0  0
  159.3920  211.5360  140.2880 C   0  0  0  0  0  2  0  0  0  0  0  0
  159.2000  211.6630  137.2470 C   0  0  0  0  0  2  0  0  0  0  0  0
  158.5330  212.4110  138.2180 O   0  0  0  0  0  0  0  0  0  0  0  0
  158.6600  209.6480  138.7670 C   0  0  0  0  0  2  0  0  0  0  0  0
  162.2960  212.4940  139.2450 O   0  0  0  0  0  0  0  0  0  0  0  0
  162.2510  211.0270  140.0840 P   0  0  0  0  0  0  0  0  0  0  0  0
  161.8320  211.2790  141.5150 O   0  0  0  0  0  1  0  0  0  0  0  0
  163.8040  210.3580  140.0760 O   0  0  0  0  0  1  0  0  0  0  0  0
  161.2440  205.6640  150.4710 C   0  0  0  0  0  2  0  0  0  0  0  0
  161.4910  206.8350  149.5400 C   0  0  0  0  0  2  0  0  0  0  0  0
  161.1740  208.0210  150.1980 O   0  0  0  0  0  0  0  0  0  0  0  0
  161.5830  209.0310  149.3260 C   0  0  0  0  0  2  0  0  0  0  0  0
  162.5050  210.0340  150.0210 C   0  0  1  0  0  3  0  0  0  0  0  0
  161.9070  211.6980  148.3130 C   0  0  0  0  0  0  0  0  0  0  0  0
  161.2610  210.7060  147.3990 C   0  0  0  0  0  1  0  0  0  0  0  0
  162.4290  211.3700  149.4530 N   0  0  0  0  0  0  0  0  0  0  0  0
  161.9190  213.1350  147.8770 C   0  0  1  0  0  3  0  0  0  0  0  0
  161.7020  213.2270  146.3710 C   0  0  0  0  0  2  0  0  0  0  0  0
  163.0250  213.2750  145.6210 C   0  0  0  0  0  2  0  0  0  0  0  0
  162.7970  213.0740  144.1350 C   0  0  0  0  0  1  0  0  0  0  0  0
  160.8620  213.9550  148.6200 C   0  0  0  0  0  2  0  0  0  0  0  0
  158.8600  213.5790  147.2450 C   0  0  0  0  0  2  0  0  0  0  0  0
  159.7790  214.4250  147.7010 C   0  0  0  0  0  3  0  0  0  0  0  0
  162.4050  210.0170  151.5450 C   0  0  0  0  0  2  0  0  0  0  0  0
  160.9190  211.8710  151.4880 O   0  0  0  0  0  1  0  0  0  0  0  0
  161.0630  210.5760  152.0000 C   0  0  2  0  0  3  0  0  0  0  0  0
  160.4040  209.2030  155.5920 C   0  0  0  0  0  2  0  0  0  0  0  0
  159.2210  210.4140  156.2580 S   0  0  0  0  0  0  0  0  0  0  0  0
  160.1200  211.7350  154.0450 C   0  0  0  0  0  2  0  0  0  0  0  0
  160.1400  211.8180  155.5620 C   0  0  0  0  0  2  0  0  0  0  0  0
  161.2220  208.0360  153.5980 C   0  0  0  0  0  1  0  0  0  0  0  0
  160.4110  209.2300  154.0690 C   0  0  2  0  0  3  0  0  0  0  0  0
  160.9780  210.5660  153.5400 C   0  0  1  0  0  3  0  0  0  0  0  0
  1  6  2  0  0  0  0
  1  7  1  0  0  0  0
  3  5  2  0  0  0  0
  4  5  1  0  0  0  0
  4 33  1  0  0  0  0
  5  2  1  0  0  0  0
  6  3  1  0  0  0  0
  7  4  2  0  0  0  0
  8  1  1  0  0  0  0
  9  8  2  0  0  0  0
 10  8  1  0  0  0  0
 11 10  1  0  0  0  0
 12 11  1  0  0  0  0
 13 12  1  0  0  0  0
 14 13  1  0  0  0  0
 15 14  1  0  0  0  0
 16 15  1  0  0  0  0
 17 18  1  0  0  0  0
 18 20  1  0  0  0  0
 18 16  1  0  0  0  0
 19 18  2  0  0  0  0
 21 16  1  0  0  0  0
 21 30  1  0  0  0  0
 22 25  1  0  0  0  0
 23 21  1  6  0  0  0
 23 25  1  0  0  0  0
 24 28  1  0  0  0  0
 26 24  1  0  0  0  0
 26 27  1  0  0  0  0
 27 22  1  0  0  0  0
 28 23  1  0  0  0  0
 29 30  2  0  0  0  0
 30 31  1  0  0  0  0
 32 30  1  0  0  0  0
 34 35  1  0  0  0  0
 34 33  1  0  0  0  0
 36 35  1  0  0  0  0
 37 36  1  6  0  0  0
 37 48  1  0  0  0  0
 38 40  2  0  0  0  0
 39 38  1  0  0  0  0
 40 37  1  0  0  0  0
 41 42  1  6  0  0  0
 41 38  1  0  0  0  0
 41 45  1  0  0  0  0
 43 42  1  0  0  0  0
 44 43  1  0  0  0  0
 46 47  2  0  0  0  0
 47 45  1  0  0  0  0
 48 50  1  0  0  0  0
 50 49  1  1  0  0  0
 51 52  1  0  0  0  0
 53 54  1  0  0  0  0
 54 52  1  0  0  0  0
 56 55  1  6  0  0  0
 56 51  1  0  0  0  0
 57 50  1  6  0  0  0
 57 53  1  0  0  0  0
 57 56  1  0  0  0  0
M  END
>  <MODEL>
2

>  <REMARK>
 VINA RESULT:      -1.8      3.120      5.629
  Name = 
  26 active torsions:
  status: ('A' for Active; 'I' for Inactive)
    1  A    between atoms: C_1  and  C_27
    2  A    between atoms: C_4  and  C_27
    3  A    between atoms: C_4  and  C_54
    4  A    between atoms: C_5  and  C_16
    5  A    between atoms: C_6  and  C_35
    6  A    between atoms: P_8  and  N_55
    7  A    between atoms: C_9  and  C_21
    8  A    between atoms: C_9  and  O_29
    9  A    between atoms: C_10  and  C_42
   10  A    between atoms: C_10  and  N_55
   11  A    between atoms: C_14  and  C_30
   12  A    between atoms: C_14  and  N_52
   13  A    between atoms: C_14  and  C_53
   14  A    between atoms: C_16  and  N_49
   15  A    between atoms: P_18  and  N_28
   16  A    between atoms: C_19  and  C_23
   17  A    between atoms: C_19  and  C_42
   18  A    between atoms: C_21  and  C_31
   19  A    between atoms: C_23  and  C_46
   20  A    between atoms: C_27  and  C_35
   21  A    between atoms: N_28  and  C_34
   22  A    between atoms: N_28  and  N_55
   23  A    between atoms: O_29  and  C_30
   24  A    between atoms: C_32  and  C_53
   25  A    between atoms: C_32  and  C_57
   26  A    between atoms: C_46  and  N_49
                            x       y       z     vdW  Elec       q    Type
                         _______ _______ _______ _____ _____    ______ ____

>  <TORSDO>
F 26

$$$$
=
 OpenBabel11052410183D

 57 59  0  0  1  0  0  0  0  0999 V2000
  161.7200  205.5720  144.3830 C   0  0  0  0  0  0  0  0  0  0  0  0
  162.2150  203.6030  148.1010 N   0  0  0  0  0  1  0  0  0  0  0  0
  161.5920  203.5650  145.7480 C   0  0  0  0  0  3  0  0  0  0  0  0
  162.3420  205.6470  146.7390 C   0  0  0  0  0  0  0  0  0  0  0  0
  162.0500  204.2770  146.8580 C   0  0  0  0  0  0  0  0  0  0  0  0
  161.4270  204.2080  144.5190 C   0  0  0  0  0  3  0  0  0  0  0  0
  162.1820  206.2850  145.5040 C   0  0  0  0  0  3  0  0  0  0  0  0
  161.5510  206.2340  143.0690 C   0  0  0  0  0  0  0  0  0  0  0  0
  160.7980  207.3270  142.9530 C   0  0  0  0  0  1  0  0  0  0  0  0
  162.2100  205.6890  141.9190 N   0  0  0  0  0  0  0  0  0  0  0  0
  161.9170  206.0910  140.5520 C   0  0  0  0  0  2  0  0  0  0  0  0
  162.6770  207.3610  140.2310 C   0  0  0  0  0  2  0  0  0  0  0  0
  162.0970  207.9990  138.9870 C   0  0  0  0  0  2  0  0  0  0  0  0
  162.1110  209.5030  139.1500 C   0  0  0  0  0  2  0  0  0  0  0  0
  160.7960  209.9600  139.7450 C   0  0  0  0  0  2  0  0  0  0  0  0
  160.3880  211.2200  139.1130 N   0  0  0  0  0  0  0  0  0  0  0  0
  158.3050  211.6890  137.4670 O   0  0  0  0  0  0  0  0  0  0  0  0
  158.6450  211.2480  138.8730 P   0  0  0  0  0  0  0  0  0  0  0  0
  158.0010  209.7090  139.1540 O   0  0  0  0  0  1  0  0  0  0  0  0
  157.9580  212.3370  139.9690 O   0  0  0  0  0  1  0  0  0  0  0  0
  160.8120  212.4020  139.7890 N   0  0  0  0  0  0  0  0  0  0  0  0
  161.6090  214.4530  142.0540 C   0  0  0  0  0  2  0  0  0  0  0  0
  161.7500  212.1470  140.9240 C   0  0  1  0  0  3  0  0  0  0  0  0
  159.7820  211.9640  142.6280 C   0  0  0  0  0  2  0  0  0  0  0  0
  162.5140  213.3820  141.4480 C   0  0  0  0  0  2  0  0  0  0  0  0
  159.7540  213.4850  142.7400 C   0  0  0  0  0  2  0  0  0  0  0  0
  160.9780  213.9690  143.2030 O   0  0  0  0  0  0  0  0  0  0  0  0
  161.1000  211.3810  142.0900 C   0  0  0  0  0  2  0  0  0  0  0  0
  160.3780  214.3720  137.7910 O   0  0  0  0  0  1  0  0  0  0  0  0
  161.5530  213.4150  138.5410 P   0  0  0  0  0  0  0  0  0  0  0  0
  162.6130  214.3050  139.1500 O   0  0  0  0  0  1  0  0  0  0  0  0
  162.2700  212.4300  137.3680 O   0  0  0  0  0  0  0  0  0  0  0  0
  162.8440  206.4350  147.9040 C   0  0  0  0  0  2  0  0  0  0  0  0
  162.3670  207.8710  147.8080 C   0  0  0  0  0  2  0  0  0  0  0  0
  161.5540  208.1600  148.9010 O   0  0  0  0  0  0  0  0  0  0  0  0
  162.3610  207.9300  150.0160 C   0  0  0  0  0  2  0  0  0  0  0  0
  161.5630  208.0150  151.3160 C   0  0  1  0  0  3  0  0  0  0  0  0
  161.1170  210.1420  152.4660 C   0  0  0  0  0  0  0  0  0  0  0  0
  162.1240  209.9090  153.5460 C   0  0  0  0  0  1  0  0  0  0  0  0
  160.9070  209.3000  151.5040 N   0  0  0  0  0  0  0  0  0  0  0  0
  160.3420  211.4280  152.5090 C   0  0  1  0  0  3  0  0  0  0  0  0
  160.5910  212.2330  151.2380 C   0  0  0  0  0  2  0  0  0  0  0  0
  159.7440  213.4960  151.2070 C   0  0  0  0  0  2  0  0  0  0  0  0
  159.7940  214.1310  149.8300 C   0  0  0  0  0  1  0  0  0  0  0  0
  158.8450  211.1740  152.6950 C   0  0  0  0  0  2  0  0  0  0  0  0
  159.2810  211.7240  155.0500 C   0  0  0  0  0  2  0  0  0  0  0  0
  158.3950  211.5100  154.0820 C   0  0  0  0  0  3  0  0  0  0  0  0
  160.6370  206.8240  151.5570 C   0  0  0  0  0  2  0  0  0  0  0  0
  159.6670  206.3140  149.4480 O   0  0  0  0  0  1  0  0  0  0  0  0
  160.6450  205.8880  150.3540 C   0  0  2  0  0  3  0  0  0  0  0  0
  161.2380  202.5210  152.2330 C   0  0  0  0  0  2  0  0  0  0  0  0
  161.2820  201.3190  150.8690 S   0  0  0  0  0  0  0  0  0  0  0  0
  160.2490  203.5040  149.5990 C   0  0  0  0  0  2  0  0  0  0  0  0
  159.8700  202.0960  150.0290 C   0  0  0  0  0  2  0  0  0  0  0  0
  161.7240  204.8160  152.9450 C   0  0  0  0  0  1  0  0  0  0  0  0
  161.5320  203.9280  151.7280 C   0  0  2  0  0  3  0  0  0  0  0  0
  160.3980  204.4350  150.8100 C   0  0  1  0  0  3  0  0  0  0  0  0
  1  6  2  0  0  0  0
  1  7  1  0  0  0  0
  3  5  2  0  0  0  0
  4  5  1  0  0  0  0
  4 33  1  0  0  0  0
  5  2  1  0  0  0  0
  6  3  1  0  0  0  0
  7  4  2  0  0  0  0
  8  1  1  0  0  0  0
  9  8  1  0  0  0  0
 10  8  2  0  0  0  0
 11 10  1  0  0  0  0
 12 11  1  0  0  0  0
 13 14  1  0  0  0  0
 13 12  1  0  0  0  0
 14 15  1  0  0  0  0
 16 15  1  0  0  0  0
 16 21  1  0  0  0  0
 17 18  2  0  0  0  0
 18 16  1  0  0  0  0
 18 19  1  0  0  0  0
 18 20  1  0  0  0  0
 22 27  1  0  0  0  0
 23 21  1  6  0  0  0
 23 25  1  0  0  0  0
 23 28  1  0  0  0  0
 24 26  1  0  0  0  0
 25 22  1  0  0  0  0
 26 27  1  0  0  0  0
 28 24  1  0  0  0  0
 29 30  1  0  0  0  0
 30 31  1  0  0  0  0
 30 21  1  0  0  0  0
 32 30  2  0  0  0  0
 34 33  1  0  0  0  0
 34 35  1  0  0  0  0
 35 36  1  0  0  0  0
 37 36  1  6  0  0  0
 37 40  1  0  0  0  0
 37 48  1  0  0  0  0
 38 41  1  0  0  0  0
 38 39  1  0  0  0  0
 40 38  2  0  0  0  0
 41 42  1  6  0  0  0
 41 45  1  0  0  0  0
 43 42  1  0  0  0  0
 44 43  1  0  0  0  0
 45 47  1  0  0  0  0
 47 46  2  0  0  0  0
 50 49  1  6  0  0  0
 50 48  1  0  0  0  0
 52 51  1  0  0  0  0
 53 54  1  0  0  0  0
 53 57  1  0  0  0  0
 54 52  1  0  0  0  0
 56 51  1  0  0  0  0
 56 55  1  1  0  0  0
 57 50  1  6  0  0  0
 57 56  1  0  0  0  0
M  END
>  <MODEL>
3

>  <REMARK>
 VINA RESULT:       0.1      1.392      2.313
  Name = 
  26 active torsions:
  status: ('A' for Active; 'I' for Inactive)
    1  A    between atoms: C_1  and  C_27
    2  A    between atoms: C_4  and  C_27
    3  A    between atoms: C_4  and  C_54
    4  A    between atoms: C_5  and  C_16
    5  A    between atoms: C_6  and  C_35
    6  A    between atoms: P_8  and  N_55
    7  A    between atoms: C_9  and  C_21
    8  A    between atoms: C_9  and  O_29
    9  A    between atoms: C_10  and  C_42
   10  A    between atoms: C_10  and  N_55
   11  A    between atoms: C_14  and  C_30
   12  A    between atoms: C_14  and  N_52
   13  A    between atoms: C_14  and  C_53
   14  A    between atoms: C_16  and  N_49
   15  A    between atoms: P_18  and  N_28
   16  A    between atoms: C_19  and  C_23
   17  A    between atoms: C_19  and  C_42
   18  A    between atoms: C_21  and  C_31
   19  A    between atoms: C_23  and  C_46
   20  A    between atoms: C_27  and  C_35
   21  A    between atoms: N_28  and  C_34
   22  A    between atoms: N_28  and  N_55
   23  A    between atoms: O_29  and  C_30
   24  A    between atoms: C_32  and  C_53
   25  A    between atoms: C_32  and  C_57
   26  A    between atoms: C_46  and  N_49
                            x       y       z     vdW  Elec       q    Type
                         _______ _______ _______ _____ _____    ______ ____

>  <TORSDO>
F 26

$$$$
=
 OpenBabel11052410183D

 57 59  0  0  1  0  0  0  0  0999 V2000
  159.1010  213.0890  149.2310 C   0  0  0  0  0  0  0  0  0  0  0  0
  158.4780  213.6800  153.3790 N   0  0  0  0  0  1  0  0  0  0  0  0
  157.9510  214.2020  151.0600 C   0  0  0  0  0  3  0  0  0  0  0  0
  159.6600  212.5510  151.5410 C   0  0  0  0  0  0  0  0  0  0  0  0
  158.6990  213.4750  151.9880 C   0  0  0  0  0  0  0  0  0  0  0  0
  158.1500  214.0120  149.6910 C   0  0  0  0  0  3  0  0  0  0  0  0
  159.8520  212.3590  150.1690 C   0  0  0  0  0  3  0  0  0  0  0  0
  159.2900  212.8930  147.7750 C   0  0  0  0  0  0  0  0  0  0  0  0
  160.5020  212.9940  147.2300 C   0  0  0  0  0  2  0  0  0  0  0  0
  158.1560  212.5860  146.9560 N   0  0  0  0  0  2  0  0  0  0  0  0
  157.6230  213.4830  145.9430 C   0  0  0  0  0  2  0  0  0  0  0  0
  158.6050  213.5810  144.7950 C   0  0  0  0  0  2  0  0  0  0  0  0
  157.8550  213.8300  143.5040 C   0  0  0  0  0  2  0  0  0  0  0  0
  158.6570  213.2730  142.3490 C   0  0  0  0  0  2  0  0  0  0  0  0
  159.4750  214.3820  141.7200 C   0  0  0  0  0  2  0  0  0  0  0  0
  160.7270  213.8250  141.1970 N   0  0  0  0  0  0  0  0  0  0  0  0
  162.4320  211.8130  141.7610 O   0  0  0  0  0  0  0  0  0  0  0  0
  161.5010  212.8130  142.4110 P   0  0  0  0  0  0  0  0  0  0  0  0
  162.3730  213.7780  143.4930 O   0  0  0  0  0  1  0  0  0  0  0  0
  160.3070  211.9730  143.2650 O   0  0  0  0  0  1  0  0  0  0  0  0
  160.6080  213.1150  139.9660 N   0  0  0  0  0  0  0  0  0  0  0  0
  159.8510  212.0010  137.1100 C   0  0  0  0  0  2  0  0  0  0  0  0
  159.4850  213.5870  139.1010 C   0  0  1  0  0  3  0  0  0  0  0  0
  158.0630  211.4650  139.6360 C   0  0  0  0  0  2  0  0  0  0  0  0
  159.7100  213.4480  137.5810 C   0  0  0  0  0  2  0  0  0  0  0  0
  158.8250  210.6980  138.5590 C   0  0  0  0  0  2  0  0  0  0  0  0
  158.6580  211.3010  137.3110 O   0  0  0  0  0  0  0  0  0  0  0  0
  158.1200  212.9960  139.5000 C   0  0  0  0  0  2  0  0  0  0  0  0
  162.0650  214.4420  137.9210 O   0  0  0  0  0  0  0  0  0  0  0  0
  162.1760  213.3020  139.1640 P   0  0  0  0  0  0  0  0  0  0  0  0
  163.2230  213.7440  140.1610 O   0  0  0  0  0  1  0  0  0  0  0  0
  162.6460  211.8220  138.4940 O   0  0  0  0  0  1  0  0  0  0  0  0
  160.4710  211.7500  152.5070 C   0  0  0  0  0  2  0  0  0  0  0  0
  161.2610  210.6860  151.7710 C   0  0  0  0  0  2  0  0  0  0  0  0
  160.6740  209.4420  151.9930 O   0  0  0  0  0  0  0  0  0  0  0  0
  161.7490  208.5650  152.1430 C   0  0  0  0  0  2  0  0  0  0  0  0
  161.9730  207.7290  150.8830 C   0  0  1  0  0  3  0  0  0  0  0  0
  162.1450  205.3080  151.2780 C   0  0  0  0  0  0  0  0  0  0  0  0
  163.6120  205.3370  151.5650 C   0  0  0  0  0  1  0  0  0  0  0  0
  161.4610  206.3730  150.9960 N   0  0  0  0  0  0  0  0  0  0  0  0
  161.4520  203.9780  151.3490 C   0  0  1  0  0  3  0  0  0  0  0  0
  160.2750  204.0510  152.3140 C   0  0  0  0  0  2  0  0  0  0  0  0
  160.7330  204.3900  153.7250 C   0  0  0  0  0  2  0  0  0  0  0  0
  160.3930  205.8300  154.0580 C   0  0  0  0  0  1  0  0  0  0  0  0
  160.9830  203.5160  149.9680 C   0  0  0  0  0  2  0  0  0  0  0  0
  160.4170  201.4100  148.8360 C   0  0  0  0  0  2  0  0  0  0  0  0
  161.0460  202.0290  149.8310 C   0  0  0  0  0  3  0  0  0  0  0  0
  161.5540  208.4280  149.5900 C   0  0  0  0  0  2  0  0  0  0  0  0
  162.6670  209.0890  147.5980 O   0  0  0  0  0  1  0  0  0  0  0  0
  162.4400  207.9880  148.4320 C   0  0  2  0  0  3  0  0  0  0  0  0
  162.1560  204.7720  146.2410 C   0  0  0  0  0  2  0  0  0  0  0  0
  161.0890  205.3270  144.8760 S   0  0  0  0  0  0  0  0  0  0  0  0
  160.7400  207.3600  146.6630 C   0  0  0  0  0  2  0  0  0  0  0  0
  159.9790  206.2250  145.9990 C   0  0  0  0  0  2  0  0  0  0  0  0
  163.8700  205.4050  147.8760 C   0  0  0  0  0  1  0  0  0  0  0  0
  162.8190  205.9590  146.9300 C   0  0  2  0  0  3  0  0  0  0  0  0
  161.7740  206.8270  147.6650 C   0  0  1  0  0  3  0  0  0  0  0  0
  1  6  2  0  0  0  0
  1  7  1  0  0  0  0
  3  5  2  0  0  0  0
  4  5  1  0  0  0  0
  4 33  1  0  0  0  0
  5  2  1  0  0  0  0
  6  3  1  0  0  0  0
  7  4  2  0  0  0  0
  8  1  1  0  0  0  0
  9  8  2  0  0  0  0
 10  8  1  0  0  0  0
 11 10  1  0  0  0  0
 12 11  1  0  0  0  0
 13 12  1  0  0  0  0
 14 13  1  0  0  0  0
 15 14  1  0  0  0  0
 16 15  1  0  0  0  0
 16 18  1  0  0  0  0
 17 18  2  0  0  0  0
 18 20  1  0  0  0  0
 18 19  1  0  0  0  0
 21 16  1  0  0  0  0
 22 27  1  0  0  0  0
 22 25  1  0  0  0  0
 23 28  1  0  0  0  0
 23 21  1  1  0  0  0
 25 23  1  0  0  0  0
 26 24  1  0  0  0  0
 27 26  1  0  0  0  0
 28 24  1  0  0  0  0
 29 30  2  0  0  0  0
 30 21  1  0  0  0  0
 30 31  1  0  0  0  0
 32 30  1  0  0  0  0
 34 35  1  0  0  0  0
 34 33  1  0  0  0  0
 35 36  1  0  0  0  0
 37 48  1  6  0  0  0
 37 40  1  0  0  0  0
 37 36  1  0  0  0  0
 38 41  1  0  0  0  0
 38 39  1  0  0  0  0
 40 38  2  0  0  0  0
 41 45  1  6  0  0  0
 41 42  1  0  0  0  0
 42 43  1  0  0  0  0
 43 44  1  0  0  0  0
 46 47  2  0  0  0  0
 47 45  1  0  0  0  0
 50 49  1  6  0  0  0
 50 48  1  0  0  0  0
 51 56  1  0  0  0  0
 52 54  1  0  0  0  0
 52 51  1  0  0  0  0
 53 57  1  0  0  0  0
 54 53  1  0  0  0  0
 56 57  1  0  0  0  0
 56 55  1  1  0  0  0
 57 50  1  6  0  0  0
M  END
>  <MODEL>
4

>  <REMARK>
 VINA RESULT:       0.5      2.742      6.689
  Name = 
  26 active torsions:
  status: ('A' for Active; 'I' for Inactive)
    1  A    between atoms: C_1  and  C_27
    2  A    between atoms: C_4  and  C_27
    3  A    between atoms: C_4  and  C_54
    4  A    between atoms: C_5  and  C_16
    5  A    between atoms: C_6  and  C_35
    6  A    between atoms: P_8  and  N_55
    7  A    between atoms: C_9  and  C_21
    8  A    between atoms: C_9  and  O_29
    9  A    between atoms: C_10  and  C_42
   10  A    between atoms: C_10  and  N_55
   11  A    between atoms: C_14  and  C_30
   12  A    between atoms: C_14  and  N_52
   13  A    between atoms: C_14  and  C_53
   14  A    between atoms: C_16  and  N_49
   15  A    between atoms: P_18  and  N_28
   16  A    between atoms: C_19  and  C_23
   17  A    between atoms: C_19  and  C_42
   18  A    between atoms: C_21  and  C_31
   19  A    between atoms: C_23  and  C_46
   20  A    between atoms: C_27  and  C_35
   21  A    between atoms: N_28  and  C_34
   22  A    between atoms: N_28  and  N_55
   23  A    between atoms: O_29  and  C_30
   24  A    between atoms: C_32  and  C_53
   25  A    between atoms: C_32  and  C_57
   26  A    between atoms: C_46  and  N_49
                            x       y       z     vdW  Elec       q    Type
                         _______ _______ _______ _____ _____    ______ ____

>  <TORSDO>
F 26

$$$$
=
 OpenBabel11052410183D

 57 59  0  0  1  0  0  0  0  0999 V2000
  161.4980  206.9170  152.0940 C   0  0  0  0  0  0  0  0  0  0  0  0
  162.4150  210.4410  149.9300 N   0  0  0  0  0  1  0  0  0  0  0  0
  162.7260  208.0600  150.3360 C   0  0  0  0  0  3  0  0  0  0  0  0
  161.1710  209.3030  151.7200 C   0  0  0  0  0  0  0  0  0  0  0  0
  162.1010  209.2640  150.6660 C   0  0  0  0  0  0  0  0  0  0  0  0
  162.4280  206.8950  151.0450 C   0  0  0  0  0  3  0  0  0  0  0  0
  160.8710  208.1320  152.4230 C   0  0  0  0  0  3  0  0  0  0  0  0
  161.1860  205.6680  152.8270 C   0  0  0  0  0  0  0  0  0  0  0  0
  160.4080  205.6940  153.9070 C   0  0  0  0  0  2  0  0  0  0  0  0
  161.7260  204.4270  152.3580 N   0  0  0  0  0  2  0  0  0  0  0  0
  160.9310  203.2280  152.1420 C   0  0  0  0  0  2  0  0  0  0  0  0
  160.6270  203.0890  150.6650 C   0  0  0  0  0  2  0  0  0  0  0  0
  160.7280  201.6330  150.2610 C   0  0  0  0  0  2  0  0  0  0  0  0
  160.6470  201.5320  148.7540 C   0  0  0  0  0  2  0  0  0  0  0  0
  161.9190  202.0780  148.1400 C   0  0  0  0  0  2  0  0  0  0  0  0
  161.6160  202.6530  146.8250 N   0  0  0  0  0  0  0  0  0  0  0  0
  160.7830  200.5380  145.3730 O   0  0  0  0  0  1  0  0  0  0  0  0
  160.2850  201.7850  146.0690 P   0  0  0  0  0  0  0  0  0  0  0  0
  159.1380  201.3610  147.2380 O   0  0  0  0  0  1  0  0  0  0  0  0
  159.5520  202.7940  144.9260 O   0  0  0  0  0  0  0  0  0  0  0  0
  161.3560  204.0550  146.8220 N   0  0  0  0  0  0  0  0  0  0  0  0
  161.8520  207.1720  146.9100 C   0  0  0  0  0  2  0  0  0  0  0  0
  162.0750  204.8070  147.8940 C   0  0  1  0  0  3  0  0  0  0  0  0
  159.8400  205.7490  148.8560 C   0  0  0  0  0  2  0  0  0  0  0  0
  162.7950  206.0930  147.4380 C   0  0  0  0  0  2  0  0  0  0  0  0
  159.8640  206.8500  147.8010 C   0  0  0  0  0  2  0  0  0  0  0  0
  161.0130  207.6320  147.9280 O   0  0  0  0  0  0  0  0  0  0  0  0
  161.2010  205.0880  149.1300 C   0  0  0  0  0  2  0  0  0  0  0  0
  162.7160  203.4210  144.4110 O   0  0  0  0  0  1  0  0  0  0  0  0
  161.8190  204.6130  145.2060 P   0  0  0  0  0  0  0  0  0  0  0  0
  160.5870  204.9420  144.3940 O   0  0  0  0  0  0  0  0  0  0  0  0
  162.7750  206.0020  145.3420 O   0  0  0  0  0  1  0  0  0  0  0  0
  160.4770  210.5720  152.0930 C   0  0  0  0  0  2  0  0  0  0  0  0
  160.5200  210.7700  153.5960 C   0  0  0  0  0  2  0  0  0  0  0  0
  160.5230  212.1340  153.8800 O   0  0  0  0  0  0  0  0  0  0  0  0
  159.9210  212.7290  152.7710 C   0  0  0  0  0  2  0  0  0  0  0  0
  158.4370  212.3730  152.6780 C   0  0  1  0  0  3  0  0  0  0  0  0
  157.3220  212.4350  154.8680 C   0  0  0  0  0  0  0  0  0  0  0  0
  157.7840  211.0720  155.2760 C   0  0  0  0  0  1  0  0  0  0  0  0
  157.6360  212.9730  153.7320 N   0  0  0  0  0  0  0  0  0  0  0  0
  156.4760  213.1990  155.8440 C   0  0  1  0  0  3  0  0  0  0  0  0
  155.0540  212.6500  155.8500 C   0  0  0  0  0  2  0  0  0  0  0  0
  154.9140  211.4840  156.8170 C   0  0  0  0  0  2  0  0  0  0  0  0
  154.6210  210.2020  156.0600 C   0  0  0  0  0  1  0  0  0  0  0  0
  157.0700  213.1570  157.2540 C   0  0  0  0  0  2  0  0  0  0  0  0
  159.0040  214.4460  156.4540 C   0  0  0  0  0  2  0  0  0  0  0  0
  158.5280  213.4930  157.2510 C   0  0  0  0  0  3  0  0  0  0  0  0
  157.8400  212.5590  151.2840 C   0  0  0  0  0  2  0  0  0  0  0  0
  156.5550  214.4440  150.6190 O   0  0  0  0  0  1  0  0  0  0  0  0
  157.8650  214.0290  150.8820 C   0  0  2  0  0  3  0  0  0  0  0  0
  159.0700  213.8120  147.1770 C   0  0  0  0  0  2  0  0  0  0  0  0
  160.6890  213.0020  147.3440 S   0  0  0  0  0  0  0  0  0  0  0  0
  160.1900  213.6960  149.9360 C   0  0  0  0  0  2  0  0  0  0  0  0
  161.1360  214.0080  148.7890 C   0  0  0  0  0  2  0  0  0  0  0  0
  156.7980  214.0330  148.0730 C   0  0  0  0  0  1  0  0  0  0  0  0
  158.1980  213.5430  148.3980 C   0  0  2  0  0  3  0  0  0  0  0  0
  158.7790  214.2280  149.6550 C   0  0  1  0  0  3  0  0  0  0  0  0
  1  7  1  0  0  0  0
  1  8  1  0  0  0  0
  2  5  1  0  0  0  0
  3  5  2  0  0  0  0
  3  6  1  0  0  0  0
  4 33  1  0  0  0  0
  4  7  2  0  0  0  0
  5  4  1  0  0  0  0
  6  1  2  0  0  0  0
  8  9  2  0  0  0  0
 10  8  1  0  0  0  0
 11 10  1  0  0  0  0
 12 11  1  0  0  0  0
 13 12  1  0  0  0  0
 14 13  1  0  0  0  0
 15 14  1  0  0  0  0
 16 15  1  0  0  0  0
 17 18  1  0  0  0  0
 18 16  1  0  0  0  0
 18 19  1  0  0  0  0
 20 18  2  0  0  0  0
 21 16  1  0  0  0  0
 22 25  1  0  0  0  0
 22 27  1  0  0  0  0
 23 21  1  6  0  0  0
 23 28  1  0  0  0  0
 24 28  1  0  0  0  0
 25 23  1  0  0  0  0
 26 27  1  0  0  0  0
 26 24  1  0  0  0  0
 29 30  1  0  0  0  0
 30 32  1  0  0  0  0
 30 21  1  0  0  0  0
 31 30  2  0  0  0  0
 33 34  1  0  0  0  0
 34 35  1  0  0  0  0
 36 35  1  0  0  0  0
 37 48  1  6  0  0  0
 37 36  1  0  0  0  0
 37 40  1  0  0  0  0
 38 39  1  0  0  0  0
 38 41  1  0  0  0  0
 40 38  2  0  0  0  0
 41 42  1  1  0  0  0
 41 45  1  0  0  0  0
 42 43  1  0  0  0  0
 44 43  1  0  0  0  0
 46 47  2  0  0  0  0
 47 45  1  0  0  0  0
 50 49  1  6  0  0  0
 50 48  1  0  0  0  0
 51 52  1  0  0  0  0
 51 56  1  0  0  0  0
 52 54  1  0  0  0  0
 54 53  1  0  0  0  0
 56 55  1  6  0  0  0
 56 57  1  0  0  0  0
 57 53  1  0  0  0  0
 57 50  1  1  0  0  0
M  END
>  <MODEL>
5

>  <REMARK>
 VINA RESULT:       1.1      5.698      9.256
  Name = 
  26 active torsions:
  status: ('A' for Active; 'I' for Inactive)
    1  A    between atoms: C_1  and  C_27
    2  A    between atoms: C_4  and  C_27
    3  A    between atoms: C_4  and  C_54
    4  A    between atoms: C_5  and  C_16
    5  A    between atoms: C_6  and  C_35
    6  A    between atoms: P_8  and  N_55
    7  A    between atoms: C_9  and  C_21
    8  A    between atoms: C_9  and  O_29
    9  A    between atoms: C_10  and  C_42
   10  A    between atoms: C_10  and  N_55
   11  A    between atoms: C_14  and  C_30
   12  A    between atoms: C_14  and  N_52
   13  A    between atoms: C_14  and  C_53
   14  A    between atoms: C_16  and  N_49
   15  A    between atoms: P_18  and  N_28
   16  A    between atoms: C_19  and  C_23
   17  A    between atoms: C_19  and  C_42
   18  A    between atoms: C_21  and  C_31
   19  A    between atoms: C_23  and  C_46
   20  A    between atoms: C_27  and  C_35
   21  A    between atoms: N_28  and  C_34
   22  A    between atoms: N_28  and  N_55
   23  A    between atoms: O_29  and  C_30
   24  A    between atoms: C_32  and  C_53
   25  A    between atoms: C_32  and  C_57
   26  A    between atoms: C_46  and  N_49
                            x       y       z     vdW  Elec       q    Type
                         _______ _______ _______ _____ _____    ______ ____

>  <TORSDO>
F 26

$$$$
