=
 OpenBabel11052410403D

 53 58  0  0  1  0  0  0  0  0999 V2000
  160.5240  210.7750  155.3710 C   0  0  2  0  0  3  0  0  0  0  0  0
  160.6720  210.2540  153.2850 C   0  0  1  0  0  0  0  0  0  0  0  0
  161.5040  208.6540  154.9140 O   0  0  0  0  0  1  0  0  0  0  0  0
  159.5640  210.2260  152.4470 F   0  0  0  0  0  0  0  0  0  0  0  0
  160.7960  211.5510  154.0800 C   0  0  1  0  0  3  0  0  0  0  0  0
  160.4230  209.4790  154.5800 C   0  0  1  0  0  3  0  0  0  0  0  0
  159.2750  211.0950  155.9160 O   0  0  0  0  0  1  0  0  0  0  0  0
  161.9710  209.9270  152.5410 C   0  0  0  0  0  2  0  0  0  0  0  0
  161.6680  209.3160  151.2600 N   0  0  0  0  0  2  0  0  0  0  0  0
  161.0200  208.0460  151.5390 C   0  0  0  0  0  2  0  0  0  0  0  0
  161.9410  206.8710  151.2220 C   0  0  2  0  0  3  0  0  0  0  0  0
  162.9690  207.2230  150.3400 O   0  0  0  0  0  1  0  0  0  0  0  0
  161.1560  203.3000  151.0420 C   0  0  1  0  0  3  0  0  0  0  0  0
  159.7790  203.3650  151.3020 O   0  0  0  0  0  1  0  0  0  0  0  0
  160.7620  201.6750  149.1660 C   0  0  0  0  0  1  0  0  0  0  0  0
  161.4560  202.9580  149.5870 C   0  0  1  0  0  3  0  0  0  0  0  0
  161.1910  205.6060  150.7840 C   0  0  2  0  0  3  0  0  0  0  0  0
  161.8180  204.4940  151.3910 O   0  0  0  0  0  0  0  0  0  0  0  0
  161.0300  205.4590  149.2710 C   0  0  0  0  0  0  0  0  0  0  0  0
  160.3130  206.5580  147.1760 C   0  0  0  0  0  3  0  0  0  0  0  0
  160.9270  205.8550  146.2010 C   0  0  0  0  0  0  0  0  0  0  0  0
  161.1270  204.1010  148.6220 C   0  0  1  0  0  3  0  0  0  0  0  0
  162.1400  204.1200  147.5260 C   0  0  0  0  0  3  0  0  0  0  0  0
  160.5840  206.4750  148.5900 N   0  0  0  0  0  0  0  0  0  0  0  0
  162.0160  204.8860  146.4440 C   0  0  0  0  0  3  0  0  0  0  0  0
  160.5820  206.0740  144.8630 O   0  0  0  0  0  0  0  0  0  0  0  0
  161.2430  205.4450  143.7650 C   0  0  0  0  0  1  0  0  0  0  0  0
  159.7450  212.4670  153.7760 O   0  0  0  0  0  0  0  0  0  0  0  0
  157.8820  211.3940  152.9370 O   0  0  0  0  0  0  0  0  0  0  0  0
  158.8120  212.2290  152.7630 C   0  0  0  0  0  0  0  0  0  0  0  0
  160.1210  212.9900  150.7860 C   0  0  0  0  0  3  0  0  0  0  0  0
  159.1030  214.3320  149.0860 N   0  0  0  0  0  0  0  0  0  0  0  0
  158.9120  212.9610  151.4900 C   0  0  0  0  0  0  0  0  0  0  0  0
  157.9150  214.3160  149.7480 C   0  0  0  0  0  3  0  0  0  0  0  0
  160.1980  213.6850  149.5750 C   0  0  0  0  0  0  0  0  0  0  0  0
  157.7990  213.6300  150.9630 C   0  0  0  0  0  3  0  0  0  0  0  0
  161.7480  213.7390  148.6810 S   0  0  0  0  0  0  0  0  0  0  0  0
  161.4180  213.5210  146.0000 C   0  0  0  0  0  3  0  0  0  0  0  0
  160.9770  213.1200  147.1890 C   0  0  0  0  0  3  0  0  0  0  0  0
  159.5570  212.1520  144.9010 C   0  0  0  0  0  2  0  0  0  0  0  0
  160.8240  212.9690  144.7460 C   0  0  0  0  0  0  0  0  0  0  0  0
  159.4890  213.5890  144.3850 C   0  0  0  0  0  2  0  0  0  0  0  0
  161.1340  212.1570  142.3680 N   0  0  0  0  0  2  0  0  0  0  0  0
  162.9590  212.8540  143.6490 O   0  0  0  0  0  0  0  0  0  0  0  0
  161.7110  212.6680  143.5720 C   0  0  0  0  0  0  0  0  0  0  0  0
  161.7570  212.8470  140.0590 C   0  0  1  0  0  3  0  0  0  0  0  0
  160.5080  213.4780  140.1390 O   0  0  0  0  0  1  0  0  0  0  0  0
  161.7450  210.6940  139.1060 C   0  0  0  0  0  2  0  0  0  0  0  0
  161.9330  211.8320  141.1900 C   0  0  2  0  0  3  0  0  0  0  0  0
  161.8420  212.1200  138.7920 N   0  0  0  0  0  0  0  0  0  0  0  0
  161.4690  210.5380  140.5910 C   0  0  0  0  0  2  0  0  0  0  0  0
  163.2580  213.7680  137.6930 C   0  0  0  0  0  1  0  0  0  0  0  0
  163.1680  212.3550  138.2360 C   0  0  0  0  0  2  0  0  0  0  0  0
  1  7  1  6  0  0  0
  2  4  1  6  0  0  0
  2  5  1  0  0  0  0
  2  6  1  0  0  0  0
  5 28  1  6  0  0  0
  5  1  1  0  0  0  0
  6  3  1  1  0  0  0
  6  1  1  0  0  0  0
  8  2  1  0  0  0  0
  9 10  1  0  0  0  0
  9  8  1  0  0  0  0
 11 12  1  6  0  0  0
 11 10  1  0  0  0  0
 13 14  1  6  0  0  0
 13 18  1  0  0  0  0
 16 15  1  6  0  0  0
 16 13  1  0  0  0  0
 17 11  1  6  0  0  0
 17 18  1  0  0  0  0
 19 17  1  0  0  0  0
 20 24  1  0  0  0  0
 21 25  1  0  0  0  0
 21 20  2  0  0  0  0
 22 23  1  6  0  0  0
 22 19  1  0  0  0  0
 22 16  1  0  0  0  0
 24 19  2  0  0  0  0
 25 23  2  0  0  0  0
 26 21  1  0  0  0  0
 27 26  1  0  0  0  0
 30 29  2  0  0  0  0
 30 28  1  0  0  0  0
 31 33  1  0  0  0  0
 32 35  1  0  0  0  0
 32 34  2  0  0  0  0
 33 30  1  0  0  0  0
 34 36  1  0  0  0  0
 35 31  2  0  0  0  0
 36 33  2  0  0  0  0
 37 35  1  0  0  0  0
 38 39  2  0  0  0  0
 39 37  1  0  0  0  0
 41 40  1  0  0  0  0
 41 38  1  0  0  0  0
 42 41  1  0  0  0  0
 42 40  1  0  0  0  0
 43 45  1  0  0  0  0
 45 44  2  0  0  0  0
 45 41  1  0  0  0  0
 46 47  1  1  0  0  0
 46 49  1  0  0  0  0
 48 51  1  0  0  0  0
 49 43  1  1  0  0  0
 50 48  1  0  0  0  0
 50 46  1  0  0  0  0
 51 49  1  0  0  0  0
 52 53  1  0  0  0  0
 53 50  1  0  0  0  0
M  END
>  <MODEL>
1

>  <REMARK>
 VINA RESULT:      -8.3      0.000      0.000
  Name = 
  15 active torsions:
  status: ('A' for Active; 'I' for Inactive)
    1  A    between atoms: C_3  and  C_7
    2  A    between atoms: C_3  and  N_26
    3  A    between atoms: N_5  and  C_27
    4  A    between atoms: C_7  and  C_25
    5  A    between atoms: C_11  and  C_30
    6  A    between atoms: C_16  and  C_46
    7  A    between atoms: C_19  and  S_35
    8  A    between atoms: C_22  and  N_49
    9  A    between atoms: C_24  and  C_32
   10  A    between atoms: N_26  and  C_46
   11  A    between atoms: C_30  and  O_48
   12  A    between atoms: C_32  and  C_33
   13  A    between atoms: S_35  and  C_42
   14  A    between atoms: C_38  and  O_44
   15  A    between atoms: C_47  and  O_48
                            x       y       z     vdW  Elec       q    Type
                         _______ _______ _______ _____ _____    ______ ____

>  <TORSDO>
F 15

$$$$
=
 OpenBabel11052410403D

 53 58  0  0  1  0  0  0  0  0999 V2000
  159.3970  214.1550  145.6690 C   0  0  2  0  0  3  0  0  0  0  0  0
  160.4190  212.5720  146.7170 C   0  0  1  0  0  0  0  0  0  0  0  0
  159.5280  214.4120  148.0320 O   0  0  0  0  0  1  0  0  0  0  0  0
  160.0320  211.2430  146.6110 F   0  0  0  0  0  0  0  0  0  0  0  0
  160.6010  213.2590  145.3660 C   0  0  1  0  0  3  0  0  0  0  0  0
  159.2310  213.4860  147.0250 C   0  0  1  0  0  3  0  0  0  0  0  0
  158.3030  213.8480  144.8520 O   0  0  0  0  0  1  0  0  0  0  0  0
  161.6550  212.7490  147.6050 C   0  0  0  0  0  2  0  0  0  0  0  0
  162.2670  211.4590  147.8640 N   0  0  0  0  0  2  0  0  0  0  0  0
  162.2040  211.2390  149.2990 C   0  0  0  0  0  2  0  0  0  0  0  0
  162.2110  209.7500  149.6330 C   0  0  2  0  0  3  0  0  0  0  0  0
  161.9840  208.9500  148.5070 O   0  0  0  0  0  1  0  0  0  0  0  0
  160.9240  209.8280  153.0590 C   0  0  1  0  0  3  0  0  0  0  0  0
  159.5630  210.0230  152.7780 O   0  0  0  0  0  1  0  0  0  0  0  0
  160.3580  208.0770  154.7700 C   0  0  0  0  0  1  0  0  0  0  0  0
  161.2160  208.4210  153.5660 C   0  0  1  0  0  3  0  0  0  0  0  0
  161.2990  209.3840  150.8130 C   0  0  2  0  0  3  0  0  0  0  0  0
  161.7400  210.1070  151.9450 O   0  0  0  0  0  0  0  0  0  0  0  0
  161.1650  207.8830  151.0670 C   0  0  0  0  0  0  0  0  0  0  0  0
  160.6800  205.6760  150.0650 C   0  0  0  0  0  3  0  0  0  0  0  0
  161.2170  204.7890  150.9290 C   0  0  0  0  0  0  0  0  0  0  0  0
  161.0860  207.3520  152.4770 C   0  0  1  0  0  3  0  0  0  0  0  0
  162.1250  206.3030  152.6970 C   0  0  0  0  0  3  0  0  0  0  0  0
  160.8930  207.1020  150.0610 N   0  0  0  0  0  0  0  0  0  0  0  0
  162.1460  205.1580  152.0180 C   0  0  0  0  0  3  0  0  0  0  0  0
  160.9490  203.4240  150.7810 O   0  0  0  0  0  0  0  0  0  0  0  0
  160.2820  202.8680  149.6480 C   0  0  0  0  0  1  0  0  0  0  0  0
  160.3460  212.3720  144.2770 O   0  0  0  0  0  0  0  0  0  0  0  0
  162.2110  212.1420  142.9380 O   0  0  0  0  0  0  0  0  0  0  0  0
  161.0020  212.4840  143.0480 C   0  0  0  0  0  0  0  0  0  0  0  0
  158.9490  213.4280  142.0010 C   0  0  0  0  0  3  0  0  0  0  0  0
  158.9050  213.9790  139.6730 N   0  0  0  0  0  0  0  0  0  0  0  0
  160.2760  212.9990  141.8770 C   0  0  0  0  0  0  0  0  0  0  0  0
  160.1960  213.5720  139.5250 C   0  0  0  0  0  3  0  0  0  0  0  0
  158.2750  213.9190  140.8790 C   0  0  0  0  0  0  0  0  0  0  0  0
  160.9030  213.0750  140.6250 C   0  0  0  0  0  3  0  0  0  0  0  0
  156.5720  214.4510  141.0300 S   0  0  0  0  0  0  0  0  0  0  0  0
  156.8410  212.2330  139.4960 C   0  0  0  0  0  3  0  0  0  0  0  0
  156.0190  213.2130  139.8630 C   0  0  0  0  0  3  0  0  0  0  0  0
  154.8750  210.9640  138.4630 C   0  0  0  0  0  2  0  0  0  0  0  0
  156.3740  211.1600  138.5690 C   0  0  0  0  0  0  0  0  0  0  0  0
  155.6370  211.6890  137.3550 C   0  0  0  0  0  2  0  0  0  0  0  0
  158.6580  210.0670  138.5630 N   0  0  0  0  0  2  0  0  0  0  0  0
  156.7670  208.9080  137.8300 O   0  0  0  0  0  0  0  0  0  0  0  0
  157.2560  209.9750  138.2980 C   0  0  0  0  0  0  0  0  0  0  0  0
  160.6940  208.8760  139.3590 C   0  0  1  0  0  3  0  0  0  0  0  0
  160.9470  210.1320  139.9280 O   0  0  0  0  0  1  0  0  0  0  0  0
  161.6560  208.5100  137.2410 C   0  0  0  0  0  2  0  0  0  0  0  0
  159.5780  208.9610  138.3160 C   0  0  2  0  0  3  0  0  0  0  0  0
  161.9030  208.4090  138.6800 N   0  0  0  0  0  0  0  0  0  0  0  0
  160.3060  209.1720  137.0220 C   0  0  0  0  0  2  0  0  0  0  0  0
  162.0500  206.7970  140.4990 C   0  0  0  0  0  1  0  0  0  0  0  0
  162.0690  206.9970  138.9950 C   0  0  0  0  0  2  0  0  0  0  0  0
  1  7  1  6  0  0  0
  1  6  1  0  0  0  0
  2  4  1  6  0  0  0
  2  6  1  0  0  0  0
  2  8  1  0  0  0  0
  5 28  1  6  0  0  0
  5  1  1  0  0  0  0
  5  2  1  0  0  0  0
  6  3  1  1  0  0  0
  8  9  1  0  0  0  0
  9 10  1  0  0  0  0
 10 11  1  0  0  0  0
 11 12  1  6  0  0  0
 13 14  1  6  0  0  0
 13 16  1  0  0  0  0
 16 15  1  1  0  0  0
 17 11  1  6  0  0  0
 17 19  1  0  0  0  0
 17 18  1  0  0  0  0
 18 13  1  0  0  0  0
 19 22  1  0  0  0  0
 20 21  2  0  0  0  0
 21 25  1  0  0  0  0
 22 23  1  1  0  0  0
 22 16  1  0  0  0  0
 24 20  1  0  0  0  0
 24 19  2  0  0  0  0
 25 23  2  0  0  0  0
 26 21  1  0  0  0  0
 27 26  1  0  0  0  0
 29 30  2  0  0  0  0
 30 28  1  0  0  0  0
 32 35  1  0  0  0  0
 33 31  1  0  0  0  0
 33 30  1  0  0  0  0
 34 32  2  0  0  0  0
 34 36  1  0  0  0  0
 35 37  1  0  0  0  0
 35 31  2  0  0  0  0
 36 33  2  0  0  0  0
 38 39  2  0  0  0  0
 39 37  1  0  0  0  0
 40 41  1  0  0  0  0
 41 38  1  0  0  0  0
 42 40  1  0  0  0  0
 42 41  1  0  0  0  0
 44 45  2  0  0  0  0
 45 43  1  0  0  0  0
 45 41  1  0  0  0  0
 46 47  1  6  0  0  0
 48 50  1  0  0  0  0
 49 43  1  1  0  0  0
 49 46  1  0  0  0  0
 50 53  1  0  0  0  0
 50 46  1  0  0  0  0
 51 48  1  0  0  0  0
 51 49  1  0  0  0  0
 53 52  1  0  0  0  0
M  END
>  <MODEL>
2

>  <REMARK>
 VINA RESULT:      -7.6      3.501      7.220
  Name = 
  15 active torsions:
  status: ('A' for Active; 'I' for Inactive)
    1  A    between atoms: C_3  and  C_7
    2  A    between atoms: C_3  and  N_26
    3  A    between atoms: N_5  and  C_27
    4  A    between atoms: C_7  and  C_25
    5  A    between atoms: C_11  and  C_30
    6  A    between atoms: C_16  and  C_46
    7  A    between atoms: C_19  and  S_35
    8  A    between atoms: C_22  and  N_49
    9  A    between atoms: C_24  and  C_32
   10  A    between atoms: N_26  and  C_46
   11  A    between atoms: C_30  and  O_48
   12  A    between atoms: C_32  and  C_33
   13  A    between atoms: S_35  and  C_42
   14  A    between atoms: C_38  and  O_44
   15  A    between atoms: C_47  and  O_48
                            x       y       z     vdW  Elec       q    Type
                         _______ _______ _______ _____ _____    ______ ____

>  <TORSDO>
F 15

$$$$
=
 OpenBabel11052410403D

 53 58  0  0  1  0  0  0  0  0999 V2000
  159.5540  213.6830  148.6180 C   0  0  2  0  0  3  0  0  0  0  0  0
  160.9060  213.1250  147.0340 C   0  0  1  0  0  0  0  0  0  0  0  0
  158.9500  214.4430  146.4440 O   0  0  0  0  0  1  0  0  0  0  0  0
  162.2570  213.4450  147.0660 F   0  0  0  0  0  0  0  0  0  0  0  0
  160.4130  212.4530  148.3130 C   0  0  1  0  0  3  0  0  0  0  0  0
  160.0280  214.3430  147.3320 C   0  0  1  0  0  3  0  0  0  0  0  0
  160.0390  214.3930  149.7230 O   0  0  0  0  0  1  0  0  0  0  0  0
  160.5300  212.3110  145.7920 C   0  0  0  0  0  2  0  0  0  0  0  0
  161.3490  212.7190  144.6660 N   0  0  0  0  0  2  0  0  0  0  0  0
  160.4860  212.7400  143.4980 C   0  0  0  0  0  2  0  0  0  0  0  0
  161.2790  213.0240  142.2260 C   0  0  2  0  0  3  0  0  0  0  0  0
  160.9240  214.2440  141.6380 O   0  0  0  0  0  1  0  0  0  0  0  0
  162.6410  210.6270  139.8180 C   0  0  1  0  0  3  0  0  0  0  0  0
  162.1140  209.4460  140.3610 O   0  0  0  0  0  1  0  0  0  0  0  0
  161.9960  209.8940  137.5030 C   0  0  0  0  0  1  0  0  0  0  0  0
  161.9560  211.0240  138.5160 C   0  0  1  0  0  3  0  0  0  0  0  0
  161.2690  211.8590  141.2260 C   0  0  2  0  0  3  0  0  0  0  0  0
  162.5830  211.7010  140.7280 O   0  0  0  0  0  0  0  0  0  0  0  0
  160.2150  211.9790  140.1260 C   0  0  0  0  0  0  0  0  0  0  0  0
  157.8290  212.3780  139.6180 C   0  0  0  0  0  3  0  0  0  0  0  0
  157.8200  212.7550  138.3220 C   0  0  0  0  0  0  0  0  0  0  0  0
  160.5240  211.5260  138.7210 C   0  0  1  0  0  3  0  0  0  0  0  0
  160.2480  212.6230  137.7480 C   0  0  0  0  0  3  0  0  0  0  0  0
  158.9890  212.2580  140.4660 N   0  0  0  0  0  0  0  0  0  0  0  0
  159.0320  213.1350  137.5660 C   0  0  0  0  0  3  0  0  0  0  0  0
  156.6050  212.8660  137.6370 O   0  0  0  0  0  0  0  0  0  0  0  0
  155.8740  214.0860  137.5180 C   0  0  0  0  0  1  0  0  0  0  0  0
  161.4620  212.2830  149.2650 O   0  0  0  0  0  0  0  0  0  0  0  0
  162.3430  210.1720  149.5680 O   0  0  0  0  0  0  0  0  0  0  0  0
  161.6200  211.1080  150.0060 C   0  0  0  0  0  0  0  0  0  0  0  0
  161.4370  210.0730  152.2630 C   0  0  0  0  0  3  0  0  0  0  0  0
  159.6780  210.7020  153.7590 N   0  0  0  0  0  0  0  0  0  0  0  0
  160.9440  210.9670  151.3050 C   0  0  0  0  0  0  0  0  0  0  0  0
  159.1810  211.5810  152.8480 C   0  0  0  0  0  3  0  0  0  0  0  0
  160.7860  209.9540  153.4950 C   0  0  0  0  0  0  0  0  0  0  0  0
  159.8050  211.7280  151.6030 C   0  0  0  0  0  3  0  0  0  0  0  0
  161.4020  208.7990  154.7160 S   0  0  0  0  0  0  0  0  0  0  0  0
  160.8880  206.7700  152.9930 C   0  0  0  0  0  3  0  0  0  0  0  0
  161.8200  207.5980  153.4560 C   0  0  0  0  0  3  0  0  0  0  0  0
  162.2510  204.7500  152.2150 C   0  0  0  0  0  2  0  0  0  0  0  0
  161.2070  205.8040  151.9010 C   0  0  0  0  0  0  0  0  0  0  0  0
  160.7680  204.3840  152.2020 C   0  0  0  0  0  2  0  0  0  0  0  0
  161.1990  205.2460  149.4320 N   0  0  0  0  0  2  0  0  0  0  0  0
  160.7760  207.4190  150.1760 O   0  0  0  0  0  0  0  0  0  0  0  0
  161.0410  206.2190  150.4670 C   0  0  0  0  0  0  0  0  0  0  0  0
  161.0840  204.3420  147.1160 C   0  0  1  0  0  3  0  0  0  0  0  0
  161.7920  203.2920  147.7180 O   0  0  0  0  0  1  0  0  0  0  0  0
  162.4050  206.0030  146.0950 C   0  0  0  0  0  2  0  0  0  0  0  0
  161.0620  205.5770  148.0160 C   0  0  2  0  0  3  0  0  0  0  0  0
  161.7530  204.7120  145.8680 N   0  0  0  0  0  0  0  0  0  0  0  0
  162.2400  206.3820  147.5570 C   0  0  0  0  0  2  0  0  0  0  0  0
  161.3110  205.6340  143.6590 C   0  0  0  0  0  1  0  0  0  0  0  0
  160.7220  204.9170  144.8590 C   0  0  0  0  0  2  0  0  0  0  0  0
  1  7  1  1  0  0  0
  2  4  1  1  0  0  0
  2  6  1  0  0  0  0
  2  5  1  0  0  0  0
  5  1  1  0  0  0  0
  5 28  1  1  0  0  0
  6  3  1  6  0  0  0
  6  1  1  0  0  0  0
  8  2  1  0  0  0  0
  9  8  1  0  0  0  0
 10  9  1  0  0  0  0
 11 12  1  6  0  0  0
 11 10  1  0  0  0  0
 13 14  1  1  0  0  0
 13 18  1  0  0  0  0
 16 15  1  6  0  0  0
 16 22  1  0  0  0  0
 16 13  1  0  0  0  0
 17 11  1  6  0  0  0
 18 17  1  0  0  0  0
 19 24  2  0  0  0  0
 19 17  1  0  0  0  0
 20 24  1  0  0  0  0
 21 20  2  0  0  0  0
 22 23  1  6  0  0  0
 22 19  1  0  0  0  0
 25 23  2  0  0  0  0
 25 21  1  0  0  0  0
 26 21  1  0  0  0  0
 27 26  1  0  0  0  0
 28 30  1  0  0  0  0
 29 30  2  0  0  0  0
 30 33  1  0  0  0  0
 31 35  1  0  0  0  0
 33 36  1  0  0  0  0
 33 31  2  0  0  0  0
 34 32  1  0  0  0  0
 35 32  2  0  0  0  0
 35 37  1  0  0  0  0
 36 34  2  0  0  0  0
 38 39  2  0  0  0  0
 39 37  1  0  0  0  0
 41 42  1  0  0  0  0
 41 40  1  0  0  0  0
 41 38  1  0  0  0  0
 42 40  1  0  0  0  0
 43 45  1  0  0  0  0
 44 45  2  0  0  0  0
 45 41  1  0  0  0  0
 46 47  1  1  0  0  0
 46 49  1  0  0  0  0
 48 51  1  0  0  0  0
 49 43  1  1  0  0  0
 50 48  1  0  0  0  0
 50 46  1  0  0  0  0
 51 49  1  0  0  0  0
 52 53  1  0  0  0  0
 53 50  1  0  0  0  0
M  END
>  <MODEL>
3

>  <REMARK>
 VINA RESULT:      -7.6      2.944      9.662
  Name = 
  15 active torsions:
  status: ('A' for Active; 'I' for Inactive)
    1  A    between atoms: C_3  and  C_7
    2  A    between atoms: C_3  and  N_26
    3  A    between atoms: N_5  and  C_27
    4  A    between atoms: C_7  and  C_25
    5  A    between atoms: C_11  and  C_30
    6  A    between atoms: C_16  and  C_46
    7  A    between atoms: C_19  and  S_35
    8  A    between atoms: C_22  and  N_49
    9  A    between atoms: C_24  and  C_32
   10  A    between atoms: N_26  and  C_46
   11  A    between atoms: C_30  and  O_48
   12  A    between atoms: C_32  and  C_33
   13  A    between atoms: S_35  and  C_42
   14  A    between atoms: C_38  and  O_44
   15  A    between atoms: C_47  and  O_48
                            x       y       z     vdW  Elec       q    Type
                         _______ _______ _______ _____ _____    ______ ____

>  <TORSDO>
F 15

$$$$
=
 OpenBabel11052410403D

 53 58  0  0  1  0  0  0  0  0999 V2000
  160.8290  212.9990  148.7830 C   0  0  2  0  0  3  0  0  0  0  0  0
  161.2130  212.4410  146.7370 C   0  0  1  0  0  0  0  0  0  0  0  0
  159.9080  214.4520  147.1370 O   0  0  0  0  0  1  0  0  0  0  0  0
  162.5000  212.2600  146.2470 F   0  0  0  0  0  0  0  0  0  0  0  0
  160.9430  211.6730  148.0270 C   0  0  1  0  0  3  0  0  0  0  0  0
  161.0750  213.7650  147.4920 C   0  0  1  0  0  3  0  0  0  0  0  0
  161.9030  213.1910  149.6600 O   0  0  0  0  0  1  0  0  0  0  0  0
  160.1430  212.1530  145.6790 C   0  0  0  0  0  2  0  0  0  0  0  0
  160.7370  211.4620  144.5490 N   0  0  0  0  0  2  0  0  0  0  0  0
  160.0740  211.9550  143.3530 C   0  0  0  0  0  2  0  0  0  0  0  0
  160.9060  213.0300  142.6600 C   0  0  2  0  0  3  0  0  0  0  0  0
  160.8570  214.2580  143.3300 O   0  0  0  0  0  1  0  0  0  0  0  0
  159.4260  212.1750  139.4230 C   0  0  1  0  0  3  0  0  0  0  0  0
  158.9140  213.4350  139.0760 O   0  0  0  0  0  1  0  0  0  0  0  0
  160.3290  211.8630  137.0990 C   0  0  0  0  0  1  0  0  0  0  0  0
  160.6380  211.7910  138.5840 C   0  0  1  0  0  3  0  0  0  0  0  0
  160.6070  213.1610  141.1600 C   0  0  2  0  0  3  0  0  0  0  0  0
  159.7540  212.0950  140.7910 O   0  0  0  0  0  0  0  0  0  0  0  0
  161.8480  213.2770  140.2760 C   0  0  0  0  0  0  0  0  0  0  0  0
  163.9910  214.4530  139.9070 C   0  0  0  0  0  3  0  0  0  0  0  0
  164.7030  213.6170  139.1220 C   0  0  0  0  0  0  0  0  0  0  0  0
  161.8870  212.6100  138.9230 C   0  0  1  0  0  3  0  0  0  0  0  0
  163.0910  211.7350  138.8090 C   0  0  0  0  0  3  0  0  0  0  0  0
  162.7680  214.1390  140.6030 N   0  0  0  0  0  0  0  0  0  0  0  0
  164.3330  212.2070  138.8710 C   0  0  0  0  0  3  0  0  0  0  0  0
  165.8990  214.0540  138.5430 O   0  0  0  0  0  0  0  0  0  0  0  0
  166.1650  213.9960  137.1410 C   0  0  0  0  0  1  0  0  0  0  0  0
  162.0790  210.9150  148.4450 O   0  0  0  0  0  0  0  0  0  0  0  0
  162.0720  208.6090  148.3790 O   0  0  0  0  0  0  0  0  0  0  0  0
  161.9620  209.6660  149.0600 C   0  0  0  0  0  0  0  0  0  0  0  0
  162.0550  208.4250  151.2170 C   0  0  0  0  0  3  0  0  0  0  0  0
  161.2590  209.4260  153.2400 N   0  0  0  0  0  0  0  0  0  0  0  0
  161.7150  209.5830  150.5080 C   0  0  0  0  0  0  0  0  0  0  0  0
  160.9230  210.5650  152.5760 C   0  0  0  0  0  3  0  0  0  0  0  0
  161.8190  208.3650  152.5940 C   0  0  0  0  0  0  0  0  0  0  0  0
  161.1450  210.6630  151.1970 C   0  0  0  0  0  3  0  0  0  0  0  0
  162.2360  206.8790  153.5010 S   0  0  0  0  0  0  0  0  0  0  0  0
  161.1280  204.8980  152.0210 C   0  0  0  0  0  3  0  0  0  0  0  0
  162.0440  205.8620  152.0410 C   0  0  0  0  0  3  0  0  0  0  0  0
  161.3060  202.6180  150.8740 C   0  0  0  0  0  2  0  0  0  0  0  0
  160.9160  204.0800  150.7900 C   0  0  0  0  0  0  0  0  0  0  0  0
  159.8350  203.0280  150.9410 C   0  0  0  0  0  2  0  0  0  0  0  0
  162.0060  204.3960  148.5260 N   0  0  0  0  0  2  0  0  0  0  0  0
  160.0930  205.5990  149.1200 O   0  0  0  0  0  0  0  0  0  0  0  0
  160.9620  204.7400  149.4410 C   0  0  0  0  0  0  0  0  0  0  0  0
  161.2890  204.2740  146.1460 C   0  0  1  0  0  3  0  0  0  0  0  0
  161.0970  202.9300  146.4940 O   0  0  0  0  0  1  0  0  0  0  0  0
  163.3810  204.7860  145.1920 C   0  0  0  0  0  2  0  0  0  0  0  0
  162.1210  205.0020  147.2020 C   0  0  2  0  0  3  0  0  0  0  0  0
  162.0220  204.3370  144.8810 N   0  0  0  0  0  0  0  0  0  0  0  0
  163.5290  204.8840  146.7010 C   0  0  0  0  0  2  0  0  0  0  0  0
  160.1580  205.8970  144.7520 C   0  0  0  0  0  1  0  0  0  0  0  0
  161.4010  205.3680  144.0610 C   0  0  0  0  0  2  0  0  0  0  0  0
  1  7  1  1  0  0  0
  2  4  1  6  0  0  0
  2  6  1  0  0  0  0
  2  5  1  0  0  0  0
  5 28  1  1  0  0  0
  5  1  1  0  0  0  0
  6  3  1  6  0  0  0
  6  1  1  0  0  0  0
  8  2  1  0  0  0  0
  9  8  1  0  0  0  0
 10  9  1  0  0  0  0
 11 12  1  1  0  0  0
 11 10  1  0  0  0  0
 13 14  1  6  0  0  0
 13 18  1  0  0  0  0
 16 15  1  6  0  0  0
 16 22  1  0  0  0  0
 16 13  1  0  0  0  0
 17 11  1  1  0  0  0
 18 17  1  0  0  0  0
 19 24  2  0  0  0  0
 19 17  1  0  0  0  0
 20 24  1  0  0  0  0
 21 20  2  0  0  0  0
 22 23  1  1  0  0  0
 22 19  1  0  0  0  0
 23 25  2  0  0  0  0
 25 21  1  0  0  0  0
 26 21  1  0  0  0  0
 27 26  1  0  0  0  0
 28 30  1  0  0  0  0
 29 30  2  0  0  0  0
 30 33  1  0  0  0  0
 31 35  1  0  0  0  0
 33 36  1  0  0  0  0
 33 31  2  0  0  0  0
 34 32  1  0  0  0  0
 35 32  2  0  0  0  0
 35 37  1  0  0  0  0
 36 34  2  0  0  0  0
 38 39  2  0  0  0  0
 39 37  1  0  0  0  0
 40 42  1  0  0  0  0
 41 40  1  0  0  0  0
 41 42  1  0  0  0  0
 41 38  1  0  0  0  0
 43 45  1  0  0  0  0
 44 45  2  0  0  0  0
 45 41  1  0  0  0  0
 46 47  1  1  0  0  0
 46 49  1  0  0  0  0
 48 51  1  0  0  0  0
 49 43  1  1  0  0  0
 50 48  1  0  0  0  0
 50 46  1  0  0  0  0
 51 49  1  0  0  0  0
 53 52  1  0  0  0  0
 53 50  1  0  0  0  0
M  END
>  <MODEL>
4

>  <REMARK>
 VINA RESULT:      -6.1      3.041     10.001
  Name = 
  15 active torsions:
  status: ('A' for Active; 'I' for Inactive)
    1  A    between atoms: C_3  and  C_7
    2  A    between atoms: C_3  and  N_26
    3  A    between atoms: N_5  and  C_27
    4  A    between atoms: C_7  and  C_25
    5  A    between atoms: C_11  and  C_30
    6  A    between atoms: C_16  and  C_46
    7  A    between atoms: C_19  and  S_35
    8  A    between atoms: C_22  and  N_49
    9  A    between atoms: C_24  and  C_32
   10  A    between atoms: N_26  and  C_46
   11  A    between atoms: C_30  and  O_48
   12  A    between atoms: C_32  and  C_33
   13  A    between atoms: S_35  and  C_42
   14  A    between atoms: C_38  and  O_44
   15  A    between atoms: C_47  and  O_48
                            x       y       z     vdW  Elec       q    Type
                         _______ _______ _______ _____ _____    ______ ____

>  <TORSDO>
F 15

$$$$
=
 OpenBabel11052410403D

 53 58  0  0  1  0  0  0  0  0999 V2000
  160.0390  214.3410  146.1400 C   0  0  2  0  0  3  0  0  0  0  0  0
  160.8400  212.5780  147.0870 C   0  0  1  0  0  0  0  0  0  0  0  0
  159.5980  214.1430  148.4720 O   0  0  0  0  0  1  0  0  0  0  0  0
  160.5370  211.2970  146.6450 F   0  0  0  0  0  0  0  0  0  0  0  0
  161.3110  213.5070  145.9720 C   0  0  1  0  0  3  0  0  0  0  0  0
  159.5810  213.4280  147.2680 C   0  0  1  0  0  3  0  0  0  0  0  0
  159.1800  214.2060  145.0430 O   0  0  0  0  0  1  0  0  0  0  0  0
  161.8230  212.5700  148.2620 C   0  0  0  0  0  2  0  0  0  0  0  0
  162.4200  211.2540  148.3990 N   0  0  0  0  0  2  0  0  0  0  0  0
  162.3210  210.8870  149.8020 C   0  0  0  0  0  2  0  0  0  0  0  0
  162.3300  209.3720  149.9810 C   0  0  2  0  0  3  0  0  0  0  0  0
  162.1000  208.6910  148.7790 O   0  0  0  0  0  1  0  0  0  0  0  0
  161.1730  208.9340  153.4260 C   0  0  1  0  0  3  0  0  0  0  0  0
  159.8340  209.3170  153.2580 O   0  0  0  0  0  1  0  0  0  0  0  0
  160.4730  206.9590  154.8130 C   0  0  0  0  0  1  0  0  0  0  0  0
  161.3240  207.4340  153.6490 C   0  0  1  0  0  3  0  0  0  0  0  0
  161.4230  208.8860  151.1200 C   0  0  2  0  0  3  0  0  0  0  0  0
  161.9780  209.3330  152.3400 O   0  0  0  0  0  0  0  0  0  0  0  0
  161.1320  207.3850  151.1000 C   0  0  0  0  0  0  0  0  0  0  0  0
  160.3720  205.4690  149.7370 C   0  0  0  0  0  3  0  0  0  0  0  0
  160.8350  204.3850  150.3930 C   0  0  0  0  0  0  0  0  0  0  0  0
  161.0410  206.6090  152.3900 C   0  0  1  0  0  3  0  0  0  0  0  0
  161.9630  205.4360  152.3580 C   0  0  0  0  0  3  0  0  0  0  0  0
  160.7410  206.8410  149.9840 N   0  0  0  0  0  0  0  0  0  0  0  0
  161.8350  204.4440  151.4800 C   0  0  0  0  0  3  0  0  0  0  0  0
  160.4130  203.1060  150.0110 O   0  0  0  0  0  0  0  0  0  0  0  0
  161.2250  202.1970  149.2680 C   0  0  0  0  0  1  0  0  0  0  0  0
  161.3530  212.8460  144.7080 O   0  0  0  0  0  0  0  0  0  0  0  0
  163.5330  213.3960  144.1880 O   0  0  0  0  0  0  0  0  0  0  0  0
  162.3880  213.0460  143.7900 C   0  0  0  0  0  0  0  0  0  0  0  0
  161.0680  212.0520  141.9270 C   0  0  0  0  0  3  0  0  0  0  0  0
  161.6670  212.4620  139.6470 N   0  0  0  0  0  0  0  0  0  0  0  0
  162.1410  212.8420  142.3540 C   0  0  0  0  0  0  0  0  0  0  0  0
  162.7160  213.2380  140.0340 C   0  0  0  0  0  3  0  0  0  0  0  0
  160.8440  211.8730  140.5590 C   0  0  0  0  0  0  0  0  0  0  0  0
  162.9710  213.4410  141.3960 C   0  0  0  0  0  3  0  0  0  0  0  0
  159.4820  210.8490  140.0090 S   0  0  0  0  0  0  0  0  0  0  0  0
  160.9500  208.6070  140.4160 C   0  0  0  0  0  3  0  0  0  0  0  0
  160.5910  209.5290  139.5270 C   0  0  0  0  0  3  0  0  0  0  0  0
  161.8130  207.0900  138.5460 C   0  0  0  0  0  2  0  0  0  0  0  0
  161.8270  207.4680  140.0140 C   0  0  0  0  0  0  0  0  0  0  0  0
  162.9850  207.8810  139.1260 C   0  0  0  0  0  2  0  0  0  0  0  0
  161.5810  206.4480  142.3180 N   0  0  0  0  0  2  0  0  0  0  0  0
  162.9410  205.4530  140.7000 O   0  0  0  0  0  0  0  0  0  0  0  0
  162.1550  206.3930  141.0100 C   0  0  0  0  0  0  0  0  0  0  0  0
  160.7590  205.3550  144.3970 C   0  0  1  0  0  3  0  0  0  0  0  0
  160.0690  206.5700  144.5100 O   0  0  0  0  0  1  0  0  0  0  0  0
  162.8330  205.2590  145.5080 C   0  0  0  0  0  2  0  0  0  0  0  0
  161.8600  205.4450  143.3410 C   0  0  2  0  0  3  0  0  0  0  0  0
  161.3940  205.0490  145.6790 N   0  0  0  0  0  0  0  0  0  0  0  0
  163.0820  205.8290  144.1220 C   0  0  0  0  0  2  0  0  0  0  0  0
  160.1570  203.0700  144.9880 C   0  0  0  0  0  1  0  0  0  0  0  0
  161.1910  203.6310  145.9450 C   0  0  0  0  0  2  0  0  0  0  0  0
  1  7  1  6  0  0  0
  1  6  1  0  0  0  0
  2  4  1  6  0  0  0
  2  6  1  0  0  0  0
  2  8  1  0  0  0  0
  5 28  1  6  0  0  0
  5  1  1  0  0  0  0
  5  2  1  0  0  0  0
  6  3  1  1  0  0  0
  8  9  1  0  0  0  0
  9 10  1  0  0  0  0
 10 11  1  0  0  0  0
 11 12  1  6  0  0  0
 13 14  1  6  0  0  0
 13 16  1  0  0  0  0
 16 15  1  1  0  0  0
 17 11  1  6  0  0  0
 17 18  1  0  0  0  0
 18 13  1  0  0  0  0
 19 17  1  0  0  0  0
 19 22  1  0  0  0  0
 20 24  1  0  0  0  0
 20 21  2  0  0  0  0
 21 25  1  0  0  0  0
 22 23  1  6  0  0  0
 22 16  1  0  0  0  0
 24 19  2  0  0  0  0
 25 23  2  0  0  0  0
 26 21  1  0  0  0  0
 27 26  1  0  0  0  0
 30 29  2  0  0  0  0
 30 28  1  0  0  0  0
 31 33  1  0  0  0  0
 32 34  2  0  0  0  0
 32 35  1  0  0  0  0
 33 30  1  0  0  0  0
 34 36  1  0  0  0  0
 35 31  2  0  0  0  0
 36 33  2  0  0  0  0
 37 35  1  0  0  0  0
 39 37  1  0  0  0  0
 39 38  2  0  0  0  0
 40 42  1  0  0  0  0
 40 41  1  0  0  0  0
 41 38  1  0  0  0  0
 41 45  1  0  0  0  0
 42 41  1  0  0  0  0
 44 45  2  0  0  0  0
 45 43  1  0  0  0  0
 46 47  1  1  0  0  0
 46 50  1  0  0  0  0
 48 50  1  0  0  0  0
 49 43  1  6  0  0  0
 49 51  1  0  0  0  0
 49 46  1  0  0  0  0
 50 53  1  0  0  0  0
 51 48  1  0  0  0  0
 52 53  1  0  0  0  0
M  END
>  <MODEL>
5

>  <REMARK>
 VINA RESULT:      -5.3      2.763      7.686
  Name = 
  15 active torsions:
  status: ('A' for Active; 'I' for Inactive)
    1  A    between atoms: C_3  and  C_7
    2  A    between atoms: C_3  and  N_26
    3  A    between atoms: N_5  and  C_27
    4  A    between atoms: C_7  and  C_25
    5  A    between atoms: C_11  and  C_30
    6  A    between atoms: C_16  and  C_46
    7  A    between atoms: C_19  and  S_35
    8  A    between atoms: C_22  and  N_49
    9  A    between atoms: C_24  and  C_32
   10  A    between atoms: N_26  and  C_46
   11  A    between atoms: C_30  and  O_48
   12  A    between atoms: C_32  and  C_33
   13  A    between atoms: S_35  and  C_42
   14  A    between atoms: C_38  and  O_44
   15  A    between atoms: C_47  and  O_48
                            x       y       z     vdW  Elec       q    Type
                         _______ _______ _______ _____ _____    ______ ____

>  <TORSDO>
F 15

$$$$
