=
 OpenBabel11052410003D

 39 45  0  0  0  0  0  0  0  0999 V2000
  161.5750  206.7540  148.2550 O   0  0  0  0  0  1  0  0  0  0  0  0
  161.5430  207.2300  149.5640 C   0  0  0  0  0  0  0  0  0  0  0  0
  160.8250  202.6450  150.8700 N   0  0  0  0  0  2  0  0  0  0  0  0
  161.7480  209.4250  150.8300 C   0  0  0  0  0  0  0  0  0  0  0  0
  162.0470  210.6520  149.0480 C   0  0  0  0  0  0  0  0  0  0  0  0
  160.9690  203.9690  151.3510 C   0  0  0  0  0  0  0  0  0  0  0  0
  161.2840  206.6340  151.9900 C   0  0  0  0  0  0  0  0  0  0  0  0
  160.9190  204.3270  152.6970 C   0  0  0  0  0  3  0  0  0  0  0  0
  161.6060  209.0970  152.1630 C   0  0  0  0  0  3  0  0  0  0  0  0
  161.1720  204.1990  149.0190 C   0  0  0  0  0  2  0  0  0  0  0  0
  160.9470  202.7890  149.4600 C   0  0  0  0  0  0  0  0  0  0  0  0
  161.0810  205.6790  152.9830 C   0  0  0  0  0  0  0  0  0  0  0  0
  161.2570  207.5300  154.0100 C   0  0  0  0  0  0  0  0  0  0  0  0
  161.3970  207.8300  152.6640 C   0  0  0  0  0  0  0  0  0  0  0  0
  161.7220  208.6180  149.6970 C   0  0  0  0  0  0  0  0  0  0  0  0
  160.8730  201.7780  148.6410 C   0  0  0  0  0  0  0  0  0  0  0  0
  161.3110  208.4940  155.0640 N   0  0  0  0  0  2  0  0  0  0  0  0
  161.9080  209.3890  148.6050 N   0  0  0  0  0  0  0  0  0  0  0  0
  161.0630  206.2100  154.2190 N   0  0  0  0  0  0  0  0  0  0  0  0
  161.1710  204.9070  150.3390 C   0  0  0  0  0  0  0  0  0  0  0  0
  161.3390  206.2980  150.6150 C   0  0  0  0  0  0  0  0  0  0  0  0
  161.1570  208.1120  156.4570 C   0  0  0  0  0  1  0  0  0  0  0  0
  161.9560  210.7270  150.4220 C   0  0  0  0  0  3  0  0  0  0  0  0
  160.7990  200.7670  147.8210 C   0  0  0  0  0  3  0  0  0  0  0  0
  161.3010  212.1130  147.1520 N   0  0  0  0  0  2  0  0  0  0  0  0
  162.2690  211.7980  148.1600 C   0  0  0  0  0  0  0  0  0  0  0  0
  162.3760  213.9850  146.2550 O   0  0  0  0  0  0  0  0  0  0  0  0
  163.3100  212.4960  148.2920 O   0  0  0  0  0  0  0  0  0  0  0  0
  161.3850  213.2050  146.2260 C   0  0  0  0  0  0  0  0  0  0  0  0
  160.3370  213.4090  145.2620 N   0  0  0  0  0  0  0  0  0  0  0  0
  161.4070  214.0090  143.1360 C   0  0  0  0  0  2  0  0  0  0  0  0
  160.4640  214.4530  144.2430 C   0  0  0  0  0  3  0  0  0  0  0  0
  159.9140  213.9530  142.9170 C   0  0  0  0  0  2  0  0  0  0  0  0
  159.2860  212.4070  145.1110 C   0  0  0  0  0  2  0  0  0  0  0  0
  157.7950  212.6280  147.0730 C   0  0  0  0  0  1  0  0  0  0  0  0
  157.9610  212.9580  145.6050 C   0  0  0  0  0  2  0  0  0  0  0  0
  161.2750  200.9090  146.4200 C   0  0  0  0  0  3  0  0  0  0  0  0
  160.0780  201.0030  145.4960 C   0  0  0  0  0  2  0  0  0  0  0  0
  160.8320  199.6980  145.6240 C   0  0  0  0  0  2  0  0  0  0  0  0
  1  2  1  0  0  0  0
  2 15  2  0  0  0  0
  2 21  1  0  0  0  0
  3  6  1  0  0  0  0
  4  9  1  0  0  0  0
  5 23  1  0  0  0  0
  6  8  1  0  0  0  0
  7 14  1  0  0  0  0
  7 12  1  0  0  0  0
  8 12  2  0  0  0  0
  9 14  2  0  0  0  0
 10 11  1  0  0  0  0
 10 20  1  0  0  0  0
 11  3  1  0  0  0  0
 12 19  1  0  0  0  0
 13 19  2  0  0  0  0
 13 17  1  0  0  0  0
 14 13  1  0  0  0  0
 15  4  1  0  0  0  0
 16 11  2  0  0  0  0
 17 22  1  0  0  0  0
 18  5  2  0  0  0  0
 18 15  1  0  0  0  0
 20 21  1  0  0  0  0
 20  6  2  0  0  0  0
 21  7  2  0  0  0  0
 23  4  2  0  0  0  0
 24 16  2  0  0  0  0
 25 26  1  0  0  0  0
 26 28  2  0  0  0  0
 26  5  1  0  0  0  0
 29 27  2  0  0  0  0
 29 25  1  0  0  0  0
 30 29  1  0  0  0  0
 31 32  1  0  0  0  0
 32 30  1  0  0  0  0
 33 31  1  0  0  0  0
 33 32  1  0  0  0  0
 34 30  1  0  0  0  0
 34 36  1  0  0  0  0
 36 35  1  0  0  0  0
 37 24  1  0  0  0  0
 38 39  1  0  0  0  0
 38 37  1  0  0  0  0
 39 37  1  0  0  0  0
M  END
>  <MODEL>
1

>  <REMARK>
 VINA RESULT:     -11.0      0.000      0.000
  Name = 
  5 active torsions:
  status: ('A' for Active; 'I' for Inactive)
    1  A    between atoms: C_2  and  C_39
    2  A    between atoms: C_8  and  C_20
    3  A    between atoms: C_8  and  N_38
    4  A    between atoms: C_9  and  C_12
    5  A    between atoms: C_32  and  N_38
                            x       y       z     vdW  Elec       q    Type
                         _______ _______ _______ _____ _____    ______ ____

>  <TORSDO>
F 5

$$$$
=
 OpenBabel11052410003D

 39 45  0  0  0  0  0  0  0  0999 V2000
  161.6670  207.7550  148.5240 O   0  0  0  0  0  1  0  0  0  0  0  0
  161.5870  208.4660  149.7190 C   0  0  0  0  0  0  0  0  0  0  0  0
  160.8710  204.1960  151.8380 N   0  0  0  0  0  2  0  0  0  0  0  0
  161.7290  210.8620  150.5570 C   0  0  0  0  0  0  0  0  0  0  0  0
  162.0740  211.7390  148.5870 C   0  0  0  0  0  0  0  0  0  0  0  0
  160.9860  205.5890  152.0670 C   0  0  0  0  0  0  0  0  0  0  0  0
  161.2540  208.3300  152.2050 C   0  0  0  0  0  0  0  0  0  0  0  0
  160.8890  206.1910  153.3190 C   0  0  0  0  0  3  0  0  0  0  0  0
  161.5470  210.7870  151.9230 C   0  0  0  0  0  3  0  0  0  0  0  0
  161.2630  205.3810  149.7400 C   0  0  0  0  0  2  0  0  0  0  0  0
  161.0380  204.0750  150.4310 C   0  0  0  0  0  0  0  0  0  0  0  0
  161.0280  207.5750  153.3520 C   0  0  0  0  0  0  0  0  0  0  0  0
  161.1530  209.5880  154.0190 C   0  0  0  0  0  0  0  0  0  0  0  0
  161.3340  209.6330  152.6460 C   0  0  0  0  0  0  0  0  0  0  0  0
  161.7480  209.8570  149.5940 C   0  0  0  0  0  0  0  0  0  0  0  0
  161.0000  202.9280  149.8140 C   0  0  0  0  0  0  0  0  0  0  0  0
  161.1630  210.7330  154.8750 N   0  0  0  0  0  2  0  0  0  0  0  0
  161.9620  210.4140  148.3840 N   0  0  0  0  0  0  0  0  0  0  0  0
  160.9650  208.3280  154.4650 N   0  0  0  0  0  0  0  0  0  0  0  0
  161.2120  206.3240  150.9040 C   0  0  0  0  0  0  0  0  0  0  0  0
  161.3580  207.7440  150.9190 C   0  0  0  0  0  0  0  0  0  0  0  0
  160.9670  210.6150  156.3100 C   0  0  0  0  0  1  0  0  0  0  0  0
  161.9380  212.0680  149.9190 C   0  0  0  0  0  3  0  0  0  0  0  0
  160.9630  201.7810  149.1960 C   0  0  0  0  0  3  0  0  0  0  0  0
  161.4960  212.6680  146.3310 N   0  0  0  0  0  2  0  0  0  0  0  0
  162.3150  212.7020  147.5060 C   0  0  0  0  0  0  0  0  0  0  0  0
  162.4960  214.4530  145.1990 O   0  0  0  0  0  0  0  0  0  0  0  0
  163.2390  213.5510  147.6230 O   0  0  0  0  0  0  0  0  0  0  0  0
  161.6130  213.5520  145.2070 C   0  0  0  0  0  0  0  0  0  0  0  0
  160.7210  213.4100  144.0880 N   0  0  0  0  0  0  0  0  0  0  0  0
  161.8270  213.5470  141.9010 C   0  0  0  0  0  2  0  0  0  0  0  0
  160.8990  214.2340  142.8910 C   0  0  0  0  0  3  0  0  0  0  0  0
  160.3330  213.5160  141.6770 C   0  0  0  0  0  2  0  0  0  0  0  0
  159.8220  212.2610  144.0190 C   0  0  0  0  0  2  0  0  0  0  0  0
  158.1020  213.9760  144.4900 C   0  0  0  0  0  1  0  0  0  0  0  0
  158.5380  212.5540  144.7720 C   0  0  0  0  0  2  0  0  0  0  0  0
  161.4830  201.6660  147.8090 C   0  0  0  0  0  3  0  0  0  0  0  0
  160.3160  201.6230  146.8430 C   0  0  0  0  0  2  0  0  0  0  0  0
  161.0300  200.3450  147.2200 C   0  0  0  0  0  2  0  0  0  0  0  0
  1  2  1  0  0  0  0
  2 21  1  0  0  0  0
  3  6  1  0  0  0  0
  4  9  1  0  0  0  0
  5 23  1  0  0  0  0
  6  8  1  0  0  0  0
  7 14  1  0  0  0  0
  7 12  1  0  0  0  0
  8 12  2  0  0  0  0
  9 14  2  0  0  0  0
 10 11  1  0  0  0  0
 10 20  1  0  0  0  0
 11  3  1  0  0  0  0
 12 19  1  0  0  0  0
 13 19  2  0  0  0  0
 13 17  1  0  0  0  0
 14 13  1  0  0  0  0
 15  2  2  0  0  0  0
 15  4  1  0  0  0  0
 16 11  2  0  0  0  0
 17 22  1  0  0  0  0
 18  5  2  0  0  0  0
 18 15  1  0  0  0  0
 20 21  1  0  0  0  0
 20  6  2  0  0  0  0
 21  7  2  0  0  0  0
 23  4  2  0  0  0  0
 24 16  2  0  0  0  0
 25 26  1  0  0  0  0
 26 28  2  0  0  0  0
 26  5  1  0  0  0  0
 27 29  2  0  0  0  0
 29 25  1  0  0  0  0
 30 29  1  0  0  0  0
 31 32  1  0  0  0  0
 32 30  1  0  0  0  0
 33 31  1  0  0  0  0
 33 32  1  0  0  0  0
 34 30  1  0  0  0  0
 34 36  1  0  0  0  0
 35 36  1  0  0  0  0
 37 24  1  0  0  0  0
 38 39  1  0  0  0  0
 38 37  1  0  0  0  0
 39 37  1  0  0  0  0
M  END
>  <MODEL>
2

>  <REMARK>
 VINA RESULT:      -8.5      1.192      1.616
  Name = 
  5 active torsions:
  status: ('A' for Active; 'I' for Inactive)
    1  A    between atoms: C_2  and  C_39
    2  A    between atoms: C_8  and  C_20
    3  A    between atoms: C_8  and  N_38
    4  A    between atoms: C_9  and  C_12
    5  A    between atoms: C_32  and  N_38
                            x       y       z     vdW  Elec       q    Type
                         _______ _______ _______ _____ _____    ______ ____

>  <TORSDO>
F 5

$$$$
