=
 OpenBabel11052411053D

 34 37  0  0  1  0  0  0  0  0999 V2000
  161.8340  208.3370  150.6000 C   0  0  0  0  0  0  0  0  0  0  0  0
  162.1210  206.0120  149.8430 C   0  0  1  0  0  3  0  0  0  0  0  0
  161.4980  206.4620  148.4990 C   0  0  1  0  0  3  0  0  0  0  0  0
  160.7550  207.6630  148.5580 O   0  0  0  0  0  0  0  0  0  0  0  0
  162.0880  207.0580  150.9380 C   0  0  0  0  0  0  0  0  0  0  0  0
  161.5040  208.5790  149.2320 N   0  0  0  0  0  2  0  0  0  0  0  0
  162.5410  206.6550  152.3060 C   0  0  0  0  0  1  0  0  0  0  0  0
  160.3150  201.4670  149.6470 C   0  0  0  0  0  0  0  0  0  0  0  0
  160.4550  201.3430  148.2510 C   0  0  0  0  0  3  0  0  0  0  0  0
  161.2380  203.6940  149.4950 C   0  0  0  0  0  0  0  0  0  0  0  0
  161.5290  204.7490  150.2830 N   0  0  0  0  0  0  0  0  0  0  0  0
  160.6870  203.1150  151.5410 C   0  0  0  0  0  0  0  0  0  0  0  0
  161.3980  203.5960  148.1110 C   0  0  0  0  0  3  0  0  0  0  0  0
  160.2240  202.4090  152.6450 O   0  0  0  0  0  1  0  0  0  0  0  0
  160.7190  202.6660  150.2380 C   0  0  0  0  0  0  0  0  0  0  0  0
  161.1980  204.4090  151.5550 C   0  0  0  0  0  3  0  0  0  0  0  0
  161.0010  202.4000  147.4780 C   0  0  0  0  0  0  0  0  0  0  0  0
  159.8010  200.4190  150.3990 O   0  0  0  0  0  1  0  0  0  0  0  0
  161.1720  202.2750  146.0980 O   0  0  0  0  0  0  0  0  0  0  0  0
  160.2400  201.5930  145.2660 C   0  0  0  0  0  1  0  0  0  0  0  0
  160.8070  209.7800  152.4270 N   0  0  0  0  0  2  0  0  0  0  0  0
  162.8830  210.2620  151.4950 O   0  0  0  0  0  0  0  0  0  0  0  0
  161.8850  209.4920  151.5300 C   0  0  0  0  0  0  0  0  0  0  0  0
  160.7710  210.9500  153.2010 N   0  0  0  0  0  2  0  0  0  0  0  0
  161.0470  210.5700  154.5780 C   0  0  2  0  0  3  0  0  0  0  0  0
  162.4310  210.6150  154.8220 O   0  0  0  0  0  0  0  0  0  0  0  0
  162.5890  210.4590  156.2130 C   0  0  0  0  0  2  0  0  0  0  0  0
  161.4700  208.3410  155.5740 N   0  0  0  0  0  2  0  0  0  0  0  0
  160.4870  209.1680  154.8710 C   0  0  0  0  0  2  0  0  0  0  0  0
  162.0640  209.0930  156.6870 C   0  0  0  0  0  2  0  0  0  0  0  0
  162.4830  206.5010  147.4250 N   0  0  0  0  0  2  0  0  0  0  0  0
  161.7510  206.4910  146.1590 C   0  0  0  0  0  2  0  0  0  0  0  0
  162.3150  205.4840  145.2760 N   0  0  0  0  0  2  0  0  0  0  0  0
  161.3180  205.1700  144.2590 C   0  0  0  0  0  1  0  0  0  0  0  0
  1  5  2  0  0  0  0
  1 23  1  0  0  0  0
  2 11  1  1  0  0  0
  2  5  1  0  0  0  0
  3 31  1  6  0  0  0
  3  4  1  0  0  0  0
  3  2  1  0  0  0  0
  4  6  1  0  0  0  0
  5  7  1  0  0  0  0
  6  1  1  0  0  0  0
  8 15  1  0  0  0  0
  8 18  1  0  0  0  0
  9  8  2  0  0  0  0
 10 15  2  0  0  0  0
 10 11  1  0  0  0  0
 11 16  1  0  0  0  0
 12 16  2  0  0  0  0
 12 14  1  0  0  0  0
 13 10  1  0  0  0  0
 15 12  1  0  0  0  0
 17 13  2  0  0  0  0
 17  9  1  0  0  0  0
 19 17  1  0  0  0  0
 20 19  1  0  0  0  0
 21 24  1  0  0  0  0
 22 23  2  0  0  0  0
 23 21  1  0  0  0  0
 25 24  1  6  0  0  0
 25 26  1  0  0  0  0
 25 29  1  0  0  0  0
 26 27  1  0  0  0  0
 27 30  1  0  0  0  0
 28 30  1  0  0  0  0
 29 28  1  0  0  0  0
 32 31  1  0  0  0  0
 33 32  1  0  0  0  0
 34 33  1  0  0  0  0
M  END
>  <MODEL>
1

>  <REMARK>
 VINA RESULT:      -7.3      0.000      0.000
  Name = 
  8 active torsions:
  status: ('A' for Active; 'I' for Inactive)
    1  A    between atoms: C_2  and  C_33
    2  A    between atoms: C_3  and  N_20
    3  A    between atoms: N_7  and  N_20
    4  A    between atoms: N_9  and  C_11
    5  A    between atoms: C_10  and  N_13
    6  A    between atoms: C_10  and  N_31
    7  A    between atoms: C_17  and  N_31
    8  A    between atoms: O_19  and  C_29
                            x       y       z     vdW  Elec       q    Type
                         _______ _______ _______ _____ _____    ______ ____

>  <TORSDO>
F 8

$$$$
=
 OpenBabel11052411053D

 34 37  0  0  1  0  0  0  0  0999 V2000
  161.0850  207.3740  152.7930 C   0  0  0  0  0  0  0  0  0  0  0  0
  161.8750  206.1170  150.8280 C   0  0  1  0  0  3  0  0  0  0  0  0
  161.3820  207.3090  149.9730 C   0  0  1  0  0  3  0  0  0  0  0  0
  160.4420  208.1530  150.6090 O   0  0  0  0  0  0  0  0  0  0  0  0
  161.5050  206.1950  152.2950 C   0  0  0  0  0  0  0  0  0  0  0  0
  160.9170  208.4360  151.8530 N   0  0  0  0  0  2  0  0  0  0  0  0
  161.8210  205.0160  153.1610 C   0  0  0  0  0  1  0  0  0  0  0  0
  160.9750  202.7130  147.4290 C   0  0  0  0  0  0  0  0  0  0  0  0
  161.3710  203.5200  146.3450 C   0  0  0  0  0  3  0  0  0  0  0  0
  161.4950  204.5420  148.9190 C   0  0  0  0  0  0  0  0  0  0  0  0
  161.4530  204.8510  150.2310 N   0  0  0  0  0  0  0  0  0  0  0  0
  160.7170  202.7670  149.9530 C   0  0  0  0  0  0  0  0  0  0  0  0
  161.9030  205.3610  147.8650 C   0  0  0  0  0  3  0  0  0  0  0  0
  160.2070  201.5040  150.2280 O   0  0  0  0  0  1  0  0  0  0  0  0
  161.0500  203.2620  148.7110 C   0  0  0  0  0  0  0  0  0  0  0  0
  160.9770  203.7640  150.8890 C   0  0  0  0  0  3  0  0  0  0  0  0
  161.8410  204.8420  146.5550 C   0  0  0  0  0  0  0  0  0  0  0  0
  160.5380  201.4130  147.2170 O   0  0  0  0  0  1  0  0  0  0  0  0
  162.2640  205.6380  145.4890 O   0  0  0  0  0  0  0  0  0  0  0  0
  161.5820  205.6810  144.2420 C   0  0  0  0  0  1  0  0  0  0  0  0
  161.4840  208.6820  154.9390 N   0  0  0  0  0  2  0  0  0  0  0  0
  159.9760  206.9130  154.8340 O   0  0  0  0  0  0  0  0  0  0  0  0
  160.8030  207.6450  154.2240 C   0  0  0  0  0  0  0  0  0  0  0  0
  161.3420  208.8510  156.3240 N   0  0  0  0  0  2  0  0  0  0  0  0
  160.7640  210.1680  156.5460 C   0  0  2  0  0  3  0  0  0  0  0  0
  159.3650  210.1050  156.4350 O   0  0  0  0  0  0  0  0  0  0  0  0
  158.8790  211.3490  156.8800 C   0  0  0  0  0  2  0  0  0  0  0  0
  160.2870  212.0000  154.9470 N   0  0  0  0  0  2  0  0  0  0  0  0
  161.3450  211.1840  155.5460 C   0  0  0  0  0  2  0  0  0  0  0  0
  159.3770  212.4980  155.9870 C   0  0  0  0  0  2  0  0  0  0  0  0
  162.4880  208.0770  149.4150 N   0  0  0  0  0  2  0  0  0  0  0  0
  161.9120  209.1480  148.6030 C   0  0  0  0  0  2  0  0  0  0  0  0
  162.2350  210.4370  149.1910 N   0  0  0  0  0  2  0  0  0  0  0  0
  161.9150  211.4700  148.2130 C   0  0  0  0  0  1  0  0  0  0  0  0
  1 23  1  0  0  0  0
  2 11  1  6  0  0  0
  2  5  1  0  0  0  0
  3 31  1  1  0  0  0
  3  4  1  0  0  0  0
  3  2  1  0  0  0  0
  4  6  1  0  0  0  0
  5  1  2  0  0  0  0
  5  7  1  0  0  0  0
  6  1  1  0  0  0  0
  8 15  1  0  0  0  0
  9 17  1  0  0  0  0
  9  8  2  0  0  0  0
 10 11  1  0  0  0  0
 11 16  1  0  0  0  0
 12 14  1  0  0  0  0
 12 16  2  0  0  0  0
 13 10  1  0  0  0  0
 15 10  2  0  0  0  0
 15 12  1  0  0  0  0
 17 13  2  0  0  0  0
 18  8  1  0  0  0  0
 19 17  1  0  0  0  0
 20 19  1  0  0  0  0
 21 24  1  0  0  0  0
 23 22  2  0  0  0  0
 23 21  1  0  0  0  0
 25 24  1  6  0  0  0
 26 25  1  0  0  0  0
 26 27  1  0  0  0  0
 28 29  1  0  0  0  0
 28 30  1  0  0  0  0
 29 25  1  0  0  0  0
 30 27  1  0  0  0  0
 32 33  1  0  0  0  0
 32 31  1  0  0  0  0
 34 33  1  0  0  0  0
M  END
>  <MODEL>
2

>  <REMARK>
 VINA RESULT:      -7.3      1.974      3.279
  Name = 
  8 active torsions:
  status: ('A' for Active; 'I' for Inactive)
    1  A    between atoms: C_2  and  C_33
    2  A    between atoms: C_3  and  N_20
    3  A    between atoms: N_7  and  N_20
    4  A    between atoms: N_9  and  C_11
    5  A    between atoms: C_10  and  N_13
    6  A    between atoms: C_10  and  N_31
    7  A    between atoms: C_17  and  N_31
    8  A    between atoms: O_19  and  C_29
                            x       y       z     vdW  Elec       q    Type
                         _______ _______ _______ _____ _____    ______ ____

>  <TORSDO>
F 8

$$$$
=
 OpenBabel11052411053D

 34 37  0  0  1  0  0  0  0  0999 V2000
  161.7360  207.4720  151.8180 C   0  0  0  0  0  0  0  0  0  0  0  0
  160.9030  209.6940  152.4750 C   0  0  1  0  0  3  0  0  0  0  0  0
  161.8480  210.2750  151.3940 C   0  0  1  0  0  3  0  0  0  0  0  0
  162.8920  209.4130  150.9890 O   0  0  0  0  0  0  0  0  0  0  0  0
  161.0620  208.2080  152.7220 C   0  0  0  0  0  0  0  0  0  0  0  0
  162.3470  208.1890  150.7440 N   0  0  0  0  0  2  0  0  0  0  0  0
  160.2880  207.5980  153.8480 C   0  0  0  0  0  1  0  0  0  0  0  0
  159.9270  213.0440  155.9070 C   0  0  0  0  0  0  0  0  0  0  0  0
  158.8720  213.6420  155.1930 C   0  0  0  0  0  3  0  0  0  0  0  0
  160.2200  211.4900  154.0820 C   0  0  0  0  0  0  0  0  0  0  0  0
  161.0130  210.4630  153.7140 N   0  0  0  0  0  0  0  0  0  0  0  0
  161.6520  211.1920  155.7200 C   0  0  0  0  0  0  0  0  0  0  0  0
  159.1710  212.0560  153.3550 C   0  0  0  0  0  3  0  0  0  0  0  0
  162.3580  211.3200  156.9110 O   0  0  0  0  0  1  0  0  0  0  0  0
  160.5840  211.9630  155.3160 C   0  0  0  0  0  0  0  0  0  0  0  0
  161.9040  210.2590  154.7170 C   0  0  0  0  0  3  0  0  0  0  0  0
  158.4840  213.1510  153.9200 C   0  0  0  0  0  0  0  0  0  0  0  0
  160.2860  213.5160  157.1630 O   0  0  0  0  0  1  0  0  0  0  0  0
  157.4190  213.7190  153.2180 O   0  0  0  0  0  0  0  0  0  0  0  0
  156.0790  213.6910  153.6970 C   0  0  0  0  0  1  0  0  0  0  0  0
  160.8520  205.1350  151.3370 N   0  0  0  0  0  2  0  0  0  0  0  0
  162.8990  205.4880  152.3850 O   0  0  0  0  0  0  0  0  0  0  0  0
  161.8750  205.9960  151.8500 C   0  0  0  0  0  0  0  0  0  0  0  0
  160.8970  203.7420  151.4990 N   0  0  0  0  0  2  0  0  0  0  0  0
  161.2690  203.1670  150.2150 C   0  0  2  0  0  3  0  0  0  0  0  0
  160.8080  203.9850  149.1690 O   0  0  0  0  0  0  0  0  0  0  0  0
  161.3960  203.4850  147.9910 C   0  0  0  0  0  2  0  0  0  0  0  0
  160.0700  201.5440  148.7770 N   0  0  0  0  0  2  0  0  0  0  0  0
  160.7040  201.7420  150.0820 C   0  0  0  0  0  2  0  0  0  0  0  0
  160.9420  202.0430  147.7060 C   0  0  0  0  0  2  0  0  0  0  0  0
  161.1120  210.7910  150.2460 N   0  0  0  0  0  2  0  0  0  0  0  0
  162.0920  211.3460  149.3130 C   0  0  0  0  0  2  0  0  0  0  0  0
  161.5820  212.5820  148.7440 N   0  0  0  0  0  2  0  0  0  0  0  0
  161.0120  212.2740  147.4380 C   0  0  0  0  0  1  0  0  0  0  0  0
  1 23  1  0  0  0  0
  1  5  2  0  0  0  0
  2  5  1  0  0  0  0
  2 11  1  1  0  0  0
  3 31  1  6  0  0  0
  3  2  1  0  0  0  0
  4  3  1  0  0  0  0
  5  7  1  0  0  0  0
  6  4  1  0  0  0  0
  6  1  1  0  0  0  0
  8 18  1  0  0  0  0
  9  8  2  0  0  0  0
 10 15  2  0  0  0  0
 11 10  1  0  0  0  0
 11 16  1  0  0  0  0
 12 14  1  0  0  0  0
 13 17  2  0  0  0  0
 13 10  1  0  0  0  0
 15 12  1  0  0  0  0
 15  8  1  0  0  0  0
 16 12  2  0  0  0  0
 17  9  1  0  0  0  0
 19 20  1  0  0  0  0
 19 17  1  0  0  0  0
 21 24  1  0  0  0  0
 21 23  1  0  0  0  0
 23 22  2  0  0  0  0
 25 24  1  1  0  0  0
 26 25  1  0  0  0  0
 27 26  1  0  0  0  0
 28 29  1  0  0  0  0
 29 25  1  0  0  0  0
 30 27  1  0  0  0  0
 30 28  1  0  0  0  0
 32 31  1  0  0  0  0
 33 32  1  0  0  0  0
 34 33  1  0  0  0  0
M  END
>  <MODEL>
3

>  <REMARK>
 VINA RESULT:      -7.0      2.816      8.931
  Name = 
  8 active torsions:
  status: ('A' for Active; 'I' for Inactive)
    1  A    between atoms: C_2  and  C_33
    2  A    between atoms: C_3  and  N_20
    3  A    between atoms: N_7  and  N_20
    4  A    between atoms: N_9  and  C_11
    5  A    between atoms: C_10  and  N_13
    6  A    between atoms: C_10  and  N_31
    7  A    between atoms: C_17  and  N_31
    8  A    between atoms: O_19  and  C_29
                            x       y       z     vdW  Elec       q    Type
                         _______ _______ _______ _____ _____    ______ ____

>  <TORSDO>
F 8

$$$$
=
 OpenBabel11052411053D

 34 37  0  0  1  0  0  0  0  0999 V2000
  160.7740  209.1710  154.0170 C   0  0  0  0  0  0  0  0  0  0  0  0
  161.7650  207.6330  152.3710 C   0  0  1  0  0  3  0  0  0  0  0  0
  161.3110  208.6380  151.2840 C   0  0  1  0  0  3  0  0  0  0  0  0
  160.2950  209.5350  151.6870 O   0  0  0  0  0  0  0  0  0  0  0  0
  161.2700  207.9440  153.7680 C   0  0  0  0  0  0  0  0  0  0  0  0
  160.6540  210.0480  152.8970 N   0  0  0  0  0  2  0  0  0  0  0  0
  161.5470  206.9460  154.8480 C   0  0  0  0  0  1  0  0  0  0  0  0
  160.9480  203.7510  149.5030 C   0  0  0  0  0  0  0  0  0  0  0  0
  161.1560  204.4480  148.2970 C   0  0  0  0  0  3  0  0  0  0  0  0
  161.3940  205.7970  150.7080 C   0  0  0  0  0  0  0  0  0  0  0  0
  161.4340  206.2650  151.9720 N   0  0  0  0  0  0  0  0  0  0  0  0
  160.9090  204.1000  152.0170 C   0  0  0  0  0  0  0  0  0  0  0  0
  161.6150  206.5120  149.5290 C   0  0  0  0  0  3  0  0  0  0  0  0
  160.5680  202.8390  152.4880 O   0  0  0  0  0  1  0  0  0  0  0  0
  161.0750  204.4640  150.6980 C   0  0  0  0  0  0  0  0  0  0  0  0
  161.1410  205.2290  152.7980 C   0  0  0  0  0  3  0  0  0  0  0  0
  161.4950  205.8260  148.3020 C   0  0  0  0  0  0  0  0  0  0  0  0
  160.6390  202.3980  149.4910 O   0  0  0  0  0  1  0  0  0  0  0  0
  161.7320  206.5180  147.1120 O   0  0  0  0  0  0  0  0  0  0  0  0
  162.1020  205.8660  145.9030 C   0  0  0  0  0  1  0  0  0  0  0  0
  159.0790  210.2670  155.5670 N   0  0  0  0  0  2  0  0  0  0  0  0
  161.1830  209.6080  156.3090 O   0  0  0  0  0  0  0  0  0  0  0  0
  160.3630  209.6710  155.3530 C   0  0  0  0  0  0  0  0  0  0  0  0
  158.7340  210.8810  156.7810 N   0  0  0  0  0  2  0  0  0  0  0  0
  157.8290  211.9780  156.4720 C   0  0  2  0  0  3  0  0  0  0  0  0
  156.5540  211.4770  156.1600 O   0  0  0  0  0  0  0  0  0  0  0  0
  155.6980  212.5930  156.0990 C   0  0  0  0  0  2  0  0  0  0  0  0
  157.3450  213.1000  154.3170 N   0  0  0  0  0  2  0  0  0  0  0  0
  158.3840  212.8200  155.3100 C   0  0  0  0  0  2  0  0  0  0  0  0
  156.1180  213.5620  154.9800 C   0  0  0  0  0  2  0  0  0  0  0  0
  162.4370  209.3470  150.6900 N   0  0  0  0  0  2  0  0  0  0  0  0
  161.9850  209.8910  149.4100 C   0  0  0  0  0  2  0  0  0  0  0  0
  162.0040  211.3430  149.4610 N   0  0  0  0  0  2  0  0  0  0  0  0
  162.4810  211.8320  148.1720 C   0  0  0  0  0  1  0  0  0  0  0  0
  1 23  1  0  0  0  0
  2 11  1  6  0  0  0
  2  5  1  0  0  0  0
  3 31  1  1  0  0  0
  3  4  1  0  0  0  0
  3  2  1  0  0  0  0
  4  6  1  0  0  0  0
  5  1  2  0  0  0  0
  5  7  1  0  0  0  0
  6  1  1  0  0  0  0
  8 15  1  0  0  0  0
  9 17  1  0  0  0  0
  9  8  2  0  0  0  0
 10 11  1  0  0  0  0
 11 16  1  0  0  0  0
 12 14  1  0  0  0  0
 12 16  2  0  0  0  0
 13 10  1  0  0  0  0
 15 10  2  0  0  0  0
 15 12  1  0  0  0  0
 17 13  2  0  0  0  0
 18  8  1  0  0  0  0
 19 17  1  0  0  0  0
 20 19  1  0  0  0  0
 21 24  1  0  0  0  0
 23 21  1  0  0  0  0
 23 22  2  0  0  0  0
 25 24  1  6  0  0  0
 26 25  1  0  0  0  0
 27 26  1  0  0  0  0
 28 30  1  0  0  0  0
 28 29  1  0  0  0  0
 29 25  1  0  0  0  0
 30 27  1  0  0  0  0
 32 33  1  0  0  0  0
 32 31  1  0  0  0  0
 34 33  1  0  0  0  0
M  END
>  <MODEL>
4

>  <REMARK>
 VINA RESULT:      -6.9      2.747      4.326
  Name = 
  8 active torsions:
  status: ('A' for Active; 'I' for Inactive)
    1  A    between atoms: C_2  and  C_33
    2  A    between atoms: C_3  and  N_20
    3  A    between atoms: N_7  and  N_20
    4  A    between atoms: N_9  and  C_11
    5  A    between atoms: C_10  and  N_13
    6  A    between atoms: C_10  and  N_31
    7  A    between atoms: C_17  and  N_31
    8  A    between atoms: O_19  and  C_29
                            x       y       z     vdW  Elec       q    Type
                         _______ _______ _______ _____ _____    ______ ____

>  <TORSDO>
F 8

$$$$
=
 OpenBabel11052411053D

 34 37  0  0  1  0  0  0  0  0999 V2000
  161.9090  208.3440  150.6660 C   0  0  0  0  0  0  0  0  0  0  0  0
  162.1550  206.0210  149.8900 C   0  0  1  0  0  3  0  0  0  0  0  0
  161.5340  206.4910  148.5510 C   0  0  1  0  0  3  0  0  0  0  0  0
  160.8130  207.7040  148.6220 O   0  0  0  0  0  0  0  0  0  0  0  0
  162.1420  207.0590  150.9930 C   0  0  0  0  0  0  0  0  0  0  0  0
  161.5790  208.6030  149.3000 N   0  0  0  0  0  2  0  0  0  0  0  0
  162.5930  206.6380  152.3560 C   0  0  0  0  0  1  0  0  0  0  0  0
  160.2970  201.4970  149.6710 C   0  0  0  0  0  0  0  0  0  0  0  0
  160.4530  201.3720  148.2780 C   0  0  0  0  0  3  0  0  0  0  0  0
  161.2480  203.7130  149.5310 C   0  0  0  0  0  0  0  0  0  0  0  0
  161.5420  204.7650  150.3230 N   0  0  0  0  0  0  0  0  0  0  0  0
  160.6660  203.1400  151.5700 C   0  0  0  0  0  0  0  0  0  0  0  0
  161.4240  203.6140  148.1490 C   0  0  0  0  0  3  0  0  0  0  0  0
  160.1820  202.4400  152.6690 O   0  0  0  0  0  1  0  0  0  0  0  0
  160.7080  202.6920  150.2680 C   0  0  0  0  0  0  0  0  0  0  0  0
  161.1930  204.4290  151.5900 C   0  0  0  0  0  3  0  0  0  0  0  0
  161.0200  202.4230  147.5110 C   0  0  0  0  0  0  0  0  0  0  0  0
  159.7630  200.4560  150.4170 O   0  0  0  0  0  1  0  0  0  0  0  0
  161.2060  202.2950  146.1330 O   0  0  0  0  0  0  0  0  0  0  0  0
  160.2410  201.6920  145.2790 C   0  0  0  0  0  1  0  0  0  0  0  0
  160.9640  209.7260  152.5820 N   0  0  0  0  0  2  0  0  0  0  0  0
  162.9440  210.3030  151.5050 O   0  0  0  0  0  0  0  0  0  0  0  0
  161.9830  209.4910  151.6040 C   0  0  0  0  0  0  0  0  0  0  0  0
  160.9390  210.8860  153.3710 N   0  0  0  0  0  2  0  0  0  0  0  0
  159.7010  211.5900  153.0720 C   0  0  2  0  0  3  0  0  0  0  0  0
  159.9030  212.4890  152.0110 O   0  0  0  0  0  0  0  0  0  0  0  0
  158.6260  212.9530  151.6420 C   0  0  0  0  0  2  0  0  0  0  0  0
  158.7900  213.6990  154.0000 N   0  0  0  0  0  2  0  0  0  0  0  0
  159.1870  212.3270  154.3210 C   0  0  0  0  0  2  0  0  0  0  0  0
  157.9510  213.7170  152.7940 C   0  0  0  0  0  2  0  0  0  0  0  0
  162.5170  206.5220  147.4750 N   0  0  0  0  0  2  0  0  0  0  0  0
  161.7810  206.5800  146.2130 C   0  0  0  0  0  2  0  0  0  0  0  0
  162.3250  205.6050  145.2820 N   0  0  0  0  0  2  0  0  0  0  0  0
  161.2450  205.1680  144.4060 C   0  0  0  0  0  1  0  0  0  0  0  0
  1  5  2  0  0  0  0
  1 23  1  0  0  0  0
  2 11  1  1  0  0  0
  2  5  1  0  0  0  0
  3 31  1  6  0  0  0
  3  4  1  0  0  0  0
  3  2  1  0  0  0  0
  4  6  1  0  0  0  0
  5  7  1  0  0  0  0
  6  1  1  0  0  0  0
  8 15  1  0  0  0  0
  8 18  1  0  0  0  0
  9  8  2  0  0  0  0
 10 15  2  0  0  0  0
 10 11  1  0  0  0  0
 11 16  1  0  0  0  0
 12 16  2  0  0  0  0
 12 14  1  0  0  0  0
 13 10  1  0  0  0  0
 15 12  1  0  0  0  0
 17 13  2  0  0  0  0
 17  9  1  0  0  0  0
 19 17  1  0  0  0  0
 20 19  1  0  0  0  0
 21 24  1  0  0  0  0
 22 23  2  0  0  0  0
 23 21  1  0  0  0  0
 25 24  1  1  0  0  0
 25 29  1  0  0  0  0
 26 25  1  0  0  0  0
 27 26  1  0  0  0  0
 27 30  1  0  0  0  0
 28 29  1  0  0  0  0
 30 28  1  0  0  0  0
 32 31  1  0  0  0  0
 33 32  1  0  0  0  0
 34 33  1  0  0  0  0
M  END
>  <MODEL>
5

>  <REMARK>
 VINA RESULT:      -6.7      1.544      2.235
  Name = 
  8 active torsions:
  status: ('A' for Active; 'I' for Inactive)
    1  A    between atoms: C_2  and  C_33
    2  A    between atoms: C_3  and  N_20
    3  A    between atoms: N_7  and  N_20
    4  A    between atoms: N_9  and  C_11
    5  A    between atoms: C_10  and  N_13
    6  A    between atoms: C_10  and  N_31
    7  A    between atoms: C_17  and  N_31
    8  A    between atoms: O_19  and  C_29
                            x       y       z     vdW  Elec       q    Type
                         _______ _______ _______ _____ _____    ______ ____

>  <TORSDO>
F 8

$$$$
=
 OpenBabel11052411053D

 34 37  0  0  1  0  0  0  0  0999 V2000
  161.7960  207.5100  151.0630 C   0  0  0  0  0  0  0  0  0  0  0  0
  161.0470  209.6480  152.0290 C   0  0  1  0  0  3  0  0  0  0  0  0
  161.9400  210.3410  150.9710 C   0  0  1  0  0  3  0  0  0  0  0  0
  162.9420  209.5210  150.4050 O   0  0  0  0  0  0  0  0  0  0  0  0
  161.1890  208.1410  152.0870 C   0  0  0  0  0  0  0  0  0  0  0  0
  162.3590  208.3420  150.0490 N   0  0  0  0  0  2  0  0  0  0  0  0
  160.4680  207.4110  153.1760 C   0  0  0  0  0  1  0  0  0  0  0  0
  160.2060  212.4020  155.9860 C   0  0  0  0  0  0  0  0  0  0  0  0
  159.0120  212.9610  155.4910 C   0  0  0  0  0  3  0  0  0  0  0  0
  160.4070  211.1350  153.9400 C   0  0  0  0  0  0  0  0  0  0  0  0
  161.2420  210.2600  153.3420 N   0  0  0  0  0  0  0  0  0  0  0  0
  162.0650  210.7980  155.3410 C   0  0  0  0  0  0  0  0  0  0  0  0
  159.2210  211.6650  153.4270 C   0  0  0  0  0  3  0  0  0  0  0  0
  162.9040  210.8540  156.4470 O   0  0  0  0  0  1  0  0  0  0  0  0
  160.8820  211.4860  155.1760 C   0  0  0  0  0  0  0  0  0  0  0  0
  162.2730  210.0360  154.1950 C   0  0  0  0  0  3  0  0  0  0  0  0
  158.5110  212.5930  154.2160 C   0  0  0  0  0  0  0  0  0  0  0  0
  160.6780  212.7490  157.2450 O   0  0  0  0  0  1  0  0  0  0  0  0
  157.3120  213.1190  153.7290 O   0  0  0  0  0  0  0  0  0  0  0  0
  156.0700  212.9550  154.4040 C   0  0  0  0  0  1  0  0  0  0  0  0
  161.3080  205.3510  149.8080 N   0  0  0  0  0  2  0  0  0  0  0  0
  162.5040  205.3740  151.8030 O   0  0  0  0  0  0  0  0  0  0  0  0
  161.9070  206.0380  150.9120 C   0  0  0  0  0  0  0  0  0  0  0  0
  161.2710  203.9510  149.7300 N   0  0  0  0  0  2  0  0  0  0  0  0
  160.8710  203.6000  148.3770 C   0  0  2  0  0  3  0  0  0  0  0  0
  161.4220  202.3570  148.0180 O   0  0  0  0  0  0  0  0  0  0  0  0
  160.8110  201.9930  146.8030 C   0  0  0  0  0  2  0  0  0  0  0  0
  161.9420  204.1150  146.2030 N   0  0  0  0  0  2  0  0  0  0  0  0
  161.3060  204.6950  147.3870 C   0  0  0  0  0  2  0  0  0  0  0  0
  161.1370  203.0000  145.6870 C   0  0  0  0  0  2  0  0  0  0  0  0
  161.1510  211.0010  149.9380 N   0  0  0  0  0  2  0  0  0  0  0  0
  162.0710  211.4060  148.8760 C   0  0  0  0  0  2  0  0  0  0  0  0
  161.6120  212.6470  148.2760 N   0  0  0  0  0  2  0  0  0  0  0  0
  162.7810  213.4770  148.0090 C   0  0  0  0  0  1  0  0  0  0  0  0
  1  5  2  0  0  0  0
  2  5  1  0  0  0  0
  2 11  1  1  0  0  0
  3 31  1  6  0  0  0
  3  2  1  0  0  0  0
  4  3  1  0  0  0  0
  5  7  1  0  0  0  0
  6  4  1  0  0  0  0
  6  1  1  0  0  0  0
  8 18  1  0  0  0  0
  9  8  1  0  0  0  0
 10 15  1  0  0  0  0
 11 10  1  0  0  0  0
 11 16  1  0  0  0  0
 12 14  1  0  0  0  0
 13 10  2  0  0  0  0
 13 17  1  0  0  0  0
 15 12  1  0  0  0  0
 15  8  2  0  0  0  0
 16 12  2  0  0  0  0
 17  9  2  0  0  0  0
 19 17  1  0  0  0  0
 19 20  1  0  0  0  0
 21 23  1  0  0  0  0
 23  1  1  0  0  0  0
 23 22  2  0  0  0  0
 24 21  1  0  0  0  0
 25 24  1  1  0  0  0
 26 25  1  0  0  0  0
 27 26  1  0  0  0  0
 28 29  1  0  0  0  0
 29 25  1  0  0  0  0
 30 28  1  0  0  0  0
 30 27  1  0  0  0  0
 32 31  1  0  0  0  0
 33 32  1  0  0  0  0
 34 33  1  0  0  0  0
M  END
>  <MODEL>
6

>  <REMARK>
 VINA RESULT:      -6.6      2.586      8.994
  Name = 
  8 active torsions:
  status: ('A' for Active; 'I' for Inactive)
    1  A    between atoms: C_2  and  C_33
    2  A    between atoms: C_3  and  N_20
    3  A    between atoms: N_7  and  N_20
    4  A    between atoms: N_9  and  C_11
    5  A    between atoms: C_10  and  N_13
    6  A    between atoms: C_10  and  N_31
    7  A    between atoms: C_17  and  N_31
    8  A    between atoms: O_19  and  C_29
                            x       y       z     vdW  Elec       q    Type
                         _______ _______ _______ _____ _____    ______ ____

>  <TORSDO>
F 8

$$$$
=
 OpenBabel11052411053D

 34 37  0  0  1  0  0  0  0  0999 V2000
  161.0430  206.9750  153.0680 C   0  0  0  0  0  0  0  0  0  0  0  0
  161.2440  209.3840  153.5330 C   0  0  1  0  0  3  0  0  0  0  0  0
  160.7410  209.0640  154.9620 C   0  0  1  0  0  3  0  0  0  0  0  0
  160.0690  207.8280  155.0960 O   0  0  0  0  0  0  0  0  0  0  0  0
  161.1970  208.2170  152.5690 C   0  0  0  0  0  0  0  0  0  0  0  0
  160.8230  206.8780  154.4760 N   0  0  0  0  0  2  0  0  0  0  0  0
  161.5310  208.4790  151.1350 C   0  0  0  0  0  1  0  0  0  0  0  0
  157.9490  212.9800  153.1150 C   0  0  0  0  0  0  0  0  0  0  0  0
  157.1950  212.5820  154.2350 C   0  0  0  0  0  3  0  0  0  0  0  0
  159.4480  211.1300  153.5240 C   0  0  0  0  0  0  0  0  0  0  0  0
  160.5480  210.5540  152.9990 N   0  0  0  0  0  0  0  0  0  0  0  0
  159.9900  212.3190  151.7590 C   0  0  0  0  0  0  0  0  0  0  0  0
  158.7250  210.7180  154.6460 C   0  0  0  0  0  3  0  0  0  0  0  0
  160.0010  213.2760  150.7510 O   0  0  0  0  0  1  0  0  0  0  0  0
  159.0770  212.2240  152.7860 C   0  0  0  0  0  0  0  0  0  0  0  0
  160.9020  211.2780  151.9070 C   0  0  0  0  0  3  0  0  0  0  0  0
  157.5800  211.4560  155.0090 C   0  0  0  0  0  0  0  0  0  0  0  0
  157.5790  214.0960  152.3770 O   0  0  0  0  0  1  0  0  0  0  0  0
  156.8550  211.0720  156.1390 O   0  0  0  0  0  0  0  0  0  0  0  0
  156.2480  212.0100  157.0200 C   0  0  0  0  0  1  0  0  0  0  0  0
  160.9770  205.7340  150.8470 N   0  0  0  0  0  2  0  0  0  0  0  0
  161.2120  204.6200  152.8770 O   0  0  0  0  0  0  0  0  0  0  0  0
  161.0990  205.7230  152.2740 C   0  0  0  0  0  0  0  0  0  0  0  0
  160.8740  204.5530  150.0970 N   0  0  0  0  0  2  0  0  0  0  0  0
  160.9100  204.9250  148.6910 C   0  0  2  0  0  3  0  0  0  0  0  0
  161.8040  204.0940  147.9960 O   0  0  0  0  0  0  0  0  0  0  0  0
  161.6110  204.3670  146.6280 C   0  0  0  0  0  2  0  0  0  0  0  0
  162.3300  206.5720  147.5040 N   0  0  0  0  0  2  0  0  0  0  0  0
  161.3070  206.4040  148.5380 C   0  0  0  0  0  2  0  0  0  0  0  0
  161.9570  205.8280  146.2930 C   0  0  0  0  0  2  0  0  0  0  0  0
  161.7990  209.2010  155.9570 N   0  0  0  0  0  2  0  0  0  0  0  0
  161.2630  210.0040  157.0560 C   0  0  0  0  0  2  0  0  0  0  0  0
  162.0850  211.1880  157.2430 N   0  0  0  0  0  2  0  0  0  0  0  0
  163.4570  210.8440  156.8880 C   0  0  0  0  0  1  0  0  0  0  0  0
  1  6  1  0  0  0  0
  2 11  1  6  0  0  0
  2  3  1  0  0  0  0
  3  4  1  0  0  0  0
  3 31  1  1  0  0  0
  5  1  2  0  0  0  0
  5  2  1  0  0  0  0
  6  4  1  0  0  0  0
  7  5  1  0  0  0  0
  8  9  1  0  0  0  0
  9 17  2  0  0  0  0
 10 13  2  0  0  0  0
 11 10  1  0  0  0  0
 12 16  2  0  0  0  0
 12 15  1  0  0  0  0
 13 17  1  0  0  0  0
 14 12  1  0  0  0  0
 15  8  2  0  0  0  0
 15 10  1  0  0  0  0
 16 11  1  0  0  0  0
 17 19  1  0  0  0  0
 18  8  1  0  0  0  0
 19 20  1  0  0  0  0
 21 23  1  0  0  0  0
 23 22  2  0  0  0  0
 23  1  1  0  0  0  0
 24 21  1  0  0  0  0
 25 24  1  1  0  0  0
 26 25  1  0  0  0  0
 27 26  1  0  0  0  0
 28 29  1  0  0  0  0
 29 25  1  0  0  0  0
 30 27  1  0  0  0  0
 30 28  1  0  0  0  0
 31 32  1  0  0  0  0
 32 33  1  0  0  0  0
 34 33  1  0  0  0  0
M  END
>  <MODEL>
7

>  <REMARK>
 VINA RESULT:      -6.6      2.833      9.543
  Name = 
  8 active torsions:
  status: ('A' for Active; 'I' for Inactive)
    1  A    between atoms: C_2  and  C_33
    2  A    between atoms: C_3  and  N_20
    3  A    between atoms: N_7  and  N_20
    4  A    between atoms: N_9  and  C_11
    5  A    between atoms: C_10  and  N_13
    6  A    between atoms: C_10  and  N_31
    7  A    between atoms: C_17  and  N_31
    8  A    between atoms: O_19  and  C_29
                            x       y       z     vdW  Elec       q    Type
                         _______ _______ _______ _____ _____    ______ ____

>  <TORSDO>
F 8

$$$$
=
 OpenBabel11052411053D

 34 37  0  0  1  0  0  0  0  0999 V2000
  161.9700  206.5360  147.8570 C   0  0  0  0  0  0  0  0  0  0  0  0
  161.1110  207.8570  149.7480 C   0  0  1  0  0  3  0  0  0  0  0  0
  162.1120  208.9590  149.3230 C   0  0  1  0  0  3  0  0  0  0  0  0
  163.1730  208.5170  148.5010 O   0  0  0  0  0  0  0  0  0  0  0  0
  161.2520  206.5500  148.9970 C   0  0  0  0  0  0  0  0  0  0  0  0
  162.6370  207.7500  147.5110 N   0  0  0  0  0  2  0  0  0  0  0  0
  160.4190  205.3910  149.4450 C   0  0  0  0  0  1  0  0  0  0  0  0
  160.8260  208.8330  154.5360 C   0  0  0  0  0  0  0  0  0  0  0  0
  160.5210  210.1960  154.3620 C   0  0  0  0  0  3  0  0  0  0  0  0
  160.9090  208.5920  152.1340 C   0  0  0  0  0  0  0  0  0  0  0  0
  161.1590  207.6560  151.1960 N   0  0  0  0  0  0  0  0  0  0  0  0
  161.3510  206.7310  153.2140 C   0  0  0  0  0  0  0  0  0  0  0  0
  160.5980  209.9390  151.9310 C   0  0  0  0  0  3  0  0  0  0  0  0
  161.5740  205.7950  154.2170 O   0  0  0  0  0  1  0  0  0  0  0  0
  161.0160  208.0560  153.3910 C   0  0  0  0  0  0  0  0  0  0  0  0
  161.4300  206.4950  151.8440 C   0  0  0  0  0  3  0  0  0  0  0  0
  160.3990  210.7540  153.0640 C   0  0  0  0  0  0  0  0  0  0  0  0
  160.9200  208.2880  155.8100 O   0  0  0  0  0  1  0  0  0  0  0  0
  160.0670  212.0990  152.8810 O   0  0  0  0  0  0  0  0  0  0  0  0
  159.8730  212.6760  151.5950 C   0  0  0  0  0  1  0  0  0  0  0  0
  160.9530  204.7120  146.4020 N   0  0  0  0  0  2  0  0  0  0  0  0
  163.2530  204.9290  146.6810 O   0  0  0  0  0  0  0  0  0  0  0  0
  162.1020  205.3720  146.9460 C   0  0  0  0  0  0  0  0  0  0  0  0
  161.0550  203.5220  145.6650 N   0  0  0  0  0  2  0  0  0  0  0  0
  160.7250  202.4250  146.5620 C   0  0  2  0  0  3  0  0  0  0  0  0
  161.5520  202.4660  147.6970 O   0  0  0  0  0  0  0  0  0  0  0  0
  161.0230  201.5250  148.6020 C   0  0  0  0  0  2  0  0  0  0  0  0
  161.5950  200.1070  146.6510 N   0  0  0  0  0  2  0  0  0  0  0  0
  160.8620  201.0770  145.8340 C   0  0  0  0  0  2  0  0  0  0  0  0
  161.0740  200.1000  148.0240 C   0  0  0  0  0  2  0  0  0  0  0  0
  161.4390  210.1140  148.7420 N   0  0  0  0  0  2  0  0  0  0  0  0
  162.3100  211.2720  148.9360 C   0  0  0  0  0  2  0  0  0  0  0  0
  162.2020  212.1640  147.7940 N   0  0  0  0  0  2  0  0  0  0  0  0
  160.8220  212.1270  147.3240 C   0  0  0  0  0  1  0  0  0  0  0  0
  1  5  2  0  0  0  0
  2 11  1  1  0  0  0
  3 31  1  6  0  0  0
  3  2  1  0  0  0  0
  4  3  1  0  0  0  0
  5  7  1  0  0  0  0
  5  2  1  0  0  0  0
  6  1  1  0  0  0  0
  6  4  1  0  0  0  0
  8 18  1  0  0  0  0
  9  8  1  0  0  0  0
 10 15  1  0  0  0  0
 11 16  1  0  0  0  0
 11 10  1  0  0  0  0
 12 15  1  0  0  0  0
 12 14  1  0  0  0  0
 13 10  2  0  0  0  0
 13 17  1  0  0  0  0
 15  8  2  0  0  0  0
 16 12  2  0  0  0  0
 17  9  2  0  0  0  0
 19 17  1  0  0  0  0
 20 19  1  0  0  0  0
 21 23  1  0  0  0  0
 22 23  2  0  0  0  0
 23  1  1  0  0  0  0
 24 21  1  0  0  0  0
 25 24  1  6  0  0  0
 25 26  1  0  0  0  0
 26 27  1  0  0  0  0
 28 30  1  0  0  0  0
 29 25  1  0  0  0  0
 29 28  1  0  0  0  0
 30 27  1  0  0  0  0
 31 32  1  0  0  0  0
 33 32  1  0  0  0  0
 34 33  1  0  0  0  0
M  END
>  <MODEL>
8

>  <REMARK>
 VINA RESULT:      -6.2      2.433      8.006
  Name = 
  8 active torsions:
  status: ('A' for Active; 'I' for Inactive)
    1  A    between atoms: C_2  and  C_33
    2  A    between atoms: C_3  and  N_20
    3  A    between atoms: N_7  and  N_20
    4  A    between atoms: N_9  and  C_11
    5  A    between atoms: C_10  and  N_13
    6  A    between atoms: C_10  and  N_31
    7  A    between atoms: C_17  and  N_31
    8  A    between atoms: O_19  and  C_29
                            x       y       z     vdW  Elec       q    Type
                         _______ _______ _______ _____ _____    ______ ____

>  <TORSDO>
F 8

$$$$
=
 OpenBabel11052411053D

 34 37  0  0  1  0  0  0  0  0999 V2000
  161.8800  207.7530  149.9190 C   0  0  0  0  0  0  0  0  0  0  0  0
  160.7060  205.7040  150.6140 C   0  0  1  0  0  3  0  0  0  0  0  0
  161.5300  205.7760  151.9220 C   0  0  1  0  0  3  0  0  0  0  0  0
  162.6950  206.5730  151.8510 O   0  0  0  0  0  0  0  0  0  0  0  0
  161.1070  206.7120  149.5560 C   0  0  0  0  0  0  0  0  0  0  0  0
  162.3530  207.7550  151.2660 N   0  0  0  0  0  2  0  0  0  0  0  0
  160.4560  206.6140  148.2130 C   0  0  0  0  0  1  0  0  0  0  0  0
  161.2320  201.9900  147.4690 C   0  0  0  0  0  0  0  0  0  0  0  0
  161.6040  202.8050  146.3830 C   0  0  0  0  0  3  0  0  0  0  0  0
  161.0410  203.9740  148.8330 C   0  0  0  0  0  0  0  0  0  0  0  0
  160.7040  204.3390  150.0870 N   0  0  0  0  0  0  0  0  0  0  0  0
  160.5420  202.1250  149.9080 C   0  0  0  0  0  0  0  0  0  0  0  0
  161.4170  204.8070  147.7770 C   0  0  0  0  0  3  0  0  0  0  0  0
  160.3070  200.7920  150.2250 O   0  0  0  0  0  1  0  0  0  0  0  0
  160.9550  202.6140  148.6870 C   0  0  0  0  0  0  0  0  0  0  0  0
  160.3950  203.2080  150.7700 C   0  0  0  0  0  3  0  0  0  0  0  0
  161.7040  204.2130  146.5310 C   0  0  0  0  0  0  0  0  0  0  0  0
  161.1580  200.6120  147.3230 O   0  0  0  0  0  1  0  0  0  0  0  0
  162.1010  205.0270  145.4670 O   0  0  0  0  0  0  0  0  0  0  0  0
  161.2060  205.4480  144.4450 C   0  0  0  0  0  1  0  0  0  0  0  0
  162.0630  210.2450  149.4380 N   0  0  0  0  0  2  0  0  0  0  0  0
  162.7170  208.6380  147.8870 O   0  0  0  0  0  0  0  0  0  0  0  0
  162.2570  208.8840  149.0360 C   0  0  0  0  0  0  0  0  0  0  0  0
  162.2700  211.3200  148.5590 N   0  0  0  0  0  2  0  0  0  0  0  0
  160.9750  211.9330  148.3090 C   0  0  2  0  0  3  0  0  0  0  0  0
  160.8280  212.2040  146.9370 O   0  0  0  0  0  0  0  0  0  0  0  0
  159.4830  212.5780  146.7540 C   0  0  0  0  0  2  0  0  0  0  0  0
  160.2990  214.3160  148.3210 N   0  0  0  0  0  2  0  0  0  0  0  0
  160.8200  213.2190  149.1390 C   0  0  0  0  0  2  0  0  0  0  0  0
  159.1460  213.8610  147.5330 C   0  0  0  0  0  2  0  0  0  0  0  0
  160.7060  206.1460  153.0670 N   0  0  0  0  0  2  0  0  0  0  0  0
  161.6080  206.4230  154.1840 C   0  0  0  0  0  2  0  0  0  0  0  0
  160.9620  207.3220  155.1250 N   0  0  0  0  0  2  0  0  0  0  0  0
  160.9920  208.6650  154.5560 C   0  0  0  0  0  1  0  0  0  0  0  0
  1  6  1  0  0  0  0
  2 11  1  6  0  0  0
  2  3  1  0  0  0  0
  3 31  1  1  0  0  0
  4  3  1  0  0  0  0
  5  1  2  0  0  0  0
  5  2  1  0  0  0  0
  6  4  1  0  0  0  0
  7  5  1  0  0  0  0
  8 15  1  0  0  0  0
  9 17  1  0  0  0  0
  9  8  2  0  0  0  0
 10 11  1  0  0  0  0
 11 16  1  0  0  0  0
 12 14  1  0  0  0  0
 12 16  2  0  0  0  0
 13 10  1  0  0  0  0
 15 10  2  0  0  0  0
 15 12  1  0  0  0  0
 17 13  2  0  0  0  0
 18  8  1  0  0  0  0
 19 17  1  0  0  0  0
 20 19  1  0  0  0  0
 22 23  2  0  0  0  0
 23 21  1  0  0  0  0
 23  1  1  0  0  0  0
 24 21  1  0  0  0  0
 25 24  1  6  0  0  0
 25 29  1  0  0  0  0
 26 25  1  0  0  0  0
 27 26  1  0  0  0  0
 27 30  1  0  0  0  0
 28 29  1  0  0  0  0
 30 28  1  0  0  0  0
 31 32  1  0  0  0  0
 32 33  1  0  0  0  0
 34 33  1  0  0  0  0
M  END
>  <MODEL>
9

>  <REMARK>
 VINA RESULT:      -6.0      2.793      5.366
  Name = 
  8 active torsions:
  status: ('A' for Active; 'I' for Inactive)
    1  A    between atoms: C_2  and  C_33
    2  A    between atoms: C_3  and  N_20
    3  A    between atoms: N_7  and  N_20
    4  A    between atoms: N_9  and  C_11
    5  A    between atoms: C_10  and  N_13
    6  A    between atoms: C_10  and  N_31
    7  A    between atoms: C_17  and  N_31
    8  A    between atoms: O_19  and  C_29
                            x       y       z     vdW  Elec       q    Type
                         _______ _______ _______ _____ _____    ______ ____

>  <TORSDO>
F 8

$$$$
