=
 OpenBabel11042422353D

 33 37  0  0  1  0  0  0  0  0999 V2000
  160.0140  211.5650  152.0550 N   0  0  0  0  0  0  0  0  0  0  0  0
  158.6900  212.2080  153.8670 C   0  0  0  0  0  3  0  0  0  0  0  0
  159.3100  213.6520  157.1950 C   0  0  0  0  0  3  0  0  0  0  0  0
  159.7980  211.4180  153.3270 C   0  0  0  0  0  0  0  0  0  0  0  0
  158.2150  214.4530  157.2610 N   0  0  0  0  0  0  0  0  0  0  0  0
  157.4270  213.6130  155.1790 C   0  0  0  0  0  3  0  0  0  0  0  0
  160.5240  211.9300  156.2550 C   0  0  0  0  0  3  0  0  0  0  0  0
  160.9800  209.1800  153.7050 C   0  0  0  0  0  3  0  0  0  0  0  0
  161.0180  210.9950  151.1980 C   0  0  0  0  0  0  0  0  0  0  0  0
  160.6040  210.5170  154.1660 C   0  0  0  0  0  0  0  0  0  0  0  0
  161.3280  208.8150  152.4710 C   0  0  0  0  0  0  0  0  0  0  0  0
  158.5550  212.7960  155.0570 C   0  0  0  0  0  0  0  0  0  0  0  0
  159.5050  212.7800  156.1150 C   0  0  0  0  0  0  0  0  0  0  0  0
  161.5450  209.7790  151.3810 C   0  0  0  0  0  3  0  0  0  0  0  0
  160.9110  210.7800  155.4290 C   0  0  0  0  0  3  0  0  0  0  0  0
  157.2670  214.4360  156.2920 C   0  0  0  0  0  3  0  0  0  0  0  0
  160.8160  213.0260  149.6970 C   0  0  0  0  0  2  0  0  0  0  0  0
  162.3060  211.2530  149.0420 C   0  0  0  0  0  3  0  0  0  0  0  0
  161.3710  211.7190  150.0060 N   0  0  0  0  0  0  0  0  0  0  0  0
  161.5140  213.5580  148.0930 S   0  0  0  0  0  0  0  0  0  0  0  0
  162.4930  212.0640  148.0230 C   0  0  0  0  0  3  0  0  0  0  0  0
  161.5800  206.5400  153.2350 O   0  0  0  0  0  1  0  0  0  0  0  0
  161.6530  207.4390  152.2220 N   0  0  0  0  0  0  0  0  0  0  0  0
  162.2460  207.0110  150.9600 C   0  0  0  0  0  2  0  0  0  0  0  0
  161.1330  206.9390  148.6530 N   0  0  0  0  0  0  0  0  0  0  0  0
  161.5810  204.0660  150.9590 O   0  0  0  0  0  1  0  0  0  0  0  0
  161.3150  204.9420  149.9130 C   0  0  0  0  0  0  0  0  0  0  0  0
  161.1730  206.4100  150.0430 C   0  0  1  0  0  3  0  0  0  0  0  0
  162.4220  207.5200  148.2520 C   0  0  0  0  0  1  0  0  0  0  0  0
  160.8110  205.7480  147.8250 C   0  0  2  0  0  3  0  0  0  0  0  0
  161.1340  203.2550  148.2350 O   0  0  0  0  0  1  0  0  0  0  0  0
  161.1100  204.5730  148.6760 C   0  0  0  0  0  0  0  0  0  0  0  0
  161.5350  205.6920  146.6250 O   0  0  0  0  0  1  0  0  0  0  0  0
  1  4  1  0  0  0  0
  2 12  1  0  0  0  0
  3  5  1  0  0  0  0
  4  2  2  0  0  0  0
  4 10  1  0  0  0  0
  6 16  1  0  0  0  0
  8 10  2  0  0  0  0
  9 14  1  0  0  0  0
  9  1  2  0  0  0  0
 10 15  1  0  0  0  0
 11  8  1  0  0  0  0
 12  6  2  0  0  0  0
 12 13  1  0  0  0  0
 13  7  1  0  0  0  0
 13  3  2  0  0  0  0
 14 11  2  0  0  0  0
 15  7  2  0  0  0  0
 16  5  2  0  0  0  0
 17 19  1  0  0  0  0
 18 19  1  0  0  0  0
 19  9  1  0  0  0  0
 20 17  1  0  0  0  0
 21 20  1  0  0  0  0
 21 18  2  0  0  0  0
 23 11  1  0  0  0  0
 23 22  1  0  0  0  0
 24 23  1  0  0  0  0
 25 28  1  0  0  0  0
 27 28  1  0  0  0  0
 27 26  1  0  0  0  0
 28 24  1  1  0  0  0
 29 25  1  0  0  0  0
 30 33  1  6  0  0  0
 30 25  1  0  0  0  0
 30 32  1  0  0  0  0
 31 32  1  0  0  0  0
 32 27  2  0  0  0  0
M  END
>  <MODEL>
1

>  <REMARK>
 VINA RESULT:      -7.3      0.000      0.000
  Name = 
  4 active torsions:
  status: ('A' for Active; 'I' for Inactive)
    1  A    between atoms: N_13  and  C_19
    2  A    between atoms: N_14  and  C_23
    3  A    between atoms: N_14  and  C_25
    4  A    between atoms: C_15  and  C_23
                            x       y       z     vdW  Elec       q    Type
                         _______ _______ _______ _____ _____    ______ ____

>  <TORSDO>
F 4

$$$$
=
 OpenBabel11042422353D

 33 37  0  0  1  0  0  0  0  0999 V2000
  162.3900  209.2510  148.3990 N   0  0  0  0  0  0  0  0  0  0  0  0
  162.8070  207.0400  147.7760 C   0  0  0  0  0  3  0  0  0  0  0  0
  160.7450  204.0770  147.0590 C   0  0  0  0  0  3  0  0  0  0  0  0
  162.1960  208.0020  148.6960 C   0  0  0  0  0  0  0  0  0  0  0  0
  161.5000  203.5600  146.0550 N   0  0  0  0  0  0  0  0  0  0  0  0
  163.1350  205.2620  146.3540 C   0  0  0  0  0  3  0  0  0  0  0  0
  160.4210  205.5140  148.8340 C   0  0  0  0  0  3  0  0  0  0  0  0
  161.5950  208.2400  151.1710 C   0  0  0  0  0  3  0  0  0  0  0  0
  161.9220  210.4540  149.0320 C   0  0  0  0  0  0  0  0  0  0  0  0
  161.4260  207.5820  149.8750 C   0  0  0  0  0  0  0  0  0  0  0  0
  161.7920  209.5380  151.4020 C   0  0  0  0  0  0  0  0  0  0  0  0
  162.3730  205.8450  147.3720 C   0  0  0  0  0  0  0  0  0  0  0  0
  161.1630  205.2120  147.7670 C   0  0  0  0  0  0  0  0  0  0  0  0
  161.7070  210.5620  150.3480 C   0  0  0  0  0  3  0  0  0  0  0  0
  160.6530  206.5030  149.8940 C   0  0  0  0  0  3  0  0  0  0  0  0
  162.6880  204.1130  145.7060 C   0  0  0  0  0  3  0  0  0  0  0  0
  162.8950  212.6000  148.1000 C   0  0  0  0  0  2  0  0  0  0  0  0
  160.6650  211.9680  147.4510 C   0  0  0  0  0  3  0  0  0  0  0  0
  161.8120  211.6380  148.2240 N   0  0  0  0  0  0  0  0  0  0  0  0
  162.3190  213.9460  147.0060 S   0  0  0  0  0  0  0  0  0  0  0  0
  160.7640  213.0940  146.7770 C   0  0  0  0  0  3  0  0  0  0  0  0
  163.1600  210.4170  153.1840 O   0  0  0  0  0  1  0  0  0  0  0  0
  161.9470  209.9850  152.7570 N   0  0  0  0  0  0  0  0  0  0  0  0
  160.8890  209.8090  153.7450 C   0  0  0  0  0  2  0  0  0  0  0  0
  159.8050  212.1290  153.8460 N   0  0  0  0  0  0  0  0  0  0  0  0
  160.3920  209.8600  156.7230 O   0  0  0  0  0  1  0  0  0  0  0  0
  160.0340  210.8710  155.8400 C   0  0  0  0  0  0  0  0  0  0  0  0
  160.6590  211.1130  154.5190 C   0  0  1  0  0  3  0  0  0  0  0  0
  158.9170  211.5190  152.8450 C   0  0  0  0  0  1  0  0  0  0  0  0
  159.0180  212.7270  154.9540 C   0  0  2  0  0  3  0  0  0  0  0  0
  158.3790  211.8440  157.2560 O   0  0  0  0  0  1  0  0  0  0  0  0
  159.1210  211.7730  156.0830 C   0  0  0  0  0  0  0  0  0  0  0  0
  157.6760  212.9620  154.6200 O   0  0  0  0  0  1  0  0  0  0  0  0
  1  4  2  0  0  0  0
  1  9  1  0  0  0  0
  2  4  1  0  0  0  0
  3 13  1  0  0  0  0
  4 10  1  0  0  0  0
  5  3  2  0  0  0  0
  6 12  1  0  0  0  0
  7 15  1  0  0  0  0
  8 11  2  0  0  0  0
  9 14  2  0  0  0  0
 10 15  2  0  0  0  0
 10  8  1  0  0  0  0
 11 23  1  0  0  0  0
 12 13  1  0  0  0  0
 12  2  2  0  0  0  0
 13  7  2  0  0  0  0
 14 11  1  0  0  0  0
 16  5  1  0  0  0  0
 16  6  2  0  0  0  0
 17 19  1  0  0  0  0
 18 19  1  0  0  0  0
 19  9  1  0  0  0  0
 20 17  1  0  0  0  0
 21 20  1  0  0  0  0
 21 18  2  0  0  0  0
 23 22  1  0  0  0  0
 23 24  1  0  0  0  0
 25 28  1  0  0  0  0
 25 30  1  0  0  0  0
 27 32  2  0  0  0  0
 27 26  1  0  0  0  0
 28 24  1  6  0  0  0
 28 27  1  0  0  0  0
 29 25  1  0  0  0  0
 30 33  1  6  0  0  0
 30 32  1  0  0  0  0
 32 31  1  0  0  0  0
M  END
>  <MODEL>
2

>  <REMARK>
 VINA RESULT:      -7.0      2.997      8.396
  Name = 
  4 active torsions:
  status: ('A' for Active; 'I' for Inactive)
    1  A    between atoms: N_13  and  C_19
    2  A    between atoms: N_14  and  C_23
    3  A    between atoms: N_14  and  C_25
    4  A    between atoms: C_15  and  C_23
                            x       y       z     vdW  Elec       q    Type
                         _______ _______ _______ _____ _____    ______ ____

>  <TORSDO>
F 4

$$$$
=
 OpenBabel11042422353D

 33 37  0  0  1  0  0  0  0  0999 V2000
  162.4420  209.0700  148.8850 N   0  0  0  0  0  0  0  0  0  0  0  0
  162.8310  206.9450  148.0000 C   0  0  0  0  0  3  0  0  0  0  0  0
  160.7340  204.2180  146.6930 C   0  0  0  0  0  3  0  0  0  0  0  0
  162.1720  207.8040  148.9870 C   0  0  0  0  0  0  0  0  0  0  0  0
  161.5610  203.8020  145.6990 N   0  0  0  0  0  0  0  0  0  0  0  0
  163.2250  205.3610  146.3790 C   0  0  0  0  0  3  0  0  0  0  0  0
  160.2960  205.4150  148.6140 C   0  0  0  0  0  3  0  0  0  0  0  0
  161.3430  207.7350  151.4060 C   0  0  0  0  0  3  0  0  0  0  0  0
  161.9620  210.1980  149.6360 C   0  0  0  0  0  0  0  0  0  0  0  0
  161.2750  207.2680  150.0210 C   0  0  0  0  0  0  0  0  0  0  0  0
  161.5680  208.9780  151.8330 C   0  0  0  0  0  0  0  0  0  0  0  0
  162.3920  205.8400  147.3950 C   0  0  0  0  0  0  0  0  0  0  0  0
  161.1250  205.2230  147.5870 C   0  0  0  0  0  0  0  0  0  0  0  0
  161.6250  210.1370  150.9290 C   0  0  0  0  0  3  0  0  0  0  0  0
  160.4620  206.2380  149.8180 C   0  0  0  0  0  3  0  0  0  0  0  0
  162.7980  204.3350  145.5390 C   0  0  0  0  0  3  0  0  0  0  0  0
  161.0890  212.5640  149.3940 C   0  0  0  0  0  2  0  0  0  0  0  0
  162.8680  211.8380  147.9440 C   0  0  0  0  0  3  0  0  0  0  0  0
  161.9770  211.4850  148.9940 N   0  0  0  0  0  0  0  0  0  0  0  0
  161.4300  213.9940  148.3060 S   0  0  0  0  0  0  0  0  0  0  0  0
  162.7240  213.0660  147.4930 C   0  0  0  0  0  3  0  0  0  0  0  0
  161.4310  208.2000  154.1120 O   0  0  0  0  0  1  0  0  0  0  0  0
  161.6080  209.2290  153.2460 N   0  0  0  0  0  0  0  0  0  0  0  0
  161.6400  210.5850  153.7800 C   0  0  0  0  0  2  0  0  0  0  0  0
  160.2340  210.9860  155.8850 N   0  0  0  0  0  0  0  0  0  0  0  0
  159.8620  212.7400  152.6360 O   0  0  0  0  0  1  0  0  0  0  0  0
  159.8030  212.2720  153.9430 C   0  0  0  0  0  0  0  0  0  0  0  0
  160.2840  210.9470  154.3980 C   0  0  1  0  0  3  0  0  0  0  0  0
  161.5650  211.2020  156.4700 C   0  0  0  0  0  1  0  0  0  0  0  0
  159.3340  212.1280  156.1840 C   0  0  2  0  0  3  0  0  0  0  0  0
  158.6950  214.1880  154.8300 O   0  0  0  0  0  1  0  0  0  0  0  0
  159.2710  212.9290  154.9390 C   0  0  0  0  0  0  0  0  0  0  0  0
  159.7710  212.9140  157.2610 O   0  0  0  0  0  1  0  0  0  0  0  0
  1  4  2  0  0  0  0
  1  9  1  0  0  0  0
  2  4  1  0  0  0  0
  3 13  1  0  0  0  0
  4 10  1  0  0  0  0
  5  3  2  0  0  0  0
  6 12  1  0  0  0  0
  7 15  1  0  0  0  0
  8 11  2  0  0  0  0
  9 14  2  0  0  0  0
 10  8  1  0  0  0  0
 11 23  1  0  0  0  0
 12 13  1  0  0  0  0
 12  2  2  0  0  0  0
 13  7  2  0  0  0  0
 14 11  1  0  0  0  0
 15 10  2  0  0  0  0
 16  5  1  0  0  0  0
 16  6  2  0  0  0  0
 18 19  1  0  0  0  0
 19 17  1  0  0  0  0
 19  9  1  0  0  0  0
 20 17  1  0  0  0  0
 21 18  2  0  0  0  0
 21 20  1  0  0  0  0
 23 24  1  0  0  0  0
 23 22  1  0  0  0  0
 25 30  1  0  0  0  0
 25 29  1  0  0  0  0
 26 27  1  0  0  0  0
 27 28  1  0  0  0  0
 27 32  2  0  0  0  0
 28 24  1  1  0  0  0
 28 25  1  0  0  0  0
 30 33  1  1  0  0  0
 31 32  1  0  0  0  0
 32 30  1  0  0  0  0
M  END
>  <MODEL>
3

>  <REMARK>
 VINA RESULT:      -7.0      2.815      8.556
  Name = 
  4 active torsions:
  status: ('A' for Active; 'I' for Inactive)
    1  A    between atoms: N_13  and  C_19
    2  A    between atoms: N_14  and  C_23
    3  A    between atoms: N_14  and  C_25
    4  A    between atoms: C_15  and  C_23
                            x       y       z     vdW  Elec       q    Type
                         _______ _______ _______ _____ _____    ______ ____

>  <TORSDO>
F 4

$$$$
=
 OpenBabel11042422353D

 33 37  0  0  1  0  0  0  0  0999 V2000
  161.8860  208.8300  150.9440 N   0  0  0  0  0  0  0  0  0  0  0  0
  161.7770  209.4910  153.1800 C   0  0  0  0  0  3  0  0  0  0  0  0
  159.1320  210.6840  155.4440 C   0  0  0  0  0  3  0  0  0  0  0  0
  161.5450  209.7780  151.7630 C   0  0  0  0  0  0  0  0  0  0  0  0
  159.5630  210.0720  156.5780 N   0  0  0  0  0  0  0  0  0  0  0  0
  161.4930  209.2570  155.4510 C   0  0  0  0  0  3  0  0  0  0  0  0
  159.4340  211.4000  153.2720 C   0  0  0  0  0  3  0  0  0  0  0  0
  161.5170  211.7550  150.1410 C   0  0  0  0  0  3  0  0  0  0  0  0
  161.7730  208.7350  149.5140 C   0  0  0  0  0  0  0  0  0  0  0  0
  160.9730  211.0520  151.3030 C   0  0  0  0  0  0  0  0  0  0  0  0
  161.9780  211.2200  149.0100 C   0  0  0  0  0  0  0  0  0  0  0  0
  161.0700  209.8450  154.2550 C   0  0  0  0  0  0  0  0  0  0  0  0
  159.8770  210.6180  154.2590 C   0  0  0  0  0  0  0  0  0  0  0  0
  161.8560  209.7890  148.6930 C   0  0  0  0  0  3  0  0  0  0  0  0
  160.0470  211.7210  151.9770 C   0  0  0  0  0  3  0  0  0  0  0  0
  160.7300  209.3830  156.6100 C   0  0  0  0  0  3  0  0  0  0  0  0
  160.9830  206.3280  149.5630 C   0  0  0  0  0  2  0  0  0  0  0  0
  162.2980  207.0720  147.6890 C   0  0  0  0  0  3  0  0  0  0  0  0
  161.7040  207.4210  148.9330 N   0  0  0  0  0  0  0  0  0  0  0  0
  161.1770  204.8520  148.5020 S   0  0  0  0  0  0  0  0  0  0  0  0
  162.1180  205.8190  147.3290 C   0  0  0  0  0  3  0  0  0  0  0  0
  163.8200  212.1440  147.7550 O   0  0  0  0  0  1  0  0  0  0  0  0
  162.4840  212.0900  147.9870 N   0  0  0  0  0  0  0  0  0  0  0  0
  161.6270  213.0630  147.3200 C   0  0  0  0  0  2  0  0  0  0  0  0
  159.1240  212.6000  147.0320 N   0  0  0  0  0  0  0  0  0  0  0  0
  161.6390  212.8090  144.3110 O   0  0  0  0  0  1  0  0  0  0  0  0
  160.5080  212.7100  145.1140 C   0  0  0  0  0  0  0  0  0  0  0  0
  160.5090  212.3500  146.5500 C   0  0  1  0  0  3  0  0  0  0  0  0
  159.0250  213.8620  147.7790 C   0  0  0  0  0  1  0  0  0  0  0  0
  158.3160  212.6590  145.7870 C   0  0  2  0  0  3  0  0  0  0  0  0
  158.9450  213.1870  143.3760 O   0  0  0  0  0  1  0  0  0  0  0  0
  159.2840  212.8800  144.6880 C   0  0  0  0  0  0  0  0  0  0  0  0
  157.3420  213.6690  145.8030 O   0  0  0  0  0  1  0  0  0  0  0  0
  1  4  1  0  0  0  0
  2 12  1  0  0  0  0
  3  5  1  0  0  0  0
  4  2  2  0  0  0  0
  5 16  2  0  0  0  0
  6 16  1  0  0  0  0
  7 13  1  0  0  0  0
  8 10  2  0  0  0  0
  9  1  2  0  0  0  0
 10  4  1  0  0  0  0
 10 15  1  0  0  0  0
 11  8  1  0  0  0  0
 12 13  1  0  0  0  0
 12  6  2  0  0  0  0
 13  3  2  0  0  0  0
 14 11  2  0  0  0  0
 14  9  1  0  0  0  0
 15  7  2  0  0  0  0
 18 19  1  0  0  0  0
 19  9  1  0  0  0  0
 19 17  1  0  0  0  0
 20 17  1  0  0  0  0
 21 18  2  0  0  0  0
 21 20  1  0  0  0  0
 22 23  1  0  0  0  0
 23 11  1  0  0  0  0
 24 23  1  0  0  0  0
 25 29  1  0  0  0  0
 26 27  1  0  0  0  0
 27 28  1  0  0  0  0
 28 25  1  0  0  0  0
 28 24  1  1  0  0  0
 30 33  1  1  0  0  0
 30 25  1  0  0  0  0
 31 32  1  0  0  0  0
 32 27  2  0  0  0  0
 32 30  1  0  0  0  0
M  END
>  <MODEL>
4

>  <REMARK>
 VINA RESULT:      -6.9      3.816      6.300
  Name = 
  4 active torsions:
  status: ('A' for Active; 'I' for Inactive)
    1  A    between atoms: N_13  and  C_19
    2  A    between atoms: N_14  and  C_23
    3  A    between atoms: N_14  and  C_25
    4  A    between atoms: C_15  and  C_23
                            x       y       z     vdW  Elec       q    Type
                         _______ _______ _______ _____ _____    ______ ____

>  <TORSDO>
F 4

$$$$
=
 OpenBabel11042422353D

 33 37  0  0  1  0  0  0  0  0999 V2000
  160.4810  211.5690  151.5320 N   0  0  0  0  0  0  0  0  0  0  0  0
  159.3290  212.0400  153.5070 C   0  0  0  0  0  3  0  0  0  0  0  0
  160.2700  212.9630  156.9440 C   0  0  0  0  0  3  0  0  0  0  0  0
  160.3380  211.2610  152.7860 C   0  0  0  0  0  0  0  0  0  0  0  0
  159.2450  213.8180  157.1970 N   0  0  0  0  0  0  0  0  0  0  0  0
  158.2630  213.3300  155.0860 C   0  0  0  0  0  3  0  0  0  0  0  0
  161.2860  211.3120  155.6940 C   0  0  0  0  0  3  0  0  0  0  0  0
  161.3680  208.9200  152.7720 C   0  0  0  0  0  3  0  0  0  0  0  0
  161.3820  211.0590  150.5350 C   0  0  0  0  0  0  0  0  0  0  0  0
  161.1250  210.2010  153.4340 C   0  0  0  0  0  0  0  0  0  0  0  0
  161.6070  208.7070  151.4780 C   0  0  0  0  0  0  0  0  0  0  0  0
  159.3160  212.4640  154.7720 C   0  0  0  0  0  0  0  0  0  0  0  0
  160.3280  212.2390  155.7450 C   0  0  0  0  0  0  0  0  0  0  0  0
  161.8260  209.7960  150.5140 C   0  0  0  0  0  3  0  0  0  0  0  0
  161.5320  210.2650  154.6950 C   0  0  0  0  0  3  0  0  0  0  0  0
  158.2380  213.9980  156.3080 C   0  0  0  0  0  3  0  0  0  0  0  0
  161.0180  213.1700  149.1820 C   0  0  0  0  0  2  0  0  0  0  0  0
  162.7500  211.6460  148.4960 C   0  0  0  0  0  3  0  0  0  0  0  0
  161.7110  211.9160  149.4280 N   0  0  0  0  0  0  0  0  0  0  0  0
  161.7370  213.9130  147.6740 S   0  0  0  0  0  0  0  0  0  0  0  0
  162.8950  212.5560  147.5570 C   0  0  0  0  0  3  0  0  0  0  0  0
  162.8800  206.6570  151.4710 O   0  0  0  0  0  1  0  0  0  0  0  0
  161.8100  207.3610  151.0220 N   0  0  0  0  0  0  0  0  0  0  0  0
  161.0120  206.7910  149.9430 C   0  0  0  0  0  2  0  0  0  0  0  0
  161.4990  204.2830  149.7420 N   0  0  0  0  0  0  0  0  0  0  0  0
  161.4860  206.7410  146.9620 O   0  0  0  0  0  1  0  0  0  0  0  0
  161.5270  205.6270  147.7930 C   0  0  0  0  0  0  0  0  0  0  0  0
  161.7810  205.6590  149.2510 C   0  0  1  0  0  3  0  0  0  0  0  0
  160.1850  204.1960  150.3970 C   0  0  0  0  0  1  0  0  0  0  0  0
  161.5310  203.4500  148.5130 C   0  0  2  0  0  3  0  0  0  0  0  0
  161.1810  204.0270  146.0580 O   0  0  0  0  0  1  0  0  0  0  0  0
  161.3910  204.3940  147.3810 C   0  0  0  0  0  0  0  0  0  0  0  0
  160.5250  202.4730  148.4760 O   0  0  0  0  0  1  0  0  0  0  0  0
  1  4  1  0  0  0  0
  2 12  1  0  0  0  0
  3  5  1  0  0  0  0
  4 10  1  0  0  0  0
  4  2  2  0  0  0  0
  6 16  1  0  0  0  0
  7 13  1  0  0  0  0
  8 10  2  0  0  0  0
  9  1  2  0  0  0  0
 10 15  1  0  0  0  0
 11  8  1  0  0  0  0
 12  6  2  0  0  0  0
 12 13  1  0  0  0  0
 13  3  2  0  0  0  0
 14  9  1  0  0  0  0
 14 11  2  0  0  0  0
 15  7  2  0  0  0  0
 16  5  2  0  0  0  0
 17 19  1  0  0  0  0
 18 19  1  0  0  0  0
 19  9  1  0  0  0  0
 20 17  1  0  0  0  0
 21 20  1  0  0  0  0
 21 18  2  0  0  0  0
 23 22  1  0  0  0  0
 23 11  1  0  0  0  0
 24 23  1  0  0  0  0
 25 29  1  0  0  0  0
 26 27  1  0  0  0  0
 27 28  1  0  0  0  0
 28 25  1  0  0  0  0
 28 24  1  1  0  0  0
 30 33  1  1  0  0  0
 30 25  1  0  0  0  0
 31 32  1  0  0  0  0
 32 27  2  0  0  0  0
 32 30  1  0  0  0  0
M  END
>  <MODEL>
5

>  <REMARK>
 VINA RESULT:      -6.7      1.214      1.856
  Name = 
  4 active torsions:
  status: ('A' for Active; 'I' for Inactive)
    1  A    between atoms: N_13  and  C_19
    2  A    between atoms: N_14  and  C_23
    3  A    between atoms: N_14  and  C_25
    4  A    between atoms: C_15  and  C_23
                            x       y       z     vdW  Elec       q    Type
                         _______ _______ _______ _____ _____    ______ ____

>  <TORSDO>
F 4

$$$$
=
 OpenBabel11042422353D

 33 37  0  0  1  0  0  0  0  0999 V2000
  160.8190  211.6370  150.5260 N   0  0  0  0  0  0  0  0  0  0  0  0
  159.9130  211.5850  152.6770 C   0  0  0  0  0  3  0  0  0  0  0  0
  161.2660  211.4910  156.0980 C   0  0  0  0  0  3  0  0  0  0  0  0
  160.7870  211.0000  151.6570 C   0  0  0  0  0  0  0  0  0  0  0  0
  160.3310  212.2780  156.6930 N   0  0  0  0  0  0  0  0  0  0  0  0
  159.1040  212.4250  154.6600 C   0  0  0  0  0  3  0  0  0  0  0  0
  162.0360  210.2150  154.3380 C   0  0  0  0  0  3  0  0  0  0  0  0
  161.6550  208.7200  150.8900 C   0  0  0  0  0  3  0  0  0  0  0  0
  161.5750  211.3910  149.3280 C   0  0  0  0  0  0  0  0  0  0  0  0
  161.5660  209.7770  151.8980 C   0  0  0  0  0  0  0  0  0  0  0  0
  161.7440  208.8640  149.5680 C   0  0  0  0  0  0  0  0  0  0  0  0
  160.0600  211.6440  154.0020 C   0  0  0  0  0  0  0  0  0  0  0  0
  161.1510  211.1250  154.7510 C   0  0  0  0  0  0  0  0  0  0  0  0
  161.9310  210.1690  148.9150 C   0  0  0  0  0  3  0  0  0  0  0  0
  162.1070  209.4760  153.0720 C   0  0  0  0  0  3  0  0  0  0  0  0
  159.2510  212.7310  156.0110 C   0  0  0  0  0  3  0  0  0  0  0  0
  163.1670  212.7780  147.9270 C   0  0  0  0  0  2  0  0  0  0  0  0
  160.8510  213.4280  148.0250 C   0  0  0  0  0  3  0  0  0  0  0  0
  161.8430  212.5080  148.4630 N   0  0  0  0  0  0  0  0  0  0  0  0
  163.0540  214.2920  146.9080 S   0  0  0  0  0  0  0  0  0  0  0  0
  161.2980  214.3800  147.2340 C   0  0  0  0  0  3  0  0  0  0  0  0
  161.2550  207.7080  147.5070 O   0  0  0  0  0  1  0  0  0  0  0  0
  161.8090  207.6890  148.7450 N   0  0  0  0  0  0  0  0  0  0  0  0
  162.2810  206.4140  149.2710 C   0  0  0  0  0  2  0  0  0  0  0  0
  160.9830  204.4810  148.2010 N   0  0  0  0  0  0  0  0  0  0  0  0
  161.5540  204.9900  151.8320 O   0  0  0  0  0  1  0  0  0  0  0  0
  161.2230  204.5500  150.5560 C   0  0  0  0  0  0  0  0  0  0  0  0
  161.1250  205.4100  149.3550 C   0  0  1  0  0  3  0  0  0  0  0  0
  162.2480  204.3230  147.4690 C   0  0  0  0  0  1  0  0  0  0  0  0
  160.5690  203.1980  148.8230 C   0  0  2  0  0  3  0  0  0  0  0  0
  160.8690  202.2740  151.1770 O   0  0  0  0  0  1  0  0  0  0  0  0
  160.9100  203.3170  150.2590 C   0  0  0  0  0  0  0  0  0  0  0  0
  161.1920  202.0770  148.2530 O   0  0  0  0  0  1  0  0  0  0  0  0
  1  4  1  0  0  0  0
  2 12  1  0  0  0  0
  3  5  1  0  0  0  0
  4 10  1  0  0  0  0
  4  2  2  0  0  0  0
  6 16  1  0  0  0  0
  7 13  1  0  0  0  0
  8 10  2  0  0  0  0
  9  1  2  0  0  0  0
 10 15  1  0  0  0  0
 11  8  1  0  0  0  0
 12  6  2  0  0  0  0
 12 13  1  0  0  0  0
 13  3  2  0  0  0  0
 14  9  1  0  0  0  0
 14 11  2  0  0  0  0
 15  7  2  0  0  0  0
 16  5  2  0  0  0  0
 17 19  1  0  0  0  0
 18 19  1  0  0  0  0
 19  9  1  0  0  0  0
 20 21  1  0  0  0  0
 20 17  1  0  0  0  0
 21 18  2  0  0  0  0
 22 23  1  0  0  0  0
 23 24  1  0  0  0  0
 23 11  1  0  0  0  0
 25 30  1  0  0  0  0
 25 28  1  0  0  0  0
 27 26  1  0  0  0  0
 28 24  1  6  0  0  0
 28 27  1  0  0  0  0
 29 25  1  0  0  0  0
 30 33  1  6  0  0  0
 30 32  1  0  0  0  0
 32 27  2  0  0  0  0
 32 31  1  0  0  0  0
M  END
>  <MODEL>
6

>  <REMARK>
 VINA RESULT:      -6.0      1.561      2.718
  Name = 
  4 active torsions:
  status: ('A' for Active; 'I' for Inactive)
    1  A    between atoms: N_13  and  C_19
    2  A    between atoms: N_14  and  C_23
    3  A    between atoms: N_14  and  C_25
    4  A    between atoms: C_15  and  C_23
                            x       y       z     vdW  Elec       q    Type
                         _______ _______ _______ _____ _____    ______ ____

>  <TORSDO>
F 4

$$$$
=
 OpenBabel11042422353D

 33 37  0  0  1  0  0  0  0  0999 V2000
  160.5860  208.0310  152.6860 N   0  0  0  0  0  0  0  0  0  0  0  0
  160.4680  206.9190  150.6370 C   0  0  0  0  0  3  0  0  0  0  0  0
  162.8250  206.1770  147.9100 C   0  0  0  0  0  3  0  0  0  0  0  0
  160.7840  208.1250  151.4060 C   0  0  0  0  0  0  0  0  0  0  0  0
  162.3610  204.9400  147.5900 N   0  0  0  0  0  0  0  0  0  0  0  0
  160.5970  205.1500  149.1720 C   0  0  0  0  0  3  0  0  0  0  0  0
  162.6320  208.2160  148.9690 C   0  0  0  0  0  3  0  0  0  0  0  0
  160.7710  210.6700  151.1570 C   0  0  0  0  0  3  0  0  0  0  0  0
  160.8150  208.9750  153.7460 C   0  0  0  0  0  0  0  0  0  0  0  0
  161.2810  209.3540  150.7720 C   0  0  0  0  0  0  0  0  0  0  0  0
  160.4440  211.0880  152.3800 C   0  0  0  0  0  0  0  0  0  0  0  0
  161.0600  206.4140  149.5530 C   0  0  0  0  0  0  0  0  0  0  0  0
  162.1810  206.9630  148.8740 C   0  0  0  0  0  0  0  0  0  0  0  0
  160.7080  210.3000  153.5930 C   0  0  0  0  0  3  0  0  0  0  0  0
  162.0950  209.3550  149.7240 C   0  0  0  0  0  3  0  0  0  0  0  0
  161.2560  204.4250  148.1820 C   0  0  0  0  0  3  0  0  0  0  0  0
  160.4360  207.2150  155.5290 C   0  0  0  0  0  2  0  0  0  0  0  0
  161.8750  209.0770  156.0350 C   0  0  0  0  0  3  0  0  0  0  0  0
  161.0360  208.4560  155.0700 N   0  0  0  0  0  0  0  0  0  0  0  0
  160.9620  206.9530  157.2610 S   0  0  0  0  0  0  0  0  0  0  0  0
  161.9480  208.4430  157.1860 C   0  0  0  0  0  3  0  0  0  0  0  0
  160.2550  213.3720  151.6240 O   0  0  0  0  0  1  0  0  0  0  0  0
  159.9470  212.4250  152.5460 N   0  0  0  0  0  0  0  0  0  0  0  0
  159.2820  212.8450  153.7740 C   0  0  0  0  0  2  0  0  0  0  0  0
  157.3470  211.7620  155.0570 N   0  0  0  0  0  0  0  0  0  0  0  0
  157.0510  214.4110  152.4760 O   0  0  0  0  0  1  0  0  0  0  0  0
  156.8790  213.4610  153.4750 C   0  0  0  0  0  0  0  0  0  0  0  0
  157.8260  212.3660  153.7840 C   0  0  1  0  0  3  0  0  0  0  0  0
  158.1440  212.2110  156.2080 C   0  0  0  0  0  1  0  0  0  0  0  0
  155.9430  212.2330  155.1720 C   0  0  2  0  0  3  0  0  0  0  0  0
  154.7400  214.2470  154.1800 O   0  0  0  0  0  1  0  0  0  0  0  0
  155.8280  213.3850  154.2480 C   0  0  0  0  0  0  0  0  0  0  0  0
  155.5850  212.6040  156.4770 O   0  0  0  0  0  1  0  0  0  0  0  0
  1  9  1  0  0  0  0
  2  4  1  0  0  0  0
  3 13  1  0  0  0  0
  4  1  2  0  0  0  0
  5  3  2  0  0  0  0
  5 16  1  0  0  0  0
  6 12  1  0  0  0  0
  7 15  1  0  0  0  0
  8 11  2  0  0  0  0
  9 19  1  0  0  0  0
 10  8  1  0  0  0  0
 10  4  1  0  0  0  0
 11 23  1  0  0  0  0
 11 14  1  0  0  0  0
 12  2  2  0  0  0  0
 13  7  2  0  0  0  0
 13 12  1  0  0  0  0
 14  9  2  0  0  0  0
 15 10  2  0  0  0  0
 16  6  2  0  0  0  0
 17 20  1  0  0  0  0
 18 21  2  0  0  0  0
 19 17  1  0  0  0  0
 19 18  1  0  0  0  0
 21 20  1  0  0  0  0
 22 23  1  0  0  0  0
 23 24  1  0  0  0  0
 25 30  1  0  0  0  0
 25 29  1  0  0  0  0
 26 27  1  0  0  0  0
 27 28  1  0  0  0  0
 27 32  2  0  0  0  0
 28 24  1  1  0  0  0
 28 25  1  0  0  0  0
 30 33  1  1  0  0  0
 31 32  1  0  0  0  0
 32 30  1  0  0  0  0
M  END
>  <MODEL>
7

>  <REMARK>
 VINA RESULT:      -5.5      4.124      8.999
  Name = 
  4 active torsions:
  status: ('A' for Active; 'I' for Inactive)
    1  A    between atoms: N_13  and  C_19
    2  A    between atoms: N_14  and  C_23
    3  A    between atoms: N_14  and  C_25
    4  A    between atoms: C_15  and  C_23
                            x       y       z     vdW  Elec       q    Type
                         _______ _______ _______ _____ _____    ______ ____

>  <TORSDO>
F 4

$$$$
=
 OpenBabel11042422353D

 33 37  0  0  1  0  0  0  0  0999 V2000
  161.1560  209.2280  147.9740 N   0  0  0  0  0  0  0  0  0  0  0  0
  160.6620  211.3050  147.0300 C   0  0  0  0  0  3  0  0  0  0  0  0
  162.6220  214.1090  145.6730 C   0  0  0  0  0  3  0  0  0  0  0  0
  161.3560  210.5090  148.0450 C   0  0  0  0  0  0  0  0  0  0  0  0
  161.7840  214.4530  144.6600 N   0  0  0  0  0  0  0  0  0  0  0  0
  160.2010  212.8240  145.3640 C   0  0  0  0  0  3  0  0  0  0  0  0
  163.1030  212.9860  147.6290 C   0  0  0  0  0  3  0  0  0  0  0  0
  162.1520  210.6850  150.4690 C   0  0  0  0  0  3  0  0  0  0  0  0
  161.6880  208.1470  148.7580 C   0  0  0  0  0  0  0  0  0  0  0  0
  162.2110  211.1190  149.0740 C   0  0  0  0  0  0  0  0  0  0  0  0
  161.9910  209.4420  150.9260 C   0  0  0  0  0  0  0  0  0  0  0  0
  161.0470  212.4170  146.4010 C   0  0  0  0  0  0  0  0  0  0  0  0
  162.2760  213.1070  146.5890 C   0  0  0  0  0  0  0  0  0  0  0  0
  162.0070  208.2590  150.0530 C   0  0  0  0  0  3  0  0  0  0  0  0
  162.9680  212.1860  148.8520 C   0  0  0  0  0  3  0  0  0  0  0  0
  160.5810  213.8490  144.5020 C   0  0  0  0  0  3  0  0  0  0  0  0
  161.2650  205.6500  148.8200 C   0  0  0  0  0  2  0  0  0  0  0  0
  162.2530  206.6030  146.8430 C   0  0  0  0  0  3  0  0  0  0  0  0
  161.7500  206.8450  148.1500 N   0  0  0  0  0  0  0  0  0  0  0  0
  161.5600  204.2320  147.7030 S   0  0  0  0  0  0  0  0  0  0  0  0
  162.2210  205.3420  146.4680 C   0  0  0  0  0  3  0  0  0  0  0  0
  161.5230  208.0310  152.8260 O   0  0  0  0  0  1  0  0  0  0  0  0
  161.9490  209.2260  152.3450 N   0  0  0  0  0  0  0  0  0  0  0  0
  162.1630  210.3150  153.2900 C   0  0  0  0  0  2  0  0  0  0  0  0
  161.1400  210.4150  155.6370 N   0  0  0  0  0  0  0  0  0  0  0  0
  160.0750  212.4130  152.6970 O   0  0  0  0  0  1  0  0  0  0  0  0
  160.2840  211.8290  153.9410 C   0  0  0  0  0  0  0  0  0  0  0  0
  160.9220  210.5120  154.1690 C   0  0  1  0  0  3  0  0  0  0  0  0
  162.5390  210.6860  156.0000 C   0  0  0  0  0  1  0  0  0  0  0  0
  160.2390  211.4520  156.2030 C   0  0  2  0  0  3  0  0  0  0  0  0
  159.2360  213.5650  155.1960 O   0  0  0  0  0  1  0  0  0  0  0  0
  159.9010  212.3510  155.0760 C   0  0  0  0  0  0  0  0  0  0  0  0
  160.8140  212.1720  157.2610 O   0  0  0  0  0  1  0  0  0  0  0  0
  1  4  2  0  0  0  0
  1  9  1  0  0  0  0
  2  4  1  0  0  0  0
  3 13  1  0  0  0  0
  4 10  1  0  0  0  0
  5  3  2  0  0  0  0
  6 12  1  0  0  0  0
  7 15  1  0  0  0  0
  8 11  2  0  0  0  0
  9 14  2  0  0  0  0
 10  8  1  0  0  0  0
 11 23  1  0  0  0  0
 12 13  1  0  0  0  0
 12  2  2  0  0  0  0
 13  7  2  0  0  0  0
 14 11  1  0  0  0  0
 15 10  2  0  0  0  0
 16  5  1  0  0  0  0
 16  6  2  0  0  0  0
 18 19  1  0  0  0  0
 19  9  1  0  0  0  0
 19 17  1  0  0  0  0
 20 17  1  0  0  0  0
 21 18  2  0  0  0  0
 21 20  1  0  0  0  0
 23 22  1  0  0  0  0
 23 24  1  0  0  0  0
 25 29  1  0  0  0  0
 25 30  1  0  0  0  0
 26 27  1  0  0  0  0
 27 28  1  0  0  0  0
 27 32  2  0  0  0  0
 28 24  1  6  0  0  0
 28 25  1  0  0  0  0
 30 33  1  1  0  0  0
 32 31  1  0  0  0  0
 32 30  1  0  0  0  0
M  END
>  <MODEL>
8

>  <REMARK>
 VINA RESULT:      -4.8      3.381      8.059
  Name = 
  4 active torsions:
  status: ('A' for Active; 'I' for Inactive)
    1  A    between atoms: N_13  and  C_19
    2  A    between atoms: N_14  and  C_23
    3  A    between atoms: N_14  and  C_25
    4  A    between atoms: C_15  and  C_23
                            x       y       z     vdW  Elec       q    Type
                         _______ _______ _______ _____ _____    ______ ____

>  <TORSDO>
F 4

$$$$
=
 OpenBabel11042422353D

 33 37  0  0  1  0  0  0  0  0999 V2000
  160.9990  208.0000  151.1310 N   0  0  0  0  0  0  0  0  0  0  0  0
  160.4540  206.1690  149.7890 C   0  0  0  0  0  3  0  0  0  0  0  0
  162.3440  203.6320  147.9090 C   0  0  0  0  0  3  0  0  0  0  0  0
  161.1530  207.4440  149.9680 C   0  0  0  0  0  0  0  0  0  0  0  0
  161.5180  202.5770  148.1310 N   0  0  0  0  0  0  0  0  0  0  0  0
  159.9770  203.9760  149.2830 C   0  0  0  0  0  3  0  0  0  0  0  0
  162.8210  205.8880  147.9280 C   0  0  0  0  0  3  0  0  0  0  0  0
  161.8880  209.4840  148.6120 C   0  0  0  0  0  3  0  0  0  0  0  0
  161.5510  209.2100  151.6770 C   0  0  0  0  0  0  0  0  0  0  0  0
  161.9630  208.0520  148.9020 C   0  0  0  0  0  0  0  0  0  0  0  0
  161.7610  210.4840  149.4850 C   0  0  0  0  0  0  0  0  0  0  0  0
  160.8140  205.0820  149.1040 C   0  0  0  0  0  0  0  0  0  0  0  0
  162.0130  204.9170  148.3580 C   0  0  0  0  0  0  0  0  0  0  0  0
  161.8370  210.2900  150.9420 C   0  0  0  0  0  3  0  0  0  0  0  0
  162.6870  207.3460  148.0440 C   0  0  0  0  0  3  0  0  0  0  0  0
  160.3400  202.7270  148.7850 C   0  0  0  0  0  3  0  0  0  0  0  0
  161.2740  208.2270  153.9960 C   0  0  0  0  0  2  0  0  0  0  0  0
  162.2150  210.4320  153.7830 C   0  0  0  0  0  3  0  0  0  0  0  0
  161.6730  209.3060  153.1070 N   0  0  0  0  0  0  0  0  0  0  0  0
  161.5770  208.7830  155.7110 S   0  0  0  0  0  0  0  0  0  0  0  0
  162.2420  210.3230  155.0940 C   0  0  0  0  0  3  0  0  0  0  0  0
  161.0380  212.7750  149.7130 O   0  0  0  0  0  1  0  0  0  0  0  0
  161.6940  211.8310  148.9930 N   0  0  0  0  0  0  0  0  0  0  0  0
  162.1410  212.1750  147.6480 C   0  0  0  0  0  2  0  0  0  0  0  0
  161.9320  214.1360  146.0130 N   0  0  0  0  0  0  0  0  0  0  0  0
  159.1870  211.8860  147.0930 O   0  0  0  0  0  1  0  0  0  0  0  0
  160.0170  212.8360  146.5100 C   0  0  0  0  0  0  0  0  0  0  0  0
  161.2940  213.3200  147.0800 C   0  0  1  0  0  3  0  0  0  0  0  0
  163.0030  213.3980  145.3280 C   0  0  0  0  0  1  0  0  0  0  0  0
  160.8190  214.4380  145.0770 C   0  0  2  0  0  3  0  0  0  0  0  0
  158.6050  213.2600  144.6340 O   0  0  0  0  0  1  0  0  0  0  0  0
  159.7510  213.4620  145.3940 C   0  0  0  0  0  0  0  0  0  0  0  0
  161.1880  214.3540  143.7260 O   0  0  0  0  0  1  0  0  0  0  0  0
  1  9  1  0  0  0  0
  2  4  1  0  0  0  0
  3  5  2  0  0  0  0
  3 13  1  0  0  0  0
  4  1  2  0  0  0  0
  5 16  1  0  0  0  0
  7 15  1  0  0  0  0
  7 13  2  0  0  0  0
  8 10  1  0  0  0  0
  8 11  2  0  0  0  0
  9 19  1  0  0  0  0
 10  4  1  0  0  0  0
 11 14  1  0  0  0  0
 12  6  1  0  0  0  0
 12  2  2  0  0  0  0
 13 12  1  0  0  0  0
 14  9  2  0  0  0  0
 15 10  2  0  0  0  0
 16  6  2  0  0  0  0
 17 20  1  0  0  0  0
 18 21  2  0  0  0  0
 19 18  1  0  0  0  0
 19 17  1  0  0  0  0
 21 20  1  0  0  0  0
 23 11  1  0  0  0  0
 23 22  1  0  0  0  0
 24 23  1  0  0  0  0
 25 28  1  0  0  0  0
 27 28  1  0  0  0  0
 27 26  1  0  0  0  0
 28 24  1  6  0  0  0
 29 25  1  0  0  0  0
 30 33  1  6  0  0  0
 30 32  1  0  0  0  0
 30 25  1  0  0  0  0
 31 32  1  0  0  0  0
 32 27  2  0  0  0  0
M  END
>  <MODEL>
9

>  <REMARK>
 VINA RESULT:      -4.7      4.253      8.498
  Name = 
  4 active torsions:
  status: ('A' for Active; 'I' for Inactive)
    1  A    between atoms: N_13  and  C_19
    2  A    between atoms: N_14  and  C_23
    3  A    between atoms: N_14  and  C_25
    4  A    between atoms: C_15  and  C_23
                            x       y       z     vdW  Elec       q    Type
                         _______ _______ _______ _____ _____    ______ ____

>  <TORSDO>
F 4

$$$$
