=
 OpenBabel11052410373D

 25 26  0  0  1  0  0  0  0  0999 V2000
  161.9190  207.1730  148.0210 C   0  0  0  0  0  2  0  0  0  0  0  0
  161.1800  206.4500  150.3850 C   0  0  2  0  0  3  0  0  0  0  0  0
  162.5350  206.1320  145.9810 O   0  0  0  0  0  1  0  0  0  0  0  0
  160.9010  204.3950  148.9210 C   0  0  1  0  0  3  0  0  0  0  0  0
  161.5970  204.9960  150.1290 C   0  0  0  0  0  2  0  0  0  0  0  0
  160.8770  207.3010  149.1370 C   0  0  0  0  0  2  0  0  0  0  0  0
  161.6120  206.0440  147.0260 C   0  0  1  0  0  0  0  0  0  0  0  0
  161.7250  204.6940  147.6940 C   0  0  0  0  0  0  0  0  0  0  0  0
  162.5320  203.8710  147.2830 O   0  0  0  0  0  0  0  0  0  0  0  0
  160.2190  206.2110  146.4370 C   0  0  0  0  0  1  0  0  0  0  0  0
  162.7540  208.3120  150.7960 N   0  0  0  0  0  1  0  0  0  0  0  0
  162.1440  207.1200  151.3690 C   0  0  1  0  0  3  0  0  0  0  0  0
  161.1510  208.7130  152.9930 N   0  0  0  0  0  0  0  0  0  0  0  0
  160.5340  209.0080  154.1670 C   0  0  0  0  0  3  0  0  0  0  0  0
  160.2360  208.0170  155.0480 N   0  0  0  0  0  0  0  0  0  0  0  0
  161.4870  207.4310  152.6780 C   0  0  0  0  0  0  0  0  0  0  0  0
  161.1790  206.4000  153.5730 C   0  0  0  0  0  0  0  0  0  0  0  0
  160.5460  206.7240  154.7710 C   0  0  0  0  0  3  0  0  0  0  0  0
  161.4840  205.1090  153.2910 F   0  0  0  0  0  0  0  0  0  0  0  0
  160.6790  202.9010  149.1330 C   0  0  0  0  0  2  0  0  0  0  0  0
  161.1170  200.9010  147.6430 C   0  0  0  0  0  0  0  0  0  0  0  0
  160.5910  202.2130  147.8520 N   0  0  0  0  0  2  0  0  0  0  0  0
  161.7130  200.2920  148.5710 O   0  0  0  0  0  0  0  0  0  0  0  0
  160.9260  200.2320  146.3290 C   0  0  0  0  0  2  0  0  0  0  0  0
  160.3180  201.1610  145.3930 N   0  0  0  0  0  1  0  0  0  0  0  0
  1  6  1  0  0  0  0
  2 12  1  6  0  0  0
  3  7  1  0  0  0  0
  4 20  1  1  0  0  0
  4  5  1  0  0  0  0
  5  2  1  0  0  0  0
  6  2  1  0  0  0  0
  7 10  1  6  0  0  0
  7  8  1  0  0  0  0
  7  1  1  0  0  0  0
  8  4  1  0  0  0  0
  9  8  2  0  0  0  0
 12 11  1  6  0  0  0
 12 16  1  0  0  0  0
 13 14  1  0  0  0  0
 14 15  2  0  0  0  0
 16 13  2  0  0  0  0
 16 17  1  0  0  0  0
 17 18  2  0  0  0  0
 18 15  1  0  0  0  0
 19 17  1  0  0  0  0
 21 22  1  0  0  0  0
 21 23  2  0  0  0  0
 22 20  1  0  0  0  0
 24 21  1  0  0  0  0
 25 24  1  0  0  0  0
M  END
>  <MODEL>
1

>  <REMARK>
 VINA RESULT:      -7.6      0.000      0.000
  Name = 
  5 active torsions:
  status: ('A' for Active; 'I' for Inactive)
    1  A    between atoms: C_3  and  C_14
    2  A    between atoms: C_4  and  C_13
    3  A    between atoms: C_7  and  C_15
    4  A    between atoms: C_12  and  C_14
    5  A    between atoms: C_15  and  N_17
                            x       y       z     vdW  Elec       q    Type
                         _______ _______ _______ _____ _____    ______ ____

>  <TORSDO>
F 5

$$$$
=
 OpenBabel11052410373D

 25 26  0  0  1  0  0  0  0  0999 V2000
  161.6530  207.5040  154.8800 C   0  0  0  0  0  2  0  0  0  0  0  0
  160.9460  207.5530  152.3980 C   0  0  2  0  0  3  0  0  0  0  0  0
  162.0120  209.0620  156.6320 O   0  0  0  0  0  1  0  0  0  0  0  0
  160.3090  209.8240  153.3370 C   0  0  1  0  0  3  0  0  0  0  0  0
  161.1440  209.0720  152.3160 C   0  0  0  0  0  2  0  0  0  0  0  0
  160.6990  206.9740  153.8050 C   0  0  0  0  0  2  0  0  0  0  0  0
  161.1420  208.7730  155.5780 C   0  0  1  0  0  0  0  0  0  0  0  0
  161.1010  209.9370  154.6160 C   0  0  0  0  0  0  0  0  0  0  0  0
  161.7640  210.9410  154.8390 O   0  0  0  0  0  0  0  0  0  0  0  0
  159.7560  208.5420  156.1630 C   0  0  0  0  0  1  0  0  0  0  0  0
  162.2470  205.4700  152.1090 N   0  0  0  0  0  1  0  0  0  0  0  0
  162.0450  206.8260  151.6170 C   0  0  1  0  0  3  0  0  0  0  0  0
  162.5230  207.6090  149.3100 N   0  0  0  0  0  0  0  0  0  0  0  0
  162.3100  207.6040  147.9680 C   0  0  0  0  0  3  0  0  0  0  0  0
  161.3480  206.8070  147.4340 N   0  0  0  0  0  0  0  0  0  0  0  0
  161.7810  206.8270  150.1420 C   0  0  0  0  0  0  0  0  0  0  0  0
  160.7920  205.9960  149.6040 C   0  0  0  0  0  0  0  0  0  0  0  0
  160.5890  206.0050  148.2260 C   0  0  0  0  0  3  0  0  0  0  0  0
  160.0400  205.1920  150.3970 F   0  0  0  0  0  0  0  0  0  0  0  0
  159.8930  211.1810  152.7790 C   0  0  0  0  0  2  0  0  0  0  0  0
  158.0410  212.1990  154.1740 C   0  0  0  0  0  0  0  0  0  0  0  0
  158.4850  211.4340  153.0510 N   0  0  0  0  0  2  0  0  0  0  0  0
  158.8690  212.6670  155.0010 O   0  0  0  0  0  0  0  0  0  0  0  0
  156.5910  212.4770  154.3470 C   0  0  0  0  0  2  0  0  0  0  0  0
  155.9250  211.2960  154.8660 N   0  0  0  0  0  1  0  0  0  0  0  0
  1  7  1  0  0  0  0
  2 12  1  1  0  0  0
  2  6  1  0  0  0  0
  4 20  1  6  0  0  0
  4  8  1  0  0  0  0
  5  2  1  0  0  0  0
  5  4  1  0  0  0  0
  6  1  1  0  0  0  0
  7 10  1  1  0  0  0
  7  3  1  0  0  0  0
  8  9  2  0  0  0  0
  8  7  1  0  0  0  0
 12 11  1  1  0  0  0
 13 16  1  0  0  0  0
 14 13  2  0  0  0  0
 15 14  1  0  0  0  0
 15 18  2  0  0  0  0
 16 12  1  0  0  0  0
 17 16  2  0  0  0  0
 17 19  1  0  0  0  0
 18 17  1  0  0  0  0
 20 22  1  0  0  0  0
 21 24  1  0  0  0  0
 21 23  2  0  0  0  0
 22 21  1  0  0  0  0
 24 25  1  0  0  0  0
M  END
>  <MODEL>
2

>  <REMARK>
 VINA RESULT:      -7.4      4.687      8.640
  Name = 
  5 active torsions:
  status: ('A' for Active; 'I' for Inactive)
    1  A    between atoms: C_3  and  C_14
    2  A    between atoms: C_4  and  C_13
    3  A    between atoms: C_7  and  C_15
    4  A    between atoms: C_12  and  C_14
    5  A    between atoms: C_15  and  N_17
                            x       y       z     vdW  Elec       q    Type
                         _______ _______ _______ _____ _____    ______ ____

>  <TORSDO>
F 5

$$$$
=
 OpenBabel11052410373D

 25 26  0  0  1  0  0  0  0  0999 V2000
  161.5680  204.5550  149.7010 C   0  0  0  0  0  2  0  0  0  0  0  0
  160.7810  206.9240  149.0480 C   0  0  2  0  0  3  0  0  0  0  0  0
  162.4330  203.4610  151.6190 O   0  0  0  0  0  1  0  0  0  0  0  0
  160.8490  206.8990  151.5860 C   0  0  1  0  0  3  0  0  0  0  0  0
  161.3900  207.5340  150.3170 C   0  0  0  0  0  2  0  0  0  0  0  0
  160.4520  205.4200  149.1060 C   0  0  0  0  0  2  0  0  0  0  0  0
  161.4660  204.3890  151.2240 C   0  0  1  0  0  0  0  0  0  0  0  0
  161.7030  205.7040  151.9260 C   0  0  0  0  0  0  0  0  0  0  0  0
  162.6300  205.8190  152.7170 O   0  0  0  0  0  0  0  0  0  0  0  0
  160.1020  203.8370  151.6130 C   0  0  0  0  0  1  0  0  0  0  0  0
  162.8660  207.9340  148.1830 N   0  0  0  0  0  1  0  0  0  0  0  0
  161.5930  207.3300  147.8140 C   0  0  1  0  0  3  0  0  0  0  0  0
  162.9510  205.4600  146.9080 N   0  0  0  0  0  0  0  0  0  0  0  0
  163.1420  204.4030  146.0750 C   0  0  0  0  0  3  0  0  0  0  0  0
  162.1710  204.0480  145.1930 N   0  0  0  0  0  0  0  0  0  0  0  0
  161.7970  206.1830  146.8720 C   0  0  0  0  0  0  0  0  0  0  0  0
  160.7870  205.8230  145.9740 C   0  0  0  0  0  0  0  0  0  0  0  0
  161.0030  204.7360  145.1290 C   0  0  0  0  0  3  0  0  0  0  0  0
  159.6190  206.5090  145.9160 F   0  0  0  0  0  0  0  0  0  0  0  0
  160.8010  207.9290  152.7090 C   0  0  0  0  0  2  0  0  0  0  0  0
  160.2100  210.3760  152.9860 C   0  0  0  0  0  0  0  0  0  0  0  0
  160.5770  209.2630  152.1680 N   0  0  0  0  0  2  0  0  0  0  0  0
  160.0360  210.2340  154.2250 O   0  0  0  0  0  0  0  0  0  0  0  0
  160.0700  211.7240  152.3730 C   0  0  0  0  0  2  0  0  0  0  0  0
  158.6640  212.0760  152.2860 N   0  0  0  0  0  1  0  0  0  0  0  0
  1  7  1  0  0  0  0
  2 12  1  6  0  0  0
  2  6  1  0  0  0  0
  2  5  1  0  0  0  0
  4  8  1  0  0  0  0
  4 20  1  1  0  0  0
  5  4  1  0  0  0  0
  6  1  1  0  0  0  0
  7 10  1  1  0  0  0
  7  3  1  0  0  0  0
  7  8  1  0  0  0  0
  8  9  2  0  0  0  0
 12 11  1  1  0  0  0
 14 13  2  0  0  0  0
 15 14  1  0  0  0  0
 16 13  1  0  0  0  0
 16 12  1  0  0  0  0
 17 16  2  0  0  0  0
 18 15  2  0  0  0  0
 18 17  1  0  0  0  0
 19 17  1  0  0  0  0
 21 23  2  0  0  0  0
 22 20  1  0  0  0  0
 22 21  1  0  0  0  0
 24 21  1  0  0  0  0
 25 24  1  0  0  0  0
M  END
>  <MODEL>
3

>  <REMARK>
 VINA RESULT:      -7.1      3.453      7.507
  Name = 
  5 active torsions:
  status: ('A' for Active; 'I' for Inactive)
    1  A    between atoms: C_3  and  C_14
    2  A    between atoms: C_4  and  C_13
    3  A    between atoms: C_7  and  C_15
    4  A    between atoms: C_12  and  C_14
    5  A    between atoms: C_15  and  N_17
                            x       y       z     vdW  Elec       q    Type
                         _______ _______ _______ _____ _____    ______ ____

>  <TORSDO>
F 5

$$$$
=
 OpenBabel11052410373D

 25 26  0  0  1  0  0  0  0  0999 V2000
  161.6090  207.1140  154.7680 C   0  0  0  0  0  2  0  0  0  0  0  0
  161.0960  207.8300  152.3420 C   0  0  2  0  0  3  0  0  0  0  0  0
  161.9220  208.1570  156.8750 O   0  0  0  0  0  1  0  0  0  0  0  0
  160.5210  209.8370  153.7850 C   0  0  1  0  0  3  0  0  0  0  0  0
  161.3870  209.3020  152.6580 C   0  0  0  0  0  2  0  0  0  0  0  0
  160.7100  206.9400  153.5390 C   0  0  0  0  0  2  0  0  0  0  0  0
  161.1190  208.2040  155.7320 C   0  0  1  0  0  0  0  0  0  0  0  0
  161.2190  209.5700  155.0950 C   0  0  0  0  0  0  0  0  0  0  0  0
  161.9200  210.4350  155.6040 O   0  0  0  0  0  0  0  0  0  0  0  0
  159.6830  207.9390  156.1580 C   0  0  0  0  0  1  0  0  0  0  0  0
  162.7080  205.9840  152.0110 N   0  0  0  0  0  1  0  0  0  0  0  0
  162.2070  207.2390  151.4680 C   0  0  1  0  0  3  0  0  0  0  0  0
  162.3200  207.8430  149.0630 N   0  0  0  0  0  0  0  0  0  0  0  0
  161.9530  207.6890  147.7640 C   0  0  0  0  0  3  0  0  0  0  0  0
  161.0320  206.7490  147.4240 N   0  0  0  0  0  0  0  0  0  0  0  0
  161.7740  207.0720  150.0440 C   0  0  0  0  0  0  0  0  0  0  0  0
  160.8290  206.0970  149.7060 C   0  0  0  0  0  0  0  0  0  0  0  0
  160.4670  205.9540  148.3680 C   0  0  0  0  0  3  0  0  0  0  0  0
  160.2710  205.3000  150.6510 F   0  0  0  0  0  0  0  0  0  0  0  0
  160.2280  211.3180  153.5650 C   0  0  0  0  0  2  0  0  0  0  0  0
  159.8060  212.8280  151.5760 C   0  0  0  0  0  0  0  0  0  0  0  0
  160.3990  211.6670  152.1610 N   0  0  0  0  0  2  0  0  0  0  0  0
  159.0750  213.5910  152.2630 O   0  0  0  0  0  0  0  0  0  0  0  0
  160.0850  213.1600  150.1540 C   0  0  0  0  0  2  0  0  0  0  0  0
  158.9330  213.8250  149.5730 N   0  0  0  0  0  1  0  0  0  0  0  0
  1  7  1  0  0  0  0
  2 12  1  1  0  0  0
  2  5  1  0  0  0  0
  2  6  1  0  0  0  0
  4 20  1  6  0  0  0
  4  8  1  0  0  0  0
  5  4  1  0  0  0  0
  6  1  1  0  0  0  0
  7 10  1  1  0  0  0
  7  3  1  0  0  0  0
  8  9  2  0  0  0  0
  8  7  1  0  0  0  0
 12 11  1  1  0  0  0
 13 16  1  0  0  0  0
 14 13  2  0  0  0  0
 15 14  1  0  0  0  0
 15 18  2  0  0  0  0
 16 12  1  0  0  0  0
 17 16  2  0  0  0  0
 17 19  1  0  0  0  0
 18 17  1  0  0  0  0
 21 22  1  0  0  0  0
 21 23  2  0  0  0  0
 22 20  1  0  0  0  0
 24 21  1  0  0  0  0
 25 24  1  0  0  0  0
M  END
>  <MODEL>
4

>  <REMARK>
 VINA RESULT:      -7.1      4.655      8.396
  Name = 
  5 active torsions:
  status: ('A' for Active; 'I' for Inactive)
    1  A    between atoms: C_3  and  C_14
    2  A    between atoms: C_4  and  C_13
    3  A    between atoms: C_7  and  C_15
    4  A    between atoms: C_12  and  C_14
    5  A    between atoms: C_15  and  N_17
                            x       y       z     vdW  Elec       q    Type
                         _______ _______ _______ _____ _____    ______ ____

>  <TORSDO>
F 5

$$$$
=
 OpenBabel11052410373D

 25 26  0  0  1  0  0  0  0  0999 V2000
  161.5970  207.3520  154.6210 C   0  0  0  0  0  2  0  0  0  0  0  0
  161.0740  207.9360  152.1630 C   0  0  2  0  0  3  0  0  0  0  0  0
  161.8890  208.5040  156.6740 O   0  0  0  0  0  1  0  0  0  0  0  0
  160.4600  210.0020  153.5040 C   0  0  1  0  0  3  0  0  0  0  0  0
  161.3360  209.4280  152.4050 C   0  0  0  0  0  2  0  0  0  0  0  0
  160.7030  207.1000  153.4030 C   0  0  0  0  0  2  0  0  0  0  0  0
  161.0870  208.4800  155.5300 C   0  0  1  0  0  0  0  0  0  0  0  0
  161.1610  209.8140  154.8260 C   0  0  0  0  0  0  0  0  0  0  0  0
  161.8450  210.7150  155.2910 O   0  0  0  0  0  0  0  0  0  0  0  0
  159.6550  208.2080  155.9680 C   0  0  0  0  0  1  0  0  0  0  0  0
  162.8300  206.2040  152.0000 N   0  0  0  0  0  1  0  0  0  0  0  0
  162.1960  207.3240  151.3190 C   0  0  1  0  0  3  0  0  0  0  0  0
  161.2370  205.6690  149.7360 N   0  0  0  0  0  0  0  0  0  0  0  0
  160.7820  205.2980  148.5110 C   0  0  0  0  0  3  0  0  0  0  0  0
  160.7990  206.1840  147.4810 N   0  0  0  0  0  0  0  0  0  0  0  0
  161.7210  206.9230  149.9560 C   0  0  0  0  0  0  0  0  0  0  0  0
  161.7380  207.8470  148.9060 C   0  0  0  0  0  0  0  0  0  0  0  0
  161.2660  207.4470  147.6570 C   0  0  0  0  0  3  0  0  0  0  0  0
  162.2000  209.1100  149.0860 F   0  0  0  0  0  0  0  0  0  0  0  0
  160.1380  211.4640  153.2100 C   0  0  0  0  0  2  0  0  0  0  0  0
  159.9600  213.0030  151.2080 C   0  0  0  0  0  0  0  0  0  0  0  0
  160.3150  211.7490  151.7930 N   0  0  0  0  0  2  0  0  0  0  0  0
  159.4440  213.9160  151.9070 O   0  0  0  0  0  0  0  0  0  0  0  0
  160.2370  213.2470  149.7670 C   0  0  0  0  0  2  0  0  0  0  0  0
  161.3420  212.4110  149.3340 N   0  0  0  0  0  1  0  0  0  0  0  0
  1  7  1  0  0  0  0
  2 12  1  1  0  0  0
  2  5  1  0  0  0  0
  2  6  1  0  0  0  0
  4 20  1  6  0  0  0
  4  8  1  0  0  0  0
  5  4  1  0  0  0  0
  6  1  1  0  0  0  0
  7 10  1  1  0  0  0
  7  3  1  0  0  0  0
  8  9  2  0  0  0  0
  8  7  1  0  0  0  0
 12 11  1  1  0  0  0
 13 16  1  0  0  0  0
 14 13  2  0  0  0  0
 15 18  2  0  0  0  0
 15 14  1  0  0  0  0
 16 12  1  0  0  0  0
 17 19  1  0  0  0  0
 17 16  2  0  0  0  0
 18 17  1  0  0  0  0
 21 22  1  0  0  0  0
 21 23  2  0  0  0  0
 22 20  1  0  0  0  0
 24 21  1  0  0  0  0
 25 24  1  0  0  0  0
M  END
>  <MODEL>
5

>  <REMARK>
 VINA RESULT:      -7.0      4.649      8.395
  Name = 
  5 active torsions:
  status: ('A' for Active; 'I' for Inactive)
    1  A    between atoms: C_3  and  C_14
    2  A    between atoms: C_4  and  C_13
    3  A    between atoms: C_7  and  C_15
    4  A    between atoms: C_12  and  C_14
    5  A    between atoms: C_15  and  N_17
                            x       y       z     vdW  Elec       q    Type
                         _______ _______ _______ _____ _____    ______ ____

>  <TORSDO>
F 5

$$$$
=
 OpenBabel11052410373D

 25 26  0  0  1  0  0  0  0  0999 V2000
  161.4970  204.5430  149.6940 C   0  0  0  0  0  2  0  0  0  0  0  0
  160.8700  206.9320  148.9480 C   0  0  2  0  0  3  0  0  0  0  0  0
  162.3640  203.4810  151.6310 O   0  0  0  0  0  1  0  0  0  0  0  0
  161.0580  207.0310  151.4780 C   0  0  1  0  0  3  0  0  0  0  0  0
  161.5860  207.5540  150.1530 C   0  0  0  0  0  2  0  0  0  0  0  0
  160.4260  205.4650  149.1030 C   0  0  0  0  0  2  0  0  0  0  0  0
  161.4550  204.4630  151.2280 C   0  0  1  0  0  0  0  0  0  0  0  0
  161.8300  205.7900  151.8460 C   0  0  0  0  0  0  0  0  0  0  0  0
  162.8000  205.8680  152.5870 O   0  0  0  0  0  0  0  0  0  0  0  0
  160.0720  204.0460  151.7050 C   0  0  0  0  0  1  0  0  0  0  0  0
  163.0800  207.3290  147.9120 N   0  0  0  0  0  1  0  0  0  0  0  0
  161.6520  207.2070  147.6590 C   0  0  1  0  0  3  0  0  0  0  0  0
  160.2430  206.2380  145.8580 N   0  0  0  0  0  0  0  0  0  0  0  0
  159.9930  205.3230  144.8860 C   0  0  0  0  0  3  0  0  0  0  0  0
  160.8860  204.3300  144.6400 N   0  0  0  0  0  0  0  0  0  0  0  0
  161.3800  206.1760  146.6060 C   0  0  0  0  0  0  0  0  0  0  0  0
  162.3110  205.1620  146.3580 C   0  0  0  0  0  0  0  0  0  0  0  0
  162.0360  204.2340  145.3560 C   0  0  0  0  0  3  0  0  0  0  0  0
  163.4610  205.0720  147.0720 F   0  0  0  0  0  0  0  0  0  0  0  0
  161.1460  208.1180  152.5440 C   0  0  0  0  0  2  0  0  0  0  0  0
  161.0150  208.2910  155.0670 C   0  0  0  0  0  0  0  0  0  0  0  0
  160.7820  207.5820  153.8480 N   0  0  0  0  0  2  0  0  0  0  0  0
  161.5810  209.4170  155.0570 O   0  0  0  0  0  0  0  0  0  0  0  0
  160.5490  207.7130  156.3550 C   0  0  0  0  0  2  0  0  0  0  0  0
  159.3310  206.9530  156.1380 N   0  0  0  0  0  1  0  0  0  0  0  0
  1  7  1  0  0  0  0
  2 12  1  6  0  0  0
  2  6  1  0  0  0  0
  2  5  1  0  0  0  0
  4  8  1  0  0  0  0
  4 20  1  1  0  0  0
  5  4  1  0  0  0  0
  6  1  1  0  0  0  0
  7  3  1  0  0  0  0
  7 10  1  1  0  0  0
  7  8  1  0  0  0  0
  8  9  2  0  0  0  0
 12 11  1  1  0  0  0
 13 16  1  0  0  0  0
 14 13  2  0  0  0  0
 15 14  1  0  0  0  0
 15 18  2  0  0  0  0
 16 12  1  0  0  0  0
 17 16  2  0  0  0  0
 17 19  1  0  0  0  0
 18 17  1  0  0  0  0
 20 22  1  0  0  0  0
 21 24  1  0  0  0  0
 22 21  1  0  0  0  0
 23 21  2  0  0  0  0
 25 24  1  0  0  0  0
M  END
>  <MODEL>
6

>  <REMARK>
 VINA RESULT:      -6.7      3.240      7.377
  Name = 
  5 active torsions:
  status: ('A' for Active; 'I' for Inactive)
    1  A    between atoms: C_3  and  C_14
    2  A    between atoms: C_4  and  C_13
    3  A    between atoms: C_7  and  C_15
    4  A    between atoms: C_12  and  C_14
    5  A    between atoms: C_15  and  N_17
                            x       y       z     vdW  Elec       q    Type
                         _______ _______ _______ _____ _____    ______ ____

>  <TORSDO>
F 5

$$$$
=
 OpenBabel11052410373D

 25 26  0  0  1  0  0  0  0  0999 V2000
  161.3180  207.2730  151.6730 C   0  0  0  0  0  2  0  0  0  0  0  0
  161.2070  207.3720  149.0970 C   0  0  2  0  0  3  0  0  0  0  0  0
  162.1440  208.6150  153.4460 O   0  0  0  0  0  1  0  0  0  0  0  0
  161.7470  209.7350  149.8510 C   0  0  1  0  0  3  0  0  0  0  0  0
  162.2070  208.5340  149.0450 C   0  0  0  0  0  2  0  0  0  0  0  0
  160.4390  207.1940  150.4210 C   0  0  0  0  0  2  0  0  0  0  0  0
  161.4610  208.6970  152.2290 C   0  0  1  0  0  0  0  0  0  0  0  0
  162.2300  209.5750  151.2700 C   0  0  0  0  0  0  0  0  0  0  0  0
  163.2790  210.0970  151.6240 O   0  0  0  0  0  0  0  0  0  0  0  0
  160.0930  209.3070  152.5000 C   0  0  0  0  0  1  0  0  0  0  0  0
  161.4260  204.9230  149.3490 N   0  0  0  0  0  1  0  0  0  0  0  0
  161.8550  206.0830  148.5810 C   0  0  1  0  0  3  0  0  0  0  0  0
  160.4530  206.3090  146.5450 N   0  0  0  0  0  0  0  0  0  0  0  0
  160.2270  206.1490  145.2150 C   0  0  0  0  0  3  0  0  0  0  0  0
  161.1650  205.5570  144.4310 N   0  0  0  0  0  0  0  0  0  0  0  0
  161.6110  205.8770  147.1170 C   0  0  0  0  0  0  0  0  0  0  0  0
  162.5880  205.2720  146.3200 C   0  0  0  0  0  0  0  0  0  0  0  0
  162.3370  205.1180  144.9580 C   0  0  0  0  0  3  0  0  0  0  0  0
  163.7600  204.8400  146.8490 F   0  0  0  0  0  0  0  0  0  0  0  0
  162.2410  211.0240  149.2020 C   0  0  0  0  0  2  0  0  0  0  0  0
  161.5530  212.5800  147.3260 C   0  0  0  0  0  0  0  0  0  0  0  0
  161.4480  211.3350  148.0210 N   0  0  0  0  0  2  0  0  0  0  0  0
  162.3310  213.4820  147.7380 O   0  0  0  0  0  0  0  0  0  0  0  0
  160.7650  212.7980  146.0850 C   0  0  0  0  0  2  0  0  0  0  0  0
  159.3680  212.4870  146.3310 N   0  0  0  0  0  1  0  0  0  0  0  0
  1  7  1  0  0  0  0
  2 12  1  1  0  0  0
  2  6  1  0  0  0  0
  4 20  1  6  0  0  0
  4  8  1  0  0  0  0
  5  2  1  0  0  0  0
  5  4  1  0  0  0  0
  6  1  1  0  0  0  0
  7 10  1  1  0  0  0
  7  3  1  0  0  0  0
  8  9  2  0  0  0  0
  8  7  1  0  0  0  0
 12 11  1  1  0  0  0
 13 16  1  0  0  0  0
 14 13  2  0  0  0  0
 15 18  2  0  0  0  0
 15 14  1  0  0  0  0
 16 12  1  0  0  0  0
 17 19  1  0  0  0  0
 17 16  2  0  0  0  0
 18 17  1  0  0  0  0
 21 23  2  0  0  0  0
 21 22  1  0  0  0  0
 22 20  1  0  0  0  0
 24 25  1  0  0  0  0
 24 21  1  0  0  0  0
M  END
>  <MODEL>
7

>  <REMARK>
 VINA RESULT:      -6.4      4.289      7.925
  Name = 
  5 active torsions:
  status: ('A' for Active; 'I' for Inactive)
    1  A    between atoms: C_3  and  C_14
    2  A    between atoms: C_4  and  C_13
    3  A    between atoms: C_7  and  C_15
    4  A    between atoms: C_12  and  C_14
    5  A    between atoms: C_15  and  N_17
                            x       y       z     vdW  Elec       q    Type
                         _______ _______ _______ _____ _____    ______ ____

>  <TORSDO>
F 5

$$$$
=
 OpenBabel11052410373D

 25 26  0  0  1  0  0  0  0  0999 V2000
  161.7290  204.2940  151.6530 C   0  0  0  0  0  2  0  0  0  0  0  0
  160.5680  203.4610  149.5040 C   0  0  2  0  0  3  0  0  0  0  0  0
  162.9420  206.2050  152.3620 O   0  0  0  0  0  1  0  0  0  0  0  0
  160.9260  205.9520  149.1680 C   0  0  1  0  0  3  0  0  0  0  0  0
  161.2310  204.5550  148.6570 C   0  0  0  0  0  2  0  0  0  0  0  0
  160.4490  203.7470  151.0130 C   0  0  0  0  0  2  0  0  0  0  0  0
  161.8230  205.8270  151.6170 C   0  0  1  0  0  0  0  0  0  0  0  0
  161.9630  206.3240  150.1970 C   0  0  0  0  0  0  0  0  0  0  0  0
  162.9500  206.9670  149.8680 O   0  0  0  0  0  0  0  0  0  0  0  0
  160.5960  206.4540  152.2630 C   0  0  0  0  0  1  0  0  0  0  0  0
  160.7250  201.0720  150.1190 N   0  0  0  0  0  1  0  0  0  0  0  0
  161.1740  202.0920  149.1820 C   0  0  1  0  0  3  0  0  0  0  0  0
  160.3950  202.5670  146.8730 N   0  0  0  0  0  0  0  0  0  0  0  0
  160.1670  202.2110  145.5820 C   0  0  0  0  0  3  0  0  0  0  0  0
  160.4550  200.9510  145.1620 N   0  0  0  0  0  0  0  0  0  0  0  0
  160.9060  201.6760  147.7680 C   0  0  0  0  0  0  0  0  0  0  0  0
  161.2130  200.3780  147.3460 C   0  0  0  0  0  0  0  0  0  0  0  0
  160.9720  200.0330  146.0180 C   0  0  0  0  0  3  0  0  0  0  0  0
  161.7360  199.4650  148.2030 F   0  0  0  0  0  0  0  0  0  0  0  0
  160.8700  206.9360  148.0050 C   0  0  0  0  0  2  0  0  0  0  0  0
  160.8080  206.0420  145.6360 C   0  0  0  0  0  0  0  0  0  0  0  0
  161.5210  206.3730  146.8300 N   0  0  0  0  0  2  0  0  0  0  0  0
  159.5600  206.2020  145.5680 O   0  0  0  0  0  0  0  0  0  0  0  0
  161.5520  205.5390  144.4510 C   0  0  0  0  0  2  0  0  0  0  0  0
  162.6960  204.7590  144.8870 N   0  0  0  0  0  1  0  0  0  0  0  0
  2 12  1  1  0  0  0
  2  6  1  0  0  0  0
  4 20  1  6  0  0  0
  4  8  1  0  0  0  0
  5  4  1  0  0  0  0
  5  2  1  0  0  0  0
  6  1  1  0  0  0  0
  7  1  1  0  0  0  0
  7 10  1  1  0  0  0
  7  3  1  0  0  0  0
  8  7  1  0  0  0  0
  9  8  2  0  0  0  0
 12 11  1  1  0  0  0
 13 16  1  0  0  0  0
 14 13  2  0  0  0  0
 15 14  1  0  0  0  0
 15 18  2  0  0  0  0
 16 12  1  0  0  0  0
 17 16  2  0  0  0  0
 17 19  1  0  0  0  0
 18 17  1  0  0  0  0
 21 22  1  0  0  0  0
 22 20  1  0  0  0  0
 23 21  2  0  0  0  0
 24 25  1  0  0  0  0
 24 21  1  0  0  0  0
M  END
>  <MODEL>
8

>  <REMARK>
 VINA RESULT:      -6.4      3.475      6.588
  Name = 
  5 active torsions:
  status: ('A' for Active; 'I' for Inactive)
    1  A    between atoms: C_3  and  C_14
    2  A    between atoms: C_4  and  C_13
    3  A    between atoms: C_7  and  C_15
    4  A    between atoms: C_12  and  C_14
    5  A    between atoms: C_15  and  N_17
                            x       y       z     vdW  Elec       q    Type
                         _______ _______ _______ _____ _____    ______ ____

>  <TORSDO>
F 5

$$$$
=
 OpenBabel11052410373D

 25 26  0  0  1  0  0  0  0  0999 V2000
  161.7200  208.9700  150.0450 C   0  0  0  0  0  2  0  0  0  0  0  0
  161.7070  206.4460  150.5790 C   0  0  2  0  0  3  0  0  0  0  0  0
  161.0200  210.9850  151.0820 O   0  0  0  0  0  1  0  0  0  0  0  0
  161.2730  207.6160  152.7890 C   0  0  1  0  0  3  0  0  0  0  0  0
  160.7390  206.6440  151.7520 C   0  0  0  0  0  2  0  0  0  0  0  0
  162.5340  207.6780  150.1630 C   0  0  0  0  0  2  0  0  0  0  0  0
  161.6450  209.7660  151.3560 C   0  0  1  0  0  0  0  0  0  0  0  0
  160.8550  209.0110  152.3990 C   0  0  0  0  0  0  0  0  0  0  0  0
  159.8400  209.5030  152.8740 O   0  0  0  0  0  0  0  0  0  0  0  0
  163.0410  210.0630  151.8830 C   0  0  0  0  0  1  0  0  0  0  0  0
  161.5500  206.1690  148.1270 N   0  0  0  0  0  1  0  0  0  0  0  0
  160.9990  205.7550  149.4090 C   0  0  1  0  0  3  0  0  0  0  0  0
  160.8780  203.6790  150.7670 N   0  0  0  0  0  0  0  0  0  0  0  0
  160.8700  202.3270  150.9020 C   0  0  0  0  0  3  0  0  0  0  0  0
  160.9940  201.5330  149.8070 N   0  0  0  0  0  0  0  0  0  0  0  0
  161.0160  204.2620  149.5430 C   0  0  0  0  0  0  0  0  0  0  0  0
  161.1370  203.4560  148.4070 C   0  0  0  0  0  0  0  0  0  0  0  0
  161.1260  202.0720  148.5670 C   0  0  0  0  0  3  0  0  0  0  0  0
  161.2630  203.9970  147.1700 F   0  0  0  0  0  0  0  0  0  0  0  0
  160.7850  207.2210  154.1790 C   0  0  0  0  0  2  0  0  0  0  0  0
  161.0180  208.7320  156.1980 C   0  0  0  0  0  0  0  0  0  0  0  0
  161.5860  207.8760  155.2050 N   0  0  0  0  0  2  0  0  0  0  0  0
  159.7830  208.9790  156.2040 O   0  0  0  0  0  0  0  0  0  0  0  0
  161.8880  209.3070  157.2570 C   0  0  0  0  0  2  0  0  0  0  0  0
  162.2410  210.6720  156.9120 N   0  0  0  0  0  1  0  0  0  0  0  0
  1  6  1  0  0  0  0
  1  7  1  0  0  0  0
  2 12  1  6  0  0  0
  2  5  1  0  0  0  0
  3  7  1  0  0  0  0
  4 20  1  1  0  0  0
  5  4  1  0  0  0  0
  6  2  1  0  0  0  0
  7 10  1  1  0  0  0
  7  8  1  0  0  0  0
  8  4  1  0  0  0  0
  8  9  2  0  0  0  0
 12 11  1  6  0  0  0
 12 16  1  0  0  0  0
 13 14  1  0  0  0  0
 15 14  2  0  0  0  0
 16 13  2  0  0  0  0
 17 18  2  0  0  0  0
 17 16  1  0  0  0  0
 18 15  1  0  0  0  0
 19 17  1  0  0  0  0
 20 22  1  0  0  0  0
 21 23  2  0  0  0  0
 21 24  1  0  0  0  0
 22 21  1  0  0  0  0
 25 24  1  0  0  0  0
M  END
>  <MODEL>
9

>  <REMARK>
 VINA RESULT:      -6.4      3.834      7.630
  Name = 
  5 active torsions:
  status: ('A' for Active; 'I' for Inactive)
    1  A    between atoms: C_3  and  C_14
    2  A    between atoms: C_4  and  C_13
    3  A    between atoms: C_7  and  C_15
    4  A    between atoms: C_12  and  C_14
    5  A    between atoms: C_15  and  N_17
                            x       y       z     vdW  Elec       q    Type
                         _______ _______ _______ _____ _____    ______ ____

>  <TORSDO>
F 5

$$$$
