=
 OpenBabel11042421103D

 28 30  0  0  1  0  0  0  0  0999 V2000
  160.9790  209.1320  154.9200 C   0  0  0  0  0  3  0  0  0  0  0  0
  160.8900  209.1150  153.5230 C   0  0  0  0  0  0  0  0  0  0  0  0
  160.9950  207.9360  155.6390 C   0  0  0  0  0  3  0  0  0  0  0  0
  160.8170  207.8900  152.8370 C   0  0  0  0  0  0  0  0  0  0  0  0
  160.9220  206.7160  154.9650 C   0  0  0  0  0  3  0  0  0  0  0  0
  160.8330  206.6940  153.5710 C   0  0  0  0  0  3  0  0  0  0  0  0
  162.8980  207.1770  150.8690 O   0  0  0  0  0  0  0  0  0  0  0  0
  161.7570  207.5400  150.4730 C   0  0  0  0  0  0  0  0  0  0  0  0
  160.7240  207.8860  151.4040 N   0  0  0  0  0  2  0  0  0  0  0  0
  161.4510  207.5760  149.0110 C   0  0  1  0  0  3  0  0  0  0  0  0
  162.6800  207.7580  148.2550 N   0  0  0  0  0  1  0  0  0  0  0  0
  160.2200  206.4610  147.2840 O   0  0  0  0  0  1  0  0  0  0  0  0
  160.7430  206.2970  148.5700 C   0  0  1  0  0  3  0  0  0  0  0  0
  161.6430  205.2270  148.5650 O   0  0  0  0  0  0  0  0  0  0  0  0
  161.3370  203.9330  150.5520 C   0  0  0  0  0  2  0  0  0  0  0  0
  161.2300  202.8850  148.2910 C   0  0  0  0  0  2  0  0  0  0  0  0
  160.9780  201.4920  150.1980 C   0  0  0  0  0  2  0  0  0  0  0  0
  160.6660  202.6800  151.1050 C   0  0  0  0  0  2  0  0  0  0  0  0
  160.9300  204.1500  149.0970 C   0  0  2  0  0  3  0  0  0  0  0  0
  160.4910  201.7520  148.8450 N   0  0  0  0  0  2  0  0  0  0  0  0
  160.8700  210.6790  152.6400 S   0  0  0  0  0  0  0  0  0  0  0  0
  158.3610  211.1550  153.7090 C   0  0  0  0  0  3  0  0  0  0  0  0
  160.2080  212.2940  154.7880 C   0  0  0  0  0  3  0  0  0  0  0  0
  159.3170  212.8830  155.6900 C   0  0  0  0  0  3  0  0  0  0  0  0
  157.4710  211.7450  154.6120 C   0  0  0  0  0  0  0  0  0  0  0  0
  157.9490  212.6090  155.6020 C   0  0  0  0  0  3  0  0  0  0  0  0
  159.7300  211.4320  153.7940 C   0  0  0  0  0  0  0  0  0  0  0  0
  156.1130  211.4720  154.5250 O   0  0  0  0  0  1  0  0  0  0  0  0
  1  3  1  0  0  0  0
  2  1  2  0  0  0  0
  4  2  1  0  0  0  0
  4  6  2  0  0  0  0
  5  3  2  0  0  0  0
  6  5  1  0  0  0  0
  8  7  2  0  0  0  0
  8  9  1  0  0  0  0
  9  4  1  0  0  0  0
 10 11  1  6  0  0  0
 10  8  1  0  0  0  0
 13 12  1  6  0  0  0
 13 10  1  0  0  0  0
 14 13  1  0  0  0  0
 15 18  1  0  0  0  0
 16 20  1  0  0  0  0
 16 19  1  0  0  0  0
 17 18  1  0  0  0  0
 19 14  1  6  0  0  0
 19 15  1  0  0  0  0
 20 17  1  0  0  0  0
 21  2  1  0  0  0  0
 21 27  1  0  0  0  0
 22 27  2  0  0  0  0
 22 25  1  0  0  0  0
 23 24  2  0  0  0  0
 25 26  2  0  0  0  0
 26 24  1  0  0  0  0
 27 23  1  0  0  0  0
 28 25  1  0  0  0  0
M  END
>  <MODEL>
1

>  <REMARK>
 VINA RESULT:      -7.4      0.000      0.000
  Name = 
  7 active torsions:
  status: ('A' for Active; 'I' for Inactive)
    1  A    between atoms: O_1  and  C_15
    2  A    between atoms: O_1  and  C_25
    3  A    between atoms: C_9  and  S_18
    4  A    between atoms: C_11  and  C_23
    5  A    between atoms: C_11  and  C_25
    6  A    between atoms: C_16  and  N_24
    7  A    between atoms: S_18  and  C_22
                            x       y       z     vdW  Elec       q    Type
                         _______ _______ _______ _____ _____    ______ ____

>  <TORSDO>
F 7

$$$$
=
 OpenBabel11042421103D

 28 30  0  0  1  0  0  0  0  0999 V2000
  160.7040  204.3420  149.4880 C   0  0  0  0  0  3  0  0  0  0  0  0
  161.0870  205.6490  149.8120 C   0  0  0  0  0  0  0  0  0  0  0  0
  160.8550  203.3130  150.4190 C   0  0  0  0  0  3  0  0  0  0  0  0
  161.6250  205.9310  151.0800 C   0  0  0  0  0  0  0  0  0  0  0  0
  161.3890  203.5850  151.6790 C   0  0  0  0  0  3  0  0  0  0  0  0
  161.7730  204.8880  152.0070 C   0  0  0  0  0  3  0  0  0  0  0  0
  160.4760  207.7380  153.1100 O   0  0  0  0  0  0  0  0  0  0  0  0
  161.4330  208.1320  152.3890 C   0  0  0  0  0  0  0  0  0  0  0  0
  162.0160  207.2760  151.3990 N   0  0  0  0  0  2  0  0  0  0  0  0
  162.0050  209.4980  152.5860 C   0  0  1  0  0  3  0  0  0  0  0  0
  162.4140  210.0500  151.3050 N   0  0  0  0  0  1  0  0  0  0  0  0
  161.5790  211.0480  154.3630 O   0  0  0  0  0  1  0  0  0  0  0  0
  160.9910  210.4210  153.2610 C   0  0  1  0  0  3  0  0  0  0  0  0
  160.5550  211.3960  152.3580 O   0  0  0  0  0  0  0  0  0  0  0  0
  158.3950  211.4200  153.3840 C   0  0  0  0  0  2  0  0  0  0  0  0
  159.3320  213.4520  152.2830 C   0  0  0  0  0  2  0  0  0  0  0  0
  157.1500  213.5720  153.2110 C   0  0  0  0  0  2  0  0  0  0  0  0
  157.3730  212.3260  154.0640 C   0  0  0  0  0  2  0  0  0  0  0  0
  159.6750  212.1990  153.0880 C   0  0  2  0  0  3  0  0  0  0  0  0
  158.4080  214.2960  153.0380 N   0  0  0  0  0  2  0  0  0  0  0  0
  160.8770  206.9410  148.5820 S   0  0  0  0  0  0  0  0  0  0  0  0
  160.6100  205.5170  146.2230 C   0  0  0  0  0  3  0  0  0  0  0  0
  162.8140  205.5010  147.2280 C   0  0  0  0  0  3  0  0  0  0  0  0
  163.2830  204.6950  146.1860 C   0  0  0  0  0  3  0  0  0  0  0  0
  161.0800  204.7110  145.1820 C   0  0  0  0  0  0  0  0  0  0  0  0
  162.4160  204.2990  145.1630 C   0  0  0  0  0  3  0  0  0  0  0  0
  161.4760  205.9100  147.2490 C   0  0  0  0  0  0  0  0  0  0  0  0
  160.2190  204.3190  144.1660 O   0  0  0  0  0  1  0  0  0  0  0  0
  1  2  2  0  0  0  0
  1  3  1  0  0  0  0
  2  4  1  0  0  0  0
  3  5  2  0  0  0  0
  4  9  1  0  0  0  0
  4  6  2  0  0  0  0
  5  6  1  0  0  0  0
  8 10  1  0  0  0  0
  8  7  2  0  0  0  0
  9  8  1  0  0  0  0
 10 11  1  6  0  0  0
 10 13  1  0  0  0  0
 13 12  1  1  0  0  0
 14 13  1  0  0  0  0
 15 18  1  0  0  0  0
 16 20  1  0  0  0  0
 16 19  1  0  0  0  0
 17 18  1  0  0  0  0
 19 14  1  6  0  0  0
 19 15  1  0  0  0  0
 20 17  1  0  0  0  0
 21  2  1  0  0  0  0
 22 27  1  0  0  0  0
 23 27  2  0  0  0  0
 24 23  1  0  0  0  0
 25 22  2  0  0  0  0
 26 25  1  0  0  0  0
 26 24  2  0  0  0  0
 27 21  1  0  0  0  0
 28 25  1  0  0  0  0
M  END
>  <MODEL>
2

>  <REMARK>
 VINA RESULT:      -7.3      2.991      8.726
  Name = 
  7 active torsions:
  status: ('A' for Active; 'I' for Inactive)
    1  A    between atoms: O_1  and  C_15
    2  A    between atoms: O_1  and  C_25
    3  A    between atoms: C_9  and  S_18
    4  A    between atoms: C_11  and  C_23
    5  A    between atoms: C_11  and  C_25
    6  A    between atoms: C_16  and  N_24
    7  A    between atoms: S_18  and  C_22
                            x       y       z     vdW  Elec       q    Type
                         _______ _______ _______ _____ _____    ______ ____

>  <TORSDO>
F 7

$$$$
=
 OpenBabel11042421103D

 28 30  0  0  1  0  0  0  0  0999 V2000
  160.7950  204.7600  149.2650 C   0  0  0  0  0  3  0  0  0  0  0  0
  161.2140  206.0300  149.6780 C   0  0  0  0  0  0  0  0  0  0  0  0
  160.8780  203.6730  150.1370 C   0  0  0  0  0  3  0  0  0  0  0  0
  161.7190  206.2180  150.9770 C   0  0  0  0  0  0  0  0  0  0  0  0
  161.3790  203.8520  151.4270 C   0  0  0  0  0  3  0  0  0  0  0  0
  161.7980  205.1180  151.8440 C   0  0  0  0  0  3  0  0  0  0  0  0
  160.4100  208.0590  152.8770 O   0  0  0  0  0  0  0  0  0  0  0  0
  161.4840  208.4000  152.3100 C   0  0  0  0  0  0  0  0  0  0  0  0
  162.1460  207.5260  151.3880 N   0  0  0  0  0  2  0  0  0  0  0  0
  162.1090  209.7200  152.6260 C   0  0  1  0  0  3  0  0  0  0  0  0
  162.0180  210.5970  151.4700 N   0  0  0  0  0  1  0  0  0  0  0  0
  162.3870  210.6370  154.8220 O   0  0  0  0  0  1  0  0  0  0  0  0
  161.4350  210.3670  153.8350 C   0  0  1  0  0  3  0  0  0  0  0  0
  160.8160  211.5620  153.4570 O   0  0  0  0  0  0  0  0  0  0  0  0
  158.7170  212.7010  153.5760 C   0  0  0  0  0  2  0  0  0  0  0  0
  159.3150  210.9060  155.2010 C   0  0  0  0  0  2  0  0  0  0  0  0
  157.2300  212.0150  155.4560 C   0  0  0  0  0  2  0  0  0  0  0  0
  157.2670  212.5500  154.0260 C   0  0  0  0  0  2  0  0  0  0  0  0
  159.4630  211.3810  153.7560 C   0  0  2  0  0  3  0  0  0  0  0  0
  157.9010  210.7180  155.5240 N   0  0  0  0  0  2  0  0  0  0  0  0
  161.0920  207.3990  148.5210 S   0  0  0  0  0  0  0  0  0  0  0  0
  162.5450  205.6380  146.9550 C   0  0  0  0  0  3  0  0  0  0  0  0
  160.3480  206.2330  146.1230 C   0  0  0  0  0  3  0  0  0  0  0  0
  160.5480  205.4130  145.0090 C   0  0  0  0  0  3  0  0  0  0  0  0
  162.7440  204.8180  145.8410 C   0  0  0  0  0  0  0  0  0  0  0  0
  161.7460  204.7060  144.8670 C   0  0  0  0  0  3  0  0  0  0  0  0
  161.3480  206.3490  147.0950 C   0  0  0  0  0  0  0  0  0  0  0  0
  163.9320  204.1140  145.7000 O   0  0  0  0  0  1  0  0  0  0  0  0
  1  2  2  0  0  0  0
  1  3  1  0  0  0  0
  2  4  1  0  0  0  0
  3  5  2  0  0  0  0
  4  9  1  0  0  0  0
  4  6  2  0  0  0  0
  5  6  1  0  0  0  0
  8 10  1  0  0  0  0
  8  7  2  0  0  0  0
  9  8  1  0  0  0  0
 10 11  1  6  0  0  0
 10 13  1  0  0  0  0
 13 12  1  1  0  0  0
 14 13  1  0  0  0  0
 15 19  1  0  0  0  0
 15 18  1  0  0  0  0
 16 20  1  0  0  0  0
 17 20  1  0  0  0  0
 18 17  1  0  0  0  0
 19 14  1  1  0  0  0
 19 16  1  0  0  0  0
 21  2  1  0  0  0  0
 22 27  1  0  0  0  0
 23 27  2  0  0  0  0
 24 23  1  0  0  0  0
 25 22  2  0  0  0  0
 26 24  2  0  0  0  0
 26 25  1  0  0  0  0
 27 21  1  0  0  0  0
 28 25  1  0  0  0  0
M  END
>  <MODEL>
3

>  <REMARK>
 VINA RESULT:      -7.0      2.838      8.667
  Name = 
  7 active torsions:
  status: ('A' for Active; 'I' for Inactive)
    1  A    between atoms: O_1  and  C_15
    2  A    between atoms: O_1  and  C_25
    3  A    between atoms: C_9  and  S_18
    4  A    between atoms: C_11  and  C_23
    5  A    between atoms: C_11  and  C_25
    6  A    between atoms: C_16  and  N_24
    7  A    between atoms: S_18  and  C_22
                            x       y       z     vdW  Elec       q    Type
                         _______ _______ _______ _____ _____    ______ ____

>  <TORSDO>
F 7

$$$$
=
 OpenBabel11042421103D

 28 30  0  0  1  0  0  0  0  0999 V2000
  160.6290  203.6730  149.0350 C   0  0  0  0  0  3  0  0  0  0  0  0
  160.6760  204.9360  149.6380 C   0  0  0  0  0  0  0  0  0  0  0  0
  160.8900  202.5250  149.7850 C   0  0  0  0  0  3  0  0  0  0  0  0
  160.9870  205.0530  151.0050 C   0  0  0  0  0  0  0  0  0  0  0  0
  161.2000  202.6330  151.1410 C   0  0  0  0  0  3  0  0  0  0  0  0
  161.2480  203.8910  151.7470 C   0  0  0  0  0  3  0  0  0  0  0  0
  163.0690  207.1260  150.7270 O   0  0  0  0  0  0  0  0  0  0  0  0
  162.0650  207.3390  151.4600 C   0  0  0  0  0  0  0  0  0  0  0  0
  161.0340  206.3540  151.6110 N   0  0  0  0  0  2  0  0  0  0  0  0
  161.9150  208.6500  152.1600 C   0  0  1  0  0  3  0  0  0  0  0  0
  162.0900  209.7370  151.2100 N   0  0  0  0  0  1  0  0  0  0  0  0
  160.6310  208.2640  154.1450 O   0  0  0  0  0  1  0  0  0  0  0  0
  160.5510  208.7540  152.8390 C   0  0  1  0  0  3  0  0  0  0  0  0
  160.1320  210.0870  152.8740 O   0  0  0  0  0  0  0  0  0  0  0  0
  158.7050  211.1330  154.4820 C   0  0  0  0  0  2  0  0  0  0  0  0
  161.1890  211.2840  154.6570 C   0  0  0  0  0  2  0  0  0  0  0  0
  159.8690  212.4190  156.2730 C   0  0  0  0  0  2  0  0  0  0  0  0
  158.6290  211.5940  155.9340 C   0  0  0  0  0  2  0  0  0  0  0  0
  160.0190  210.3970  154.2310 C   0  0  2  0  0  3  0  0  0  0  0  0
  161.0750  211.6160  156.0760 N   0  0  0  0  0  2  0  0  0  0  0  0
  160.3350  206.3860  148.6340 S   0  0  0  0  0  0  0  0  0  0  0  0
  160.8340  205.8810  145.9580 C   0  0  0  0  0  3  0  0  0  0  0  0
  162.5940  205.2560  147.5020 C   0  0  0  0  0  3  0  0  0  0  0  0
  163.3680  204.7950  146.4330 C   0  0  0  0  0  3  0  0  0  0  0  0
  161.6090  205.4190  144.8900 C   0  0  0  0  0  0  0  0  0  0  0  0
  162.8750  204.8750  145.1270 C   0  0  0  0  0  3  0  0  0  0  0  0
  161.3250  205.7960  147.2660 C   0  0  0  0  0  0  0  0  0  0  0  0
  161.1200  205.5000  143.5930 O   0  0  0  0  0  1  0  0  0  0  0  0
  1  2  2  0  0  0  0
  1  3  1  0  0  0  0
  2  4  1  0  0  0  0
  3  5  2  0  0  0  0
  4  9  1  0  0  0  0
  4  6  2  0  0  0  0
  5  6  1  0  0  0  0
  7  8  2  0  0  0  0
  8  9  1  0  0  0  0
  8 10  1  0  0  0  0
 10 11  1  6  0  0  0
 10 13  1  0  0  0  0
 13 14  1  0  0  0  0
 13 12  1  1  0  0  0
 15 18  1  0  0  0  0
 16 20  1  0  0  0  0
 18 17  1  0  0  0  0
 19 14  1  6  0  0  0
 19 15  1  0  0  0  0
 19 16  1  0  0  0  0
 20 17  1  0  0  0  0
 21  2  1  0  0  0  0
 22 27  1  0  0  0  0
 24 23  1  0  0  0  0
 25 26  1  0  0  0  0
 25 22  2  0  0  0  0
 26 24  2  0  0  0  0
 27 23  2  0  0  0  0
 27 21  1  0  0  0  0
 28 25  1  0  0  0  0
M  END
>  <MODEL>
4

>  <REMARK>
 VINA RESULT:      -7.0      2.711      8.526
  Name = 
  7 active torsions:
  status: ('A' for Active; 'I' for Inactive)
    1  A    between atoms: O_1  and  C_15
    2  A    between atoms: O_1  and  C_25
    3  A    between atoms: C_9  and  S_18
    4  A    between atoms: C_11  and  C_23
    5  A    between atoms: C_11  and  C_25
    6  A    between atoms: C_16  and  N_24
    7  A    between atoms: S_18  and  C_22
                            x       y       z     vdW  Elec       q    Type
                         _______ _______ _______ _____ _____    ______ ____

>  <TORSDO>
F 7

$$$$
=
 OpenBabel11042421103D

 28 30  0  0  1  0  0  0  0  0999 V2000
  161.2280  209.1250  156.4550 C   0  0  0  0  0  3  0  0  0  0  0  0
  161.2640  209.1020  155.0560 C   0  0  0  0  0  0  0  0  0  0  0  0
  160.6900  208.0490  157.1630 C   0  0  0  0  0  3  0  0  0  0  0  0
  160.7580  207.9910  154.3560 C   0  0  0  0  0  0  0  0  0  0  0  0
  160.1850  206.9450  156.4760 C   0  0  0  0  0  3  0  0  0  0  0  0
  160.2190  206.9170  155.0800 C   0  0  0  0  0  3  0  0  0  0  0  0
  162.3320  206.2360  152.5820 O   0  0  0  0  0  0  0  0  0  0  0  0
  161.5800  207.1180  152.0850 C   0  0  0  0  0  0  0  0  0  0  0  0
  160.7980  207.9810  152.9210 N   0  0  0  0  0  2  0  0  0  0  0  0
  161.4610  207.2500  150.6020 C   0  0  1  0  0  3  0  0  0  0  0  0
  162.6870  207.8120  150.0590 N   0  0  0  0  0  1  0  0  0  0  0  0
  160.5080  205.0680  150.8670 O   0  0  0  0  0  1  0  0  0  0  0  0
  161.1670  205.8980  149.9560 C   0  0  1  0  0  3  0  0  0  0  0  0
  160.3590  206.0710  148.8280 O   0  0  0  0  0  0  0  0  0  0  0  0
  160.4940  206.2020  146.4440 C   0  0  0  0  0  2  0  0  0  0  0  0
  161.4970  204.2940  147.6990 C   0  0  0  0  0  2  0  0  0  0  0  0
  161.6330  204.2860  145.3280 C   0  0  0  0  0  2  0  0  0  0  0  0
  161.3320  205.7810  145.2410 C   0  0  0  0  0  2  0  0  0  0  0  0
  161.1900  205.7910  147.7400 C   0  0  2  0  0  3  0  0  0  0  0  0
  162.3630  203.9920  146.5600 N   0  0  0  0  0  2  0  0  0  0  0  0
  161.9630  210.5090  154.1850 S   0  0  0  0  0  0  0  0  0  0  0  0
  159.4940  211.4840  154.9730 C   0  0  0  0  0  3  0  0  0  0  0  0
  159.9820  211.6210  152.6040 C   0  0  0  0  0  3  0  0  0  0  0  0
  158.7320  212.2050  152.3800 C   0  0  0  0  0  3  0  0  0  0  0  0
  158.2440  212.0680  154.7480 C   0  0  0  0  0  0  0  0  0  0  0  0
  157.8620  212.4270  153.4520 C   0  0  0  0  0  3  0  0  0  0  0  0
  160.3630  211.2560  153.9000 C   0  0  0  0  0  0  0  0  0  0  0  0
  157.3810  212.2900  155.8130 O   0  0  0  0  0  1  0  0  0  0  0  0
  1  3  1  0  0  0  0
  2  1  2  0  0  0  0
  4  2  1  0  0  0  0
  4  6  2  0  0  0  0
  5  3  2  0  0  0  0
  6  5  1  0  0  0  0
  8  7  2  0  0  0  0
  8  9  1  0  0  0  0
  9  4  1  0  0  0  0
 10 11  1  6  0  0  0
 10  8  1  0  0  0  0
 13 10  1  0  0  0  0
 13 12  1  1  0  0  0
 14 13  1  0  0  0  0
 15 19  1  0  0  0  0
 16 19  1  0  0  0  0
 17 20  1  0  0  0  0
 18 17  1  0  0  0  0
 18 15  1  0  0  0  0
 19 14  1  1  0  0  0
 20 16  1  0  0  0  0
 21  2  1  0  0  0  0
 23 27  1  0  0  0  0
 24 23  2  0  0  0  0
 24 26  1  0  0  0  0
 25 22  1  0  0  0  0
 25 28  1  0  0  0  0
 26 25  2  0  0  0  0
 27 21  1  0  0  0  0
 27 22  2  0  0  0  0
M  END
>  <MODEL>
5

>  <REMARK>
 VINA RESULT:      -6.5      1.821      2.694
  Name = 
  7 active torsions:
  status: ('A' for Active; 'I' for Inactive)
    1  A    between atoms: O_1  and  C_15
    2  A    between atoms: O_1  and  C_25
    3  A    between atoms: C_9  and  S_18
    4  A    between atoms: C_11  and  C_23
    5  A    between atoms: C_11  and  C_25
    6  A    between atoms: C_16  and  N_24
    7  A    between atoms: S_18  and  C_22
                            x       y       z     vdW  Elec       q    Type
                         _______ _______ _______ _____ _____    ______ ____

>  <TORSDO>
F 7

$$$$
=
 OpenBabel11042421103D

 28 30  0  0  1  0  0  0  0  0999 V2000
  161.8770  204.1230  147.1250 C   0  0  0  0  0  3  0  0  0  0  0  0
  161.3980  204.3880  148.4140 C   0  0  0  0  0  0  0  0  0  0  0  0
  162.3120  205.1670  146.3070 C   0  0  0  0  0  3  0  0  0  0  0  0
  161.3550  205.7100  148.8910 C   0  0  0  0  0  0  0  0  0  0  0  0
  162.2700  206.4820  146.7740 C   0  0  0  0  0  3  0  0  0  0  0  0
  161.7940  206.7520  148.0590 C   0  0  0  0  0  3  0  0  0  0  0  0
  162.6850  207.1550  151.0940 O   0  0  0  0  0  0  0  0  0  0  0  0
  161.5330  206.6700  151.2660 C   0  0  0  0  0  0  0  0  0  0  0  0
  160.8590  205.9690  150.2140 N   0  0  0  0  0  2  0  0  0  0  0  0
  160.8320  206.8560  152.5720 C   0  0  1  0  0  3  0  0  0  0  0  0
  161.3060  205.8710  153.5300 N   0  0  0  0  0  1  0  0  0  0  0  0
  160.5020  209.2050  152.2320 O   0  0  0  0  0  1  0  0  0  0  0  0
  161.0510  208.2690  153.1120 C   0  0  1  0  0  3  0  0  0  0  0  0
  160.4410  208.4030  154.3630 O   0  0  0  0  0  0  0  0  0  0  0  0
  161.9590  209.2580  156.0010 C   0  0  0  0  0  2  0  0  0  0  0  0
  159.8240  210.4340  155.4690 C   0  0  0  0  0  2  0  0  0  0  0  0
  161.2240  211.3390  157.1610 C   0  0  0  0  0  2  0  0  0  0  0  0
  162.4330  210.5400  156.6790 C   0  0  0  0  0  2  0  0  0  0  0  0
  160.9600  209.5870  154.8940 C   0  0  2  0  0  3  0  0  0  0  0  0
  160.3600  211.6730  156.0310 N   0  0  0  0  0  2  0  0  0  0  0  0
  160.8470  203.0140  149.4300 S   0  0  0  0  0  0  0  0  0  0  0  0
  160.2800  202.1790  146.8520 C   0  0  0  0  0  3  0  0  0  0  0  0
  161.5490  200.6280  148.2140 C   0  0  0  0  0  3  0  0  0  0  0  0
  161.5850  199.7230  147.1500 C   0  0  0  0  0  3  0  0  0  0  0  0
  160.3170  201.2730  145.7880 C   0  0  0  0  0  0  0  0  0  0  0  0
  160.9680  200.0450  145.9370 C   0  0  0  0  0  3  0  0  0  0  0  0
  160.8930  201.8560  148.0680 C   0  0  0  0  0  0  0  0  0  0  0  0
  159.7060  201.5930  144.5830 O   0  0  0  0  0  1  0  0  0  0  0  0
  1  2  1  0  0  0  0
  2  4  2  0  0  0  0
  2 21  1  0  0  0  0
  3  5  1  0  0  0  0
  3  1  2  0  0  0  0
  4  9  1  0  0  0  0
  5  6  2  0  0  0  0
  6  4  1  0  0  0  0
  7  8  2  0  0  0  0
  8 10  1  0  0  0  0
  9  8  1  0  0  0  0
 10 13  1  0  0  0  0
 10 11  1  1  0  0  0
 13 12  1  6  0  0  0
 13 14  1  0  0  0  0
 15 18  1  0  0  0  0
 16 20  1  0  0  0  0
 18 17  1  0  0  0  0
 19 14  1  1  0  0  0
 19 16  1  0  0  0  0
 19 15  1  0  0  0  0
 20 17  1  0  0  0  0
 22 27  1  0  0  0  0
 24 23  1  0  0  0  0
 25 26  1  0  0  0  0
 25 22  2  0  0  0  0
 26 24  2  0  0  0  0
 27 23  2  0  0  0  0
 27 21  1  0  0  0  0
 28 25  1  0  0  0  0
M  END
>  <MODEL>
6

>  <REMARK>
 VINA RESULT:      -6.3      3.108      9.554
  Name = 
  7 active torsions:
  status: ('A' for Active; 'I' for Inactive)
    1  A    between atoms: O_1  and  C_15
    2  A    between atoms: O_1  and  C_25
    3  A    between atoms: C_9  and  S_18
    4  A    between atoms: C_11  and  C_23
    5  A    between atoms: C_11  and  C_25
    6  A    between atoms: C_16  and  N_24
    7  A    between atoms: S_18  and  C_22
                            x       y       z     vdW  Elec       q    Type
                         _______ _______ _______ _____ _____    ______ ____

>  <TORSDO>
F 7

$$$$
=
 OpenBabel11042421103D

 28 30  0  0  1  0  0  0  0  0999 V2000
  160.7660  204.0210  149.4530 C   0  0  0  0  0  3  0  0  0  0  0  0
  160.7130  205.4120  149.6030 C   0  0  0  0  0  0  0  0  0  0  0  0
  161.0200  203.2030  150.5550 C   0  0  0  0  0  3  0  0  0  0  0  0
  160.9140  205.9920  150.8690 C   0  0  0  0  0  0  0  0  0  0  0  0
  161.2220  203.7720  151.8140 C   0  0  0  0  0  3  0  0  0  0  0  0
  161.1700  205.1590  151.9690 C   0  0  0  0  0  3  0  0  0  0  0  0
  163.1040  207.9460  150.5600 O   0  0  0  0  0  0  0  0  0  0  0  0
  161.9450  208.3440  150.8590 C   0  0  0  0  0  0  0  0  0  0  0  0
  160.8590  207.4200  151.0090 N   0  0  0  0  0  2  0  0  0  0  0  0
  161.6750  209.8050  151.0220 C   0  0  1  0  0  3  0  0  0  0  0  0
  162.3100  210.2890  152.2370 N   0  0  0  0  0  1  0  0  0  0  0  0
  161.9530  209.8590  148.6430 O   0  0  0  0  0  1  0  0  0  0  0  0
  162.1760  210.5910  149.8120 C   0  0  1  0  0  3  0  0  0  0  0  0
  161.5050  211.8140  149.7230 O   0  0  0  0  0  0  0  0  0  0  0  0
  162.8010  212.7940  147.9690 C   0  0  0  0  0  2  0  0  0  0  0  0
  160.3230  213.0630  148.0580 C   0  0  0  0  0  2  0  0  0  0  0  0
  161.5170  214.1360  146.3070 C   0  0  0  0  0  2  0  0  0  0  0  0
  162.7450  213.2530  146.5160 C   0  0  0  0  0  2  0  0  0  0  0  0
  161.4880  212.1200  148.3600 C   0  0  2  0  0  3  0  0  0  0  0  0
  160.3020  213.3920  146.6330 N   0  0  0  0  0  2  0  0  0  0  0  0
  160.3860  206.4260  148.1570 S   0  0  0  0  0  0  0  0  0  0  0  0
  160.6160  204.3010  146.3970 C   0  0  0  0  0  3  0  0  0  0  0  0
  162.6590  205.5160  146.8670 C   0  0  0  0  0  3  0  0  0  0  0  0
  163.3630  204.6630  146.0120 C   0  0  0  0  0  3  0  0  0  0  0  0
  161.3210  203.4490  145.5420 C   0  0  0  0  0  0  0  0  0  0  0  0
  162.6940  203.6290  145.3500 C   0  0  0  0  0  3  0  0  0  0  0  0
  161.2860  205.3330  147.0630 C   0  0  0  0  0  0  0  0  0  0  0  0
  160.6570  202.4220  144.8840 O   0  0  0  0  0  1  0  0  0  0  0  0
  1  2  2  0  0  0  0
  1  3  1  0  0  0  0
  2  4  1  0  0  0  0
  3  5  2  0  0  0  0
  4  9  1  0  0  0  0
  4  6  2  0  0  0  0
  5  6  1  0  0  0  0
  7  8  2  0  0  0  0
  8  9  1  0  0  0  0
  8 10  1  0  0  0  0
 10 11  1  1  0  0  0
 13 12  1  6  0  0  0
 13 10  1  0  0  0  0
 14 13  1  0  0  0  0
 15 19  1  0  0  0  0
 16 19  1  0  0  0  0
 17 18  1  0  0  0  0
 17 20  1  0  0  0  0
 18 15  1  0  0  0  0
 19 14  1  1  0  0  0
 20 16  1  0  0  0  0
 21  2  1  0  0  0  0
 22 27  1  0  0  0  0
 23 27  2  0  0  0  0
 24 23  1  0  0  0  0
 25 22  2  0  0  0  0
 26 25  1  0  0  0  0
 26 24  2  0  0  0  0
 27 21  1  0  0  0  0
 28 25  1  0  0  0  0
M  END
>  <MODEL>
7

>  <REMARK>
 VINA RESULT:      -6.3      3.878      8.621
  Name = 
  7 active torsions:
  status: ('A' for Active; 'I' for Inactive)
    1  A    between atoms: O_1  and  C_15
    2  A    between atoms: O_1  and  C_25
    3  A    between atoms: C_9  and  S_18
    4  A    between atoms: C_11  and  C_23
    5  A    between atoms: C_11  and  C_25
    6  A    between atoms: C_16  and  N_24
    7  A    between atoms: S_18  and  C_22
                            x       y       z     vdW  Elec       q    Type
                         _______ _______ _______ _____ _____    ______ ____

>  <TORSDO>
F 7

$$$$
=
 OpenBabel11042421103D

 28 30  0  0  1  0  0  0  0  0999 V2000
  161.4110  209.6300  153.2720 C   0  0  0  0  0  3  0  0  0  0  0  0
  161.1760  208.2530  153.1860 C   0  0  0  0  0  0  0  0  0  0  0  0
  161.7290  210.3630  152.1270 C   0  0  0  0  0  3  0  0  0  0  0  0
  161.2590  207.6000  151.9430 C   0  0  0  0  0  0  0  0  0  0  0  0
  161.8150  209.7210  150.8910 C   0  0  0  0  0  3  0  0  0  0  0  0
  161.5810  208.3470  150.8000 C   0  0  0  0  0  3  0  0  0  0  0  0
  163.2340  205.4150  151.7460 O   0  0  0  0  0  0  0  0  0  0  0  0
  162.0010  205.1470  151.7680 C   0  0  0  0  0  0  0  0  0  0  0  0
  161.0190  206.1860  151.8690 N   0  0  0  0  0  2  0  0  0  0  0  0
  161.5450  203.7260  151.7270 C   0  0  1  0  0  3  0  0  0  0  0  0
  160.2920  203.5900  152.4530 N   0  0  0  0  0  1  0  0  0  0  0  0
  160.8470  201.9540  150.2730 O   0  0  0  0  0  1  0  0  0  0  0  0
  161.3770  203.2470  150.2860 C   0  0  1  0  0  3  0  0  0  0  0  0
  160.5140  204.1030  149.5940 O   0  0  0  0  0  0  0  0  0  0  0  0
  160.6140  206.0280  148.1800 C   0  0  0  0  0  2  0  0  0  0  0  0
  161.6190  203.8530  147.4860 C   0  0  0  0  0  2  0  0  0  0  0  0
  161.7190  205.6810  145.9730 C   0  0  0  0  0  2  0  0  0  0  0  0
  161.4290  206.6950  147.0770 C   0  0  0  0  0  2  0  0  0  0  0  0
  161.3250  204.7700  148.6740 C   0  0  2  0  0  3  0  0  0  0  0  0
  162.4640  204.5470  146.5150 N   0  0  0  0  0  2  0  0  0  0  0  0
  160.7720  207.3500  154.6850 S   0  0  0  0  0  0  0  0  0  0  0  0
  159.5570  209.5680  155.8110 C   0  0  0  0  0  3  0  0  0  0  0  0
  161.8950  209.2470  156.3590 C   0  0  0  0  0  3  0  0  0  0  0  0
  161.8700  210.4040  157.1430 C   0  0  0  0  0  3  0  0  0  0  0  0
  159.5330  210.7250  156.5950 C   0  0  0  0  0  0  0  0  0  0  0  0
  160.6900  211.1440  157.2610 C   0  0  0  0  0  3  0  0  0  0  0  0
  160.7390  208.8300  155.6890 C   0  0  0  0  0  0  0  0  0  0  0  0
  158.3610  211.4590  156.7140 O   0  0  0  0  0  1  0  0  0  0  0  0
  2  1  1  0  0  0  0
  2 21  1  0  0  0  0
  3  1  2  0  0  0  0
  4  2  2  0  0  0  0
  5  3  1  0  0  0  0
  6  5  2  0  0  0  0
  6  4  1  0  0  0  0
  7  8  2  0  0  0  0
  8  9  1  0  0  0  0
  9  4  1  0  0  0  0
 10  8  1  0  0  0  0
 10 11  1  1  0  0  0
 13 12  1  1  0  0  0
 13 10  1  0  0  0  0
 14 13  1  0  0  0  0
 15 19  1  0  0  0  0
 16 19  1  0  0  0  0
 17 20  1  0  0  0  0
 17 18  1  0  0  0  0
 18 15  1  0  0  0  0
 19 14  1  1  0  0  0
 20 16  1  0  0  0  0
 21 27  1  0  0  0  0
 22 25  1  0  0  0  0
 23 24  2  0  0  0  0
 24 26  1  0  0  0  0
 25 28  1  0  0  0  0
 25 26  2  0  0  0  0
 27 22  2  0  0  0  0
 27 23  1  0  0  0  0
M  END
>  <MODEL>
8

>  <REMARK>
 VINA RESULT:      -6.1      2.254      3.682
  Name = 
  7 active torsions:
  status: ('A' for Active; 'I' for Inactive)
    1  A    between atoms: O_1  and  C_15
    2  A    between atoms: O_1  and  C_25
    3  A    between atoms: C_9  and  S_18
    4  A    between atoms: C_11  and  C_23
    5  A    between atoms: C_11  and  C_25
    6  A    between atoms: C_16  and  N_24
    7  A    between atoms: S_18  and  C_22
                            x       y       z     vdW  Elec       q    Type
                         _______ _______ _______ _____ _____    ______ ____

>  <TORSDO>
F 7

$$$$
=
 OpenBabel11042421103D

 28 30  0  0  1  0  0  0  0  0999 V2000
  162.2190  206.7170  151.9540 C   0  0  0  0  0  3  0  0  0  0  0  0
  161.6380  207.9710  151.7320 C   0  0  0  0  0  0  0  0  0  0  0  0
  161.9930  206.0390  153.1540 C   0  0  0  0  0  3  0  0  0  0  0  0
  160.8220  208.5540  152.7170 C   0  0  0  0  0  0  0  0  0  0  0  0
  161.1860  206.6120  154.1370 C   0  0  0  0  0  3  0  0  0  0  0  0
  160.6030  207.8640  153.9190 C   0  0  0  0  0  3  0  0  0  0  0  0
  161.1750  211.0430  154.2620 O   0  0  0  0  0  0  0  0  0  0  0  0
  160.4210  211.0340  153.2520 C   0  0  0  0  0  0  0  0  0  0  0  0
  160.2340  209.8420  152.4770 N   0  0  0  0  0  2  0  0  0  0  0  0
  159.7340  212.2880  152.8190 C   0  0  1  0  0  3  0  0  0  0  0  0
  158.8000  211.9930  151.7450 N   0  0  0  0  0  1  0  0  0  0  0  0
  159.1350  214.3310  153.9170 O   0  0  0  0  0  1  0  0  0  0  0  0
  159.0040  212.9420  153.9910 C   0  0  1  0  0  3  0  0  0  0  0  0
  157.6470  212.6080  153.9570 O   0  0  0  0  0  0  0  0  0  0  0  0
  156.7240  211.5700  155.9040 C   0  0  0  0  0  2  0  0  0  0  0  0
  155.9960  213.8420  155.1740 C   0  0  0  0  0  2  0  0  0  0  0  0
  154.9630  212.8810  157.0850 C   0  0  0  0  0  2  0  0  0  0  0  0
  156.0850  211.8600  157.2580 C   0  0  0  0  0  2  0  0  0  0  0  0
  157.1760  212.8720  155.2460 C   0  0  2  0  0  3  0  0  0  0  0  0
  155.4950  214.1200  156.5190 N   0  0  0  0  0  2  0  0  0  0  0  0
  161.9580  208.8070  150.1740 S   0  0  0  0  0  0  0  0  0  0  0  0
  162.3180  207.1480  147.9880 C   0  0  0  0  0  3  0  0  0  0  0  0
  160.7600  206.3630  149.6700 C   0  0  0  0  0  3  0  0  0  0  0  0
  160.5230  205.2120  148.9130 C   0  0  0  0  0  3  0  0  0  0  0  0
  162.0800  205.9960  147.2320 C   0  0  0  0  0  0  0  0  0  0  0  0
  161.1820  205.0280  147.6940 C   0  0  0  0  0  3  0  0  0  0  0  0
  161.6550  207.3340  149.2050 C   0  0  0  0  0  0  0  0  0  0  0  0
  162.7360  205.8130  146.0220 O   0  0  0  0  0  1  0  0  0  0  0  0
  1  3  1  0  0  0  0
  2  1  2  0  0  0  0
  2  4  1  0  0  0  0
  3  5  2  0  0  0  0
  4  6  2  0  0  0  0
  6  5  1  0  0  0  0
  8  7  2  0  0  0  0
  9  4  1  0  0  0  0
  9  8  1  0  0  0  0
 10 11  1  6  0  0  0
 10  8  1  0  0  0  0
 10 13  1  0  0  0  0
 13 12  1  6  0  0  0
 14 13  1  0  0  0  0
 15 18  1  0  0  0  0
 16 19  1  0  0  0  0
 16 20  1  0  0  0  0
 17 18  1  0  0  0  0
 19 14  1  6  0  0  0
 19 15  1  0  0  0  0
 20 17  1  0  0  0  0
 21  2  1  0  0  0  0
 22 27  1  0  0  0  0
 24 23  1  0  0  0  0
 25 26  1  0  0  0  0
 25 22  2  0  0  0  0
 26 24  2  0  0  0  0
 27 23  2  0  0  0  0
 27 21  1  0  0  0  0
 28 25  1  0  0  0  0
M  END
>  <MODEL>
9

>  <REMARK>
 VINA RESULT:      -6.0      2.904      8.774
  Name = 
  7 active torsions:
  status: ('A' for Active; 'I' for Inactive)
    1  A    between atoms: O_1  and  C_15
    2  A    between atoms: O_1  and  C_25
    3  A    between atoms: C_9  and  S_18
    4  A    between atoms: C_11  and  C_23
    5  A    between atoms: C_11  and  C_25
    6  A    between atoms: C_16  and  N_24
    7  A    between atoms: S_18  and  C_22
                            x       y       z     vdW  Elec       q    Type
                         _______ _______ _______ _____ _____    ______ ____

>  <TORSDO>
F 7

$$$$
