=
 OpenBabel11052410313D

 45 50  0  0  1  0  0  0  0  0999 V2000
  161.5580  209.5730  151.6110 C   0  0  0  0  0  0  0  0  0  0  0  0
  162.3070  209.8890  150.1410 S   0  0  0  0  0  0  0  0  0  0  0  0
  160.7850  210.5720  151.9910 N   0  0  0  0  0  0  0  0  0  0  0  0
  161.5690  208.5730  152.5610 C   0  0  0  0  0  0  0  0  0  0  0  0
  160.7320  211.6250  151.1840 N   0  0  0  0  0  0  0  0  0  0  0  0
  160.4690  208.3410  154.8690 C   0  0  0  0  0  1  0  0  0  0  0  0
  160.7380  209.0510  153.5860 C   0  0  0  0  0  0  0  0  0  0  0  0
  160.2520  210.3140  153.1980 C   0  0  0  0  0  0  0  0  0  0  0  0
  161.5110  211.4070  150.0890 C   0  0  0  0  0  0  0  0  0  0  0  0
  157.1380  212.0050  154.5420 C   0  0  0  0  0  3  0  0  0  0  0  0
  157.6840  212.9950  155.3640 C   0  0  0  0  0  0  0  0  0  0  0  0
  159.9090  212.2310  154.7850 C   0  0  0  0  0  3  0  0  0  0  0  0
  157.9770  211.1350  153.8410 C   0  0  0  0  0  3  0  0  0  0  0  0
  156.7770  213.9230  156.0940 C   0  0  0  0  0  1  0  0  0  0  0  0
  159.0750  213.1070  155.4880 C   0  0  0  0  0  0  0  0  0  0  0  0
  159.6240  214.0660  156.2740 F   0  0  0  0  0  0  0  0  0  0  0  0
  159.3700  211.2370  153.9550 C   0  0  0  0  0  0  0  0  0  0  0  0
  160.8190  213.6350  149.2550 C   0  0  0  0  0  2  0  0  0  0  0  0
  159.8840  213.6620  148.1400 N   0  0  0  0  0  0  0  0  0  0  0  0
  161.2310  211.8730  147.7390 N   0  0  0  0  0  2  0  0  0  0  0  0
  161.7060  212.4120  149.0020 C   0  0  2  0  0  3  0  0  0  0  0  0
  160.1430  212.6860  147.3440 C   0  0  0  0  0  0  0  0  0  0  0  0
  159.1770  212.3650  145.8680 S   0  0  0  0  0  0  0  0  0  0  0  0
  159.6040  214.1260  143.7950 C   0  0  0  0  0  1  0  0  0  0  0  0
  160.3440  213.1770  144.7190 C   0  0  0  0  0  0  0  0  0  0  0  0
  161.0150  212.2280  143.9720 F   0  0  0  0  0  0  0  0  0  0  0  0
  161.2630  213.8980  145.4520 F   0  0  0  0  0  0  0  0  0  0  0  0
  162.4230  207.3420  152.6060 C   0  0  0  0  0  2  0  0  0  0  0  0
  161.7390  206.1530  152.0120 C   0  0  0  0  0  0  0  0  0  0  0  0
  161.5100  206.0600  150.6280 C   0  0  0  0  0  0  0  0  0  0  0  0
  161.3250  205.1190  152.8580 C   0  0  0  0  0  3  0  0  0  0  0  0
  160.6770  203.9990  152.3350 C   0  0  0  0  0  3  0  0  0  0  0  0
  160.4460  203.9060  150.9610 C   0  0  0  0  0  3  0  0  0  0  0  0
  160.8620  204.9330  150.1010 C   0  0  0  0  0  0  0  0  0  0  0  0
  161.9050  207.0640  149.8000 F   0  0  0  0  0  0  0  0  0  0  0  0
  160.6160  204.8550  148.6890 N   0  0  0  0  0  2  0  0  0  0  0  0
  160.7040  203.7270  146.5280 C   0  0  2  0  0  3  0  0  0  0  0  0
  162.2220  204.0400  144.4510 C   0  0  0  0  0  1  0  0  0  0  0  0
  162.2680  206.7740  147.2150 O   0  0  0  0  0  0  0  0  0  0  0  0
  160.4890  205.7590  145.0460 C   0  0  0  0  0  1  0  0  0  0  0  0
  161.4990  204.1600  147.7630 C   0  0  1  0  0  3  0  0  0  0  0  0
  163.9340  204.9470  146.7420 O   0  0  0  0  0  0  0  0  0  0  0  0
  160.9900  202.3910  146.2380 O   0  0  0  0  0  1  0  0  0  0  0  0
  161.4320  204.6950  145.5760 C   0  0  0  0  0  0  0  0  0  0  0  0
  162.4850  205.3280  146.8560 S   0  0  0  0  0  0  0  0  0  0  0  0
  1  3  1  0  0  0  0
  1  4  2  0  0  0  0
  2  1  1  0  0  0  0
  3  8  1  0  0  0  0
  4 28  1  0  0  0  0
  4  7  1  0  0  0  0
  5  3  1  0  0  0  0
  7  6  1  0  0  0  0
  8  7  2  0  0  0  0
  8 17  1  0  0  0  0
  9  2  1  0  0  0  0
  9  5  2  0  0  0  0
 10 11  1  0  0  0  0
 11 15  2  0  0  0  0
 11 14  1  0  0  0  0
 12 15  1  0  0  0  0
 13 17  1  0  0  0  0
 13 10  2  0  0  0  0
 15 16  1  0  0  0  0
 17 12  2  0  0  0  0
 19 18  1  0  0  0  0
 20 21  1  0  0  0  0
 21 18  1  0  0  0  0
 21  9  1  1  0  0  0
 22 20  1  0  0  0  0
 22 19  2  0  0  0  0
 23 22  1  0  0  0  0
 24 25  1  0  0  0  0
 25 27  1  0  0  0  0
 25 23  1  0  0  0  0
 26 25  1  0  0  0  0
 29 28  1  0  0  0  0
 29 31  1  0  0  0  0
 30 29  2  0  0  0  0
 32 31  2  0  0  0  0
 33 32  1  0  0  0  0
 34 30  1  0  0  0  0
 34 33  2  0  0  0  0
 35 30  1  0  0  0  0
 36 34  1  0  0  0  0
 37 43  1  6  0  0  0
 37 41  1  0  0  0  0
 38 44  1  0  0  0  0
 40 44  1  0  0  0  0
 41 36  1  1  0  0  0
 42 45  2  0  0  0  0
 44 37  1  0  0  0  0
 44 45  1  0  0  0  0
 45 39  2  0  0  0  0
 45 41  1  0  0  0  0
M  END
>  <MODEL>
1

>  <REMARK>
 VINA RESULT:      -7.3      0.000      0.000
  Name = 
  8 active torsions:
  status: ('A' for Active; 'I' for Inactive)
    1  A    between atoms: C_6  and  C_32
    2  A    between atoms: C_9  and  N_18
    3  A    between atoms: C_15  and  S_16
    4  A    between atoms: S_16  and  C_36
    5  A    between atoms: C_17  and  C_32
    6  A    between atoms: N_18  and  C_37
    7  A    between atoms: C_28  and  C_34
    8  A    between atoms: C_31  and  C_40
                            x       y       z     vdW  Elec       q    Type
                         _______ _______ _______ _____ _____    ______ ____

>  <TORSDO>
F 8

$$$$
=
 OpenBabel11052410313D

 45 50  0  0  1  0  0  0  0  0999 V2000
  161.4340  208.7020  151.9990 C   0  0  0  0  0  0  0  0  0  0  0  0
  161.4840  210.3720  152.1790 S   0  0  0  0  0  0  0  0  0  0  0  0
  161.6310  208.3390  150.7460 N   0  0  0  0  0  0  0  0  0  0  0  0
  161.1910  207.6030  152.7950 C   0  0  0  0  0  0  0  0  0  0  0  0
  161.8240  209.3140  149.8660 N   0  0  0  0  0  0  0  0  0  0  0  0
  160.9830  205.0930  152.2970 C   0  0  0  0  0  1  0  0  0  0  0  0
  161.2370  206.5120  151.9140 C   0  0  0  0  0  0  0  0  0  0  0  0
  161.5220  207.0040  150.6270 C   0  0  0  0  0  0  0  0  0  0  0  0
  161.7910  210.5200  150.4980 C   0  0  0  0  0  0  0  0  0  0  0  0
  162.2040  206.1920  146.9890 C   0  0  0  0  0  3  0  0  0  0  0  0
  161.8400  204.8430  146.9250 C   0  0  0  0  0  0  0  0  0  0  0  0
  161.2780  204.8970  149.2810 C   0  0  0  0  0  3  0  0  0  0  0  0
  162.1000  206.8890  148.1940 C   0  0  0  0  0  3  0  0  0  0  0  0
  161.9440  204.1170  145.6290 C   0  0  0  0  0  1  0  0  0  0  0  0
  161.3770  204.1930  148.0760 C   0  0  0  0  0  0  0  0  0  0  0  0
  161.0110  202.8880  148.0330 F   0  0  0  0  0  0  0  0  0  0  0  0
  161.6370  206.2510  149.3530 C   0  0  0  0  0  0  0  0  0  0  0  0
  160.7390  212.7310  150.1170 C   0  0  0  0  0  2  0  0  0  0  0  0
  160.0560  212.9260  148.8470 N   0  0  0  0  0  0  0  0  0  0  0  0
  161.8540  211.6230  148.3540 N   0  0  0  0  0  2  0  0  0  0  0  0
  161.9330  211.8270  149.7900 C   0  0  2  0  0  3  0  0  0  0  0  0
  160.6930  212.3060  147.9200 C   0  0  0  0  0  0  0  0  0  0  0  0
  160.1340  212.2820  146.2160 S   0  0  0  0  0  0  0  0  0  0  0  0
  160.7090  214.3790  144.5290 C   0  0  0  0  0  1  0  0  0  0  0  0
  161.3280  213.5330  145.6260 C   0  0  0  0  0  0  0  0  0  0  0  0
  162.4690  212.9170  145.1510 F   0  0  0  0  0  0  0  0  0  0  0  0
  161.6710  214.3540  146.6790 F   0  0  0  0  0  0  0  0  0  0  0  0
  160.7680  207.5720  154.2330 C   0  0  0  0  0  2  0  0  0  0  0  0
  160.9100  208.9030  154.8970 C   0  0  0  0  0  0  0  0  0  0  0  0
  159.8020  209.5580  155.4620 C   0  0  0  0  0  0  0  0  0  0  0  0
  162.1750  209.4990  154.9520 C   0  0  0  0  0  3  0  0  0  0  0  0
  162.3390  210.7450  155.5590 C   0  0  0  0  0  3  0  0  0  0  0  0
  161.2400  211.3980  156.1180 C   0  0  0  0  0  3  0  0  0  0  0  0
  159.9670  210.8090  156.0760 C   0  0  0  0  0  0  0  0  0  0  0  0
  158.5700  208.9870  155.4070 F   0  0  0  0  0  0  0  0  0  0  0  0
  158.8280  211.4780  156.6340 N   0  0  0  0  0  2  0  0  0  0  0  0
  159.0380  213.0820  154.8100 C   0  0  2  0  0  3  0  0  0  0  0  0
  157.3380  214.0070  153.0860 C   0  0  0  0  0  1  0  0  0  0  0  0
  156.3420  210.8970  155.1970 O   0  0  0  0  0  0  0  0  0  0  0  0
  158.1510  211.6340  152.9430 C   0  0  0  0  0  1  0  0  0  0  0  0
  158.2660  212.7000  156.0750 C   0  0  1  0  0  3  0  0  0  0  0  0
  155.6490  213.3020  155.4630 O   0  0  0  0  0  0  0  0  0  0  0  0
  159.3630  214.4410  154.8580 O   0  0  0  0  0  1  0  0  0  0  0  0
  157.8560  212.8030  153.8630 C   0  0  0  0  0  0  0  0  0  0  0  0
  156.7700  212.3410  155.1870 S   0  0  0  0  0  0  0  0  0  0  0  0
  1  2  1  0  0  0  0
  1  4  2  0  0  0  0
  3  1  1  0  0  0  0
  4 28  1  0  0  0  0
  5  9  2  0  0  0  0
  5  3  1  0  0  0  0
  7  6  1  0  0  0  0
  7  4  1  0  0  0  0
  8  3  1  0  0  0  0
  8  7  2  0  0  0  0
  9  2  1  0  0  0  0
 10 13  1  0  0  0  0
 11 10  2  0  0  0  0
 11 15  1  0  0  0  0
 12 17  1  0  0  0  0
 13 17  2  0  0  0  0
 14 11  1  0  0  0  0
 15 12  2  0  0  0  0
 16 15  1  0  0  0  0
 17  8  1  0  0  0  0
 19 18  1  0  0  0  0
 20 21  1  0  0  0  0
 21 18  1  0  0  0  0
 21  9  1  1  0  0  0
 22 20  1  0  0  0  0
 22 19  2  0  0  0  0
 23 22  1  0  0  0  0
 24 25  1  0  0  0  0
 25 23  1  0  0  0  0
 25 27  1  0  0  0  0
 26 25  1  0  0  0  0
 28 29  1  0  0  0  0
 29 31  2  0  0  0  0
 29 30  1  0  0  0  0
 30 34  2  0  0  0  0
 31 32  1  0  0  0  0
 32 33  2  0  0  0  0
 34 33  1  0  0  0  0
 34 36  1  0  0  0  0
 35 30  1  0  0  0  0
 37 43  1  1  0  0  0
 37 41  1  0  0  0  0
 38 44  1  0  0  0  0
 40 44  1  0  0  0  0
 41 36  1  6  0  0  0
 44 37  1  0  0  0  0
 44 45  1  0  0  0  0
 45 39  2  0  0  0  0
 45 42  2  0  0  0  0
 45 41  1  0  0  0  0
M  END
>  <MODEL>
2

>  <REMARK>
 VINA RESULT:      -7.1      3.803      8.226
  Name = 
  8 active torsions:
  status: ('A' for Active; 'I' for Inactive)
    1  A    between atoms: C_6  and  C_32
    2  A    between atoms: C_9  and  N_18
    3  A    between atoms: C_15  and  S_16
    4  A    between atoms: S_16  and  C_36
    5  A    between atoms: C_17  and  C_32
    6  A    between atoms: N_18  and  C_37
    7  A    between atoms: C_28  and  C_34
    8  A    between atoms: C_31  and  C_40
                            x       y       z     vdW  Elec       q    Type
                         _______ _______ _______ _____ _____    ______ ____

>  <TORSDO>
F 8

$$$$
=
 OpenBabel11052410313D

 45 50  0  0  1  0  0  0  0  0999 V2000
  161.6120  207.2830  151.2460 C   0  0  0  0  0  0  0  0  0  0  0  0
  161.4510  206.3890  152.6600 S   0  0  0  0  0  0  0  0  0  0  0  0
  161.4470  206.5340  150.1720 N   0  0  0  0  0  0  0  0  0  0  0  0
  161.9220  208.5800  150.8970 C   0  0  0  0  0  0  0  0  0  0  0  0
  161.1970  205.2470  150.3760 N   0  0  0  0  0  0  0  0  0  0  0  0
  162.2970  209.7420  148.6380 C   0  0  0  0  0  1  0  0  0  0  0  0
  161.9530  208.5700  149.4940 C   0  0  0  0  0  0  0  0  0  0  0  0
  161.6450  207.2660  149.0620 C   0  0  0  0  0  0  0  0  0  0  0  0
  161.1460  204.9920  151.7130 C   0  0  0  0  0  0  0  0  0  0  0  0
  160.3900  206.4700  145.5760 C   0  0  0  0  0  3  0  0  0  0  0  0
  161.4560  205.7310  145.0510 C   0  0  0  0  0  0  0  0  0  0  0  0
  162.6550  206.0030  147.1400 C   0  0  0  0  0  3  0  0  0  0  0  0
  160.4570  206.9670  146.8790 C   0  0  0  0  0  3  0  0  0  0  0  0
  161.3640  205.1960  143.6650 C   0  0  0  0  0  1  0  0  0  0  0  0
  162.5930  205.4990  145.8360 C   0  0  0  0  0  0  0  0  0  0  0  0
  163.6340  204.7780  145.3490 F   0  0  0  0  0  0  0  0  0  0  0  0
  161.5880  206.7400  147.6750 C   0  0  0  0  0  0  0  0  0  0  0  0
  162.2270  202.8260  152.2440 C   0  0  0  0  0  2  0  0  0  0  0  0
  161.9550  201.7150  151.3440 N   0  0  0  0  0  0  0  0  0  0  0  0
  160.0060  202.8830  151.4430 N   0  0  0  0  0  2  0  0  0  0  0  0
  160.9230  203.6310  152.2860 C   0  0  2  0  0  3  0  0  0  0  0  0
  160.7400  201.7880  150.9320 C   0  0  0  0  0  0  0  0  0  0  0  0
  160.0440  200.6090  149.7730 S   0  0  0  0  0  0  0  0  0  0  0  0
  161.2020  202.5830  148.2440 C   0  0  0  0  0  1  0  0  0  0  0  0
  161.1310  201.0730  148.3810 C   0  0  0  0  0  0  0  0  0  0  0  0
  160.6620  200.5210  147.2050 F   0  0  0  0  0  0  0  0  0  0  0  0
  162.3990  200.5900  148.6240 F   0  0  0  0  0  0  0  0  0  0  0  0
  162.3360  209.7110  151.7900 C   0  0  0  0  0  2  0  0  0  0  0  0
  161.4520  209.8420  152.9880 C   0  0  0  0  0  0  0  0  0  0  0  0
  160.2560  210.5780  152.9350 C   0  0  0  0  0  0  0  0  0  0  0  0
  161.8320  209.2140  154.1800 C   0  0  0  0  0  3  0  0  0  0  0  0
  161.0320  209.3230  155.3180 C   0  0  0  0  0  3  0  0  0  0  0  0
  159.8460  210.0570  155.2680 C   0  0  0  0  0  3  0  0  0  0  0  0
  159.4490  210.6850  154.0780 C   0  0  0  0  0  0  0  0  0  0  0  0
  159.8830  211.1950  151.7820 F   0  0  0  0  0  0  0  0  0  0  0  0
  158.2390  211.4540  154.0200 N   0  0  0  0  0  2  0  0  0  0  0  0
  157.3770  213.6010  154.7900 C   0  0  2  0  0  3  0  0  0  0  0  0
  155.1610  214.2840  155.9480 C   0  0  0  0  0  1  0  0  0  0  0  0
  155.4210  210.7370  154.3760 O   0  0  0  0  0  0  0  0  0  0  0  0
  155.1880  213.5900  153.5340 C   0  0  0  0  0  1  0  0  0  0  0  0
  157.6790  212.1490  155.1700 C   0  0  1  0  0  3  0  0  0  0  0  0
  155.5690  211.4340  156.7900 O   0  0  0  0  0  0  0  0  0  0  0  0
  157.8770  214.4530  155.7800 O   0  0  0  0  0  1  0  0  0  0  0  0
  155.8490  213.4310  154.8900 C   0  0  0  0  0  0  0  0  0  0  0  0
  155.9650  211.7280  155.3710 S   0  0  0  0  0  0  0  0  0  0  0  0
  1  2  1  0  0  0  0
  3  5  1  0  0  0  0
  3  1  1  0  0  0  0
  4  1  2  0  0  0  0
  4 28  1  0  0  0  0
  5  9  2  0  0  0  0
  6  7  1  0  0  0  0
  7  4  1  0  0  0  0
  8  7  2  0  0  0  0
  8  3  1  0  0  0  0
  9  2  1  0  0  0  0
 10 13  1  0  0  0  0
 11 10  2  0  0  0  0
 11 15  1  0  0  0  0
 12 17  1  0  0  0  0
 13 17  2  0  0  0  0
 14 11  1  0  0  0  0
 15 12  2  0  0  0  0
 16 15  1  0  0  0  0
 17  8  1  0  0  0  0
 18 21  1  0  0  0  0
 19 18  1  0  0  0  0
 20 21  1  0  0  0  0
 21  9  1  6  0  0  0
 22 19  2  0  0  0  0
 22 20  1  0  0  0  0
 23 22  1  0  0  0  0
 24 25  1  0  0  0  0
 25 27  1  0  0  0  0
 25 23  1  0  0  0  0
 26 25  1  0  0  0  0
 28 29  1  0  0  0  0
 29 31  1  0  0  0  0
 30 29  2  0  0  0  0
 30 34  1  0  0  0  0
 31 32  2  0  0  0  0
 33 32  1  0  0  0  0
 34 33  2  0  0  0  0
 35 30  1  0  0  0  0
 36 34  1  0  0  0  0
 37 44  1  0  0  0  0
 37 41  1  0  0  0  0
 37 43  1  1  0  0  0
 39 45  2  0  0  0  0
 40 44  1  0  0  0  0
 41 36  1  6  0  0  0
 41 45  1  0  0  0  0
 44 45  1  0  0  0  0
 44 38  1  0  0  0  0
 45 42  2  0  0  0  0
M  END
>  <MODEL>
3

>  <REMARK>
 VINA RESULT:      -6.7      4.781     10.330
  Name = 
  8 active torsions:
  status: ('A' for Active; 'I' for Inactive)
    1  A    between atoms: C_6  and  C_32
    2  A    between atoms: C_9  and  N_18
    3  A    between atoms: C_15  and  S_16
    4  A    between atoms: S_16  and  C_36
    5  A    between atoms: C_17  and  C_32
    6  A    between atoms: N_18  and  C_37
    7  A    between atoms: C_28  and  C_34
    8  A    between atoms: C_31  and  C_40
                            x       y       z     vdW  Elec       q    Type
                         _______ _______ _______ _____ _____    ______ ____

>  <TORSDO>
F 8

$$$$
=
 OpenBabel11052410313D

 45 50  0  0  1  0  0  0  0  0999 V2000
  161.5070  211.6910  149.5850 C   0  0  0  0  0  0  0  0  0  0  0  0
  162.3310  210.5990  148.6080 S   0  0  0  0  0  0  0  0  0  0  0  0
  161.1700  211.1540  150.7420 N   0  0  0  0  0  0  0  0  0  0  0  0
  161.0390  212.9840  149.4880 C   0  0  0  0  0  0  0  0  0  0  0  0
  161.5170  209.8880  150.9350 N   0  0  0  0  0  0  0  0  0  0  0  0
  159.6250  214.4530  151.0490 C   0  0  0  0  0  1  0  0  0  0  0  0
  160.3570  213.2030  150.6950 C   0  0  0  0  0  0  0  0  0  0  0  0
  160.4590  212.0330  151.4700 C   0  0  0  0  0  0  0  0  0  0  0  0
  162.1920  209.4220  149.8490 C   0  0  0  0  0  0  0  0  0  0  0  0
  160.1670  211.2240  155.1610 C   0  0  0  0  0  3  0  0  0  0  0  0
  158.7800  211.2020  155.3400 C   0  0  0  0  0  0  0  0  0  0  0  0
  158.4840  211.7350  152.9940 C   0  0  0  0  0  3  0  0  0  0  0  0
  160.7070  211.4950  153.9020 C   0  0  0  0  0  3  0  0  0  0  0  0
  158.2200  210.8980  156.6840 C   0  0  0  0  0  1  0  0  0  0  0  0
  157.9360  211.4600  154.2520 C   0  0  0  0  0  0  0  0  0  0  0  0
  156.5880  211.4360  154.4020 F   0  0  0  0  0  0  0  0  0  0  0  0
  159.8740  211.7540  152.8060 C   0  0  0  0  0  0  0  0  0  0  0  0
  162.3550  207.4680  148.3340 C   0  0  0  0  0  2  0  0  0  0  0  0
  161.4350  206.3670  148.5760 N   0  0  0  0  0  0  0  0  0  0  0  0
  161.9680  207.1560  150.6420 N   0  0  0  0  0  2  0  0  0  0  0  0
  162.6890  208.0200  149.7240 C   0  0  2  0  0  3  0  0  0  0  0  0
  161.2520  206.2350  149.8410 C   0  0  0  0  0  0  0  0  0  0  0  0
  160.1480  205.0020  150.5320 S   0  0  0  0  0  0  0  0  0  0  0  0
  161.2370  202.8240  151.8150 C   0  0  0  0  0  1  0  0  0  0  0  0
  161.3610  204.3330  151.7230 C   0  0  0  0  0  0  0  0  0  0  0  0
  161.1650  204.8940  152.9700 F   0  0  0  0  0  0  0  0  0  0  0  0
  162.6320  204.6470  151.2900 F   0  0  0  0  0  0  0  0  0  0  0  0
  161.0630  213.8960  148.2990 C   0  0  0  0  0  2  0  0  0  0  0  0
  160.2940  213.3430  147.1430 C   0  0  0  0  0  0  0  0  0  0  0  0
  160.9130  213.0970  145.9060 C   0  0  0  0  0  0  0  0  0  0  0  0
  158.9310  213.0690  147.3080 C   0  0  0  0  0  3  0  0  0  0  0  0
  158.1840  212.5590  146.2450 C   0  0  0  0  0  3  0  0  0  0  0  0
  158.7970  212.3170  145.0150 C   0  0  0  0  0  3  0  0  0  0  0  0
  160.1630  212.5810  144.8390 C   0  0  0  0  0  0  0  0  0  0  0  0
  162.2350  213.3660  145.7380 F   0  0  0  0  0  0  0  0  0  0  0  0
  160.8000  212.3490  143.5740 N   0  0  0  0  0  2  0  0  0  0  0  0
  159.6310  213.3020  141.6570 C   0  0  2  0  0  3  0  0  0  0  0  0
  159.8680  212.9350  139.1020 C   0  0  0  0  0  1  0  0  0  0  0  0
  162.6520  211.5620  141.4440 O   0  0  0  0  0  0  0  0  0  0  0  0
  161.6380  214.1640  140.3940 C   0  0  0  0  0  1  0  0  0  0  0  0
  160.0670  212.0140  142.3610 C   0  0  1  0  0  3  0  0  0  0  0  0
  160.7770  210.3370  140.2950 O   0  0  0  0  0  0  0  0  0  0  0  0
  158.2820  213.2020  141.3030 O   0  0  0  0  0  1  0  0  0  0  0  0
  160.5630  213.0950  140.4480 C   0  0  0  0  0  0  0  0  0  0  0  0
  161.1940  211.5570  141.0660 S   0  0  0  0  0  0  0  0  0  0  0  0
  1  3  1  0  0  0  0
  2  1  1  0  0  0  0
  2  9  1  0  0  0  0
  3  5  1  0  0  0  0
  3  8  1  0  0  0  0
  4  1  2  0  0  0  0
  4  7  1  0  0  0  0
  7  6  1  0  0  0  0
  7  8  2  0  0  0  0
  8 17  1  0  0  0  0
  9  5  2  0  0  0  0
 10 11  1  0  0  0  0
 11 14  1  0  0  0  0
 12 15  1  0  0  0  0
 13 10  2  0  0  0  0
 15 16  1  0  0  0  0
 15 11  2  0  0  0  0
 17 12  2  0  0  0  0
 17 13  1  0  0  0  0
 18 19  1  0  0  0  0
 18 21  1  0  0  0  0
 19 22  2  0  0  0  0
 21  9  1  6  0  0  0
 21 20  1  0  0  0  0
 22 23  1  0  0  0  0
 22 20  1  0  0  0  0
 23 25  1  0  0  0  0
 25 24  1  0  0  0  0
 25 26  1  0  0  0  0
 27 25  1  0  0  0  0
 28  4  1  0  0  0  0
 29 31  1  0  0  0  0
 29 28  1  0  0  0  0
 30 29  2  0  0  0  0
 32 31  2  0  0  0  0
 33 32  1  0  0  0  0
 34 33  2  0  0  0  0
 34 30  1  0  0  0  0
 35 30  1  0  0  0  0
 36 34  1  0  0  0  0
 37 43  1  6  0  0  0
 37 41  1  0  0  0  0
 38 44  1  0  0  0  0
 40 44  1  0  0  0  0
 41 36  1  1  0  0  0
 42 45  2  0  0  0  0
 44 45  1  0  0  0  0
 44 37  1  0  0  0  0
 45 39  2  0  0  0  0
 45 41  1  0  0  0  0
M  END
>  <MODEL>
4

>  <REMARK>
 VINA RESULT:      -6.7      3.332      7.736
  Name = 
  8 active torsions:
  status: ('A' for Active; 'I' for Inactive)
    1  A    between atoms: C_6  and  C_32
    2  A    between atoms: C_9  and  N_18
    3  A    between atoms: C_15  and  S_16
    4  A    between atoms: S_16  and  C_36
    5  A    between atoms: C_17  and  C_32
    6  A    between atoms: N_18  and  C_37
    7  A    between atoms: C_28  and  C_34
    8  A    between atoms: C_31  and  C_40
                            x       y       z     vdW  Elec       q    Type
                         _______ _______ _______ _____ _____    ______ ____

>  <TORSDO>
F 8

$$$$
=
 OpenBabel11052410313D

 45 50  0  0  1  0  0  0  0  0999 V2000
  160.5620  211.4430  151.6750 C   0  0  0  0  0  0  0  0  0  0  0  0
  160.9460  212.0960  150.1750 S   0  0  0  0  0  0  0  0  0  0  0  0
  159.5810  212.1040  152.2590 N   0  0  0  0  0  0  0  0  0  0  0  0
  161.0270  210.4330  152.4900 C   0  0  0  0  0  0  0  0  0  0  0  0
  159.0810  213.1390  151.5960 N   0  0  0  0  0  0  0  0  0  0  0  0
  160.4130  209.6810  154.8680 C   0  0  0  0  0  1  0  0  0  0  0  0
  160.2520  210.5350  153.6550 C   0  0  0  0  0  0  0  0  0  0  0  0
  159.3430  211.5950  153.4810 C   0  0  0  0  0  0  0  0  0  0  0  0
  159.7160  213.2710  150.3980 C   0  0  0  0  0  0  0  0  0  0  0  0
  157.5860  213.8770  155.9450 C   0  0  0  0  0  3  0  0  0  0  0  0
  156.4580  213.1220  156.2790 C   0  0  0  0  0  0  0  0  0  0  0  0
  157.2020  211.3710  154.7770 C   0  0  0  0  0  3  0  0  0  0  0  0
  158.5200  213.3770  155.0350 C   0  0  0  0  0  3  0  0  0  0  0  0
  155.4790  213.6620  157.2610 C   0  0  0  0  0  1  0  0  0  0  0  0
  156.2640  211.8650  155.6910 C   0  0  0  0  0  0  0  0  0  0  0  0
  155.1800  211.1130  156.0070 F   0  0  0  0  0  0  0  0  0  0  0  0
  158.3390  212.1210  154.4410 C   0  0  0  0  0  0  0  0  0  0  0  0
  158.0560  214.1270  148.7710 C   0  0  0  0  0  2  0  0  0  0  0  0
  158.3430  213.9120  147.3610 N   0  0  0  0  0  0  0  0  0  0  0  0
  160.3660  214.3090  148.3210 N   0  0  0  0  0  2  0  0  0  0  0  0
  159.4220  214.3620  149.4240 C   0  0  2  0  0  3  0  0  0  0  0  0
  159.6090  214.0180  147.1630 C   0  0  0  0  0  0  0  0  0  0  0  0
  160.3550  213.7810  145.5490 S   0  0  0  0  0  0  0  0  0  0  0  0
  162.9770  213.1200  145.0380 C   0  0  0  0  0  1  0  0  0  0  0  0
  162.0200  213.3820  146.1860 C   0  0  0  0  0  0  0  0  0  0  0  0
  161.9630  212.2730  147.0080 F   0  0  0  0  0  0  0  0  0  0  0  0
  162.4870  214.4530  146.9180 F   0  0  0  0  0  0  0  0  0  0  0  0
  162.2200  209.5480  152.2870 C   0  0  0  0  0  2  0  0  0  0  0  0
  161.8670  208.2660  151.6050 C   0  0  0  0  0  0  0  0  0  0  0  0
  161.8460  208.1680  150.2030 C   0  0  0  0  0  0  0  0  0  0  0  0
  161.5570  207.1480  152.3870 C   0  0  0  0  0  3  0  0  0  0  0  0
  161.2170  205.9380  151.7800 C   0  0  0  0  0  3  0  0  0  0  0  0
  161.1920  205.8400  150.3880 C   0  0  0  0  0  3  0  0  0  0  0  0
  161.5080  206.9510  149.5920 C   0  0  0  0  0  0  0  0  0  0  0  0
  162.1410  209.2520  149.4370 F   0  0  0  0  0  0  0  0  0  0  0  0
  161.4700  206.8650  148.1610 N   0  0  0  0  0  2  0  0  0  0  0  0
  160.5450  206.2780  145.9820 C   0  0  2  0  0  3  0  0  0  0  0  0
  160.7640  204.1630  144.4990 C   0  0  0  0  0  1  0  0  0  0  0  0
  163.1850  204.5790  147.5140 O   0  0  0  0  0  0  0  0  0  0  0  0
  162.7070  205.7270  144.8020 C   0  0  0  0  0  1  0  0  0  0  0  0
  160.7140  205.8500  147.4420 C   0  0  1  0  0  3  0  0  0  0  0  0
  161.1370  203.1320  147.2910 O   0  0  0  0  0  0  0  0  0  0  0  0
  159.2100  206.1130  145.6020 O   0  0  0  0  0  1  0  0  0  0  0  0
  161.4480  205.1590  145.4280 C   0  0  0  0  0  0  0  0  0  0  0  0
  161.7610  204.4740  147.0330 S   0  0  0  0  0  0  0  0  0  0  0  0
  1  3  1  0  0  0  0
  1  4  2  0  0  0  0
  2  9  1  0  0  0  0
  2  1  1  0  0  0  0
  3  8  1  0  0  0  0
  4  7  1  0  0  0  0
  5  3  1  0  0  0  0
  7  6  1  0  0  0  0
  8  7  2  0  0  0  0
  8 17  1  0  0  0  0
  9  5  2  0  0  0  0
 10 11  1  0  0  0  0
 11 14  1  0  0  0  0
 12 15  1  0  0  0  0
 13 10  2  0  0  0  0
 15 16  1  0  0  0  0
 15 11  2  0  0  0  0
 17 12  2  0  0  0  0
 17 13  1  0  0  0  0
 18 21  1  0  0  0  0
 19 18  1  0  0  0  0
 20 21  1  0  0  0  0
 21  9  1  1  0  0  0
 22 19  2  0  0  0  0
 22 20  1  0  0  0  0
 23 25  1  0  0  0  0
 23 22  1  0  0  0  0
 24 25  1  0  0  0  0
 25 27  1  0  0  0  0
 25 26  1  0  0  0  0
 28  4  1  0  0  0  0
 29 28  1  0  0  0  0
 29 31  1  0  0  0  0
 30 29  2  0  0  0  0
 32 31  2  0  0  0  0
 33 32  1  0  0  0  0
 34 30  1  0  0  0  0
 34 33  2  0  0  0  0
 35 30  1  0  0  0  0
 36 34  1  0  0  0  0
 37 43  1  6  0  0  0
 37 41  1  0  0  0  0
 38 44  1  0  0  0  0
 40 44  1  0  0  0  0
 41 36  1  1  0  0  0
 44 37  1  0  0  0  0
 44 45  1  0  0  0  0
 45 42  2  0  0  0  0
 45 41  1  0  0  0  0
 45 39  2  0  0  0  0
M  END
>  <MODEL>
5

>  <REMARK>
 VINA RESULT:      -6.6      1.859      2.430
  Name = 
  8 active torsions:
  status: ('A' for Active; 'I' for Inactive)
    1  A    between atoms: C_6  and  C_32
    2  A    between atoms: C_9  and  N_18
    3  A    between atoms: C_15  and  S_16
    4  A    between atoms: S_16  and  C_36
    5  A    between atoms: C_17  and  C_32
    6  A    between atoms: N_18  and  C_37
    7  A    between atoms: C_28  and  C_34
    8  A    between atoms: C_31  and  C_40
                            x       y       z     vdW  Elec       q    Type
                         _______ _______ _______ _____ _____    ______ ____

>  <TORSDO>
F 8

$$$$
=
 OpenBabel11052410313D

 45 50  0  0  1  0  0  0  0  0999 V2000
  161.7720  208.9010  151.3780 C   0  0  0  0  0  0  0  0  0  0  0  0
  162.5230  209.2680  149.9200 S   0  0  0  0  0  0  0  0  0  0  0  0
  161.0350  209.9040  151.8150 N   0  0  0  0  0  0  0  0  0  0  0  0
  161.7570  207.8540  152.2750 C   0  0  0  0  0  0  0  0  0  0  0  0
  161.0120  210.9980  151.0640 N   0  0  0  0  0  0  0  0  0  0  0  0
  160.6640  207.5390  154.5770 C   0  0  0  0  0  1  0  0  0  0  0  0
  160.9480  208.3050  153.3300 C   0  0  0  0  0  0  0  0  0  0  0  0
  160.5020  209.6010  153.0120 C   0  0  0  0  0  0  0  0  0  0  0  0
  161.7760  210.8120  149.9520 C   0  0  0  0  0  0  0  0  0  0  0  0
  159.1250  211.5480  155.9570 C   0  0  0  0  0  3  0  0  0  0  0  0
  158.0460  212.2200  155.3750 C   0  0  0  0  0  0  0  0  0  0  0  0
  158.5730  211.1940  153.2440 C   0  0  0  0  0  3  0  0  0  0  0  0
  159.9210  210.6990  155.1840 C   0  0  0  0  0  3  0  0  0  0  0  0
  157.1990  213.1110  156.2140 C   0  0  0  0  0  1  0  0  0  0  0  0
  157.7700  212.0440  154.0130 C   0  0  0  0  0  0  0  0  0  0  0  0
  156.7230  212.6800  153.4310 F   0  0  0  0  0  0  0  0  0  0  0  0
  159.6550  210.5130  153.8210 C   0  0  0  0  0  0  0  0  0  0  0  0
  161.3070  213.1660  149.3380 C   0  0  0  0  0  2  0  0  0  0  0  0
  160.2820  213.3920  148.3300 N   0  0  0  0  0  0  0  0  0  0  0  0
  161.3380  211.4860  147.6780 N   0  0  0  0  0  2  0  0  0  0  0  0
  161.9980  211.8640  148.9160 C   0  0  2  0  0  3  0  0  0  0  0  0
  160.3340  212.4560  147.4510 C   0  0  0  0  0  0  0  0  0  0  0  0
  159.1990  212.3710  146.0650 S   0  0  0  0  0  0  0  0  0  0  0  0
  156.6890  213.4930  145.9540 C   0  0  0  0  0  1  0  0  0  0  0  0
  157.8130  213.1910  146.9270 C   0  0  0  0  0  0  0  0  0  0  0  0
  158.2450  214.3630  147.5180 F   0  0  0  0  0  0  0  0  0  0  0  0
  157.3360  212.3480  147.9090 F   0  0  0  0  0  0  0  0  0  0  0  0
  162.5700  206.5950  152.2500 C   0  0  0  0  0  2  0  0  0  0  0  0
  161.8090  205.4370  151.6890 C   0  0  0  0  0  0  0  0  0  0  0  0
  161.6850  205.2490  150.3020 C   0  0  0  0  0  0  0  0  0  0  0  0
  161.2140  204.5280  152.5720 C   0  0  0  0  0  3  0  0  0  0  0  0
  160.4910  203.4410  152.0800 C   0  0  0  0  0  3  0  0  0  0  0  0
  160.3650  203.2550  150.7020 C   0  0  0  0  0  3  0  0  0  0  0  0
  160.9620  204.1540  149.8060 C   0  0  0  0  0  0  0  0  0  0  0  0
  162.2560  206.1310  149.4390 F   0  0  0  0  0  0  0  0  0  0  0  0
  160.8250  203.9810  148.3890 N   0  0  0  0  0  2  0  0  0  0  0  0
  161.5790  203.8330  146.0740 C   0  0  2  0  0  3  0  0  0  0  0  0
  161.8640  205.6100  144.2080 C   0  0  0  0  0  1  0  0  0  0  0  0
  159.8860  206.5790  147.4130 O   0  0  0  0  0  0  0  0  0  0  0  0
  159.5760  204.8990  144.9680 C   0  0  0  0  0  1  0  0  0  0  0  0
  161.7660  204.5320  147.4230 C   0  0  1  0  0  3  0  0  0  0  0  0
  162.2440  207.1600  146.7490 O   0  0  0  0  0  0  0  0  0  0  0  0
  162.8260  203.4540  145.5710 O   0  0  0  0  0  1  0  0  0  0  0  0
  161.0270  205.0870  145.3690 C   0  0  0  0  0  0  0  0  0  0  0  0
  161.1830  206.0980  146.8180 S   0  0  0  0  0  0  0  0  0  0  0  0
  1  3  1  0  0  0  0
  1  4  2  0  0  0  0
  2  9  1  0  0  0  0
  2  1  1  0  0  0  0
  3  8  1  0  0  0  0
  4  7  1  0  0  0  0
  5  3  1  0  0  0  0
  7  6  1  0  0  0  0
  8  7  2  0  0  0  0
  8 17  1  0  0  0  0
  9  5  2  0  0  0  0
 11 10  1  0  0  0  0
 11 14  1  0  0  0  0
 12 17  2  0  0  0  0
 12 15  1  0  0  0  0
 13 10  2  0  0  0  0
 15 11  2  0  0  0  0
 16 15  1  0  0  0  0
 17 13  1  0  0  0  0
 19 18  1  0  0  0  0
 20 21  1  0  0  0  0
 21 18  1  0  0  0  0
 21  9  1  1  0  0  0
 22 20  1  0  0  0  0
 22 19  2  0  0  0  0
 23 25  1  0  0  0  0
 23 22  1  0  0  0  0
 24 25  1  0  0  0  0
 25 26  1  0  0  0  0
 25 27  1  0  0  0  0
 28  4  1  0  0  0  0
 29 28  1  0  0  0  0
 29 31  1  0  0  0  0
 30 29  2  0  0  0  0
 32 31  2  0  0  0  0
 33 32  1  0  0  0  0
 34 30  1  0  0  0  0
 34 33  2  0  0  0  0
 35 30  1  0  0  0  0
 36 34  1  0  0  0  0
 37 43  1  6  0  0  0
 37 41  1  0  0  0  0
 38 44  1  0  0  0  0
 40 44  1  0  0  0  0
 41 36  1  1  0  0  0
 42 45  2  0  0  0  0
 44 37  1  0  0  0  0
 44 45  1  0  0  0  0
 45 39  2  0  0  0  0
 45 41  1  0  0  0  0
M  END
>  <MODEL>
6

>  <REMARK>
 VINA RESULT:      -6.5      1.610      1.860
  Name = 
  8 active torsions:
  status: ('A' for Active; 'I' for Inactive)
    1  A    between atoms: C_6  and  C_32
    2  A    between atoms: C_9  and  N_18
    3  A    between atoms: C_15  and  S_16
    4  A    between atoms: S_16  and  C_36
    5  A    between atoms: C_17  and  C_32
    6  A    between atoms: N_18  and  C_37
    7  A    between atoms: C_28  and  C_34
    8  A    between atoms: C_31  and  C_40
                            x       y       z     vdW  Elec       q    Type
                         _______ _______ _______ _____ _____    ______ ____

>  <TORSDO>
F 8

$$$$
=
 OpenBabel11052410313D

 45 50  0  0  1  0  0  0  0  0999 V2000
  161.5690  207.3960  151.1200 C   0  0  0  0  0  0  0  0  0  0  0  0
  161.4210  206.5250  152.5500 S   0  0  0  0  0  0  0  0  0  0  0  0
  161.4190  206.6250  150.0600 N   0  0  0  0  0  0  0  0  0  0  0  0
  161.8560  208.6920  150.7480 C   0  0  0  0  0  0  0  0  0  0  0  0
  161.1920  205.3380  150.2870 N   0  0  0  0  0  0  0  0  0  0  0  0
  162.2140  209.8190  148.4680 C   0  0  0  0  0  1  0  0  0  0  0  0
  161.8900  208.6570  149.3450 C   0  0  0  0  0  0  0  0  0  0  0  0
  161.6060  207.3400  148.9360 C   0  0  0  0  0  0  0  0  0  0  0  0
  161.1430  205.1060  151.6280 C   0  0  0  0  0  0  0  0  0  0  0  0
  162.7060  205.8280  145.6400 C   0  0  0  0  0  3  0  0  0  0  0  0
  161.4960  205.7600  144.9410 C   0  0  0  0  0  0  0  0  0  0  0  0
  160.3520  206.7120  146.8520 C   0  0  0  0  0  3  0  0  0  0  0  0
  162.7350  206.3420  146.9390 C   0  0  0  0  0  3  0  0  0  0  0  0
  161.4830  205.2230  143.5520 C   0  0  0  0  0  1  0  0  0  0  0  0
  160.3150  206.2020  145.5500 C   0  0  0  0  0  0  0  0  0  0  0  0
  159.1330  206.1520  144.8860 F   0  0  0  0  0  0  0  0  0  0  0  0
  161.5610  206.7880  147.5590 C   0  0  0  0  0  0  0  0  0  0  0  0
  162.2490  202.9520  152.1550 C   0  0  0  0  0  2  0  0  0  0  0  0
  161.9550  201.8280  151.2780 N   0  0  0  0  0  0  0  0  0  0  0  0
  160.0050  202.9890  151.4200 N   0  0  0  0  0  2  0  0  0  0  0  0
  160.9430  203.7520  152.2250 C   0  0  2  0  0  3  0  0  0  0  0  0
  160.7280  201.8900  150.9010 C   0  0  0  0  0  0  0  0  0  0  0  0
  160.0030  200.6930  149.7800 S   0  0  0  0  0  0  0  0  0  0  0  0
  161.2050  202.6150  148.2200 C   0  0  0  0  0  1  0  0  0  0  0  0
  161.0790  201.1100  148.3640 C   0  0  0  0  0  0  0  0  0  0  0  0
  160.5650  200.5720  147.2000 F   0  0  0  0  0  0  0  0  0  0  0  0
  162.3320  200.5780  148.5840 F   0  0  0  0  0  0  0  0  0  0  0  0
  162.2480  209.8460  151.6200 C   0  0  0  0  0  2  0  0  0  0  0  0
  161.1490  210.8480  151.7660 C   0  0  0  0  0  0  0  0  0  0  0  0
  160.1700  210.7170  152.7670 C   0  0  0  0  0  0  0  0  0  0  0  0
  161.1030  211.9340  150.8850 C   0  0  0  0  0  3  0  0  0  0  0  0
  160.0860  212.8830  150.9900 C   0  0  0  0  0  3  0  0  0  0  0  0
  159.1120  212.7530  151.9820 C   0  0  0  0  0  3  0  0  0  0  0  0
  159.1490  211.6730  152.8760 C   0  0  0  0  0  0  0  0  0  0  0  0
  160.2050  209.6620  153.6230 F   0  0  0  0  0  0  0  0  0  0  0  0
  158.1450  211.5210  153.8890 N   0  0  0  0  0  2  0  0  0  0  0  0
  156.0380  212.5220  154.6020 C   0  0  2  0  0  3  0  0  0  0  0  0
  155.1610  213.2950  156.9150 C   0  0  0  0  0  1  0  0  0  0  0  0
  158.3720  211.1070  156.7800 O   0  0  0  0  0  0  0  0  0  0  0  0
  155.4260  210.8510  156.3920 C   0  0  0  0  0  1  0  0  0  0  0  0
  157.5630  212.6450  154.6110 C   0  0  1  0  0  3  0  0  0  0  0  0
  158.1380  213.5880  157.1350 O   0  0  0  0  0  0  0  0  0  0  0  0
  155.4760  213.7520  154.2460 O   0  0  0  0  0  1  0  0  0  0  0  0
  155.9340  212.2540  156.1150 C   0  0  0  0  0  0  0  0  0  0  0  0
  157.6850  212.3810  156.3640 S   0  0  0  0  0  0  0  0  0  0  0  0
  1  2  1  0  0  0  0
  3  5  1  0  0  0  0
  3  1  1  0  0  0  0
  4  1  2  0  0  0  0
  4 28  1  0  0  0  0
  5  9  2  0  0  0  0
  6  7  1  0  0  0  0
  7  4  1  0  0  0  0
  8  7  2  0  0  0  0
  8  3  1  0  0  0  0
  9  2  1  0  0  0  0
 10 13  1  0  0  0  0
 11 15  1  0  0  0  0
 11 10  2  0  0  0  0
 12 17  1  0  0  0  0
 13 17  2  0  0  0  0
 14 11  1  0  0  0  0
 15 12  2  0  0  0  0
 16 15  1  0  0  0  0
 17  8  1  0  0  0  0
 18 21  1  0  0  0  0
 19 18  1  0  0  0  0
 20 21  1  0  0  0  0
 21  9  1  6  0  0  0
 22 19  2  0  0  0  0
 22 20  1  0  0  0  0
 23 22  1  0  0  0  0
 24 25  1  0  0  0  0
 25 27  1  0  0  0  0
 25 23  1  0  0  0  0
 26 25  1  0  0  0  0
 28 29  1  0  0  0  0
 29 30  1  0  0  0  0
 30 34  2  0  0  0  0
 30 35  1  0  0  0  0
 31 32  1  0  0  0  0
 31 29  2  0  0  0  0
 32 33  2  0  0  0  0
 33 34  1  0  0  0  0
 34 36  1  0  0  0  0
 37 43  1  1  0  0  0
 37 41  1  0  0  0  0
 37 44  1  0  0  0  0
 41 36  1  6  0  0  0
 41 45  1  0  0  0  0
 44 45  1  0  0  0  0
 44 40  1  0  0  0  0
 44 38  1  0  0  0  0
 45 39  2  0  0  0  0
 45 42  2  0  0  0  0
M  END
>  <MODEL>
7

>  <REMARK>
 VINA RESULT:      -6.5      4.813     10.445
  Name = 
  8 active torsions:
  status: ('A' for Active; 'I' for Inactive)
    1  A    between atoms: C_6  and  C_32
    2  A    between atoms: C_9  and  N_18
    3  A    between atoms: C_15  and  S_16
    4  A    between atoms: S_16  and  C_36
    5  A    between atoms: C_17  and  C_32
    6  A    between atoms: N_18  and  C_37
    7  A    between atoms: C_28  and  C_34
    8  A    between atoms: C_31  and  C_40
                            x       y       z     vdW  Elec       q    Type
                         _______ _______ _______ _____ _____    ______ ____

>  <TORSDO>
F 8

$$$$
=
 OpenBabel11052410313D

 45 50  0  0  1  0  0  0  0  0999 V2000
  161.2480  210.8770  150.9890 C   0  0  0  0  0  0  0  0  0  0  0  0
  161.7270  211.6890  149.5970 S   0  0  0  0  0  0  0  0  0  0  0  0
  160.4010  211.5930  151.7050 N   0  0  0  0  0  0  0  0  0  0  0  0
  161.5370  209.6850  151.6170 C   0  0  0  0  0  0  0  0  0  0  0  0
  160.0840  212.7910  151.2310 N   0  0  0  0  0  0  0  0  0  0  0  0
  160.8210  208.6750  153.8660 C   0  0  0  0  0  1  0  0  0  0  0  0
  160.8000  209.7280  152.8110 C   0  0  0  0  0  0  0  0  0  0  0  0
  160.0880  210.9420  152.8390 C   0  0  0  0  0  0  0  0  0  0  0  0
  160.7220  213.0040  150.0470 C   0  0  0  0  0  0  0  0  0  0  0  0
  158.9180  212.5520  156.0640 C   0  0  0  0  0  3  0  0  0  0  0  0
  157.5280  212.4510  155.9450 C   0  0  0  0  0  0  0  0  0  0  0  0
  157.8040  211.3750  153.7910 C   0  0  0  0  0  3  0  0  0  0  0  0
  159.7450  212.0610  155.0510 C   0  0  0  0  0  3  0  0  0  0  0  0
  156.6600  212.9670  157.0380 C   0  0  0  0  0  1  0  0  0  0  0  0
  156.9700  211.8620  154.8030 C   0  0  0  0  0  0  0  0  0  0  0  0
  155.6240  211.7480  154.6710 F   0  0  0  0  0  0  0  0  0  0  0  0
  159.1990  211.4680  153.9050 C   0  0  0  0  0  0  0  0  0  0  0  0
  159.2060  214.4080  148.6800 C   0  0  0  0  0  2  0  0  0  0  0  0
  159.3940  214.3700  147.2380 N   0  0  0  0  0  0  0  0  0  0  0  0
  161.4890  214.2180  148.1090 N   0  0  0  0  0  2  0  0  0  0  0  0
  160.6150  214.2730  149.2680 C   0  0  2  0  0  3  0  0  0  0  0  0
  160.6470  214.2640  146.9740 C   0  0  0  0  0  0  0  0  0  0  0  0
  161.2730  214.1510  145.2970 S   0  0  0  0  0  0  0  0  0  0  0  0
  158.9390  213.0580  144.3290 C   0  0  0  0  0  1  0  0  0  0  0  0
  160.3080  212.6640  144.8530 C   0  0  0  0  0  0  0  0  0  0  0  0
  160.1660  211.8410  145.9540 F   0  0  0  0  0  0  0  0  0  0  0  0
  160.9790  211.9740  143.8660 F   0  0  0  0  0  0  0  0  0  0  0  0
  162.5560  208.6550  151.2340 C   0  0  0  0  0  2  0  0  0  0  0  0
  162.0700  207.7500  150.1490 C   0  0  0  0  0  0  0  0  0  0  0  0
  161.7640  206.4020  150.4060 C   0  0  0  0  0  0  0  0  0  0  0  0
  161.9180  208.2650  148.8560 C   0  0  0  0  0  3  0  0  0  0  0  0
  161.4730  207.4430  147.8200 C   0  0  0  0  0  3  0  0  0  0  0  0
  161.1730  206.1040  148.0730 C   0  0  0  0  0  3  0  0  0  0  0  0
  161.3140  205.5760  149.3650 C   0  0  0  0  0  0  0  0  0  0  0  0
  161.9150  205.8930  151.6570 F   0  0  0  0  0  0  0  0  0  0  0  0
  161.0220  204.1970  149.6320 N   0  0  0  0  0  2  0  0  0  0  0  0
  161.5480  202.7560  147.7370 C   0  0  2  0  0  3  0  0  0  0  0  0
  161.0160  200.2710  147.2250 C   0  0  0  0  0  1  0  0  0  0  0  0
  160.4420  201.5900  150.8380 O   0  0  0  0  0  0  0  0  0  0  0  0
  162.6840  200.8890  149.0000 C   0  0  0  0  0  1  0  0  0  0  0  0
  160.4420  203.2980  148.6440 C   0  0  1  0  0  3  0  0  0  0  0  0
  158.7680  201.1410  149.0120 O   0  0  0  0  0  0  0  0  0  0  0  0
  161.1490  202.8670  146.4020 O   0  0  0  0  0  1  0  0  0  0  0  0
  161.4300  201.3120  148.2580 C   0  0  0  0  0  0  0  0  0  0  0  0
  160.1100  201.7120  149.3740 S   0  0  0  0  0  0  0  0  0  0  0  0
  1  4  2  0  0  0  0
  1  3  1  0  0  0  0
  2  9  1  0  0  0  0
  2  1  1  0  0  0  0
  3  8  1  0  0  0  0
  4  7  1  0  0  0  0
  5  3  1  0  0  0  0
  7  8  2  0  0  0  0
  7  6  1  0  0  0  0
  8 17  1  0  0  0  0
  9  5  2  0  0  0  0
 11 10  1  0  0  0  0
 11 14  1  0  0  0  0
 12 17  2  0  0  0  0
 12 15  1  0  0  0  0
 13 10  2  0  0  0  0
 15 11  2  0  0  0  0
 16 15  1  0  0  0  0
 17 13  1  0  0  0  0
 18 21  1  0  0  0  0
 19 18  1  0  0  0  0
 20 21  1  0  0  0  0
 21  9  1  6  0  0  0
 22 19  2  0  0  0  0
 22 20  1  0  0  0  0
 23 22  1  0  0  0  0
 24 25  1  0  0  0  0
 25 23  1  0  0  0  0
 25 26  1  0  0  0  0
 27 25  1  0  0  0  0
 28  4  1  0  0  0  0
 29 30  1  0  0  0  0
 29 28  1  0  0  0  0
 30 35  1  0  0  0  0
 31 29  2  0  0  0  0
 32 33  2  0  0  0  0
 32 31  1  0  0  0  0
 33 34  1  0  0  0  0
 34 36  1  0  0  0  0
 34 30  2  0  0  0  0
 37 43  1  6  0  0  0
 37 44  1  0  0  0  0
 37 41  1  0  0  0  0
 38 44  1  0  0  0  0
 41 45  1  0  0  0  0
 41 36  1  1  0  0  0
 42 45  2  0  0  0  0
 44 40  1  0  0  0  0
 44 45  1  0  0  0  0
 45 39  2  0  0  0  0
M  END
>  <MODEL>
8

>  <REMARK>
 VINA RESULT:      -5.8      2.105      2.997
  Name = 
  8 active torsions:
  status: ('A' for Active; 'I' for Inactive)
    1  A    between atoms: C_6  and  C_32
    2  A    between atoms: C_9  and  N_18
    3  A    between atoms: C_15  and  S_16
    4  A    between atoms: S_16  and  C_36
    5  A    between atoms: C_17  and  C_32
    6  A    between atoms: N_18  and  C_37
    7  A    between atoms: C_28  and  C_34
    8  A    between atoms: C_31  and  C_40
                            x       y       z     vdW  Elec       q    Type
                         _______ _______ _______ _____ _____    ______ ____

>  <TORSDO>
F 8

$$$$
=
 OpenBabel11052410313D

 45 50  0  0  1  0  0  0  0  0999 V2000
  161.9080  211.1720  149.3990 C   0  0  0  0  0  0  0  0  0  0  0  0
  162.6020  209.8160  148.6890 S   0  0  0  0  0  0  0  0  0  0  0  0
  161.3360  210.8810  150.5520 N   0  0  0  0  0  0  0  0  0  0  0  0
  161.7260  212.5010  149.0820 C   0  0  0  0  0  0  0  0  0  0  0  0
  161.3950  209.6150  150.9440 N   0  0  0  0  0  0  0  0  0  0  0  0
  160.4660  214.4180  150.2360 C   0  0  0  0  0  1  0  0  0  0  0  0
  160.9660  213.0160  150.1440 C   0  0  0  0  0  0  0  0  0  0  0  0
  160.7380  211.9730  151.0610 C   0  0  0  0  0  0  0  0  0  0  0  0
  162.0840  208.8790  150.0290 C   0  0  0  0  0  0  0  0  0  0  0  0
  159.7970  211.5610  154.7090 C   0  0  0  0  0  3  0  0  0  0  0  0
  158.4820  212.0370  154.7190 C   0  0  0  0  0  0  0  0  0  0  0  0
  158.6390  212.4850  152.3430 C   0  0  0  0  0  3  0  0  0  0  0  0
  160.5260  211.5430  153.5170 C   0  0  0  0  0  3  0  0  0  0  0  0
  157.7140  212.0370  155.9940 C   0  0  0  0  0  1  0  0  0  0  0  0
  157.9020  212.5030  153.5320 C   0  0  0  0  0  0  0  0  0  0  0  0
  156.6250  212.9610  153.5190 F   0  0  0  0  0  0  0  0  0  0  0  0
  159.9570  212.0040  152.3220 C   0  0  0  0  0  0  0  0  0  0  0  0
  161.0640  206.6560  149.6350 C   0  0  0  0  0  2  0  0  0  0  0  0
  160.5410  205.9550  150.7990 N   0  0  0  0  0  0  0  0  0  0  0  0
  162.4010  207.0310  151.5460 N   0  0  0  0  0  2  0  0  0  0  0  0
  162.2990  207.4060  150.1460 C   0  0  2  0  0  3  0  0  0  0  0  0
  161.2960  206.1890  151.8120 C   0  0  0  0  0  0  0  0  0  0  0  0
  160.9530  205.5250  153.4420 S   0  0  0  0  0  0  0  0  0  0  0  0
  159.7170  207.0920  155.3370 C   0  0  0  0  0  1  0  0  0  0  0  0
  160.7820  207.1510  154.2580 C   0  0  0  0  0  0  0  0  0  0  0  0
  160.4530  208.1180  153.3290 F   0  0  0  0  0  0  0  0  0  0  0  0
  161.9860  207.4860  154.8410 F   0  0  0  0  0  0  0  0  0  0  0  0
  162.0720  213.2100  147.8080 C   0  0  0  0  0  2  0  0  0  0  0  0
  160.9860  213.1060  146.7860 C   0  0  0  0  0  0  0  0  0  0  0  0
  161.1090  213.7190  145.5270 C   0  0  0  0  0  0  0  0  0  0  0  0
  159.8300  212.3820  147.0990 C   0  0  0  0  0  3  0  0  0  0  0  0
  158.7960  212.2720  146.1690 C   0  0  0  0  0  3  0  0  0  0  0  0
  158.9150  212.8830  144.9200 C   0  0  0  0  0  3  0  0  0  0  0  0
  160.0700  213.6070  144.5900 C   0  0  0  0  0  0  0  0  0  0  0  0
  162.2260  214.4290  145.2180 F   0  0  0  0  0  0  0  0  0  0  0  0
  160.1960  214.2510  143.3150 N   0  0  0  0  0  2  0  0  0  0  0  0
  161.7450  212.5320  142.5420 C   0  0  2  0  0  3  0  0  0  0  0  0
  162.3210  211.6280  140.1820 C   0  0  0  0  0  1  0  0  0  0  0  0
  159.1740  213.8740  140.5950 O   0  0  0  0  0  0  0  0  0  0  0  0
  160.1040  211.1160  141.2480 C   0  0  0  0  0  1  0  0  0  0  0  0
  161.2920  213.9860  142.3920 C   0  0  1  0  0  3  0  0  0  0  0  0
  161.4470  214.4530  139.6810 O   0  0  0  0  0  0  0  0  0  0  0  0
  163.1380  212.4880  142.6370 O   0  0  0  0  0  1  0  0  0  0  0  0
  161.2450  212.1100  141.1470 C   0  0  0  0  0  0  0  0  0  0  0  0
  160.6660  213.7380  140.7470 S   0  0  0  0  0  0  0  0  0  0  0  0
  1  3  1  0  0  0  0
  2  1  1  0  0  0  0
  2  9  1  0  0  0  0
  3  5  1  0  0  0  0
  3  8  1  0  0  0  0
  4  1  2  0  0  0  0
  4  7  1  0  0  0  0
  7  6  1  0  0  0  0
  7  8  2  0  0  0  0
  8 17  1  0  0  0  0
  9  5  2  0  0  0  0
 10 11  1  0  0  0  0
 11 14  1  0  0  0  0
 12 15  1  0  0  0  0
 13 10  2  0  0  0  0
 15 11  2  0  0  0  0
 16 15  1  0  0  0  0
 17 12  2  0  0  0  0
 17 13  1  0  0  0  0
 18 21  1  0  0  0  0
 18 19  1  0  0  0  0
 19 22  2  0  0  0  0
 20 22  1  0  0  0  0
 21  9  1  1  0  0  0
 21 20  1  0  0  0  0
 22 23  1  0  0  0  0
 23 25  1  0  0  0  0
 25 27  1  0  0  0  0
 25 24  1  0  0  0  0
 26 25  1  0  0  0  0
 28  4  1  0  0  0  0
 29 31  1  0  0  0  0
 29 28  1  0  0  0  0
 30 29  2  0  0  0  0
 32 31  2  0  0  0  0
 33 32  1  0  0  0  0
 34 33  2  0  0  0  0
 34 30  1  0  0  0  0
 35 30  1  0  0  0  0
 36 34  1  0  0  0  0
 37 43  1  6  0  0  0
 38 44  1  0  0  0  0
 39 45  2  0  0  0  0
 41 37  1  0  0  0  0
 41 36  1  1  0  0  0
 42 45  2  0  0  0  0
 44 40  1  0  0  0  0
 44 37  1  0  0  0  0
 45 44  1  0  0  0  0
 45 41  1  0  0  0  0
M  END
>  <MODEL>
9

>  <REMARK>
 VINA RESULT:      -5.4      3.526      7.926
  Name = 
  8 active torsions:
  status: ('A' for Active; 'I' for Inactive)
    1  A    between atoms: C_6  and  C_32
    2  A    between atoms: C_9  and  N_18
    3  A    between atoms: C_15  and  S_16
    4  A    between atoms: S_16  and  C_36
    5  A    between atoms: C_17  and  C_32
    6  A    between atoms: N_18  and  C_37
    7  A    between atoms: C_28  and  C_34
    8  A    between atoms: C_31  and  C_40
                            x       y       z     vdW  Elec       q    Type
                         _______ _______ _______ _____ _____    ______ ____

>  <TORSDO>
F 8

$$$$
