=
 OpenBabel11042421073D

 36 38  0  0  1  0  0  0  0  0999 V2000
  161.2910  207.2350  151.2840 C   0  0  0  0  0  0  0  0  0  0  0  0
  161.6960  207.9130  150.1730 N   0  0  0  0  0  0  0  0  0  0  0  0
  161.7890  209.2690  150.1620 C   0  0  0  0  0  0  0  0  0  0  0  0
  161.4870  209.9800  151.2790 N   0  0  0  0  0  0  0  0  0  0  0  0
  160.9790  207.9630  152.4400 C   0  0  0  0  0  3  0  0  0  0  0  0
  161.0830  209.3520  152.4170 C   0  0  0  0  0  0  0  0  0  0  0  0
  161.1360  203.5740  152.2560 N   0  0  0  0  0  2  0  0  0  0  0  0
  161.2520  205.4170  153.5560 O   0  0  0  0  0  0  0  0  0  0  0  0
  161.2100  205.7470  151.2450 C   0  0  0  0  0  0  0  0  0  0  0  0
  161.1450  205.1170  149.9960 C   0  0  0  0  0  3  0  0  0  0  0  0
  161.2020  204.9260  152.3960 C   0  0  0  0  0  0  0  0  0  0  0  0
  161.0770  202.9930  151.0560 N   0  0  0  0  0  0  0  0  0  0  0  0
  161.0790  203.7280  149.9160 C   0  0  0  0  0  0  0  0  0  0  0  0
  161.0330  203.0740  148.6380 C   0  0  0  0  0  0  0  0  0  0  0  0
  160.9810  202.5290  147.5650 C   0  0  0  0  0  0  0  0  0  0  0  0
  160.9020  201.8740  146.2590 C   0  0  0  0  0  2  0  0  0  0  0  0
  161.7220  203.8640  145.3630 C   0  0  0  0  0  1  0  0  0  0  0  0
  160.6680  202.8690  145.2290 N   0  0  0  0  0  2  0  0  0  0  0  0
  162.2600  209.9720  148.9390 C   0  0  0  0  0  2  0  0  0  0  0  0
  161.9910  211.4580  149.0660 C   0  0  0  0  0  2  0  0  0  0  0  0
  162.5660  212.1780  147.8660 C   0  0  0  0  0  2  0  0  0  0  0  0
  161.7190  213.3970  147.5550 C   0  0  0  0  0  2  0  0  0  0  0  0
  160.4780  212.1450  145.9000 O   0  0  0  0  0  0  0  0  0  0  0  0
  159.6990  213.2970  145.9610 N   0  0  0  0  0  0  0  0  0  0  0  0
  161.1370  213.3060  146.1410 C   0  0  1  0  0  0  0  0  0  0  0  0
  157.0800  212.8190  148.5670 O   0  0  0  0  0  1  0  0  0  0  0  0
  159.0500  213.2760  147.2070 N   0  0  0  0  0  2  0  0  0  0  0  0
  157.7210  212.7740  147.3350 C   0  0  0  0  0  0  0  0  0  0  0  0
  157.1180  212.3020  146.3340 O   0  0  0  0  0  0  0  0  0  0  0  0
  162.5960  213.0200  144.3130 O   0  0  0  0  0  0  0  0  0  0  0  0
  161.9050  213.7920  144.9570 C   0  0  0  0  0  3  0  0  0  0  0  0
  160.7790  210.0800  153.5680 O   0  0  0  0  0  0  0  0  0  0  0  0
  161.6750  210.1560  154.6670 C   0  0  0  0  0  2  0  0  0  0  0  0
  159.9120  209.5460  156.1470 O   0  0  0  0  0  0  0  0  0  0  0  0
  161.1190  209.4020  155.8230 C   0  0  0  0  0  0  0  0  0  0  0  0
  161.9430  208.4920  156.5420 N   0  0  0  0  0  1  0  0  0  0  0  0
  1  5  2  0  0  0  0
  2  1  1  0  0  0  0
  3  2  2  0  0  0  0
  3  4  1  0  0  0  0
  4  6  2  0  0  0  0
  6  5  1  0  0  0  0
  6 32  1  0  0  0  0
  7 11  1  0  0  0  0
  9  1  1  0  0  0  0
  9 11  1  0  0  0  0
 10  9  2  0  0  0  0
 11  8  2  0  0  0  0
 12  7  1  0  0  0  0
 13 10  1  0  0  0  0
 13 12  2  0  0  0  0
 14 13  1  0  0  0  0
 15 14  3  0  0  0  0
 16 15  1  0  0  0  0
 18 17  1  0  0  0  0
 18 16  1  0  0  0  0
 19 20  1  0  0  0  0
 19  3  1  0  0  0  0
 21 20  1  0  0  0  0
 22 21  1  0  0  0  0
 23 24  1  0  0  0  0
 23 25  1  0  0  0  0
 24 25  1  0  0  0  0
 24 27  1  0  0  0  0
 25 31  1  6  0  0  0
 25 22  1  0  0  0  0
 27 28  1  0  0  0  0
 28 26  1  0  0  0  0
 29 28  2  0  0  0  0
 30 31  2  0  0  0  0
 32 33  1  0  0  0  0
 33 35  1  0  0  0  0
 35 34  2  0  0  0  0
 35 36  1  0  0  0  0
M  END
>  <MODEL>
1

>  <REMARK>
 VINA RESULT:      -7.5      0.000      0.000
  Name = 
  14 active torsions:
  status: ('A' for Active; 'I' for Inactive)
    1  A    between atoms: C_4  and  C_7
    2  A    between atoms: C_8  and  C_12
    3  A    between atoms: C_8  and  O_33
    4  A    between atoms: C_9  and  C_18
    5  A    between atoms: C_9  and  C_27
    6  A    between atoms: C_11  and  C_35
    7  A    between atoms: C_15  and  C_21
    8  A    between atoms: N_16  and  N_23
    9  A    between atoms: C_18  and  C_29
   10  A    between atoms: C_19  and  N_31
   11  A    between atoms: C_19  and  C_34
   12  A    between atoms: C_21  and  C_29
   13  A    between atoms: C_24  and  C_27
   14  A    between atoms: O_33  and  C_36
                            x       y       z     vdW  Elec       q    Type
                         _______ _______ _______ _____ _____    ______ ____

>  <TORSDO>
F 14

$$$$
=
 OpenBabel11042421073D

 36 38  0  0  1  0  0  0  0  0999 V2000
  161.3450  207.3950  151.5420 C   0  0  0  0  0  0  0  0  0  0  0  0
  160.9680  207.7860  152.7920 N   0  0  0  0  0  0  0  0  0  0  0  0
  161.0220  209.0890  153.1760 C   0  0  0  0  0  0  0  0  0  0  0  0
  161.4470  210.0380  152.3020 N   0  0  0  0  0  0  0  0  0  0  0  0
  161.7840  208.3690  150.6350 C   0  0  0  0  0  3  0  0  0  0  0  0
  161.8290  209.7020  151.0400 C   0  0  0  0  0  0  0  0  0  0  0  0
  161.0940  203.6140  151.6680 N   0  0  0  0  0  2  0  0  0  0  0  0
  161.0990  205.1250  153.3460 O   0  0  0  0  0  0  0  0  0  0  0  0
  161.2630  205.9540  151.1700 C   0  0  0  0  0  0  0  0  0  0  0  0
  161.3080  205.6140  149.8120 C   0  0  0  0  0  3  0  0  0  0  0  0
  161.1510  204.9010  152.1070 C   0  0  0  0  0  0  0  0  0  0  0  0
  161.1400  203.3110  150.3690 N   0  0  0  0  0  0  0  0  0  0  0  0
  161.2450  204.2780  149.4230 C   0  0  0  0  0  0  0  0  0  0  0  0
  161.3120  203.9210  148.0340 C   0  0  0  0  0  0  0  0  0  0  0  0
  161.3570  203.6130  146.8700 C   0  0  0  0  0  0  0  0  0  0  0  0
  161.3950  203.2310  145.4580 C   0  0  0  0  0  2  0  0  0  0  0  0
  161.3250  205.2860  144.3600 C   0  0  0  0  0  1  0  0  0  0  0  0
  160.5330  204.1110  144.6920 N   0  0  0  0  0  2  0  0  0  0  0  0
  160.5780  209.4810  154.5400 C   0  0  0  0  0  2  0  0  0  0  0  0
  160.5820  210.9910  154.6660 C   0  0  0  0  0  2  0  0  0  0  0  0
  159.2060  211.4650  155.0820 C   0  0  0  0  0  2  0  0  0  0  0  0
  158.3030  211.5210  153.8640 C   0  0  0  0  0  2  0  0  0  0  0  0
  157.5690  213.7590  154.4080 O   0  0  0  0  0  0  0  0  0  0  0  0
  156.9680  213.6080  153.1610 N   0  0  0  0  0  0  0  0  0  0  0  0
  157.1540  212.5080  154.0880 C   0  0  1  0  0  0  0  0  0  0  0  0
  158.7610  213.7060  149.8980 O   0  0  0  0  0  0  0  0  0  0  0  0
  158.0040  213.6290  152.2130 N   0  0  0  0  0  2  0  0  0  0  0  0
  157.7220  213.7490  150.8190 C   0  0  0  0  0  0  0  0  0  0  0  0
  156.5360  213.8800  150.4180 O   0  0  0  0  0  1  0  0  0  0  0  0
  155.7130  210.9270  155.0750 O   0  0  0  0  0  0  0  0  0  0  0  0
  155.9180  212.1020  154.8210 C   0  0  0  0  0  3  0  0  0  0  0  0
  162.2600  210.6760  150.1380 O   0  0  0  0  0  0  0  0  0  0  0  0
  162.0700  210.5380  148.7370 C   0  0  0  0  0  2  0  0  0  0  0  0
  160.9740  212.3900  147.7160 O   0  0  0  0  0  0  0  0  0  0  0  0
  162.0600  211.8820  148.0960 C   0  0  0  0  0  0  0  0  0  0  0  0
  163.2750  212.6060  147.9440 N   0  0  0  0  0  1  0  0  0  0  0  0
  1  2  1  0  0  0  0
  2  3  2  0  0  0  0
  3 19  1  0  0  0  0
  4  3  1  0  0  0  0
  5  6  1  0  0  0  0
  5  1  2  0  0  0  0
  6  4  2  0  0  0  0
  7 11  1  0  0  0  0
  9  1  1  0  0  0  0
  9 11  1  0  0  0  0
 10  9  2  0  0  0  0
 11  8  2  0  0  0  0
 12  7  1  0  0  0  0
 13 10  1  0  0  0  0
 13 12  2  0  0  0  0
 14 13  1  0  0  0  0
 15 14  3  0  0  0  0
 16 15  1  0  0  0  0
 17 18  1  0  0  0  0
 18 16  1  0  0  0  0
 19 20  1  0  0  0  0
 20 21  1  0  0  0  0
 22 21  1  0  0  0  0
 24 25  1  0  0  0  0
 24 23  1  0  0  0  0
 25 22  1  6  0  0  0
 25 23  1  0  0  0  0
 25 31  1  0  0  0  0
 26 28  2  0  0  0  0
 27 24  1  0  0  0  0
 28 27  1  0  0  0  0
 29 28  1  0  0  0  0
 31 30  2  0  0  0  0
 32  6  1  0  0  0  0
 33 32  1  0  0  0  0
 34 35  2  0  0  0  0
 35 33  1  0  0  0  0
 36 35  1  0  0  0  0
M  END
>  <MODEL>
2

>  <REMARK>
 VINA RESULT:      -7.5      2.773      5.539
  Name = 
  14 active torsions:
  status: ('A' for Active; 'I' for Inactive)
    1  A    between atoms: C_4  and  C_7
    2  A    between atoms: C_8  and  C_12
    3  A    between atoms: C_8  and  O_33
    4  A    between atoms: C_9  and  C_18
    5  A    between atoms: C_9  and  C_27
    6  A    between atoms: C_11  and  C_35
    7  A    between atoms: C_15  and  C_21
    8  A    between atoms: N_16  and  N_23
    9  A    between atoms: C_18  and  C_29
   10  A    between atoms: C_19  and  N_31
   11  A    between atoms: C_19  and  C_34
   12  A    between atoms: C_21  and  C_29
   13  A    between atoms: C_24  and  C_27
   14  A    between atoms: O_33  and  C_36
                            x       y       z     vdW  Elec       q    Type
                         _______ _______ _______ _____ _____    ______ ____

>  <TORSDO>
F 14

$$$$
=
 OpenBabel11042421073D

 36 38  0  0  1  0  0  0  0  0999 V2000
  161.0280  208.1940  152.9430 C   0  0  0  0  0  0  0  0  0  0  0  0
  161.3000  208.6200  151.6770 N   0  0  0  0  0  0  0  0  0  0  0  0
  161.7330  207.7620  150.7160 C   0  0  0  0  0  0  0  0  0  0  0  0
  161.8920  206.4440  151.0040 N   0  0  0  0  0  0  0  0  0  0  0  0
  161.1890  206.8350  153.2460 C   0  0  0  0  0  3  0  0  0  0  0  0
  161.6280  205.9650  152.2500 C   0  0  0  0  0  0  0  0  0  0  0  0
  160.3930  210.0540  156.1850 N   0  0  0  0  0  2  0  0  0  0  0  0
  161.6390  208.2130  155.7890 O   0  0  0  0  0  0  0  0  0  0  0  0
  160.5530  209.1750  153.9600 C   0  0  0  0  0  0  0  0  0  0  0  0
  159.7160  210.2170  153.5390 C   0  0  0  0  0  3  0  0  0  0  0  0
  160.8880  209.1160  155.3320 C   0  0  0  0  0  0  0  0  0  0  0  0
  159.5950  211.0380  155.7640 N   0  0  0  0  0  0  0  0  0  0  0  0
  159.2410  211.1490  154.4590 C   0  0  0  0  0  0  0  0  0  0  0  0
  158.3670  212.2060  154.0380 C   0  0  0  0  0  0  0  0  0  0  0  0
  157.6290  213.0950  153.6970 C   0  0  0  0  0  0  0  0  0  0  0  0
  156.7280  214.1780  153.3010 C   0  0  0  0  0  2  0  0  0  0  0  0
  155.4140  213.9580  155.2140 C   0  0  0  0  0  1  0  0  0  0  0  0
  155.3840  213.8850  153.7600 N   0  0  0  0  0  2  0  0  0  0  0  0
  161.9950  208.2580  149.3390 C   0  0  0  0  0  2  0  0  0  0  0  0
  161.2690  207.3880  148.3330 C   0  0  0  0  0  2  0  0  0  0  0  0
  162.2820  206.6630  147.4730 C   0  0  0  0  0  2  0  0  0  0  0  0
  161.8830  205.2050  147.3470 C   0  0  0  0  0  2  0  0  0  0  0  0
  162.5300  204.0850  145.3040 O   0  0  0  0  0  0  0  0  0  0  0  0
  161.3000  203.4740  145.5300 N   0  0  0  0  0  0  0  0  0  0  0  0
  161.5770  204.8520  145.8880 C   0  0  1  0  0  0  0  0  0  0  0  0
  161.1200  200.5020  147.7680 O   0  0  0  0  0  1  0  0  0  0  0  0
  161.4680  202.6370  146.6460 N   0  0  0  0  0  2  0  0  0  0  0  0
  160.9940  201.2910  146.6310 C   0  0  0  0  0  0  0  0  0  0  0  0
  160.4510  200.8170  145.5990 O   0  0  0  0  0  0  0  0  0  0  0  0
  159.8750  206.3060  145.1520 O   0  0  0  0  0  0  0  0  0  0  0  0
  160.9940  205.8610  144.9550 C   0  0  0  0  0  3  0  0  0  0  0  0
  161.7840  204.6100  152.5450 O   0  0  0  0  0  0  0  0  0  0  0  0
  160.7280  203.6770  152.3680 C   0  0  0  0  0  2  0  0  0  0  0  0
  161.6050  201.8150  151.1710 O   0  0  0  0  0  0  0  0  0  0  0  0
  160.9550  202.8910  151.1250 C   0  0  0  0  0  0  0  0  0  0  0  0
  160.4090  203.3390  149.8910 N   0  0  0  0  0  1  0  0  0  0  0  0
  1  5  2  0  0  0  0
  1  9  1  0  0  0  0
  2  1  1  0  0  0  0
  3  4  1  0  0  0  0
  3  2  2  0  0  0  0
  4  6  2  0  0  0  0
  6 32  1  0  0  0  0
  6  5  1  0  0  0  0
  9 11  1  0  0  0  0
 10  9  2  0  0  0  0
 10 13  1  0  0  0  0
 11  8  2  0  0  0  0
 11  7  1  0  0  0  0
 12  7  1  0  0  0  0
 13 12  2  0  0  0  0
 14 13  1  0  0  0  0
 15 14  3  0  0  0  0
 16 15  1  0  0  0  0
 16 18  1  0  0  0  0
 18 17  1  0  0  0  0
 19  3  1  0  0  0  0
 20 19  1  0  0  0  0
 21 20  1  0  0  0  0
 22 21  1  0  0  0  0
 23 24  1  0  0  0  0
 23 25  1  0  0  0  0
 24 25  1  0  0  0  0
 24 27  1  0  0  0  0
 25 31  1  6  0  0  0
 25 22  1  0  0  0  0
 28 27  1  0  0  0  0
 28 26  1  0  0  0  0
 29 28  2  0  0  0  0
 31 30  2  0  0  0  0
 33 32  1  0  0  0  0
 35 34  2  0  0  0  0
 35 33  1  0  0  0  0
 36 35  1  0  0  0  0
M  END
>  <MODEL>
3

>  <REMARK>
 VINA RESULT:      -7.2      3.900      8.622
  Name = 
  14 active torsions:
  status: ('A' for Active; 'I' for Inactive)
    1  A    between atoms: C_4  and  C_7
    2  A    between atoms: C_8  and  C_12
    3  A    between atoms: C_8  and  O_33
    4  A    between atoms: C_9  and  C_18
    5  A    between atoms: C_9  and  C_27
    6  A    between atoms: C_11  and  C_35
    7  A    between atoms: C_15  and  C_21
    8  A    between atoms: N_16  and  N_23
    9  A    between atoms: C_18  and  C_29
   10  A    between atoms: C_19  and  N_31
   11  A    between atoms: C_19  and  C_34
   12  A    between atoms: C_21  and  C_29
   13  A    between atoms: C_24  and  C_27
   14  A    between atoms: O_33  and  C_36
                            x       y       z     vdW  Elec       q    Type
                         _______ _______ _______ _____ _____    ______ ____

>  <TORSDO>
F 14

$$$$
=
 OpenBabel11042421073D

 36 38  0  0  1  0  0  0  0  0999 V2000
  161.2600  207.2770  151.7580 C   0  0  0  0  0  0  0  0  0  0  0  0
  161.6600  208.2830  150.9300 N   0  0  0  0  0  0  0  0  0  0  0  0
  161.7080  209.5740  151.3510 C   0  0  0  0  0  0  0  0  0  0  0  0
  161.3650  209.8860  152.6280 N   0  0  0  0  0  0  0  0  0  0  0  0
  160.9060  207.5920  153.0770 C   0  0  0  0  0  3  0  0  0  0  0  0
  160.9650  208.9190  153.4980 C   0  0  0  0  0  0  0  0  0  0  0  0
  161.1570  203.4950  151.5160 N   0  0  0  0  0  2  0  0  0  0  0  0
  161.1290  204.8350  153.3340 O   0  0  0  0  0  0  0  0  0  0  0  0
  161.2280  205.8770  151.2470 C   0  0  0  0  0  0  0  0  0  0  0  0
  161.2660  205.6730  149.8620 C   0  0  0  0  0  3  0  0  0  0  0  0
  161.1710  204.7350  152.0780 C   0  0  0  0  0  0  0  0  0  0  0  0
  161.1960  203.3220  150.1930 N   0  0  0  0  0  0  0  0  0  0  0  0
  161.2490  204.3800  149.3450 C   0  0  0  0  0  0  0  0  0  0  0  0
  161.3080  204.1630  147.9270 C   0  0  0  0  0  0  0  0  0  0  0  0
  161.3690  203.9730  146.7390 C   0  0  0  0  0  0  0  0  0  0  0  0
  161.4570  203.7320  145.2990 C   0  0  0  0  0  2  0  0  0  0  0  0
  160.4710  205.8240  145.0130 C   0  0  0  0  0  1  0  0  0  0  0  0
  161.5940  204.9960  144.6000 N   0  0  0  0  0  2  0  0  0  0  0  0
  162.1750  210.6420  150.4270 C   0  0  0  0  0  2  0  0  0  0  0  0
  161.9400  210.2170  148.9910 C   0  0  0  0  0  2  0  0  0  0  0  0
  162.0340  211.4270  148.0870 C   0  0  0  0  0  2  0  0  0  0  0  0
  161.7440  212.6800  148.8900 C   0  0  0  0  0  2  0  0  0  0  0  0
  159.5560  213.0010  147.9130 O   0  0  0  0  0  0  0  0  0  0  0  0
  159.5650  214.0530  148.8250 N   0  0  0  0  0  0  0  0  0  0  0  0
  160.7570  213.5850  148.1450 C   0  0  1  0  0  0  0  0  0  0  0  0
  158.1500  212.7870  152.0290 O   0  0  0  0  0  1  0  0  0  0  0  0
  159.4730  213.4760  150.1030 N   0  0  0  0  0  2  0  0  0  0  0  0
  158.2090  213.3040  150.7410 C   0  0  0  0  0  0  0  0  0  0  0  0
  157.1460  213.6320  150.1500 O   0  0  0  0  0  0  0  0  0  0  0  0
  161.9770  214.0190  146.1760 O   0  0  0  0  0  0  0  0  0  0  0  0
  161.2060  214.4530  147.0170 C   0  0  0  0  0  3  0  0  0  0  0  0
  160.6190  209.2350  154.8120 O   0  0  0  0  0  0  0  0  0  0  0  0
  161.5750  209.2330  155.8620 C   0  0  0  0  0  2  0  0  0  0  0  0
  161.2340  211.5700  156.1650 O   0  0  0  0  0  0  0  0  0  0  0  0
  162.0560  210.6190  156.1070 C   0  0  0  0  0  0  0  0  0  0  0  0
  163.4420  210.8660  156.3090 N   0  0  0  0  0  1  0  0  0  0  0  0
  1  5  2  0  0  0  0
  2  3  2  0  0  0  0
  2  1  1  0  0  0  0
  3  4  1  0  0  0  0
  4  6  2  0  0  0  0
  5  6  1  0  0  0  0
  6 32  1  0  0  0  0
  7 11  1  0  0  0  0
  9  1  1  0  0  0  0
  9 11  1  0  0  0  0
 10  9  2  0  0  0  0
 11  8  2  0  0  0  0
 12  7  1  0  0  0  0
 13 10  1  0  0  0  0
 13 12  2  0  0  0  0
 14 13  1  0  0  0  0
 15 14  3  0  0  0  0
 16 15  1  0  0  0  0
 18 17  1  0  0  0  0
 18 16  1  0  0  0  0
 19  3  1  0  0  0  0
 20 19  1  0  0  0  0
 21 22  1  0  0  0  0
 21 20  1  0  0  0  0
 23 25  1  0  0  0  0
 23 24  1  0  0  0  0
 24 27  1  0  0  0  0
 25 31  1  6  0  0  0
 25 24  1  0  0  0  0
 25 22  1  0  0  0  0
 27 28  1  0  0  0  0
 28 26  1  0  0  0  0
 29 28  2  0  0  0  0
 30 31  2  0  0  0  0
 32 33  1  0  0  0  0
 33 35  1  0  0  0  0
 35 34  2  0  0  0  0
 35 36  1  0  0  0  0
M  END
>  <MODEL>
4

>  <REMARK>
 VINA RESULT:      -7.1      1.682      1.951
  Name = 
  14 active torsions:
  status: ('A' for Active; 'I' for Inactive)
    1  A    between atoms: C_4  and  C_7
    2  A    between atoms: C_8  and  C_12
    3  A    between atoms: C_8  and  O_33
    4  A    between atoms: C_9  and  C_18
    5  A    between atoms: C_9  and  C_27
    6  A    between atoms: C_11  and  C_35
    7  A    between atoms: C_15  and  C_21
    8  A    between atoms: N_16  and  N_23
    9  A    between atoms: C_18  and  C_29
   10  A    between atoms: C_19  and  N_31
   11  A    between atoms: C_19  and  C_34
   12  A    between atoms: C_21  and  C_29
   13  A    between atoms: C_24  and  C_27
   14  A    between atoms: O_33  and  C_36
                            x       y       z     vdW  Elec       q    Type
                         _______ _______ _______ _____ _____    ______ ____

>  <TORSDO>
F 14

$$$$
=
 OpenBabel11042421073D

 36 38  0  0  1  0  0  0  0  0999 V2000
  161.2260  207.4510  151.1410 C   0  0  0  0  0  0  0  0  0  0  0  0
  161.6790  208.5160  150.4210 N   0  0  0  0  0  0  0  0  0  0  0  0
  161.8160  208.4550  149.0710 C   0  0  0  0  0  0  0  0  0  0  0  0
  161.4880  207.3170  148.4050 N   0  0  0  0  0  0  0  0  0  0  0  0
  160.8840  206.2750  150.4610 C   0  0  0  0  0  3  0  0  0  0  0  0
  161.0240  206.2270  149.0750 C   0  0  0  0  0  0  0  0  0  0  0  0
  160.9910  206.6850  154.8470 N   0  0  0  0  0  2  0  0  0  0  0  0
  161.3140  205.2960  153.0960 O   0  0  0  0  0  0  0  0  0  0  0  0
  161.0900  207.5710  152.6210 C   0  0  0  0  0  0  0  0  0  0  0  0
  160.8960  208.8450  153.1700 C   0  0  0  0  0  3  0  0  0  0  0  0
  161.1370  206.4730  153.5100 C   0  0  0  0  0  0  0  0  0  0  0  0
  160.8040  207.9070  155.3490 N   0  0  0  0  0  0  0  0  0  0  0  0
  160.7530  208.9990  154.5470 C   0  0  0  0  0  0  0  0  0  0  0  0
  160.5330  210.3000  155.1140 C   0  0  0  0  0  0  0  0  0  0  0  0
  160.3360  211.3910  155.5830 C   0  0  0  0  0  0  0  0  0  0  0  0
  160.0800  212.7170  156.1460 C   0  0  0  0  0  2  0  0  0  0  0  0
  158.8350  213.5300  154.3510 C   0  0  0  0  0  1  0  0  0  0  0  0
  158.7560  213.1640  155.7580 N   0  0  0  0  0  2  0  0  0  0  0  0
  162.2890  209.6460  148.3160 C   0  0  0  0  0  2  0  0  0  0  0  0
  161.9850  210.9050  149.1010 C   0  0  0  0  0  2  0  0  0  0  0  0
  162.6120  212.0940  148.4060 C   0  0  0  0  0  2  0  0  0  0  0  0
  161.5780  213.1930  148.2570 C   0  0  0  0  0  2  0  0  0  0  0  0
  160.4340  212.2680  146.3380 O   0  0  0  0  0  0  0  0  0  0  0  0
  159.7320  213.4620  146.4810 N   0  0  0  0  0  0  0  0  0  0  0  0
  161.1410  213.3310  146.7950 C   0  0  1  0  0  0  0  0  0  0  0  0
  156.8610  212.7620  148.7490 O   0  0  0  0  0  1  0  0  0  0  0  0
  158.9570  213.3340  147.6460 N   0  0  0  0  0  2  0  0  0  0  0  0
  157.6270  212.8220  147.5910 C   0  0  0  0  0  0  0  0  0  0  0  0
  157.1360  212.4370  146.4970 O   0  0  0  0  0  0  0  0  0  0  0  0
  162.6260  213.1670  144.9720 O   0  0  0  0  0  0  0  0  0  0  0  0
  162.0590  213.9010  145.7650 C   0  0  0  0  0  3  0  0  0  0  0  0
  160.6790  205.0590  148.3920 O   0  0  0  0  0  0  0  0  0  0  0  0
  161.6440  204.0750  148.0520 C   0  0  0  0  0  2  0  0  0  0  0  0
  163.1520  204.9130  146.4090 O   0  0  0  0  0  0  0  0  0  0  0  0
  162.0930  204.2760  146.6470 C   0  0  0  0  0  0  0  0  0  0  0  0
  161.3420  203.7210  145.5750 N   0  0  0  0  0  1  0  0  0  0  0  0
  1  9  1  0  0  0  0
  2  1  1  0  0  0  0
  3  2  2  0  0  0  0
  4  3  1  0  0  0  0
  4  6  2  0  0  0  0
  5  1  2  0  0  0  0
  6  5  1  0  0  0  0
  7 12  1  0  0  0  0
  8 11  2  0  0  0  0
  9 10  2  0  0  0  0
  9 11  1  0  0  0  0
 10 13  1  0  0  0  0
 11  7  1  0  0  0  0
 13 14  1  0  0  0  0
 13 12  2  0  0  0  0
 14 15  3  0  0  0  0
 15 16  1  0  0  0  0
 17 18  1  0  0  0  0
 18 16  1  0  0  0  0
 19  3  1  0  0  0  0
 19 20  1  0  0  0  0
 21 20  1  0  0  0  0
 22 21  1  0  0  0  0
 23 24  1  0  0  0  0
 23 25  1  0  0  0  0
 24 25  1  0  0  0  0
 24 27  1  0  0  0  0
 25 31  1  6  0  0  0
 25 22  1  0  0  0  0
 28 27  1  0  0  0  0
 28 26  1  0  0  0  0
 29 28  2  0  0  0  0
 30 31  2  0  0  0  0
 32  6  1  0  0  0  0
 33 32  1  0  0  0  0
 34 35  2  0  0  0  0
 35 33  1  0  0  0  0
 36 35  1  0  0  0  0
M  END
>  <MODEL>
5

>  <REMARK>
 VINA RESULT:      -7.0      2.273      6.587
  Name = 
  14 active torsions:
  status: ('A' for Active; 'I' for Inactive)
    1  A    between atoms: C_4  and  C_7
    2  A    between atoms: C_8  and  C_12
    3  A    between atoms: C_8  and  O_33
    4  A    between atoms: C_9  and  C_18
    5  A    between atoms: C_9  and  C_27
    6  A    between atoms: C_11  and  C_35
    7  A    between atoms: C_15  and  C_21
    8  A    between atoms: N_16  and  N_23
    9  A    between atoms: C_18  and  C_29
   10  A    between atoms: C_19  and  N_31
   11  A    between atoms: C_19  and  C_34
   12  A    between atoms: C_21  and  C_29
   13  A    between atoms: C_24  and  C_27
   14  A    between atoms: O_33  and  C_36
                            x       y       z     vdW  Elec       q    Type
                         _______ _______ _______ _____ _____    ______ ____

>  <TORSDO>
F 14

$$$$
=
 OpenBabel11042421073D

 36 38  0  0  1  0  0  0  0  0999 V2000
  161.5080  207.3190  151.2010 C   0  0  0  0  0  0  0  0  0  0  0  0
  161.4600  208.0100  152.3740 N   0  0  0  0  0  0  0  0  0  0  0  0
  161.6220  209.3590  152.4120 C   0  0  0  0  0  0  0  0  0  0  0  0
  161.8260  210.0520  151.2610 N   0  0  0  0  0  0  0  0  0  0  0  0
  161.7170  208.0280  150.0090 C   0  0  0  0  0  3  0  0  0  0  0  0
  161.8760  209.4110  150.0620 C   0  0  0  0  0  0  0  0  0  0  0  0
  161.0790  203.7160  152.3000 N   0  0  0  0  0  2  0  0  0  0  0  0
  161.3110  205.5920  153.5350 O   0  0  0  0  0  0  0  0  0  0  0  0
  161.3210  205.8400  151.2130 C   0  0  0  0  0  0  0  0  0  0  0  0
  161.2250  205.1710  149.9870 C   0  0  0  0  0  3  0  0  0  0  0  0
  161.2400  205.0650  152.3920 C   0  0  0  0  0  0  0  0  0  0  0  0
  160.9930  203.0970  151.1200 N   0  0  0  0  0  0  0  0  0  0  0  0
  161.0600  203.7880  149.9550 C   0  0  0  0  0  0  0  0  0  0  0  0
  160.9830  203.0940  148.7010 C   0  0  0  0  0  0  0  0  0  0  0  0
  160.9120  202.5000  147.6550 C   0  0  0  0  0  0  0  0  0  0  0  0
  160.8150  201.7670  146.3930 C   0  0  0  0  0  2  0  0  0  0  0  0
  161.5640  203.8730  145.7300 C   0  0  0  0  0  1  0  0  0  0  0  0
  160.8220  202.7020  145.2840 N   0  0  0  0  0  2  0  0  0  0  0  0
  161.5380  210.0820  153.7090 C   0  0  0  0  0  2  0  0  0  0  0  0
  160.7710  211.3770  153.5260 C   0  0  0  0  0  2  0  0  0  0  0  0
  159.3700  211.2130  154.0720 C   0  0  0  0  0  2  0  0  0  0  0  0
  158.3640  211.5130  152.9770 C   0  0  0  0  0  2  0  0  0  0  0  0
  157.0220  213.4680  152.5060 O   0  0  0  0  0  0  0  0  0  0  0  0
  157.6370  213.8810  153.6840 N   0  0  0  0  0  0  0  0  0  0  0  0
  158.2850  213.0200  152.7140 C   0  0  1  0  0  0  0  0  0  0  0  0
  155.3110  212.7270  156.3560 O   0  0  0  0  0  1  0  0  0  0  0  0
  157.0750  213.1140  154.7190 N   0  0  0  0  0  2  0  0  0  0  0  0
  155.8170  213.4660  155.2930 C   0  0  0  0  0  0  0  0  0  0  0  0
  155.1680  214.4510  154.8530 O   0  0  0  0  0  0  0  0  0  0  0  0
  159.5950  213.2400  150.7680 O   0  0  0  0  0  0  0  0  0  0  0  0
  159.2920  213.7080  151.8540 C   0  0  0  0  0  3  0  0  0  0  0  0
  162.0770  210.1220  148.8770 O   0  0  0  0  0  0  0  0  0  0  0  0
  162.2670  211.5290  148.8690 C   0  0  0  0  0  2  0  0  0  0  0  0
  160.4750  211.9850  147.3670 O   0  0  0  0  0  0  0  0  0  0  0  0
  161.7020  212.1050  147.6180 C   0  0  0  0  0  0  0  0  0  0  0  0
  162.5440  212.8190  146.7220 N   0  0  0  0  0  1  0  0  0  0  0  0
  1  9  1  0  0  0  0
  1  2  1  0  0  0  0
  2  3  2  0  0  0  0
  3 19  1  0  0  0  0
  4  3  1  0  0  0  0
  5  6  1  0  0  0  0
  5  1  2  0  0  0  0
  6  4  2  0  0  0  0
  7 11  1  0  0  0  0
  9 11  1  0  0  0  0
 10  9  2  0  0  0  0
 11  8  2  0  0  0  0
 12  7  1  0  0  0  0
 13 10  1  0  0  0  0
 13 12  2  0  0  0  0
 14 13  1  0  0  0  0
 15 14  3  0  0  0  0
 16 15  1  0  0  0  0
 18 17  1  0  0  0  0
 18 16  1  0  0  0  0
 20 19  1  0  0  0  0
 20 21  1  0  0  0  0
 22 21  1  0  0  0  0
 23 25  1  0  0  0  0
 23 24  1  0  0  0  0
 24 27  1  0  0  0  0
 25 31  1  6  0  0  0
 25 22  1  0  0  0  0
 25 24  1  0  0  0  0
 27 28  1  0  0  0  0
 28 26  1  0  0  0  0
 29 28  2  0  0  0  0
 30 31  2  0  0  0  0
 32  6  1  0  0  0  0
 33 32  1  0  0  0  0
 34 35  2  0  0  0  0
 35 33  1  0  0  0  0
 36 35  1  0  0  0  0
M  END
>  <MODEL>
6

>  <REMARK>
 VINA RESULT:      -6.6      3.011      5.390
  Name = 
  14 active torsions:
  status: ('A' for Active; 'I' for Inactive)
    1  A    between atoms: C_4  and  C_7
    2  A    between atoms: C_8  and  C_12
    3  A    between atoms: C_8  and  O_33
    4  A    between atoms: C_9  and  C_18
    5  A    between atoms: C_9  and  C_27
    6  A    between atoms: C_11  and  C_35
    7  A    between atoms: C_15  and  C_21
    8  A    between atoms: N_16  and  N_23
    9  A    between atoms: C_18  and  C_29
   10  A    between atoms: C_19  and  N_31
   11  A    between atoms: C_19  and  C_34
   12  A    between atoms: C_21  and  C_29
   13  A    between atoms: C_24  and  C_27
   14  A    between atoms: O_33  and  C_36
                            x       y       z     vdW  Elec       q    Type
                         _______ _______ _______ _____ _____    ______ ____

>  <TORSDO>
F 14

$$$$
=
 OpenBabel11042421073D

 36 38  0  0  1  0  0  0  0  0999 V2000
  161.7500  208.2230  150.8200 C   0  0  0  0  0  0  0  0  0  0  0  0
  161.9010  209.5480  150.5420 N   0  0  0  0  0  0  0  0  0  0  0  0
  162.1930  209.9830  149.2880 C   0  0  0  0  0  0  0  0  0  0  0  0
  162.3290  209.0900  148.2740 N   0  0  0  0  0  0  0  0  0  0  0  0
  161.8870  207.2960  149.7770 C   0  0  0  0  0  3  0  0  0  0  0  0
  162.1820  207.7560  148.4950 C   0  0  0  0  0  0  0  0  0  0  0  0
  161.2410  206.1850  153.9760 N   0  0  0  0  0  2  0  0  0  0  0  0
  162.0150  205.5540  151.9500 O   0  0  0  0  0  0  0  0  0  0  0  0
  161.4260  207.7990  152.2120 C   0  0  0  0  0  0  0  0  0  0  0  0
  160.9370  208.7610  153.1040 C   0  0  0  0  0  3  0  0  0  0  0  0
  161.5750  206.4760  152.6890 C   0  0  0  0  0  0  0  0  0  0  0  0
  160.7740  207.1170  154.8100 N   0  0  0  0  0  0  0  0  0  0  0  0
  160.6120  208.4030  154.4100 C   0  0  0  0  0  0  0  0  0  0  0  0
  160.0900  209.3790  155.3240 C   0  0  0  0  0  0  0  0  0  0  0  0
  159.6420  210.1900  156.0940 C   0  0  0  0  0  0  0  0  0  0  0  0
  159.0870  211.1620  157.0360 C   0  0  0  0  0  2  0  0  0  0  0  0
  157.1820  211.4550  155.7260 C   0  0  0  0  0  1  0  0  0  0  0  0
  158.3140  212.1550  156.3140 N   0  0  0  0  0  2  0  0  0  0  0  0
  162.3250  211.4400  149.0170 C   0  0  0  0  0  2  0  0  0  0  0  0
  161.5110  211.8110  147.7940 C   0  0  0  0  0  2  0  0  0  0  0  0
  160.6050  212.9760  148.1280 C   0  0  0  0  0  2  0  0  0  0  0  0
  160.2850  213.7440  146.8610 C   0  0  0  0  0  2  0  0  0  0  0  0
  158.7020  213.8080  145.0340 O   0  0  0  0  0  0  0  0  0  0  0  0
  159.2560  212.5480  144.8250 N   0  0  0  0  0  0  0  0  0  0  0  0
  159.0810  213.1260  146.1430 C   0  0  1  0  0  0  0  0  0  0  0  0
  162.3330  212.3780  142.7320 O   0  0  0  0  0  1  0  0  0  0  0  0
  160.5680  212.7580  144.3690 N   0  0  0  0  0  2  0  0  0  0  0  0
  161.0130  212.2060  143.1310 C   0  0  0  0  0  0  0  0  0  0  0  0
  160.2200  211.5520  142.4040 O   0  0  0  0  0  0  0  0  0  0  0  0
  157.2450  213.3130  147.6080 O   0  0  0  0  0  0  0  0  0  0  0  0
  157.9230  212.5780  146.9090 C   0  0  0  0  0  3  0  0  0  0  0  0
  162.3130  206.8370  147.4530 O   0  0  0  0  0  0  0  0  0  0  0  0
  161.4500  205.7160  147.3260 C   0  0  0  0  0  2  0  0  0  0  0  0
  160.3730  206.2030  145.2580 O   0  0  0  0  0  0  0  0  0  0  0  0
  161.1680  205.4590  145.8880 C   0  0  0  0  0  0  0  0  0  0  0  0
  161.8230  204.3900  145.2160 N   0  0  0  0  0  1  0  0  0  0  0  0
  1  9  1  0  0  0  0
  2  1  1  0  0  0  0
  3  2  2  0  0  0  0
  4  6  2  0  0  0  0
  4  3  1  0  0  0  0
  5  1  2  0  0  0  0
  6  5  1  0  0  0  0
  7 12  1  0  0  0  0
  8 11  2  0  0  0  0
  9 11  1  0  0  0  0
  9 10  2  0  0  0  0
 10 13  1  0  0  0  0
 11  7  1  0  0  0  0
 13 12  2  0  0  0  0
 13 14  1  0  0  0  0
 14 15  3  0  0  0  0
 15 16  1  0  0  0  0
 17 18  1  0  0  0  0
 18 16  1  0  0  0  0
 19  3  1  0  0  0  0
 20 21  1  0  0  0  0
 20 19  1  0  0  0  0
 22 21  1  0  0  0  0
 23 25  1  0  0  0  0
 24 23  1  0  0  0  0
 24 25  1  0  0  0  0
 25 22  1  1  0  0  0
 25 31  1  0  0  0  0
 26 28  1  0  0  0  0
 27 24  1  0  0  0  0
 28 27  1  0  0  0  0
 29 28  2  0  0  0  0
 31 30  2  0  0  0  0
 32  6  1  0  0  0  0
 33 32  1  0  0  0  0
 34 35  2  0  0  0  0
 35 33  1  0  0  0  0
 36 35  1  0  0  0  0
M  END
>  <MODEL>
7

>  <REMARK>
 VINA RESULT:      -6.6      2.513      6.893
  Name = 
  14 active torsions:
  status: ('A' for Active; 'I' for Inactive)
    1  A    between atoms: C_4  and  C_7
    2  A    between atoms: C_8  and  C_12
    3  A    between atoms: C_8  and  O_33
    4  A    between atoms: C_9  and  C_18
    5  A    between atoms: C_9  and  C_27
    6  A    between atoms: C_11  and  C_35
    7  A    between atoms: C_15  and  C_21
    8  A    between atoms: N_16  and  N_23
    9  A    between atoms: C_18  and  C_29
   10  A    between atoms: C_19  and  N_31
   11  A    between atoms: C_19  and  C_34
   12  A    between atoms: C_21  and  C_29
   13  A    between atoms: C_24  and  C_27
   14  A    between atoms: O_33  and  C_36
                            x       y       z     vdW  Elec       q    Type
                         _______ _______ _______ _____ _____    ______ ____

>  <TORSDO>
F 14

$$$$
=
 OpenBabel11042421073D

 36 38  0  0  1  0  0  0  0  0999 V2000
  161.1890  206.3430  152.2360 C   0  0  0  0  0  0  0  0  0  0  0  0
  161.5980  207.5190  151.6830 N   0  0  0  0  0  0  0  0  0  0  0  0
  161.6770  208.6600  152.4160 C   0  0  0  0  0  0  0  0  0  0  0  0
  161.3550  208.6440  153.7350 N   0  0  0  0  0  0  0  0  0  0  0  0
  160.8570  206.3180  153.5970 C   0  0  0  0  0  3  0  0  0  0  0  0
  160.9470  207.4950  154.3390 C   0  0  0  0  0  0  0  0  0  0  0  0
  160.8320  202.7640  151.0370 N   0  0  0  0  0  2  0  0  0  0  0  0
  160.6450  203.6230  153.1170 O   0  0  0  0  0  0  0  0  0  0  0  0
  161.1240  205.1180  151.3890 C   0  0  0  0  0  0  0  0  0  0  0  0
  161.3440  205.2490  150.0120 C   0  0  0  0  0  3  0  0  0  0  0  0
  160.8590  203.8230  151.8910 C   0  0  0  0  0  0  0  0  0  0  0  0
  161.0480  202.9100  149.7280 N   0  0  0  0  0  0  0  0  0  0  0  0
  161.3030  204.1270  149.1870 C   0  0  0  0  0  0  0  0  0  0  0  0
  161.5490  204.2510  147.7780 C   0  0  0  0  0  0  0  0  0  0  0  0
  161.7490  204.3440  146.5930 C   0  0  0  0  0  0  0  0  0  0  0  0
  161.9790  204.4420  145.1520 C   0  0  0  0  0  2  0  0  0  0  0  0
  160.4550  206.2020  145.0530 C   0  0  0  0  0  1  0  0  0  0  0  0
  160.7680  204.8950  144.4950 N   0  0  0  0  0  2  0  0  0  0  0  0
  162.1530  209.9200  151.7840 C   0  0  0  0  0  2  0  0  0  0  0  0
  160.9680  210.7400  151.3170 C   0  0  0  0  0  2  0  0  0  0  0  0
  160.4590  211.5860  152.4640 C   0  0  0  0  0  2  0  0  0  0  0  0
  158.9480  211.6850  152.3850 C   0  0  0  0  0  2  0  0  0  0  0  0
  159.2430  214.0690  152.1120 O   0  0  0  0  0  0  0  0  0  0  0  0
  157.9440  213.9340  151.6300 N   0  0  0  0  0  0  0  0  0  0  0  0
  158.4820  213.1110  152.6960 C   0  0  1  0  0  0  0  0  0  0  0  0
  157.0800  212.6080  148.2580 O   0  0  0  0  0  0  0  0  0  0  0  0
  158.0420  213.2650  150.3990 N   0  0  0  0  0  2  0  0  0  0  0  0
  156.9850  213.3280  149.4430 C   0  0  0  0  0  0  0  0  0  0  0  0
  155.9590  214.0220  149.6720 O   0  0  0  0  0  1  0  0  0  0  0  0
  158.7300  213.2810  155.0330 O   0  0  0  0  0  0  0  0  0  0  0  0
  158.0200  213.4920  154.0640 C   0  0  0  0  0  3  0  0  0  0  0  0
  160.6220  207.4740  155.6960 O   0  0  0  0  0  0  0  0  0  0  0  0
  161.5260  207.9330  156.6910 C   0  0  0  0  0  2  0  0  0  0  0  0
  162.3890  210.1530  156.6990 O   0  0  0  0  0  0  0  0  0  0  0  0
  161.3890  209.4060  156.8540 C   0  0  0  0  0  0  0  0  0  0  0  0
  160.1190  209.9720  157.1540 N   0  0  0  0  0  1  0  0  0  0  0  0
  1  5  2  0  0  0  0
  2  1  1  0  0  0  0
  2  3  2  0  0  0  0
  3  4  1  0  0  0  0
  4  6  2  0  0  0  0
  5  6  1  0  0  0  0
  6 32  1  0  0  0  0
  7 11  1  0  0  0  0
  9 11  1  0  0  0  0
  9  1  1  0  0  0  0
 10  9  2  0  0  0  0
 11  8  2  0  0  0  0
 12  7  1  0  0  0  0
 13 12  2  0  0  0  0
 13 10  1  0  0  0  0
 14 13  1  0  0  0  0
 15 14  3  0  0  0  0
 16 15  1  0  0  0  0
 18 17  1  0  0  0  0
 18 16  1  0  0  0  0
 19  3  1  0  0  0  0
 20 19  1  0  0  0  0
 20 21  1  0  0  0  0
 22 21  1  0  0  0  0
 23 25  1  0  0  0  0
 24 23  1  0  0  0  0
 24 25  1  0  0  0  0
 25 22  1  6  0  0  0
 25 31  1  0  0  0  0
 26 28  2  0  0  0  0
 27 24  1  0  0  0  0
 28 29  1  0  0  0  0
 28 27  1  0  0  0  0
 31 30  2  0  0  0  0
 32 33  1  0  0  0  0
 33 35  1  0  0  0  0
 34 35  2  0  0  0  0
 35 36  1  0  0  0  0
M  END
>  <MODEL>
8

>  <REMARK>
 VINA RESULT:      -6.6      2.893      3.964
  Name = 
  14 active torsions:
  status: ('A' for Active; 'I' for Inactive)
    1  A    between atoms: C_4  and  C_7
    2  A    between atoms: C_8  and  C_12
    3  A    between atoms: C_8  and  O_33
    4  A    between atoms: C_9  and  C_18
    5  A    between atoms: C_9  and  C_27
    6  A    between atoms: C_11  and  C_35
    7  A    between atoms: C_15  and  C_21
    8  A    between atoms: N_16  and  N_23
    9  A    between atoms: C_18  and  C_29
   10  A    between atoms: C_19  and  N_31
   11  A    between atoms: C_19  and  C_34
   12  A    between atoms: C_21  and  C_29
   13  A    between atoms: C_24  and  C_27
   14  A    between atoms: O_33  and  C_36
                            x       y       z     vdW  Elec       q    Type
                         _______ _______ _______ _____ _____    ______ ____

>  <TORSDO>
F 14

$$$$
=
 OpenBabel11042421073D

 36 38  0  0  1  0  0  0  0  0999 V2000
  161.3310  207.6290  151.5970 C   0  0  0  0  0  0  0  0  0  0  0  0
  161.9310  208.4710  150.7100 N   0  0  0  0  0  0  0  0  0  0  0  0
  162.0210  209.8060  150.9460 C   0  0  0  0  0  0  0  0  0  0  0  0
  161.5150  210.3290  152.0940 N   0  0  0  0  0  0  0  0  0  0  0  0
  160.8090  208.1610  152.7840 C   0  0  0  0  0  3  0  0  0  0  0  0
  160.9110  209.5310  153.0160 C   0  0  0  0  0  0  0  0  0  0  0  0
  161.1680  203.8530  151.9000 N   0  0  0  0  0  2  0  0  0  0  0  0
  161.2200  205.4370  153.5090 O   0  0  0  0  0  0  0  0  0  0  0  0
  161.2620  206.1710  151.2930 C   0  0  0  0  0  0  0  0  0  0  0  0
  161.2500  205.7720  149.9500 C   0  0  0  0  0  3  0  0  0  0  0  0
  161.2180  205.1590  152.2790 C   0  0  0  0  0  0  0  0  0  0  0  0
  161.1590  203.4940  150.6140 N   0  0  0  0  0  0  0  0  0  0  0  0
  161.1970  204.4190  149.6230 C   0  0  0  0  0  0  0  0  0  0  0  0
  161.2050  204.0020  148.2500 C   0  0  0  0  0  0  0  0  0  0  0  0
  161.2230  203.6580  147.0950 C   0  0  0  0  0  0  0  0  0  0  0  0
  161.2620  203.2490  145.6910 C   0  0  0  0  0  2  0  0  0  0  0  0
  161.0340  205.2950  144.5980 C   0  0  0  0  0  1  0  0  0  0  0  0
  161.9840  204.2390  144.9150 N   0  0  0  0  0  2  0  0  0  0  0  0
  162.7060  210.6910  149.9670 C   0  0  0  0  0  2  0  0  0  0  0  0
  161.8210  210.8990  148.7550 C   0  0  0  0  0  2  0  0  0  0  0  0
  161.5670  212.3780  148.5650 C   0  0  0  0  0  2  0  0  0  0  0  0
  161.6660  212.7220  147.0920 C   0  0  0  0  0  2  0  0  0  0  0  0
  160.4220  214.2920  145.7390 O   0  0  0  0  0  0  0  0  0  0  0  0
  160.0210  213.0990  145.1460 N   0  0  0  0  0  0  0  0  0  0  0  0
  160.3180  213.2180  146.5600 C   0  0  1  0  0  0  0  0  0  0  0  0
  162.3390  212.2070  142.3690 O   0  0  0  0  0  0  0  0  0  0  0  0
  161.1370  212.6010  144.4520 N   0  0  0  0  0  2  0  0  0  0  0  0
  161.2540  212.7600  143.0390 C   0  0  0  0  0  0  0  0  0  0  0  0
  160.3740  213.3860  142.3930 O   0  0  0  0  0  1  0  0  0  0  0  0
  158.5020  214.3240  147.5760 O   0  0  0  0  0  0  0  0  0  0  0  0
  159.1140  213.2770  147.4410 C   0  0  0  0  0  3  0  0  0  0  0  0
  160.3980  210.0650  154.2000 O   0  0  0  0  0  0  0  0  0  0  0  0
  160.0700  211.4410  154.3220 C   0  0  0  0  0  2  0  0  0  0  0  0
  157.6890  211.4590  154.2500 O   0  0  0  0  0  0  0  0  0  0  0  0
  158.7280  211.5840  154.9490 C   0  0  0  0  0  0  0  0  0  0  0  0
  158.6180  211.8300  156.3460 N   0  0  0  0  0  1  0  0  0  0  0  0
  1  5  2  0  0  0  0
  2  3  2  0  0  0  0
  2  1  1  0  0  0  0
  3  4  1  0  0  0  0
  4  6  2  0  0  0  0
  5  6  1  0  0  0  0
  6 32  1  0  0  0  0
  7 11  1  0  0  0  0
  9  1  1  0  0  0  0
  9 11  1  0  0  0  0
 10  9  2  0  0  0  0
 11  8  2  0  0  0  0
 12  7  1  0  0  0  0
 13 10  1  0  0  0  0
 13 12  2  0  0  0  0
 14 13  1  0  0  0  0
 15 14  3  0  0  0  0
 16 15  1  0  0  0  0
 17 18  1  0  0  0  0
 18 16  1  0  0  0  0
 19  3  1  0  0  0  0
 20 19  1  0  0  0  0
 21 20  1  0  0  0  0
 22 21  1  0  0  0  0
 23 25  1  0  0  0  0
 24 23  1  0  0  0  0
 24 25  1  0  0  0  0
 25 22  1  1  0  0  0
 25 31  1  0  0  0  0
 26 28  2  0  0  0  0
 27 24  1  0  0  0  0
 28 27  1  0  0  0  0
 29 28  1  0  0  0  0
 31 30  2  0  0  0  0
 32 33  1  0  0  0  0
 33 35  1  0  0  0  0
 34 35  2  0  0  0  0
 35 36  1  0  0  0  0
M  END
>  <MODEL>
9

>  <REMARK>
 VINA RESULT:      -6.5      1.719      2.680
  Name = 
  14 active torsions:
  status: ('A' for Active; 'I' for Inactive)
    1  A    between atoms: C_4  and  C_7
    2  A    between atoms: C_8  and  C_12
    3  A    between atoms: C_8  and  O_33
    4  A    between atoms: C_9  and  C_18
    5  A    between atoms: C_9  and  C_27
    6  A    between atoms: C_11  and  C_35
    7  A    between atoms: C_15  and  C_21
    8  A    between atoms: N_16  and  N_23
    9  A    between atoms: C_18  and  C_29
   10  A    between atoms: C_19  and  N_31
   11  A    between atoms: C_19  and  C_34
   12  A    between atoms: C_21  and  C_29
   13  A    between atoms: C_24  and  C_27
   14  A    between atoms: O_33  and  C_36
                            x       y       z     vdW  Elec       q    Type
                         _______ _______ _______ _____ _____    ______ ____

>  <TORSDO>
F 14

$$$$
