=
 OpenBabel11052409513D

 26 31  0  0  1  0  0  0  0  0999 V2000
  161.7130  206.5630  151.0640 C   0  0  1  0  0  3  0  0  0  0  0  0
  162.4580  207.9720  148.9160 C   0  0  2  0  0  3  0  0  0  0  0  0
  161.5850  207.8330  151.7470 N   0  0  0  0  0  0  0  0  0  0  0  0
  161.3870  205.3440  151.5030 C   0  0  0  0  0  2  0  0  0  0  0  0
  161.3000  208.4030  149.5810 C   0  0  2  0  0  0  0  0  0  0  0  0
  161.7290  209.1360  148.3400 C   0  0  1  0  0  3  0  0  0  0  0  0
  161.6050  208.9400  150.8760 O   0  0  0  0  0  0  0  0  0  0  0  0
  161.6850  207.0270  149.7920 N   0  0  2  0  0  0  0  0  0  0  0  0
  159.9650  208.4230  157.1560 N   0  0  0  0  0  0  0  0  0  0  0  0
  160.3750  210.3040  156.0160 C   0  0  0  0  0  3  0  0  0  0  0  0
  161.0330  209.3920  153.7140 C   0  0  0  0  0  3  0  0  0  0  0  0
  160.9200  206.8800  153.8500 C   0  0  0  0  0  3  0  0  0  0  0  0
  161.1910  207.9910  153.1230 C   0  0  0  0  0  0  0  0  0  0  0  0
  159.9760  209.6930  157.2570 N   0  0  0  0  0  2  0  0  0  0  0  0
  160.4870  206.9240  155.2670 C   0  0  0  0  0  3  0  0  0  0  0  0
  160.6100  209.3360  155.1450 C   0  0  0  0  0  0  0  0  0  0  0  0
  160.3570  208.1150  155.8330 C   0  0  0  0  0  0  0  0  0  0  0  0
  160.8710  200.5130  147.9360 Cl  0  0  0  0  0  0  0  0  0  0  0  0
  161.1500  203.1840  148.4340 C   0  0  0  0  0  3  0  0  0  0  0  0
  161.1320  202.8530  151.2090 C   0  0  0  0  0  3  0  0  0  0  0  0
  161.2710  204.2970  149.2720 C   0  0  0  0  0  3  0  0  0  0  0  0
  161.0120  201.7400  150.3720 C   0  0  0  0  0  3  0  0  0  0  0  0
  161.2660  204.1400  150.6630 C   0  0  0  0  0  0  0  0  0  0  0  0
  161.0220  201.9060  148.9840 C   0  0  0  0  0  0  0  0  0  0  0  0
  162.4720  210.3920  148.6600 C   0  0  0  0  0  3  0  0  0  0  0  0
  162.0670  211.5130  148.1920 N   0  0  0  0  0  2  0  0  0  0  0  0
  1  4  1  6  0  0  0
  1  3  1  0  0  0  0
  2  5  1  0  0  0  0
  2  8  1  0  0  0  0
  3 13  1  0  0  0  0
  5  8  1  0  0  0  0
  5  7  1  0  0  0  0
  6 25  1  0  0  0  0
  6  2  1  0  0  0  0
  6  5  1  0  0  0  0
  7  3  1  0  0  0  0
  8  1  1  0  0  0  0
  9 14  1  0  0  0  0
 10 14  1  0  0  0  0
 11 16  1  0  0  0  0
 12 15  2  0  0  0  0
 13 11  2  0  0  0  0
 13 12  1  0  0  0  0
 15 17  1  0  0  0  0
 16 17  1  0  0  0  0
 16 10  2  0  0  0  0
 17  9  2  0  0  0  0
 18 24  1  0  0  0  0
 19 24  2  0  0  0  0
 19 21  1  0  0  0  0
 21 23  2  0  0  0  0
 22 20  2  0  0  0  0
 23 20  1  0  0  0  0
 23  4  1  0  0  0  0
 24 22  1  0  0  0  0
 26 25  2  0  0  0  0
M  END
>  <MODEL>
1

>  <REMARK>
 VINA RESULT:      -8.9      0.000      0.000
  Name = 
  3 active torsions:
  status: ('A' for Active; 'I' for Inactive)
    1  A    between atoms: C_4  and  C_21
    2  A    between atoms: N_12  and  C_14
    3  A    between atoms: C_17  and  C_19
                            x       y       z     vdW  Elec       q    Type
                         _______ _______ _______ _____ _____    ______ ____

>  <TORSDO>
F 3

$$$$
=
 OpenBabel11052409513D

 26 31  0  0  1  0  0  0  0  0999 V2000
  161.2030  208.3920  150.4640 C   0  0  1  0  0  3  0  0  0  0  0  0
  161.4250  210.9610  149.7530 C   0  0  2  0  0  3  0  0  0  0  0  0
  161.4460  208.0740  149.0730 N   0  0  0  0  0  0  0  0  0  0  0  0
  161.0940  207.5590  151.5030 C   0  0  0  0  0  2  0  0  0  0  0  0
  162.4310  210.0940  149.3010 C   0  0  2  0  0  0  0  0  0  0  0  0
  162.5410  211.5550  148.9650 C   0  0  1  0  0  3  0  0  0  0  0  0
  161.9290  209.1670  148.3270 O   0  0  0  0  0  0  0  0  0  0  0  0
  161.6820  209.6590  150.4570 N   0  0  2  0  0  0  0  0  0  0  0  0
  161.5450  202.8410  146.8740 N   0  0  0  0  0  0  0  0  0  0  0  0
  160.8110  203.0370  148.9790 C   0  0  0  0  0  3  0  0  0  0  0  0
  160.9960  205.5620  149.3700 C   0  0  0  0  0  3  0  0  0  0  0  0
  161.9090  206.5760  147.2520 C   0  0  0  0  0  3  0  0  0  0  0  0
  161.4830  206.7420  148.5280 C   0  0  0  0  0  0  0  0  0  0  0  0
  161.0980  202.1730  147.8630 N   0  0  0  0  0  2  0  0  0  0  0  0
  161.9690  205.2540  146.5840 C   0  0  0  0  0  3  0  0  0  0  0  0
  161.1090  204.2740  148.6210 C   0  0  0  0  0  0  0  0  0  0  0  0
  161.5800  204.1950  147.2790 C   0  0  0  0  0  0  0  0  0  0  0  0
  161.3230  209.3300  157.2600 Cl  0  0  0  0  0  0  0  0  0  0  0  0
  161.2700  209.7410  154.5600 C   0  0  0  0  0  3  0  0  0  0  0  0
  161.1320  207.0150  153.9650 C   0  0  0  0  0  3  0  0  0  0  0  0
  161.2140  209.3180  153.2290 C   0  0  0  0  0  3  0  0  0  0  0  0
  161.1860  207.4370  155.2960 C   0  0  0  0  0  3  0  0  0  0  0  0
  161.1420  207.9550  152.9220 C   0  0  0  0  0  0  0  0  0  0  0  0
  161.2550  208.8010  155.5930 C   0  0  0  0  0  0  0  0  0  0  0  0
  162.0660  211.8490  147.5790 C   0  0  0  0  0  3  0  0  0  0  0  0
  162.3480  212.9710  147.0290 N   0  0  0  0  0  2  0  0  0  0  0  0
  1  4  1  1  0  0  0
  2  8  1  0  0  0  0
  3  1  1  0  0  0  0
  4 23  1  0  0  0  0
  5  2  1  0  0  0  0
  5  8  1  0  0  0  0
  6  5  1  0  0  0  0
  6  2  1  0  0  0  0
  7  3  1  0  0  0  0
  7  5  1  0  0  0  0
  8  1  1  0  0  0  0
  9 17  2  0  0  0  0
  9 14  1  0  0  0  0
 12 13  1  0  0  0  0
 13  3  1  0  0  0  0
 13 11  2  0  0  0  0
 14 10  1  0  0  0  0
 15 12  2  0  0  0  0
 15 17  1  0  0  0  0
 16 10  2  0  0  0  0
 16 11  1  0  0  0  0
 17 16  1  0  0  0  0
 19 24  1  0  0  0  0
 20 22  1  0  0  0  0
 21 19  2  0  0  0  0
 22 24  2  0  0  0  0
 23 21  1  0  0  0  0
 23 20  2  0  0  0  0
 24 18  1  0  0  0  0
 25  6  1  0  0  0  0
 26 25  2  0  0  0  0
M  END
>  <MODEL>
2

>  <REMARK>
 VINA RESULT:      -8.1      3.476      6.977
  Name = 
  3 active torsions:
  status: ('A' for Active; 'I' for Inactive)
    1  A    between atoms: C_4  and  C_21
    2  A    between atoms: N_12  and  C_14
    3  A    between atoms: C_17  and  C_19
                            x       y       z     vdW  Elec       q    Type
                         _______ _______ _______ _____ _____    ______ ____

>  <TORSDO>
F 3

$$$$
=
 OpenBabel11052409513D

 26 31  0  0  1  0  0  0  0  0999 V2000
  162.1080  208.5490  149.9610 C   0  0  1  0  0  3  0  0  0  0  0  0
  162.5880  210.5220  148.2200 C   0  0  2  0  0  3  0  0  0  0  0  0
  161.9370  209.5850  150.9570 N   0  0  0  0  0  0  0  0  0  0  0  0
  161.9050  207.2340  150.0820 C   0  0  0  0  0  2  0  0  0  0  0  0
  161.4530  210.6620  149.0320 C   0  0  2  0  0  0  0  0  0  0  0  0
  161.7350  211.7250  148.0060 C   0  0  1  0  0  3  0  0  0  0  0  0
  161.8110  210.8750  150.4050 O   0  0  0  0  0  0  0  0  0  0  0  0
  161.9530  209.3190  148.8570 N   0  0  2  0  0  0  0  0  0  0  0  0
  160.8080  208.6680  156.4440 N   0  0  0  0  0  0  0  0  0  0  0  0
  160.4610  206.9570  155.0440 C   0  0  0  0  0  3  0  0  0  0  0  0
  161.1420  207.9720  152.7930 C   0  0  0  0  0  3  0  0  0  0  0  0
  161.8380  210.3530  153.2320 C   0  0  0  0  0  3  0  0  0  0  0  0
  161.6330  209.3490  152.3440 C   0  0  0  0  0  0  0  0  0  0  0  0
  160.4200  207.4550  156.3950 N   0  0  0  0  0  2  0  0  0  0  0  0
  161.5800  210.2150  154.6850 C   0  0  0  0  0  3  0  0  0  0  0  0
  160.8930  207.9350  154.2650 C   0  0  0  0  0  0  0  0  0  0  0  0
  161.1300  209.0480  155.1220 C   0  0  0  0  0  0  0  0  0  0  0  0
  161.4780  203.2130  145.6120 Cl  0  0  0  0  0  0  0  0  0  0  0  0
  161.1090  204.0950  148.1710 C   0  0  0  0  0  3  0  0  0  0  0  0
  162.3160  206.5680  147.6850 C   0  0  0  0  0  3  0  0  0  0  0  0
  161.2120  205.0370  149.1990 C   0  0  0  0  0  3  0  0  0  0  0  0
  162.2130  205.6280  146.6560 C   0  0  0  0  0  3  0  0  0  0  0  0
  161.8120  206.2790  148.9630 C   0  0  0  0  0  0  0  0  0  0  0  0
  161.6080  204.3910  146.9000 C   0  0  0  0  0  0  0  0  0  0  0  0
  162.4050  212.9180  148.6040 C   0  0  0  0  0  3  0  0  0  0  0  0
  162.7060  213.9210  147.8660 N   0  0  0  0  0  2  0  0  0  0  0  0
  1  4  1  1  0  0  0
  1  3  1  0  0  0  0
  2  8  1  0  0  0  0
  2  5  1  0  0  0  0
  3 13  1  0  0  0  0
  5  7  1  0  0  0  0
  6  2  1  0  0  0  0
  6 25  1  0  0  0  0
  6  5  1  0  0  0  0
  7  3  1  0  0  0  0
  8  5  1  0  0  0  0
  8  1  1  0  0  0  0
 10 14  1  0  0  0  0
 11 16  1  0  0  0  0
 12 15  2  0  0  0  0
 13 11  2  0  0  0  0
 13 12  1  0  0  0  0
 14  9  1  0  0  0  0
 15 17  1  0  0  0  0
 16 10  2  0  0  0  0
 16 17  1  0  0  0  0
 17  9  2  0  0  0  0
 18 24  1  0  0  0  0
 19 21  1  0  0  0  0
 20 23  1  0  0  0  0
 22 24  1  0  0  0  0
 22 20  2  0  0  0  0
 23 21  2  0  0  0  0
 23  4  1  0  0  0  0
 24 19  2  0  0  0  0
 26 25  2  0  0  0  0
M  END
>  <MODEL>
3

>  <REMARK>
 VINA RESULT:      -8.1      1.817      2.799
  Name = 
  3 active torsions:
  status: ('A' for Active; 'I' for Inactive)
    1  A    between atoms: C_4  and  C_21
    2  A    between atoms: N_12  and  C_14
    3  A    between atoms: C_17  and  C_19
                            x       y       z     vdW  Elec       q    Type
                         _______ _______ _______ _____ _____    ______ ____

>  <TORSDO>
F 3

$$$$
=
 OpenBabel11052409513D

 26 31  0  0  1  0  0  0  0  0999 V2000
  161.6890  207.3520  151.7880 C   0  0  1  0  0  3  0  0  0  0  0  0
  161.5230  208.3360  154.2690 C   0  0  2  0  0  3  0  0  0  0  0  0
  161.3350  206.0720  152.3630 N   0  0  0  0  0  0  0  0  0  0  0  0
  161.8370  207.6750  150.4990 C   0  0  0  0  0  2  0  0  0  0  0  0
  160.4520  207.5400  153.8350 C   0  0  2  0  0  0  0  0  0  0  0  0
  160.3780  208.1530  155.2050 C   0  0  1  0  0  3  0  0  0  0  0  0
  160.8450  206.1680  153.6800 O   0  0  0  0  0  0  0  0  0  0  0  0
  161.2630  208.1410  152.8020 N   0  0  2  0  0  0  0  0  0  0  0  0
  160.8830  201.2110  149.4650 N   0  0  0  0  0  0  0  0  0  0  0  0
  160.9800  203.0960  148.2630 C   0  0  0  0  0  3  0  0  0  0  0  0
  161.1800  204.8780  150.0920 C   0  0  0  0  0  2  0  0  0  0  0  0
  161.1540  203.6760  152.3060 C   0  0  0  0  0  3  0  0  0  0  0  0
  161.2040  204.8440  151.6210 C   0  0  0  0  0  0  0  0  0  0  0  0
  160.8770  201.6600  148.2720 N   0  0  0  0  0  0  0  0  0  0  0  0
  161.0400  202.3540  151.6450 C   0  0  0  0  0  3  0  0  0  0  0  0
  161.0480  203.5050  149.5180 C   0  0  0  0  0  0  0  0  0  0  0  0
  160.9920  202.3300  150.3210 C   0  0  0  0  0  0  0  0  0  0  0  0
  162.0890  213.3450  148.4700 Cl  0  0  0  0  0  0  0  0  0  0  0  0
  161.9370  211.4320  150.4150 C   0  0  0  0  0  3  0  0  0  0  0  0
  161.9840  209.3160  148.5910 C   0  0  0  0  0  3  0  0  0  0  0  0
  161.8820  210.1130  150.8740 C   0  0  0  0  0  3  0  0  0  0  0  0
  162.0410  210.6350  148.1320 C   0  0  0  0  0  3  0  0  0  0  0  0
  161.9080  209.0470  149.9670 C   0  0  0  0  0  0  0  0  0  0  0  0
  162.0180  211.6930  149.0450 C   0  0  0  0  0  0  0  0  0  0  0  0
  160.7650  207.1840  156.2740 C   0  0  0  0  0  3  0  0  0  0  0  0
  159.9760  206.9680  157.2600 N   0  0  0  0  0  2  0  0  0  0  0  0
  1  4  1  6  0  0  0
  1  3  1  0  0  0  0
  1  8  1  0  0  0  0
  2  6  1  0  0  0  0
  3  7  1  0  0  0  0
  5  2  1  0  0  0  0
  5  6  1  0  0  0  0
  6 25  1  0  0  0  0
  7  5  1  0  0  0  0
  8  5  1  0  0  0  0
  8  2  1  0  0  0  0
  9 17  1  0  0  0  0
 10 14  1  0  0  0  0
 10 16  2  0  0  0  0
 11 13  1  0  0  0  0
 13 12  2  0  0  0  0
 13  3  1  0  0  0  0
 14  9  2  0  0  0  0
 15 12  1  0  0  0  0
 16 11  1  0  0  0  0
 16 17  1  0  0  0  0
 17 15  2  0  0  0  0
 18 24  1  0  0  0  0
 19 21  1  0  0  0  0
 20 23  1  0  0  0  0
 22 20  2  0  0  0  0
 22 24  1  0  0  0  0
 23  4  1  0  0  0  0
 23 21  2  0  0  0  0
 24 19  2  0  0  0  0
 25 26  2  0  0  0  0
M  END
>  <MODEL>
4

>  <REMARK>
 VINA RESULT:      -8.0      3.282      7.444
  Name = 
  3 active torsions:
  status: ('A' for Active; 'I' for Inactive)
    1  A    between atoms: C_4  and  C_21
    2  A    between atoms: N_12  and  C_14
    3  A    between atoms: C_17  and  C_19
                            x       y       z     vdW  Elec       q    Type
                         _______ _______ _______ _____ _____    ______ ____

>  <TORSDO>
F 3

$$$$
=
 OpenBabel11052409513D

 26 31  0  0  1  0  0  0  0  0999 V2000
  161.8570  209.0400  150.6070 C   0  0  1  0  0  3  0  0  0  0  0  0
  161.8400  210.3280  152.9510 C   0  0  2  0  0  3  0  0  0  0  0  0
  161.5170  207.8490  151.3560 N   0  0  0  0  0  0  0  0  0  0  0  0
  161.9390  209.1980  149.2830 C   0  0  0  0  0  2  0  0  0  0  0  0
  160.7370  209.5060  152.6770 C   0  0  2  0  0  0  0  0  0  0  0  0
  160.7470  210.2860  153.9620 C   0  0  1  0  0  3  0  0  0  0  0  0
  161.1020  208.1180  152.6740 O   0  0  0  0  0  0  0  0  0  0  0  0
  161.4980  209.9580  151.5360 N   0  0  2  0  0  0  0  0  0  0  0  0
  160.7070  202.7160  149.0700 N   0  0  0  0  0  0  0  0  0  0  0  0
  161.1180  202.7870  151.2680 C   0  0  0  0  0  3  0  0  0  0  0  0
  161.3750  205.3030  151.6760 C   0  0  0  0  0  3  0  0  0  0  0  0
  161.0660  206.4500  149.4550 C   0  0  0  0  0  3  0  0  0  0  0  0
  161.3290  206.5420  150.7810 C   0  0  0  0  0  0  0  0  0  0  0  0
  160.8420  201.9850  150.1060 N   0  0  0  0  0  2  0  0  0  0  0  0
  160.8350  205.1600  148.7620 C   0  0  0  0  0  3  0  0  0  0  0  0
  161.1480  204.0540  150.8890 C   0  0  0  0  0  0  0  0  0  0  0  0
  160.8870  204.0540  149.4890 C   0  0  0  0  0  0  0  0  0  0  0  0
  162.0470  214.4520  146.3310 Cl  0  0  0  0  0  0  0  0  0  0  0  0
  160.8990  212.1110  147.1450 C   0  0  0  0  0  3  0  0  0  0  0  0
  163.1340  211.3170  148.6220 C   0  0  0  0  0  3  0  0  0  0  0  0
  160.8850  210.8950  147.8350 C   0  0  0  0  0  3  0  0  0  0  0  0
  163.1480  212.5330  147.9330 C   0  0  0  0  0  3  0  0  0  0  0  0
  161.9990  210.4910  148.5800 C   0  0  0  0  0  0  0  0  0  0  0  0
  162.0300  212.9300  147.1950 C   0  0  0  0  0  0  0  0  0  0  0  0
  161.1780  209.4500  155.1220 C   0  0  0  0  0  3  0  0  0  0  0  0
  161.9900  209.9280  155.9900 N   0  0  0  0  0  2  0  0  0  0  0  0
  1  4  1  6  0  0  0
  1  3  1  0  0  0  0
  1  8  1  0  0  0  0
  2  6  1  0  0  0  0
  3  7  1  0  0  0  0
  5  2  1  0  0  0  0
  5  6  1  0  0  0  0
  6 25  1  0  0  0  0
  7  5  1  0  0  0  0
  8  5  1  0  0  0  0
  8  2  1  0  0  0  0
  9 17  2  0  0  0  0
  9 14  1  0  0  0  0
 12 13  1  0  0  0  0
 13  3  1  0  0  0  0
 13 11  2  0  0  0  0
 14 10  1  0  0  0  0
 15 12  2  0  0  0  0
 15 17  1  0  0  0  0
 16 10  2  0  0  0  0
 16 11  1  0  0  0  0
 17 16  1  0  0  0  0
 18 24  1  0  0  0  0
 19 24  2  0  0  0  0
 19 21  1  0  0  0  0
 21 23  2  0  0  0  0
 22 20  2  0  0  0  0
 23 20  1  0  0  0  0
 23  4  1  0  0  0  0
 24 22  1  0  0  0  0
 25 26  2  0  0  0  0
M  END
>  <MODEL>
5

>  <REMARK>
 VINA RESULT:      -7.9      3.387      7.363
  Name = 
  3 active torsions:
  status: ('A' for Active; 'I' for Inactive)
    1  A    between atoms: C_4  and  C_21
    2  A    between atoms: N_12  and  C_14
    3  A    between atoms: C_17  and  C_19
                            x       y       z     vdW  Elec       q    Type
                         _______ _______ _______ _____ _____    ______ ____

>  <TORSDO>
F 3

$$$$
=
 OpenBabel11052409513D

 26 31  0  0  1  0  0  0  0  0999 V2000
  161.7880  208.4110  151.5370 C   0  0  1  0  0  3  0  0  0  0  0  0
  162.5860  209.3960  149.1810 C   0  0  2  0  0  3  0  0  0  0  0  0
  161.7310  209.7830  151.9950 N   0  0  0  0  0  0  0  0  0  0  0  0
  161.4040  207.3020  152.1750 C   0  0  0  0  0  2  0  0  0  0  0  0
  161.4570  209.9920  149.7630 C   0  0  2  0  0  0  0  0  0  0  0  0
  161.9130  210.4830  148.4160 C   0  0  1  0  0  3  0  0  0  0  0  0
  161.8000  210.7240  150.9490 O   0  0  0  0  0  0  0  0  0  0  0  0
  161.7730  208.6540  150.2050 N   0  0  2  0  0  0  0  0  0  0  0  0
  160.2810  211.3310  157.2610 N   0  0  0  0  0  0  0  0  0  0  0  0
  158.6140  211.0790  155.7890 C   0  0  0  0  0  3  0  0  0  0  0  0
  159.8800  210.3880  153.6720 C   0  0  0  0  0  3  0  0  0  0  0  0
  162.3310  210.3450  154.2530 C   0  0  0  0  0  3  0  0  0  0  0  0
  161.3560  210.1910  153.3240 C   0  0  0  0  0  0  0  0  0  0  0  0
  159.0150  211.4050  157.1330 N   0  0  0  0  0  2  0  0  0  0  0  0
  162.0590  210.7420  155.6550 C   0  0  0  0  0  3  0  0  0  0  0  0
  159.7060  210.8010  155.0970 C   0  0  0  0  0  0  0  0  0  0  0  0
  160.7960  210.9470  156.0020 C   0  0  0  0  0  0  0  0  0  0  0  0
  160.6770  201.8280  149.7590 Cl  0  0  0  0  0  0  0  0  0  0  0  0
  161.1190  203.5700  151.8170 C   0  0  0  0  0  3  0  0  0  0  0  0
  160.9830  205.8270  150.1740 C   0  0  0  0  0  3  0  0  0  0  0  0
  161.2840  204.8450  152.3660 C   0  0  0  0  0  3  0  0  0  0  0  0
  160.8170  204.5530  149.6250 C   0  0  0  0  0  3  0  0  0  0  0  0
  161.2150  205.9810  151.5510 C   0  0  0  0  0  0  0  0  0  0  0  0
  160.8850  203.4240  150.4470 C   0  0  0  0  0  0  0  0  0  0  0  0
  162.7220  211.7340  148.5200 C   0  0  0  0  0  3  0  0  0  0  0  0
  162.5350  212.6880  147.6860 N   0  0  0  0  0  2  0  0  0  0  0  0
  1  3  1  0  0  0  0
  1  4  1  1  0  0  0
  2  5  1  0  0  0  0
  2  8  1  0  0  0  0
  3 13  1  0  0  0  0
  5  8  1  0  0  0  0
  5  7  1  0  0  0  0
  6 25  1  0  0  0  0
  6  2  1  0  0  0  0
  6  5  1  0  0  0  0
  7  3  1  0  0  0  0
  8  1  1  0  0  0  0
 10 14  1  0  0  0  0
 11 16  1  0  0  0  0
 12 15  2  0  0  0  0
 13 11  2  0  0  0  0
 13 12  1  0  0  0  0
 14  9  1  0  0  0  0
 15 17  1  0  0  0  0
 16 10  2  0  0  0  0
 16 17  1  0  0  0  0
 17  9  2  0  0  0  0
 18 24  1  0  0  0  0
 19 21  1  0  0  0  0
 20 23  1  0  0  0  0
 22 20  2  0  0  0  0
 22 24  1  0  0  0  0
 23  4  1  0  0  0  0
 23 21  2  0  0  0  0
 24 19  2  0  0  0  0
 26 25  2  0  0  0  0
M  END
>  <MODEL>
6

>  <REMARK>
 VINA RESULT:      -7.9      1.707      2.384
  Name = 
  3 active torsions:
  status: ('A' for Active; 'I' for Inactive)
    1  A    between atoms: C_4  and  C_21
    2  A    between atoms: N_12  and  C_14
    3  A    between atoms: C_17  and  C_19
                            x       y       z     vdW  Elec       q    Type
                         _______ _______ _______ _____ _____    ______ ____

>  <TORSDO>
F 3

$$$$
=
 OpenBabel11052409513D

 26 31  0  0  1  0  0  0  0  0999 V2000
  160.7530  207.9420  152.2640 C   0  0  1  0  0  3  0  0  0  0  0  0
  160.6090  207.5640  154.9080 C   0  0  2  0  0  3  0  0  0  0  0  0
  160.9220  209.3490  152.5600 N   0  0  0  0  0  0  0  0  0  0  0  0
  160.8280  207.3240  151.0820 C   0  0  0  0  0  2  0  0  0  0  0  0
  161.6720  208.3510  154.4420 C   0  0  2  0  0  0  0  0  0  0  0  0
  161.5790  208.0730  155.9170 C   0  0  1  0  0  3  0  0  0  0  0  0
  161.2100  209.6040  153.9150 O   0  0  0  0  0  0  0  0  0  0  0  0
  161.0750  207.4510  153.4840 N   0  0  2  0  0  0  0  0  0  0  0  0
  161.4580  213.4280  148.6490 N   0  0  0  0  0  0  0  0  0  0  0  0
  162.6080  211.5410  148.3000 C   0  0  0  0  0  3  0  0  0  0  0  0
  161.9570  210.1420  150.3460 C   0  0  0  0  0  3  0  0  0  0  0  0
  160.3900  211.5420  151.7350 C   0  0  0  0  0  3  0  0  0  0  0  0
  161.0760  210.3850  151.5720 C   0  0  0  0  0  0  0  0  0  0  0  0
  162.2600  212.8590  147.8380 N   0  0  0  0  0  0  0  0  0  0  0  0
  160.4570  212.6660  150.7710 C   0  0  0  0  0  3  0  0  0  0  0  0
  161.9750  211.3320  149.4430 C   0  0  0  0  0  0  0  0  0  0  0  0
  161.2250  212.5150  149.7020 C   0  0  1  0  0  3  0  0  0  0  0  0
  161.2250  201.3850  150.1330 Cl  0  0  0  0  0  0  0  0  0  0  0  0
  160.8460  203.9790  149.3650 C   0  0  0  0  0  3  0  0  0  0  0  0
  161.2040  204.9860  151.9470 C   0  0  0  0  0  3  0  0  0  0  0  0
  160.7590  205.3550  149.5970 C   0  0  0  0  0  3  0  0  0  0  0  0
  161.2930  203.6110  151.7150 C   0  0  0  0  0  3  0  0  0  0  0  0
  160.9390  205.8680  150.8870 C   0  0  0  0  0  0  0  0  0  0  0  0
  161.1140  203.1070  150.4230 C   0  0  0  0  0  0  0  0  0  0  0  0
  160.9640  209.2110  156.6640 C   0  0  0  0  0  3  0  0  0  0  0  0
  161.7110  210.0640  157.2600 N   0  0  0  0  0  2  0  0  0  0  0  0
  1  4  1  6  0  0  0
  1  3  1  0  0  0  0
  1  8  1  0  0  0  0
  2  6  1  0  0  0  0
  3  7  1  0  0  0  0
  5  2  1  0  0  0  0
  5  6  1  0  0  0  0
  6 25  1  0  0  0  0
  7  5  1  0  0  0  0
  8  5  1  0  0  0  0
  8  2  1  0  0  0  0
  9 17  1  0  0  0  0
 10 16  2  0  0  0  0
 11 13  2  0  0  0  0
 13 12  1  0  0  0  0
 13  3  1  0  0  0  0
 14 10  1  0  0  0  0
 14  9  2  0  0  0  0
 15 12  2  0  0  0  0
 16 17  1  0  0  0  0
 16 11  1  0  0  0  0
 17 15  1  0  0  0  0
 18 24  1  0  0  0  0
 19 21  2  0  0  0  0
 19 24  1  0  0  0  0
 21 23  1  0  0  0  0
 22 20  1  0  0  0  0
 23  4  1  0  0  0  0
 23 20  2  0  0  0  0
 24 22  2  0  0  0  0
 25 26  2  0  0  0  0
M  END
>  <MODEL>
7

>  <REMARK>
 VINA RESULT:      -7.9      1.822      5.555
  Name = 
  3 active torsions:
  status: ('A' for Active; 'I' for Inactive)
    1  A    between atoms: C_4  and  C_21
    2  A    between atoms: N_12  and  C_14
    3  A    between atoms: C_17  and  C_19
                            x       y       z     vdW  Elec       q    Type
                         _______ _______ _______ _____ _____    ______ ____

>  <TORSDO>
F 3

$$$$
=
 OpenBabel11052409513D

 26 31  0  0  1  0  0  0  0  0999 V2000
  160.7570  207.8630  152.0870 C   0  0  1  0  0  3  0  0  0  0  0  0
  160.4840  207.5490  154.7290 C   0  0  2  0  0  3  0  0  0  0  0  0
  160.9370  209.2740  152.3590 N   0  0  0  0  0  0  0  0  0  0  0  0
  160.8760  207.2170  150.9240 C   0  0  0  0  0  2  0  0  0  0  0  0
  161.5820  208.3070  154.2960 C   0  0  2  0  0  0  0  0  0  0  0  0
  161.4160  208.0650  155.7710 C   0  0  1  0  0  3  0  0  0  0  0  0
  161.1670  209.5550  153.7200 O   0  0  0  0  0  0  0  0  0  0  0  0
  161.0140  207.3950  153.3320 N   0  0  2  0  0  0  0  0  0  0  0  0
  161.8660  213.2570  148.4220 N   0  0  0  0  0  0  0  0  0  0  0  0
  160.4430  213.7790  150.0680 C   0  0  0  0  0  3  0  0  0  0  0  0
  160.4590  211.6400  151.4780 C   0  0  0  0  0  3  0  0  0  0  0  0
  162.0180  210.0160  150.3460 C   0  0  0  0  0  3  0  0  0  0  0  0
  161.1550  210.2830  151.3560 C   0  0  0  0  0  0  0  0  0  0  0  0
  161.1140  214.1870  148.8620 N   0  0  0  0  0  0  0  0  0  0  0  0
  162.3330  210.9880  149.2720 C   0  0  0  0  0  3  0  0  0  0  0  0
  160.8240  212.5430  150.3460 C   0  0  0  0  0  0  0  0  0  0  0  0
  161.7380  212.1710  149.3180 C   0  0  1  0  0  3  0  0  0  0  0  0
  161.2090  201.2510  150.1290 Cl  0  0  0  0  0  0  0  0  0  0  0  0
  160.8910  203.8310  149.2890 C   0  0  0  0  0  3  0  0  0  0  0  0
  161.1910  204.8950  151.8550 C   0  0  0  0  0  3  0  0  0  0  0  0
  160.8180  205.2130  149.4850 C   0  0  0  0  0  3  0  0  0  0  0  0
  161.2660  203.5130  151.6590 C   0  0  0  0  0  3  0  0  0  0  0  0
  160.9700  205.7550  150.7670 C   0  0  0  0  0  0  0  0  0  0  0  0
  161.1160  202.9810  150.3750 C   0  0  0  0  0  0  0  0  0  0  0  0
  160.7870  209.2300  156.4620 C   0  0  0  0  0  3  0  0  0  0  0  0
  161.4860  209.9620  157.2480 N   0  0  0  0  0  2  0  0  0  0  0  0
  1  4  1  6  0  0  0
  1  3  1  0  0  0  0
  1  8  1  0  0  0  0
  2  6  1  0  0  0  0
  3  7  1  0  0  0  0
  5  2  1  0  0  0  0
  5  6  1  0  0  0  0
  6 25  1  0  0  0  0
  7  5  1  0  0  0  0
  8  5  1  0  0  0  0
  8  2  1  0  0  0  0
  9 14  2  0  0  0  0
  9 17  1  0  0  0  0
 10 16  2  0  0  0  0
 12 13  1  0  0  0  0
 13 11  2  0  0  0  0
 13  3  1  0  0  0  0
 14 10  1  0  0  0  0
 15 17  1  0  0  0  0
 15 12  2  0  0  0  0
 16 11  1  0  0  0  0
 17 16  1  0  0  0  0
 18 24  1  0  0  0  0
 19 21  2  0  0  0  0
 19 24  1  0  0  0  0
 21 23  1  0  0  0  0
 22 20  1  0  0  0  0
 23  4  1  0  0  0  0
 23 20  2  0  0  0  0
 24 22  2  0  0  0  0
 25 26  2  0  0  0  0
M  END
>  <MODEL>
8

>  <REMARK>
 VINA RESULT:      -7.7      1.942      5.395
  Name = 
  3 active torsions:
  status: ('A' for Active; 'I' for Inactive)
    1  A    between atoms: C_4  and  C_21
    2  A    between atoms: N_12  and  C_14
    3  A    between atoms: C_17  and  C_19
                            x       y       z     vdW  Elec       q    Type
                         _______ _______ _______ _____ _____    ______ ____

>  <TORSDO>
F 3

$$$$
=
 OpenBabel11052409513D

 26 31  0  0  1  0  0  0  0  0999 V2000
  161.4580  208.8920  149.3580 C   0  0  1  0  0  3  0  0  0  0  0  0
  161.1910  208.6760  152.0110 C   0  0  2  0  0  3  0  0  0  0  0  0
  161.7020  210.3010  149.5830 N   0  0  0  0  0  0  0  0  0  0  0  0
  161.5390  208.2040  148.2160 C   0  0  0  0  0  2  0  0  0  0  0  0
  162.3180  209.3700  151.5460 C   0  0  2  0  0  0  0  0  0  0  0  0
  162.1530  209.1830  153.0290 C   0  0  1  0  0  3  0  0  0  0  0  0
  161.9540  210.6150  150.9330 O   0  0  0  0  0  0  0  0  0  0  0  0
  161.7030  208.4530  150.6160 N   0  0  2  0  0  0  0  0  0  0  0  0
  162.7240  214.1590  145.5460 N   0  0  0  0  0  0  0  0  0  0  0  0
  160.6240  213.4030  145.7090 C   0  0  0  0  0  3  0  0  0  0  0  0
  160.8090  211.7500  147.6580 C   0  0  0  0  0  3  0  0  0  0  0  0
  163.2110  211.7630  148.4170 C   0  0  0  0  0  3  0  0  0  0  0  0
  161.9560  211.2670  148.5460 C   0  0  0  0  0  0  0  0  0  0  0  0
  161.5600  214.2680  145.0390 N   0  0  0  0  0  0  0  0  0  0  0  0
  163.5810  212.7750  147.4000 C   0  0  0  0  0  3  0  0  0  0  0  0
  161.2800  212.7540  146.6570 C   0  0  0  0  0  0  0  0  0  0  0  0
  162.6280  213.2100  146.5890 C   0  0  1  0  0  3  0  0  0  0  0  0
  161.5810  202.1840  147.9100 Cl  0  0  0  0  0  0  0  0  0  0  0  0
  160.8350  204.5880  148.9710 C   0  0  0  0  0  3  0  0  0  0  0  0
  162.3150  206.0690  147.1210 C   0  0  0  0  0  3  0  0  0  0  0  0
  160.8310  205.9850  149.0300 C   0  0  0  0  0  3  0  0  0  0  0  0
  162.3180  204.6730  147.0600 C   0  0  0  0  0  3  0  0  0  0  0  0
  161.5670  206.7350  148.1060 C   0  0  0  0  0  0  0  0  0  0  0  0
  161.5770  203.9320  147.9850 C   0  0  0  0  0  0  0  0  0  0  0  0
  161.5820  210.3970  153.6860 C   0  0  0  0  0  3  0  0  0  0  0  0
  161.9310  210.7030  154.8800 N   0  0  0  0  0  2  0  0  0  0  0  0
  1  4  1  6  0  0  0
  1  3  1  0  0  0  0
  1  8  1  0  0  0  0
  2  6  1  0  0  0  0
  3  7  1  0  0  0  0
  5  2  1  0  0  0  0
  5  6  1  0  0  0  0
  6 25  1  0  0  0  0
  7  5  1  0  0  0  0
  8  5  1  0  0  0  0
  8  2  1  0  0  0  0
  9 17  1  0  0  0  0
 10 16  2  0  0  0  0
 11 13  2  0  0  0  0
 12 13  1  0  0  0  0
 13  3  1  0  0  0  0
 14  9  2  0  0  0  0
 14 10  1  0  0  0  0
 15 12  2  0  0  0  0
 16 11  1  0  0  0  0
 17 16  1  0  0  0  0
 17 15  1  0  0  0  0
 18 24  1  0  0  0  0
 19 21  1  0  0  0  0
 20 23  1  0  0  0  0
 22 20  2  0  0  0  0
 22 24  1  0  0  0  0
 23  4  1  0  0  0  0
 23 21  2  0  0  0  0
 24 19  2  0  0  0  0
 25 26  2  0  0  0  0
M  END
>  <MODEL>
9

>  <REMARK>
 VINA RESULT:      -7.7      2.383      6.609
  Name = 
  3 active torsions:
  status: ('A' for Active; 'I' for Inactive)
    1  A    between atoms: C_4  and  C_21
    2  A    between atoms: N_12  and  C_14
    3  A    between atoms: C_17  and  C_19
                            x       y       z     vdW  Elec       q    Type
                         _______ _______ _______ _____ _____    ______ ____

>  <TORSDO>
F 3

$$$$
