=
 OpenBabel11052411323D

 51 55  0  0  1  0  0  0  0  0999 V2000
  161.8920  207.2180  147.1480 C   0  0  0  0  0  3  0  0  0  0  0  0
  159.6960  203.5060  151.8200 C   0  0  0  0  0  1  0  0  0  0  0  0
  161.4890  205.7580  149.5140 C   0  0  0  0  0  0  0  0  0  0  0  0
  161.2950  206.7070  153.8680 C   0  0  0  0  0  3  0  0  0  0  0  0
  162.1860  207.6210  151.7630 C   0  0  0  0  0  0  0  0  0  0  0  0
  160.2060  204.8750  151.4440 C   0  0  1  0  0  3  0  0  0  0  0  0
  161.5460  205.1090  152.1050 C   0  0  2  0  0  3  0  0  0  0  0  0
  160.7590  205.4580  148.3490 C   0  0  0  0  0  3  0  0  0  0  0  0
  163.0320  207.2850  150.6710 N   0  0  0  0  0  2  0  0  0  0  0  0
  160.5700  209.0480  154.0040 C   0  0  0  0  0  0  0  0  0  0  0  0
  160.7360  209.4660  152.7320 C   0  0  0  0  0  0  0  0  0  0  0  0
  160.9450  206.1870  147.1720 C   0  0  0  0  0  0  0  0  0  0  0  0
  161.6090  206.5290  152.5820 C   0  0  0  0  0  0  0  0  0  0  0  0
  162.6180  207.5340  148.3000 C   0  0  0  0  0  3  0  0  0  0  0  0
  161.4620  208.0010  154.5900 C   0  0  0  0  0  2  0  0  0  0  0  0
  161.7530  208.8900  151.8160 C   0  0  0  0  0  3  0  0  0  0  0  0
  161.4620  204.7340  150.6140 C   0  0  2  0  0  3  0  0  0  0  0  0
  162.4250  206.8100  149.4810 C   0  0  0  0  0  0  0  0  0  0  0  0
  159.5880  211.4940  153.2150 F   0  0  0  0  0  0  0  0  0  0  0  0
  159.9300  210.6170  152.2030 C   0  0  1  0  0  3  0  0  0  0  0  0
  160.6350  211.3440  151.0570 C   0  0  0  0  0  2  0  0  0  0  0  0
  160.1970  212.7280  150.9330 N   0  0  0  0  0  2  0  0  0  0  0  0
  161.3810  214.4090  149.2770 O   0  0  0  0  0  0  0  0  0  0  0  0
  160.4040  213.2690  149.2910 S   0  0  0  0  0  0  0  0  0  0  0  0
  159.0750  213.7490  148.7640 O   0  0  0  0  0  0  0  0  0  0  0  0
  161.0280  211.9790  148.2260 C   0  0  0  0  0  2  0  0  0  0  0  0
  160.9100  212.9970  145.9300 C   0  0  0  0  0  0  0  0  0  0  0  0
  160.4250  212.0850  146.9140 N   0  0  0  0  0  2  0  0  0  0  0  0
  161.8680  213.7760  146.1930 O   0  0  0  0  0  0  0  0  0  0  0  0
  160.2790  213.0110  144.5710 C   0  0  1  0  0  3  0  0  0  0  0  0
  159.5620  214.2000  144.3680 O   0  0  0  0  0  0  0  0  0  0  0  0
  158.3020  213.9570  144.9230 C   0  0  0  0  0  1  0  0  0  0  0  0
  161.3070  212.8370  143.4870 C   0  0  0  0  0  0  0  0  0  0  0  0
  162.4840  213.2510  143.6670 O   0  0  0  0  0  0  0  0  0  0  0  0
  160.9210  212.2480  142.1940 C   0  0  0  0  0  0  0  0  0  0  0  0
  159.7230  212.2850  141.8130 O   0  0  0  0  0  0  0  0  0  0  0  0
  162.1450  211.5000  141.1470 S   0  0  0  0  0  3  0  0  0  0  0  0
  162.2730  212.4910  139.9950 O   0  0  0  0  0  0  0  0  0  0  0  0
  160.2100  205.8420  146.0380 O   0  0  0  0  0  0  0  0  0  0  0  0
  161.4960  203.9940  145.2000 C   0  0  0  0  0  1  0  0  0  0  0  0
  160.8080  205.3050  144.8660 C   0  0  0  0  0  2  0  0  0  0  0  0
  159.5970  209.7420  154.9190 C   0  0  0  0  0  2  0  0  0  0  0  0
  160.2360  210.8840  155.6910 C   0  0  0  0  0  2  0  0  0  0  0  0
  159.3170  211.1670  157.2410 S   0  0  0  0  0  0  0  0  0  0  0  0
  158.5690  214.4410  153.5800 C   0  0  0  0  0  1  0  0  0  0  0  0
  157.1430  211.9240  155.7980 N   0  0  0  0  0  2  0  0  0  0  0  0
  158.9970  213.4220  155.6610 C   0  0  1  0  0  3  0  0  0  0  0  0
  156.5740  213.2070  154.7160 S   0  0  0  0  0  0  0  0  0  0  0  0
  158.2360  212.4850  156.5660 C   0  0  2  0  0  3  0  0  0  0  0  0
  158.0290  214.2030  154.9170 N   0  0  0  0  0  0  0  0  0  0  0  0
  159.8560  214.3490  156.5040 C   0  0  0  0  0  1  0  0  0  0  0  0
  1 12  2  0  0  0  0
  1 14  1  0  0  0  0
  4 15  1  0  0  0  0
  5 16  2  0  0  0  0
  5 13  1  0  0  0  0
  6  2  1  1  0  0  0
  6  7  1  0  0  0  0
  7 13  1  6  0  0  0
  8  3  2  0  0  0  0
  9  5  1  0  0  0  0
 10 15  1  0  0  0  0
 10 42  1  0  0  0  0
 11 10  2  0  0  0  0
 12  8  1  0  0  0  0
 13  4  2  0  0  0  0
 14 18  2  0  0  0  0
 16 11  1  0  0  0  0
 17  3  1  6  0  0  0
 17  6  1  0  0  0  0
 17  7  1  0  0  0  0
 18  3  1  0  0  0  0
 18  9  1  0  0  0  0
 20 11  1  0  0  0  0
 20 19  1  1  0  0  0
 21 20  1  0  0  0  0
 22 21  1  0  0  0  0
 23 24  2  0  0  0  0
 24 22  1  0  0  0  0
 25 24  2  0  0  0  0
 26 24  1  0  0  0  0
 27 29  2  0  0  0  0
 27 28  1  0  0  0  0
 28 26  1  0  0  0  0
 30 33  1  6  0  0  0
 30 27  1  0  0  0  0
 31 30  1  0  0  0  0
 31 32  1  0  0  0  0
 33 34  2  0  0  0  0
 35 33  1  0  0  0  0
 36 35  2  0  0  0  0
 37 35  1  0  0  0  0
 38 37  2  0  0  0  0
 39 12  1  0  0  0  0
 41 40  1  0  0  0  0
 41 39  1  0  0  0  0
 42 43  1  0  0  0  0
 43 44  1  0  0  0  0
 45 50  1  0  0  0  0
 46 49  1  0  0  0  0
 47 51  1  1  0  0  0
 47 49  1  0  0  0  0
 48 50  1  0  0  0  0
 48 46  1  0  0  0  0
 49 44  1  6  0  0  0
 50 47  1  0  0  0  0
M  END
>  <MODEL>
1

>  <REMARK>
 VINA RESULT:      -5.9      0.000      0.000
  Name = 
  17 active torsions:
  status: ('A' for Active; 'I' for Inactive)
    1  A    between atoms: C_3  and  C_26
    2  A    between atoms: C_3  and  C_51
    3  A    between atoms: O_5  and  C_15
    4  A    between atoms: C_8  and  C_15
    5  A    between atoms: C_8  and  C_36
    6  A    between atoms: C_14  and  C_15
    7  A    between atoms: S_18  and  C_36
    8  A    between atoms: S_20  and  C_38
    9  A    between atoms: S_20  and  N_44
   10  A    between atoms: O_24  and  C_32
   11  A    between atoms: O_24  and  C_35
   12  A    between atoms: S_25  and  C_30
   13  A    between atoms: S_25  and  C_51
   14  A    between atoms: C_28  and  C_39
   15  A    between atoms: C_28  and  N_44
   16  A    between atoms: C_31  and  C_39
   17  A    between atoms: C_38  and  N_43
                            x       y       z     vdW  Elec       q    Type
                         _______ _______ _______ _____ _____    ______ ____

>  <TORSDO>
F 17

$$$$
=
 OpenBabel11052411323D

 51 55  0  0  1  0  0  0  0  0999 V2000
  162.0820  206.7150  147.1260 C   0  0  0  0  0  3  0  0  0  0  0  0
  159.8300  203.5490  152.1580 C   0  0  0  0  0  1  0  0  0  0  0  0
  161.6440  205.5410  149.6390 C   0  0  0  0  0  0  0  0  0  0  0  0
  161.3330  206.9980  153.8440 C   0  0  0  0  0  3  0  0  0  0  0  0
  162.2610  207.6710  151.6650 C   0  0  0  0  0  0  0  0  0  0  0  0
  160.3280  204.8730  151.6330 C   0  0  1  0  0  3  0  0  0  0  0  0
  161.6490  205.2060  152.2900 C   0  0  2  0  0  3  0  0  0  0  0  0
  160.9460  205.0920  148.5030 C   0  0  0  0  0  3  0  0  0  0  0  0
  163.1360  207.2210  150.6400 N   0  0  0  0  0  2  0  0  0  0  0  0
  160.5720  209.3260  153.6840 C   0  0  0  0  0  0  0  0  0  0  0  0
  160.7620  209.5920  152.3740 C   0  0  0  0  0  0  0  0  0  0  0  0
  161.1500  205.6790  147.2520 C   0  0  0  0  0  0  0  0  0  0  0  0
  161.6800  206.6740  152.5960 C   0  0  0  0  0  0  0  0  0  0  0  0
  162.7750  207.1790  148.2480 C   0  0  0  0  0  3  0  0  0  0  0  0
  161.4640  208.3720  154.4100 C   0  0  0  0  0  2  0  0  0  0  0  0
  161.8080  208.9290  151.5560 C   0  0  0  0  0  3  0  0  0  0  0  0
  161.6050  204.6550  150.8530 C   0  0  2  0  0  3  0  0  0  0  0  0
  162.5650  206.5970  149.5020 C   0  0  0  0  0  0  0  0  0  0  0  0
  159.0370  211.2220  152.5650 F   0  0  0  0  0  0  0  0  0  0  0  0
  159.9520  210.6580  151.6940 C   0  0  1  0  0  3  0  0  0  0  0  0
  160.8280  211.7300  151.0440 C   0  0  0  0  0  2  0  0  0  0  0  0
  160.8440  211.6180  149.5920 N   0  0  0  0  0  2  0  0  0  0  0  0
  162.2260  213.6220  148.5700 O   0  0  0  0  0  0  0  0  0  0  0  0
  160.8160  213.2050  148.8760 S   0  0  0  0  0  0  0  0  0  0  0  0
  160.2160  214.1760  149.8620 O   0  0  0  0  0  0  0  0  0  0  0  0
  159.8740  213.2480  147.3600 C   0  0  0  0  0  2  0  0  0  0  0  0
  160.5300  213.7090  144.9770 C   0  0  0  0  0  0  0  0  0  0  0  0
  160.7540  213.0570  146.2260 N   0  0  0  0  0  2  0  0  0  0  0  0
  159.5230  214.4520  144.8120 O   0  0  0  0  0  0  0  0  0  0  0  0
  161.5140  213.5150  143.8640 C   0  0  1  0  0  3  0  0  0  0  0  0
  162.7560  213.0950  144.3650 O   0  0  0  0  0  0  0  0  0  0  0  0
  163.6440  214.1210  144.0260 C   0  0  0  0  0  1  0  0  0  0  0  0
  161.0070  212.5270  142.8490 C   0  0  0  0  0  0  0  0  0  0  0  0
  159.9840  211.8360  143.1040 O   0  0  0  0  0  0  0  0  0  0  0  0
  161.7460  212.3190  141.5930 C   0  0  0  0  0  0  0  0  0  0  0  0
  162.2970  211.2130  141.3570 O   0  0  0  0  0  0  0  0  0  0  0  0
  161.8460  213.6160  140.3840 S   0  0  0  0  0  3  0  0  0  0  0  0
  161.4180  212.9270  139.0940 O   0  0  0  0  0  0  0  0  0  0  0  0
  160.4470  205.1890  146.1520 O   0  0  0  0  0  0  0  0  0  0  0  0
  159.9310  203.2740  144.7960 C   0  0  0  0  0  1  0  0  0  0  0  0
  161.0020  204.2550  145.2350 C   0  0  0  0  0  2  0  0  0  0  0  0
  159.5670  210.1080  154.4870 C   0  0  0  0  0  2  0  0  0  0  0  0
  159.6330  209.7890  155.9710 C   0  0  0  0  0  2  0  0  0  0  0  0
  158.8620  211.1410  156.9250 S   0  0  0  0  0  0  0  0  0  0  0  0
  155.4520  214.1760  154.9630 C   0  0  0  0  0  1  0  0  0  0  0  0
  158.9850  213.4100  155.4370 N   0  0  0  0  0  2  0  0  0  0  0  0
  156.8510  212.3410  155.4420 C   0  0  1  0  0  3  0  0  0  0  0  0
  157.9840  214.4530  154.4100 S   0  0  0  0  0  0  0  0  0  0  0  0
  158.3420  212.1130  155.4600 C   0  0  2  0  0  3  0  0  0  0  0  0
  156.5730  213.3780  154.4690 N   0  0  0  0  0  0  0  0  0  0  0  0
  156.1500  211.0570  155.0270 C   0  0  0  0  0  1  0  0  0  0  0  0
  1 12  2  0  0  0  0
  1 14  1  0  0  0  0
  4 15  1  0  0  0  0
  5 13  1  0  0  0  0
  6  2  1  1  0  0  0
  6  7  1  0  0  0  0
  7 13  1  6  0  0  0
  8  3  2  0  0  0  0
  9  5  1  0  0  0  0
 10 15  1  0  0  0  0
 10 42  1  0  0  0  0
 11 10  2  0  0  0  0
 12  8  1  0  0  0  0
 13  4  2  0  0  0  0
 14 18  2  0  0  0  0
 16  5  2  0  0  0  0
 16 11  1  0  0  0  0
 17  3  1  6  0  0  0
 17  6  1  0  0  0  0
 17  7  1  0  0  0  0
 18  3  1  0  0  0  0
 18  9  1  0  0  0  0
 20 11  1  0  0  0  0
 20 19  1  1  0  0  0
 21 20  1  0  0  0  0
 22 21  1  0  0  0  0
 23 24  2  0  0  0  0
 24 22  1  0  0  0  0
 24 25  2  0  0  0  0
 26 24  1  0  0  0  0
 27 28  1  0  0  0  0
 28 26  1  0  0  0  0
 29 27  2  0  0  0  0
 30 33  1  6  0  0  0
 30 31  1  0  0  0  0
 30 27  1  0  0  0  0
 32 31  1  0  0  0  0
 33 34  2  0  0  0  0
 35 33  1  0  0  0  0
 36 35  2  0  0  0  0
 37 35  1  0  0  0  0
 38 37  2  0  0  0  0
 39 12  1  0  0  0  0
 40 41  1  0  0  0  0
 41 39  1  0  0  0  0
 42 43  1  0  0  0  0
 43 44  1  0  0  0  0
 46 49  1  0  0  0  0
 47 51  1  6  0  0  0
 47 49  1  0  0  0  0
 48 50  1  0  0  0  0
 48 46  1  0  0  0  0
 49 44  1  1  0  0  0
 50 45  1  0  0  0  0
 50 47  1  0  0  0  0
M  END
>  <MODEL>
2

>  <REMARK>
 VINA RESULT:      -5.1      1.238      1.769
  Name = 
  17 active torsions:
  status: ('A' for Active; 'I' for Inactive)
    1  A    between atoms: C_3  and  C_26
    2  A    between atoms: C_3  and  C_51
    3  A    between atoms: O_5  and  C_15
    4  A    between atoms: C_8  and  C_15
    5  A    between atoms: C_8  and  C_36
    6  A    between atoms: C_14  and  C_15
    7  A    between atoms: S_18  and  C_36
    8  A    between atoms: S_20  and  C_38
    9  A    between atoms: S_20  and  N_44
   10  A    between atoms: O_24  and  C_32
   11  A    between atoms: O_24  and  C_35
   12  A    between atoms: S_25  and  C_30
   13  A    between atoms: S_25  and  C_51
   14  A    between atoms: C_28  and  C_39
   15  A    between atoms: C_28  and  N_44
   16  A    between atoms: C_31  and  C_39
   17  A    between atoms: C_38  and  N_43
                            x       y       z     vdW  Elec       q    Type
                         _______ _______ _______ _____ _____    ______ ____

>  <TORSDO>
F 17

$$$$
=
 OpenBabel11052411323D

 51 55  0  0  1  0  0  0  0  0999 V2000
  157.4320  214.2110  152.8950 C   0  0  0  0  0  3  0  0  0  0  0  0
  157.0990  213.0910  146.6460 C   0  0  0  0  0  1  0  0  0  0  0  0
  157.8570  214.0590  150.1240 C   0  0  0  0  0  0  0  0  0  0  0  0
  161.1060  212.5600  147.4600 C   0  0  0  0  0  3  0  0  0  0  0  0
  160.7490  213.3330  149.7700 C   0  0  0  0  0  0  0  0  0  0  0  0
  157.9340  212.9690  147.8960 C   0  0  1  0  0  3  0  0  0  0  0  0
  159.1360  213.8800  147.7850 C   0  0  2  0  0  3  0  0  0  0  0  0
  156.5850  213.8080  150.6720 C   0  0  0  0  0  3  0  0  0  0  0  0
  160.2560  214.4400  150.5100 N   0  0  0  0  0  2  0  0  0  0  0  0
  162.2640  210.8190  148.7440 C   0  0  0  0  0  0  0  0  0  0  0  0
  161.7890  211.0270  149.9900 C   0  0  0  0  0  0  0  0  0  0  0  0
  156.3690  213.8700  152.0510 C   0  0  0  0  0  0  0  0  0  0  0  0
  160.3310  213.1760  148.3560 C   0  0  0  0  0  0  0  0  0  0  0  0
  158.7020  214.4530  152.3660 C   0  0  0  0  0  3  0  0  0  0  0  0
  162.4280  211.9530  147.7860 C   0  0  0  0  0  2  0  0  0  0  0  0
  161.3440  212.3580  150.4740 C   0  0  0  0  0  3  0  0  0  0  0  0
  157.9210  214.2870  148.6390 C   0  0  2  0  0  3  0  0  0  0  0  0
  158.9210  214.3820  150.9860 C   0  0  0  0  0  0  0  0  0  0  0  0
  163.0460  209.5200  151.3370 F   0  0  0  0  0  0  0  0  0  0  0  0
  161.7650  209.9060  150.9880 C   0  0  1  0  0  3  0  0  0  0  0  0
  160.9340  210.2450  152.2260 C   0  0  0  0  0  2  0  0  0  0  0  0
  160.2270  209.0840  152.7480 N   0  0  0  0  0  2  0  0  0  0  0  0
  159.9350  208.5670  155.3200 O   0  0  0  0  0  0  0  0  0  0  0  0
  160.9690  208.5570  154.2320 S   0  0  0  0  0  0  0  0  0  0  0  0
  162.0760  209.5150  154.5930 O   0  0  0  0  0  0  0  0  0  0  0  0
  161.6380  206.9060  154.1060 C   0  0  0  0  0  2  0  0  0  0  0  0
  161.3810  205.3910  152.1150 C   0  0  0  0  0  0  0  0  0  0  0  0
  160.8210  206.1090  153.2130 N   0  0  0  0  0  2  0  0  0  0  0  0
  162.6160  205.4640  151.8630 O   0  0  0  0  0  0  0  0  0  0  0  0
  160.4890  204.5360  151.2690 C   0  0  1  0  0  3  0  0  0  0  0  0
  160.2630  205.1350  150.0200 O   0  0  0  0  0  0  0  0  0  0  0  0
  160.0710  206.4910  150.3030 C   0  0  0  0  0  1  0  0  0  0  0  0
  161.0640  203.1590  151.0840 C   0  0  0  0  0  0  0  0  0  0  0  0
  161.4650  202.5060  152.0850 O   0  0  0  0  0  0  0  0  0  0  0  0
  161.2250  202.6040  149.7290 C   0  0  0  0  0  0  0  0  0  0  0  0
  161.7680  203.2880  148.8240 O   0  0  0  0  0  0  0  0  0  0  0  0
  160.6770  200.9550  149.3630 S   0  0  0  0  0  3  0  0  0  0  0  0
  161.1090  200.7550  147.9150 O   0  0  0  0  0  0  0  0  0  0  0  0
  155.0880  213.6300  152.5460 O   0  0  0  0  0  0  0  0  0  0  0  0
  155.4060  213.3230  154.9070 C   0  0  0  0  0  1  0  0  0  0  0  0
  154.6580  214.0790  153.8250 C   0  0  0  0  0  2  0  0  0  0  0  0
  162.8010  209.4700  148.3440 C   0  0  0  0  0  2  0  0  0  0  0  0
  161.7000  208.4440  148.1350 C   0  0  0  0  0  2  0  0  0  0  0  0
  162.3990  206.7620  148.2480 S   0  0  0  0  0  0  0  0  0  0  0  0
  160.9880  203.0680  145.2400 C   0  0  0  0  0  1  0  0  0  0  0  0
  160.5450  206.5350  146.2760 N   0  0  0  0  0  2  0  0  0  0  0  0
  162.1830  204.7990  146.3030 C   0  0  1  0  0  3  0  0  0  0  0  0
  160.0790  205.4900  144.9220 S   0  0  0  0  0  0  0  0  0  0  0  0
  161.9430  206.2680  146.5420 C   0  0  2  0  0  3  0  0  0  0  0  0
  161.4940  204.4300  145.0820 N   0  0  0  0  0  0  0  0  0  0  0  0
  163.6730  204.5510  146.1380 C   0  0  0  0  0  1  0  0  0  0  0  0
  3  8  2  0  0  0  0
  3 18  1  0  0  0  0
  4 15  1  0  0  0  0
  4 13  2  0  0  0  0
  5 16  2  0  0  0  0
  5  9  1  0  0  0  0
  6  2  1  6  0  0  0
  6 17  1  0  0  0  0
  7  6  1  0  0  0  0
  7 13  1  1  0  0  0
  7 17  1  0  0  0  0
  8 12  1  0  0  0  0
  9 18  1  0  0  0  0
 10 11  2  0  0  0  0
 11 16  1  0  0  0  0
 11 20  1  0  0  0  0
 12 39  1  0  0  0  0
 12  1  2  0  0  0  0
 13  5  1  0  0  0  0
 14  1  1  0  0  0  0
 15 10  1  0  0  0  0
 17  3  1  1  0  0  0
 18 14  2  0  0  0  0
 20 19  1  1  0  0  0
 20 21  1  0  0  0  0
 21 22  1  0  0  0  0
 22 24  1  0  0  0  0
 24 25  2  0  0  0  0
 24 23  2  0  0  0  0
 26 24  1  0  0  0  0
 27 28  1  0  0  0  0
 28 26  1  0  0  0  0
 29 27  2  0  0  0  0
 30 31  1  6  0  0  0
 30 27  1  0  0  0  0
 31 32  1  0  0  0  0
 33 30  1  0  0  0  0
 33 34  2  0  0  0  0
 35 33  1  0  0  0  0
 36 35  2  0  0  0  0
 37 35  1  0  0  0  0
 38 37  2  0  0  0  0
 39 41  1  0  0  0  0
 41 40  1  0  0  0  0
 42 10  1  0  0  0  0
 43 44  1  0  0  0  0
 43 42  1  0  0  0  0
 46 49  1  0  0  0  0
 47 51  1  6  0  0  0
 47 49  1  0  0  0  0
 48 50  1  0  0  0  0
 48 46  1  0  0  0  0
 49 44  1  1  0  0  0
 50 45  1  0  0  0  0
 50 47  1  0  0  0  0
M  END
>  <MODEL>
3

>  <REMARK>
 VINA RESULT:      -4.6      4.641     10.111
  Name = 
  17 active torsions:
  status: ('A' for Active; 'I' for Inactive)
    1  A    between atoms: C_3  and  C_26
    2  A    between atoms: C_3  and  C_51
    3  A    between atoms: O_5  and  C_15
    4  A    between atoms: C_8  and  C_15
    5  A    between atoms: C_8  and  C_36
    6  A    between atoms: C_14  and  C_15
    7  A    between atoms: S_18  and  C_36
    8  A    between atoms: S_20  and  C_38
    9  A    between atoms: S_20  and  N_44
   10  A    between atoms: O_24  and  C_32
   11  A    between atoms: O_24  and  C_35
   12  A    between atoms: S_25  and  C_30
   13  A    between atoms: S_25  and  C_51
   14  A    between atoms: C_28  and  C_39
   15  A    between atoms: C_28  and  N_44
   16  A    between atoms: C_31  and  C_39
   17  A    between atoms: C_38  and  N_43
                            x       y       z     vdW  Elec       q    Type
                         _______ _______ _______ _____ _____    ______ ____

>  <TORSDO>
F 17

$$$$
=
 OpenBabel11052411323D

 51 55  0  0  1  0  0  0  0  0999 V2000
  161.8840  206.1980  147.4490 C   0  0  0  0  0  3  0  0  0  0  0  0
  160.6140  208.7920  153.1130 C   0  0  0  0  0  1  0  0  0  0  0  0
  161.8240  207.7520  149.7870 C   0  0  0  0  0  0  0  0  0  0  0  0
  161.3480  212.0840  150.7410 C   0  0  0  0  0  3  0  0  0  0  0  0
  162.0120  210.6100  148.8840 C   0  0  0  0  0  0  0  0  0  0  0  0
  160.7750  209.0350  151.6330 C   0  0  1  0  0  3  0  0  0  0  0  0
  162.0070  209.8780  151.3950 C   0  0  2  0  0  3  0  0  0  0  0  0
  161.2050  206.4890  149.7460 C   0  0  0  0  0  3  0  0  0  0  0  0
  162.9280  209.5740  148.5570 N   0  0  0  0  0  2  0  0  0  0  0  0
  160.0660  213.0350  148.8770 C   0  0  0  0  0  0  0  0  0  0  0  0
  160.1400  212.0510  147.9570 C   0  0  0  0  0  0  0  0  0  0  0  0
  161.2210  205.7150  148.5830 C   0  0  0  0  0  0  0  0  0  0  0  0
  161.7130  210.8730  150.3120 C   0  0  0  0  0  0  0  0  0  0  0  0
  162.4950  207.4550  147.4720 C   0  0  0  0  0  3  0  0  0  0  0  0
  161.1810  213.2640  149.8460 C   0  0  0  0  0  2  0  0  0  0  0  0
  161.2780  211.1020  147.8750 C   0  0  0  0  0  3  0  0  0  0  0  0
  162.0370  208.3590  151.1460 C   0  0  2  0  0  3  0  0  0  0  0  0
  162.4720  208.2340  148.6330 C   0  0  0  0  0  0  0  0  0  0  0  0
  157.8150  211.9990  147.4490 F   0  0  0  0  0  0  0  0  0  0  0  0
  159.0810  211.9240  146.8990 C   0  0  1  0  0  3  0  0  0  0  0  0
  159.2560  212.9450  145.7740 C   0  0  0  0  0  2  0  0  0  0  0  0
  159.5260  212.3080  144.4930 N   0  0  0  0  0  2  0  0  0  0  0  0
  161.8830  212.3860  143.3060 O   0  0  0  0  0  0  0  0  0  0  0  0
  160.6880  213.2470  143.5980 S   0  0  0  0  0  0  0  0  0  0  0  0
  161.1190  214.4230  144.4390 O   0  0  0  0  0  0  0  0  0  0  0  0
  160.0300  213.8410  142.0490 C   0  0  0  0  0  2  0  0  0  0  0  0
  158.9650  212.8650  139.9900 C   0  0  0  0  0  0  0  0  0  0  0  0
  159.3290  212.7730  141.3660 N   0  0  0  0  0  2  0  0  0  0  0  0
  159.2120  213.9120  139.3290 O   0  0  0  0  0  0  0  0  0  0  0  0
  158.2970  211.6980  139.3310 C   0  0  1  0  0  3  0  0  0  0  0  0
  157.0950  212.0900  138.7230 O   0  0  0  0  0  0  0  0  0  0  0  0
  156.0920  211.5160  139.5100 C   0  0  0  0  0  1  0  0  0  0  0  0
  159.2000  211.0510  138.3160 C   0  0  0  0  0  0  0  0  0  0  0  0
  159.1030  211.3650  137.0990 O   0  0  0  0  0  0  0  0  0  0  0  0
  160.1450  210.0020  138.7350 C   0  0  0  0  0  0  0  0  0  0  0  0
  159.7740  208.8020  138.7970 O   0  0  0  0  0  0  0  0  0  0  0  0
  161.8250  210.4150  139.1340 S   0  0  0  0  0  3  0  0  0  0  0  0
  161.8420  210.3790  140.6580 O   0  0  0  0  0  0  0  0  0  0  0  0
  160.6080  204.4630  148.5960 O   0  0  0  0  0  0  0  0  0  0  0  0
  160.2210  202.1670  149.1850 C   0  0  0  0  0  1  0  0  0  0  0  0
  160.9160  203.4630  149.5580 C   0  0  0  0  0  2  0  0  0  0  0  0
  158.9400  214.0340  148.8440 C   0  0  0  0  0  2  0  0  0  0  0  0
  158.4760  214.4360  150.2340 C   0  0  0  0  0  2  0  0  0  0  0  0
  157.4230  213.1200  150.9340 S   0  0  0  0  0  0  0  0  0  0  0  0
  155.9290  212.5890  155.6420 C   0  0  0  0  0  1  0  0  0  0  0  0
  158.4380  213.8830  153.3350 N   0  0  0  0  0  2  0  0  0  0  0  0
  156.1400  213.2410  153.3880 C   0  0  1  0  0  3  0  0  0  0  0  0
  157.9800  214.0790  155.0370 S   0  0  0  0  0  0  0  0  0  0  0  0
  157.2090  213.9200  152.5690 C   0  0  2  0  0  3  0  0  0  0  0  0
  156.2690  213.7010  154.7560 N   0  0  0  0  0  0  0  0  0  0  0  0
  154.7720  213.6290  152.8510 C   0  0  0  0  0  1  0  0  0  0  0  0
  1 14  2  0  0  0  0
  1 12  1  0  0  0  0
  5 13  1  0  0  0  0
  6  2  1  1  0  0  0
  7 13  1  6  0  0  0
  7  6  1  0  0  0  0
  8  3  1  0  0  0  0
  9 18  1  0  0  0  0
  9  5  1  0  0  0  0
 10 15  1  0  0  0  0
 11 10  2  0  0  0  0
 12 39  1  0  0  0  0
 12  8  2  0  0  0  0
 13  4  2  0  0  0  0
 14 18  1  0  0  0  0
 15  4  1  0  0  0  0
 16 11  1  0  0  0  0
 16  5  2  0  0  0  0
 17  3  1  6  0  0  0
 17  7  1  0  0  0  0
 17  6  1  0  0  0  0
 18  3  2  0  0  0  0
 20 19  1  1  0  0  0
 20 11  1  0  0  0  0
 21 20  1  0  0  0  0
 22 21  1  0  0  0  0
 23 24  2  0  0  0  0
 24 25  2  0  0  0  0
 24 22  1  0  0  0  0
 26 24  1  0  0  0  0
 27 28  1  0  0  0  0
 28 26  1  0  0  0  0
 29 27  2  0  0  0  0
 30 33  1  6  0  0  0
 30 27  1  0  0  0  0
 31 30  1  0  0  0  0
 31 32  1  0  0  0  0
 33 35  1  0  0  0  0
 34 33  2  0  0  0  0
 35 36  2  0  0  0  0
 35 37  1  0  0  0  0
 37 38  2  0  0  0  0
 39 41  1  0  0  0  0
 40 41  1  0  0  0  0
 42 10  1  0  0  0  0
 42 43  1  0  0  0  0
 43 44  1  0  0  0  0
 46 48  1  0  0  0  0
 47 51  1  6  0  0  0
 47 50  1  0  0  0  0
 49 44  1  6  0  0  0
 49 46  1  0  0  0  0
 49 47  1  0  0  0  0
 50 48  1  0  0  0  0
 50 45  1  0  0  0  0
M  END
>  <MODEL>
4

>  <REMARK>
 VINA RESULT:      -4.3      2.793      5.056
  Name = 
  17 active torsions:
  status: ('A' for Active; 'I' for Inactive)
    1  A    between atoms: C_3  and  C_26
    2  A    between atoms: C_3  and  C_51
    3  A    between atoms: O_5  and  C_15
    4  A    between atoms: C_8  and  C_15
    5  A    between atoms: C_8  and  C_36
    6  A    between atoms: C_14  and  C_15
    7  A    between atoms: S_18  and  C_36
    8  A    between atoms: S_20  and  C_38
    9  A    between atoms: S_20  and  N_44
   10  A    between atoms: O_24  and  C_32
   11  A    between atoms: O_24  and  C_35
   12  A    between atoms: S_25  and  C_30
   13  A    between atoms: S_25  and  C_51
   14  A    between atoms: C_28  and  C_39
   15  A    between atoms: C_28  and  N_44
   16  A    between atoms: C_31  and  C_39
   17  A    between atoms: C_38  and  N_43
                            x       y       z     vdW  Elec       q    Type
                         _______ _______ _______ _____ _____    ______ ____

>  <TORSDO>
F 17

$$$$
=
 OpenBabel11052411323D

 51 55  0  0  1  0  0  0  0  0999 V2000
  161.9490  205.9770  147.4430 C   0  0  0  0  0  3  0  0  0  0  0  0
  160.4600  208.6200  153.0300 C   0  0  0  0  0  1  0  0  0  0  0  0
  161.8190  207.5310  149.7780 C   0  0  0  0  0  0  0  0  0  0  0  0
  161.4780  211.8790  150.7180 C   0  0  0  0  0  3  0  0  0  0  0  0
  162.1860  210.3780  148.8980 C   0  0  0  0  0  0  0  0  0  0  0  0
  160.7190  208.8580  151.5630 C   0  0  1  0  0  3  0  0  0  0  0  0
  161.9990  209.6450  151.4020 C   0  0  2  0  0  3  0  0  0  0  0  0
  161.1480  206.2970  149.6970 C   0  0  0  0  0  3  0  0  0  0  0  0
  163.0730  209.3030  148.6220 N   0  0  0  0  0  2  0  0  0  0  0  0
  160.3530  212.8870  148.7840 C   0  0  0  0  0  0  0  0  0  0  0  0
  160.4370  211.9020  147.8660 C   0  0  0  0  0  0  0  0  0  0  0  0
  161.1980  205.5240  148.5340 C   0  0  0  0  0  0  0  0  0  0  0  0
  161.8140  210.6530  150.3070 C   0  0  0  0  0  0  0  0  0  0  0  0
  162.6120  207.2060  147.5060 C   0  0  0  0  0  3  0  0  0  0  0  0
  161.4170  213.0660  149.8180 C   0  0  0  0  0  2  0  0  0  0  0  0
  161.5360  210.9030  147.8490 C   0  0  0  0  0  3  0  0  0  0  0  0
  161.9770  208.1260  151.1500 C   0  0  2  0  0  3  0  0  0  0  0  0
  162.5540  207.9840  148.6670 C   0  0  0  0  0  0  0  0  0  0  0  0
  158.1700  212.1510  147.1870 F   0  0  0  0  0  0  0  0  0  0  0  0
  159.4390  211.8230  146.7480 C   0  0  1  0  0  3  0  0  0  0  0  0
  159.8440  212.6750  145.5440 C   0  0  0  0  0  2  0  0  0  0  0  0
  158.9330  212.5060  144.4210 N   0  0  0  0  0  2  0  0  0  0  0  0
  160.2520  211.1670  142.5660 O   0  0  0  0  0  0  0  0  0  0  0  0
  159.8220  212.5600  142.9240 S   0  0  0  0  0  0  0  0  0  0  0  0
  161.0440  213.4230  143.1120 O   0  0  0  0  0  0  0  0  0  0  0  0
  158.8440  213.2100  141.5790 C   0  0  0  0  0  2  0  0  0  0  0  0
  158.2070  212.5790  139.2300 C   0  0  0  0  0  0  0  0  0  0  0  0
  158.9290  212.3280  140.4340 N   0  0  0  0  0  2  0  0  0  0  0  0
  157.4310  213.5720  139.1420 O   0  0  0  0  0  0  0  0  0  0  0  0
  158.3890  211.6600  138.0620 C   0  0  1  0  0  3  0  0  0  0  0  0
  159.7520  211.4380  137.8110 O   0  0  0  0  0  0  0  0  0  0  0  0
  160.2180  212.6420  137.2750 C   0  0  0  0  0  1  0  0  0  0  0  0
  157.6850  210.3490  138.2800 C   0  0  0  0  0  0  0  0  0  0  0  0
  158.3560  209.2870  138.3900 O   0  0  0  0  0  0  0  0  0  0  0  0
  156.2130  210.2970  138.2950 C   0  0  0  0  0  0  0  0  0  0  0  0
  155.5430  211.1350  137.6400 O   0  0  0  0  0  0  0  0  0  0  0  0
  155.3690  209.0370  139.2180 S   0  0  0  0  0  3  0  0  0  0  0  0
  155.1590  207.9310  138.1900 O   0  0  0  0  0  0  0  0  0  0  0  0
  160.5310  204.3000  148.5050 O   0  0  0  0  0  0  0  0  0  0  0  0
  160.6230  202.2260  149.7130 C   0  0  0  0  0  1  0  0  0  0  0  0
  161.2060  203.0510  148.5810 C   0  0  0  0  0  2  0  0  0  0  0  0
  159.2760  213.9350  148.6880 C   0  0  0  0  0  2  0  0  0  0  0  0
  158.8430  214.4530  150.0490 C   0  0  0  0  0  2  0  0  0  0  0  0
  157.1620  213.8540  150.4280 S   0  0  0  0  0  0  0  0  0  0  0  0
  155.9280  212.7200  155.1050 C   0  0  0  0  0  1  0  0  0  0  0  0
  158.4400  214.0410  152.8170 N   0  0  0  0  0  2  0  0  0  0  0  0
  156.0800  213.7190  152.9770 C   0  0  1  0  0  3  0  0  0  0  0  0
  158.1340  213.9980  154.5630 S   0  0  0  0  0  0  0  0  0  0  0  0
  157.1820  214.3780  152.1850 C   0  0  2  0  0  3  0  0  0  0  0  0
  156.3700  213.9120  154.3840 N   0  0  0  0  0  0  0  0  0  0  0  0
  154.7530  214.3780  152.6380 C   0  0  0  0  0  1  0  0  0  0  0  0
  1 14  2  0  0  0  0
  1 12  1  0  0  0  0
  5 13  1  0  0  0  0
  6  2  1  1  0  0  0
  7 13  1  6  0  0  0
  7  6  1  0  0  0  0
  8  3  1  0  0  0  0
  9 18  1  0  0  0  0
  9  5  1  0  0  0  0
 10 15  1  0  0  0  0
 11 10  2  0  0  0  0
 12  8  2  0  0  0  0
 13  4  2  0  0  0  0
 14 18  1  0  0  0  0
 15  4  1  0  0  0  0
 16 11  1  0  0  0  0
 16  5  2  0  0  0  0
 17  3  1  6  0  0  0
 17  7  1  0  0  0  0
 17  6  1  0  0  0  0
 18  3  2  0  0  0  0
 20 19  1  1  0  0  0
 20 11  1  0  0  0  0
 21 20  1  0  0  0  0
 22 21  1  0  0  0  0
 23 24  2  0  0  0  0
 24 25  2  0  0  0  0
 24 22  1  0  0  0  0
 26 24  1  0  0  0  0
 27 28  1  0  0  0  0
 28 26  1  0  0  0  0
 29 27  2  0  0  0  0
 30 31  1  1  0  0  0
 30 33  1  0  0  0  0
 30 27  1  0  0  0  0
 32 31  1  0  0  0  0
 33 35  1  0  0  0  0
 33 34  2  0  0  0  0
 35 37  1  0  0  0  0
 36 35  2  0  0  0  0
 38 37  2  0  0  0  0
 39 12  1  0  0  0  0
 39 41  1  0  0  0  0
 41 40  1  0  0  0  0
 42 10  1  0  0  0  0
 42 43  1  0  0  0  0
 43 44  1  0  0  0  0
 46 48  1  0  0  0  0
 47 51  1  6  0  0  0
 47 50  1  0  0  0  0
 49 44  1  6  0  0  0
 49 46  1  0  0  0  0
 49 47  1  0  0  0  0
 50 48  1  0  0  0  0
 50 45  1  0  0  0  0
M  END
>  <MODEL>
5

>  <REMARK>
 VINA RESULT:      -4.3      3.358      5.629
  Name = 
  17 active torsions:
  status: ('A' for Active; 'I' for Inactive)
    1  A    between atoms: C_3  and  C_26
    2  A    between atoms: C_3  and  C_51
    3  A    between atoms: O_5  and  C_15
    4  A    between atoms: C_8  and  C_15
    5  A    between atoms: C_8  and  C_36
    6  A    between atoms: C_14  and  C_15
    7  A    between atoms: S_18  and  C_36
    8  A    between atoms: S_20  and  C_38
    9  A    between atoms: S_20  and  N_44
   10  A    between atoms: O_24  and  C_32
   11  A    between atoms: O_24  and  C_35
   12  A    between atoms: S_25  and  C_30
   13  A    between atoms: S_25  and  C_51
   14  A    between atoms: C_28  and  C_39
   15  A    between atoms: C_28  and  N_44
   16  A    between atoms: C_31  and  C_39
   17  A    between atoms: C_38  and  N_43
                            x       y       z     vdW  Elec       q    Type
                         _______ _______ _______ _____ _____    ______ ____

>  <TORSDO>
F 17

$$$$
=
 OpenBabel11052411323D

 51 55  0  0  1  0  0  0  0  0999 V2000
  162.1860  205.9860  147.6190 C   0  0  0  0  0  3  0  0  0  0  0  0
  160.7380  209.0500  152.9970 C   0  0  0  0  0  1  0  0  0  0  0  0
  162.0570  207.7290  149.8160 C   0  0  0  0  0  0  0  0  0  0  0  0
  161.5910  212.1290  150.3900 C   0  0  0  0  0  3  0  0  0  0  0  0
  162.3070  210.5010  148.6870 C   0  0  0  0  0  0  0  0  0  0  0  0
  160.9540  209.1690  151.5090 C   0  0  1  0  0  3  0  0  0  0  0  0
  162.2030  209.9800  151.2480 C   0  0  2  0  0  3  0  0  0  0  0  0
  161.4270  206.4720  149.8570 C   0  0  0  0  0  3  0  0  0  0  0  0
  163.2230  209.4350  148.4810 N   0  0  0  0  0  2  0  0  0  0  0  0
  160.3870  212.9310  148.4070 C   0  0  0  0  0  0  0  0  0  0  0  0
  160.4840  211.8730  147.5750 C   0  0  0  0  0  0  0  0  0  0  0  0
  161.4770  205.6040  148.7630 C   0  0  0  0  0  0  0  0  0  0  0  0
  161.9580  210.8830  150.0760 C   0  0  0  0  0  0  0  0  0  0  0  0
  162.8080  207.2360  147.5600 C   0  0  0  0  0  3  0  0  0  0  0  0
  161.4680  213.2320  149.3940 C   0  0  0  0  0  2  0  0  0  0  0  0
  161.6150  210.9120  147.6140 C   0  0  0  0  0  3  0  0  0  0  0  0
  162.2260  208.4450  151.1270 C   0  0  2  0  0  3  0  0  0  0  0  0
  162.7510  208.1080  148.6510 C   0  0  0  0  0  0  0  0  0  0  0  0
  158.3130  212.3890  146.7470 F   0  0  0  0  0  0  0  0  0  0  0  0
  159.4630  211.6660  146.4930 C   0  0  1  0  0  3  0  0  0  0  0  0
  160.0170  211.9800  145.1020 C   0  0  0  0  0  2  0  0  0  0  0  0
  159.8870  213.3900  144.7650 N   0  0  0  0  0  2  0  0  0  0  0  0
  158.3860  214.4520  142.8700 O   0  0  0  0  0  0  0  0  0  0  0  0
  159.5840  213.5660  143.0600 S   0  0  0  0  0  0  0  0  0  0  0  0
  159.2940  212.2080  142.4720 O   0  0  0  0  0  0  0  0  0  0  0  0
  160.9660  214.2970  142.1980 C   0  0  0  0  0  2  0  0  0  0  0  0
  161.7450  212.7060  140.4140 C   0  0  0  0  0  0  0  0  0  0  0  0
  160.9880  213.8430  140.8230 N   0  0  0  0  0  2  0  0  0  0  0  0
  162.4590  212.0770  141.2440 O   0  0  0  0  0  0  0  0  0  0  0  0
  161.6740  212.2540  138.9870 C   0  0  1  0  0  3  0  0  0  0  0  0
  162.1100  213.2680  138.1210 O   0  0  0  0  0  0  0  0  0  0  0  0
  161.0800  213.4060  137.1850 C   0  0  0  0  0  1  0  0  0  0  0  0
  162.4820  211.0040  138.7670 C   0  0  0  0  0  0  0  0  0  0  0  0
  163.7380  211.0770  138.6820 O   0  0  0  0  0  0  0  0  0  0  0  0
  161.8030  209.7110  138.5810 C   0  0  0  0  0  0  0  0  0  0  0  0
  162.0390  208.7530  139.3600 O   0  0  0  0  0  0  0  0  0  0  0  0
  160.6250  209.4970  137.2690 S   0  0  0  0  0  3  0  0  0  0  0  0
  159.6230  208.5100  137.8570 O   0  0  0  0  0  0  0  0  0  0  0  0
  160.8520  204.3610  148.8570 O   0  0  0  0  0  0  0  0  0  0  0  0
  160.4630  202.0120  148.5430 C   0  0  0  0  0  1  0  0  0  0  0  0
  161.3290  203.2050  148.1820 C   0  0  0  0  0  2  0  0  0  0  0  0
  159.2730  213.9310  148.2500 C   0  0  0  0  0  2  0  0  0  0  0  0
  158.7630  214.4500  149.5830 C   0  0  0  0  0  2  0  0  0  0  0  0
  157.4400  213.3550  150.2020 S   0  0  0  0  0  0  0  0  0  0  0  0
  156.6580  211.9870  154.9140 C   0  0  0  0  0  1  0  0  0  0  0  0
  158.9910  213.2870  152.4320 N   0  0  0  0  0  2  0  0  0  0  0  0
  156.6460  213.1190  152.8470 C   0  0  1  0  0  3  0  0  0  0  0  0
  158.8800  213.1450  154.1960 S   0  0  0  0  0  0  0  0  0  0  0  0
  157.6990  213.7530  151.9730 C   0  0  2  0  0  3  0  0  0  0  0  0
  157.1060  213.1930  154.2200 N   0  0  0  0  0  0  0  0  0  0  0  0
  155.3440  213.8900  152.7080 C   0  0  0  0  0  1  0  0  0  0  0  0
  1 12  1  0  0  0  0
  3  8  1  0  0  0  0
  5 13  1  0  0  0  0
  6  2  1  1  0  0  0
  7 13  1  6  0  0  0
  7  6  1  0  0  0  0
  9 18  1  0  0  0  0
  9  5  1  0  0  0  0
 10 15  1  0  0  0  0
 11 16  1  0  0  0  0
 11 10  2  0  0  0  0
 12 39  1  0  0  0  0
 12  8  2  0  0  0  0
 13  4  2  0  0  0  0
 14  1  2  0  0  0  0
 14 18  1  0  0  0  0
 15  4  1  0  0  0  0
 16  5  2  0  0  0  0
 17  3  1  6  0  0  0
 17  7  1  0  0  0  0
 17  6  1  0  0  0  0
 18  3  2  0  0  0  0
 20 19  1  1  0  0  0
 20 11  1  0  0  0  0
 21 20  1  0  0  0  0
 22 21  1  0  0  0  0
 23 24  2  0  0  0  0
 24 22  1  0  0  0  0
 25 24  2  0  0  0  0
 26 24  1  0  0  0  0
 27 28  1  0  0  0  0
 27 29  2  0  0  0  0
 28 26  1  0  0  0  0
 30 31  1  6  0  0  0
 30 27  1  0  0  0  0
 32 31  1  0  0  0  0
 33 30  1  0  0  0  0
 34 33  2  0  0  0  0
 35 33  1  0  0  0  0
 35 36  2  0  0  0  0
 37 38  2  0  0  0  0
 37 35  1  0  0  0  0
 41 40  1  0  0  0  0
 41 39  1  0  0  0  0
 42 10  1  0  0  0  0
 42 43  1  0  0  0  0
 43 44  1  0  0  0  0
 46 48  1  0  0  0  0
 47 51  1  1  0  0  0
 47 50  1  0  0  0  0
 48 50  1  0  0  0  0
 49 44  1  6  0  0  0
 49 46  1  0  0  0  0
 49 47  1  0  0  0  0
 50 45  1  0  0  0  0
M  END
>  <MODEL>
6

>  <REMARK>
 VINA RESULT:      -3.8      2.810      5.247
  Name = 
  17 active torsions:
  status: ('A' for Active; 'I' for Inactive)
    1  A    between atoms: C_3  and  C_26
    2  A    between atoms: C_3  and  C_51
    3  A    between atoms: O_5  and  C_15
    4  A    between atoms: C_8  and  C_15
    5  A    between atoms: C_8  and  C_36
    6  A    between atoms: C_14  and  C_15
    7  A    between atoms: S_18  and  C_36
    8  A    between atoms: S_20  and  C_38
    9  A    between atoms: S_20  and  N_44
   10  A    between atoms: O_24  and  C_32
   11  A    between atoms: O_24  and  C_35
   12  A    between atoms: S_25  and  C_30
   13  A    between atoms: S_25  and  C_51
   14  A    between atoms: C_28  and  C_39
   15  A    between atoms: C_28  and  N_44
   16  A    between atoms: C_31  and  C_39
   17  A    between atoms: C_38  and  N_43
                            x       y       z     vdW  Elec       q    Type
                         _______ _______ _______ _____ _____    ______ ____

>  <TORSDO>
F 17

$$$$
