=
 OpenBabel11042422243D

 64 70  0  0  1  0  0  0  0  0999 V2000
  162.0240  210.7910  153.8840 C   0  0  0  0  0  2  0  0  0  0  0  0
  161.4780  210.7520  152.4760 C   0  0  2  0  0  3  0  0  0  0  0  0
  160.5220  210.7050  153.6590 C   0  0  2  0  0  3  0  0  0  0  0  0
  159.8590  212.0490  153.8310 C   0  0  0  0  0  0  0  0  0  0  0  0
  159.7110  212.6030  155.0000 N   0  0  0  0  0  0  0  0  0  0  0  0
  158.1350  213.2590  152.7390 O   0  0  0  0  0  0  0  0  0  0  0  0
  159.2800  212.7310  152.6600 C   0  0  0  0  0  0  0  0  0  0  0  0
  160.0130  212.7940  151.4710 O   0  0  0  0  0  0  0  0  0  0  0  0
  160.2580  214.0080  150.7640 C   0  0  0  0  0  2  0  0  0  0  0  0
  159.1880  214.4530  148.5200 C   0  0  0  0  0  2  0  0  0  0  0  0
  160.3470  213.7880  149.2530 C   0  0  1  0  0  3  0  0  0  0  0  0
  158.9210  213.7380  147.2070 C   0  0  0  0  0  2  0  0  0  0  0  0
  161.6930  214.2110  148.7390 C   0  0  0  0  0  3  0  0  0  0  0  0
  162.1060  214.0910  147.4740 C   0  0  0  0  0  3  0  0  0  0  0  0
  159.9030  214.1880  146.1370 C   0  0  0  0  0  2  0  0  0  0  0  0
  161.2750  213.6280  146.3520 C   0  0  0  0  0  0  0  0  0  0  0  0
  161.8610  213.0450  145.3590 N   0  0  0  0  0  2  0  0  0  0  0  0
  160.1570  212.0330  156.2700 C   0  0  1  0  0  3  0  0  0  0  0  0
  160.4650  213.1730  157.2610 C   0  0  0  0  0  3  0  0  0  0  0  0
  160.8990  214.4530  156.5690 C   0  0  0  0  0  2  0  0  0  0  0  0
  159.4980  214.3370  157.1440 C   0  0  0  0  0  2  0  0  0  0  0  0
  159.2220  210.9110  156.7870 C   0  0  2  0  0  3  0  0  0  0  0  0
  159.0850  208.6170  155.8140 C   0  0  0  0  0  3  0  0  0  0  0  0
  159.7910  209.5390  156.5940 C   0  0  0  0  0  0  0  0  0  0  0  0
  159.5850  207.3240  155.6250 C   0  0  0  0  0  3  0  0  0  0  0  0
  161.0030  209.1580  157.1880 C   0  0  0  0  0  3  0  0  0  0  0  0
  160.7930  206.9480  156.2190 C   0  0  0  0  0  3  0  0  0  0  0  0
  161.5020  207.8640  157.0010 C   0  0  0  0  0  3  0  0  0  0  0  0
  154.7280  209.8850  154.9800 C   0  0  0  0  0  1  0  0  0  0  0  0
  155.7670  211.7580  156.3490 C   0  0  0  0  0  2  0  0  0  0  0  0
  156.9910  212.0400  156.8330 N   0  0  0  0  0  0  0  0  0  0  0  0
  155.8560  210.5680  155.6650 C   0  0  0  0  0  0  0  0  0  0  0  0
  157.7710  211.0190  156.4180 C   0  0  0  0  0  0  0  0  0  0  0  0
  157.1080  210.0840  155.7080 N   0  0  0  0  0  0  0  0  0  0  0  0
  161.6100  209.3560  151.9010 C   0  0  0  0  0  2  0  0  0  0  0  0
  162.0210  210.5070  149.8540 O   0  0  0  0  0  0  0  0  0  0  0  0
  161.7180  209.4190  150.4120 C   0  0  0  0  0  0  0  0  0  0  0  0
  161.6060  208.2970  148.3430 N   0  0  0  0  0  0  0  0  0  0  0  0
  161.4640  208.2650  149.6090 N   0  0  0  0  0  0  0  0  0  0  0  0
  161.3430  207.1140  147.5430 C   0  0  0  0  0  2  0  0  0  0  0  0
  162.4580  205.0000  147.3840 O   0  0  0  0  0  0  0  0  0  0  0  0
  162.6490  206.3860  147.2360 C   0  0  1  0  0  3  0  0  0  0  0  0
  162.5990  205.4650  146.0610 C   0  0  2  0  0  3  0  0  0  0  0  0
  160.5820  204.2300  145.1640 C   0  0  0  0  0  0  0  0  0  0  0  0
  161.2990  205.4420  145.4000 N   0  0  0  0  0  2  0  0  0  0  0  0
  159.4340  204.2860  144.6470 O   0  0  0  0  0  0  0  0  0  0  0  0
  161.1600  202.9080  145.5710 C   0  0  2  0  0  3  0  0  0  0  0  0
  160.2530  201.7460  145.2550 C   0  0  0  0  0  0  0  0  0  0  0  0
  158.9070  201.9530  144.9780 O   0  0  0  0  0  0  0  0  0  0  0  0
  160.7250  200.5820  145.1590 O   0  0  0  0  0  1  0  0  0  0  0  0
  161.5460  202.9550  147.0460 C   0  0  0  0  0  2  0  0  0  0  0  0
  160.5710  202.1490  147.8970 C   0  0  0  0  0  2  0  0  0  0  0  0
  161.3770  202.5940  150.2770 C   0  0  0  0  0  0  0  0  0  0  0  0
  161.8880  202.1240  151.3280 O   0  0  0  0  0  0  0  0  0  0  0  0
  161.1890  201.7320  149.1530 N   0  0  0  0  0  2  0  0  0  0  0  0
  162.4880  205.5830  151.5490 C   0  0  0  0  0  0  0  0  0  0  0  0
  158.8410  203.4750  151.2650 O   0  0  0  0  0  1  0  0  0  0  0  0
  159.8730  204.4170  151.2440 C   0  0  1  0  0  3  0  0  0  0  0  0
  163.6200  206.1250  151.6510 O   0  0  0  0  0  0  0  0  0  0  0  0
  162.1290  204.9200  150.3310 N   0  0  0  0  0  2  0  0  0  0  0  0
  160.9250  203.4600  153.2070 O   0  0  0  0  0  1  0  0  0  0  0  0
  160.4250  204.6420  152.6570 C   0  0  1  0  0  3  0  0  0  0  0  0
  161.4980  205.7300  152.6700 C   0  0  0  0  0  2  0  0  0  0  0  0
  160.9630  204.0420  150.2220 C   0  0  1  0  0  3  0  0  0  0  0  0
  2 35  1  1  0  0  0
  2  3  1  0  0  0  0
  2  1  1  0  0  0  0
  3  4  1  6  0  0  0
  3  1  1  0  0  0  0
  4  5  2  0  0  0  0
  7  6  2  0  0  0  0
  7  4  1  0  0  0  0
  8  7  1  0  0  0  0
  9  8  1  0  0  0  0
 10 11  1  0  0  0  0
 11  9  1  1  0  0  0
 12 10  1  0  0  0  0
 13 11  1  0  0  0  0
 14 13  2  0  0  0  0
 15 16  1  0  0  0  0
 15 12  1  0  0  0  0
 16 14  1  0  0  0  0
 17 16  2  0  0  0  0
 18  5  1  6  0  0  0
 18 19  1  0  0  0  0
 20 21  1  0  0  0  0
 20 19  1  0  0  0  0
 21 19  1  0  0  0  0
 22 18  1  6  0  0  0
 23 24  1  0  0  0  0
 24 22  1  0  0  0  0
 24 26  2  0  0  0  0
 25 23  2  0  0  0  0
 25 27  1  0  0  0  0
 27 28  2  0  0  0  0
 28 26  1  0  0  0  0
 29 32  1  0  0  0  0
 30 31  1  0  0  0  0
 32 34  2  0  0  0  0
 32 30  1  0  0  0  0
 33 22  1  0  0  0  0
 33 31  2  0  0  0  0
 34 33  1  0  0  0  0
 36 37  2  0  0  0  0
 37 35  1  0  0  0  0
 38 39  2  0  0  0  0
 39 37  1  0  0  0  0
 40 38  1  0  0  0  0
 42 41  1  0  0  0  0
 42 40  1  6  0  0  0
 43 45  1  6  0  0  0
 43 42  1  0  0  0  0
 43 41  1  0  0  0  0
 44 45  1  0  0  0  0
 44 47  1  0  0  0  0
 46 44  2  0  0  0  0
 47 51  1  1  0  0  0
 48 47  1  0  0  0  0
 49 48  2  0  0  0  0
 50 48  1  0  0  0  0
 51 52  1  0  0  0  0
 52 55  1  0  0  0  0
 53 54  2  0  0  0  0
 55 53  1  0  0  0  0
 56 59  2  0  0  0  0
 56 63  1  0  0  0  0
 58 57  1  1  0  0  0
 58 62  1  0  0  0  0
 60 56  1  0  0  0  0
 62 63  1  0  0  0  0
 62 61  1  6  0  0  0
 64 53  1  1  0  0  0
 64 60  1  0  0  0  0
 64 58  1  0  0  0  0
M  END
>  <MODEL>
1

>  <REMARK>
 VINA RESULT:      -2.5      0.000      0.000
  Name = 
  22 active torsions:
  status: ('A' for Active; 'I' for Inactive)
    1  A    between atoms: C_5  and  C_37
    2  A    between atoms: C_7  and  C_64
    3  A    between atoms: C_10  and  C_48
    4  A    between atoms: C_12  and  C_51
    5  A    between atoms: C_16  and  C_48
    6  A    between atoms: C_17  and  C_26
    7  A    between atoms: N_21  and  C_61
    8  A    between atoms: C_22  and  C_39
    9  A    between atoms: C_22  and  C_50
   10  A    between atoms: C_23  and  C_42
   11  A    between atoms: C_23  and  C_62
   12  A    between atoms: C_26  and  O_47
   13  A    between atoms: C_31  and  N_44
   14  A    between atoms: C_31  and  C_59
   15  A    between atoms: C_32  and  N_33
   16  A    between atoms: C_32  and  C_54
   17  A    between atoms: N_36  and  C_50
   18  A    between atoms: C_37  and  C_51
   19  A    between atoms: C_37  and  N_57
   20  A    between atoms: C_38  and  C_51
   21  A    between atoms: O_47  and  C_62
   22  A    between atoms: C_48  and  C_59
                            x       y       z     vdW  Elec       q    Type
                         _______ _______ _______ _____ _____    ______ ____

>  <TORSDO>
F 22

$$$$
=
 OpenBabel11042422243D

 64 70  0  0  1  0  0  0  0  0999 V2000
  162.6520  209.5630  151.1520 C   0  0  0  0  0  2  0  0  0  0  0  0
  161.6680  209.3970  150.0180 C   0  0  2  0  0  3  0  0  0  0  0  0
  162.2790  208.1680  150.6740 C   0  0  2  0  0  3  0  0  0  0  0  0
  161.2660  207.5220  151.5860 C   0  0  0  0  0  0  0  0  0  0  0  0
  161.0530  206.2370  151.5840 N   0  0  0  0  0  0  0  0  0  0  0  0
  159.3930  208.9210  151.9840 O   0  0  0  0  0  0  0  0  0  0  0  0
  160.4240  208.3650  152.4540 C   0  0  0  0  0  0  0  0  0  0  0  0
  160.7760  208.5330  153.7960 O   0  0  0  0  0  0  0  0  0  0  0  0
  160.9060  209.8100  154.4180 C   0  0  0  0  0  2  0  0  0  0  0  0
  158.9530  211.2390  155.1430 C   0  0  0  0  0  2  0  0  0  0  0  0
  159.8140  210.7840  153.9710 C   0  0  1  0  0  3  0  0  0  0  0  0
  157.5730  211.6410  154.6540 C   0  0  0  0  0  2  0  0  0  0  0  0
  160.4110  211.9240  153.1980 C   0  0  0  0  0  3  0  0  0  0  0  0
  159.7180  212.9100  152.6210 C   0  0  0  0  0  3  0  0  0  0  0  0
  157.5930  213.0470  154.0760 C   0  0  0  0  0  2  0  0  0  0  0  0
  158.2640  213.1040  152.7390 C   0  0  0  0  0  0  0  0  0  0  0  0
  157.6470  213.6930  151.7690 N   0  0  0  0  0  2  0  0  0  0  0  0
  161.7430  205.2650  150.7380 C   0  0  1  0  0  3  0  0  0  0  0  0
  162.2660  204.1090  151.6120 C   0  0  0  0  0  3  0  0  0  0  0  0
  162.2920  204.4530  153.0900 C   0  0  0  0  0  2  0  0  0  0  0  0
  161.2080  203.5420  152.5410 C   0  0  0  0  0  2  0  0  0  0  0  0
  160.9180  204.8610  149.4900 C   0  0  2  0  0  3  0  0  0  0  0  0
  161.3250  202.7560  148.2130 C   0  0  0  0  0  3  0  0  0  0  0  0
  160.7750  203.3780  149.3390 C   0  0  0  0  0  0  0  0  0  0  0  0
  161.1970  201.3740  148.0380 C   0  0  0  0  0  3  0  0  0  0  0  0
  160.0910  202.6060  150.2900 C   0  0  0  0  0  3  0  0  0  0  0  0
  160.5150  200.6080  148.9880 C   0  0  0  0  0  3  0  0  0  0  0  0
  159.9600  201.2250  150.1130 C   0  0  0  0  0  3  0  0  0  0  0  0
  160.5690  206.7410  144.9230 C   0  0  0  0  0  1  0  0  0  0  0  0
  162.2850  206.7930  146.7980 C   0  0  0  0  0  2  0  0  0  0  0  0
  162.3810  206.2750  148.0370 N   0  0  0  0  0  0  0  0  0  0  0  0
  161.0810  206.3840  146.2710 C   0  0  0  0  0  0  0  0  0  0  0  0
  161.2430  205.5690  148.2070 C   0  0  0  0  0  0  0  0  0  0  0  0
  160.4090  205.6220  147.1490 N   0  0  0  0  0  0  0  0  0  0  0  0
  162.3580  209.6320  148.6880 C   0  0  0  0  0  2  0  0  0  0  0  0
  163.3490  211.7500  148.2230 O   0  0  0  0  0  0  0  0  0  0  0  0
  162.2870  211.0790  148.3190 C   0  0  0  0  0  0  0  0  0  0  0  0
  160.7890  212.3240  146.9950 N   0  0  0  0  0  0  0  0  0  0  0  0
  161.0310  211.7170  148.0880 N   0  0  0  0  0  0  0  0  0  0  0  0
  159.5050  212.9680  146.7780 C   0  0  0  0  0  2  0  0  0  0  0  0
  158.6250  213.6700  144.6640 O   0  0  0  0  0  0  0  0  0  0  0  0
  158.9170  212.5330  145.4390 C   0  0  1  0  0  3  0  0  0  0  0  0
  159.7290  212.9040  144.2410 C   0  0  2  0  0  3  0  0  0  0  0  0
  162.0340  213.7590  143.6440 C   0  0  0  0  0  0  0  0  0  0  0  0
  160.9620  213.6100  144.5740 N   0  0  0  0  0  2  0  0  0  0  0  0
  163.0430  214.4370  143.9720 O   0  0  0  0  0  0  0  0  0  0  0  0
  161.9430  213.1630  142.2710 C   0  0  2  0  0  3  0  0  0  0  0  0
  162.8470  213.8410  141.2730 C   0  0  0  0  0  0  0  0  0  0  0  0
  162.4540  213.9890  139.9470 O   0  0  0  0  0  0  0  0  0  0  0  0
  163.9340  214.3530  141.6490 O   0  0  0  0  0  1  0  0  0  0  0  0
  160.4860  213.1510  141.8170 C   0  0  0  0  0  2  0  0  0  0  0  0
  160.3150  212.3480  140.5320 C   0  0  0  0  0  2  0  0  0  0  0  0
  161.3540  210.2340  139.5520 C   0  0  0  0  0  0  0  0  0  0  0  0
  161.8910  209.1170  139.7740 O   0  0  0  0  0  0  0  0  0  0  0  0
  160.9120  211.0220  140.6590 N   0  0  0  0  0  2  0  0  0  0  0  0
  159.0470  212.0240  137.7460 C   0  0  0  0  0  0  0  0  0  0  0  0
  161.2280  208.4330  137.3330 O   0  0  0  0  0  1  0  0  0  0  0  0
  160.6140  209.6770  137.1720 C   0  0  1  0  0  3  0  0  0  0  0  0
  158.3860  213.0730  137.9660 O   0  0  0  0  0  0  0  0  0  0  0  0
  160.4340  211.9750  138.1030 N   0  0  0  0  0  2  0  0  0  0  0  0
  158.7060  209.0260  138.5170 O   0  0  0  0  0  1  0  0  0  0  0  0
  159.0900  209.5450  137.2790 C   0  0  1  0  0  3  0  0  0  0  0  0
  158.3930  210.8800  137.0240 C   0  0  0  0  0  2  0  0  0  0  0  0
  161.1980  210.7280  138.1370 C   0  0  1  0  0  3  0  0  0  0  0  0
  2 35  1  6  0  0  0
  2  3  1  0  0  0  0
  2  1  1  0  0  0  0
  3  1  1  0  0  0  0
  3  4  1  1  0  0  0
  4  7  1  0  0  0  0
  5  4  2  0  0  0  0
  6  7  2  0  0  0  0
  7  8  1  0  0  0  0
  8  9  1  0  0  0  0
 11  9  1  1  0  0  0
 11 10  1  0  0  0  0
 12 10  1  0  0  0  0
 13 11  1  0  0  0  0
 14 16  1  0  0  0  0
 14 13  2  0  0  0  0
 15 12  1  0  0  0  0
 16 15  1  0  0  0  0
 17 16  2  0  0  0  0
 18  5  1  1  0  0  0
 18 19  1  0  0  0  0
 19 21  1  0  0  0  0
 19 20  1  0  0  0  0
 21 20  1  0  0  0  0
 22 18  1  1  0  0  0
 23 24  1  0  0  0  0
 24 22  1  0  0  0  0
 24 26  2  0  0  0  0
 25 23  2  0  0  0  0
 25 27  1  0  0  0  0
 27 28  2  0  0  0  0
 28 26  1  0  0  0  0
 29 32  1  0  0  0  0
 30 31  1  0  0  0  0
 31 33  2  0  0  0  0
 32 30  1  0  0  0  0
 32 34  2  0  0  0  0
 33 22  1  0  0  0  0
 34 33  1  0  0  0  0
 36 37  2  0  0  0  0
 37 35  1  0  0  0  0
 38 39  2  0  0  0  0
 39 37  1  0  0  0  0
 40 38  1  0  0  0  0
 41 42  1  0  0  0  0
 42 40  1  1  0  0  0
 43 45  1  1  0  0  0
 43 41  1  0  0  0  0
 43 42  1  0  0  0  0
 44 46  2  0  0  0  0
 44 45  1  0  0  0  0
 47 51  1  6  0  0  0
 47 44  1  0  0  0  0
 48 50  1  0  0  0  0
 48 47  1  0  0  0  0
 49 48  2  0  0  0  0
 52 55  1  0  0  0  0
 52 51  1  0  0  0  0
 53 54  2  0  0  0  0
 53 55  1  0  0  0  0
 56 59  2  0  0  0  0
 56 60  1  0  0  0  0
 58 62  1  0  0  0  0
 58 57  1  1  0  0  0
 58 64  1  0  0  0  0
 60 64  1  0  0  0  0
 62 61  1  1  0  0  0
 63 62  1  0  0  0  0
 63 56  1  0  0  0  0
 64 53  1  1  0  0  0
M  END
>  <MODEL>
2

>  <REMARK>
 VINA RESULT:      -2.4      4.766     10.248
  Name = 
  22 active torsions:
  status: ('A' for Active; 'I' for Inactive)
    1  A    between atoms: C_5  and  C_37
    2  A    between atoms: C_7  and  C_64
    3  A    between atoms: C_10  and  C_48
    4  A    between atoms: C_12  and  C_51
    5  A    between atoms: C_16  and  C_48
    6  A    between atoms: C_17  and  C_26
    7  A    between atoms: N_21  and  C_61
    8  A    between atoms: C_22  and  C_39
    9  A    between atoms: C_22  and  C_50
   10  A    between atoms: C_23  and  C_42
   11  A    between atoms: C_23  and  C_62
   12  A    between atoms: C_26  and  O_47
   13  A    between atoms: C_31  and  N_44
   14  A    between atoms: C_31  and  C_59
   15  A    between atoms: C_32  and  N_33
   16  A    between atoms: C_32  and  C_54
   17  A    between atoms: N_36  and  C_50
   18  A    between atoms: C_37  and  C_51
   19  A    between atoms: C_37  and  N_57
   20  A    between atoms: C_38  and  C_51
   21  A    between atoms: O_47  and  C_62
   22  A    between atoms: C_48  and  C_59
                            x       y       z     vdW  Elec       q    Type
                         _______ _______ _______ _____ _____    ______ ____

>  <TORSDO>
F 22

$$$$
=
 OpenBabel11042422243D

 64 70  0  0  1  0  0  0  0  0999 V2000
  162.7620  209.9850  151.6330 C   0  0  0  0  0  2  0  0  0  0  0  0
  161.3880  210.5640  151.8820 C   0  0  2  0  0  3  0  0  0  0  0  0
  162.2710  211.1560  150.7940 C   0  0  2  0  0  3  0  0  0  0  0  0
  161.7850  210.7020  149.4400 C   0  0  0  0  0  0  0  0  0  0  0  0
  161.4590  211.5460  148.5030 N   0  0  0  0  0  0  0  0  0  0  0  0
  160.5920  208.6660  149.6740 O   0  0  0  0  0  0  0  0  0  0  0  0
  161.5880  209.2650  149.1810 C   0  0  0  0  0  0  0  0  0  0  0  0
  162.5070  208.5800  148.3810 O   0  0  0  0  0  0  0  0  0  0  0  0
  162.6940  207.1670  148.4370 C   0  0  0  0  0  2  0  0  0  0  0  0
  163.0500  205.0850  147.0520 C   0  0  0  0  0  2  0  0  0  0  0  0
  162.4930  206.5030  147.0730 C   0  0  1  0  0  3  0  0  0  0  0  0
  163.4290  204.6930  145.6350 C   0  0  0  0  0  2  0  0  0  0  0  0
  161.0530  206.5790  146.6580 C   0  0  0  0  0  3  0  0  0  0  0  0
  160.5630  206.1440  145.4940 C   0  0  0  0  0  3  0  0  0  0  0  0
  162.2010  204.2610  144.8470 C   0  0  0  0  0  2  0  0  0  0  0  0
  161.3300  205.4190  144.4700 C   0  0  0  0  0  0  0  0  0  0  0  0
  160.9610  205.5310  143.2380 N   0  0  0  0  0  2  0  0  0  0  0  0
  161.5230  213.0020  148.6150 C   0  0  1  0  0  3  0  0  0  0  0  0
  162.7930  213.5130  147.9050 C   0  0  0  0  0  3  0  0  0  0  0  0
  163.7980  212.4090  147.6310 C   0  0  0  0  0  2  0  0  0  0  0  0
  162.9490  212.9620  146.4990 C   0  0  0  0  0  2  0  0  0  0  0  0
  160.1940  213.6940  148.2210 C   0  0  2  0  0  3  0  0  0  0  0  0
  157.8630  214.0350  149.0460 C   0  0  0  0  0  3  0  0  0  0  0  0
  159.1950  213.7200  149.3360 C   0  0  0  0  0  0  0  0  0  0  0  0
  156.9100  214.0780  150.0680 C   0  0  0  0  0  3  0  0  0  0  0  0
  159.5690  213.4520  150.6610 C   0  0  0  0  0  3  0  0  0  0  0  0
  157.2860  213.8100  151.3880 C   0  0  0  0  0  3  0  0  0  0  0  0
  158.6160  213.4980  151.6850 C   0  0  0  0  0  3  0  0  0  0  0  0
  159.2560  213.5030  143.3630 C   0  0  0  0  0  1  0  0  0  0  0  0
  158.4750  212.2450  145.4290 C   0  0  0  0  0  2  0  0  0  0  0  0
  158.7250  212.3040  146.7510 N   0  0  0  0  0  0  0  0  0  0  0  0
  159.2250  213.2260  144.8230 C   0  0  0  0  0  0  0  0  0  0  0  0
  159.6050  213.3170  146.8930 C   0  0  0  0  0  0  0  0  0  0  0  0
  159.9500  213.9030  145.7280 N   0  0  0  0  0  0  0  0  0  0  0  0
  161.4170  211.4830  153.0870 C   0  0  0  0  0  2  0  0  0  0  0  0
  162.9400  210.8320  154.8020 O   0  0  0  0  0  0  0  0  0  0  0  0
  161.7850  210.7140  154.3140 C   0  0  0  0  0  0  0  0  0  0  0  0
  160.6600  209.8480  156.1940 N   0  0  0  0  0  0  0  0  0  0  0  0
  160.8480  209.8310  154.9350 N   0  0  0  0  0  0  0  0  0  0  0  0
  159.7040  208.9430  156.8080 C   0  0  0  0  0  2  0  0  0  0  0  0
  159.5220  206.5620  156.6090 O   0  0  0  0  0  0  0  0  0  0  0  0
  160.3590  207.5910  157.0790 C   0  0  1  0  0  3  0  0  0  0  0  0
  160.6930  206.7950  155.8610 C   0  0  2  0  0  3  0  0  0  0  0  0
  160.7250  206.9590  153.3370 C   0  0  0  0  0  0  0  0  0  0  0  0
  160.3450  207.4680  154.6150 N   0  0  0  0  0  2  0  0  0  0  0  0
  160.3360  207.5540  152.2970 O   0  0  0  0  0  0  0  0  0  0  0  0
  161.5360  205.7030  153.2250 C   0  0  2  0  0  3  0  0  0  0  0  0
  162.6890  205.8290  152.2620 C   0  0  0  0  0  0  0  0  0  0  0  0
  162.8050  206.9440  151.4390 O   0  0  0  0  0  0  0  0  0  0  0  0
  163.6020  204.9620  152.2490 O   0  0  0  0  0  1  0  0  0  0  0  0
  160.6180  204.5350  152.8780 C   0  0  0  0  0  2  0  0  0  0  0  0
  160.9390  203.9720  151.4980 C   0  0  0  0  0  2  0  0  0  0  0  0
  159.8650  202.4600  149.7460 C   0  0  0  0  0  0  0  0  0  0  0  0
  158.9000  201.7090  149.4430 O   0  0  0  0  0  0  0  0  0  0  0  0
  159.8610  203.1130  151.0170 N   0  0  0  0  0  2  0  0  0  0  0  0
  160.5610  201.6620  146.4800 C   0  0  0  0  0  0  0  0  0  0  0  0
  162.4570  201.3560  150.2400 O   0  0  0  0  0  1  0  0  0  0  0  0
  162.1110  201.5840  148.9050 C   0  0  1  0  0  3  0  0  0  0  0  0
  159.9110  201.7300  145.4040 O   0  0  0  0  0  0  0  0  0  0  0  0
  160.5110  202.7540  147.4070 N   0  0  0  0  0  2  0  0  0  0  0  0
  160.6860  199.6250  148.8330 O   0  0  0  0  0  1  0  0  0  0  0  0
  161.7580  200.2650  148.2080 C   0  0  1  0  0  3  0  0  0  0  0  0
  161.4570  200.4800  146.7260 C   0  0  0  0  0  2  0  0  0  0  0  0
  161.0060  202.6490  148.7790 C   0  0  1  0  0  3  0  0  0  0  0  0
  1  2  1  0  0  0  0
  2 35  1  1  0  0  0
  3  4  1  6  0  0  0
  3  1  1  0  0  0  0
  3  2  1  0  0  0  0
  5  4  2  0  0  0  0
  7  4  1  0  0  0  0
  7  6  2  0  0  0  0
  8  9  1  0  0  0  0
  8  7  1  0  0  0  0
 10 11  1  0  0  0  0
 11  9  1  1  0  0  0
 12 10  1  0  0  0  0
 13 11  1  0  0  0  0
 14 13  2  0  0  0  0
 15 12  1  0  0  0  0
 16 15  1  0  0  0  0
 16 14  1  0  0  0  0
 17 16  2  0  0  0  0
 18  5  1  6  0  0  0
 19 18  1  0  0  0  0
 20 19  1  0  0  0  0
 21 20  1  0  0  0  0
 21 19  1  0  0  0  0
 22 18  1  1  0  0  0
 22 24  1  0  0  0  0
 23 24  2  0  0  0  0
 23 25  1  0  0  0  0
 24 26  1  0  0  0  0
 25 27  2  0  0  0  0
 26 28  2  0  0  0  0
 27 28  1  0  0  0  0
 29 32  1  0  0  0  0
 30 31  1  0  0  0  0
 31 33  2  0  0  0  0
 32 30  1  0  0  0  0
 32 34  2  0  0  0  0
 33 22  1  0  0  0  0
 34 33  1  0  0  0  0
 35 37  1  0  0  0  0
 37 36  2  0  0  0  0
 37 39  1  0  0  0  0
 38 40  1  0  0  0  0
 39 38  2  0  0  0  0
 41 42  1  0  0  0  0
 42 40  1  6  0  0  0
 43 45  1  6  0  0  0
 43 41  1  0  0  0  0
 43 42  1  0  0  0  0
 44 45  1  0  0  0  0
 46 44  2  0  0  0  0
 47 51  1  6  0  0  0
 47 44  1  0  0  0  0
 48 47  1  0  0  0  0
 49 48  2  0  0  0  0
 50 48  1  0  0  0  0
 52 51  1  0  0  0  0
 53 55  1  0  0  0  0
 54 53  2  0  0  0  0
 55 52  1  0  0  0  0
 56 63  1  0  0  0  0
 56 60  1  0  0  0  0
 58 57  1  1  0  0  0
 59 56  2  0  0  0  0
 60 64  1  0  0  0  0
 62 61  1  1  0  0  0
 62 58  1  0  0  0  0
 63 62  1  0  0  0  0
 64 58  1  0  0  0  0
 64 53  1  1  0  0  0
M  END
>  <MODEL>
3

>  <REMARK>
 VINA RESULT:      -1.9      2.478      7.911
  Name = 
  22 active torsions:
  status: ('A' for Active; 'I' for Inactive)
    1  A    between atoms: C_5  and  C_37
    2  A    between atoms: C_7  and  C_64
    3  A    between atoms: C_10  and  C_48
    4  A    between atoms: C_12  and  C_51
    5  A    between atoms: C_16  and  C_48
    6  A    between atoms: C_17  and  C_26
    7  A    between atoms: N_21  and  C_61
    8  A    between atoms: C_22  and  C_39
    9  A    between atoms: C_22  and  C_50
   10  A    between atoms: C_23  and  C_42
   11  A    between atoms: C_23  and  C_62
   12  A    between atoms: C_26  and  O_47
   13  A    between atoms: C_31  and  N_44
   14  A    between atoms: C_31  and  C_59
   15  A    between atoms: C_32  and  N_33
   16  A    between atoms: C_32  and  C_54
   17  A    between atoms: N_36  and  C_50
   18  A    between atoms: C_37  and  C_51
   19  A    between atoms: C_37  and  N_57
   20  A    between atoms: C_38  and  C_51
   21  A    between atoms: O_47  and  C_62
   22  A    between atoms: C_48  and  C_59
                            x       y       z     vdW  Elec       q    Type
                         _______ _______ _______ _____ _____    ______ ____

>  <TORSDO>
F 22

$$$$
=
 OpenBabel11042422243D

 64 70  0  0  1  0  0  0  0  0999 V2000
  161.5260  210.7340  151.8480 C   0  0  0  0  0  2  0  0  0  0  0  0
  160.3770  211.5880  151.3670 C   0  0  2  0  0  3  0  0  0  0  0  0
  161.6920  211.5900  150.6010 C   0  0  2  0  0  3  0  0  0  0  0  0
  161.5500  210.7700  149.3430 C   0  0  0  0  0  0  0  0  0  0  0  0
  161.5540  211.3130  148.1590 N   0  0  0  0  0  0  0  0  0  0  0  0
  161.0890  208.7910  150.5670 O   0  0  0  0  0  0  0  0  0  0  0  0
  161.3140  209.3180  149.4420 C   0  0  0  0  0  0  0  0  0  0  0  0
  161.3350  208.5400  148.2810 O   0  0  0  0  0  0  0  0  0  0  0  0
  160.3800  207.5180  148.0060 C   0  0  0  0  0  2  0  0  0  0  0  0
  160.1460  206.5120  145.7000 C   0  0  0  0  0  2  0  0  0  0  0  0
  160.9130  206.4790  147.0170 C   0  0  1  0  0  3  0  0  0  0  0  0
  160.2150  205.1560  145.0210 C   0  0  0  0  0  2  0  0  0  0  0  0
  162.3960  206.6340  146.8410 C   0  0  0  0  0  3  0  0  0  0  0  0
  163.1690  205.8440  146.0910 C   0  0  0  0  0  3  0  0  0  0  0  0
  161.5370  204.9860  144.2870 C   0  0  0  0  0  2  0  0  0  0  0  0
  162.6820  204.7590  145.2250 C   0  0  0  0  0  0  0  0  0  0  0  0
  163.4690  203.7600  144.9980 N   0  0  0  0  0  2  0  0  0  0  0  0
  161.7020  212.7410  147.8830 C   0  0  1  0  0  3  0  0  0  0  0  0
  163.0940  213.0010  147.2760 C   0  0  0  0  0  3  0  0  0  0  0  0
  163.9890  213.8220  148.1870 C   0  0  0  0  0  2  0  0  0  0  0  0
  164.2140  212.3260  148.0480 C   0  0  0  0  0  2  0  0  0  0  0  0
  160.4970  213.3300  147.1070 C   0  0  2  0  0  3  0  0  0  0  0  0
  159.1100  214.1260  149.0240 C   0  0  0  0  0  3  0  0  0  0  0  0
  159.2250  213.3060  147.8970 C   0  0  0  0  0  0  0  0  0  0  0  0
  157.9390  214.1160  149.7880 C   0  0  0  0  0  3  0  0  0  0  0  0
  158.1570  212.4690  147.5400 C   0  0  0  0  0  3  0  0  0  0  0  0
  156.8760  213.2810  149.4290 C   0  0  0  0  0  3  0  0  0  0  0  0
  156.9860  212.4570  148.3050 C   0  0  0  0  0  3  0  0  0  0  0  0
  160.7970  213.1270  142.1690 C   0  0  0  0  0  1  0  0  0  0  0  0
  159.8270  211.6620  144.0060 C   0  0  0  0  0  2  0  0  0  0  0  0
  159.7390  211.7230  145.3480 N   0  0  0  0  0  0  0  0  0  0  0  0
  160.4790  212.7970  143.5830 C   0  0  0  0  0  0  0  0  0  0  0  0
  160.3300  212.8890  145.6820 C   0  0  0  0  0  0  0  0  0  0  0  0
  160.8120  213.5740  144.6260 N   0  0  0  0  0  0  0  0  0  0  0  0
  160.2900  212.8590  152.1870 C   0  0  0  0  0  2  0  0  0  0  0  0
  158.3510  213.3190  153.4960 O   0  0  0  0  0  0  0  0  0  0  0  0
  159.4090  212.6470  153.3770 C   0  0  0  0  0  0  0  0  0  0  0  0
  160.4590  212.0450  155.3980 N   0  0  0  0  0  0  0  0  0  0  0  0
  159.7600  211.7030  154.3900 N   0  0  0  0  0  0  0  0  0  0  0  0
  160.8060  211.0710  156.4180 C   0  0  0  0  0  2  0  0  0  0  0  0
  162.6460  209.7870  157.2580 O   0  0  0  0  0  0  0  0  0  0  0  0
  162.1700  210.4560  156.1160 C   0  0  1  0  0  3  0  0  0  0  0  0
  162.2230  208.9650  156.1940 C   0  0  2  0  0  3  0  0  0  0  0  0
  160.3810  207.2810  155.7820 C   0  0  0  0  0  0  0  0  0  0  0  0
  160.9410  208.3580  156.5340 N   0  0  0  0  0  2  0  0  0  0  0  0
  159.3020  206.7580  156.1670 O   0  0  0  0  0  0  0  0  0  0  0  0
  161.0900  206.7410  154.5760 C   0  0  2  0  0  3  0  0  0  0  0  0
  161.1960  207.7460  153.4560 C   0  0  0  0  0  0  0  0  0  0  0  0
  160.1880  208.6800  153.2450 O   0  0  0  0  0  1  0  0  0  0  0  0
  162.2370  207.7990  152.7500 O   0  0  0  0  0  0  0  0  0  0  0  0
  160.4190  205.4460  154.1290 C   0  0  0  0  0  2  0  0  0  0  0  0
  160.7290  205.1400  152.6670 C   0  0  0  0  0  2  0  0  0  0  0  0
  161.7050  202.9960  151.6870 C   0  0  0  0  0  0  0  0  0  0  0  0
  162.6840  202.2040  151.6370 O   0  0  0  0  0  0  0  0  0  0  0  0
  161.7780  204.1310  152.5530 N   0  0  0  0  0  2  0  0  0  0  0  0
  160.9550  201.2940  148.8020 C   0  0  0  0  0  0  0  0  0  0  0  0
  160.2890  205.1360  150.4220 O   0  0  0  0  0  1  0  0  0  0  0  0
  160.1940  203.8750  149.8260 C   0  0  1  0  0  3  0  0  0  0  0  0
  161.2440  200.1510  148.3590 O   0  0  0  0  0  0  0  0  0  0  0  0
  160.5740  201.4440  150.1750 N   0  0  0  0  0  2  0  0  0  0  0  0
  162.4140  204.0450  148.8690 O   0  0  0  0  0  1  0  0  0  0  0  0
  161.0710  203.8040  148.5710 C   0  0  1  0  0  3  0  0  0  0  0  0
  160.9180  202.4620  147.8570 C   0  0  0  0  0  2  0  0  0  0  0  0
  160.4880  202.7470  150.8340 C   0  0  1  0  0  3  0  0  0  0  0  0
  2  1  1  0  0  0  0
  2 35  1  1  0  0  0
  3  4  1  6  0  0  0
  3  2  1  0  0  0  0
  3  1  1  0  0  0  0
  4  7  1  0  0  0  0
  5  4  2  0  0  0  0
  7  6  2  0  0  0  0
  8  7  1  0  0  0  0
  9  8  1  0  0  0  0
 10 11  1  0  0  0  0
 11  9  1  1  0  0  0
 12 10  1  0  0  0  0
 13 11  1  0  0  0  0
 14 13  2  0  0  0  0
 15 12  1  0  0  0  0
 15 16  1  0  0  0  0
 16 14  1  0  0  0  0
 17 16  2  0  0  0  0
 18  5  1  6  0  0  0
 19 18  1  0  0  0  0
 19 21  1  0  0  0  0
 19 20  1  0  0  0  0
 21 20  1  0  0  0  0
 22 18  1  1  0  0  0
 22 24  1  0  0  0  0
 23 25  1  0  0  0  0
 24 23  2  0  0  0  0
 26 24  1  0  0  0  0
 26 28  2  0  0  0  0
 27 25  2  0  0  0  0
 28 27  1  0  0  0  0
 29 32  1  0  0  0  0
 30 31  1  0  0  0  0
 31 33  2  0  0  0  0
 32 30  1  0  0  0  0
 32 34  2  0  0  0  0
 33 22  1  0  0  0  0
 34 33  1  0  0  0  0
 35 37  1  0  0  0  0
 37 36  2  0  0  0  0
 37 39  1  0  0  0  0
 38 40  1  0  0  0  0
 39 38  2  0  0  0  0
 42 43  1  0  0  0  0
 42 40  1  1  0  0  0
 42 41  1  0  0  0  0
 43 45  1  1  0  0  0
 43 41  1  0  0  0  0
 44 46  2  0  0  0  0
 44 45  1  0  0  0  0
 47 51  1  6  0  0  0
 47 44  1  0  0  0  0
 48 47  1  0  0  0  0
 49 48  1  0  0  0  0
 50 48  2  0  0  0  0
 52 51  1  0  0  0  0
 53 55  1  0  0  0  0
 54 53  2  0  0  0  0
 55 52  1  0  0  0  0
 56 60  1  0  0  0  0
 58 57  1  1  0  0  0
 58 64  1  0  0  0  0
 59 56  2  0  0  0  0
 60 64  1  0  0  0  0
 62 61  1  1  0  0  0
 62 58  1  0  0  0  0
 63 62  1  0  0  0  0
 63 56  1  0  0  0  0
 64 53  1  6  0  0  0
M  END
>  <MODEL>
4

>  <REMARK>
 VINA RESULT:      -1.5      2.319      8.448
  Name = 
  22 active torsions:
  status: ('A' for Active; 'I' for Inactive)
    1  A    between atoms: C_5  and  C_37
    2  A    between atoms: C_7  and  C_64
    3  A    between atoms: C_10  and  C_48
    4  A    between atoms: C_12  and  C_51
    5  A    between atoms: C_16  and  C_48
    6  A    between atoms: C_17  and  C_26
    7  A    between atoms: N_21  and  C_61
    8  A    between atoms: C_22  and  C_39
    9  A    between atoms: C_22  and  C_50
   10  A    between atoms: C_23  and  C_42
   11  A    between atoms: C_23  and  C_62
   12  A    between atoms: C_26  and  O_47
   13  A    between atoms: C_31  and  N_44
   14  A    between atoms: C_31  and  C_59
   15  A    between atoms: C_32  and  N_33
   16  A    between atoms: C_32  and  C_54
   17  A    between atoms: N_36  and  C_50
   18  A    between atoms: C_37  and  C_51
   19  A    between atoms: C_37  and  N_57
   20  A    between atoms: C_38  and  C_51
   21  A    between atoms: O_47  and  C_62
   22  A    between atoms: C_48  and  C_59
                            x       y       z     vdW  Elec       q    Type
                         _______ _______ _______ _____ _____    ______ ____

>  <TORSDO>
F 22

$$$$
=
 OpenBabel11042422243D

 64 70  0  0  1  0  0  0  0  0999 V2000
  162.4630  209.4980  152.4120 C   0  0  0  0  0  2  0  0  0  0  0  0
  161.6860  209.6610  151.1260 C   0  0  2  0  0  3  0  0  0  0  0  0
  160.9590  209.7220  152.4610 C   0  0  2  0  0  3  0  0  0  0  0  0
  160.6230  211.1550  152.7920 C   0  0  0  0  0  0  0  0  0  0  0  0
  160.7700  211.6400  153.9910 N   0  0  0  0  0  0  0  0  0  0  0  0
  158.8870  212.5270  151.9390 O   0  0  0  0  0  0  0  0  0  0  0  0
  160.0300  212.0220  151.7590 C   0  0  0  0  0  0  0  0  0  0  0  0
  160.7470  212.2820  150.5880 O   0  0  0  0  0  0  0  0  0  0  0  0
  160.7890  213.5630  149.9620 C   0  0  0  0  0  2  0  0  0  0  0  0
  160.8320  212.3970  147.7220 C   0  0  0  0  0  2  0  0  0  0  0  0
  160.2250  213.5300  148.5410 C   0  0  1  0  0  3  0  0  0  0  0  0
  160.7870  212.7380  146.2430 C   0  0  0  0  0  2  0  0  0  0  0  0
  158.7240  213.5010  148.5700 C   0  0  0  0  0  3  0  0  0  0  0  0
  157.9320  213.5280  147.4950 C   0  0  0  0  0  3  0  0  0  0  0  0
  159.4070  212.4630  145.6660 C   0  0  0  0  0  2  0  0  0  0  0  0
  158.3960  213.4800  146.1000 C   0  0  0  0  0  0  0  0  0  0  0  0
  157.6660  214.0400  145.1940 N   0  0  0  0  0  2  0  0  0  0  0  0
  161.2740  210.9020  155.1480 C   0  0  1  0  0  3  0  0  0  0  0  0
  162.4830  211.6500  155.7430 C   0  0  0  0  0  3  0  0  0  0  0  0
  163.2580  210.8140  156.7460 C   0  0  0  0  0  2  0  0  0  0  0  0
  163.8140  211.0350  155.3510 C   0  0  0  0  0  2  0  0  0  0  0  0
  160.1540  210.5100  156.1450 C   0  0  2  0  0  3  0  0  0  0  0  0
  160.9910  208.3540  157.0820 C   0  0  0  0  0  3  0  0  0  0  0  0
  160.0260  209.0290  156.3280 C   0  0  0  0  0  0  0  0  0  0  0  0
  160.9060  206.9690  157.2610 C   0  0  0  0  0  3  0  0  0  0  0  0
  158.9730  208.3070  155.7480 C   0  0  0  0  0  3  0  0  0  0  0  0
  159.8540  206.2530  156.6810 C   0  0  0  0  0  3  0  0  0  0  0  0
  158.8880  206.9220  155.9230 C   0  0  0  0  0  3  0  0  0  0  0  0
  155.4710  211.5310  154.9040 C   0  0  0  0  0  1  0  0  0  0  0  0
  157.2950  212.6690  156.2590 C   0  0  0  0  0  2  0  0  0  0  0  0
  158.5710  212.3940  156.5890 N   0  0  0  0  0  0  0  0  0  0  0  0
  156.8380  211.6340  155.4770 C   0  0  0  0  0  0  0  0  0  0  0  0
  158.8370  211.2140  155.9910 C   0  0  0  0  0  0  0  0  0  0  0  0
  157.7930  210.7050  155.3070 N   0  0  0  0  0  0  0  0  0  0  0  0
  161.4300  208.3070  150.4940 C   0  0  0  0  0  2  0  0  0  0  0  0
  162.2610  209.3240  148.5050 O   0  0  0  0  0  0  0  0  0  0  0  0
  161.5780  208.3940  149.0090 C   0  0  0  0  0  0  0  0  0  0  0  0
  161.2390  207.3690  146.9150 N   0  0  0  0  0  0  0  0  0  0  0  0
  160.9420  207.4450  148.1520 N   0  0  0  0  0  0  0  0  0  0  0  0
  160.5810  206.3990  146.0580 C   0  0  0  0  0  2  0  0  0  0  0  0
  161.9750  204.7340  145.0470 O   0  0  0  0  0  0  0  0  0  0  0  0
  161.4820  206.0410  144.8800 C   0  0  1  0  0  3  0  0  0  0  0  0
  161.0030  204.9020  144.0410 C   0  0  2  0  0  3  0  0  0  0  0  0
  159.6160  202.9990  144.9650 C   0  0  0  0  0  0  0  0  0  0  0  0
  159.7350  204.3420  144.4950 N   0  0  0  0  0  2  0  0  0  0  0  0
  158.5060  202.5980  145.4040 O   0  0  0  0  0  0  0  0  0  0  0  0
  160.8060  202.0880  144.9850 C   0  0  2  0  0  3  0  0  0  0  0  0
  160.4520  200.6640  145.3320 C   0  0  0  0  0  0  0  0  0  0  0  0
  159.4790  199.9800  144.6110 O   0  0  0  0  0  0  0  0  0  0  0  0
  161.0930  200.0520  146.2270 O   0  0  0  0  0  1  0  0  0  0  0  0
  161.8700  202.6620  145.9160 C   0  0  0  0  0  2  0  0  0  0  0  0
  161.2640  203.0860  147.2500 C   0  0  0  0  0  2  0  0  0  0  0  0
  161.8560  204.5700  149.2390 C   0  0  0  0  0  0  0  0  0  0  0  0
  162.7000  205.3350  149.7750 O   0  0  0  0  0  0  0  0  0  0  0  0
  162.1420  204.0160  147.9530 N   0  0  0  0  0  2  0  0  0  0  0  0
  160.5190  205.0600  152.3630 C   0  0  0  0  0  0  0  0  0  0  0  0
  161.0060  201.8680  149.6430 O   0  0  0  0  0  1  0  0  0  0  0  0
  160.5410  202.8200  150.5540 C   0  0  1  0  0  3  0  0  0  0  0  0
  160.4640  206.0440  153.1480 O   0  0  0  0  0  0  0  0  0  0  0  0
  160.2680  205.2550  150.9660 N   0  0  0  0  0  2  0  0  0  0  0  0
  162.6690  202.9040  151.7100 O   0  0  0  0  0  1  0  0  0  0  0  0
  161.2980  202.7090  151.8830 C   0  0  1  0  0  3  0  0  0  0  0  0
  160.7490  203.6840  152.9220 C   0  0  0  0  0  2  0  0  0  0  0  0
  160.5730  204.2400  149.9580 C   0  0  1  0  0  3  0  0  0  0  0  0
  1  3  1  0  0  0  0
  2 35  1  6  0  0  0
  2  1  1  0  0  0  0
  2  3  1  0  0  0  0
  3  4  1  1  0  0  0
  4  5  2  0  0  0  0
  7  6  2  0  0  0  0
  7  4  1  0  0  0  0
  8  7  1  0  0  0  0
  9  8  1  0  0  0  0
 10 11  1  0  0  0  0
 11 13  1  0  0  0  0
 11  9  1  1  0  0  0
 12 10  1  0  0  0  0
 14 13  2  0  0  0  0
 15 16  1  0  0  0  0
 15 12  1  0  0  0  0
 16 14  1  0  0  0  0
 17 16  2  0  0  0  0
 18  5  1  6  0  0  0
 18 19  1  0  0  0  0
 19 20  1  0  0  0  0
 21 19  1  0  0  0  0
 21 20  1  0  0  0  0
 22 18  1  6  0  0  0
 22 24  1  0  0  0  0
 23 25  1  0  0  0  0
 24 23  2  0  0  0  0
 26 28  2  0  0  0  0
 26 24  1  0  0  0  0
 27 25  2  0  0  0  0
 28 27  1  0  0  0  0
 29 32  1  0  0  0  0
 30 31  1  0  0  0  0
 32 30  1  0  0  0  0
 33 22  1  0  0  0  0
 33 31  2  0  0  0  0
 34 32  2  0  0  0  0
 34 33  1  0  0  0  0
 36 37  2  0  0  0  0
 37 35  1  0  0  0  0
 38 39  2  0  0  0  0
 39 37  1  0  0  0  0
 40 38  1  0  0  0  0
 42 41  1  0  0  0  0
 42 40  1  1  0  0  0
 43 45  1  1  0  0  0
 43 42  1  0  0  0  0
 43 41  1  0  0  0  0
 44 47  1  0  0  0  0
 44 46  2  0  0  0  0
 45 44  1  0  0  0  0
 47 48  1  0  0  0  0
 47 51  1  1  0  0  0
 48 50  1  0  0  0  0
 49 48  2  0  0  0  0
 51 52  1  0  0  0  0
 52 55  1  0  0  0  0
 53 54  2  0  0  0  0
 55 53  1  0  0  0  0
 56 63  1  0  0  0  0
 56 59  2  0  0  0  0
 58 57  1  6  0  0  0
 58 62  1  0  0  0  0
 60 56  1  0  0  0  0
 62 61  1  6  0  0  0
 62 63  1  0  0  0  0
 64 53  1  1  0  0  0
 64 58  1  0  0  0  0
 64 60  1  0  0  0  0
M  END
>  <MODEL>
5

>  <REMARK>
 VINA RESULT:      -1.0      1.678      2.295
  Name = 
  22 active torsions:
  status: ('A' for Active; 'I' for Inactive)
    1  A    between atoms: C_5  and  C_37
    2  A    between atoms: C_7  and  C_64
    3  A    between atoms: C_10  and  C_48
    4  A    between atoms: C_12  and  C_51
    5  A    between atoms: C_16  and  C_48
    6  A    between atoms: C_17  and  C_26
    7  A    between atoms: N_21  and  C_61
    8  A    between atoms: C_22  and  C_39
    9  A    between atoms: C_22  and  C_50
   10  A    between atoms: C_23  and  C_42
   11  A    between atoms: C_23  and  C_62
   12  A    between atoms: C_26  and  O_47
   13  A    between atoms: C_31  and  N_44
   14  A    between atoms: C_31  and  C_59
   15  A    between atoms: C_32  and  N_33
   16  A    between atoms: C_32  and  C_54
   17  A    between atoms: N_36  and  C_50
   18  A    between atoms: C_37  and  C_51
   19  A    between atoms: C_37  and  N_57
   20  A    between atoms: C_38  and  C_51
   21  A    between atoms: O_47  and  C_62
   22  A    between atoms: C_48  and  C_59
                            x       y       z     vdW  Elec       q    Type
                         _______ _______ _______ _____ _____    ______ ____

>  <TORSDO>
F 22

$$$$
=
 OpenBabel11042422243D

 64 70  0  0  1  0  0  0  0  0999 V2000
  160.0280  206.5460  150.4280 C   0  0  0  0  0  2  0  0  0  0  0  0
  161.4500  206.6570  149.9300 C   0  0  2  0  0  3  0  0  0  0  0  0
  161.0010  207.4860  151.1240 C   0  0  2  0  0  3  0  0  0  0  0  0
  161.5420  206.8810  152.3960 C   0  0  0  0  0  0  0  0  0  0  0  0
  161.3060  207.4030  153.5650 N   0  0  0  0  0  0  0  0  0  0  0  0
  163.3380  205.5520  153.1930 O   0  0  0  0  0  0  0  0  0  0  0  0
  162.4370  205.7120  152.3240 C   0  0  0  0  0  0  0  0  0  0  0  0
  162.2700  204.7840  151.2910 O   0  0  0  0  0  0  0  0  0  0  0  0
  161.6080  203.5330  151.4620 C   0  0  0  0  0  2  0  0  0  0  0  0
  160.4690  201.6090  150.2860 C   0  0  0  0  0  2  0  0  0  0  0  0
  161.4080  202.8000  150.1340 C   0  0  1  0  0  3  0  0  0  0  0  0
  160.7670  200.5690  149.2210 C   0  0  0  0  0  2  0  0  0  0  0  0
  160.9760  203.7600  149.0630 C   0  0  0  0  0  3  0  0  0  0  0  0
  160.7760  203.4440  147.7810 C   0  0  0  0  0  3  0  0  0  0  0  0
  160.1250  200.9510  147.8970 C   0  0  0  0  0  2  0  0  0  0  0  0
  160.8380  202.0830  147.2240 C   0  0  0  0  0  0  0  0  0  0  0  0
  161.1710  201.9460  145.9840 N   0  0  0  0  0  2  0  0  0  0  0  0
  160.5030  208.6000  153.8120 C   0  0  1  0  0  3  0  0  0  0  0  0
  159.6910  208.4100  155.1080 C   0  0  0  0  0  3  0  0  0  0  0  0
  159.5650  206.9530  155.5160 C   0  0  0  0  0  2  0  0  0  0  0  0
  160.5230  207.8700  156.2570 C   0  0  0  0  0  2  0  0  0  0  0  0
  161.3270  209.9080  153.7070 C   0  0  2  0  0  3  0  0  0  0  0  0
  162.2280  210.6690  155.9060 C   0  0  0  0  0  3  0  0  0  0  0  0
  161.2280  210.7620  154.9320 C   0  0  0  0  0  0  0  0  0  0  0  0
  162.1570  211.4460  157.0670 C   0  0  0  0  0  3  0  0  0  0  0  0
  160.1500  211.6380  155.1310 C   0  0  0  0  0  3  0  0  0  0  0  0
  161.0810  212.3170  157.2610 C   0  0  0  0  0  3  0  0  0  0  0  0
  160.0770  212.4120  156.2930 C   0  0  0  0  0  3  0  0  0  0  0  0
  162.0870  211.5220  149.0880 C   0  0  0  0  0  1  0  0  0  0  0  0
  160.4190  212.0040  150.9440 C   0  0  0  0  0  2  0  0  0  0  0  0
  160.2180  211.5700  152.2020 N   0  0  0  0  0  0  0  0  0  0  0  0
  161.5220  211.3470  150.4510 C   0  0  0  0  0  0  0  0  0  0  0  0
  161.2070  210.6780  152.4240 C   0  0  0  0  0  0  0  0  0  0  0  0
  162.0240  210.5020  151.3660 N   0  0  0  0  0  0  0  0  0  0  0  0
  161.5080  207.5550  148.7090 C   0  0  0  0  0  2  0  0  0  0  0  0
  162.9600  205.9960  147.6380 O   0  0  0  0  0  0  0  0  0  0  0  0
  161.9810  206.7810  147.5210 C   0  0  0  0  0  0  0  0  0  0  0  0
  161.8670  206.4400  145.1930 N   0  0  0  0  0  0  0  0  0  0  0  0
  161.3500  206.9300  146.2490 N   0  0  0  0  0  0  0  0  0  0  0  0
  161.2100  206.6030  143.9080 C   0  0  0  0  0  2  0  0  0  0  0  0
  160.8530  205.5460  141.7880 O   0  0  0  0  0  0  0  0  0  0  0  0
  161.6410  205.4940  142.9530 C   0  0  1  0  0  3  0  0  0  0  0  0
  162.1920  205.9630  141.6460 C   0  0  2  0  0  3  0  0  0  0  0  0
  161.8040  208.0990  140.3470 C   0  0  0  0  0  0  0  0  0  0  0  0
  162.2350  207.4160  141.5250 N   0  0  0  0  0  2  0  0  0  0  0  0
  161.8050  209.3580  140.3320 O   0  0  0  0  0  0  0  0  0  0  0  0
  161.3050  207.3330  139.1590 C   0  0  2  0  0  3  0  0  0  0  0  0
  162.4110  206.6550  138.3890 C   0  0  0  0  0  0  0  0  0  0  0  0
  162.7050  205.3140  138.6050 O   0  0  0  0  0  1  0  0  0  0  0  0
  163.0260  207.2780  137.4840 O   0  0  0  0  0  0  0  0  0  0  0  0
  160.4660  208.2520  138.2760 C   0  0  0  0  0  2  0  0  0  0  0  0
  160.1330  209.5540  138.9970 C   0  0  0  0  0  2  0  0  0  0  0  0
  158.6690  211.5190  138.2850 C   0  0  0  0  0  0  0  0  0  0  0  0
  158.4260  212.3990  137.4170 O   0  0  0  0  0  0  0  0  0  0  0  0
  159.7290  210.5900  138.0500 N   0  0  0  0  0  2  0  0  0  0  0  0
  155.3490  211.6130  139.1550 C   0  0  0  0  0  0  0  0  0  0  0  0
  158.9400  213.4940  140.3360 O   0  0  0  0  0  1  0  0  0  0  0  0
  157.7160  212.8240  140.2610 C   0  0  1  0  0  3  0  0  0  0  0  0
  154.3110  211.0570  138.7100 O   0  0  0  0  0  0  0  0  0  0  0  0
  156.5510  210.8480  139.3060 N   0  0  0  0  0  2  0  0  0  0  0  0
  157.0060  214.1210  138.3410 O   0  0  0  0  0  1  0  0  0  0  0  0
  156.6470  213.7240  139.6310 C   0  0  1  0  0  3  0  0  0  0  0  0
  155.2800  213.0420  139.6150 C   0  0  0  0  0  2  0  0  0  0  0  0
  157.8550  211.4640  139.5520 C   0  0  1  0  0  3  0  0  0  0  0  0
  1  3  1  0  0  0  0
  2 35  1  6  0  0  0
  2  1  1  0  0  0  0
  2  3  1  0  0  0  0
  3  4  1  1  0  0  0
  4  5  2  0  0  0  0
  7  4  1  0  0  0  0
  7  6  2  0  0  0  0
  8  9  1  0  0  0  0
  8  7  1  0  0  0  0
 11 10  1  0  0  0  0
 11  9  1  1  0  0  0
 12 10  1  0  0  0  0
 13 11  1  0  0  0  0
 14 13  2  0  0  0  0
 15 12  1  0  0  0  0
 16 14  1  0  0  0  0
 16 15  1  0  0  0  0
 17 16  2  0  0  0  0
 18  5  1  1  0  0  0
 18 19  1  0  0  0  0
 19 20  1  0  0  0  0
 19 21  1  0  0  0  0
 20 21  1  0  0  0  0
 22 18  1  1  0  0  0
 22 24  1  0  0  0  0
 23 25  1  0  0  0  0
 24 26  1  0  0  0  0
 24 23  2  0  0  0  0
 25 27  2  0  0  0  0
 26 28  2  0  0  0  0
 28 27  1  0  0  0  0
 29 32  1  0  0  0  0
 30 31  1  0  0  0  0
 31 33  2  0  0  0  0
 32 30  1  0  0  0  0
 32 34  2  0  0  0  0
 33 22  1  0  0  0  0
 34 33  1  0  0  0  0
 37 36  2  0  0  0  0
 37 35  1  0  0  0  0
 38 39  2  0  0  0  0
 39 37  1  0  0  0  0
 40 38  1  0  0  0  0
 41 42  1  0  0  0  0
 42 40  1  1  0  0  0
 43 45  1  1  0  0  0
 43 41  1  0  0  0  0
 43 42  1  0  0  0  0
 44 45  1  0  0  0  0
 46 44  2  0  0  0  0
 47 51  1  6  0  0  0
 47 44  1  0  0  0  0
 48 49  1  0  0  0  0
 48 47  1  0  0  0  0
 50 48  2  0  0  0  0
 51 52  1  0  0  0  0
 54 53  2  0  0  0  0
 55 53  1  0  0  0  0
 55 52  1  0  0  0  0
 56 60  1  0  0  0  0
 56 63  1  0  0  0  0
 58 57  1  6  0  0  0
 59 56  2  0  0  0  0
 60 64  1  0  0  0  0
 62 61  1  6  0  0  0
 62 58  1  0  0  0  0
 63 62  1  0  0  0  0
 64 53  1  6  0  0  0
 64 58  1  0  0  0  0
M  END
>  <MODEL>
6

>  <REMARK>
 VINA RESULT:      -0.3      4.997      9.631
  Name = 
  22 active torsions:
  status: ('A' for Active; 'I' for Inactive)
    1  A    between atoms: C_5  and  C_37
    2  A    between atoms: C_7  and  C_64
    3  A    between atoms: C_10  and  C_48
    4  A    between atoms: C_12  and  C_51
    5  A    between atoms: C_16  and  C_48
    6  A    between atoms: C_17  and  C_26
    7  A    between atoms: N_21  and  C_61
    8  A    between atoms: C_22  and  C_39
    9  A    between atoms: C_22  and  C_50
   10  A    between atoms: C_23  and  C_42
   11  A    between atoms: C_23  and  C_62
   12  A    between atoms: C_26  and  O_47
   13  A    between atoms: C_31  and  N_44
   14  A    between atoms: C_31  and  C_59
   15  A    between atoms: C_32  and  N_33
   16  A    between atoms: C_32  and  C_54
   17  A    between atoms: N_36  and  C_50
   18  A    between atoms: C_37  and  C_51
   19  A    between atoms: C_37  and  N_57
   20  A    between atoms: C_38  and  C_51
   21  A    between atoms: O_47  and  C_62
   22  A    between atoms: C_48  and  C_59
                            x       y       z     vdW  Elec       q    Type
                         _______ _______ _______ _____ _____    ______ ____

>  <TORSDO>
F 22

$$$$
