=
 OpenBabel11052411163D

 26 29  0  0  0  0  0  0  0  0999 V2000
  161.3050  205.8380  150.0880 C   0  0  0  0  0  0  0  0  0  0  0  0
  161.1040  207.3340  154.2300 C   0  0  0  0  0  0  0  0  0  0  0  0
  161.2460  206.0710  153.7470 N   0  0  0  0  0  0  0  0  0  0  0  0
  161.3990  205.1630  148.9320 N   0  0  0  0  0  0  0  0  0  0  0  0
  161.3030  206.1490  148.0000 C   0  0  0  0  0  0  0  0  0  0  0  0
  161.2310  206.2770  152.4190 C   0  0  0  0  0  0  0  0  0  0  0  0
  161.1590  207.1830  149.8330 C   0  0  0  0  0  0  0  0  0  0  0  0
  161.0860  207.6190  152.1540 C   0  0  0  0  0  0  0  0  0  0  0  0
  161.1540  207.4010  148.5110 N   0  0  0  0  0  2  0  0  0  0  0  0
  161.0080  208.2590  153.2880 O   0  0  0  0  0  0  0  0  0  0  0  0
  161.3430  205.3220  151.3940 C   0  0  0  0  0  0  0  0  0  0  0  0
  161.0600  207.6440  155.6830 C   0  0  0  0  0  1  0  0  0  0  0  0
  161.0420  208.1390  150.8530 C   0  0  0  0  0  3  0  0  0  0  0  0
  161.3540  205.8880  146.5580 C   0  0  0  0  0  0  0  0  0  0  0  0
  160.8360  205.8010  144.3970 N   0  0  0  0  0  0  0  0  0  0  0  0
  162.4600  205.2040  145.8340 C   0  0  0  0  0  2  0  0  0  0  0  0
  160.4190  206.2250  145.6860 C   0  0  0  0  0  3  0  0  0  0  0  0
  161.9680  205.2320  144.4650 N   0  0  0  0  0  0  0  0  0  0  0  0
  161.5290  203.8680  151.6740 C   0  0  0  0  0  2  0  0  0  0  0  0
  160.3200  203.0870  151.1900 C   0  0  0  0  0  2  0  0  0  0  0  0
  160.7600  201.9280  150.3170 C   0  0  0  0  0  2  0  0  0  0  0  0
  160.9780  201.3850  147.8650 C   0  0  0  0  0  0  0  0  0  0  0  0
  161.5520  200.2950  148.1270 O   0  0  0  0  0  0  0  0  0  0  0  0
  160.5520  202.2540  148.9150 N   0  0  0  0  0  2  0  0  0  0  0  0
  160.5620  202.0590  145.3970 N   0  0  0  0  0  0  0  0  0  0  0  0
  160.7480  201.7580  146.4990 C   0  0  0  0  0  0  0  0  0  0  0  0
  1 11  1  0  0  0  0
  2 12  1  0  0  0  0
  3  2  2  0  0  0  0
  4  1  1  0  0  0  0
  5  9  1  0  0  0  0
  5  4  2  0  0  0  0
  6  3  1  0  0  0  0
  7  1  2  0  0  0  0
  7 13  1  0  0  0  0
  8  6  1  0  0  0  0
  8 10  1  0  0  0  0
  9  7  1  0  0  0  0
 10  2  1  0  0  0  0
 11 19  1  0  0  0  0
 11  6  2  0  0  0  0
 13  8  2  0  0  0  0
 14  5  1  0  0  0  0
 15 18  2  0  0  0  0
 15 17  1  0  0  0  0
 16 14  1  0  0  0  0
 17 14  2  0  0  0  0
 18 16  1  0  0  0  0
 20 19  1  0  0  0  0
 21 20  1  0  0  0  0
 22 23  2  0  0  0  0
 22 24  1  0  0  0  0
 24 21  1  0  0  0  0
 25 26  3  0  0  0  0
 26 22  1  0  0  0  0
M  END
>  <MODEL>
1

>  <REMARK>
 VINA RESULT:      -8.9      0.000      0.000
  Name = 
  6 active torsions:
  status: ('A' for Active; 'I' for Inactive)
    1  A    between atoms: C_3  and  C_10
    2  A    between atoms: C_5  and  C_17
    3  A    between atoms: C_5  and  C_18
    4  A    between atoms: C_6  and  C_25
    5  A    between atoms: C_17  and  N_26
    6  A    between atoms: C_18  and  C_21
                            x       y       z     vdW  Elec       q    Type
                         _______ _______ _______ _____ _____    ______ ____

>  <TORSDO>
F 6

$$$$
=
 OpenBabel11052411163D

 26 29  0  0  0  0  0  0  0  0999 V2000
  160.9530  206.3010  151.1520 C   0  0  0  0  0  0  0  0  0  0  0  0
  160.9640  202.1680  149.6150 C   0  0  0  0  0  0  0  0  0  0  0  0
  160.8410  203.3570  148.9670 N   0  0  0  0  0  0  0  0  0  0  0  0
  160.9310  207.6220  151.3830 N   0  0  0  0  0  0  0  0  0  0  0  0
  161.0800  207.6930  152.7340 C   0  0  0  0  0  0  0  0  0  0  0  0
  160.9100  204.2370  149.9810 C   0  0  0  0  0  0  0  0  0  0  0  0
  161.1130  205.6210  152.3390 C   0  0  0  0  0  0  0  0  0  0  0  0
  161.0700  203.5670  151.1720 C   0  0  0  0  0  0  0  0  0  0  0  0
  161.1940  206.4890  153.3560 N   0  0  0  0  0  2  0  0  0  0  0  0
  161.1010  202.2850  150.9260 O   0  0  0  0  0  0  0  0  0  0  0  0
  160.8390  205.6380  149.9180 C   0  0  0  0  0  0  0  0  0  0  0  0
  160.9470  200.8590  148.9110 C   0  0  0  0  0  1  0  0  0  0  0  0
  161.1790  204.2210  152.4070 C   0  0  0  0  0  3  0  0  0  0  0  0
  161.1150  208.9630  153.4640 C   0  0  0  0  0  0  0  0  0  0  0  0
  161.1560  211.1340  153.9460 N   0  0  0  0  0  0  0  0  0  0  0  0
  161.1530  209.1180  154.9440 C   0  0  0  0  0  2  0  0  0  0  0  0
  161.1180  210.1640  152.9110 C   0  0  0  0  0  3  0  0  0  0  0  0
  161.1760  210.5660  155.0820 N   0  0  0  0  0  0  0  0  0  0  0  0
  160.6940  206.3730  148.6270 C   0  0  0  0  0  2  0  0  0  0  0  0
  162.0630  206.6450  148.0270 C   0  0  0  0  0  2  0  0  0  0  0  0
  162.1070  206.1690  146.5870 C   0  0  0  0  0  2  0  0  0  0  0  0
  161.2110  204.2130  145.2730 C   0  0  0  0  0  0  0  0  0  0  0  0
  161.2220  204.8860  144.2080 O   0  0  0  0  0  0  0  0  0  0  0  0
  161.6420  204.7930  146.5040 N   0  0  0  0  0  2  0  0  0  0  0  0
  160.3970  201.7530  145.2310 N   0  0  0  0  0  0  0  0  0  0  0  0
  160.7610  202.8520  145.2490 C   0  0  0  0  0  0  0  0  0  0  0  0
  1  4  1  0  0  0  0
  1  7  1  0  0  0  0
  2 10  1  0  0  0  0
  3  2  2  0  0  0  0
  3  6  1  0  0  0  0
  4  5  2  0  0  0  0
  5  9  1  0  0  0  0
  5 14  1  0  0  0  0
  6  8  2  0  0  0  0
  7 13  2  0  0  0  0
  7  9  1  0  0  0  0
  8 13  1  0  0  0  0
 10  8  1  0  0  0  0
 11  6  1  0  0  0  0
 11  1  2  0  0  0  0
 12  2  1  0  0  0  0
 14 16  1  0  0  0  0
 15 18  2  0  0  0  0
 16 18  1  0  0  0  0
 17 14  2  0  0  0  0
 17 15  1  0  0  0  0
 19 11  1  0  0  0  0
 20 19  1  0  0  0  0
 21 20  1  0  0  0  0
 22 24  1  0  0  0  0
 23 22  2  0  0  0  0
 24 21  1  0  0  0  0
 25 26  3  0  0  0  0
 26 22  1  0  0  0  0
M  END
>  <MODEL>
2

>  <REMARK>
 VINA RESULT:      -8.9      2.318      6.081
  Name = 
  6 active torsions:
  status: ('A' for Active; 'I' for Inactive)
    1  A    between atoms: C_3  and  C_10
    2  A    between atoms: C_5  and  C_17
    3  A    between atoms: C_5  and  C_18
    4  A    between atoms: C_6  and  C_25
    5  A    between atoms: C_17  and  N_26
    6  A    between atoms: C_18  and  C_21
                            x       y       z     vdW  Elec       q    Type
                         _______ _______ _______ _____ _____    ______ ____

>  <TORSDO>
F 6

$$$$
=
 OpenBabel11052411163D

 26 29  0  0  0  0  0  0  0  0999 V2000
  160.9820  204.5180  149.9430 C   0  0  0  0  0  0  0  0  0  0  0  0
  161.0030  206.9640  153.6110 C   0  0  0  0  0  0  0  0  0  0  0  0
  160.8810  207.3220  152.3050 N   0  0  0  0  0  0  0  0  0  0  0  0
  160.9390  203.9870  148.7120 N   0  0  0  0  0  0  0  0  0  0  0  0
  161.0770  202.6550  148.9530 C   0  0  0  0  0  0  0  0  0  0  0  0
  160.9540  206.1330  151.6810 C   0  0  0  0  0  0  0  0  0  0  0  0
  161.1410  203.5190  150.8770 C   0  0  0  0  0  0  0  0  0  0  0  0
  161.1120  205.1270  152.6070 C   0  0  0  0  0  0  0  0  0  0  0  0
  161.2040  202.3280  150.2670 N   0  0  0  0  0  2  0  0  0  0  0  0
  161.1410  205.6610  153.7980 O   0  0  0  0  0  0  0  0  0  0  0  0
  160.8870  205.8730  150.3030 C   0  0  0  0  0  0  0  0  0  0  0  0
  160.9840  207.9490  154.7240 C   0  0  0  0  0  1  0  0  0  0  0  0
  161.2140  203.7750  152.2540 C   0  0  0  0  0  3  0  0  0  0  0  0
  161.0880  201.6500  147.8860 C   0  0  0  0  0  0  0  0  0  0  0  0
  161.3420  199.7450  146.7680 N   0  0  0  0  0  0  0  0  0  0  0  0
  160.6680  201.8710  146.4750 C   0  0  0  0  0  3  0  0  0  0  0  0
  161.4770  200.3940  148.0230 C   0  0  0  0  0  2  0  0  0  0  0  0
  160.8930  200.5540  145.8990 N   0  0  0  0  0  0  0  0  0  0  0  0
  160.6870  206.9550  149.2950 C   0  0  0  0  0  2  0  0  0  0  0  0
  161.9770  207.7360  149.1080 C   0  0  0  0  0  2  0  0  0  0  0  0
  162.8390  207.0760  148.0490 C   0  0  0  0  0  2  0  0  0  0  0  0
  162.3580  205.5510  146.1000 C   0  0  0  0  0  0  0  0  0  0  0  0
  163.3960  204.8760  146.3340 O   0  0  0  0  0  0  0  0  0  0  0  0
  162.0160  206.6680  146.9210 N   0  0  0  0  0  2  0  0  0  0  0  0
  160.8270  204.9070  144.1100 N   0  0  0  0  0  0  0  0  0  0  0  0
  161.5110  205.1940  144.9990 C   0  0  0  0  0  0  0  0  0  0  0  0
  1 11  2  0  0  0  0
  1  7  1  0  0  0  0
  2 10  1  0  0  0  0
  2 12  1  0  0  0  0
  3  2  2  0  0  0  0
  4  5  2  0  0  0  0
  4  1  1  0  0  0  0
  5  9  1  0  0  0  0
  6  3  1  0  0  0  0
  6  8  2  0  0  0  0
  7 13  2  0  0  0  0
  8 10  1  0  0  0  0
  9  7  1  0  0  0  0
 11  6  1  0  0  0  0
 13  8  1  0  0  0  0
 14 17  1  0  0  0  0
 14  5  1  0  0  0  0
 15 17  1  0  0  0  0
 16 14  2  0  0  0  0
 18 16  1  0  0  0  0
 18 15  2  0  0  0  0
 19 11  1  0  0  0  0
 20 19  1  0  0  0  0
 21 20  1  0  0  0  0
 22 23  2  0  0  0  0
 22 24  1  0  0  0  0
 24 21  1  0  0  0  0
 25 26  3  0  0  0  0
 26 22  1  0  0  0  0
M  END
>  <MODEL>
3

>  <REMARK>
 VINA RESULT:      -8.8      1.699      4.046
  Name = 
  6 active torsions:
  status: ('A' for Active; 'I' for Inactive)
    1  A    between atoms: C_3  and  C_10
    2  A    between atoms: C_5  and  C_17
    3  A    between atoms: C_5  and  C_18
    4  A    between atoms: C_6  and  C_25
    5  A    between atoms: C_17  and  N_26
    6  A    between atoms: C_18  and  C_21
                            x       y       z     vdW  Elec       q    Type
                         _______ _______ _______ _____ _____    ______ ____

>  <TORSDO>
F 6

$$$$
=
 OpenBabel11052411163D

 26 29  0  0  0  0  0  0  0  0999 V2000
  161.1690  206.5800  150.8700 C   0  0  0  0  0  0  0  0  0  0  0  0
  161.8600  205.5190  146.6460 C   0  0  0  0  0  0  0  0  0  0  0  0
  161.2690  204.8220  147.6530 N   0  0  0  0  0  0  0  0  0  0  0  0
  160.8460  206.6860  152.1670 N   0  0  0  0  0  0  0  0  0  0  0  0
  161.3080  207.9230  152.4920 C   0  0  0  0  0  0  0  0  0  0  0  0
  161.3720  205.6770  148.6840 C   0  0  0  0  0  0  0  0  0  0  0  0
  161.8020  207.7300  150.4510 C   0  0  0  0  0  0  0  0  0  0  0  0
  162.0040  206.8300  148.2750 C   0  0  0  0  0  0  0  0  0  0  0  0
  161.9010  208.5950  151.4690 N   0  0  0  0  0  2  0  0  0  0  0  0
  162.2990  206.7130  147.0090 O   0  0  0  0  0  0  0  0  0  0  0  0
  160.9300  205.4990  150.0050 C   0  0  0  0  0  0  0  0  0  0  0  0
  161.9990  204.9850  145.2660 C   0  0  0  0  0  1  0  0  0  0  0  0
  162.2500  207.9100  149.1340 C   0  0  0  0  0  3  0  0  0  0  0  0
  161.1800  208.4920  153.8380 C   0  0  0  0  0  0  0  0  0  0  0  0
  160.9780  208.7030  156.0420 N   0  0  0  0  0  0  0  0  0  0  0  0
  161.1350  209.9420  154.1720 C   0  0  0  0  0  3  0  0  0  0  0  0
  161.0860  207.7950  154.9570 C   0  0  0  0  0  2  0  0  0  0  0  0
  161.0040  209.9000  155.6200 N   0  0  0  0  0  0  0  0  0  0  0  0
  160.2190  204.2630  150.4490 C   0  0  0  0  0  2  0  0  0  0  0  0
  161.2270  203.1870  150.8130 C   0  0  0  0  0  2  0  0  0  0  0  0
  160.8440  201.8700  150.1630 C   0  0  0  0  0  2  0  0  0  0  0  0
  160.9700  201.2020  147.7360 C   0  0  0  0  0  0  0  0  0  0  0  0
  161.6780  200.1980  148.0190 O   0  0  0  0  0  0  0  0  0  0  0  0
  160.5150  202.0840  148.7630 N   0  0  0  0  0  2  0  0  0  0  0  0
  160.3330  201.6700  145.2680 N   0  0  0  0  0  0  0  0  0  0  0  0
  160.6170  201.4610  146.3700 C   0  0  0  0  0  0  0  0  0  0  0  0
  1  4  1  0  0  0  0
  2 10  1  0  0  0  0
  2  3  2  0  0  0  0
  3  6  1  0  0  0  0
  4  5  2  0  0  0  0
  5 14  1  0  0  0  0
  6 11  1  0  0  0  0
  7  1  1  0  0  0  0
  7  9  1  0  0  0  0
  8  6  2  0  0  0  0
  8 13  1  0  0  0  0
  9  5  1  0  0  0  0
 10  8  1  0  0  0  0
 11 19  1  0  0  0  0
 11  1  2  0  0  0  0
 12  2  1  0  0  0  0
 13  7  2  0  0  0  0
 14 16  2  0  0  0  0
 14 17  1  0  0  0  0
 16 18  1  0  0  0  0
 17 15  1  0  0  0  0
 18 15  2  0  0  0  0
 19 20  1  0  0  0  0
 21 20  1  0  0  0  0
 22 23  2  0  0  0  0
 22 24  1  0  0  0  0
 24 21  1  0  0  0  0
 25 26  3  0  0  0  0
 26 22  1  0  0  0  0
M  END
>  <MODEL>
4

>  <REMARK>
 VINA RESULT:      -8.4      2.046      5.835
  Name = 
  6 active torsions:
  status: ('A' for Active; 'I' for Inactive)
    1  A    between atoms: C_3  and  C_10
    2  A    between atoms: C_5  and  C_17
    3  A    between atoms: C_5  and  C_18
    4  A    between atoms: C_6  and  C_25
    5  A    between atoms: C_17  and  N_26
    6  A    between atoms: C_18  and  C_21
                            x       y       z     vdW  Elec       q    Type
                         _______ _______ _______ _____ _____    ______ ____

>  <TORSDO>
F 6

$$$$
=
 OpenBabel11052411163D

 26 29  0  0  0  0  0  0  0  0999 V2000
  161.5660  208.0770  149.2440 C   0  0  0  0  0  0  0  0  0  0  0  0
  161.3020  204.1830  151.2960 C   0  0  0  0  0  0  0  0  0  0  0  0
  161.0690  204.5220  150.0000 N   0  0  0  0  0  0  0  0  0  0  0  0
  161.5870  209.1340  148.4190 N   0  0  0  0  0  0  0  0  0  0  0  0
  161.9690  210.1490  149.2400 C   0  0  0  0  0  0  0  0  0  0  0  0
  161.3160  205.8440  150.0090 C   0  0  0  0  0  0  0  0  0  0  0  0
  161.9290  208.4680  150.5140 C   0  0  0  0  0  0  0  0  0  0  0  0
  161.6800  206.2440  151.2740 C   0  0  0  0  0  0  0  0  0  0  0  0
  162.1880  209.7820  150.5320 N   0  0  0  0  0  2  0  0  0  0  0  0
  161.6650  205.2020  152.0590 O   0  0  0  0  0  0  0  0  0  0  0  0
  161.2380  206.7460  148.9350 C   0  0  0  0  0  0  0  0  0  0  0  0
  161.1590  202.7940  151.8060 C   0  0  0  0  0  1  0  0  0  0  0  0
  162.0030  207.5710  151.5900 C   0  0  0  0  0  3  0  0  0  0  0  0
  162.1330  211.5290  148.7750 C   0  0  0  0  0  0  0  0  0  0  0  0
  162.9200  213.3520  147.7720 N   0  0  0  0  0  0  0  0  0  0  0  0
  161.2340  212.6710  149.0970 C   0  0  0  0  0  2  0  0  0  0  0  0
  163.1100  211.9630  147.9970 C   0  0  0  0  0  3  0  0  0  0  0  0
  161.8810  213.7580  148.3780 N   0  0  0  0  0  0  0  0  0  0  0  0
  160.8720  206.3140  147.5540 C   0  0  0  0  0  2  0  0  0  0  0  0
  162.1170  206.2260  146.6890 C   0  0  0  0  0  2  0  0  0  0  0  0
  162.6830  204.8190  146.7260 C   0  0  0  0  0  2  0  0  0  0  0  0
  161.2410  202.7800  146.3850 C   0  0  0  0  0  0  0  0  0  0  0  0
  161.3320  202.4750  147.6040 O   0  0  0  0  0  0  0  0  0  0  0  0
  161.8930  203.9430  145.8760 N   0  0  0  0  0  2  0  0  0  0  0  0
  159.8590  201.2810  144.7850 N   0  0  0  0  0  0  0  0  0  0  0  0
  160.4760  201.9500  145.5000 C   0  0  0  0  0  0  0  0  0  0  0  0
  1  7  1  0  0  0  0
  2 12  1  0  0  0  0
  2 10  1  0  0  0  0
  3  6  1  0  0  0  0
  3  2  2  0  0  0  0
  4  5  2  0  0  0  0
  4  1  1  0  0  0  0
  5  9  1  0  0  0  0
  6  8  2  0  0  0  0
  7  9  1  0  0  0  0
  7 13  2  0  0  0  0
  8 13  1  0  0  0  0
  8 10  1  0  0  0  0
 11  1  2  0  0  0  0
 11  6  1  0  0  0  0
 14 16  1  0  0  0  0
 14  5  1  0  0  0  0
 15 17  1  0  0  0  0
 15 18  2  0  0  0  0
 17 14  2  0  0  0  0
 18 16  1  0  0  0  0
 19 11  1  0  0  0  0
 20 21  1  0  0  0  0
 20 19  1  0  0  0  0
 22 23  2  0  0  0  0
 24 22  1  0  0  0  0
 24 21  1  0  0  0  0
 25 26  3  0  0  0  0
 26 22  1  0  0  0  0
M  END
>  <MODEL>
5

>  <REMARK>
 VINA RESULT:      -8.3      2.800      4.707
  Name = 
  6 active torsions:
  status: ('A' for Active; 'I' for Inactive)
    1  A    between atoms: C_3  and  C_10
    2  A    between atoms: C_5  and  C_17
    3  A    between atoms: C_5  and  C_18
    4  A    between atoms: C_6  and  C_25
    5  A    between atoms: C_17  and  N_26
    6  A    between atoms: C_18  and  C_21
                            x       y       z     vdW  Elec       q    Type
                         _______ _______ _______ _____ _____    ______ ____

>  <TORSDO>
F 6

$$$$
=
 OpenBabel11052411163D

 26 29  0  0  0  0  0  0  0  0999 V2000
  160.9050  205.6870  151.1960 C   0  0  0  0  0  0  0  0  0  0  0  0
  161.0300  201.9300  148.8930 C   0  0  0  0  0  0  0  0  0  0  0  0
  160.8330  203.2130  148.4900 N   0  0  0  0  0  0  0  0  0  0  0  0
  160.8370  206.9370  151.6790 N   0  0  0  0  0  0  0  0  0  0  0  0
  161.0330  206.7560  153.0120 C   0  0  0  0  0  0  0  0  0  0  0  0
  160.9040  203.8850  149.6520 C   0  0  0  0  0  0  0  0  0  0  0  0
  161.1370  204.8010  152.2250 C   0  0  0  0  0  0  0  0  0  0  0  0
  161.1360  203.0080  150.6870 C   0  0  0  0  0  0  0  0  0  0  0  0
  161.2210  205.4620  153.3880 N   0  0  0  0  0  2  0  0  0  0  0  0
  161.2110  201.8010  150.1970 O   0  0  0  0  0  0  0  0  0  0  0  0
  160.7730  205.2680  149.8620 C   0  0  0  0  0  0  0  0  0  0  0  0
  161.0410  200.7790  147.9510 C   0  0  0  0  0  1  0  0  0  0  0  0
  161.2640  203.4190  152.0210 C   0  0  0  0  0  3  0  0  0  0  0  0
  161.0430  207.8640  153.9730 C   0  0  0  0  0  0  0  0  0  0  0  0
  161.1710  209.8950  154.8680 N   0  0  0  0  0  0  0  0  0  0  0  0
  160.8410  207.7460  155.4430 C   0  0  0  0  0  2  0  0  0  0  0  0
  161.2330  209.1360  153.6700 C   0  0  0  0  0  3  0  0  0  0  0  0
  160.9540  209.1350  155.8610 N   0  0  0  0  0  0  0  0  0  0  0  0
  160.5490  206.2280  148.7410 C   0  0  0  0  0  2  0  0  0  0  0  0
  161.8770  206.6050  148.1070 C   0  0  0  0  0  2  0  0  0  0  0  0
  162.5430  207.7100  148.9040 C   0  0  0  0  0  2  0  0  0  0  0  0
  162.0490  210.1800  149.0120 C   0  0  0  0  0  0  0  0  0  0  0  0
  162.0090  210.1470  150.2710 O   0  0  0  0  0  0  0  0  0  0  0  0
  162.3130  208.9950  148.2610 N   0  0  0  0  0  2  0  0  0  0  0  0
  161.6500  212.4200  147.7710 N   0  0  0  0  0  0  0  0  0  0  0  0
  161.8280  211.4200  148.3260 C   0  0  0  0  0  0  0  0  0  0  0  0
  1  4  1  0  0  0  0
  1  7  1  0  0  0  0
  2 10  1  0  0  0  0
  3  2  2  0  0  0  0
  3  6  1  0  0  0  0
  4  5  2  0  0  0  0
  5  9  1  0  0  0  0
  5 14  1  0  0  0  0
  6 11  1  0  0  0  0
  6  8  2  0  0  0  0
  7  9  1  0  0  0  0
  8 13  1  0  0  0  0
 10  8  1  0  0  0  0
 11  1  2  0  0  0  0
 12  2  1  0  0  0  0
 13  7  2  0  0  0  0
 14 16  1  0  0  0  0
 15 18  2  0  0  0  0
 16 18  1  0  0  0  0
 17 14  2  0  0  0  0
 17 15  1  0  0  0  0
 19 11  1  0  0  0  0
 20 19  1  0  0  0  0
 20 21  1  0  0  0  0
 22 23  2  0  0  0  0
 24 21  1  0  0  0  0
 24 22  1  0  0  0  0
 25 26  3  0  0  0  0
 26 22  1  0  0  0  0
M  END
>  <MODEL>
6

>  <REMARK>
 VINA RESULT:      -8.1      2.246      7.387
  Name = 
  6 active torsions:
  status: ('A' for Active; 'I' for Inactive)
    1  A    between atoms: C_3  and  C_10
    2  A    between atoms: C_5  and  C_17
    3  A    between atoms: C_5  and  C_18
    4  A    between atoms: C_6  and  C_25
    5  A    between atoms: C_17  and  N_26
    6  A    between atoms: C_18  and  C_21
                            x       y       z     vdW  Elec       q    Type
                         _______ _______ _______ _____ _____    ______ ____

>  <TORSDO>
F 6

$$$$
=
 OpenBabel11052411163D

 26 29  0  0  0  0  0  0  0  0999 V2000
  160.9710  204.2150  149.6400 C   0  0  0  0  0  0  0  0  0  0  0  0
  161.1080  206.4860  153.4170 C   0  0  0  0  0  0  0  0  0  0  0  0
  160.9790  206.9070  152.1310 N   0  0  0  0  0  0  0  0  0  0  0  0
  160.8960  203.7430  148.3870 N   0  0  0  0  0  0  0  0  0  0  0  0
  160.9990  202.3990  148.5650 C   0  0  0  0  0  0  0  0  0  0  0  0
  161.0100  205.7470  151.4520 C   0  0  0  0  0  0  0  0  0  0  0  0
  161.1120  203.1690  150.5250 C   0  0  0  0  0  0  0  0  0  0  0  0
  161.1510  204.6950  152.3280 C   0  0  0  0  0  0  0  0  0  0  0  0
  161.1340  202.0060  149.8600 N   0  0  0  0  0  2  0  0  0  0  0  0
  161.2110  205.1720  153.5420 O   0  0  0  0  0  0  0  0  0  0  0  0
  160.9180  205.5530  150.0640 C   0  0  0  0  0  0  0  0  0  0  0  0
  161.1300  207.4180  154.5750 C   0  0  0  0  0  1  0  0  0  0  0  0
  161.2100  203.3580  151.9120 C   0  0  0  0  0  3  0  0  0  0  0  0
  160.9690  201.4440  147.4520 C   0  0  0  0  0  0  0  0  0  0  0  0
  161.2030  199.6010  146.2300 N   0  0  0  0  0  0  0  0  0  0  0  0
  160.4470  201.7150  146.0840 C   0  0  0  0  0  3  0  0  0  0  0  0
  161.4030  200.1970  147.5020 C   0  0  0  0  0  2  0  0  0  0  0  0
  160.6720  200.4340  145.4320 N   0  0  0  0  0  0  0  0  0  0  0  0
  160.7360  206.6870  149.1100 C   0  0  0  0  0  2  0  0  0  0  0  0
  162.0880  207.2570  148.7160 C   0  0  0  0  0  2  0  0  0  0  0  0
  162.3050  208.6000  149.3860 C   0  0  0  0  0  2  0  0  0  0  0  0
  161.9490  211.0310  148.8220 C   0  0  0  0  0  0  0  0  0  0  0  0
  161.9520  211.3450  150.0420 O   0  0  0  0  0  0  0  0  0  0  0  0
  162.1210  209.6720  148.4200 N   0  0  0  0  0  2  0  0  0  0  0  0
  161.6270  212.8690  147.0240 N   0  0  0  0  0  0  0  0  0  0  0  0
  161.7700  212.0480  147.8270 C   0  0  0  0  0  0  0  0  0  0  0  0
  1 11  2  0  0  0  0
  1  7  1  0  0  0  0
  2 10  1  0  0  0  0
  2 12  1  0  0  0  0
  3  2  2  0  0  0  0
  4  5  2  0  0  0  0
  4  1  1  0  0  0  0
  5  9  1  0  0  0  0
  6  3  1  0  0  0  0
  6  8  2  0  0  0  0
  7 13  2  0  0  0  0
  8 10  1  0  0  0  0
  9  7  1  0  0  0  0
 11  6  1  0  0  0  0
 13  8  1  0  0  0  0
 14 17  1  0  0  0  0
 14  5  1  0  0  0  0
 15 17  1  0  0  0  0
 16 14  2  0  0  0  0
 18 16  1  0  0  0  0
 18 15  2  0  0  0  0
 19 11  1  0  0  0  0
 20 19  1  0  0  0  0
 20 21  1  0  0  0  0
 22 23  2  0  0  0  0
 24 22  1  0  0  0  0
 24 21  1  0  0  0  0
 25 26  3  0  0  0  0
 26 22  1  0  0  0  0
M  END
>  <MODEL>
7

>  <REMARK>
 VINA RESULT:      -8.1      2.525      5.757
  Name = 
  6 active torsions:
  status: ('A' for Active; 'I' for Inactive)
    1  A    between atoms: C_3  and  C_10
    2  A    between atoms: C_5  and  C_17
    3  A    between atoms: C_5  and  C_18
    4  A    between atoms: C_6  and  C_25
    5  A    between atoms: C_17  and  N_26
    6  A    between atoms: C_18  and  C_21
                            x       y       z     vdW  Elec       q    Type
                         _______ _______ _______ _____ _____    ______ ____

>  <TORSDO>
F 6

$$$$
=
 OpenBabel11052411163D

 26 29  0  0  0  0  0  0  0  0999 V2000
  161.1570  206.0070  151.5190 C   0  0  0  0  0  0  0  0  0  0  0  0
  161.2290  208.7540  154.9670 C   0  0  0  0  0  0  0  0  0  0  0  0
  161.2400  209.0040  153.6310 N   0  0  0  0  0  0  0  0  0  0  0  0
  161.1320  205.3760  150.3350 N   0  0  0  0  0  0  0  0  0  0  0  0
  161.0900  204.0650  150.6940 C   0  0  0  0  0  0  0  0  0  0  0  0
  161.2090  207.7640  153.1140 C   0  0  0  0  0  0  0  0  0  0  0  0
  161.1290  205.0840  152.5410 C   0  0  0  0  0  0  0  0  0  0  0  0
  161.1800  206.8340  154.1280 C   0  0  0  0  0  0  0  0  0  0  0  0
  161.0870  203.8440  152.0360 N   0  0  0  0  0  2  0  0  0  0  0  0
  161.1940  207.4660  155.2700 O   0  0  0  0  0  0  0  0  0  0  0  0
  161.2030  207.3900  151.7600 C   0  0  0  0  0  0  0  0  0  0  0  0
  161.2550  209.8300  155.9920 C   0  0  0  0  0  1  0  0  0  0  0  0
  161.1400  205.4520  153.8940 C   0  0  0  0  0  3  0  0  0  0  0  0
  161.0500  202.9730  149.7160 C   0  0  0  0  0  0  0  0  0  0  0  0
  161.1010  201.8280  147.8100 N   0  0  0  0  0  0  0  0  0  0  0  0
  160.8310  201.5330  150.0240 C   0  0  0  0  0  2  0  0  0  0  0  0
  161.2050  203.1100  148.4110 C   0  0  0  0  0  3  0  0  0  0  0  0
  160.8930  200.9430  148.6960 N   0  0  0  0  0  0  0  0  0  0  0  0
  161.2050  208.3940  150.6540 C   0  0  0  0  0  2  0  0  0  0  0  0
  162.3240  208.0850  149.6750 C   0  0  0  0  0  2  0  0  0  0  0  0
  161.7880  208.0660  148.2560 C   0  0  0  0  0  2  0  0  0  0  0  0
  161.6390  206.2510  146.5140 C   0  0  0  0  0  0  0  0  0  0  0  0
  160.4560  206.5780  146.2310 O   0  0  0  0  0  0  0  0  0  0  0  0
  162.3680  206.9540  147.5200 N   0  0  0  0  0  2  0  0  0  0  0  0
  162.7620  204.2800  145.2610 N   0  0  0  0  0  0  0  0  0  0  0  0
  162.2610  205.1600  145.8200 C   0  0  0  0  0  0  0  0  0  0  0  0
  1 11  2  0  0  0  0
  1  7  1  0  0  0  0
  2 10  1  0  0  0  0
  2 12  1  0  0  0  0
  3  2  2  0  0  0  0
  4  5  2  0  0  0  0
  4  1  1  0  0  0  0
  5  9  1  0  0  0  0
  6  3  1  0  0  0  0
  6  8  2  0  0  0  0
  7 13  2  0  0  0  0
  8 10  1  0  0  0  0
  9  7  1  0  0  0  0
 11  6  1  0  0  0  0
 13  8  1  0  0  0  0
 14 16  1  0  0  0  0
 14  5  1  0  0  0  0
 15 17  1  0  0  0  0
 15 18  2  0  0  0  0
 17 14  2  0  0  0  0
 18 16  1  0  0  0  0
 19 11  1  0  0  0  0
 20 19  1  0  0  0  0
 21 20  1  0  0  0  0
 22 24  1  0  0  0  0
 23 22  2  0  0  0  0
 24 21  1  0  0  0  0
 25 26  3  0  0  0  0
 26 22  1  0  0  0  0
M  END
>  <MODEL>
8

>  <REMARK>
 VINA RESULT:      -8.0      1.994      4.179
  Name = 
  6 active torsions:
  status: ('A' for Active; 'I' for Inactive)
    1  A    between atoms: C_3  and  C_10
    2  A    between atoms: C_5  and  C_17
    3  A    between atoms: C_5  and  C_18
    4  A    between atoms: C_6  and  C_25
    5  A    between atoms: C_17  and  N_26
    6  A    between atoms: C_18  and  C_21
                            x       y       z     vdW  Elec       q    Type
                         _______ _______ _______ _____ _____    ______ ____

>  <TORSDO>
F 6

$$$$
=
 OpenBabel11052411163D

 26 29  0  0  0  0  0  0  0  0999 V2000
  161.3710  205.9360  149.0320 C   0  0  0  0  0  0  0  0  0  0  0  0
  161.1880  201.8470  147.3920 C   0  0  0  0  0  0  0  0  0  0  0  0
  160.8980  202.3200  148.6330 N   0  0  0  0  0  0  0  0  0  0  0  0
  161.3390  207.0770  149.7360 N   0  0  0  0  0  0  0  0  0  0  0  0
  161.7560  208.0010  148.8280 C   0  0  0  0  0  0  0  0  0  0  0  0
  161.1570  203.6330  148.4990 C   0  0  0  0  0  0  0  0  0  0  0  0
  161.7950  206.1910  147.7460 C   0  0  0  0  0  0  0  0  0  0  0  0
  161.5800  203.8980  147.2170 C   0  0  0  0  0  0  0  0  0  0  0  0
  162.0450  207.4980  147.5980 N   0  0  0  0  0  2  0  0  0  0  0  0
  161.5940  202.7790  146.5450 O   0  0  0  0  0  0  0  0  0  0  0  0
  161.0370  204.6420  149.4680 C   0  0  0  0  0  0  0  0  0  0  0  0
  161.0590  200.4120  147.0240 C   0  0  0  0  0  1  0  0  0  0  0  0
  161.9200  205.1840  146.7770 C   0  0  0  0  0  3  0  0  0  0  0  0
  161.8840  209.4260  149.1470 C   0  0  0  0  0  0  0  0  0  0  0  0
  162.0740  211.6340  148.9590 N   0  0  0  0  0  0  0  0  0  0  0  0
  161.9560  210.0120  150.5130 C   0  0  0  0  0  2  0  0  0  0  0  0
  161.9560  210.4040  148.2600 C   0  0  0  0  0  3  0  0  0  0  0  0
  162.0750  211.4310  150.2120 N   0  0  0  0  0  0  0  0  0  0  0  0
  160.5510  204.3670  150.8530 C   0  0  0  0  0  2  0  0  0  0  0  0
  161.6970  204.4940  151.8410 C   0  0  0  0  0  2  0  0  0  0  0  0
  161.2060  205.1130  153.1350 C   0  0  0  0  0  2  0  0  0  0  0  0
  160.9320  207.4100  154.1370 C   0  0  0  0  0  0  0  0  0  0  0  0
  160.2350  206.9480  155.0800 O   0  0  0  0  0  0  0  0  0  0  0  0
  161.4530  206.5460  153.1270 N   0  0  0  0  0  2  0  0  0  0  0  0
  161.4260  209.9520  154.0300 N   0  0  0  0  0  0  0  0  0  0  0  0
  161.2050  208.8170  154.0780 C   0  0  0  0  0  0  0  0  0  0  0  0
  1 11  1  0  0  0  0
  1  4  1  0  0  0  0
  2  3  2  0  0  0  0
  5 14  1  0  0  0  0
  5  4  2  0  0  0  0
  6  3  1  0  0  0  0
  6 11  2  0  0  0  0
  7  1  2  0  0  0  0
  8  6  1  0  0  0  0
  9  7  1  0  0  0  0
  9  5  1  0  0  0  0
 10  8  1  0  0  0  0
 10  2  1  0  0  0  0
 11 19  1  0  0  0  0
 12  2  1  0  0  0  0
 13  8  2  0  0  0  0
 13  7  1  0  0  0  0
 14 16  1  0  0  0  0
 15 18  2  0  0  0  0
 17 15  1  0  0  0  0
 17 14  2  0  0  0  0
 18 16  1  0  0  0  0
 19 20  1  0  0  0  0
 20 21  1  0  0  0  0
 22 23  2  0  0  0  0
 24 21  1  0  0  0  0
 24 22  1  0  0  0  0
 25 26  3  0  0  0  0
 26 22  1  0  0  0  0
M  END
>  <MODEL>
9

>  <REMARK>
 VINA RESULT:      -7.6      2.144      6.576
  Name = 
  6 active torsions:
  status: ('A' for Active; 'I' for Inactive)
    1  A    between atoms: C_3  and  C_10
    2  A    between atoms: C_5  and  C_17
    3  A    between atoms: C_5  and  C_18
    4  A    between atoms: C_6  and  C_25
    5  A    between atoms: C_17  and  N_26
    6  A    between atoms: C_18  and  C_21
                            x       y       z     vdW  Elec       q    Type
                         _______ _______ _______ _____ _____    ______ ____

>  <TORSDO>
F 6

$$$$
