=
 OpenBabel11042422483D

 38 39  0  0  1  0  0  0  0  0999 V2000
  161.1930  211.6450  150.6080 O   0  0  0  0  0  0  0  0  0  0  0  0
  161.1710  209.7520  152.3120 C   0  0  0  0  0  0  0  0  0  0  0  0
  161.1820  210.7250  151.4350 C   0  0  0  0  0  0  0  0  0  0  0  0
  162.1670  209.6420  155.0490 C   0  0  0  0  0  1  0  0  0  0  0  0
  160.6710  209.5350  154.7880 C   0  0  2  0  0  0  0  0  0  0  0  0
  159.9990  210.8280  154.3270 C   0  0  1  0  0  3  0  0  0  0  0  0
  159.9330  208.7160  155.6470 O   0  0  0  0  0  1  0  0  0  0  0  0
  160.1040  209.6210  153.3780 C   0  0  1  0  0  3  0  0  0  0  0  0
  158.5660  210.9870  154.8660 C   0  0  1  0  0  3  0  0  0  0  0  0
  159.5700  211.9820  156.7770 O   0  0  0  0  0  0  0  0  0  0  0  0
  158.6410  211.3270  156.3300 C   0  0  0  0  0  3  0  0  0  0  0  0
  157.7150  212.0310  154.0850 C   0  0  1  0  0  3  0  0  0  0  0  0
  155.4280  213.0720  153.7270 C   0  0  0  0  0  1  0  0  0  0  0  0
  156.2880  212.2150  154.6330 C   0  0  1  0  0  3  0  0  0  0  0  0
  155.6690  210.9950  154.9120 O   0  0  0  0  0  1  0  0  0  0  0  0
  158.4340  213.4000  154.0030 C   0  0  2  0  0  3  0  0  0  0  0  0
  157.6400  214.4460  154.4880 O   0  0  0  0  0  1  0  0  0  0  0  0
  158.8900  213.7340  152.5850 C   0  0  0  0  0  2  0  0  0  0  0  0
  158.1680  212.8890  151.5450 C   0  0  0  0  0  2  0  0  0  0  0  0
  157.7460  213.7460  150.4040 C   0  0  0  0  0  0  0  0  0  0  0  0
  158.6050  214.1910  149.5990 O   0  0  0  0  0  0  0  0  0  0  0  0
  156.3680  214.0340  150.2020 N   0  0  0  0  0  1  0  0  0  0  0  0
  162.2100  208.6860  152.2080 C   0  0  0  0  0  2  0  0  0  0  0  0
  160.8930  206.2600  153.4710 C   0  0  0  0  0  1  0  0  0  0  0  0
  160.0910  206.1970  148.7360 C   0  0  0  0  0  1  0  0  0  0  0  0
  161.1370  206.4350  152.0100 C   0  0  0  0  0  0  0  0  0  0  0  0
  161.6770  207.5050  151.4550 C   0  0  0  0  0  0  0  0  0  0  0  0
  161.7900  207.3470  150.0520 N   0  0  0  0  0  0  0  0  0  0  0  0
  162.4780  208.2620  149.1550 C   0  0  0  0  0  1  0  0  0  0  0  0
  161.2830  206.0410  149.6640 C   0  0  1  0  0  3  0  0  0  0  0  0
  160.8260  205.3940  150.9800 C   0  0  1  0  0  3  0  0  0  0  0  0
  161.5920  204.2510  151.2240 O   0  0  0  0  0  0  0  0  0  0  0  0
  160.6690  203.2050  151.2820 C   0  0  0  0  0  2  0  0  0  0  0  0
  161.4010  200.5250  147.8800 O   0  0  0  0  0  0  0  0  0  0  0  0
  160.9710  202.2130  150.2150 C   0  0  0  0  0  0  0  0  0  0  0  0
  161.6390  201.1830  150.4970 O   0  0  0  0  0  0  0  0  0  0  0  0
  160.7670  201.6070  147.7560 C   0  0  0  0  0  3  0  0  0  0  0  0
  160.5320  202.4670  148.8760 N   0  0  0  0  0  2  0  0  0  0  0  0
  1  3  2  0  0  0  0
  3  2  2  0  0  0  0
  5  4  1  1  0  0  0
  5  7  1  0  0  0  0
  6  5  1  0  0  0  0
  6  9  1  1  0  0  0
  8  2  1  6  0  0  0
  8  6  1  0  0  0  0
  8  5  1  0  0  0  0
  9 11  1  1  0  0  0
 11 10  2  0  0  0  0
 12 16  1  1  0  0  0
 12 14  1  0  0  0  0
 12  9  1  0  0  0  0
 14 13  1  6  0  0  0
 14 15  1  0  0  0  0
 16 17  1  6  0  0  0
 18 16  1  0  0  0  0
 19 18  1  0  0  0  0
 20 19  1  0  0  0  0
 21 20  2  0  0  0  0
 22 20  1  0  0  0  0
 23  2  1  0  0  0  0
 26 24  1  0  0  0  0
 27 26  2  0  0  0  0
 27 23  1  0  0  0  0
 28 27  1  0  0  0  0
 29 28  1  0  0  0  0
 30 25  1  6  0  0  0
 30 28  1  0  0  0  0
 30 31  1  0  0  0  0
 31 32  1  1  0  0  0
 31 26  1  0  0  0  0
 32 33  1  0  0  0  0
 35 36  2  0  0  0  0
 35 33  1  0  0  0  0
 37 34  2  0  0  0  0
 37 38  1  0  0  0  0
 38 35  1  0  0  0  0
M  END
>  <MODEL>
1

>  <REMARK>
 VINA RESULT:      -5.5      0.000      0.000
  Name = 
  14 active torsions:
  status: ('A' for Active; 'I' for Inactive)
    1  A    between atoms: C_2  and  C_16
    2  A    between atoms: C_2  and  O_33
    3  A    between atoms: C_7  and  C_10
    4  A    between atoms: C_8  and  C_28
    5  A    between atoms: C_8  and  C_35
    6  A    between atoms: C_8  and  C_37
    7  A    between atoms: C_10  and  C_13
    8  A    between atoms: C_12  and  C_31
    9  A    between atoms: C_12  and  C_34
   10  A    between atoms: C_13  and  C_24
   11  A    between atoms: C_14  and  C_31
   12  A    between atoms: C_18  and  C_35
   13  A    between atoms: C_24  and  C_35
   14  A    between atoms: O_33  and  C_36
                            x       y       z     vdW  Elec       q    Type
                         _______ _______ _______ _____ _____    ______ ____

>  <TORSDO>
F 14

$$$$
=
 OpenBabel11042422483D

 38 39  0  0  1  0  0  0  0  0999 V2000
  161.9670  210.4760  150.4550 O   0  0  0  0  0  0  0  0  0  0  0  0
  161.6600  208.2970  151.7380 C   0  0  0  0  0  0  0  0  0  0  0  0
  161.8170  209.4170  151.0780 C   0  0  0  0  0  0  0  0  0  0  0  0
  162.4130  206.4060  153.8230 C   0  0  0  0  0  1  0  0  0  0  0  0
  161.0700  207.1190  153.9040 C   0  0  2  0  0  0  0  0  0  0  0  0
  161.1460  208.6090  154.2340 C   0  0  1  0  0  3  0  0  0  0  0  0
  160.0050  206.4060  154.4610 O   0  0  0  0  0  1  0  0  0  0  0  0
  160.6510  208.1380  152.8550 C   0  0  1  0  0  3  0  0  0  0  0  0
  159.9760  209.0910  155.1090 C   0  0  1  0  0  3  0  0  0  0  0  0
  161.3040  208.3790  156.9480 O   0  0  0  0  0  0  0  0  0  0  0  0
  160.1810  208.5760  156.5080 C   0  0  0  0  0  3  0  0  0  0  0  0
  159.7820  210.6360  155.0990 C   0  0  1  0  0  3  0  0  0  0  0  0
  161.0600  211.8860  156.9010 C   0  0  0  0  0  1  0  0  0  0  0  0
  161.0500  211.4320  155.4560 C   0  0  1  0  0  3  0  0  0  0  0  0
  162.2170  210.7360  155.1370 O   0  0  0  0  0  1  0  0  0  0  0  0
  159.2100  211.1260  153.7450 C   0  0  2  0  0  3  0  0  0  0  0  0
  160.0730  212.0180  153.0970 O   0  0  0  0  0  1  0  0  0  0  0  0
  157.8370  211.7760  153.8940 C   0  0  0  0  0  2  0  0  0  0  0  0
  157.1460  211.3520  155.1820 C   0  0  0  0  0  2  0  0  0  0  0  0
  156.5190  212.5340  155.8310 C   0  0  0  0  0  0  0  0  0  0  0  0
  155.6790  212.3730  156.7550 O   0  0  0  0  0  0  0  0  0  0  0  0
  156.8930  213.8470  155.4330 N   0  0  0  0  0  1  0  0  0  0  0  0
  162.4550  207.1050  151.3200 C   0  0  0  0  0  2  0  0  0  0  0  0
  160.7510  204.5950  151.4080 C   0  0  0  0  0  1  0  0  0  0  0  0
  160.2800  206.6640  147.1000 C   0  0  0  0  0  1  0  0  0  0  0  0
  161.1160  205.3350  150.1650 C   0  0  0  0  0  0  0  0  0  0  0  0
  161.8270  206.4470  150.1280 C   0  0  0  0  0  0  0  0  0  0  0  0
  162.0170  206.8840  148.7950 N   0  0  0  0  0  0  0  0  0  0  0  0
  162.8790  207.9810  148.3830 C   0  0  0  0  0  1  0  0  0  0  0  0
  161.3740  205.9560  147.8790 C   0  0  1  0  0  3  0  0  0  0  0  0
  160.7470  204.8860  148.7860 C   0  0  1  0  0  3  0  0  0  0  0  0
  161.3400  203.6490  148.5210 O   0  0  0  0  0  0  0  0  0  0  0  0
  161.9680  203.8090  147.2840 C   0  0  0  0  0  2  0  0  0  0  0  0
  159.8350  201.1450  144.5190 O   0  0  0  0  0  0  0  0  0  0  0  0
  161.2590  203.0000  146.2560 C   0  0  0  0  0  0  0  0  0  0  0  0
  160.9960  203.5130  145.1360 O   0  0  0  0  0  0  0  0  0  0  0  0
  160.1500  200.7860  145.6850 C   0  0  0  0  0  3  0  0  0  0  0  0
  160.8500  201.6650  146.5720 N   0  0  0  0  0  2  0  0  0  0  0  0
  1  3  2  0  0  0  0
  3  2  2  0  0  0  0
  5  4  1  6  0  0  0
  5  6  1  0  0  0  0
  5  7  1  0  0  0  0
  6  9  1  1  0  0  0
  8  2  1  6  0  0  0
  8  5  1  0  0  0  0
  8  6  1  0  0  0  0
  9 11  1  1  0  0  0
 11 10  2  0  0  0  0
 12 16  1  6  0  0  0
 12  9  1  0  0  0  0
 12 14  1  0  0  0  0
 14 13  1  1  0  0  0
 15 14  1  0  0  0  0
 16 17  1  1  0  0  0
 16 18  1  0  0  0  0
 18 19  1  0  0  0  0
 19 20  1  0  0  0  0
 20 21  2  0  0  0  0
 22 20  1  0  0  0  0
 23  2  1  0  0  0  0
 26 24  1  0  0  0  0
 27 26  2  0  0  0  0
 27 23  1  0  0  0  0
 28 27  1  0  0  0  0
 29 28  1  0  0  0  0
 30 25  1  1  0  0  0
 30 31  1  0  0  0  0
 30 28  1  0  0  0  0
 31 32  1  6  0  0  0
 31 26  1  0  0  0  0
 33 32  1  0  0  0  0
 34 37  2  0  0  0  0
 35 38  1  0  0  0  0
 35 33  1  0  0  0  0
 36 35  2  0  0  0  0
 37 38  1  0  0  0  0
M  END
>  <MODEL>
2

>  <REMARK>
 VINA RESULT:      -5.1      2.280      3.593
  Name = 
  14 active torsions:
  status: ('A' for Active; 'I' for Inactive)
    1  A    between atoms: C_2  and  C_16
    2  A    between atoms: C_2  and  O_33
    3  A    between atoms: C_7  and  C_10
    4  A    between atoms: C_8  and  C_28
    5  A    between atoms: C_8  and  C_35
    6  A    between atoms: C_8  and  C_37
    7  A    between atoms: C_10  and  C_13
    8  A    between atoms: C_12  and  C_31
    9  A    between atoms: C_12  and  C_34
   10  A    between atoms: C_13  and  C_24
   11  A    between atoms: C_14  and  C_31
   12  A    between atoms: C_18  and  C_35
   13  A    between atoms: C_24  and  C_35
   14  A    between atoms: O_33  and  C_36
                            x       y       z     vdW  Elec       q    Type
                         _______ _______ _______ _____ _____    ______ ____

>  <TORSDO>
F 14

$$$$
=
 OpenBabel11042422483D

 38 39  0  0  1  0  0  0  0  0999 V2000
  162.6460  208.1370  148.1330 O   0  0  0  0  0  0  0  0  0  0  0  0
  161.6330  207.6950  150.4280 C   0  0  0  0  0  0  0  0  0  0  0  0
  162.1530  207.9230  149.2480 C   0  0  0  0  0  0  0  0  0  0  0  0
  161.8870  210.5950  150.2890 C   0  0  0  0  0  1  0  0  0  0  0  0
  162.2900  209.8650  151.5630 C   0  0  2  0  0  0  0  0  0  0  0  0
  161.1290  209.2910  152.3750 C   0  0  1  0  0  3  0  0  0  0  0  0
  163.3610  210.3940  152.2870 O   0  0  0  0  0  1  0  0  0  0  0  0
  162.1420  208.3560  151.6910 C   0  0  1  0  0  3  0  0  0  0  0  0
  161.3690  209.3530  153.8930 C   0  0  1  0  0  3  0  0  0  0  0  0
  162.6930  210.8020  155.2350 O   0  0  0  0  0  0  0  0  0  0  0  0
  162.0260  210.6670  154.2200 C   0  0  0  0  0  3  0  0  0  0  0  0
  160.0800  209.1390  154.7400 C   0  0  1  0  0  3  0  0  0  0  0  0
  159.3920  207.0310  155.9780 C   0  0  0  0  0  1  0  0  0  0  0  0
  160.2850  208.2550  155.9850 C   0  0  1  0  0  3  0  0  0  0  0  0
  161.6240  207.9030  156.1670 O   0  0  0  0  0  1  0  0  0  0  0  0
  159.4380  210.4890  155.1470 C   0  0  2  0  0  3  0  0  0  0  0  0
  159.0190  210.4950  156.4820 O   0  0  0  0  0  1  0  0  0  0  0  0
  158.2620  210.8670  154.2500 C   0  0  0  0  0  2  0  0  0  0  0  0
  158.0750  212.3750  154.1670 C   0  0  0  0  0  2  0  0  0  0  0  0
  158.4410  212.8540  152.8070 C   0  0  0  0  0  0  0  0  0  0  0  0
  157.5840  213.4380  152.0940 O   0  0  0  0  0  0  0  0  0  0  0  0
  159.7680  212.6850  152.3250 N   0  0  0  0  0  1  0  0  0  0  0  0
  160.4370  206.8060  150.5200 C   0  0  0  0  0  2  0  0  0  0  0  0
  160.8670  205.1010  148.0460 C   0  0  0  0  0  1  0  0  0  0  0  0
  162.6860  202.8200  151.8600 C   0  0  0  0  0  1  0  0  0  0  0  0
  161.0050  204.6170  149.4500 C   0  0  0  0  0  0  0  0  0  0  0  0
  160.8540  205.3660  150.5270 C   0  0  0  0  0  0  0  0  0  0  0  0
  161.0290  204.6010  151.7050 N   0  0  0  0  0  0  0  0  0  0  0  0
  160.7800  205.0710  153.0590 C   0  0  0  0  0  1  0  0  0  0  0  0
  161.3100  203.2180  151.3550 C   0  0  1  0  0  3  0  0  0  0  0  0
  161.3030  203.1980  149.8190 C   0  0  1  0  0  3  0  0  0  0  0  0
  160.2700  202.3700  149.3720 O   0  0  0  0  0  0  0  0  0  0  0  0
  160.8780  201.1400  149.1180 C   0  0  0  0  0  2  0  0  0  0  0  0
  160.5610  200.6300  144.7660 O   0  0  0  0  0  0  0  0  0  0  0  0
  160.8280  200.8500  147.6590 C   0  0  0  0  0  0  0  0  0  0  0  0
  161.3930  199.8160  147.2130 O   0  0  0  0  0  0  0  0  0  0  0  0
  160.0670  201.6250  145.3620 C   0  0  0  0  0  3  0  0  0  0  0  0
  160.1740  201.7730  146.7820 N   0  0  0  0  0  2  0  0  0  0  0  0
  1  3  2  0  0  0  0
  2 23  1  0  0  0  0
  3  2  2  0  0  0  0
  5  4  1  6  0  0  0
  5  8  1  0  0  0  0
  5  7  1  0  0  0  0
  5  6  1  0  0  0  0
  6  9  1  1  0  0  0
  8  2  1  6  0  0  0
  8  6  1  0  0  0  0
  9 11  1  6  0  0  0
 11 10  2  0  0  0  0
 12  9  1  1  0  0  0
 12 16  1  0  0  0  0
 12 14  1  0  0  0  0
 14 13  1  6  0  0  0
 14 15  1  0  0  0  0
 16 17  1  1  0  0  0
 18 16  1  0  0  0  0
 19 18  1  0  0  0  0
 20 19  1  0  0  0  0
 21 20  2  0  0  0  0
 22 20  1  0  0  0  0
 23 27  1  0  0  0  0
 24 26  1  0  0  0  0
 26 31  1  0  0  0  0
 26 27  2  0  0  0  0
 27 28  1  0  0  0  0
 28 29  1  0  0  0  0
 30 28  1  0  0  0  0
 30 25  1  6  0  0  0
 31 32  1  1  0  0  0
 31 30  1  0  0  0  0
 33 32  1  0  0  0  0
 34 37  2  0  0  0  0
 35 33  1  0  0  0  0
 36 35  2  0  0  0  0
 37 38  1  0  0  0  0
 38 35  1  0  0  0  0
M  END
>  <MODEL>
3

>  <REMARK>
 VINA RESULT:      -4.8      2.002      3.969
  Name = 
  14 active torsions:
  status: ('A' for Active; 'I' for Inactive)
    1  A    between atoms: C_2  and  C_16
    2  A    between atoms: C_2  and  O_33
    3  A    between atoms: C_7  and  C_10
    4  A    between atoms: C_8  and  C_28
    5  A    between atoms: C_8  and  C_35
    6  A    between atoms: C_8  and  C_37
    7  A    between atoms: C_10  and  C_13
    8  A    between atoms: C_12  and  C_31
    9  A    between atoms: C_12  and  C_34
   10  A    between atoms: C_13  and  C_24
   11  A    between atoms: C_14  and  C_31
   12  A    between atoms: C_18  and  C_35
   13  A    between atoms: C_24  and  C_35
   14  A    between atoms: O_33  and  C_36
                            x       y       z     vdW  Elec       q    Type
                         _______ _______ _______ _____ _____    ______ ____

>  <TORSDO>
F 14

$$$$
=
 OpenBabel11042422483D

 38 39  0  0  1  0  0  0  0  0999 V2000
  161.9690  210.3610  149.8520 O   0  0  0  0  0  0  0  0  0  0  0  0
  161.6480  208.4930  151.5540 C   0  0  0  0  0  0  0  0  0  0  0  0
  161.8130  209.4530  150.6790 C   0  0  0  0  0  0  0  0  0  0  0  0
  162.2690  206.8220  153.8590 C   0  0  0  0  0  1  0  0  0  0  0  0
  161.0080  207.6730  153.8660 C   0  0  2  0  0  0  0  0  0  0  0  0
  161.2420  209.1780  153.9950 C   0  0  1  0  0  3  0  0  0  0  0  0
  159.8930  207.1530  154.5290 O   0  0  0  0  0  1  0  0  0  0  0  0
  160.6620  208.5860  152.6980 C   0  0  1  0  0  3  0  0  0  0  0  0
  160.1530  209.8880  154.8170 C   0  0  1  0  0  3  0  0  0  0  0  0
  161.6080  209.9470  156.6950 O   0  0  0  0  0  0  0  0  0  0  0  0
  160.4800  209.7350  156.2770 C   0  0  0  0  0  3  0  0  0  0  0  0
  159.9560  211.3850  154.4350 C   0  0  1  0  0  3  0  0  0  0  0  0
  158.0850  212.4310  153.0750 C   0  0  0  0  0  1  0  0  0  0  0  0
  159.3530  211.6030  153.0350 C   0  0  1  0  0  3  0  0  0  0  0  0
  160.2800  212.1400  152.1410 O   0  0  0  0  0  1  0  0  0  0  0  0
  159.1150  212.1350  155.4990 C   0  0  2  0  0  3  0  0  0  0  0  0
  159.9160  212.8450  156.4010 O   0  0  0  0  0  1  0  0  0  0  0  0
  158.1920  211.2000  156.2760 C   0  0  0  0  0  2  0  0  0  0  0  0
  157.2750  211.9660  157.2190 C   0  0  0  0  0  2  0  0  0  0  0  0
  155.8850  211.9560  156.6890 C   0  0  0  0  0  0  0  0  0  0  0  0
  155.5140  211.0370  155.9130 O   0  0  0  0  0  0  0  0  0  0  0  0
  154.9640  212.9650  157.0850 N   0  0  0  0  0  1  0  0  0  0  0  0
  162.4110  207.2230  151.3710 C   0  0  0  0  0  2  0  0  0  0  0  0
  160.8270  204.6530  151.6810 C   0  0  0  0  0  1  0  0  0  0  0  0
  160.3310  206.2720  147.1870 C   0  0  0  0  0  1  0  0  0  0  0  0
  161.1780  205.2870  150.3770 C   0  0  0  0  0  0  0  0  0  0  0  0
  161.8360  206.4230  150.2410 C   0  0  0  0  0  0  0  0  0  0  0  0
  162.0270  206.7390  148.8740 N   0  0  0  0  0  0  0  0  0  0  0  0
  162.8420  207.8320  148.3690 C   0  0  0  0  0  1  0  0  0  0  0  0
  161.4440  205.6960  148.0450 C   0  0  1  0  0  3  0  0  0  0  0  0
  160.8540  204.6900  149.0440 C   0  0  1  0  0  3  0  0  0  0  0  0
  161.5090  203.4640  148.9070 O   0  0  0  0  0  0  0  0  0  0  0  0
  160.4940  202.5060  148.9570 C   0  0  0  0  0  2  0  0  0  0  0  0
  161.2200  199.5490  145.7910 O   0  0  0  0  0  0  0  0  0  0  0  0
  160.7820  201.4220  147.9780 C   0  0  0  0  0  0  0  0  0  0  0  0
  161.3520  200.3690  148.3690 O   0  0  0  0  0  0  0  0  0  0  0  0
  160.6780  200.6620  145.5560 C   0  0  0  0  0  3  0  0  0  0  0  0
  160.4440  201.6130  146.6010 N   0  0  0  0  0  2  0  0  0  0  0  0
  1  3  2  0  0  0  0
  3  2  2  0  0  0  0
  5  4  1  6  0  0  0
  5  6  1  0  0  0  0
  5  7  1  0  0  0  0
  6  9  1  1  0  0  0
  8  2  1  6  0  0  0
  8  5  1  0  0  0  0
  8  6  1  0  0  0  0
  9 11  1  1  0  0  0
 11 10  2  0  0  0  0
 12 14  1  6  0  0  0
 12  9  1  0  0  0  0
 12 16  1  0  0  0  0
 14 13  1  1  0  0  0
 15 14  1  0  0  0  0
 16 18  1  0  0  0  0
 16 17  1  1  0  0  0
 18 19  1  0  0  0  0
 20 22  1  0  0  0  0
 20 19  1  0  0  0  0
 21 20  2  0  0  0  0
 23  2  1  0  0  0  0
 26 24  1  0  0  0  0
 27 26  2  0  0  0  0
 27 23  1  0  0  0  0
 28 27  1  0  0  0  0
 29 28  1  0  0  0  0
 30 25  1  6  0  0  0
 30 28  1  0  0  0  0
 30 31  1  0  0  0  0
 31 32  1  1  0  0  0
 31 26  1  0  0  0  0
 32 33  1  0  0  0  0
 35 36  2  0  0  0  0
 35 33  1  0  0  0  0
 37 34  2  0  0  0  0
 37 38  1  0  0  0  0
 38 35  1  0  0  0  0
M  END
>  <MODEL>
4

>  <REMARK>
 VINA RESULT:      -4.7      2.048      3.240
  Name = 
  14 active torsions:
  status: ('A' for Active; 'I' for Inactive)
    1  A    between atoms: C_2  and  C_16
    2  A    between atoms: C_2  and  O_33
    3  A    between atoms: C_7  and  C_10
    4  A    between atoms: C_8  and  C_28
    5  A    between atoms: C_8  and  C_35
    6  A    between atoms: C_8  and  C_37
    7  A    between atoms: C_10  and  C_13
    8  A    between atoms: C_12  and  C_31
    9  A    between atoms: C_12  and  C_34
   10  A    between atoms: C_13  and  C_24
   11  A    between atoms: C_14  and  C_31
   12  A    between atoms: C_18  and  C_35
   13  A    between atoms: C_24  and  C_35
   14  A    between atoms: O_33  and  C_36
                            x       y       z     vdW  Elec       q    Type
                         _______ _______ _______ _____ _____    ______ ____

>  <TORSDO>
F 14

$$$$
=
 OpenBabel11042422483D

 38 39  0  0  1  0  0  0  0  0999 V2000
  160.3010  211.8070  151.2080 O   0  0  0  0  0  0  0  0  0  0  0  0
  160.8440  210.3200  153.2030 C   0  0  0  0  0  0  0  0  0  0  0  0
  160.5640  211.0840  152.1770 C   0  0  0  0  0  0  0  0  0  0  0  0
  162.1430  210.8050  155.7660 C   0  0  0  0  0  1  0  0  0  0  0  0
  160.6670  210.4360  155.7300 C   0  0  2  0  0  0  0  0  0  0  0  0
  159.7410  211.5220  155.1850 C   0  0  1  0  0  3  0  0  0  0  0  0
  160.1780  209.6670  156.7890 O   0  0  0  0  0  1  0  0  0  0  0  0
  159.9410  210.2070  154.4120 C   0  0  1  0  0  3  0  0  0  0  0  0
  158.3710  211.5520  155.8860 C   0  0  1  0  0  3  0  0  0  0  0  0
  159.4090  213.2390  157.2000 O   0  0  0  0  0  0  0  0  0  0  0  0
  158.4560  212.4870  157.0610 C   0  0  0  0  0  3  0  0  0  0  0  0
  157.1930  211.9350  154.9420 C   0  0  1  0  0  3  0  0  0  0  0  0
  155.3860  210.1560  154.8140 C   0  0  0  0  0  1  0  0  0  0  0  0
  155.8130  211.4680  155.4400 C   0  0  1  0  0  3  0  0  0  0  0  0
  155.7460  211.4090  156.8320 O   0  0  0  0  0  1  0  0  0  0  0  0
  157.1690  213.4570  154.6550 C   0  0  2  0  0  3  0  0  0  0  0  0
  156.4530  214.1670  155.6260 O   0  0  0  0  0  1  0  0  0  0  0  0
  156.5990  213.7790  153.2760 C   0  0  0  0  0  2  0  0  0  0  0  0
  157.6250  213.5580  152.1740 C   0  0  0  0  0  2  0  0  0  0  0  0
  157.0770  214.0280  150.8730 C   0  0  0  0  0  0  0  0  0  0  0  0
  155.8320  214.0820  150.6970 O   0  0  0  0  0  0  0  0  0  0  0  0
  157.9590  214.4510  149.8400 N   0  0  0  0  0  1  0  0  0  0  0  0
  162.0680  209.4670  153.1450 C   0  0  0  0  0  2  0  0  0  0  0  0
  162.6210  209.3040  150.1650 C   0  0  0  0  0  1  0  0  0  0  0  0
  161.8450  204.8800  151.8630 C   0  0  0  0  0  1  0  0  0  0  0  0
  162.0350  208.2050  150.9850 C   0  0  0  0  0  0  0  0  0  0  0  0
  161.8270  208.2610  152.2880 C   0  0  0  0  0  0  0  0  0  0  0  0
  161.2380  207.0630  152.7600 N   0  0  0  0  0  0  0  0  0  0  0  0
  160.7360  206.8460  154.1070 C   0  0  0  0  0  1  0  0  0  0  0  0
  161.0350  206.1470  151.6500 C   0  0  1  0  0  3  0  0  0  0  0  0
  161.5720  206.8980  150.4220 C   0  0  1  0  0  3  0  0  0  0  0  0
  160.5270  207.1180  149.5210 O   0  0  0  0  0  0  0  0  0  0  0  0
  161.1540  207.4400  148.3150 C   0  0  0  0  0  2  0  0  0  0  0  0
  161.0600  203.8430  145.7960 O   0  0  0  0  0  0  0  0  0  0  0  0
  161.0490  206.2900  147.3770 C   0  0  0  0  0  0  0  0  0  0  0  0
  160.3080  206.3840  146.3620 O   0  0  0  0  0  0  0  0  0  0  0  0
  161.7360  203.9000  146.8580 C   0  0  0  0  0  3  0  0  0  0  0  0
  161.7610  205.0820  147.6650 N   0  0  0  0  0  2  0  0  0  0  0  0
  1  3  2  0  0  0  0
  3  2  2  0  0  0  0
  5  4  1  6  0  0  0
  5  7  1  0  0  0  0
  6  5  1  0  0  0  0
  6  9  1  1  0  0  0
  8  2  1  6  0  0  0
  8  6  1  0  0  0  0
  8  5  1  0  0  0  0
  9 11  1  1  0  0  0
 11 10  2  0  0  0  0
 12 16  1  1  0  0  0
 12 14  1  0  0  0  0
 12  9  1  0  0  0  0
 14 13  1  6  0  0  0
 14 15  1  0  0  0  0
 16 17  1  1  0  0  0
 18 16  1  0  0  0  0
 19 18  1  0  0  0  0
 20 19  1  0  0  0  0
 21 20  2  0  0  0  0
 22 20  1  0  0  0  0
 23  2  1  0  0  0  0
 24 26  1  0  0  0  0
 26 27  2  0  0  0  0
 27 28  1  0  0  0  0
 27 23  1  0  0  0  0
 28 29  1  0  0  0  0
 30 25  1  1  0  0  0
 30 28  1  0  0  0  0
 31 32  1  6  0  0  0
 31 26  1  0  0  0  0
 31 30  1  0  0  0  0
 33 32  1  0  0  0  0
 34 37  2  0  0  0  0
 35 38  1  0  0  0  0
 35 33  1  0  0  0  0
 36 35  2  0  0  0  0
 37 38  1  0  0  0  0
M  END
>  <MODEL>
5

>  <REMARK>
 VINA RESULT:      -4.7      1.975      2.760
  Name = 
  14 active torsions:
  status: ('A' for Active; 'I' for Inactive)
    1  A    between atoms: C_2  and  C_16
    2  A    between atoms: C_2  and  O_33
    3  A    between atoms: C_7  and  C_10
    4  A    between atoms: C_8  and  C_28
    5  A    between atoms: C_8  and  C_35
    6  A    between atoms: C_8  and  C_37
    7  A    between atoms: C_10  and  C_13
    8  A    between atoms: C_12  and  C_31
    9  A    between atoms: C_12  and  C_34
   10  A    between atoms: C_13  and  C_24
   11  A    between atoms: C_14  and  C_31
   12  A    between atoms: C_18  and  C_35
   13  A    between atoms: C_24  and  C_35
   14  A    between atoms: O_33  and  C_36
                            x       y       z     vdW  Elec       q    Type
                         _______ _______ _______ _____ _____    ______ ____

>  <TORSDO>
F 14

$$$$
=
 OpenBabel11042422483D

 38 39  0  0  1  0  0  0  0  0999 V2000
  163.1860  205.2580  152.1620 O   0  0  0  0  0  0  0  0  0  0  0  0
  161.7680  207.3680  152.0060 C   0  0  0  0  0  0  0  0  0  0  0  0
  162.4980  206.2840  152.0860 C   0  0  0  0  0  0  0  0  0  0  0  0
  162.3460  209.9140  150.7110 C   0  0  0  0  0  1  0  0  0  0  0  0
  162.2700  209.8430  152.2300 C   0  0  2  0  0  0  0  0  0  0  0  0
  160.8660  209.6380  152.7990 C   0  0  1  0  0  3  0  0  0  0  0  0
  163.1210  210.6860  152.9480 O   0  0  0  0  0  1  0  0  0  0  0  0
  161.9380  208.5420  152.9460 C   0  0  1  0  0  3  0  0  0  0  0  0
  160.6430  210.3770  154.1290 C   0  0  1  0  0  3  0  0  0  0  0  0
  159.6840  212.1440  152.8600 O   0  0  0  0  0  0  0  0  0  0  0  0
  160.3540  211.8240  153.8300 C   0  0  0  0  0  3  0  0  0  0  0  0
  159.5270  209.7500  155.0150 C   0  0  1  0  0  3  0  0  0  0  0  0
  159.7620  207.3320  155.7510 C   0  0  0  0  0  1  0  0  0  0  0  0
  160.0490  208.7800  156.0910 C   0  0  1  0  0  3  0  0  0  0  0  0
  161.4030  208.9760  156.3660 O   0  0  0  0  0  1  0  0  0  0  0  0
  158.6410  210.8410  155.6670 C   0  0  2  0  0  3  0  0  0  0  0  0
  158.7920  210.8840  157.0580 O   0  0  0  0  0  1  0  0  0  0  0  0
  157.1620  210.6690  155.3290 C   0  0  0  0  0  2  0  0  0  0  0  0
  156.2910  211.6700  156.0740 C   0  0  0  0  0  2  0  0  0  0  0  0
  156.5360  213.0400  155.5510 C   0  0  0  0  0  0  0  0  0  0  0  0
  156.8680  213.9640  156.3380 O   0  0  0  0  0  0  0  0  0  0  0  0
  156.4320  213.2990  154.1560 N   0  0  0  0  0  1  0  0  0  0  0  0
  160.7790  207.4820  150.8940 C   0  0  0  0  0  2  0  0  0  0  0  0
  162.2360  207.8990  148.2640 C   0  0  0  0  0  1  0  0  0  0  0  0
  161.7490  203.1890  149.0610 C   0  0  0  0  0  1  0  0  0  0  0  0
  161.6250  206.6120  148.7060 C   0  0  0  0  0  0  0  0  0  0  0  0
  161.0220  206.4190  149.8650 C   0  0  0  0  0  0  0  0  0  0  0  0
  160.5320  205.0950  149.9680 N   0  0  0  0  0  0  0  0  0  0  0  0
  159.6860  204.5920  151.0390 C   0  0  0  0  0  1  0  0  0  0  0  0
  160.8380  204.3640  148.7500 C   0  0  1  0  0  3  0  0  0  0  0  0
  161.5880  205.3730  147.8680 C   0  0  1  0  0  3  0  0  0  0  0  0
  160.8470  205.6130  146.7080 O   0  0  0  0  0  0  0  0  0  0  0  0
  161.5830  205.0190  145.6810 C   0  0  0  0  0  2  0  0  0  0  0  0
  159.6560  201.2390  144.5440 O   0  0  0  0  0  0  0  0  0  0  0  0
  160.8740  203.8040  145.1970 C   0  0  0  0  0  0  0  0  0  0  0  0
  160.0380  203.9060  144.2600 O   0  0  0  0  0  0  0  0  0  0  0  0
  160.4990  201.3070  145.4790 C   0  0  0  0  0  3  0  0  0  0  0  0
  161.1220  202.5460  145.8330 N   0  0  0  0  0  2  0  0  0  0  0  0
  2  3  2  0  0  0  0
  3  1  2  0  0  0  0
  5  4  1  6  0  0  0
  5  6  1  0  0  0  0
  5  8  1  0  0  0  0
  5  7  1  0  0  0  0
  6  8  1  0  0  0  0
  6  9  1  1  0  0  0
  8  2  1  6  0  0  0
  9 11  1  6  0  0  0
 10 11  2  0  0  0  0
 12  9  1  1  0  0  0
 12 16  1  0  0  0  0
 12 14  1  0  0  0  0
 14 13  1  6  0  0  0
 14 15  1  0  0  0  0
 16 17  1  1  0  0  0
 18 16  1  0  0  0  0
 18 19  1  0  0  0  0
 20 19  1  0  0  0  0
 20 21  2  0  0  0  0
 22 20  1  0  0  0  0
 23  2  1  0  0  0  0
 24 26  1  0  0  0  0
 26 27  2  0  0  0  0
 27 28  1  0  0  0  0
 27 23  1  0  0  0  0
 28 29  1  0  0  0  0
 30 25  1  1  0  0  0
 30 28  1  0  0  0  0
 31 32  1  6  0  0  0
 31 26  1  0  0  0  0
 31 30  1  0  0  0  0
 33 32  1  0  0  0  0
 34 37  2  0  0  0  0
 35 33  1  0  0  0  0
 35 38  1  0  0  0  0
 36 35  2  0  0  0  0
 37 38  1  0  0  0  0
M  END
>  <MODEL>
6

>  <REMARK>
 VINA RESULT:      -4.5      2.332      4.410
  Name = 
  14 active torsions:
  status: ('A' for Active; 'I' for Inactive)
    1  A    between atoms: C_2  and  C_16
    2  A    between atoms: C_2  and  O_33
    3  A    between atoms: C_7  and  C_10
    4  A    between atoms: C_8  and  C_28
    5  A    between atoms: C_8  and  C_35
    6  A    between atoms: C_8  and  C_37
    7  A    between atoms: C_10  and  C_13
    8  A    between atoms: C_12  and  C_31
    9  A    between atoms: C_12  and  C_34
   10  A    between atoms: C_13  and  C_24
   11  A    between atoms: C_14  and  C_31
   12  A    between atoms: C_18  and  C_35
   13  A    between atoms: C_24  and  C_35
   14  A    between atoms: O_33  and  C_36
                            x       y       z     vdW  Elec       q    Type
                         _______ _______ _______ _____ _____    ______ ____

>  <TORSDO>
F 14

$$$$
=
 OpenBabel11042422483D

 38 39  0  0  1  0  0  0  0  0999 V2000
  163.5380  205.2930  152.5120 O   0  0  0  0  0  0  0  0  0  0  0  0
  161.7990  207.0290  151.8400 C   0  0  0  0  0  0  0  0  0  0  0  0
  162.6930  206.1370  152.1850 C   0  0  0  0  0  0  0  0  0  0  0  0
  161.7990  208.8430  149.5600 C   0  0  0  0  0  1  0  0  0  0  0  0
  161.9560  209.4040  150.9670 C   0  0  2  0  0  0  0  0  0  0  0  0
  160.6960  209.3470  151.8310 C   0  0  1  0  0  3  0  0  0  0  0  0
  162.7680  210.5310  151.1150 O   0  0  0  0  0  1  0  0  0  0  0  0
  161.9280  208.4960  152.1880 C   0  0  1  0  0  3  0  0  0  0  0  0
  160.5610  210.5530  152.7770 C   0  0  1  0  0  3  0  0  0  0  0  0
  160.1090  212.6270  151.7070 O   0  0  0  0  0  0  0  0  0  0  0  0
  159.6620  211.5710  152.1280 C   0  0  0  0  0  3  0  0  0  0  0  0
  160.0560  210.1780  154.2010 C   0  0  1  0  0  3  0  0  0  0  0  0
  161.3470  208.5470  155.6550 C   0  0  0  0  0  1  0  0  0  0  0  0
  161.1780  209.9940  155.2380 C   0  0  1  0  0  3  0  0  0  0  0  0
  162.3880  210.5400  154.8080 O   0  0  0  0  0  1  0  0  0  0  0  0
  159.0150  211.2020  154.7200 C   0  0  2  0  0  3  0  0  0  0  0  0
  159.6170  212.3600  155.2260 O   0  0  0  0  0  1  0  0  0  0  0  0
  158.0960  210.6080  155.7860 C   0  0  0  0  0  2  0  0  0  0  0  0
  156.9380  211.5390  156.1170 C   0  0  0  0  0  2  0  0  0  0  0  0
  156.0030  211.6100  154.9630 C   0  0  0  0  0  0  0  0  0  0  0  0
  155.3450  210.5920  154.6230 O   0  0  0  0  0  0  0  0  0  0  0  0
  155.8230  212.8360  154.2650 N   0  0  0  0  0  1  0  0  0  0  0  0
  160.6420  206.5930  151.0030 C   0  0  0  0  0  2  0  0  0  0  0  0
  161.6330  205.9810  148.2000 C   0  0  0  0  0  1  0  0  0  0  0  0
  161.9280  202.0030  150.8750 C   0  0  0  0  0  1  0  0  0  0  0  0
  161.2780  204.9550  149.2220 C   0  0  0  0  0  0  0  0  0  0  0  0
  160.8810  205.2190  150.4540 C   0  0  0  0  0  0  0  0  0  0  0  0
  160.6000  204.0260  151.1640 N   0  0  0  0  0  0  0  0  0  0  0  0
  159.9960  203.9560  152.4850 C   0  0  0  0  0  1  0  0  0  0  0  0
  160.8280  202.8780  150.3010 C   0  0  1  0  0  3  0  0  0  0  0  0
  161.2940  203.4800  148.9670 C   0  0  1  0  0  3  0  0  0  0  0  0
  160.3680  203.1670  147.9690 O   0  0  0  0  0  0  0  0  0  0  0  0
  161.1160  202.5520  146.9640 C   0  0  0  0  0  2  0  0  0  0  0  0
  161.3540  205.2440  143.5010 O   0  0  0  0  0  0  0  0  0  0  0  0
  161.0960  203.3970  145.7390 C   0  0  0  0  0  0  0  0  0  0  0  0
  160.3320  203.0890  144.7860 O   0  0  0  0  0  0  0  0  0  0  0  0
  162.0700  205.4050  144.5260 C   0  0  0  0  0  3  0  0  0  0  0  0
  161.9760  204.5220  145.6480 N   0  0  0  0  0  2  0  0  0  0  0  0
  2  3  2  0  0  0  0
  3  1  2  0  0  0  0
  5  4  1  6  0  0  0
  5  7  1  0  0  0  0
  5  6  1  0  0  0  0
  5  8  1  0  0  0  0
  6  8  1  0  0  0  0
  6  9  1  1  0  0  0
  8  2  1  6  0  0  0
  9 11  1  6  0  0  0
 10 11  2  0  0  0  0
 12  9  1  6  0  0  0
 12 16  1  0  0  0  0
 12 14  1  0  0  0  0
 14 13  1  6  0  0  0
 15 14  1  0  0  0  0
 16 17  1  1  0  0  0
 16 18  1  0  0  0  0
 18 19  1  0  0  0  0
 20 19  1  0  0  0  0
 21 20  2  0  0  0  0
 22 20  1  0  0  0  0
 23  2  1  0  0  0  0
 24 26  1  0  0  0  0
 26 27  2  0  0  0  0
 27 23  1  0  0  0  0
 27 28  1  0  0  0  0
 28 29  1  0  0  0  0
 30 25  1  1  0  0  0
 30 28  1  0  0  0  0
 31 32  1  6  0  0  0
 31 26  1  0  0  0  0
 31 30  1  0  0  0  0
 33 32  1  0  0  0  0
 34 37  2  0  0  0  0
 35 33  1  0  0  0  0
 36 35  2  0  0  0  0
 37 38  1  0  0  0  0
 38 35  1  0  0  0  0
M  END
>  <MODEL>
7

>  <REMARK>
 VINA RESULT:      -4.4      2.295      4.731
  Name = 
  14 active torsions:
  status: ('A' for Active; 'I' for Inactive)
    1  A    between atoms: C_2  and  C_16
    2  A    between atoms: C_2  and  O_33
    3  A    between atoms: C_7  and  C_10
    4  A    between atoms: C_8  and  C_28
    5  A    between atoms: C_8  and  C_35
    6  A    between atoms: C_8  and  C_37
    7  A    between atoms: C_10  and  C_13
    8  A    between atoms: C_12  and  C_31
    9  A    between atoms: C_12  and  C_34
   10  A    between atoms: C_13  and  C_24
   11  A    between atoms: C_14  and  C_31
   12  A    between atoms: C_18  and  C_35
   13  A    between atoms: C_24  and  C_35
   14  A    between atoms: O_33  and  C_36
                            x       y       z     vdW  Elec       q    Type
                         _______ _______ _______ _____ _____    ______ ____

>  <TORSDO>
F 14

$$$$
=
 OpenBabel11042422483D

 38 39  0  0  1  0  0  0  0  0999 V2000
  163.1550  205.1640  151.9690 O   0  0  0  0  0  0  0  0  0  0  0  0
  161.7210  207.2670  151.8650 C   0  0  0  0  0  0  0  0  0  0  0  0
  162.4590  206.1860  151.9180 C   0  0  0  0  0  0  0  0  0  0  0  0
  162.1150  209.7940  150.4690 C   0  0  0  0  0  1  0  0  0  0  0  0
  162.1870  209.7560  151.9890 C   0  0  2  0  0  0  0  0  0  0  0  0
  160.8500  209.5340  152.6960 C   0  0  1  0  0  3  0  0  0  0  0  0
  163.0840  210.6310  152.6050 O   0  0  0  0  0  1  0  0  0  0  0  0
  161.9540  208.4640  152.7600 C   0  0  1  0  0  3  0  0  0  0  0  0
  160.7380  210.2990  154.0260 C   0  0  1  0  0  3  0  0  0  0  0  0
  159.8590  212.0720  152.7100 O   0  0  0  0  0  0  0  0  0  0  0  0
  160.4570  211.7460  153.7240 C   0  0  0  0  0  3  0  0  0  0  0  0
  159.6780  209.7080  155.0010 C   0  0  1  0  0  3  0  0  0  0  0  0
  159.7890  207.3190  155.8540 C   0  0  0  0  0  1  0  0  0  0  0  0
  160.2590  208.7450  156.0540 C   0  0  1  0  0  3  0  0  0  0  0  0
  161.6510  208.8140  156.1190 O   0  0  0  0  0  1  0  0  0  0  0  0
  158.8620  210.8270  155.6960 C   0  0  2  0  0  3  0  0  0  0  0  0
  159.1030  210.8790  157.0750 O   0  0  0  0  0  1  0  0  0  0  0  0
  157.3610  210.6880  155.4540 C   0  0  0  0  0  2  0  0  0  0  0  0
  156.8530  211.7130  154.4500 C   0  0  0  0  0  2  0  0  0  0  0  0
  156.4980  212.9750  155.1530 C   0  0  0  0  0  0  0  0  0  0  0  0
  156.8610  214.0830  154.6800 O   0  0  0  0  0  0  0  0  0  0  0  0
  155.7180  212.9330  156.3420 N   0  0  0  0  0  1  0  0  0  0  0  0
  160.6530  207.3510  150.8250 C   0  0  0  0  0  2  0  0  0  0  0  0
  159.7190  204.4630  150.8820 C   0  0  0  0  0  1  0  0  0  0  0  0
  161.1620  205.5600  146.4350 C   0  0  0  0  0  1  0  0  0  0  0  0
  160.5190  205.0790  149.7850 C   0  0  0  0  0  0  0  0  0  0  0  0
  160.8960  206.3440  149.7410 C   0  0  0  0  0  0  0  0  0  0  0  0
  161.6620  206.6060  148.5790 N   0  0  0  0  0  0  0  0  0  0  0  0
  162.3630  207.8480  148.2950 C   0  0  0  0  0  1  0  0  0  0  0  0
  161.8030  205.3860  147.8010 C   0  0  1  0  0  3  0  0  0  0  0  0
  161.0310  204.3240  148.5980 C   0  0  1  0  0  3  0  0  0  0  0  0
  161.9150  203.3290  149.0210 O   0  0  0  0  0  0  0  0  0  0  0  0
  161.1120  202.2140  149.2660 C   0  0  0  0  0  2  0  0  0  0  0  0
  160.8800  199.9570  145.5040 O   0  0  0  0  0  0  0  0  0  0  0  0
  161.0810  201.3460  148.0570 C   0  0  0  0  0  0  0  0  0  0  0  0
  161.5770  200.1900  148.1120 O   0  0  0  0  0  0  0  0  0  0  0  0
  160.4470  201.1360  145.6060 C   0  0  0  0  0  3  0  0  0  0  0  0
  160.5250  201.8560  146.8410 N   0  0  0  0  0  2  0  0  0  0  0  0
  2  3  2  0  0  0  0
  3  1  2  0  0  0  0
  5  4  1  6  0  0  0
  5  7  1  0  0  0  0
  5  6  1  0  0  0  0
  5  8  1  0  0  0  0
  6  8  1  0  0  0  0
  6  9  1  1  0  0  0
  8  2  1  6  0  0  0
  9 11  1  6  0  0  0
 10 11  2  0  0  0  0
 12  9  1  1  0  0  0
 12 16  1  0  0  0  0
 12 14  1  0  0  0  0
 14 13  1  6  0  0  0
 14 15  1  0  0  0  0
 16 17  1  1  0  0  0
 18 16  1  0  0  0  0
 19 20  1  0  0  0  0
 19 18  1  0  0  0  0
 20 22  1  0  0  0  0
 21 20  2  0  0  0  0
 23  2  1  0  0  0  0
 26 24  1  0  0  0  0
 27 26  2  0  0  0  0
 27 23  1  0  0  0  0
 28 27  1  0  0  0  0
 29 28  1  0  0  0  0
 30 25  1  6  0  0  0
 30 28  1  0  0  0  0
 30 31  1  0  0  0  0
 31 32  1  1  0  0  0
 31 26  1  0  0  0  0
 32 33  1  0  0  0  0
 34 37  2  0  0  0  0
 35 36  2  0  0  0  0
 35 33  1  0  0  0  0
 37 38  1  0  0  0  0
 38 35  1  0  0  0  0
M  END
>  <MODEL>
8

>  <REMARK>
 VINA RESULT:      -4.3      2.122      3.831
  Name = 
  14 active torsions:
  status: ('A' for Active; 'I' for Inactive)
    1  A    between atoms: C_2  and  C_16
    2  A    between atoms: C_2  and  O_33
    3  A    between atoms: C_7  and  C_10
    4  A    between atoms: C_8  and  C_28
    5  A    between atoms: C_8  and  C_35
    6  A    between atoms: C_8  and  C_37
    7  A    between atoms: C_10  and  C_13
    8  A    between atoms: C_12  and  C_31
    9  A    between atoms: C_12  and  C_34
   10  A    between atoms: C_13  and  C_24
   11  A    between atoms: C_14  and  C_31
   12  A    between atoms: C_18  and  C_35
   13  A    between atoms: C_24  and  C_35
   14  A    between atoms: O_33  and  C_36
                            x       y       z     vdW  Elec       q    Type
                         _______ _______ _______ _____ _____    ______ ____

>  <TORSDO>
F 14

$$$$
=
 OpenBabel11042422483D

 38 39  0  0  1  0  0  0  0  0999 V2000
  161.2860  211.1550  151.4020 O   0  0  0  0  0  0  0  0  0  0  0  0
  161.0080  208.9710  152.6830 C   0  0  0  0  0  0  0  0  0  0  0  0
  161.1520  210.0940  152.0250 C   0  0  0  0  0  0  0  0  0  0  0  0
  160.5870  206.7270  154.4950 C   0  0  0  0  0  1  0  0  0  0  0  0
  161.5330  206.5720  153.3120 C   0  0  2  0  0  0  0  0  0  0  0  0
  160.8550  206.5180  151.9430 C   0  0  1  0  0  3  0  0  0  0  0  0
  162.6470  205.7490  153.4930 O   0  0  0  0  0  1  0  0  0  0  0  0
  161.7560  207.7060  152.3220 C   0  0  1  0  0  3  0  0  0  0  0  0
  161.5660  205.5750  150.9570 C   0  0  1  0  0  3  0  0  0  0  0  0
  160.6200  203.6400  151.9640 O   0  0  0  0  0  0  0  0  0  0  0  0
  161.6310  204.2020  151.5700 C   0  0  0  0  0  3  0  0  0  0  0  0
  160.9090  205.5330  149.5460 C   0  0  1  0  0  3  0  0  0  0  0  0
  162.2880  207.5440  148.8380 C   0  0  0  0  0  1  0  0  0  0  0  0
  160.9250  206.8820  148.8040 C   0  0  1  0  0  3  0  0  0  0  0  0
  160.4500  206.7710  147.4970 O   0  0  0  0  0  1  0  0  0  0  0  0
  161.5400  204.4310  148.6590 C   0  0  2  0  0  3  0  0  0  0  0  0
  162.1260  204.9550  147.5000 O   0  0  0  0  0  1  0  0  0  0  0  0
  160.5350  203.3510  148.2680 C   0  0  0  0  0  2  0  0  0  0  0  0
  161.2050  201.9990  148.0690 C   0  0  0  0  0  2  0  0  0  0  0  0
  161.0630  201.5690  146.6520 C   0  0  0  0  0  0  0  0  0  0  0  0
  160.9840  200.3450  146.3700 O   0  0  0  0  0  0  0  0  0  0  0  0
  160.9820  202.5420  145.6180 N   0  0  0  0  0  1  0  0  0  0  0  0
  160.1260  208.9590  153.8880 C   0  0  0  0  0  2  0  0  0  0  0  0
  157.8790  210.9480  153.4310 C   0  0  0  0  0  1  0  0  0  0  0  0
  160.5620  212.4300  157.1270 C   0  0  0  0  0  1  0  0  0  0  0  0
  159.0880  211.2030  154.2670 C   0  0  0  0  0  0  0  0  0  0  0  0
  160.0490  210.3270  154.4960 C   0  0  0  0  0  0  0  0  0  0  0  0
  161.0630  210.8870  155.3090 N   0  0  0  0  0  0  0  0  0  0  0  0
  162.3340  210.2550  155.6230 C   0  0  0  0  0  1  0  0  0  0  0  0
  160.7300  212.2660  155.6270 C   0  0  1  0  0  3  0  0  0  0  0  0
  159.3830  212.5110  154.9310 C   0  0  1  0  0  3  0  0  0  0  0  0
  159.5380  213.5050  153.9610 O   0  0  0  0  0  0  0  0  0  0  0  0
  158.5160  214.4210  154.2170 C   0  0  0  0  0  2  0  0  0  0  0  0
  155.9520  214.3460  150.6510 O   0  0  0  0  0  0  0  0  0  0  0  0
  157.5450  214.4140  153.0890 C   0  0  0  0  0  0  0  0  0  0  0  0
  156.3100  214.4440  153.3350 O   0  0  0  0  0  0  0  0  0  0  0  0
  157.2090  214.2990  150.5740 C   0  0  0  0  0  3  0  0  0  0  0  0
  158.0310  214.3300  151.7460 N   0  0  0  0  0  2  0  0  0  0  0  0
  1  3  2  0  0  0  0
  2 23  1  0  0  0  0
  3  2  2  0  0  0  0
  5  7  1  0  0  0  0
  5  4  1  1  0  0  0
  6  9  1  6  0  0  0
  6  8  1  0  0  0  0
  6  5  1  0  0  0  0
  8  2  1  1  0  0  0
  8  5  1  0  0  0  0
  9 11  1  1  0  0  0
 11 10  2  0  0  0  0
 12 16  1  6  0  0  0
 12  9  1  0  0  0  0
 14 13  1  6  0  0  0
 14 12  1  0  0  0  0
 15 14  1  0  0  0  0
 16 17  1  6  0  0  0
 18 16  1  0  0  0  0
 19 18  1  0  0  0  0
 20 19  1  0  0  0  0
 21 20  2  0  0  0  0
 22 20  1  0  0  0  0
 23 27  1  0  0  0  0
 24 26  1  0  0  0  0
 26 27  2  0  0  0  0
 26 31  1  0  0  0  0
 27 28  1  0  0  0  0
 28 29  1  0  0  0  0
 28 30  1  0  0  0  0
 30 25  1  1  0  0  0
 31 32  1  6  0  0  0
 31 30  1  0  0  0  0
 32 33  1  0  0  0  0
 35 36  2  0  0  0  0
 35 33  1  0  0  0  0
 37 34  2  0  0  0  0
 37 38  1  0  0  0  0
 38 35  1  0  0  0  0
M  END
>  <MODEL>
9

>  <REMARK>
 VINA RESULT:      -4.2      2.123      9.427
  Name = 
  14 active torsions:
  status: ('A' for Active; 'I' for Inactive)
    1  A    between atoms: C_2  and  C_16
    2  A    between atoms: C_2  and  O_33
    3  A    between atoms: C_7  and  C_10
    4  A    between atoms: C_8  and  C_28
    5  A    between atoms: C_8  and  C_35
    6  A    between atoms: C_8  and  C_37
    7  A    between atoms: C_10  and  C_13
    8  A    between atoms: C_12  and  C_31
    9  A    between atoms: C_12  and  C_34
   10  A    between atoms: C_13  and  C_24
   11  A    between atoms: C_14  and  C_31
   12  A    between atoms: C_18  and  C_35
   13  A    between atoms: C_24  and  C_35
   14  A    between atoms: O_33  and  C_36
                            x       y       z     vdW  Elec       q    Type
                         _______ _______ _______ _____ _____    ______ ____

>  <TORSDO>
F 14

$$$$
