=
 OpenBabel11052412013D

 61 67  0  0  1  0  0  0  0  0999 V2000
  159.6280  212.5090  153.3360 C   0  0  0  0  0  3  0  0  0  0  0  0
  159.4160  212.3710  154.6600 C   0  0  0  0  0  0  0  0  0  0  0  0
  159.6500  211.0570  155.2620 C   0  0  0  0  0  0  0  0  0  0  0  0
  159.5180  210.5550  156.5560 C   0  0  0  0  0  3  0  0  0  0  0  0
  160.2920  210.0310  153.1550 C   0  0  0  0  0  0  0  0  0  0  0  0
  160.0580  210.0110  154.5150 C   0  0  0  0  0  0  0  0  0  0  0  0
  160.8120  207.6340  153.3830 C   0  0  0  0  0  0  0  0  0  0  0  0
  160.1040  211.3620  152.4360 C   0  0  0  0  0  2  0  0  0  0  0  0
  160.1730  208.9300  155.2750 N   0  0  0  0  0  0  0  0  0  0  0  0
  160.6530  206.5940  155.6270 N   0  0  0  0  0  1  0  0  0  0  0  0
  160.6770  208.8000  152.5530 C   0  0  0  0  0  0  0  0  0  0  0  0
  160.5480  207.7310  154.7730 C   0  0  0  0  0  0  0  0  0  0  0  0
  159.8520  209.2330  156.5260 N   0  0  0  0  0  0  0  0  0  0  0  0
  162.0330  206.3880  151.5730 C   0  0  2  0  0  3  0  0  0  0  0  0
  161.2220  206.2910  152.8300 C   0  0  2  0  0  3  0  0  0  0  0  0
  160.0570  205.4420  152.4310 C   0  0  0  0  0  2  0  0  0  0  0  0
  161.6550  205.2600  150.7300 N   0  0  0  0  0  0  0  0  0  0  0  0
  160.4700  204.6800  151.2560 N   0  0  0  0  0  0  0  0  0  0  0  0
  163.5130  206.3070  151.9070 C   0  0  0  0  0  1  0  0  0  0  0  0
  161.3250  205.8050  149.4180 C   0  0  0  0  0  2  0  0  0  0  0  0
  159.8660  206.0910  145.5430 C   0  0  0  0  0  3  0  0  0  0  0  0
  162.7810  206.6740  147.6010 C   0  0  0  0  0  2  0  0  0  0  0  0
  162.3940  205.4380  148.3990 C   0  0  2  0  0  3  0  0  0  0  0  0
  162.6620  204.7690  145.8770 C   0  0  1  0  0  3  0  0  0  0  0  0
  161.9390  205.6020  146.9460 C   0  0  2  0  0  0  0  0  0  0  0  0
  162.8130  205.6040  144.6260 C   0  0  0  0  0  2  0  0  0  0  0  0
  160.3350  205.7460  144.1850 C   0  0  0  0  0  3  0  0  0  0  0  0
  161.5850  205.5080  143.7760 C   0  0  0  0  0  3  0  0  0  0  0  0
  160.5240  206.0340  146.7070 C   0  0  0  0  0  3  0  0  0  0  0  0
  164.0280  204.2510  146.3000 C   0  0  0  0  0  1  0  0  0  0  0  0
  160.8210  203.3460  151.7290 C   0  0  0  0  0  2  0  0  0  0  0  0
  161.6400  202.6210  150.6760 C   0  0  0  0  0  2  0  0  0  0  0  0
  159.3090  201.3090  150.5890 O   0  0  0  0  0  0  0  0  0  0  0  0
  160.7030  201.2510  150.0390 S   0  0  0  0  0  0  0  0  0  0  0  0
  161.3510  199.9660  150.4700 O   0  0  0  0  0  0  0  0  0  0  0  0
  160.6690  201.3430  148.2490 C   0  0  1  0  0  3  0  0  0  0  0  0
  160.0900  202.7680  146.6380 C   0  0  0  0  0  1  0  0  0  0  0  0
  160.8400  202.6690  147.8130 O   0  0  0  0  0  0  0  0  0  0  0  0
  161.6580  200.4490  147.6260 N   0  0  0  0  0  2  0  0  0  0  0  0
  161.7450  198.4820  146.3690 O   0  0  0  0  0  1  0  0  0  0  0  0
  161.1170  200.4490  145.3130 N   0  0  0  0  0  1  0  0  0  0  0  0
  161.0550  199.6790  146.5420 C   0  0  2  0  0  3  0  0  0  0  0  0
  160.9350  208.6800  151.1430 N   0  0  0  0  0  2  0  0  0  0  0  0
  162.0950  209.2070  150.4440 C   0  0  2  0  0  3  0  0  0  0  0  0
  162.8390  210.0120  151.3090 O   0  0  0  0  0  1  0  0  0  0  0  0
  161.6520  209.9500  149.1840 C   0  0  2  0  0  3  0  0  0  0  0  0
  162.1420  209.3150  148.0450 O   0  0  0  0  0  1  0  0  0  0  0  0
  161.9790  211.4460  149.1730 C   0  0  0  0  0  2  0  0  0  0  0  0
  161.4360  212.1420  147.9320 C   0  0  0  0  0  2  0  0  0  0  0  0
  160.4010  213.2200  148.2670 C   0  0  1  0  0  3  0  0  0  0  0  0
  160.6080  213.7990  149.6600 C   0  0  0  0  0  1  0  0  0  0  0  0
  160.4200  214.2430  147.3090 O   0  0  0  0  0  1  0  0  0  0  0  0
  158.9370  213.5190  155.4830 C   0  0  0  0  0  2  0  0  0  0  0  0
  155.3660  214.2170  156.3680 C   0  0  2  0  0  3  0  0  0  0  0  0
  157.1510  214.3640  153.2840 O   0  0  0  0  0  0  0  0  0  0  0  0
  155.3200  214.4530  154.8550 C   0  0  2  0  0  3  0  0  0  0  0  0
  154.4510  213.5630  154.2410 F   0  0  0  0  0  0  0  0  0  0  0  0
  157.4850  213.5880  155.4770 N   0  0  0  0  0  0  0  0  0  0  0  0
  156.6950  213.5130  156.6860 C   0  0  0  0  0  2  0  0  0  0  0  0
  156.7060  214.1460  154.4400 C   0  0  0  0  0  0  0  0  0  0  0  0
  154.2930  213.4550  156.8000 F   0  0  0  0  0  0  0  0  0  0  0  0
  1  2  2  0  0  0  0
  2  3  1  0  0  0  0
  2 53  1  0  0  0  0
  3  4  1  0  0  0  0
  5  6  1  0  0  0  0
  6  3  2  0  0  0  0
  6  9  1  0  0  0  0
  7 12  2  0  0  0  0
  8  5  1  0  0  0  0
  8  1  1  0  0  0  0
  9 13  1  0  0  0  0
 11  5  2  0  0  0  0
 11  7  1  0  0  0  0
 12  9  1  0  0  0  0
 12 10  1  0  0  0  0
 13  4  2  0  0  0  0
 14 19  1  1  0  0  0
 14 15  1  0  0  0  0
 15  7  1  6  0  0  0
 16 15  1  0  0  0  0
 17 18  1  0  0  0  0
 17 14  1  0  0  0  0
 18 31  1  0  0  0  0
 18 16  1  0  0  0  0
 20 17  1  0  0  0  0
 21 29  2  0  0  0  0
 22 23  1  0  0  0  0
 23 20  1  1  0  0  0
 24 30  1  1  0  0  0
 24 25  1  0  0  0  0
 25 29  1  6  0  0  0
 25 22  1  0  0  0  0
 25 23  1  0  0  0  0
 26 24  1  0  0  0  0
 27 21  1  0  0  0  0
 28 27  2  0  0  0  0
 28 26  1  0  0  0  0
 32 31  1  0  0  0  0
 34 35  2  0  0  0  0
 34 33  2  0  0  0  0
 34 32  1  0  0  0  0
 36 39  1  6  0  0  0
 36 34  1  0  0  0  0
 37 38  1  0  0  0  0
 38 36  1  0  0  0  0
 40 42  1  0  0  0  0
 42 41  1  6  0  0  0
 42 39  1  0  0  0  0
 43 11  1  0  0  0  0
 44 43  1  0  0  0  0
 44 45  1  1  0  0  0
 46 47  1  6  0  0  0
 46 44  1  0  0  0  0
 48 46  1  0  0  0  0
 49 50  1  0  0  0  0
 49 48  1  0  0  0  0
 50 51  1  1  0  0  0
 52 50  1  0  0  0  0
 54 59  1  0  0  0  0
 54 61  1  6  0  0  0
 55 60  2  0  0  0  0
 56 57  1  6  0  0  0
 56 54  1  0  0  0  0
 58 53  1  0  0  0  0
 58 59  1  0  0  0  0
 60 56  1  0  0  0  0
 60 58  1  0  0  0  0
M  END
>  <MODEL>
1

>  <REMARK>
 VINA RESULT:      -3.9      0.000      0.000
  Name = 
  18 active torsions:
  status: ('A' for Active; 'I' for Inactive)
    1  A    between atoms: C_2  and  N_9
    2  A    between atoms: C_2  and  C_29
    3  A    between atoms: C_3  and  C_30
    4  A    between atoms: C_3  and  C_58
    5  A    between atoms: C_4  and  C_8
    6  A    between atoms: C_4  and  N_44
    7  A    between atoms: N_9  and  C_51
    8  A    between atoms: C_12  and  S_16
    9  A    between atoms: C_12  and  C_26
   10  A    between atoms: O_13  and  C_15
   11  A    between atoms: C_15  and  S_16
   12  A    between atoms: C_15  and  N_35
   13  A    between atoms: C_18  and  C_19
   14  A    between atoms: C_18  and  N_41
   15  A    between atoms: C_23  and  C_37
   16  A    between atoms: C_26  and  N_45
   17  A    between atoms: C_29  and  C_58
   18  A    between atoms: N_35  and  C_40
                            x       y       z     vdW  Elec       q    Type
                         _______ _______ _______ _____ _____    ______ ____

>  <TORSDO>
F 18

$$$$
=
 OpenBabel11052412013D

 61 67  0  0  1  0  0  0  0  0999 V2000
  159.6880  211.7170  156.2620 C   0  0  0  0  0  3  0  0  0  0  0  0
  159.1000  212.8650  155.8710 C   0  0  0  0  0  0  0  0  0  0  0  0
  159.1910  213.2390  154.4590 C   0  0  0  0  0  0  0  0  0  0  0  0
  158.7360  214.3330  153.7240 C   0  0  0  0  0  3  0  0  0  0  0  0
  160.4990  211.2820  153.8610 C   0  0  0  0  0  0  0  0  0  0  0  0
  159.8510  212.4650  153.5740 C   0  0  2  0  0  3  0  0  0  0  0  0
  161.1240  211.2460  151.4780 C   0  0  0  0  0  0  0  0  0  0  0  0
  160.4400  210.7870  155.3020 C   0  0  0  0  0  3  0  0  0  0  0  0
  159.8180  213.0250  152.3720 N   0  0  0  0  0  0  0  0  0  0  0  0
  160.3680  213.1050  150.0250 N   0  0  0  0  0  1  0  0  0  0  0  0
  161.1730  210.6420  152.7820 C   0  0  0  0  0  0  0  0  0  0  0  0
  160.4230  212.4650  151.2980 C   0  0  0  0  0  0  0  0  0  0  0  0
  159.1430  214.1650  152.4320 N   0  0  0  0  0  0  0  0  0  0  0  0
  162.1480  211.6340  149.2150 C   0  0  2  0  0  3  0  0  0  0  0  0
  161.8030  210.6330  150.2780 C   0  0  2  0  0  3  0  0  0  0  0  0
  160.9430  209.6420  149.5600 C   0  0  0  0  0  2  0  0  0  0  0  0
  161.9650  210.9720  147.9280 N   0  0  0  0  0  0  0  0  0  0  0  0
  161.2510  209.7630  148.1390 N   0  0  0  0  0  0  0  0  0  0  0  0
  163.5950  212.0710  149.3690 C   0  0  0  0  0  1  0  0  0  0  0  0
  161.1170  211.8430  147.1230 C   0  0  0  0  0  2  0  0  0  0  0  0
  159.4900  212.0560  143.3110 C   0  0  0  0  0  3  0  0  0  0  0  0
  161.1820  213.9830  145.8600 C   0  0  0  0  0  2  0  0  0  0  0  0
  161.9610  212.7240  146.2130 C   0  0  2  0  0  3  0  0  0  0  0  0
  162.3330  213.2660  143.6730 C   0  0  1  0  0  3  0  0  0  0  0  0
  161.3670  212.9070  144.8130 C   0  0  2  0  0  0  0  0  0  0  0  0
  161.6480  214.2420  142.7430 C   0  0  0  0  0  2  0  0  0  0  0  0
  159.8880  212.6010  141.9960 C   0  0  0  0  0  3  0  0  0  0  0  0
  160.8250  213.5150  141.7280 C   0  0  0  0  0  3  0  0  0  0  0  0
  160.0990  212.1740  144.4970 C   0  0  0  0  0  3  0  0  0  0  0  0
  163.6560  213.8570  144.1330 C   0  0  0  0  0  1  0  0  0  0  0  0
  162.1600  208.6690  147.8160 C   0  0  0  0  0  2  0  0  0  0  0  0
  161.3920  207.5300  147.1700 C   0  0  0  0  0  2  0  0  0  0  0  0
  159.9380  206.1820  148.9680 O   0  0  0  0  0  0  0  0  0  0  0  0
  161.2850  206.1680  148.3090 S   0  0  0  0  0  0  0  0  0  0  0  0
  162.3500  206.3160  149.3580 O   0  0  0  0  0  0  0  0  0  0  0  0
  161.5220  204.6330  147.4140 C   0  0  1  0  0  3  0  0  0  0  0  0
  162.7650  205.0320  145.6090 C   0  0  0  0  0  1  0  0  0  0  0  0
  162.8340  204.5410  146.9160 O   0  0  0  0  0  0  0  0  0  0  0  0
  161.1810  203.4550  148.2290 N   0  0  0  0  0  2  0  0  0  0  0  0
  160.7130  202.1940  146.3190 O   0  0  0  0  0  1  0  0  0  0  0  0
  161.0800  201.0840  148.3220 N   0  0  0  0  0  1  0  0  0  0  0  0
  161.4510  202.2200  147.4990 C   0  0  2  0  0  3  0  0  0  0  0  0
  161.9000  209.4120  152.9500 N   0  0  0  0  0  2  0  0  0  0  0  0
  161.4230  208.0880  152.5910 C   0  0  2  0  0  3  0  0  0  0  0  0
  160.2490  208.1980  151.8420 O   0  0  0  0  0  1  0  0  0  0  0  0
  161.2410  207.2390  153.8490 C   0  0  2  0  0  3  0  0  0  0  0  0
  161.6400  207.9510  154.9790 O   0  0  0  0  0  1  0  0  0  0  0  0
  161.9050  205.8600  153.7950 C   0  0  0  0  0  2  0  0  0  0  0  0
  160.9340  204.7760  153.3470 C   0  0  0  0  0  2  0  0  0  0  0  0
  161.1640  204.3440  151.8960 C   0  0  1  0  0  3  0  0  0  0  0  0
  161.8010  202.9630  151.8040 C   0  0  0  0  0  1  0  0  0  0  0  0
  159.9650  204.3740  151.1700 O   0  0  0  0  0  1  0  0  0  0  0  0
  158.3950  213.7380  156.8550 C   0  0  0  0  0  2  0  0  0  0  0  0
  154.6860  213.7970  156.3460 C   0  0  2  0  0  3  0  0  0  0  0  0
  157.0690  211.1440  156.3520 O   0  0  0  0  0  0  0  0  0  0  0  0
  154.9470  212.2890  156.2550 C   0  0  2  0  0  3  0  0  0  0  0  0
  154.2750  211.6090  157.2600 F   0  0  0  0  0  0  0  0  0  0  0  0
  156.9750  213.4290  156.8950 N   0  0  0  0  0  0  0  0  0  0  0  0
  155.9540  214.4520  156.9160 C   0  0  0  0  0  2  0  0  0  0  0  0
  156.4040  212.2020  156.4950 C   0  0  0  0  0  0  0  0  0  0  0  0
  153.5880  214.0790  157.1420 F   0  0  0  0  0  0  0  0  0  0  0  0
  2  1  1  0  0  0  0
  2 53  1  0  0  0  0
  3  2  2  0  0  0  0
  4  3  1  0  0  0  0
  5  8  1  0  0  0  0
  6  5  1  1  0  0  0
  6  3  1  0  0  0  0
  7 11  1  0  0  0  0
  8  1  2  0  0  0  0
  9 13  1  0  0  0  0
  9  6  1  0  0  0  0
 10 12  1  0  0  0  0
 11 43  1  0  0  0  0
 11  5  2  0  0  0  0
 12  7  2  0  0  0  0
 12  9  1  0  0  0  0
 13  4  2  0  0  0  0
 14 19  1  1  0  0  0
 14 15  1  0  0  0  0
 15  7  1  1  0  0  0
 16 15  1  0  0  0  0
 17 18  1  0  0  0  0
 17 14  1  0  0  0  0
 18 16  1  0  0  0  0
 20 17  1  0  0  0  0
 21 29  2  0  0  0  0
 22 23  1  0  0  0  0
 23 20  1  1  0  0  0
 24 30  1  1  0  0  0
 24 25  1  0  0  0  0
 25 29  1  6  0  0  0
 25 22  1  0  0  0  0
 25 23  1  0  0  0  0
 26 24  1  0  0  0  0
 27 21  1  0  0  0  0
 28 27  2  0  0  0  0
 28 26  1  0  0  0  0
 31 18  1  0  0  0  0
 32 31  1  0  0  0  0
 32 34  1  0  0  0  0
 34 33  2  0  0  0  0
 34 35  2  0  0  0  0
 36 38  1  1  0  0  0
 36 39  1  0  0  0  0
 36 34  1  0  0  0  0
 37 38  1  0  0  0  0
 42 40  1  6  0  0  0
 42 39  1  0  0  0  0
 42 41  1  0  0  0  0
 44 45  1  1  0  0  0
 44 43  1  0  0  0  0
 44 46  1  0  0  0  0
 46 47  1  1  0  0  0
 48 46  1  0  0  0  0
 49 48  1  0  0  0  0
 50 51  1  1  0  0  0
 50 49  1  0  0  0  0
 52 50  1  0  0  0  0
 53 58  1  0  0  0  0
 54 59  1  0  0  0  0
 54 61  1  1  0  0  0
 55 60  2  0  0  0  0
 56 54  1  0  0  0  0
 56 60  1  0  0  0  0
 56 57  1  1  0  0  0
 58 59  1  0  0  0  0
 60 58  1  0  0  0  0
M  END
>  <MODEL>
2

>  <REMARK>
 VINA RESULT:      -3.4      2.811      5.733
  Name = 
  18 active torsions:
  status: ('A' for Active; 'I' for Inactive)
    1  A    between atoms: C_2  and  N_9
    2  A    between atoms: C_2  and  C_29
    3  A    between atoms: C_3  and  C_30
    4  A    between atoms: C_3  and  C_58
    5  A    between atoms: C_4  and  C_8
    6  A    between atoms: C_4  and  N_44
    7  A    between atoms: N_9  and  C_51
    8  A    between atoms: C_12  and  S_16
    9  A    between atoms: C_12  and  C_26
   10  A    between atoms: O_13  and  C_15
   11  A    between atoms: C_15  and  S_16
   12  A    between atoms: C_15  and  N_35
   13  A    between atoms: C_18  and  C_19
   14  A    between atoms: C_18  and  N_41
   15  A    between atoms: C_23  and  C_37
   16  A    between atoms: C_26  and  N_45
   17  A    between atoms: C_29  and  C_58
   18  A    between atoms: N_35  and  C_40
                            x       y       z     vdW  Elec       q    Type
                         _______ _______ _______ _____ _____    ______ ____

>  <TORSDO>
F 18

$$$$
=
 OpenBabel11052412013D

 61 67  0  0  1  0  0  0  0  0999 V2000
  159.9800  211.8610  155.8900 C   0  0  0  0  0  3  0  0  0  0  0  0
  159.3180  212.9770  155.5220 C   0  0  0  0  0  0  0  0  0  0  0  0
  159.3250  213.3460  154.1060 C   0  0  0  0  0  0  0  0  0  0  0  0
  158.7840  214.4110  153.3880 C   0  0  0  0  0  3  0  0  0  0  0  0
  160.7000  211.4520  153.4560 C   0  0  0  0  0  0  0  0  0  0  0  0
  159.9810  212.6000  153.1940 C   0  0  2  0  0  3  0  0  0  0  0  0
  161.2150  211.4310  151.0460 C   0  0  0  0  0  0  0  0  0  0  0  0
  160.7320  210.9630  154.8990 C   0  0  0  0  0  3  0  0  0  0  0  0
  159.8660  213.1490  151.9920 N   0  0  0  0  0  0  0  0  0  0  0  0
  160.3020  213.2420  149.6230 N   0  0  0  0  0  1  0  0  0  0  0  0
  161.3530  210.8380  152.3490 C   0  0  0  0  0  0  0  0  0  0  0  0
  160.4470  212.6130  150.8940 C   0  0  0  0  0  0  0  0  0  0  0  0
  159.1380  214.2550  152.0790 N   0  0  0  0  0  0  0  0  0  0  0  0
  162.0680  211.8450  148.7180 C   0  0  2  0  0  3  0  0  0  0  0  0
  161.8680  210.8450  149.8190 C   0  0  2  0  0  3  0  0  0  0  0  0
  161.0470  209.7740  149.1730 C   0  0  0  0  0  2  0  0  0  0  0  0
  161.8620  211.1410  147.4570 N   0  0  0  0  0  0  0  0  0  0  0  0
  161.2590  209.8850  147.7340 N   0  0  0  0  0  0  0  0  0  0  0  0
  163.4830  212.3960  148.7750 C   0  0  0  0  0  1  0  0  0  0  0  0
  160.9010  211.9230  146.6890 C   0  0  0  0  0  2  0  0  0  0  0  0
  159.8720  211.5700  142.6840 C   0  0  0  0  0  3  0  0  0  0  0  0
  160.5950  213.9610  145.2990 C   0  0  0  0  0  2  0  0  0  0  0  0
  161.6130  212.9700  145.8440 C   0  0  2  0  0  3  0  0  0  0  0  0
  162.2110  213.5120  143.3480 C   0  0  1  0  0  3  0  0  0  0  0  0
  161.2120  212.9420  144.3660 C   0  0  2  0  0  0  0  0  0  0  0  0
  161.4450  214.2370  142.2650 C   0  0  0  0  0  2  0  0  0  0  0  0
  160.3090  212.1600  141.4010 C   0  0  0  0  0  3  0  0  0  0  0  0
  161.0040  213.2830  141.2010 C   0  0  0  0  0  3  0  0  0  0  0  0
  160.2420  211.8850  143.9310 C   0  0  0  0  0  3  0  0  0  0  0  0
  163.2480  214.4510  143.9430 C   0  0  0  0  0  1  0  0  0  0  0  0
  162.2310  208.8570  147.3760 C   0  0  0  0  0  2  0  0  0  0  0  0
  162.0830  207.6600  148.2980 C   0  0  0  0  0  2  0  0  0  0  0  0
  162.7620  206.0270  146.2900 O   0  0  0  0  0  0  0  0  0  0  0  0
  161.7020  206.2160  147.3340 S   0  0  0  0  0  0  0  0  0  0  0  0
  160.3730  206.4080  146.6600 O   0  0  0  0  0  0  0  0  0  0  0  0
  161.6340  204.7870  148.4160 C   0  0  1  0  0  3  0  0  0  0  0  0
  160.4130  205.3080  150.2040 C   0  0  0  0  0  1  0  0  0  0  0  0
  160.3520  204.6440  148.9750 O   0  0  0  0  0  0  0  0  0  0  0  0
  162.0560  203.5530  147.7340 N   0  0  0  0  0  2  0  0  0  0  0  0
  160.6480  201.7090  148.0040 O   0  0  0  0  0  1  0  0  0  0  0  0
  161.1810  202.3970  145.8540 N   0  0  0  0  0  1  0  0  0  0  0  0
  160.9030  202.8250  147.2120 C   0  0  2  0  0  3  0  0  0  0  0  0
  162.1480  209.6470  152.4870 N   0  0  0  0  0  2  0  0  0  0  0  0
  161.7520  208.3110  152.0800 C   0  0  2  0  0  3  0  0  0  0  0  0
  160.4220  208.3230  151.6540 O   0  0  0  0  0  1  0  0  0  0  0  0
  161.9940  207.3230  153.2220 C   0  0  2  0  0  3  0  0  0  0  0  0
  162.6290  206.1770  152.7490 O   0  0  0  0  0  1  0  0  0  0  0  0
  160.7500  206.9730  154.0430 C   0  0  0  0  0  2  0  0  0  0  0  0
  161.0620  206.8470  155.5280 C   0  0  0  0  0  2  0  0  0  0  0  0
  161.0950  208.2030  156.2400 C   0  0  1  0  0  3  0  0  0  0  0  0
  159.9740  208.3420  157.2600 C   0  0  0  0  0  1  0  0  0  0  0  0
  162.3380  208.4140  156.8530 O   0  0  0  0  0  1  0  0  0  0  0  0
  158.6170  213.8200  156.5330 C   0  0  0  0  0  2  0  0  0  0  0  0
  154.8890  213.6960  156.1930 C   0  0  2  0  0  3  0  0  0  0  0  0
  157.3970  211.1620  156.1010 O   0  0  0  0  0  0  0  0  0  0  0  0
  155.2190  212.2030  156.0970 C   0  0  2  0  0  3  0  0  0  0  0  0
  154.6280  211.4970  157.1340 F   0  0  0  0  0  0  0  0  0  0  0  0
  157.2170  213.4430  156.6390 N   0  0  0  0  0  0  0  0  0  0  0  0
  156.1500  214.4150  156.7030 C   0  0  0  0  0  2  0  0  0  0  0  0
  156.6880  212.1870  156.2700 C   0  0  0  0  0  0  0  0  0  0  0  0
  153.8170  213.9290  157.0380 F   0  0  0  0  0  0  0  0  0  0  0  0
  2  1  1  0  0  0  0
  2 53  1  0  0  0  0
  3  2  2  0  0  0  0
  4  3  1  0  0  0  0
  5  8  1  0  0  0  0
  6  5  1  1  0  0  0
  6  3  1  0  0  0  0
  7 11  1  0  0  0  0
  8  1  2  0  0  0  0
  9 13  1  0  0  0  0
  9  6  1  0  0  0  0
 10 12  1  0  0  0  0
 11 43  1  0  0  0  0
 11  5  2  0  0  0  0
 12  7  2  0  0  0  0
 12  9  1  0  0  0  0
 13  4  2  0  0  0  0
 14 19  1  6  0  0  0
 14 15  1  0  0  0  0
 15  7  1  1  0  0  0
 16 15  1  0  0  0  0
 17 18  1  0  0  0  0
 17 14  1  0  0  0  0
 18 16  1  0  0  0  0
 20 17  1  0  0  0  0
 21 29  2  0  0  0  0
 22 23  1  0  0  0  0
 23 20  1  1  0  0  0
 24 30  1  1  0  0  0
 24 25  1  0  0  0  0
 25 29  1  6  0  0  0
 25 22  1  0  0  0  0
 25 23  1  0  0  0  0
 26 24  1  0  0  0  0
 27 21  1  0  0  0  0
 28 27  2  0  0  0  0
 28 26  1  0  0  0  0
 31 18  1  0  0  0  0
 31 32  1  0  0  0  0
 33 34  2  0  0  0  0
 34 32  1  0  0  0  0
 34 36  1  0  0  0  0
 35 34  2  0  0  0  0
 36 39  1  6  0  0  0
 36 38  1  0  0  0  0
 38 37  1  0  0  0  0
 42 41  1  6  0  0  0
 42 39  1  0  0  0  0
 42 40  1  0  0  0  0
 44 45  1  1  0  0  0
 44 43  1  0  0  0  0
 44 46  1  0  0  0  0
 46 47  1  6  0  0  0
 46 48  1  0  0  0  0
 48 49  1  0  0  0  0
 49 50  1  0  0  0  0
 50 52  1  0  0  0  0
 50 51  1  1  0  0  0
 53 58  1  0  0  0  0
 54 59  1  0  0  0  0
 54 61  1  1  0  0  0
 55 60  2  0  0  0  0
 56 54  1  0  0  0  0
 56 60  1  0  0  0  0
 56 57  1  1  0  0  0
 58 59  1  0  0  0  0
 60 58  1  0  0  0  0
M  END
>  <MODEL>
3

>  <REMARK>
 VINA RESULT:      -3.4      3.050      5.828
  Name = 
  18 active torsions:
  status: ('A' for Active; 'I' for Inactive)
    1  A    between atoms: C_2  and  N_9
    2  A    between atoms: C_2  and  C_29
    3  A    between atoms: C_3  and  C_30
    4  A    between atoms: C_3  and  C_58
    5  A    between atoms: C_4  and  C_8
    6  A    between atoms: C_4  and  N_44
    7  A    between atoms: N_9  and  C_51
    8  A    between atoms: C_12  and  S_16
    9  A    between atoms: C_12  and  C_26
   10  A    between atoms: O_13  and  C_15
   11  A    between atoms: C_15  and  S_16
   12  A    between atoms: C_15  and  N_35
   13  A    between atoms: C_18  and  C_19
   14  A    between atoms: C_18  and  N_41
   15  A    between atoms: C_23  and  C_37
   16  A    between atoms: C_26  and  N_45
   17  A    between atoms: C_29  and  C_58
   18  A    between atoms: N_35  and  C_40
                            x       y       z     vdW  Elec       q    Type
                         _______ _______ _______ _____ _____    ______ ____

>  <TORSDO>
F 18

$$$$
=
 OpenBabel11052412013D

 61 67  0  0  1  0  0  0  0  0999 V2000
  160.6320  203.0590  151.2930 C   0  0  0  0  0  3  0  0  0  0  0  0
  161.0330  202.7860  150.0350 C   0  0  0  0  0  0  0  0  0  0  0  0
  161.5260  203.8930  149.2140 C   0  0  0  0  0  0  0  0  0  0  0  0
  161.9890  203.9840  147.9010 C   0  0  0  0  0  3  0  0  0  0  0  0
  161.1780  205.5490  150.9550 C   0  0  0  0  0  0  0  0  0  0  0  0
  161.5730  205.1510  149.6950 C   0  0  2  0  0  3  0  0  0  0  0  0
  161.7760  207.8290  150.2360 C   0  0  0  0  0  0  0  0  0  0  0  0
  160.6740  204.4670  151.9020 C   0  0  0  0  0  3  0  0  0  0  0  0
  162.0270  205.9770  148.7610 N   0  0  0  0  0  0  0  0  0  0  0  0
  162.6430  208.1570  147.9370 N   0  0  0  0  0  1  0  0  0  0  0  0
  161.2710  206.9400  151.2470 C   0  0  0  0  0  0  0  0  0  0  0  0
  162.1560  207.3070  148.9730 C   0  0  0  0  0  0  0  0  0  0  0  0
  162.2920  205.2910  147.6560 N   0  0  0  0  0  0  0  0  0  0  0  0
  161.5360  209.7430  151.8470 C   0  0  2  0  0  3  0  0  0  0  0  0
  161.9140  209.3140  150.4600 C   0  0  2  0  0  3  0  0  0  0  0  0
  161.0140  210.1260  149.5840 C   0  0  0  0  0  2  0  0  0  0  0  0
  160.8970  211.0490  151.7320 N   0  0  0  0  0  0  0  0  0  0  0  0
  160.5950  211.2860  150.3640 N   0  0  0  0  0  0  0  0  0  0  0  0
  162.7820  209.8540  152.7090 C   0  0  0  0  0  1  0  0  0  0  0  0
  159.6290  210.9630  152.4470 C   0  0  0  0  0  2  0  0  0  0  0  0
  157.3300  211.6030  155.8430 C   0  0  0  0  0  3  0  0  0  0  0  0
  159.4200  213.2520  153.3950 C   0  0  0  0  0  2  0  0  0  0  0  0
  158.8720  212.2810  152.3590 C   0  0  2  0  0  3  0  0  0  0  0  0
  156.8660  213.5570  153.4680 C   0  0  1  0  0  3  0  0  0  0  0  0
  158.0670  212.6120  153.6200 C   0  0  2  0  0  0  0  0  0  0  0  0
  156.7930  214.4530  154.6830 C   0  0  0  0  0  2  0  0  0  0  0  0
  156.3060  212.5710  156.2870 C   0  0  0  0  0  3  0  0  0  0  0  0
  156.0420  213.7820  155.7890 C   0  0  0  0  0  3  0  0  0  0  0  0
  158.0730  211.6050  154.7300 C   0  0  0  0  0  3  0  0  0  0  0  0
  156.8970  214.4160  152.2130 C   0  0  0  0  0  1  0  0  0  0  0  0
  161.4290  212.4010  149.9300 C   0  0  0  0  0  2  0  0  0  0  0  0
  160.6240  213.3380  149.0470 C   0  0  0  0  0  2  0  0  0  0  0  0
  162.2980  212.2000  147.2960 O   0  0  0  0  0  0  0  0  0  0  0  0
  161.1150  213.1210  147.3520 S   0  0  0  0  0  0  0  0  0  0  0  0
  161.4990  214.4530  146.7750 O   0  0  0  0  0  0  0  0  0  0  0  0
  159.7450  212.4290  146.4270 C   0  0  1  0  0  3  0  0  0  0  0  0
  157.5330  212.5810  146.6370 C   0  0  0  0  0  1  0  0  0  0  0  0
  158.6750  213.3380  146.3620 O   0  0  0  0  0  0  0  0  0  0  0  0
  160.1480  211.9890  145.0810 N   0  0  0  0  0  2  0  0  0  0  0  0
  159.3950  213.2590  143.2700 O   0  0  0  0  0  1  0  0  0  0  0  0
  161.6780  212.9410  143.5340 N   0  0  0  0  0  1  0  0  0  0  0  0
  160.4110  213.1340  144.2150 C   0  0  2  0  0  3  0  0  0  0  0  0
  160.8780  207.4890  152.5170 N   0  0  0  0  0  2  0  0  0  0  0  0
  161.5350  207.2420  153.7890 C   0  0  2  0  0  3  0  0  0  0  0  0
  161.9960  205.9250  153.8320 O   0  0  0  0  0  1  0  0  0  0  0  0
  160.5830  207.5690  154.9400 C   0  0  2  0  0  3  0  0  0  0  0  0
  159.6620  208.5390  154.5510 O   0  0  0  0  0  1  0  0  0  0  0  0
  161.2730  207.9490  156.2540 C   0  0  0  0  0  2  0  0  0  0  0  0
  160.5260  209.0510  156.9940 C   0  0  0  0  0  2  0  0  0  0  0  0
  161.4020  210.2790  157.2590 C   0  0  1  0  0  3  0  0  0  0  0  0
  162.8860  209.9380  157.2450 C   0  0  0  0  0  1  0  0  0  0  0  0
  161.1300  211.2960  156.3330 O   0  0  0  0  0  1  0  0  0  0  0  0
  160.9540  201.3990  149.4900 C   0  0  0  0  0  2  0  0  0  0  0  0
  160.1470  202.4730  145.9950 C   0  0  2  0  0  3  0  0  0  0  0  0
  161.9470  199.6830  147.2970 O   0  0  0  0  0  0  0  0  0  0  0  0
  160.8900  201.1630  145.7100 C   0  0  2  0  0  3  0  0  0  0  0  0
  160.0630  200.2540  145.0670 F   0  0  0  0  0  0  0  0  0  0  0  0
  160.5700  201.4160  148.0880 N   0  0  0  0  0  0  0  0  0  0  0  0
  159.8220  202.5020  147.4970 C   0  0  0  0  0  2  0  0  0  0  0  0
  161.1980  200.6680  147.0690 C   0  0  0  0  0  0  0  0  0  0  0  0
  158.9900  202.5780  145.2410 F   0  0  0  0  0  0  0  0  0  0  0  0
  1  8  2  0  0  0  0
  2  1  1  0  0  0  0
  3  2  2  0  0  0  0
  4  3  1  0  0  0  0
  5 11  2  0  0  0  0
  5  8  1  0  0  0  0
  6  3  1  6  0  0  0
  6  5  1  0  0  0  0
  7 11  1  0  0  0  0
  9 12  1  0  0  0  0
  9  6  1  0  0  0  0
 10 12  1  0  0  0  0
 11 43  1  0  0  0  0
 12  7  2  0  0  0  0
 13  4  2  0  0  0  0
 13  9  1  0  0  0  0
 14 19  1  1  0  0  0
 15  7  1  1  0  0  0
 15 14  1  0  0  0  0
 16 18  1  0  0  0  0
 16 15  1  0  0  0  0
 17 14  1  0  0  0  0
 17 20  1  0  0  0  0
 18 17  1  0  0  0  0
 21 27  1  0  0  0  0
 23 20  1  1  0  0  0
 23 22  1  0  0  0  0
 23 25  1  0  0  0  0
 24 30  1  6  0  0  0
 24 25  1  0  0  0  0
 24 26  1  0  0  0  0
 25 22  1  1  0  0  0
 25 29  1  0  0  0  0
 26 28  1  0  0  0  0
 28 27  2  0  0  0  0
 29 21  2  0  0  0  0
 31 18  1  0  0  0  0
 32 31  1  0  0  0  0
 33 34  2  0  0  0  0
 34 32  1  0  0  0  0
 35 34  2  0  0  0  0
 36 39  1  6  0  0  0
 36 34  1  0  0  0  0
 38 36  1  0  0  0  0
 38 37  1  0  0  0  0
 41 42  1  0  0  0  0
 42 40  1  6  0  0  0
 42 39  1  0  0  0  0
 43 44  1  0  0  0  0
 44 45  1  6  0  0  0
 44 46  1  0  0  0  0
 46 47  1  6  0  0  0
 46 48  1  0  0  0  0
 48 49  1  0  0  0  0
 49 50  1  0  0  0  0
 50 51  1  6  0  0  0
 52 50  1  0  0  0  0
 53  2  1  0  0  0  0
 54 61  1  6  0  0  0
 54 59  1  0  0  0  0
 56 57  1  1  0  0  0
 56 54  1  0  0  0  0
 56 60  1  0  0  0  0
 58 53  1  0  0  0  0
 59 58  1  0  0  0  0
 60 55  2  0  0  0  0
 60 58  1  0  0  0  0
M  END
>  <MODEL>
4

>  <REMARK>
 VINA RESULT:      -3.2      4.163     10.832
  Name = 
  18 active torsions:
  status: ('A' for Active; 'I' for Inactive)
    1  A    between atoms: C_2  and  N_9
    2  A    between atoms: C_2  and  C_29
    3  A    between atoms: C_3  and  C_30
    4  A    between atoms: C_3  and  C_58
    5  A    between atoms: C_4  and  C_8
    6  A    between atoms: C_4  and  N_44
    7  A    between atoms: N_9  and  C_51
    8  A    between atoms: C_12  and  S_16
    9  A    between atoms: C_12  and  C_26
   10  A    between atoms: O_13  and  C_15
   11  A    between atoms: C_15  and  S_16
   12  A    between atoms: C_15  and  N_35
   13  A    between atoms: C_18  and  C_19
   14  A    between atoms: C_18  and  N_41
   15  A    between atoms: C_23  and  C_37
   16  A    between atoms: C_26  and  N_45
   17  A    between atoms: C_29  and  C_58
   18  A    between atoms: N_35  and  C_40
                            x       y       z     vdW  Elec       q    Type
                         _______ _______ _______ _____ _____    ______ ____

>  <TORSDO>
F 18

$$$$
=
 OpenBabel11052412013D

 61 67  0  0  1  0  0  0  0  0999 V2000
  161.6710  204.5260  149.4510 C   0  0  0  0  0  3  0  0  0  0  0  0
  162.1380  205.2500  148.4140 C   0  0  0  0  0  0  0  0  0  0  0  0
  162.1630  206.7080  148.5490 C   0  0  0  0  0  0  0  0  0  0  0  0
  162.5460  207.7450  147.6990 C   0  0  0  0  0  3  0  0  0  0  0  0
  161.2160  206.6760  150.7850 C   0  0  0  0  0  0  0  0  0  0  0  0
  161.7250  207.3120  149.6720 C   0  0  2  0  0  3  0  0  0  0  0  0
  160.8880  208.9350  151.7130 C   0  0  0  0  0  0  0  0  0  0  0  0
  161.1730  205.1530  150.7590 C   0  0  0  0  0  3  0  0  0  0  0  0
  161.8220  208.6290  149.5440 N   0  0  0  0  0  0  0  0  0  0  0  0
  161.5470  210.8890  150.3380 N   0  0  0  0  0  1  0  0  0  0  0  0
  160.7700  207.5090  151.8510 C   0  0  0  0  0  0  0  0  0  0  0  0
  161.4300  209.4790  150.5210 C   0  0  0  0  0  0  0  0  0  0  0  0
  162.3220  208.9220  148.3510 N   0  0  0  0  0  0  0  0  0  0  0  0
  159.0560  210.4170  152.5890 C   0  0  2  0  0  3  0  0  0  0  0  0
  160.4460  209.8910  152.7930 C   0  0  2  0  0  3  0  0  0  0  0  0
  161.2830  211.1290  152.8580 C   0  0  0  0  0  2  0  0  0  0  0  0
  159.0490  211.8000  153.0520 N   0  0  0  0  0  0  0  0  0  0  0  0
  160.3930  212.2250  153.2280 N   0  0  0  0  0  0  0  0  0  0  0  0
  158.0700  209.5970  153.4030 C   0  0  0  0  0  1  0  0  0  0  0  0
  158.4780  212.6030  151.9770 C   0  0  0  0  0  2  0  0  0  0  0  0
  156.8330  213.3540  148.2410 C   0  0  0  0  0  3  0  0  0  0  0  0
  159.3670  214.4530  150.5760 C   0  0  0  0  0  2  0  0  0  0  0  0
  159.5520  212.9960  150.9720 C   0  0  2  0  0  3  0  0  0  0  0  0
  159.9380  213.2260  148.3870 C   0  0  1  0  0  3  0  0  0  0  0  0
  158.9960  213.3640  149.5930 C   0  0  2  0  0  0  0  0  0  0  0  0
  159.6750  214.3660  147.4290 C   0  0  0  0  0  2  0  0  0  0  0  0
  157.3320  213.6220  146.8760 C   0  0  0  0  0  3  0  0  0  0  0  0
  158.5490  214.0290  146.5040 C   0  0  0  0  0  3  0  0  0  0  0  0
  157.5170  213.2420  149.3860 C   0  0  0  0  0  3  0  0  0  0  0  0
  161.4160  213.2030  148.7440 C   0  0  0  0  0  1  0  0  0  0  0  0
  160.5850  212.4510  154.6570 C   0  0  0  0  0  2  0  0  0  0  0  0
  160.1040  213.8410  155.0310 C   0  0  0  0  0  2  0  0  0  0  0  0
  157.4960  214.4280  154.8930 O   0  0  0  0  0  0  0  0  0  0  0  0
  158.4910  213.7290  155.7720 S   0  0  0  0  0  0  0  0  0  0  0  0
  158.5180  214.3980  157.1170 O   0  0  0  0  0  0  0  0  0  0  0  0
  158.0480  212.0020  155.9590 C   0  0  1  0  0  3  0  0  0  0  0  0
  158.1110  210.1720  157.2260 C   0  0  0  0  0  1  0  0  0  0  0  0
  158.3310  211.5520  157.2610 O   0  0  0  0  0  0  0  0  0  0  0  0
  156.6430  211.7460  155.6030 N   0  0  0  0  0  2  0  0  0  0  0  0
  154.8870  211.0160  156.9590 O   0  0  0  0  0  1  0  0  0  0  0  0
  154.9850  213.2590  156.3770 N   0  0  0  0  0  1  0  0  0  0  0  0
  155.7550  212.0760  156.7140 C   0  0  2  0  0  3  0  0  0  0  0  0
  160.2040  206.9740  153.0610 N   0  0  0  0  0  2  0  0  0  0  0  0
  160.9490  206.5700  154.2400 C   0  0  2  0  0  3  0  0  0  0  0  0
  161.3140  205.2270  154.1280 O   0  0  0  0  0  1  0  0  0  0  0  0
  160.1290  206.8530  155.4990 C   0  0  2  0  0  3  0  0  0  0  0  0
  158.7700  206.6800  155.2450 O   0  0  0  0  0  1  0  0  0  0  0  0
  160.4060  208.2090  156.1540 C   0  0  0  0  0  2  0  0  0  0  0  0
  161.7690  208.7650  155.7650 C   0  0  0  0  0  2  0  0  0  0  0  0
  162.3210  209.7480  156.8010 C   0  0  1  0  0  3  0  0  0  0  0  0
  163.5540  210.4830  156.2930 C   0  0  0  0  0  1  0  0  0  0  0  0
  161.3360  210.6670  157.1910 O   0  0  0  0  0  1  0  0  0  0  0  0
  162.5950  204.5860  147.1590 C   0  0  0  0  0  2  0  0  0  0  0  0
  160.5180  201.5070  147.6400 C   0  0  2  0  0  3  0  0  0  0  0  0
  160.7610  203.8490  144.9600 O   0  0  0  0  0  0  0  0  0  0  0  0
  160.0850  201.9060  146.2240 C   0  0  2  0  0  3  0  0  0  0  0  0
  160.4080  200.9160  145.3090 F   0  0  0  0  0  0  0  0  0  0  0  0
  161.8920  203.3300  146.9550 N   0  0  0  0  0  0  0  0  0  0  0  0
  161.7720  202.3250  147.9870 C   0  0  0  0  0  2  0  0  0  0  0  0
  160.9140  203.1040  145.9620 C   0  0  0  0  0  0  0  0  0  0  0  0
  160.7780  200.1500  147.7300 F   0  0  0  0  0  0  0  0  0  0  0  0
  1  8  2  0  0  0  0
  2  3  2  0  0  0  0
  2  1  1  0  0  0  0
  4 13  2  0  0  0  0
  4  3  1  0  0  0  0
  5 11  2  0  0  0  0
  6  3  1  6  0  0  0
  6  5  1  0  0  0  0
  7 11  1  0  0  0  0
  8  5  1  0  0  0  0
  9  6  1  0  0  0  0
  9 12  1  0  0  0  0
 10 12  1  0  0  0  0
 11 43  1  0  0  0  0
 12  7  2  0  0  0  0
 13  9  1  0  0  0  0
 14 15  1  0  0  0  0
 14 17  1  0  0  0  0
 14 19  1  1  0  0  0
 15  7  1  6  0  0  0
 15 16  1  0  0  0  0
 16 18  1  0  0  0  0
 17 18  1  0  0  0  0
 18 31  1  0  0  0  0
 20 17  1  0  0  0  0
 21 29  2  0  0  0  0
 22 23  1  0  0  0  0
 23 20  1  1  0  0  0
 24 30  1  1  0  0  0
 24 25  1  0  0  0  0
 25 29  1  6  0  0  0
 25 22  1  0  0  0  0
 25 23  1  0  0  0  0
 26 24  1  0  0  0  0
 27 21  1  0  0  0  0
 28 27  2  0  0  0  0
 28 26  1  0  0  0  0
 31 32  1  0  0  0  0
 32 34  1  0  0  0  0
 33 34  2  0  0  0  0
 34 36  1  0  0  0  0
 34 35  2  0  0  0  0
 36 39  1  1  0  0  0
 36 38  1  0  0  0  0
 37 38  1  0  0  0  0
 39 42  1  0  0  0  0
 42 41  1  6  0  0  0
 42 40  1  0  0  0  0
 43 44  1  0  0  0  0
 44 45  1  6  0  0  0
 44 46  1  0  0  0  0
 46 47  1  6  0  0  0
 46 48  1  0  0  0  0
 49 48  1  0  0  0  0
 49 50  1  0  0  0  0
 50 51  1  6  0  0  0
 50 52  1  0  0  0  0
 53  2  1  0  0  0  0
 54 61  1  6  0  0  0
 54 59  1  0  0  0  0
 55 60  2  0  0  0  0
 56 57  1  6  0  0  0
 56 54  1  0  0  0  0
 58 53  1  0  0  0  0
 58 59  1  0  0  0  0
 60 56  1  0  0  0  0
 60 58  1  0  0  0  0
M  END
>  <MODEL>
5

>  <REMARK>
 VINA RESULT:      -2.0      4.500     10.672
  Name = 
  18 active torsions:
  status: ('A' for Active; 'I' for Inactive)
    1  A    between atoms: C_2  and  N_9
    2  A    between atoms: C_2  and  C_29
    3  A    between atoms: C_3  and  C_30
    4  A    between atoms: C_3  and  C_58
    5  A    between atoms: C_4  and  C_8
    6  A    between atoms: C_4  and  N_44
    7  A    between atoms: N_9  and  C_51
    8  A    between atoms: C_12  and  S_16
    9  A    between atoms: C_12  and  C_26
   10  A    between atoms: O_13  and  C_15
   11  A    between atoms: C_15  and  S_16
   12  A    between atoms: C_15  and  N_35
   13  A    between atoms: C_18  and  C_19
   14  A    between atoms: C_18  and  N_41
   15  A    between atoms: C_23  and  C_37
   16  A    between atoms: C_26  and  N_45
   17  A    between atoms: C_29  and  C_58
   18  A    between atoms: N_35  and  C_40
                            x       y       z     vdW  Elec       q    Type
                         _______ _______ _______ _____ _____    ______ ____

>  <TORSDO>
F 18

$$$$
=
 OpenBabel11052412013D

 61 67  0  0  1  0  0  0  0  0999 V2000
  161.4610  212.7970  146.1360 C   0  0  0  0  0  3  0  0  0  0  0  0
  160.4020  213.6180  146.2920 C   0  0  0  0  0  0  0  0  0  0  0  0
  159.7480  213.6570  147.6000 C   0  0  0  0  0  0  0  0  0  0  0  0
  158.6480  214.3490  148.1040 C   0  0  0  0  0  3  0  0  0  0  0  0
  161.2420  212.0070  148.5730 C   0  0  0  0  0  0  0  0  0  0  0  0
  160.1830  212.8900  148.6200 C   0  0  0  0  0  0  0  0  0  0  0  0
  160.6830  211.4780  150.9140 C   0  0  0  0  0  0  0  0  0  0  0  0
  162.0110  211.9110  147.2610 C   0  0  0  0  0  2  0  0  0  0  0  0
  159.4170  213.0790  149.6870 N   0  0  0  0  0  0  0  0  0  0  0  0
  158.7680  212.6460  151.9690 N   0  0  0  0  0  1  0  0  0  0  0  0
  161.5080  211.2610  149.7570 C   0  0  0  0  0  0  0  0  0  0  0  0
  159.6200  212.4150  150.8490 C   0  0  0  0  0  0  0  0  0  0  0  0
  158.4730  213.9660  149.4020 N   0  0  0  0  0  0  0  0  0  0  0  0
  162.1170  209.8650  152.2010 C   0  0  2  0  0  3  0  0  0  0  0  0
  160.8960  210.7360  152.2100 C   0  0  2  0  0  3  0  0  0  0  0  0
  159.7880  209.7840  152.5300 C   0  0  0  0  0  2  0  0  0  0  0  0
  161.7980  208.6740  152.9810 N   0  0  0  0  0  0  0  0  0  0  0  0
  160.3940  208.6340  153.1920 N   0  0  0  0  0  0  0  0  0  0  0  0
  163.2810  210.6030  152.8410 C   0  0  0  0  0  1  0  0  0  0  0  0
  162.1460  207.5240  152.1560 C   0  0  0  0  0  2  0  0  0  0  0  0
  161.4070  204.5720  149.3330 C   0  0  0  0  0  3  0  0  0  0  0  0
  162.7620  205.1630  152.6330 C   0  0  0  0  0  2  0  0  0  0  0  0
  161.6930  206.2300  152.8180 C   0  0  2  0  0  3  0  0  0  0  0  0
  160.5260  203.9500  152.2520 C   0  0  1  0  0  3  0  0  0  0  0  0
  161.4820  205.0770  151.8320 C   0  0  2  0  0  0  0  0  0  0  0  0
  161.0800  202.6320  151.7610 C   0  0  0  0  0  2  0  0  0  0  0  0
  160.8310  203.2110  149.3200 C   0  0  0  0  0  3  0  0  0  0  0  0
  160.6580  202.3750  150.3480 C   0  0  0  0  0  3  0  0  0  0  0  0
  161.6830  205.3650  150.3750 C   0  0  0  0  0  3  0  0  0  0  0  0
  160.2770  203.8620  153.7490 C   0  0  0  0  0  1  0  0  0  0  0  0
  160.1720  208.8120  154.6220 C   0  0  0  0  0  2  0  0  0  0  0  0
  159.0840  209.8450  154.8530 C   0  0  0  0  0  2  0  0  0  0  0  0
  160.8000  211.8480  155.3080 O   0  0  0  0  0  0  0  0  0  0  0  0
  159.6830  211.0950  155.9670 S   0  0  0  0  0  0  0  0  0  0  0  0
  160.2000  210.4380  157.2160 O   0  0  0  0  0  0  0  0  0  0  0  0
  158.3400  212.2100  156.3780 C   0  0  1  0  0  3  0  0  0  0  0  0
  158.4360  214.3910  155.9410 C   0  0  0  0  0  1  0  0  0  0  0  0
  158.8350  213.4290  156.8730 O   0  0  0  0  0  0  0  0  0  0  0  0
  157.4320  212.4300  155.2400 N   0  0  0  0  0  2  0  0  0  0  0  0
  155.4030  211.5600  154.4770 O   0  0  0  0  0  1  0  0  0  0  0  0
  155.3610  213.2550  156.0590 N   0  0  0  0  0  1  0  0  0  0  0  0
  156.0600  212.0730  155.5920 C   0  0  2  0  0  3  0  0  0  0  0  0
  162.5720  210.2960  149.8360 N   0  0  0  0  0  2  0  0  0  0  0  0
  162.9300  209.3410  148.8020 C   0  0  2  0  0  3  0  0  0  0  0  0
  163.5350  210.0080  147.7350 O   0  0  0  0  0  1  0  0  0  0  0  0
  161.6960  208.5460  148.3740 C   0  0  2  0  0  3  0  0  0  0  0  0
  161.0980  207.9420  149.4780 O   0  0  0  0  0  1  0  0  0  0  0  0
  161.9400  207.5370  147.2490 C   0  0  0  0  0  2  0  0  0  0  0  0
  160.6460  206.9040  146.7560 C   0  0  0  0  0  2  0  0  0  0  0  0
  160.7870  206.2850  145.3630 C   0  0  1  0  0  3  0  0  0  0  0  0
  161.9340  205.2850  145.2930 C   0  0  0  0  0  1  0  0  0  0  0  0
  159.5880  205.6770  144.9630 O   0  0  0  0  0  1  0  0  0  0  0  0
  159.9020  214.4460  145.1560 C   0  0  0  0  0  2  0  0  0  0  0  0
  161.1220  212.5050  142.1960 C   0  0  2  0  0  3  0  0  0  0  0  0
  158.2330  212.1760  144.2610 O   0  0  0  0  0  0  0  0  0  0  0  0
  159.8000  211.7780  142.4690 C   0  0  2  0  0  3  0  0  0  0  0  0
  158.9410  211.8900  141.3860 F   0  0  0  0  0  0  0  0  0  0  0  0
  159.9800  213.7080  143.9060 N   0  0  0  0  0  0  0  0  0  0  0  0
  161.1090  213.8090  143.0100 C   0  0  0  0  0  2  0  0  0  0  0  0
  159.2480  212.5370  143.6120 C   0  0  0  0  0  0  0  0  0  0  0  0
  161.2910  212.7700  140.8470 F   0  0  0  0  0  0  0  0  0  0  0  0
  1  2  2  0  0  0  0
  1  8  1  0  0  0  0
  2  3  1  0  0  0  0
  3  4  1  0  0  0  0
  3  6  2  0  0  0  0
  4 13  2  0  0  0  0
  5  6  1  0  0  0  0
  5 11  2  0  0  0  0
  6  9  1  0  0  0  0
  8  5  1  0  0  0  0
  9 12  1  0  0  0  0
 11 43  1  0  0  0  0
 11  7  1  0  0  0  0
 12  7  2  0  0  0  0
 12 10  1  0  0  0  0
 13  9  1  0  0  0  0
 14 15  1  0  0  0  0
 14 19  1  1  0  0  0
 14 17  1  0  0  0  0
 15  7  1  6  0  0  0
 15 16  1  0  0  0  0
 16 18  1  0  0  0  0
 17 18  1  0  0  0  0
 18 31  1  0  0  0  0
 20 17  1  0  0  0  0
 21 29  2  0  0  0  0
 22 23  1  0  0  0  0
 23 20  1  6  0  0  0
 24 30  1  1  0  0  0
 25 29  1  6  0  0  0
 25 24  1  0  0  0  0
 25 22  1  0  0  0  0
 25 23  1  0  0  0  0
 26 24  1  0  0  0  0
 27 21  1  0  0  0  0
 27 28  2  0  0  0  0
 28 26  1  0  0  0  0
 31 32  1  0  0  0  0
 32 34  1  0  0  0  0
 33 34  2  0  0  0  0
 34 36  1  0  0  0  0
 34 35  2  0  0  0  0
 36 39  1  6  0  0  0
 36 38  1  0  0  0  0
 37 38  1  0  0  0  0
 39 42  1  0  0  0  0
 42 40  1  6  0  0  0
 42 41  1  0  0  0  0
 44 45  1  6  0  0  0
 44 43  1  0  0  0  0
 46 44  1  0  0  0  0
 46 47  1  1  0  0  0
 48 46  1  0  0  0  0
 49 48  1  0  0  0  0
 50 51  1  1  0  0  0
 50 49  1  0  0  0  0
 52 50  1  0  0  0  0
 53  2  1  0  0  0  0
 54 61  1  6  0  0  0
 54 56  1  0  0  0  0
 54 59  1  0  0  0  0
 56 57  1  6  0  0  0
 56 60  1  0  0  0  0
 58 53  1  0  0  0  0
 59 58  1  0  0  0  0
 60 58  1  0  0  0  0
 60 55  2  0  0  0  0
M  END
>  <MODEL>
6

>  <REMARK>
 VINA RESULT:      -1.6      4.476      9.263
  Name = 
  18 active torsions:
  status: ('A' for Active; 'I' for Inactive)
    1  A    between atoms: C_2  and  N_9
    2  A    between atoms: C_2  and  C_29
    3  A    between atoms: C_3  and  C_30
    4  A    between atoms: C_3  and  C_58
    5  A    between atoms: C_4  and  C_8
    6  A    between atoms: C_4  and  N_44
    7  A    between atoms: N_9  and  C_51
    8  A    between atoms: C_12  and  S_16
    9  A    between atoms: C_12  and  C_26
   10  A    between atoms: O_13  and  C_15
   11  A    between atoms: C_15  and  S_16
   12  A    between atoms: C_15  and  N_35
   13  A    between atoms: C_18  and  C_19
   14  A    between atoms: C_18  and  N_41
   15  A    between atoms: C_23  and  C_37
   16  A    between atoms: C_26  and  N_45
   17  A    between atoms: C_29  and  C_58
   18  A    between atoms: N_35  and  C_40
                            x       y       z     vdW  Elec       q    Type
                         _______ _______ _______ _____ _____    ______ ____

>  <TORSDO>
F 18

$$$$
=
 OpenBabel11052412013D

 61 67  0  0  1  0  0  0  0  0999 V2000
  160.8850  203.7480  149.0790 C   0  0  0  0  0  3  0  0  0  0  0  0
  160.8190  203.1070  150.2630 C   0  0  0  0  0  0  0  0  0  0  0  0
  160.8380  203.9130  151.4850 C   0  0  0  0  0  0  0  0  0  0  0  0
  160.8090  203.6000  152.8430 C   0  0  0  0  0  3  0  0  0  0  0  0
  161.0150  206.0160  150.2830 C   0  0  0  0  0  0  0  0  0  0  0  0
  160.9280  205.2570  151.4310 C   0  0  0  0  0  0  0  0  0  0  0  0
  161.1630  207.9630  151.7860 C   0  0  0  0  0  0  0  0  0  0  0  0
  160.9740  205.2740  148.9520 C   0  0  0  0  0  2  0  0  0  0  0  0
  160.9560  205.7580  152.6600 N   0  0  0  0  0  0  0  0  0  0  0  0
  161.0960  207.5790  154.2340 N   0  0  0  0  0  1  0  0  0  0  0  0
  161.1450  207.4240  150.4530 C   0  0  0  0  0  0  0  0  0  0  0  0
  161.0640  207.0860  152.8960 C   0  0  0  0  0  0  0  0  0  0  0  0
  160.8830  204.7700  153.5420 N   0  0  0  0  0  0  0  0  0  0  0  0
  160.6040  209.8750  153.3200 C   0  0  2  0  0  3  0  0  0  0  0  0
  161.2910  209.4410  152.0590 C   0  0  2  0  0  3  0  0  0  0  0  0
  160.6550  210.2900  151.0040 C   0  0  0  0  0  2  0  0  0  0  0  0
  160.0550  211.2030  153.0740 N   0  0  0  0  0  0  0  0  0  0  0  0
  160.0990  211.4590  151.6780 N   0  0  0  0  0  0  0  0  0  0  0  0
  161.6080  209.9360  154.4590 C   0  0  0  0  0  1  0  0  0  0  0  0
  158.6500  211.1570  153.4620 C   0  0  0  0  0  2  0  0  0  0  0  0
  155.2320  213.4980  153.7100 C   0  0  0  0  0  3  0  0  0  0  0  0
  157.2330  211.0780  155.5030 C   0  0  0  0  0  2  0  0  0  0  0  0
  158.4630  211.7100  154.8680 C   0  0  2  0  0  3  0  0  0  0  0  0
  157.1350  213.5600  156.1710 C   0  0  1  0  0  3  0  0  0  0  0  0
  157.1730  212.5180  155.0430 C   0  0  2  0  0  0  0  0  0  0  0  0
  155.7560  213.5600  156.7900 C   0  0  0  0  0  2  0  0  0  0  0  0
  154.6050  214.3910  154.7070 C   0  0  0  0  0  3  0  0  0  0  0  0
  154.8330  214.4530  156.0220 C   0  0  0  0  0  3  0  0  0  0  0  0
  156.3060  212.7110  153.8360 C   0  0  0  0  0  3  0  0  0  0  0  0
  158.1730  213.3450  157.2610 C   0  0  0  0  0  1  0  0  0  0  0  0
  161.0490  212.5470  151.4730 C   0  0  0  0  0  2  0  0  0  0  0  0
  160.5320  213.4930  150.4050 C   0  0  0  0  0  2  0  0  0  0  0  0
  161.3080  211.5030  148.7930 O   0  0  0  0  0  0  0  0  0  0  0  0
  161.1630  212.9950  148.8180 S   0  0  0  0  0  0  0  0  0  0  0  0
  162.5080  213.6260  148.6020 O   0  0  0  0  0  0  0  0  0  0  0  0
  160.0260  213.5310  147.5390 C   0  0  1  0  0  3  0  0  0  0  0  0
  160.7900  212.3140  145.8370 C   0  0  0  0  0  1  0  0  0  0  0  0
  159.6910  212.4620  146.6890 O   0  0  0  0  0  0  0  0  0  0  0  0
  158.8190  214.1630  148.0960 N   0  0  0  0  0  2  0  0  0  0  0  0
  156.8740  213.4800  146.9970 O   0  0  0  0  0  1  0  0  0  0  0  0
  156.9290  213.4030  149.3150 N   0  0  0  0  0  1  0  0  0  0  0  0
  157.6950  213.2320  148.0940 C   0  0  2  0  0  3  0  0  0  0  0  0
  161.2610  208.3280  149.3400 N   0  0  0  0  0  2  0  0  0  0  0  0
  162.3090  208.3050  148.3350 C   0  0  2  0  0  3  0  0  0  0  0  0
  162.7330  209.6090  148.0680 O   0  0  0  0  0  1  0  0  0  0  0  0
  161.8170  207.5790  147.0820 C   0  0  2  0  0  3  0  0  0  0  0  0
  160.4340  207.6970  146.9630 O   0  0  0  0  0  1  0  0  0  0  0  0
  162.2650  206.1200  146.9680 C   0  0  0  0  0  2  0  0  0  0  0  0
  162.6660  205.7540  145.5460 C   0  0  0  0  0  2  0  0  0  0  0  0
  161.4570  205.5700  144.6230 C   0  0  1  0  0  3  0  0  0  0  0  0
  161.7170  206.1090  143.2230 C   0  0  0  0  0  1  0  0  0  0  0  0
  161.0780  204.2210  144.5600 O   0  0  0  0  0  1  0  0  0  0  0  0
  160.7490  201.6180  150.3250 C   0  0  0  0  0  2  0  0  0  0  0  0
  160.0390  201.1760  146.6750 C   0  0  2  0  0  3  0  0  0  0  0  0
  162.5100  199.7730  148.8300 O   0  0  0  0  0  0  0  0  0  0  0  0
  161.2090  200.2000  146.8430 C   0  0  2  0  0  3  0  0  0  0  0  0
  160.8180  198.9030  146.5440 F   0  0  0  0  0  0  0  0  0  0  0  0
  160.5470  201.0550  149.0000 N   0  0  0  0  0  0  0  0  0  0  0  0
  159.5510  201.5580  148.0820 C   0  0  0  0  0  2  0  0  0  0  0  0
  161.5050  200.3010  148.2880 C   0  0  0  0  0  0  0  0  0  0  0  0
  159.0100  200.6190  145.9330 F   0  0  0  0  0  0  0  0  0  0  0  0
  1  2  2  0  0  0  0
  2 53  1  0  0  0  0
  2  3  1  0  0  0  0
  3  4  1  0  0  0  0
  4 13  2  0  0  0  0
  5 11  2  0  0  0  0
  5  6  1  0  0  0  0
  6  3  2  0  0  0  0
  6  9  1  0  0  0  0
  7 12  2  0  0  0  0
  8  1  1  0  0  0  0
  8  5  1  0  0  0  0
  9 12  1  0  0  0  0
  9 13  1  0  0  0  0
 11  7  1  0  0  0  0
 12 10  1  0  0  0  0
 14 19  1  1  0  0  0
 15  7  1  6  0  0  0
 15 14  1  0  0  0  0
 16 18  1  0  0  0  0
 16 15  1  0  0  0  0
 17 14  1  0  0  0  0
 17 20  1  0  0  0  0
 18 17  1  0  0  0  0
 21 29  2  0  0  0  0
 21 27  1  0  0  0  0
 23 20  1  6  0  0  0
 23 25  1  0  0  0  0
 23 22  1  0  0  0  0
 24 26  1  0  0  0  0
 24 30  1  1  0  0  0
 25 29  1  6  0  0  0
 25 22  1  0  0  0  0
 25 24  1  0  0  0  0
 27 28  2  0  0  0  0
 28 26  1  0  0  0  0
 31 18  1  0  0  0  0
 32 31  1  0  0  0  0
 33 34  2  0  0  0  0
 34 32  1  0  0  0  0
 35 34  2  0  0  0  0
 36 38  1  1  0  0  0
 36 39  1  0  0  0  0
 36 34  1  0  0  0  0
 37 38  1  0  0  0  0
 42 40  1  6  0  0  0
 42 39  1  0  0  0  0
 42 41  1  0  0  0  0
 43 11  1  0  0  0  0
 44 45  1  6  0  0  0
 44 43  1  0  0  0  0
 46 47  1  1  0  0  0
 46 44  1  0  0  0  0
 48 46  1  0  0  0  0
 49 48  1  0  0  0  0
 50 51  1  6  0  0  0
 50 49  1  0  0  0  0
 52 50  1  0  0  0  0
 54 61  1  6  0  0  0
 54 56  1  0  0  0  0
 54 59  1  0  0  0  0
 56 57  1  1  0  0  0
 56 60  1  0  0  0  0
 58 53  1  0  0  0  0
 59 58  1  0  0  0  0
 60 55  2  0  0  0  0
 60 58  1  0  0  0  0
M  END
>  <MODEL>
7

>  <REMARK>
 VINA RESULT:      -1.4      3.976     10.781
  Name = 
  18 active torsions:
  status: ('A' for Active; 'I' for Inactive)
    1  A    between atoms: C_2  and  N_9
    2  A    between atoms: C_2  and  C_29
    3  A    between atoms: C_3  and  C_30
    4  A    between atoms: C_3  and  C_58
    5  A    between atoms: C_4  and  C_8
    6  A    between atoms: C_4  and  N_44
    7  A    between atoms: N_9  and  C_51
    8  A    between atoms: C_12  and  S_16
    9  A    between atoms: C_12  and  C_26
   10  A    between atoms: O_13  and  C_15
   11  A    between atoms: C_15  and  S_16
   12  A    between atoms: C_15  and  N_35
   13  A    between atoms: C_18  and  C_19
   14  A    between atoms: C_18  and  N_41
   15  A    between atoms: C_23  and  C_37
   16  A    between atoms: C_26  and  N_45
   17  A    between atoms: C_29  and  C_58
   18  A    between atoms: N_35  and  C_40
                            x       y       z     vdW  Elec       q    Type
                         _______ _______ _______ _____ _____    ______ ____

>  <TORSDO>
F 18

$$$$
=
 OpenBabel11052412013D

 61 67  0  0  1  0  0  0  0  0999 V2000
  162.5760  205.7400  146.5730 C   0  0  0  0  0  3  0  0  0  0  0  0
  162.1950  204.7670  147.4250 C   0  0  0  0  0  0  0  0  0  0  0  0
  161.7240  205.1610  148.7540 C   0  0  0  0  0  0  0  0  0  0  0  0
  161.2850  204.4480  149.8690 C   0  0  0  0  0  3  0  0  0  0  0  0
  162.0550  207.5320  148.3420 C   0  0  0  0  0  0  0  0  0  0  0  0
  161.6790  206.4580  149.1210 C   0  0  0  0  0  0  0  0  0  0  0  0
  161.4860  208.9260  150.2920 C   0  0  0  0  0  0  0  0  0  0  0  0
  162.5350  207.2320  146.9270 C   0  0  0  0  0  2  0  0  0  0  0  0
  161.2470  206.5590  150.3720 N   0  0  0  0  0  0  0  0  0  0  0  0
  160.6620  207.8120  152.3470 N   0  0  0  0  0  1  0  0  0  0  0  0
  161.9670  208.8210  148.9420 C   0  0  0  0  0  0  0  0  0  0  0  0
  161.1250  207.7510  150.9990 C   0  0  0  0  0  0  0  0  0  0  0  0
  160.9970  205.3480  150.8520 N   0  0  0  0  0  0  0  0  0  0  0  0
  162.5630  210.6100  151.8170 C   0  0  2  0  0  3  0  0  0  0  0  0
  161.3560  210.2510  151.0030 C   0  0  2  0  0  3  0  0  0  0  0  0
  160.2410  210.2730  152.0000 C   0  0  0  0  0  2  0  0  0  0  0  0
  162.0850  211.3020  153.0090 N   0  0  0  0  0  0  0  0  0  0  0  0
  160.6820  211.1110  153.1110 N   0  0  0  0  0  0  0  0  0  0  0  0
  163.4690  211.5300  151.0160 C   0  0  0  0  0  1  0  0  0  0  0  0
  162.6980  210.6410  154.1550 C   0  0  0  0  0  2  0  0  0  0  0  0
  161.0930  206.8390  154.6010 C   0  0  0  0  0  3  0  0  0  0  0  0
  162.3100  209.7130  156.4280 C   0  0  0  0  0  2  0  0  0  0  0  0
  161.7280  210.5870  155.3260 C   0  0  2  0  0  3  0  0  0  0  0  0
  159.8150  209.0930  156.3220 C   0  0  1  0  0  3  0  0  0  0  0  0
  161.1630  209.1880  155.5920 C   0  0  2  0  0  0  0  0  0  0  0  0
  159.8500  207.9080  157.2600 C   0  0  0  0  0  2  0  0  0  0  0  0
  160.0380  206.2020  155.4150 C   0  0  0  0  0  3  0  0  0  0  0  0
  159.4730  206.6530  156.5390 C   0  0  0  0  0  3  0  0  0  0  0  0
  161.5730  208.0870  154.6620 C   0  0  0  0  0  3  0  0  0  0  0  0
  159.4340  210.3400  157.1050 C   0  0  0  0  0  1  0  0  0  0  0  0
  160.0580  212.4160  152.9210 C   0  0  0  0  0  2  0  0  0  0  0  0
  158.5960  212.2430  152.5510 C   0  0  0  0  0  2  0  0  0  0  0  0
  156.4750  213.8610  152.7660 O   0  0  0  0  0  0  0  0  0  0  0  0
  157.5970  213.2910  153.5830 S   0  0  0  0  0  0  0  0  0  0  0  0
  158.4430  214.4140  154.1120 O   0  0  0  0  0  0  0  0  0  0  0  0
  156.9450  212.3260  154.9460 C   0  0  1  0  0  3  0  0  0  0  0  0
  155.8410  213.7580  156.2460 C   0  0  0  0  0  1  0  0  0  0  0  0
  157.0370  213.0400  156.1530 O   0  0  0  0  0  0  0  0  0  0  0  0
  155.5650  211.8770  154.6990 N   0  0  0  0  0  2  0  0  0  0  0  0
  154.5960  210.5810  156.3840 O   0  0  0  0  0  1  0  0  0  0  0  0
  156.6400  209.9210  155.5090 N   0  0  0  0  0  1  0  0  0  0  0  0
  155.3550  210.5290  155.2180 C   0  0  2  0  0  3  0  0  0  0  0  0
  162.3430  210.0220  148.2440 N   0  0  0  0  0  2  0  0  0  0  0  0
  161.5350  211.2230  148.1270 C   0  0  2  0  0  3  0  0  0  0  0  0
  160.4730  210.9920  147.2500 O   0  0  0  0  0  1  0  0  0  0  0  0
  162.4100  212.4000  147.6940 C   0  0  2  0  0  3  0  0  0  0  0  0
  162.3860  213.4060  148.6570 O   0  0  0  0  0  1  0  0  0  0  0  0
  162.0970  212.9540  146.3010 C   0  0  0  0  0  2  0  0  0  0  0  0
  160.6010  213.1180  146.0730 C   0  0  0  0  0  2  0  0  0  0  0  0
  160.2390  213.2110  144.5870 C   0  0  1  0  0  3  0  0  0  0  0  0
  161.2130  212.4350  143.7110 C   0  0  0  0  0  1  0  0  0  0  0  0
  158.9280  212.7660  144.3650 O   0  0  0  0  0  1  0  0  0  0  0  0
  162.2730  203.3310  147.0310 C   0  0  0  0  0  2  0  0  0  0  0  0
  159.8440  202.9030  144.2140 C   0  0  2  0  0  3  0  0  0  0  0  0
  161.0650  200.6530  146.6970 O   0  0  0  0  0  0  0  0  0  0  0  0
  159.7820  201.5040  144.8380 C   0  0  2  0  0  3  0  0  0  0  0  0
  158.5040  201.2210  145.2950 F   0  0  0  0  0  0  0  0  0  0  0  0
  161.1250  202.9540  146.2220 N   0  0  0  0  0  0  0  0  0  0  0  0
  160.5630  203.8230  145.2130 C   0  0  0  0  0  2  0  0  0  0  0  0
  160.6980  201.6280  145.9930 C   0  0  0  0  0  0  0  0  0  0  0  0
  158.5800  203.3880  143.9230 F   0  0  0  0  0  0  0  0  0  0  0  0
  1  8  1  0  0  0  0
  1  2  2  0  0  0  0
  2  3  1  0  0  0  0
  3  6  2  0  0  0  0
  3  4  1  0  0  0  0
  4 13  2  0  0  0  0
  5 11  2  0  0  0  0
  5  6  1  0  0  0  0
  6  9  1  0  0  0  0
  7 12  2  0  0  0  0
  8  5  1  0  0  0  0
  9 13  1  0  0  0  0
  9 12  1  0  0  0  0
 11  7  1  0  0  0  0
 12 10  1  0  0  0  0
 14 19  1  6  0  0  0
 14 17  1  0  0  0  0
 15  7  1  1  0  0  0
 15 14  1  0  0  0  0
 15 16  1  0  0  0  0
 16 18  1  0  0  0  0
 17 18  1  0  0  0  0
 17 20  1  0  0  0  0
 21 29  2  0  0  0  0
 21 27  1  0  0  0  0
 23 20  1  6  0  0  0
 23 25  1  0  0  0  0
 23 22  1  0  0  0  0
 24 30  1  1  0  0  0
 24 26  1  0  0  0  0
 25 29  1  6  0  0  0
 25 24  1  0  0  0  0
 25 22  1  0  0  0  0
 27 28  2  0  0  0  0
 28 26  1  0  0  0  0
 31 18  1  0  0  0  0
 32 31  1  0  0  0  0
 32 34  1  0  0  0  0
 33 34  2  0  0  0  0
 34 35  2  0  0  0  0
 34 36  1  0  0  0  0
 36 39  1  6  0  0  0
 36 38  1  0  0  0  0
 38 37  1  0  0  0  0
 39 42  1  0  0  0  0
 42 41  1  1  0  0  0
 42 40  1  0  0  0  0
 43 11  1  0  0  0  0
 44 45  1  6  0  0  0
 44 43  1  0  0  0  0
 46 44  1  0  0  0  0
 46 47  1  1  0  0  0
 48 46  1  0  0  0  0
 49 48  1  0  0  0  0
 50 51  1  6  0  0  0
 50 49  1  0  0  0  0
 52 50  1  0  0  0  0
 53  2  1  0  0  0  0
 54 61  1  1  0  0  0
 54 56  1  0  0  0  0
 54 59  1  0  0  0  0
 56 57  1  1  0  0  0
 56 60  1  0  0  0  0
 58 53  1  0  0  0  0
 59 58  1  0  0  0  0
 60 58  1  0  0  0  0
 60 55  2  0  0  0  0
M  END
>  <MODEL>
8

>  <REMARK>
 VINA RESULT:      -1.2      3.935     10.532
  Name = 
  18 active torsions:
  status: ('A' for Active; 'I' for Inactive)
    1  A    between atoms: C_2  and  N_9
    2  A    between atoms: C_2  and  C_29
    3  A    between atoms: C_3  and  C_30
    4  A    between atoms: C_3  and  C_58
    5  A    between atoms: C_4  and  C_8
    6  A    between atoms: C_4  and  N_44
    7  A    between atoms: N_9  and  C_51
    8  A    between atoms: C_12  and  S_16
    9  A    between atoms: C_12  and  C_26
   10  A    between atoms: O_13  and  C_15
   11  A    between atoms: C_15  and  S_16
   12  A    between atoms: C_15  and  N_35
   13  A    between atoms: C_18  and  C_19
   14  A    between atoms: C_18  and  N_41
   15  A    between atoms: C_23  and  C_37
   16  A    between atoms: C_26  and  N_45
   17  A    between atoms: C_29  and  C_58
   18  A    between atoms: N_35  and  C_40
                            x       y       z     vdW  Elec       q    Type
                         _______ _______ _______ _____ _____    ______ ____

>  <TORSDO>
F 18

$$$$
