=
 OpenBabel11042420583D

 46 51  0  0  1  0  0  0  0  0999 V2000
  160.3300  212.1970  153.5750 O   0  0  0  0  0  1  0  0  0  0  0  0
  160.6360  210.8500  153.3750 C   0  0  0  0  0  0  0  0  0  0  0  0
  161.5370  206.6630  152.8860 C   0  0  0  0  0  2  0  0  0  0  0  0
  161.0520  210.3790  152.1080 C   0  0  0  0  0  0  0  0  0  0  0  0
  160.5280  209.9590  154.4540 C   0  0  0  0  0  0  0  0  0  0  0  0
  160.4040  206.0390  152.3280 O   0  0  0  0  0  0  0  0  0  0  0  0
  160.9420  206.4410  149.3120 C   0  0  0  0  0  2  0  0  0  0  0  0
  161.3660  209.0150  151.9410 C   0  0  0  0  0  0  0  0  0  0  0  0
  161.7010  205.5330  150.2770 C   0  0  0  0  0  2  0  0  0  0  0  0
  161.7250  208.4760  150.5720 C   0  0  2  0  0  3  0  0  0  0  0  0
  162.2320  209.5180  149.6200 C   0  0  0  0  0  3  0  0  0  0  0  0
  160.5250  207.7600  149.9610 C   0  0  0  0  0  2  0  0  0  0  0  0
  160.8470  208.6040  154.2740 C   0  0  0  0  0  3  0  0  0  0  0  0
  161.9530  210.8160  149.7590 C   0  0  0  0  0  0  0  0  0  0  0  0
  161.2680  208.1300  153.0340 C   0  0  0  0  0  0  0  0  0  0  0  0
  160.7480  212.4570  150.9620 O   0  0  0  0  0  0  0  0  0  0  0  0
  160.8090  205.0260  151.4250 C   0  0  1  0  0  3  0  0  0  0  0  0
  161.2210  211.2910  150.9470 C   0  0  0  0  0  0  0  0  0  0  0  0
  160.0840  210.4370  155.7290 N   0  0  0  0  0  2  0  0  0  0  0  0
  160.8150  210.1880  156.9660 C   0  0  0  0  0  1  0  0  0  0  0  0
  162.4310  211.7700  148.7150 C   0  0  0  0  0  2  0  0  0  0  0  0
  161.2770  212.6250  148.2210 C   0  0  0  0  0  2  0  0  0  0  0  0
  160.9290  212.2230  146.8590 N   0  0  0  0  0  2  0  0  0  0  0  0
  161.8070  213.0440  144.6790 C   0  0  0  0  0  2  0  0  0  0  0  0
  159.8420  211.7430  144.2790 O   0  0  0  0  0  0  0  0  0  0  0  0
  160.8970  212.4050  143.6280 C   0  0  0  0  0  2  0  0  0  0  0  0
  159.6750  213.7590  145.5630 O   0  0  0  0  0  0  0  0  0  0  0  0
  158.9890  212.7430  144.8290 C   0  0  0  0  0  2  0  0  0  0  0  0
  161.5840  214.4530  146.5890 O   0  0  0  0  0  1  0  0  0  0  0  0
  160.9880  213.3740  145.9370 C   0  0  1  0  0  0  0  0  0  0  0  0
  161.4250  203.8240  152.1470 C   0  0  0  0  0  2  0  0  0  0  0  0
  163.3480  201.2030  151.8850 Cl  0  0  0  0  0  0  0  0  0  0  0  0
  162.1070  201.8220  150.7630 C   0  0  2  0  0  3  0  0  0  0  0  0
  160.9690  202.5110  151.5240 C   0  0  2  0  0  3  0  0  0  0  0  0
  159.8180  202.8080  150.6010 C   0  0  0  0  0  3  0  0  0  0  0  0
  159.6580  202.1770  149.4300 C   0  0  0  0  0  3  0  0  0  0  0  0
  161.5910  200.7000  149.9750 N   0  0  0  0  0  2  0  0  0  0  0  0
  160.6520  201.1540  148.9350 C   0  0  2  0  0  3  0  0  0  0  0  0
  161.3190  201.5750  147.6140 C   0  0  1  0  0  3  0  0  0  0  0  0
  160.2190  201.1380  145.4030 O   0  0  0  0  0  0  0  0  0  0  0  0
  161.0090  200.6750  146.4530 C   0  0  0  0  0  0  0  0  0  0  0  0
  161.5080  199.5080  146.4090 O   0  0  0  0  0  1  0  0  0  0  0  0
  160.9810  202.8980  147.3060 O   0  0  0  0  0  0  0  0  0  0  0  0
  161.7610  204.0610  145.3910 C   0  0  0  0  0  2  0  0  0  0  0  0
  161.9790  204.9440  146.6110 C   0  0  0  0  0  2  0  0  0  0  0  0
  162.1370  203.4380  146.7210 C   0  0  0  0  0  3  0  0  0  0  0  0
  2  1  1  0  0  0  0
  2  5  1  0  0  0  0
  3 15  1  0  0  0  0
  4  2  2  0  0  0  0
  5 19  1  0  0  0  0
  6  3  1  0  0  0  0
  7 12  1  0  0  0  0
  7  9  1  0  0  0  0
  8  4  1  0  0  0  0
  8 15  2  0  0  0  0
  9 17  1  0  0  0  0
 10 11  1  6  0  0  0
 10  8  1  0  0  0  0
 11 14  2  0  0  0  0
 12 10  1  0  0  0  0
 13  5  2  0  0  0  0
 14 18  1  0  0  0  0
 15 13  1  0  0  0  0
 17 31  1  1  0  0  0
 17  6  1  0  0  0  0
 18 16  2  0  0  0  0
 18  4  1  0  0  0  0
 19 20  1  0  0  0  0
 21 14  1  0  0  0  0
 22 21  1  0  0  0  0
 23 22  1  0  0  0  0
 24 30  1  0  0  0  0
 25 28  1  0  0  0  0
 26 25  1  0  0  0  0
 26 24  1  0  0  0  0
 27 30  1  0  0  0  0
 28 27  1  0  0  0  0
 30 29  1  1  0  0  0
 30 23  1  0  0  0  0
 33 34  1  0  0  0  0
 33 32  1  1  0  0  0
 34 31  1  6  0  0  0
 35 34  1  0  0  0  0
 36 35  2  0  0  0  0
 37 33  1  0  0  0  0
 38 39  1  6  0  0  0
 38 36  1  0  0  0  0
 38 37  1  0  0  0  0
 39 41  1  6  0  0  0
 40 41  2  0  0  0  0
 42 41  1  0  0  0  0
 43 39  1  0  0  0  0
 44 45  1  0  0  0  0
 44 46  1  0  0  0  0
 45 46  1  0  0  0  0
 46 43  1  0  0  0  0
M  END
>  <MODEL>
1

>  <REMARK>
 VINA RESULT:      -5.3      0.000      0.000
  Name = 
  11 active torsions:
  status: ('A' for Active; 'I' for Inactive)
    1  A    between atoms: N_2  and  C_12
    2  A    between atoms: O_4  and  C_36
    3  A    between atoms: O_4  and  C_46
    4  A    between atoms: C_5  and  C_27
    5  A    between atoms: C_5  and  C_38
    6  A    between atoms: N_15  and  C_38
    7  A    between atoms: N_15  and  C_43
    8  A    between atoms: C_28  and  C_30
    9  A    between atoms: C_30  and  C_33
   10  A    between atoms: C_32  and  C_46
   11  A    between atoms: C_45  and  C_46
                            x       y       z     vdW  Elec       q    Type
                         _______ _______ _______ _____ _____    ______ ____

>  <TORSDO>
F 11

$$$$
=
 OpenBabel11042420583D

 46 51  0  0  1  0  0  0  0  0999 V2000
  162.0150  207.7800  148.5050 O   0  0  0  0  0  1  0  0  0  0  0  0
  161.9000  208.4030  149.7480 C   0  0  0  0  0  0  0  0  0  0  0  0
  161.5360  210.4500  153.5240 C   0  0  0  0  0  2  0  0  0  0  0  0
  161.7970  207.6420  150.9360 C   0  0  0  0  0  0  0  0  0  0  0  0
  161.8910  209.8050  149.8090 C   0  0  0  0  0  0  0  0  0  0  0  0
  160.1710  210.4800  153.8700 O   0  0  0  0  0  0  0  0  0  0  0  0
  159.8910  207.7940  155.3720 C   0  0  0  0  0  2  0  0  0  0  0  0
  161.6950  208.3010  152.1780 C   0  0  0  0  0  0  0  0  0  0  0  0
  160.6440  209.0400  155.8320 C   0  0  0  0  0  2  0  0  0  0  0  0
  161.4930  207.5060  153.4510 C   0  0  2  0  0  3  0  0  0  0  0  0
  161.9460  206.0790  153.3560 C   0  0  0  0  0  3  0  0  0  0  0  0
  160.0270  207.5540  153.8690 C   0  0  0  0  0  2  0  0  0  0  0  0
  161.7920  210.4480  151.0530 C   0  0  0  0  0  3  0  0  0  0  0  0
  162.0550  205.4350  152.1930 C   0  0  0  0  0  0  0  0  0  0  0  0
  161.7000  209.7100  152.2310 C   0  0  0  0  0  0  0  0  0  0  0  0
  161.7070  205.5100  149.8550 O   0  0  0  0  0  0  0  0  0  0  0  0
  160.0280  210.3340  155.2720 C   0  0  1  0  0  3  0  0  0  0  0  0
  161.8450  206.1570  150.9250 C   0  0  0  0  0  0  0  0  0  0  0  0
  161.9720  210.5700  148.6010 N   0  0  0  0  0  2  0  0  0  0  0  0
  162.4820  211.9350  148.5620 C   0  0  0  0  0  1  0  0  0  0  0  0
  162.4330  203.9900  152.2030 C   0  0  0  0  0  2  0  0  0  0  0  0
  161.1970  203.1260  152.0280 C   0  0  0  0  0  2  0  0  0  0  0  0
  161.3430  202.3160  150.8190 N   0  0  0  0  0  2  0  0  0  0  0  0
  160.9490  203.3670  148.5980 C   0  0  0  0  0  2  0  0  0  0  0  0
  161.7100  201.1260  148.2660 O   0  0  0  0  0  0  0  0  0  0  0  0
  161.4010  202.3150  147.5840 C   0  0  0  0  0  2  0  0  0  0  0  0
  159.6310  201.5060  149.3960 O   0  0  0  0  0  0  0  0  0  0  0  0
  160.4820  200.5710  148.7290 C   0  0  0  0  0  2  0  0  0  0  0  0
  159.3930  203.5360  150.3960 O   0  0  0  0  0  1  0  0  0  0  0  0
  160.3210  202.6720  149.8170 C   0  0  1  0  0  0  0  0  0  0  0  0
  160.5040  211.5760  156.0310 C   0  0  0  0  0  2  0  0  0  0  0  0
  157.5050  210.7490  157.0100 Cl  0  0  0  0  0  0  0  0  0  0  0  0
  158.0170  211.9820  155.8260 C   0  0  2  0  0  3  0  0  0  0  0  0
  159.3750  212.5830  156.2080 C   0  0  2  0  0  3  0  0  0  0  0  0
  159.6820  213.7830  155.3530 C   0  0  0  0  0  3  0  0  0  0  0  0
  158.7300  214.4510  154.6890 C   0  0  0  0  0  3  0  0  0  0  0  0
  156.9920  213.0260  155.7680 N   0  0  0  0  0  2  0  0  0  0  0  0
  157.2850  214.0150  154.7170 C   0  0  2  0  0  3  0  0  0  0  0  0
  156.7590  213.6360  153.3210 C   0  0  1  0  0  3  0  0  0  0  0  0
  154.8600  214.2000  151.7830 O   0  0  0  0  0  0  0  0  0  0  0  0
  155.3230  214.0060  153.0830 C   0  0  0  0  0  0  0  0  0  0  0  0
  154.5230  214.0940  154.0650 O   0  0  0  0  0  1  0  0  0  0  0  0
  157.5750  214.1980  152.3320 O   0  0  0  0  0  0  0  0  0  0  0  0
  157.9030  213.5220  150.0820 C   0  0  0  0  0  2  0  0  0  0  0  0
  159.2470  213.4850  150.7950 C   0  0  0  0  0  2  0  0  0  0  0  0
  157.9770  213.1120  151.5390 C   0  0  0  0  0  3  0  0  0  0  0  0
  1  2  1  0  0  0  0
  2  5  2  0  0  0  0
  2  4  1  0  0  0  0
  3  6  1  0  0  0  0
  4  8  2  0  0  0  0
  5 13  1  0  0  0  0
  6 17  1  0  0  0  0
  7  9  1  0  0  0  0
  8 15  1  0  0  0  0
  8 10  1  0  0  0  0
 10 11  1  6  0  0  0
 10 12  1  0  0  0  0
 12  7  1  0  0  0  0
 13 15  2  0  0  0  0
 14 21  1  0  0  0  0
 14 11  2  0  0  0  0
 15  3  1  0  0  0  0
 16 18  2  0  0  0  0
 17  9  1  0  0  0  0
 17 31  1  1  0  0  0
 18  4  1  0  0  0  0
 18 14  1  0  0  0  0
 19  5  1  0  0  0  0
 20 19  1  0  0  0  0
 22 21  1  0  0  0  0
 23 22  1  0  0  0  0
 24 30  1  0  0  0  0
 25 28  1  0  0  0  0
 26 25  1  0  0  0  0
 26 24  1  0  0  0  0
 27 30  1  0  0  0  0
 28 27  1  0  0  0  0
 30 29  1  1  0  0  0
 30 23  1  0  0  0  0
 33 34  1  0  0  0  0
 33 32  1  1  0  0  0
 34 31  1  6  0  0  0
 35 34  1  0  0  0  0
 36 38  1  0  0  0  0
 36 35  2  0  0  0  0
 37 33  1  0  0  0  0
 38 39  1  6  0  0  0
 38 37  1  0  0  0  0
 39 43  1  6  0  0  0
 40 41  2  0  0  0  0
 41 39  1  0  0  0  0
 41 42  1  0  0  0  0
 44 45  1  0  0  0  0
 44 46  1  0  0  0  0
 45 46  1  0  0  0  0
 46 43  1  0  0  0  0
M  END
>  <MODEL>
2

>  <REMARK>
 VINA RESULT:      -5.1      3.376     10.003
  Name = 
  11 active torsions:
  status: ('A' for Active; 'I' for Inactive)
    1  A    between atoms: N_2  and  C_12
    2  A    between atoms: O_4  and  C_36
    3  A    between atoms: O_4  and  C_46
    4  A    between atoms: C_5  and  C_27
    5  A    between atoms: C_5  and  C_38
    6  A    between atoms: N_15  and  C_38
    7  A    between atoms: N_15  and  C_43
    8  A    between atoms: C_28  and  C_30
    9  A    between atoms: C_30  and  C_33
   10  A    between atoms: C_32  and  C_46
   11  A    between atoms: C_45  and  C_46
                            x       y       z     vdW  Elec       q    Type
                         _______ _______ _______ _____ _____    ______ ____

>  <TORSDO>
F 11

$$$$
=
 OpenBabel11042420583D

 46 51  0  0  1  0  0  0  0  0999 V2000
  161.3750  208.6280  147.1750 O   0  0  0  0  0  1  0  0  0  0  0  0
  161.6100  208.7920  148.5400 C   0  0  0  0  0  0  0  0  0  0  0  0
  162.3490  209.4380  152.7380 C   0  0  0  0  0  2  0  0  0  0  0  0
  161.4980  207.7020  149.4350 C   0  0  0  0  0  0  0  0  0  0  0  0
  161.9660  210.0620  149.0230 C   0  0  0  0  0  0  0  0  0  0  0  0
  161.1050  209.6040  153.3760 O   0  0  0  0  0  0  0  0  0  0  0  0
  160.3830  206.6700  154.0200 C   0  0  0  0  0  2  0  0  0  0  0  0
  161.7540  207.8980  150.8070 C   0  0  0  0  0  0  0  0  0  0  0  0
  161.4880  207.5140  154.6520 C   0  0  0  0  0  2  0  0  0  0  0  0
  161.5510  206.7650  151.7920 C   0  0  2  0  0  3  0  0  0  0  0  0
  161.6080  205.4010  151.1710 C   0  0  0  0  0  3  0  0  0  0  0  0
  160.2260  206.9420  152.5250 C   0  0  0  0  0  2  0  0  0  0  0  0
  162.2210  210.2410  150.3910 C   0  0  0  0  0  3  0  0  0  0  0  0
  161.3740  205.1900  149.8750 C   0  0  0  0  0  0  0  0  0  0  0  0
  162.1240  209.1740  151.2800 C   0  0  0  0  0  0  0  0  0  0  0  0
  160.7080  206.1330  147.8100 O   0  0  0  0  0  0  0  0  0  0  0  0
  161.1420  209.0130  154.6630 C   0  0  1  0  0  3  0  0  0  0  0  0
  161.1660  206.3320  148.9660 C   0  0  0  0  0  0  0  0  0  0  0  0
  162.0550  211.1670  148.1160 N   0  0  0  0  0  2  0  0  0  0  0  0
  160.8980  211.9620  147.7210 C   0  0  0  0  0  1  0  0  0  0  0  0
  161.3710  203.7880  149.3630 C   0  0  0  0  0  2  0  0  0  0  0  0
  162.0060  203.7330  147.9850 C   0  0  0  0  0  2  0  0  0  0  0  0
  160.9750  203.9500  146.9700 N   0  0  0  0  0  2  0  0  0  0  0  0
  160.6150  204.0570  144.5100 C   0  0  0  0  0  2  0  0  0  0  0  0
  162.0210  205.8750  145.1640 O   0  0  0  0  0  0  0  0  0  0  0  0
  161.3210  205.3410  144.0690 C   0  0  0  0  0  2  0  0  0  0  0  0
  162.7860  203.6260  145.4780 O   0  0  0  0  0  0  0  0  0  0  0  0
  163.1260  205.0140  145.4220 C   0  0  0  0  0  2  0  0  0  0  0  0
  161.1690  202.0340  145.6420 O   0  0  0  0  0  1  0  0  0  0  0  0
  161.3970  203.4090  145.6640 C   0  0  1  0  0  0  0  0  0  0  0  0
  162.0260  209.8020  155.6330 C   0  0  0  0  0  2  0  0  0  0  0  0
  159.4420  208.6460  157.2530 Cl  0  0  0  0  0  0  0  0  0  0  0  0
  159.7060  210.2560  156.5290 C   0  0  2  0  0  3  0  0  0  0  0  0
  161.1880  210.6490  156.5820 C   0  0  2  0  0  3  0  0  0  0  0  0
  161.3660  212.0930  156.2010 C   0  0  0  0  0  3  0  0  0  0  0  0
  160.3590  212.9750  156.2430 C   0  0  0  0  0  3  0  0  0  0  0  0
  158.8910  211.2320  157.2560 N   0  0  0  0  0  2  0  0  0  0  0  0
  158.9590  212.5650  156.6330 C   0  0  2  0  0  3  0  0  0  0  0  0
  157.9440  212.7910  155.4980 C   0  0  1  0  0  3  0  0  0  0  0  0
  156.0120  213.9410  156.6080 O   0  0  0  0  0  1  0  0  0  0  0  0
  156.5130  212.8200  155.9500 C   0  0  0  0  0  0  0  0  0  0  0  0
  155.7480  211.8400  155.6870 O   0  0  0  0  0  0  0  0  0  0  0  0
  158.2570  213.9640  154.8010 O   0  0  0  0  0  0  0  0  0  0  0  0
  159.4490  212.8510  153.0780 C   0  0  0  0  0  2  0  0  0  0  0  0
  158.1550  212.0920  153.3340 C   0  0  0  0  0  2  0  0  0  0  0  0
  158.1870  213.6060  153.4460 C   0  0  0  0  0  3  0  0  0  0  0  0
  1  2  1  0  0  0  0
  2  5  2  0  0  0  0
  2  4  1  0  0  0  0
  3  6  1  0  0  0  0
  4  8  2  0  0  0  0
  5 13  1  0  0  0  0
  6 17  1  0  0  0  0
  7  9  1  0  0  0  0
  8 15  1  0  0  0  0
  8 10  1  0  0  0  0
  9 17  1  0  0  0  0
 10 11  1  6  0  0  0
 10 12  1  0  0  0  0
 12  7  1  0  0  0  0
 13 15  2  0  0  0  0
 14 11  2  0  0  0  0
 15  3  1  0  0  0  0
 16 18  2  0  0  0  0
 17 31  1  1  0  0  0
 18  4  1  0  0  0  0
 18 14  1  0  0  0  0
 19  5  1  0  0  0  0
 20 19  1  0  0  0  0
 21 14  1  0  0  0  0
 22 21  1  0  0  0  0
 23 22  1  0  0  0  0
 24 30  1  0  0  0  0
 25 28  1  0  0  0  0
 26 24  1  0  0  0  0
 26 25  1  0  0  0  0
 27 30  1  0  0  0  0
 28 27  1  0  0  0  0
 30 29  1  6  0  0  0
 30 23  1  0  0  0  0
 33 34  1  0  0  0  0
 33 32  1  1  0  0  0
 33 37  1  0  0  0  0
 34 31  1  6  0  0  0
 35 36  2  0  0  0  0
 35 34  1  0  0  0  0
 36 38  1  0  0  0  0
 38 39  1  6  0  0  0
 38 37  1  0  0  0  0
 39 43  1  1  0  0  0
 39 41  1  0  0  0  0
 41 40  1  0  0  0  0
 42 41  2  0  0  0  0
 44 45  1  0  0  0  0
 44 46  1  0  0  0  0
 45 46  1  0  0  0  0
 46 43  1  0  0  0  0
M  END
>  <MODEL>
3

>  <REMARK>
 VINA RESULT:      -4.0      2.904      9.337
  Name = 
  11 active torsions:
  status: ('A' for Active; 'I' for Inactive)
    1  A    between atoms: N_2  and  C_12
    2  A    between atoms: O_4  and  C_36
    3  A    between atoms: O_4  and  C_46
    4  A    between atoms: C_5  and  C_27
    5  A    between atoms: C_5  and  C_38
    6  A    between atoms: N_15  and  C_38
    7  A    between atoms: N_15  and  C_43
    8  A    between atoms: C_28  and  C_30
    9  A    between atoms: C_30  and  C_33
   10  A    between atoms: C_32  and  C_46
   11  A    between atoms: C_45  and  C_46
                            x       y       z     vdW  Elec       q    Type
                         _______ _______ _______ _____ _____    ______ ____

>  <TORSDO>
F 11

$$$$
=
 OpenBabel11042420583D

 46 51  0  0  1  0  0  0  0  0999 V2000
  162.3870  211.4570  151.3270 O   0  0  0  0  0  1  0  0  0  0  0  0
  161.9480  210.1450  151.1420 C   0  0  0  0  0  0  0  0  0  0  0  0
  160.6290  206.1020  150.4370 C   0  0  0  0  0  2  0  0  0  0  0  0
  161.5190  209.3600  152.2380 C   0  0  0  0  0  0  0  0  0  0  0  0
  161.9330  209.6080  149.8450 C   0  0  0  0  0  0  0  0  0  0  0  0
  161.7050  205.2400  150.7240 O   0  0  0  0  0  0  0  0  0  0  0  0
  161.2920  204.7790  153.7510 C   0  0  0  0  0  2  0  0  0  0  0  0
  161.0690  208.0430  152.0160 C   0  0  0  0  0  0  0  0  0  0  0  0
  160.4170  204.2710  152.6070 C   0  0  0  0  0  2  0  0  0  0  0  0
  160.6910  207.1580  153.1860 C   0  0  2  0  0  3  0  0  0  0  0  0
  160.3210  207.9130  154.4280 C   0  0  0  0  0  3  0  0  0  0  0  0
  161.8260  206.1860  153.4930 C   0  0  0  0  0  2  0  0  0  0  0  0
  161.4800  208.2950  149.6400 C   0  0  0  0  0  3  0  0  0  0  0  0
  160.7300  209.1630  154.6580 C   0  0  0  0  0  0  0  0  0  0  0  0
  161.0450  207.5160  150.7090 C   0  0  0  0  0  0  0  0  0  0  0  0
  162.0670  210.9690  153.9210 O   0  0  0  0  0  0  0  0  0  0  0  0
  161.2200  204.0470  151.3130 C   0  0  1  0  0  3  0  0  0  0  0  0
  161.4760  209.9000  153.6210 C   0  0  0  0  0  0  0  0  0  0  0  0
  162.3910  210.3990  148.7430 N   0  0  0  0  0  2  0  0  0  0  0  0
  161.5810  211.4440  148.1280 C   0  0  0  0  0  1  0  0  0  0  0  0
  160.3820  209.8050  155.9600 C   0  0  0  0  0  2  0  0  0  0  0  0
  158.9700  210.3620  155.9060 C   0  0  0  0  0  2  0  0  0  0  0  0
  159.0120  211.7340  155.4030 N   0  0  0  0  0  2  0  0  0  0  0  0
  156.6210  211.3300  154.8410 C   0  0  0  0  0  2  0  0  0  0  0  0
  156.7560  213.1660  156.3650 O   0  0  0  0  0  0  0  0  0  0  0  0
  155.8440  212.3180  155.7120 C   0  0  0  0  0  2  0  0  0  0  0  0
  157.7720  213.3570  154.2030 O   0  0  0  0  0  0  0  0  0  0  0  0
  157.3130  214.0290  155.3780 C   0  0  0  0  0  2  0  0  0  0  0  0
  158.3380  211.4000  153.1880 O   0  0  0  0  0  1  0  0  0  0  0  0
  157.9520  211.9640  154.4030 C   0  0  1  0  0  0  0  0  0  0  0  0
  160.4630  203.1740  150.3080 C   0  0  0  0  0  2  0  0  0  0  0  0
  161.7850  205.0080  147.9570 Cl  0  0  0  0  0  0  0  0  0  0  0  0
  161.2000  203.3240  147.8940 C   0  0  2  0  0  3  0  0  0  0  0  0
  161.3990  202.6190  149.2420 C   0  0  2  0  0  3  0  0  0  0  0  0
  161.1360  201.1440  149.1120 C   0  0  0  0  0  3  0  0  0  0  0  0
  161.1590  200.5130  147.9310 C   0  0  0  0  0  3  0  0  0  0  0  0
  161.9250  202.6180  146.8350 N   0  0  0  0  0  2  0  0  0  0  0  0
  161.4050  201.2540  146.6390 C   0  0  2  0  0  3  0  0  0  0  0  0
  160.2120  201.1600  145.6710 C   0  0  1  0  0  3  0  0  0  0  0  0
  160.9900  203.3490  144.7280 O   0  0  0  0  0  1  0  0  0  0  0  0
  159.9770  202.4020  144.8620 C   0  0  0  0  0  0  0  0  0  0  0  0
  158.8700  202.5640  144.2610 O   0  0  0  0  0  0  0  0  0  0  0  0
  160.3630  200.0520  144.8300 O   0  0  0  0  0  0  0  0  0  0  0  0
  160.5970  197.7390  145.3020 C   0  0  0  0  0  2  0  0  0  0  0  0
  161.8700  198.2210  144.6210 C   0  0  0  0  0  2  0  0  0  0  0  0
  161.1210  199.1350  145.5740 C   0  0  0  0  0  3  0  0  0  0  0  0
  2  1  1  0  0  0  0
  2  4  1  0  0  0  0
  3 15  1  0  0  0  0
  3  6  1  0  0  0  0
  4 18  1  0  0  0  0
  5  2  2  0  0  0  0
  6 17  1  0  0  0  0
  8  4  2  0  0  0  0
  8 10  1  0  0  0  0
  9  7  1  0  0  0  0
 10 12  1  1  0  0  0
 10 11  1  0  0  0  0
 11 14  2  0  0  0  0
 12  7  1  0  0  0  0
 13  5  1  0  0  0  0
 13 15  2  0  0  0  0
 14 21  1  0  0  0  0
 15  8  1  0  0  0  0
 17 31  1  6  0  0  0
 17  9  1  0  0  0  0
 18 16  2  0  0  0  0
 18 14  1  0  0  0  0
 19  5  1  0  0  0  0
 20 19  1  0  0  0  0
 22 21  1  0  0  0  0
 23 22  1  0  0  0  0
 24 26  1  0  0  0  0
 26 25  1  0  0  0  0
 27 30  1  0  0  0  0
 27 28  1  0  0  0  0
 28 25  1  0  0  0  0
 30 29  1  6  0  0  0
 30 24  1  0  0  0  0
 30 23  1  0  0  0  0
 33 32  1  1  0  0  0
 33 34  1  0  0  0  0
 34 31  1  1  0  0  0
 35 34  1  0  0  0  0
 36 35  2  0  0  0  0
 37 33  1  0  0  0  0
 38 39  1  1  0  0  0
 38 37  1  0  0  0  0
 38 36  1  0  0  0  0
 39 43  1  6  0  0  0
 40 41  1  0  0  0  0
 41 39  1  0  0  0  0
 42 41  2  0  0  0  0
 43 46  1  0  0  0  0
 44 46  1  0  0  0  0
 45 44  1  0  0  0  0
 45 46  1  0  0  0  0
M  END
>  <MODEL>
4

>  <REMARK>
 VINA RESULT:      -3.9      2.664      5.928
  Name = 
  11 active torsions:
  status: ('A' for Active; 'I' for Inactive)
    1  A    between atoms: N_2  and  C_12
    2  A    between atoms: O_4  and  C_36
    3  A    between atoms: O_4  and  C_46
    4  A    between atoms: C_5  and  C_27
    5  A    between atoms: C_5  and  C_38
    6  A    between atoms: N_15  and  C_38
    7  A    between atoms: N_15  and  C_43
    8  A    between atoms: C_28  and  C_30
    9  A    between atoms: C_30  and  C_33
   10  A    between atoms: C_32  and  C_46
   11  A    between atoms: C_45  and  C_46
                            x       y       z     vdW  Elec       q    Type
                         _______ _______ _______ _____ _____    ______ ____

>  <TORSDO>
F 11

$$$$
=
 OpenBabel11042420583D

 46 51  0  0  1  0  0  0  0  0999 V2000
  161.5100  208.4530  147.5910 O   0  0  0  0  0  1  0  0  0  0  0  0
  161.6920  208.8510  148.9160 C   0  0  0  0  0  0  0  0  0  0  0  0
  162.2550  210.2110  152.9680 C   0  0  0  0  0  2  0  0  0  0  0  0
  161.6680  207.9060  149.9690 C   0  0  0  0  0  0  0  0  0  0  0  0
  161.9050  210.2090  149.1970 C   0  0  0  0  0  0  0  0  0  0  0  0
  160.9850  210.3440  153.5600 O   0  0  0  0  0  0  0  0  0  0  0  0
  160.5470  207.4860  154.6490 C   0  0  0  0  0  2  0  0  0  0  0  0
  161.8680  208.3380  151.2960 C   0  0  0  0  0  0  0  0  0  0  0  0
  161.5450  208.5280  155.1510 C   0  0  0  0  0  2  0  0  0  0  0  0
  161.7560  207.3560  152.4440 C   0  0  2  0  0  3  0  0  0  0  0  0
  161.9660  205.9250  152.0460 C   0  0  0  0  0  3  0  0  0  0  0  0
  160.4010  207.5060  153.1280 C   0  0  0  0  0  2  0  0  0  0  0  0
  162.1060  210.6240  150.5220 C   0  0  0  0  0  3  0  0  0  0  0  0
  161.7880  205.4940  150.7960 C   0  0  0  0  0  0  0  0  0  0  0  0
  162.0950  209.7030  151.5670 C   0  0  0  0  0  0  0  0  0  0  0  0
  161.0830  206.0310  148.6030 O   0  0  0  0  0  0  0  0  0  0  0  0
  161.0490  209.9670  154.9240 C   0  0  1  0  0  3  0  0  0  0  0  0
  161.4880  206.4530  149.7170 C   0  0  0  0  0  0  0  0  0  0  0  0
  161.9050  211.1640  148.1290 N   0  0  0  0  0  2  0  0  0  0  0  0
  162.9350  212.1870  147.9830 C   0  0  0  0  0  1  0  0  0  0  0  0
  161.9400  204.0360  150.5100 C   0  0  0  0  0  2  0  0  0  0  0  0
  160.5750  203.3940  150.3320 C   0  0  0  0  0  2  0  0  0  0  0  0
  160.2890  203.2580  148.9040 N   0  0  0  0  0  2  0  0  0  0  0  0
  160.2960  201.5110  147.1310 C   0  0  0  0  0  2  0  0  0  0  0  0
  160.9840  203.5890  146.1700 O   0  0  0  0  0  0  0  0  0  0  0  0
  160.6500  202.2630  145.8460 C   0  0  0  0  0  2  0  0  0  0  0  0
  162.3210  202.5890  147.8890 O   0  0  0  0  0  0  0  0  0  0  0  0
  162.2410  203.5580  146.8410 C   0  0  0  0  0  2  0  0  0  0  0  0
  161.2420  201.1570  149.2900 O   0  0  0  0  0  1  0  0  0  0  0  0
  161.0470  202.1370  148.3180 C   0  0  1  0  0  0  0  0  0  0  0  0
  161.8230  210.9840  155.7670 C   0  0  0  0  0  2  0  0  0  0  0  0
  159.2480  209.6500  157.2590 Cl  0  0  0  0  0  0  0  0  0  0  0  0
  159.4420  211.2810  156.5620 C   0  0  2  0  0  3  0  0  0  0  0  0
  160.8930  211.7650  156.6850 C   0  0  2  0  0  3  0  0  0  0  0  0
  160.9970  213.2220  156.3250 C   0  0  0  0  0  3  0  0  0  0  0  0
  159.9350  214.0390  156.3300 C   0  0  0  0  0  3  0  0  0  0  0  0
  158.5360  212.1960  157.2600 N   0  0  0  0  0  2  0  0  0  0  0  0
  158.5480  213.5390  156.6530 C   0  0  2  0  0  3  0  0  0  0  0  0
  157.5720  213.7140  155.4760 C   0  0  1  0  0  3  0  0  0  0  0  0
  159.0180  214.4260  153.5560 O   0  0  0  0  0  1  0  0  0  0  0  0
  158.1830  213.4690  154.1280 C   0  0  0  0  0  0  0  0  0  0  0  0
  157.9750  212.3670  153.5320 O   0  0  0  0  0  0  0  0  0  0  0  0
  156.4500  212.8970  155.6580 O   0  0  0  0  0  0  0  0  0  0  0  0
  154.2550  213.5890  156.2330 C   0  0  0  0  0  2  0  0  0  0  0  0
  154.7050  212.5370  157.2370 C   0  0  0  0  0  2  0  0  0  0  0  0
  155.7060  213.5270  156.6670 C   0  0  0  0  0  3  0  0  0  0  0  0
  1  2  1  0  0  0  0
  2  5  2  0  0  0  0
  2  4  1  0  0  0  0
  3  6  1  0  0  0  0
  4  8  2  0  0  0  0
  5 13  1  0  0  0  0
  6 17  1  0  0  0  0
  7  9  1  0  0  0  0
  8 15  1  0  0  0  0
  8 10  1  0  0  0  0
 10 11  1  6  0  0  0
 10 12  1  0  0  0  0
 12  7  1  0  0  0  0
 13 15  2  0  0  0  0
 14 11  2  0  0  0  0
 15  3  1  0  0  0  0
 16 18  2  0  0  0  0
 17  9  1  0  0  0  0
 17 31  1  1  0  0  0
 18  4  1  0  0  0  0
 18 14  1  0  0  0  0
 19  5  1  0  0  0  0
 20 19  1  0  0  0  0
 21 14  1  0  0  0  0
 22 21  1  0  0  0  0
 23 22  1  0  0  0  0
 24 30  1  0  0  0  0
 25 28  1  0  0  0  0
 26 25  1  0  0  0  0
 26 24  1  0  0  0  0
 27 30  1  0  0  0  0
 28 27  1  0  0  0  0
 30 23  1  0  0  0  0
 30 29  1  1  0  0  0
 33 34  1  0  0  0  0
 33 32  1  1  0  0  0
 33 37  1  0  0  0  0
 34 31  1  6  0  0  0
 35 36  2  0  0  0  0
 35 34  1  0  0  0  0
 36 38  1  0  0  0  0
 38 39  1  6  0  0  0
 38 37  1  0  0  0  0
 39 41  1  6  0  0  0
 39 43  1  0  0  0  0
 40 41  1  0  0  0  0
 42 41  2  0  0  0  0
 43 46  1  0  0  0  0
 44 46  1  0  0  0  0
 44 45  1  0  0  0  0
 46 45  1  0  0  0  0
M  END
>  <MODEL>
5

>  <REMARK>
 VINA RESULT:      -3.8      3.186     10.094
  Name = 
  11 active torsions:
  status: ('A' for Active; 'I' for Inactive)
    1  A    between atoms: N_2  and  C_12
    2  A    between atoms: O_4  and  C_36
    3  A    between atoms: O_4  and  C_46
    4  A    between atoms: C_5  and  C_27
    5  A    between atoms: C_5  and  C_38
    6  A    between atoms: N_15  and  C_38
    7  A    between atoms: N_15  and  C_43
    8  A    between atoms: C_28  and  C_30
    9  A    between atoms: C_30  and  C_33
   10  A    between atoms: C_32  and  C_46
   11  A    between atoms: C_45  and  C_46
                            x       y       z     vdW  Elec       q    Type
                         _______ _______ _______ _____ _____    ______ ____

>  <TORSDO>
F 11

$$$$
=
 OpenBabel11042420583D

 46 51  0  0  1  0  0  0  0  0999 V2000
  161.7810  204.2280  147.2080 O   0  0  0  0  0  1  0  0  0  0  0  0
  161.3920  204.5850  148.4990 C   0  0  0  0  0  0  0  0  0  0  0  0
  160.1730  205.5560  152.5190 C   0  0  0  0  0  2  0  0  0  0  0  0
  161.4440  205.9330  148.9280 C   0  0  0  0  0  0  0  0  0  0  0  0
  160.9400  203.5870  149.3760 C   0  0  0  0  0  0  0  0  0  0  0  0
  161.3330  205.6510  153.3120 O   0  0  0  0  0  0  0  0  0  0  0  0
  162.0840  208.6190  152.8920 C   0  0  0  0  0  2  0  0  0  0  0  0
  161.0310  206.2630  150.2350 C   0  0  0  0  0  0  0  0  0  0  0  0
  160.8870  208.0640  153.6610 C   0  0  0  0  0  2  0  0  0  0  0  0
  161.1650  207.6840  150.7420 C   0  0  2  0  0  3  0  0  0  0  0  0
  161.2260  208.7160  149.6540 C   0  0  0  0  0  3  0  0  0  0  0  0
  162.3950  207.8060  151.6360 C   0  0  0  0  0  2  0  0  0  0  0  0
  160.5290  203.9310  150.6730 C   0  0  0  0  0  3  0  0  0  0  0  0
  161.6080  208.4270  148.4090 C   0  0  0  0  0  0  0  0  0  0  0  0
  160.5660  205.2550  151.1040 C   0  0  0  0  0  0  0  0  0  0  0  0
  162.4630  206.7840  146.9380 O   0  0  0  0  0  0  0  0  0  0  0  0
  161.1750  206.6810  154.2710 C   0  0  1  0  0  3  0  0  0  0  0  0
  161.8740  207.0290  148.0230 C   0  0  0  0  0  0  0  0  0  0  0  0
  160.9110  202.2220  148.9440 N   0  0  0  0  0  2  0  0  0  0  0  0
  160.8100  201.1000  149.8720 C   0  0  0  0  0  1  0  0  0  0  0  0
  161.7180  209.5350  147.4150 C   0  0  0  0  0  2  0  0  0  0  0  0
  161.4390  210.8680  148.0860 C   0  0  0  0  0  2  0  0  0  0  0  0
  160.8610  211.7890  147.1070 N   0  0  0  0  0  2  0  0  0  0  0  0
  162.7190  213.2770  146.3800 C   0  0  0  0  0  2  0  0  0  0  0  0
  161.0410  213.2490  144.6780 O   0  0  0  0  0  0  0  0  0  0  0  0
  162.3360  213.7130  144.9640 C   0  0  0  0  0  2  0  0  0  0  0  0
  160.5010  214.1150  146.8470 O   0  0  0  0  0  0  0  0  0  0  0  0
  160.1330  214.0120  145.4690 C   0  0  0  0  0  2  0  0  0  0  0  0
  161.7830  213.3640  148.5700 O   0  0  0  0  0  1  0  0  0  0  0  0
  161.4500  213.1350  147.2360 C   0  0  1  0  0  0  0  0  0  0  0  0
  160.1620  206.3060  155.3570 C   0  0  0  0  0  2  0  0  0  0  0  0
  157.7390  208.4460  155.7870 Cl  0  0  0  0  0  0  0  0  0  0  0  0
  159.4950  208.6500  156.0280 C   0  0  2  0  0  3  0  0  0  0  0  0
  160.1470  207.3370  156.4780 C   0  0  2  0  0  3  0  0  0  0  0  0
  161.5670  207.5730  156.9150 C   0  0  0  0  0  3  0  0  0  0  0  0
  162.0170  208.7860  157.2600 C   0  0  0  0  0  3  0  0  0  0  0  0
  159.7080  209.6970  157.0300 N   0  0  0  0  0  2  0  0  0  0  0  0
  161.1390  210.0110  157.1890 C   0  0  2  0  0  3  0  0  0  0  0  0
  161.6750  211.0620  156.2000 C   0  0  1  0  0  3  0  0  0  0  0  0
  163.9480  211.4310  157.1900 O   0  0  0  0  0  1  0  0  0  0  0  0
  163.1710  211.0920  156.0850 C   0  0  0  0  0  0  0  0  0  0  0  0
  163.7270  210.7610  154.9930 O   0  0  0  0  0  0  0  0  0  0  0  0
  161.0940  210.8750  154.9410 O   0  0  0  0  0  0  0  0  0  0  0  0
  160.0760  212.1900  153.2490 C   0  0  0  0  0  2  0  0  0  0  0  0
  158.9790  211.5960  154.1200 C   0  0  0  0  0  2  0  0  0  0  0  0
  160.3010  212.0150  154.7370 C   0  0  0  0  0  3  0  0  0  0  0  0
  1  2  1  0  0  0  0
  2  4  2  0  0  0  0
  2  5  1  0  0  0  0
  3  6  1  0  0  0  0
  4  8  1  0  0  0  0
  5 13  2  0  0  0  0
  6 17  1  0  0  0  0
  7  9  1  0  0  0  0
  8 10  1  0  0  0  0
  8 15  2  0  0  0  0
  9 17  1  0  0  0  0
 10 11  1  6  0  0  0
 10 12  1  0  0  0  0
 12  7  1  0  0  0  0
 13 15  1  0  0  0  0
 14 11  2  0  0  0  0
 15  3  1  0  0  0  0
 16 18  2  0  0  0  0
 17 31  1  1  0  0  0
 18 14  1  0  0  0  0
 18  4  1  0  0  0  0
 19  5  1  0  0  0  0
 19 20  1  0  0  0  0
 21 22  1  0  0  0  0
 21 14  1  0  0  0  0
 23 30  1  0  0  0  0
 23 22  1  0  0  0  0
 24 30  1  0  0  0  0
 25 26  1  0  0  0  0
 25 28  1  0  0  0  0
 26 24  1  0  0  0  0
 27 30  1  0  0  0  0
 28 27  1  0  0  0  0
 30 29  1  1  0  0  0
 33 32  1  1  0  0  0
 33 34  1  0  0  0  0
 33 37  1  0  0  0  0
 34 31  1  6  0  0  0
 34 35  1  0  0  0  0
 35 36  2  0  0  0  0
 37 38  1  0  0  0  0
 38 39  1  6  0  0  0
 38 36  1  0  0  0  0
 39 43  1  6  0  0  0
 41 39  1  0  0  0  0
 41 40  1  0  0  0  0
 42 41  2  0  0  0  0
 44 45  1  0  0  0  0
 44 46  1  0  0  0  0
 45 46  1  0  0  0  0
 46 43  1  0  0  0  0
M  END
>  <MODEL>
6

>  <REMARK>
 VINA RESULT:      -3.4      2.436      7.799
  Name = 
  11 active torsions:
  status: ('A' for Active; 'I' for Inactive)
    1  A    between atoms: N_2  and  C_12
    2  A    between atoms: O_4  and  C_36
    3  A    between atoms: O_4  and  C_46
    4  A    between atoms: C_5  and  C_27
    5  A    between atoms: C_5  and  C_38
    6  A    between atoms: N_15  and  C_38
    7  A    between atoms: N_15  and  C_43
    8  A    between atoms: C_28  and  C_30
    9  A    between atoms: C_30  and  C_33
   10  A    between atoms: C_32  and  C_46
   11  A    between atoms: C_45  and  C_46
                            x       y       z     vdW  Elec       q    Type
                         _______ _______ _______ _____ _____    ______ ____

>  <TORSDO>
F 11

$$$$
=
 OpenBabel11042420583D

 46 51  0  0  1  0  0  0  0  0999 V2000
  161.3200  201.5930  146.1850 O   0  0  0  0  0  1  0  0  0  0  0  0
  161.1580  202.5670  147.1700 C   0  0  0  0  0  0  0  0  0  0  0  0
  160.6630  205.4800  150.3100 C   0  0  0  0  0  2  0  0  0  0  0  0
  161.1160  203.9410  146.8350 C   0  0  0  0  0  0  0  0  0  0  0  0
  161.0310  202.1680  148.5100 C   0  0  0  0  0  0  0  0  0  0  0  0
  161.9370  205.9830  150.6370 O   0  0  0  0  0  0  0  0  0  0  0  0
  162.1850  208.3040  148.6120 C   0  0  0  0  0  2  0  0  0  0  0  0
  160.9370  204.9010  147.8520 C   0  0  0  0  0  0  0  0  0  0  0  0
  161.2540  208.2220  149.8200 C   0  0  0  0  0  2  0  0  0  0  0  0
  160.9810  206.3790  147.5230 C   0  0  2  0  0  3  0  0  0  0  0  0
  160.6810  206.6940  146.0880 C   0  0  0  0  0  3  0  0  0  0  0  0
  162.3390  206.9580  147.9040 C   0  0  0  0  0  2  0  0  0  0  0  0
  160.8500  203.1350  149.5110 C   0  0  0  0  0  3  0  0  0  0  0  0
  160.8370  205.8010  145.1080 C   0  0  0  0  0  0  0  0  0  0  0  0
  160.7970  204.4890  149.1930 C   0  0  0  0  0  0  0  0  0  0  0  0
  161.5860  203.6390  144.5080 O   0  0  0  0  0  0  0  0  0  0  0  0
  161.8420  207.3610  150.9520 C   0  0  1  0  0  3  0  0  0  0  0  0
  161.2030  204.4090  145.4270 C   0  0  0  0  0  0  0  0  0  0  0  0
  161.0970  200.7780  148.8460 N   0  0  0  0  0  2  0  0  0  0  0  0
  160.4370  200.2150  150.0190 C   0  0  0  0  0  1  0  0  0  0  0  0
  160.5940  206.2300  143.6990 C   0  0  0  0  0  2  0  0  0  0  0  0
  161.8960  206.2200  142.9180 C   0  0  0  0  0  2  0  0  0  0  0  0
  161.6050  206.3840  141.4940 N   0  0  0  0  0  2  0  0  0  0  0  0
  163.1070  206.4360  139.5100 C   0  0  0  0  0  2  0  0  0  0  0  0
  160.9670  207.2930  138.8800 O   0  0  0  0  0  0  0  0  0  0  0  0
  162.2190  206.9200  138.3620 C   0  0  0  0  0  2  0  0  0  0  0  0
  162.2540  208.4510  140.5370 O   0  0  0  0  0  0  0  0  0  0  0  0
  161.1560  208.4940  139.6230 C   0  0  0  0  0  2  0  0  0  0  0  0
  163.7900  207.2040  141.6610 O   0  0  0  0  0  1  0  0  0  0  0  0
  162.6840  207.1280  140.8160 C   0  0  1  0  0  0  0  0  0  0  0  0
  161.1310  207.5990  152.2870 C   0  0  0  0  0  2  0  0  0  0  0  0
  161.5910  207.9000  155.5020 Cl  0  0  0  0  0  0  0  0  0  0  0  0
  160.9650  209.0850  154.3250 C   0  0  2  0  0  3  0  0  0  0  0  0
  161.6060  208.8860  152.9460 C   0  0  2  0  0  3  0  0  0  0  0  0
  161.2650  210.0320  152.0330 C   0  0  0  0  0  3  0  0  0  0  0  0
  160.8450  211.2160  152.4960 C   0  0  0  0  0  3  0  0  0  0  0  0
  161.2420  210.4320  154.8290 N   0  0  0  0  0  2  0  0  0  0  0  0
  160.6400  211.4670  153.9700 C   0  0  2  0  0  3  0  0  0  0  0  0
  159.1780  211.8060  154.3110 C   0  0  1  0  0  3  0  0  0  0  0  0
  159.6940  212.3810  156.6960 O   0  0  0  0  0  1  0  0  0  0  0  0
  158.8590  211.7510  155.7770 C   0  0  0  0  0  0  0  0  0  0  0  0
  157.8010  211.1690  156.1710 O   0  0  0  0  0  0  0  0  0  0  0  0
  158.8430  213.0600  153.7880 O   0  0  0  0  0  0  0  0  0  0  0  0
  156.7120  214.1030  153.8180 C   0  0  0  0  0  2  0  0  0  0  0  0
  157.2040  214.0570  152.3780 C   0  0  0  0  0  2  0  0  0  0  0  0
  157.5230  212.9190  153.3320 C   0  0  0  0  0  3  0  0  0  0  0  0
  1  2  1  0  0  0  0
  2  5  1  0  0  0  0
  3  6  1  0  0  0  0
  4  2  2  0  0  0  0
  4  8  1  0  0  0  0
  5 19  1  0  0  0  0
  5 13  2  0  0  0  0
  6 17  1  0  0  0  0
  7  9  1  0  0  0  0
  8 15  2  0  0  0  0
  9 17  1  0  0  0  0
 10 11  1  6  0  0  0
 10  8  1  0  0  0  0
 10 12  1  0  0  0  0
 12  7  1  0  0  0  0
 14 18  1  0  0  0  0
 14 11  2  0  0  0  0
 15 13  1  0  0  0  0
 15  3  1  0  0  0  0
 16 18  2  0  0  0  0
 17 31  1  1  0  0  0
 18  4  1  0  0  0  0
 19 20  1  0  0  0  0
 21 14  1  0  0  0  0
 22 21  1  0  0  0  0
 23 22  1  0  0  0  0
 24 30  1  0  0  0  0
 25 28  1  0  0  0  0
 26 25  1  0  0  0  0
 26 24  1  0  0  0  0
 27 30  1  0  0  0  0
 28 27  1  0  0  0  0
 30 23  1  0  0  0  0
 30 29  1  1  0  0  0
 33 37  1  0  0  0  0
 33 32  1  1  0  0  0
 34 31  1  6  0  0  0
 34 33  1  0  0  0  0
 35 36  2  0  0  0  0
 35 34  1  0  0  0  0
 36 38  1  0  0  0  0
 38 39  1  6  0  0  0
 38 37  1  0  0  0  0
 39 43  1  1  0  0  0
 39 41  1  0  0  0  0
 41 42  2  0  0  0  0
 41 40  1  0  0  0  0
 45 46  1  0  0  0  0
 45 44  1  0  0  0  0
 46 43  1  0  0  0  0
 46 44  1  0  0  0  0
M  END
>  <MODEL>
7

>  <REMARK>
 VINA RESULT:      -3.3      3.588      9.204
  Name = 
  11 active torsions:
  status: ('A' for Active; 'I' for Inactive)
    1  A    between atoms: N_2  and  C_12
    2  A    between atoms: O_4  and  C_36
    3  A    between atoms: O_4  and  C_46
    4  A    between atoms: C_5  and  C_27
    5  A    between atoms: C_5  and  C_38
    6  A    between atoms: N_15  and  C_38
    7  A    between atoms: N_15  and  C_43
    8  A    between atoms: C_28  and  C_30
    9  A    between atoms: C_30  and  C_33
   10  A    between atoms: C_32  and  C_46
   11  A    between atoms: C_45  and  C_46
                            x       y       z     vdW  Elec       q    Type
                         _______ _______ _______ _____ _____    ______ ____

>  <TORSDO>
F 11

$$$$
=
 OpenBabel11042420583D

 46 51  0  0  1  0  0  0  0  0999 V2000
  162.2880  211.5420  152.7010 O   0  0  0  0  0  1  0  0  0  0  0  0
  161.8760  210.2870  152.2530 C   0  0  0  0  0  0  0  0  0  0  0  0
  160.6440  206.4420  150.7420 C   0  0  0  0  0  2  0  0  0  0  0  0
  161.4180  209.3040  153.1620 C   0  0  0  0  0  0  0  0  0  0  0  0
  161.9170  210.0060  150.8780 C   0  0  0  0  0  0  0  0  0  0  0  0
  161.7210  205.5490  150.9010 O   0  0  0  0  0  0  0  0  0  0  0  0
  161.2040  204.5160  153.7670 C   0  0  0  0  0  2  0  0  0  0  0  0
  160.9970  208.0490  152.6760 C   0  0  0  0  0  0  0  0  0  0  0  0
  160.3790  204.2290  152.5140 C   0  0  0  0  0  2  0  0  0  0  0  0
  160.5890  206.9550  153.6410 C   0  0  2  0  0  3  0  0  0  0  0  0
  160.1620  207.4570  154.9890 C   0  0  0  0  0  3  0  0  0  0  0  0
  161.7270  205.9510  153.8020 C   0  0  0  0  0  2  0  0  0  0  0  0
  161.4920  208.7530  150.4090 C   0  0  0  0  0  3  0  0  0  0  0  0
  160.5440  208.6430  155.4680 C   0  0  0  0  0  0  0  0  0  0  0  0
  161.0290  207.7810  151.2930 C   0  0  0  0  0  0  0  0  0  0  0  0
  161.8800  210.5670  155.1400 O   0  0  0  0  0  0  0  0  0  0  0  0
  161.2330  204.2620  151.2330 C   0  0  1  0  0  3  0  0  0  0  0  0
  161.3160  209.5700  154.6200 C   0  0  0  0  0  0  0  0  0  0  0  0
  162.4040  210.9960  149.9650 N   0  0  0  0  0  2  0  0  0  0  0  0
  161.9420  211.0940  148.5850 C   0  0  0  0  0  1  0  0  0  0  0  0
  160.1390  209.0230  156.8530 C   0  0  0  0  0  2  0  0  0  0  0  0
  159.4360  210.3700  156.8410 C   0  0  0  0  0  2  0  0  0  0  0  0
  158.3770  210.3510  155.8330 N   0  0  0  0  0  2  0  0  0  0  0  0
  158.5870  212.8230  156.0340 C   0  0  0  0  0  2  0  0  0  0  0  0
  159.2070  212.1740  153.8190 O   0  0  0  0  0  0  0  0  0  0  0  0
  159.1640  213.2750  154.6910 C   0  0  0  0  0  2  0  0  0  0  0  0
  156.9670  211.7800  154.5760 O   0  0  0  0  0  0  0  0  0  0  0  0
  157.8630  211.8610  153.4640 C   0  0  0  0  0  2  0  0  0  0  0  0
  156.6860  211.6240  156.8280 O   0  0  0  0  0  1  0  0  0  0  0  0
  157.6430  211.6300  155.8140 C   0  0  1  0  0  0  0  0  0  0  0  0
  160.5270  203.5900  150.0520 C   0  0  0  0  0  2  0  0  0  0  0  0
  162.3310  205.6550  148.2860 Cl  0  0  0  0  0  0  0  0  0  0  0  0
  161.5790  204.1080  147.8120 C   0  0  2  0  0  3  0  0  0  0  0  0
  161.5260  203.1350  148.9960 C   0  0  2  0  0  3  0  0  0  0  0  0
  161.1230  201.7610  148.5350 C   0  0  0  0  0  3  0  0  0  0  0  0
  161.2290  201.3750  147.2560 C   0  0  0  0  0  3  0  0  0  0  0  0
  162.3540  203.5330  146.7110 N   0  0  0  0  0  2  0  0  0  0  0  0
  161.7180  202.3140  146.1800 C   0  0  2  0  0  3  0  0  0  0  0  0
  160.6560  202.5700  145.0960 C   0  0  1  0  0  3  0  0  0  0  0  0
  160.1680  200.2190  144.3740 O   0  0  0  0  0  0  0  0  0  0  0  0
  159.7040  201.4290  144.8860 C   0  0  0  0  0  0  0  0  0  0  0  0
  158.4850  201.5530  145.2210 O   0  0  0  0  0  1  0  0  0  0  0  0
  159.9510  203.7440  145.3840 O   0  0  0  0  0  0  0  0  0  0  0  0
  160.4560  205.9760  144.7590 C   0  0  0  0  0  2  0  0  0  0  0  0
  161.5920  205.0780  144.2930 C   0  0  0  0  0  2  0  0  0  0  0  0
  160.1610  204.5720  144.2710 C   0  0  0  0  0  3  0  0  0  0  0  0
  2  1  1  0  0  0  0
  2  4  1  0  0  0  0
  3  6  1  0  0  0  0
  3 15  1  0  0  0  0
  4 18  1  0  0  0  0
  5  2  2  0  0  0  0
  6 17  1  0  0  0  0
  7 12  1  0  0  0  0
  8  4  2  0  0  0  0
  8 10  1  0  0  0  0
  9  7  1  0  0  0  0
 10 12  1  1  0  0  0
 10 11  1  0  0  0  0
 11 14  2  0  0  0  0
 13  5  1  0  0  0  0
 13 15  2  0  0  0  0
 14 21  1  0  0  0  0
 15  8  1  0  0  0  0
 17 31  1  6  0  0  0
 17  9  1  0  0  0  0
 18 16  2  0  0  0  0
 18 14  1  0  0  0  0
 19  5  1  0  0  0  0
 20 19  1  0  0  0  0
 22 21  1  0  0  0  0
 23 22  1  0  0  0  0
 25 26  1  0  0  0  0
 26 24  1  0  0  0  0
 27 30  1  0  0  0  0
 28 25  1  0  0  0  0
 28 27  1  0  0  0  0
 30 23  1  0  0  0  0
 30 24  1  0  0  0  0
 30 29  1  1  0  0  0
 33 32  1  1  0  0  0
 33 34  1  0  0  0  0
 34 31  1  1  0  0  0
 35 34  1  0  0  0  0
 36 35  2  0  0  0  0
 37 33  1  0  0  0  0
 38 39  1  1  0  0  0
 38 37  1  0  0  0  0
 38 36  1  0  0  0  0
 39 41  1  1  0  0  0
 39 43  1  0  0  0  0
 40 41  2  0  0  0  0
 41 42  1  0  0  0  0
 45 44  1  0  0  0  0
 46 45  1  0  0  0  0
 46 44  1  0  0  0  0
 46 43  1  0  0  0  0
M  END
>  <MODEL>
8

>  <REMARK>
 VINA RESULT:      -3.2      2.962      5.778
  Name = 
  11 active torsions:
  status: ('A' for Active; 'I' for Inactive)
    1  A    between atoms: N_2  and  C_12
    2  A    between atoms: O_4  and  C_36
    3  A    between atoms: O_4  and  C_46
    4  A    between atoms: C_5  and  C_27
    5  A    between atoms: C_5  and  C_38
    6  A    between atoms: N_15  and  C_38
    7  A    between atoms: N_15  and  C_43
    8  A    between atoms: C_28  and  C_30
    9  A    between atoms: C_30  and  C_33
   10  A    between atoms: C_32  and  C_46
   11  A    between atoms: C_45  and  C_46
                            x       y       z     vdW  Elec       q    Type
                         _______ _______ _______ _____ _____    ______ ____

>  <TORSDO>
F 11

$$$$
=
 OpenBabel11042420583D

 46 51  0  0  1  0  0  0  0  0999 V2000
  161.2250  201.5800  146.3700 O   0  0  0  0  0  1  0  0  0  0  0  0
  161.1390  202.5940  147.3240 C   0  0  0  0  0  0  0  0  0  0  0  0
  160.8810  205.6320  150.3720 C   0  0  0  0  0  2  0  0  0  0  0  0
  161.1420  203.9560  146.9410 C   0  0  0  0  0  0  0  0  0  0  0  0
  161.0450  202.2470  148.6810 C   0  0  0  0  0  0  0  0  0  0  0  0
  162.1860  206.0920  150.6360 O   0  0  0  0  0  0  0  0  0  0  0  0
  162.4560  208.3280  148.5200 C   0  0  0  0  0  2  0  0  0  0  0  0
  161.0410  204.9570  147.9280 C   0  0  0  0  0  0  0  0  0  0  0  0
  161.5670  208.3280  149.7620 C   0  0  0  0  0  2  0  0  0  0  0  0
  161.1340  206.4190  147.5450 C   0  0  2  0  0  3  0  0  0  0  0  0
  160.7950  206.6970  146.1100 C   0  0  0  0  0  3  0  0  0  0  0  0
  162.5280  206.9530  147.8570 C   0  0  0  0  0  2  0  0  0  0  0  0
  160.9410  203.2550  149.6520 C   0  0  0  0  0  3  0  0  0  0  0  0
  160.8780  205.7650  145.1590 C   0  0  0  0  0  0  0  0  0  0  0  0
  160.9330  204.5990  149.2870 C   0  0  0  0  0  0  0  0  0  0  0  0
  161.5140  203.5530  144.6120 O   0  0  0  0  0  0  0  0  0  0  0  0
  162.1600  207.4820  150.9040 C   0  0  1  0  0  3  0  0  0  0  0  0
  161.1970  204.3700  145.5150 C   0  0  0  0  0  0  0  0  0  0  0  0
  161.0660  200.8680  149.0650 N   0  0  0  0  0  2  0  0  0  0  0  0
  160.8340  200.4240  150.4350 C   0  0  0  0  0  1  0  0  0  0  0  0
  160.6020  206.1550  143.7440 C   0  0  0  0  0  2  0  0  0  0  0  0
  161.8960  206.1920  142.9500 C   0  0  0  0  0  2  0  0  0  0  0  0
  161.5840  206.3270  141.5280 N   0  0  0  0  0  2  0  0  0  0  0  0
  162.9340  206.3930  139.4380 C   0  0  0  0  0  2  0  0  0  0  0  0
  160.8330  207.4590  139.0340 O   0  0  0  0  0  0  0  0  0  0  0  0
  162.0070  207.0230  138.3960 C   0  0  0  0  0  2  0  0  0  0  0  0
  162.3340  208.3950  140.6500 O   0  0  0  0  0  0  0  0  0  0  0  0
  161.1780  208.5880  139.8310 C   0  0  0  0  0  2  0  0  0  0  0  0
  163.8370  206.9560  141.5710 O   0  0  0  0  0  1  0  0  0  0  0  0
  162.6690  207.0270  140.8130 C   0  0  1  0  0  0  0  0  0  0  0  0
  161.5080  207.7960  152.2530 C   0  0  0  0  0  2  0  0  0  0  0  0
  163.4160  210.4290  152.0040 Cl  0  0  0  0  0  0  0  0  0  0  0  0
  161.9520  210.1730  152.9920 C   0  0  2  0  0  3  0  0  0  0  0  0
  160.9740  209.2220  152.2910 C   0  0  2  0  0  3  0  0  0  0  0  0
  159.6490  209.2060  153.0050 C   0  0  0  0  0  3  0  0  0  0  0  0
  159.2710  210.1860  153.8360 C   0  0  0  0  0  3  0  0  0  0  0  0
  161.3200  211.4720  153.2330 N   0  0  0  0  0  2  0  0  0  0  0  0
  160.1730  211.3550  154.1500 C   0  0  2  0  0  3  0  0  0  0  0  0
  160.5410  211.4290  155.6430 C   0  0  1  0  0  3  0  0  0  0  0  0
  158.4270  212.4030  156.5750 O   0  0  0  0  0  0  0  0  0  0  0  0
  159.8070  212.4930  156.4050 C   0  0  0  0  0  0  0  0  0  0  0  0
  160.4530  213.4500  156.9350 O   0  0  0  0  0  1  0  0  0  0  0  0
  160.3500  210.1800  156.2460 O   0  0  0  0  0  0  0  0  0  0  0  0
  162.2540  208.9130  156.8760 C   0  0  0  0  0  2  0  0  0  0  0  0
  162.7060  210.3290  156.5500 C   0  0  0  0  0  2  0  0  0  0  0  0
  161.3620  210.0900  157.2140 C   0  0  0  0  0  3  0  0  0  0  0  0
  1  2  1  0  0  0  0
  2  5  1  0  0  0  0
  3  6  1  0  0  0  0
  4  2  2  0  0  0  0
  4  8  1  0  0  0  0
  5 19  1  0  0  0  0
  5 13  2  0  0  0  0
  6 17  1  0  0  0  0
  7  9  1  0  0  0  0
  8 15  2  0  0  0  0
  9 17  1  0  0  0  0
 10 11  1  6  0  0  0
 10 12  1  0  0  0  0
 10  8  1  0  0  0  0
 12  7  1  0  0  0  0
 14 18  1  0  0  0  0
 14 11  2  0  0  0  0
 15 13  1  0  0  0  0
 15  3  1  0  0  0  0
 16 18  2  0  0  0  0
 17 31  1  1  0  0  0
 18  4  1  0  0  0  0
 19 20  1  0  0  0  0
 21 14  1  0  0  0  0
 22 21  1  0  0  0  0
 23 22  1  0  0  0  0
 24 30  1  0  0  0  0
 25 28  1  0  0  0  0
 26 25  1  0  0  0  0
 26 24  1  0  0  0  0
 27 30  1  0  0  0  0
 28 27  1  0  0  0  0
 30 23  1  0  0  0  0
 30 29  1  1  0  0  0
 33 32  1  6  0  0  0
 33 37  1  0  0  0  0
 34 31  1  1  0  0  0
 34 33  1  0  0  0  0
 34 35  1  0  0  0  0
 35 36  2  0  0  0  0
 36 38  1  0  0  0  0
 37 38  1  0  0  0  0
 38 39  1  1  0  0  0
 39 43  1  1  0  0  0
 39 41  1  0  0  0  0
 41 40  2  0  0  0  0
 41 42  1  0  0  0  0
 43 46  1  0  0  0  0
 44 46  1  0  0  0  0
 45 44  1  0  0  0  0
 45 46  1  0  0  0  0
M  END
>  <MODEL>
9

>  <REMARK>
 VINA RESULT:      -2.8      3.595      9.233
  Name = 
  11 active torsions:
  status: ('A' for Active; 'I' for Inactive)
    1  A    between atoms: N_2  and  C_12
    2  A    between atoms: O_4  and  C_36
    3  A    between atoms: O_4  and  C_46
    4  A    between atoms: C_5  and  C_27
    5  A    between atoms: C_5  and  C_38
    6  A    between atoms: N_15  and  C_38
    7  A    between atoms: N_15  and  C_43
    8  A    between atoms: C_28  and  C_30
    9  A    between atoms: C_30  and  C_33
   10  A    between atoms: C_32  and  C_46
   11  A    between atoms: C_45  and  C_46
                            x       y       z     vdW  Elec       q    Type
                         _______ _______ _______ _____ _____    ______ ____

>  <TORSDO>
F 11

$$$$
