=
 OpenBabel11042422183D

 52 58  0  0  1  0  0  0  0  0999 V2000
  160.2510  210.0210  154.8500 C   0  0  0  0  0  0  0  0  0  0  0  0
  161.4430  208.2790  150.6870 C   0  0  1  0  0  3  0  0  0  0  0  0
  161.5330  206.1720  149.5300 C   0  0  0  0  0  0  0  0  0  0  0  0
  161.0200  209.3190  155.9390 C   0  0  1  0  0  3  0  0  0  0  0  0
  160.6620  205.4130  150.2140 C   0  0  0  0  0  3  0  0  0  0  0  0
  162.3580  207.2110  150.2240 C   0  0  1  0  0  3  0  0  0  0  0  0
  161.5470  207.4290  153.7290 C   0  0  0  0  0  0  0  0  0  0  0  0
  162.3440  206.3290  153.0640 C   0  0  0  0  0  2  0  0  0  0  0  0
  160.7790  209.9150  157.2500 N   0  0  0  0  0  1  0  0  0  0  0  0
  160.4830  209.6920  153.5670 C   0  0  0  0  0  3  0  0  0  0  0  0
  161.4740  205.1520  152.5940 C   0  0  0  0  0  2  0  0  0  0  0  0
  161.9920  208.8380  151.8560 O   0  0  0  0  0  0  0  0  0  0  0  0
  160.6410  207.9130  155.9800 N   0  0  0  0  0  0  0  0  0  0  0  0
  161.3740  208.6130  153.0820 C   0  0  0  0  0  0  0  0  0  0  0  0
  162.2950  208.4610  149.5890 O   0  0  0  0  0  0  0  0  0  0  0  0
  160.8960  207.0720  155.0150 C   0  0  0  0  0  3  0  0  0  0  0  0
  160.3370  205.5840  151.6640 C   0  0  0  0  0  2  0  0  0  0  0  0
  160.5600  205.6220  145.8460 C   0  0  0  0  0  0  0  0  0  0  0  0
  159.5970  205.9880  145.1520 O   0  0  0  0  0  0  0  0  0  0  0  0
  161.7210  205.9380  148.0900 C   0  0  0  0  0  0  0  0  0  0  0  0
  160.5860  206.0140  147.2160 N   0  0  0  0  0  2  0  0  0  0  0  0
  162.8730  205.6960  147.6310 O   0  0  0  0  0  0  0  0  0  0  0  0
  161.6680  204.8100  145.2340 C   0  0  0  0  0  2  0  0  0  0  0  0
  159.8200  201.6720  145.1870 C   0  0  0  0  0  2  0  0  0  0  0  0
  161.5390  203.3300  145.5330 C   0  0  1  0  0  3  0  0  0  0  0  0
  160.8020  203.1280  146.8520 C   0  0  1  0  0  3  0  0  0  0  0  0
  160.7040  202.6610  144.4640 C   0  0  0  0  0  2  0  0  0  0  0  0
  159.5730  202.2830  146.5550 C   0  0  0  0  0  2  0  0  0  0  0  0
  161.2820  201.0880  147.9850 O   0  0  0  0  0  1  0  0  0  0  0  0
  161.7100  202.4060  147.8270 C   0  0  0  0  0  2  0  0  0  0  0  0
  159.1920  211.0580  155.1690 C   0  0  2  0  0  3  0  0  0  0  0  0
  157.8020  210.5280  154.8390 C   0  0  0  0  0  1  0  0  0  0  0  0
  159.4160  212.2520  154.4710 O   0  0  0  0  0  0  0  0  0  0  0  0
  158.7670  213.2440  152.3640 C   0  0  2  0  0  3  0  0  0  0  0  0
  157.0570  213.6480  155.3160 C   0  0  0  0  0  2  0  0  0  0  0  0
  158.3840  212.3410  153.5370 C   0  0  2  0  0  3  0  0  0  0  0  0
  155.9880  214.4530  154.5990 C   0  0  0  0  0  2  0  0  0  0  0  0
  159.2640  214.4520  152.8130 O   0  0  0  0  0  1  0  0  0  0  0  0
  157.5710  213.4640  151.4630 C   0  0  1  0  0  3  0  0  0  0  0  0
  157.0170  212.6160  154.2060 C   0  0  2  0  0  3  0  0  0  0  0  0
  156.5080  214.2300  152.2170 C   0  0  0  0  0  2  0  0  0  0  0  0
  155.9950  213.4690  153.4420 C   0  0  2  0  0  3  0  0  0  0  0  0
  157.9450  214.2050  150.2600 N   0  0  0  0  0  2  0  0  0  0  0  0
  158.8920  213.3870  149.5130 C   0  0  2  0  0  3  0  0  0  0  0  0
  160.2870  213.9690  149.6550 C   0  0  0  0  0  1  0  0  0  0  0  0
  159.0380  212.6260  145.7960 C   0  0  0  0  0  0  0  0  0  0  0  0
  158.4960  213.2510  148.0650 C   0  0  0  0  0  0  0  0  0  0  0  0
  159.4300  212.7980  147.1230 C   0  0  0  0  0  3  0  0  0  0  0  0
  156.8130  213.3120  146.3850 C   0  0  0  0  0  3  0  0  0  0  0  0
  157.2150  213.4940  147.6680 N   0  0  0  0  0  0  0  0  0  0  0  0
  157.7200  212.8720  145.4220 C   0  0  0  0  0  3  0  0  0  0  0  0
  160.0270  212.1810  144.7870 C   0  0  0  0  0  1  0  0  0  0  0  0
  1 31  1  0  0  0  0
  1  4  1  0  0  0  0
  2 15  1  6  0  0  0
  2 12  1  0  0  0  0
  3  5  2  0  0  0  0
  4 13  1  0  0  0  0
  4  9  1  1  0  0  0
  5 17  1  0  0  0  0
  6  3  1  6  0  0  0
  6  2  1  0  0  0  0
  7 16  1  0  0  0  0
  8  7  1  0  0  0  0
 10  1  2  0  0  0  0
 11  8  1  0  0  0  0
 12 14  1  0  0  0  0
 14 10  1  0  0  0  0
 14  7  2  0  0  0  0
 15  6  1  0  0  0  0
 16 13  2  0  0  0  0
 17 11  1  0  0  0  0
 18 21  1  0  0  0  0
 19 18  2  0  0  0  0
 20  3  1  0  0  0  0
 21 20  1  0  0  0  0
 22 20  2  0  0  0  0
 23 18  1  0  0  0  0
 24 28  1  0  0  0  0
 25 23  1  6  0  0  0
 25 26  1  0  0  0  0
 26 30  1  1  0  0  0
 27 24  1  0  0  0  0
 27 25  1  0  0  0  0
 28 26  1  0  0  0  0
 30 29  1  0  0  0  0
 31 32  1  6  0  0  0
 33 31  1  0  0  0  0
 34 38  1  1  0  0  0
 34 36  1  0  0  0  0
 36 40  1  0  0  0  0
 36 33  1  1  0  0  0
 37 35  1  0  0  0  0
 39 43  1  6  0  0  0
 39 41  1  0  0  0  0
 39 34  1  0  0  0  0
 40 35  1  1  0  0  0
 42 41  1  6  0  0  0
 42 40  1  0  0  0  0
 42 37  1  0  0  0  0
 44 45  1  6  0  0  0
 44 43  1  0  0  0  0
 46 48  1  0  0  0  0
 47 44  1  0  0  0  0
 48 47  2  0  0  0  0
 49 50  2  0  0  0  0
 50 47  1  0  0  0  0
 51 46  2  0  0  0  0
 51 49  1  0  0  0  0
 52 46  1  0  0  0  0
M  END
>  <MODEL>
1

>  <REMARK>
 VINA RESULT:      -6.3      0.000      0.000
  Name = 
  10 active torsions:
  status: ('A' for Active; 'I' for Inactive)
    1  A    between atoms: C_1  and  C_30
    2  A    between atoms: C_6  and  C_30
    3  A    between atoms: C_8  and  C_33
    4  A    between atoms: C_9  and  O_18
    5  A    between atoms: C_10  and  C_16
    6  A    between atoms: C_12  and  C_52
    7  A    between atoms: C_13  and  C_17
    8  A    between atoms: C_16  and  N_48
    9  A    between atoms: O_18  and  C_33
   10  A    between atoms: C_23  and  N_48
                            x       y       z     vdW  Elec       q    Type
                         _______ _______ _______ _____ _____    ______ ____

>  <TORSDO>
F 10

$$$$
=
 OpenBabel11042422183D

 52 58  0  0  1  0  0  0  0  0999 V2000
  161.2730  212.3040  147.5490 C   0  0  0  0  0  0  0  0  0  0  0  0
  161.3010  207.7690  148.6560 C   0  0  1  0  0  3  0  0  0  0  0  0
  161.0380  206.3410  150.5740 C   0  0  0  0  0  0  0  0  0  0  0  0
  162.2830  213.0430  148.3880 C   0  0  1  0  0  3  0  0  0  0  0  0
  160.3580  207.1130  151.4360 C   0  0  0  0  0  3  0  0  0  0  0  0
  162.0390  206.9360  149.6320 C   0  0  1  0  0  3  0  0  0  0  0  0
  162.1730  210.5250  149.9330 C   0  0  0  0  0  0  0  0  0  0  0  0
  162.7440  209.5260  150.9140 C   0  0  0  0  0  2  0  0  0  0  0  0
  162.4040  214.4420  147.9910 N   0  0  0  0  0  1  0  0  0  0  0  0
  161.1560  210.9710  147.6870 C   0  0  0  0  0  3  0  0  0  0  0  0
  161.7550  209.1360  152.0230 C   0  0  0  0  0  2  0  0  0  0  0  0
  162.1470  208.8230  148.2620 O   0  0  0  0  0  0  0  0  0  0  0  0
  161.8940  212.9800  149.7920 N   0  0  0  0  0  0  0  0  0  0  0  0
  161.8650  210.1220  148.6710 C   0  0  0  0  0  0  0  0  0  0  0  0
  161.8420  206.5260  148.3050 O   0  0  0  0  0  0  0  0  0  0  0  0
  161.8710  211.8720  150.4810 C   0  0  0  0  0  3  0  0  0  0  0  0
  160.4260  208.6060  151.4800 C   0  0  0  0  0  2  0  0  0  0  0  0
  161.9030  202.6290  151.1130 C   0  0  0  0  0  0  0  0  0  0  0  0
  162.6690  202.0330  151.8890 O   0  0  0  0  0  0  0  0  0  0  0  0
  160.8400  204.8830  150.5940 C   0  0  0  0  0  0  0  0  0  0  0  0
  161.8460  204.0510  151.1890 N   0  0  0  0  0  2  0  0  0  0  0  0
  159.7870  204.3790  150.1130 O   0  0  0  0  0  0  0  0  0  0  0  0
  161.0520  201.8520  150.1460 C   0  0  0  0  0  2  0  0  0  0  0  0
  161.2970  202.8700  146.6580 C   0  0  0  0  0  2  0  0  0  0  0  0
  161.6740  201.7610  148.7670 C   0  0  1  0  0  3  0  0  0  0  0  0
  160.8470  200.8320  147.8840 C   0  0  1  0  0  3  0  0  0  0  0  0
  161.6540  203.1200  148.1040 C   0  0  0  0  0  2  0  0  0  0  0  0
  160.4060  201.6400  146.6740 C   0  0  0  0  0  2  0  0  0  0  0  0
  161.2860  199.2070  146.1990 O   0  0  0  0  0  1  0  0  0  0  0  0
  161.7060  199.6630  147.4480 C   0  0  0  0  0  2  0  0  0  0  0  0
  160.3570  213.0330  146.5840 C   0  0  2  0  0  3  0  0  0  0  0  0
  159.0370  213.3860  147.2580 C   0  0  0  0  0  1  0  0  0  0  0  0
  160.1080  212.2690  145.4370 O   0  0  0  0  0  0  0  0  0  0  0  0
  159.4940  212.5260  143.1130 C   0  0  2  0  0  3  0  0  0  0  0  0
  162.6060  213.2200  144.3940 C   0  0  0  0  0  2  0  0  0  0  0  0
  160.0300  213.1830  144.3870 C   0  0  2  0  0  3  0  0  0  0  0  0
  163.0660  213.7150  143.0350 C   0  0  0  0  0  2  0  0  0  0  0  0
  160.1790  211.3600  142.8330 O   0  0  0  0  0  1  0  0  0  0  0  0
  159.5890  213.4910  141.9500 C   0  0  1  0  0  3  0  0  0  0  0  0
  161.3240  214.0170  144.2440 C   0  0  2  0  0  3  0  0  0  0  0  0
  161.0430  213.7840  141.6580 C   0  0  0  0  0  2  0  0  0  0  0  0
  161.7540  214.4530  142.8370 C   0  0  2  0  0  3  0  0  0  0  0  0
  158.9540  212.9410  140.7550 N   0  0  0  0  0  2  0  0  0  0  0  0
  159.9090  213.0410  139.6590 C   0  0  2  0  0  3  0  0  0  0  0  0
  159.4900  214.1580  138.7200 C   0  0  0  0  0  1  0  0  0  0  0  0
  160.7860  209.4300  138.8810 C   0  0  0  0  0  0  0  0  0  0  0  0
  160.0610  211.7330  138.9260 C   0  0  0  0  0  0  0  0  0  0  0  0
  160.6980  210.6500  139.5490 C   0  0  0  0  0  3  0  0  0  0  0  0
  159.5820  210.3770  137.0310 C   0  0  0  0  0  3  0  0  0  0  0  0
  159.5210  211.5640  137.6850 N   0  0  0  0  0  0  0  0  0  0  0  0
  160.2160  209.2830  137.6180 C   0  0  0  0  0  3  0  0  0  0  0  0
  161.4870  208.2900  139.5160 C   0  0  0  0  0  1  0  0  0  0  0  0
  1 10  2  0  0  0  0
  1  4  1  0  0  0  0
  2 12  1  6  0  0  0
  2  6  1  0  0  0  0
  3 20  1  0  0  0  0
  3  5  2  0  0  0  0
  4  9  1  6  0  0  0
  4 13  1  0  0  0  0
  5 17  1  0  0  0  0
  6 15  1  6  0  0  0
  6  3  1  0  0  0  0
  7 16  1  0  0  0  0
  7  8  1  0  0  0  0
  8 11  1  0  0  0  0
 10 14  1  0  0  0  0
 12 14  1  0  0  0  0
 13 16  2  0  0  0  0
 14  7  2  0  0  0  0
 15  2  1  0  0  0  0
 17 11  1  0  0  0  0
 18 21  1  0  0  0  0
 18 19  2  0  0  0  0
 20 21  1  0  0  0  0
 22 20  2  0  0  0  0
 23 18  1  0  0  0  0
 24 28  1  0  0  0  0
 24 27  1  0  0  0  0
 25 23  1  1  0  0  0
 26 30  1  6  0  0  0
 26 25  1  0  0  0  0
 27 25  1  0  0  0  0
 28 26  1  0  0  0  0
 29 30  1  0  0  0  0
 31 32  1  1  0  0  0
 31  1  1  0  0  0  0
 33 31  1  0  0  0  0
 34 38  1  6  0  0  0
 34 36  1  0  0  0  0
 36 33  1  1  0  0  0
 37 35  1  0  0  0  0
 39 43  1  6  0  0  0
 39 34  1  0  0  0  0
 40 36  1  0  0  0  0
 40 35  1  6  0  0  0
 41 39  1  0  0  0  0
 42 41  1  6  0  0  0
 42 37  1  0  0  0  0
 42 40  1  0  0  0  0
 44 45  1  6  0  0  0
 44 43  1  0  0  0  0
 46 52  1  0  0  0  0
 46 48  1  0  0  0  0
 47 48  2  0  0  0  0
 47 44  1  0  0  0  0
 49 51  1  0  0  0  0
 49 50  2  0  0  0  0
 50 47  1  0  0  0  0
 51 46  2  0  0  0  0
M  END
>  <MODEL>
2

>  <REMARK>
 VINA RESULT:      -5.9      4.010      7.531
  Name = 
  10 active torsions:
  status: ('A' for Active; 'I' for Inactive)
    1  A    between atoms: C_1  and  C_30
    2  A    between atoms: C_6  and  C_30
    3  A    between atoms: C_8  and  C_33
    4  A    between atoms: C_9  and  O_18
    5  A    between atoms: C_10  and  C_16
    6  A    between atoms: C_12  and  C_52
    7  A    between atoms: C_13  and  C_17
    8  A    between atoms: C_16  and  N_48
    9  A    between atoms: O_18  and  C_33
   10  A    between atoms: C_23  and  N_48
                            x       y       z     vdW  Elec       q    Type
                         _______ _______ _______ _____ _____    ______ ____

>  <TORSDO>
F 10

$$$$
=
 OpenBabel11042422183D

 52 58  0  0  1  0  0  0  0  0999 V2000
  159.3320  209.8440  154.9630 C   0  0  0  0  0  0  0  0  0  0  0  0
  160.7260  207.5900  151.1200 C   0  0  1  0  0  3  0  0  0  0  0  0
  161.3260  205.3740  150.4020 C   0  0  0  0  0  0  0  0  0  0  0  0
  160.3230  209.6220  156.0760 C   0  0  1  0  0  3  0  0  0  0  0  0
  160.7360  204.5880  151.3160 C   0  0  0  0  0  3  0  0  0  0  0  0
  161.8710  206.7170  150.7780 C   0  0  1  0  0  3  0  0  0  0  0  0
  161.2260  207.4890  154.2390 C   0  0  0  0  0  0  0  0  0  0  0  0
  162.2560  206.5110  153.7200 C   0  0  0  0  0  2  0  0  0  0  0  0
  160.0000  210.4100  157.2610 N   0  0  0  0  0  1  0  0  0  0  0  0
  159.5750  209.3100  153.7520 C   0  0  0  0  0  3  0  0  0  0  0  0
  161.7180  205.0770  153.5940 C   0  0  0  0  0  2  0  0  0  0  0  0
  161.1630  208.5150  152.0860 O   0  0  0  0  0  0  0  0  0  0  0  0
  160.3470  208.2100  156.4370 N   0  0  0  0  0  0  0  0  0  0  0  0
  160.7000  208.4150  153.3940 C   0  0  0  0  0  0  0  0  0  0  0  0
  161.4330  207.7360  149.9200 O   0  0  0  0  0  0  0  0  0  0  0  0
  160.7700  207.2710  155.6360 C   0  0  0  0  0  3  0  0  0  0  0  0
  160.4570  204.9860  152.7300 C   0  0  0  0  0  2  0  0  0  0  0  0
  161.3090  202.8700  147.4780 C   0  0  0  0  0  0  0  0  0  0  0  0
  160.6420  201.8510  147.2280 O   0  0  0  0  0  0  0  0  0  0  0  0
  161.4920  204.8830  149.0240 C   0  0  0  0  0  0  0  0  0  0  0  0
  161.0440  203.5610  148.6960 N   0  0  0  0  0  2  0  0  0  0  0  0
  162.0040  205.6290  148.1430 O   0  0  0  0  0  0  0  0  0  0  0  0
  162.3430  203.3560  146.5000 C   0  0  0  0  0  2  0  0  0  0  0  0
  161.2620  206.0720  144.3270 C   0  0  0  0  0  2  0  0  0  0  0  0
  161.7290  203.8780  145.2160 C   0  0  1  0  0  3  0  0  0  0  0  0
  160.2470  204.1700  145.4290 C   0  0  1  0  0  3  0  0  0  0  0  0
  162.3780  205.1880  144.8320 C   0  0  0  0  0  2  0  0  0  0  0  0
  160.0290  205.6390  145.1020 C   0  0  0  0  0  2  0  0  0  0  0  0
  159.9240  201.9960  144.5120 O   0  0  0  0  0  1  0  0  0  0  0  0
  159.4280  203.2990  144.4990 C   0  0  0  0  0  2  0  0  0  0  0  0
  158.0490  210.6200  155.1860 C   0  0  2  0  0  3  0  0  0  0  0  0
  156.9330  210.0820  154.2990 C   0  0  0  0  0  1  0  0  0  0  0  0
  158.2250  211.9870  154.9400 O   0  0  0  0  0  0  0  0  0  0  0  0
  158.2960  213.2220  152.8630 C   0  0  2  0  0  3  0  0  0  0  0  0
  155.8010  213.4970  155.2090 C   0  0  0  0  0  2  0  0  0  0  0  0
  157.5290  212.2500  153.7610 C   0  0  2  0  0  3  0  0  0  0  0  0
  155.0430  214.4530  154.3060 C   0  0  0  0  0  2  0  0  0  0  0  0
  158.7000  214.3360  153.5720 O   0  0  0  0  0  1  0  0  0  0  0  0
  157.4400  213.6260  151.6810 C   0  0  1  0  0  3  0  0  0  0  0  0
  156.0410  212.5790  154.0260 C   0  0  2  0  0  3  0  0  0  0  0  0
  156.2430  214.4080  152.1720 C   0  0  0  0  0  2  0  0  0  0  0  0
  155.3450  213.5840  153.0980 C   0  0  2  0  0  3  0  0  0  0  0  0
  158.1980  214.4400  150.7340 N   0  0  0  0  0  2  0  0  0  0  0  0
  157.6670  214.1790  149.4020 C   0  0  2  0  0  3  0  0  0  0  0  0
  156.8150  212.9230  149.4320 C   0  0  0  0  0  1  0  0  0  0  0  0
  159.4570  213.7640  146.0800 C   0  0  0  0  0  0  0  0  0  0  0  0
  158.7610  214.0780  148.3710 C   0  0  0  0  0  0  0  0  0  0  0  0
  158.4410  213.8030  147.0340 C   0  0  0  0  0  3  0  0  0  0  0  0
  161.0560  214.3080  147.7870 C   0  0  0  0  0  3  0  0  0  0  0  0
  160.0600  214.3230  148.7080 N   0  0  0  0  0  0  0  0  0  0  0  0
  160.7730  214.0290  146.4510 C   0  0  0  0  0  3  0  0  0  0  0  0
  159.1330  213.4410  144.6710 C   0  0  0  0  0  1  0  0  0  0  0  0
  1 31  1  0  0  0  0
  1  4  1  0  0  0  0
  2 15  1  6  0  0  0
  2 12  1  0  0  0  0
  3  6  1  0  0  0  0
  3  5  2  0  0  0  0
  4 13  1  0  0  0  0
  4  9  1  1  0  0  0
  5 17  1  0  0  0  0
  6 15  1  6  0  0  0
  6  2  1  0  0  0  0
  7 16  1  0  0  0  0
  8  7  1  0  0  0  0
 10  1  2  0  0  0  0
 11  8  1  0  0  0  0
 12 14  1  0  0  0  0
 14 10  1  0  0  0  0
 14  7  2  0  0  0  0
 16 13  2  0  0  0  0
 17 11  1  0  0  0  0
 18 21  1  0  0  0  0
 19 18  2  0  0  0  0
 20  3  1  0  0  0  0
 21 20  1  0  0  0  0
 22 20  2  0  0  0  0
 23 18  1  0  0  0  0
 24 27  1  0  0  0  0
 24 28  1  0  0  0  0
 25 26  1  0  0  0  0
 25 23  1  1  0  0  0
 26 30  1  6  0  0  0
 27 25  1  0  0  0  0
 28 26  1  0  0  0  0
 30 29  1  0  0  0  0
 31 32  1  6  0  0  0
 33 31  1  0  0  0  0
 34 38  1  1  0  0  0
 34 36  1  0  0  0  0
 36 40  1  0  0  0  0
 36 33  1  1  0  0  0
 37 35  1  0  0  0  0
 39 43  1  6  0  0  0
 39 41  1  0  0  0  0
 39 34  1  0  0  0  0
 40 35  1  1  0  0  0
 42 41  1  6  0  0  0
 42 40  1  0  0  0  0
 42 37  1  0  0  0  0
 44 45  1  1  0  0  0
 44 43  1  0  0  0  0
 46 51  2  0  0  0  0
 46 48  1  0  0  0  0
 47 50  1  0  0  0  0
 47 44  1  0  0  0  0
 48 47  2  0  0  0  0
 49 50  2  0  0  0  0
 51 49  1  0  0  0  0
 52 46  1  0  0  0  0
M  END
>  <MODEL>
3

>  <REMARK>
 VINA RESULT:      -5.3      1.339      2.063
  Name = 
  10 active torsions:
  status: ('A' for Active; 'I' for Inactive)
    1  A    between atoms: C_1  and  C_30
    2  A    between atoms: C_6  and  C_30
    3  A    between atoms: C_8  and  C_33
    4  A    between atoms: C_9  and  O_18
    5  A    between atoms: C_10  and  C_16
    6  A    between atoms: C_12  and  C_52
    7  A    between atoms: C_13  and  C_17
    8  A    between atoms: C_16  and  N_48
    9  A    between atoms: O_18  and  C_33
   10  A    between atoms: C_23  and  N_48
                            x       y       z     vdW  Elec       q    Type
                         _______ _______ _______ _____ _____    ______ ____

>  <TORSDO>
F 10

$$$$
=
 OpenBabel11042422183D

 52 58  0  0  1  0  0  0  0  0999 V2000
  160.3000  211.5610  154.1420 C   0  0  0  0  0  0  0  0  0  0  0  0
  161.5150  208.6590  150.6930 C   0  0  1  0  0  3  0  0  0  0  0  0
  161.5990  206.3030  150.2140 C   0  0  0  0  0  0  0  0  0  0  0  0
  161.0560  211.2100  155.3980 C   0  0  1  0  0  3  0  0  0  0  0  0
  160.7170  205.7850  151.0820 C   0  0  0  0  0  3  0  0  0  0  0  0
  162.4260  207.4980  150.5770 C   0  0  1  0  0  3  0  0  0  0  0  0
  161.5870  208.7470  153.8520 C   0  0  0  0  0  0  0  0  0  0  0  0
  162.3810  207.4960  153.5510 C   0  0  0  0  0  2  0  0  0  0  0  0
  160.8070  212.1670  156.4710 N   0  0  0  0  0  1  0  0  0  0  0  0
  160.5410  210.8660  153.0160 C   0  0  0  0  0  3  0  0  0  0  0  0
  161.5060  206.2370  153.4410 C   0  0  0  0  0  2  0  0  0  0  0  0
  162.0580  209.5370  151.6500 O   0  0  0  0  0  0  0  0  0  0  0  0
  160.6650  209.8800  155.8490 N   0  0  0  0  0  0  0  0  0  0  0  0
  161.4280  209.6870  152.8820 C   0  0  0  0  0  0  0  0  0  0  0  0
  162.3780  208.5040  149.6000 O   0  0  0  0  0  0  0  0  0  0  0  0
  160.9220  208.7900  155.1790 C   0  0  0  0  0  3  0  0  0  0  0  0
  160.3810  206.3790  152.4130 C   0  0  0  0  0  2  0  0  0  0  0  0
  160.8240  205.2630  146.5890 C   0  0  0  0  0  0  0  0  0  0  0  0
  160.1820  205.7920  145.6660 O   0  0  0  0  0  0  0  0  0  0  0  0
  161.7980  205.6530  148.9090 C   0  0  0  0  0  0  0  0  0  0  0  0
  160.8920  205.9490  147.8370 N   0  0  0  0  0  2  0  0  0  0  0  0
  162.7670  204.8620  148.7350 O   0  0  0  0  0  0  0  0  0  0  0  0
  161.5220  203.9480  146.3690 C   0  0  0  0  0  2  0  0  0  0  0  0
  160.9310  200.6590  147.8190 C   0  0  0  0  0  2  0  0  0  0  0  0
  160.6300  202.7600  146.6690 C   0  0  1  0  0  3  0  0  0  0  0  0
  160.8420  201.6720  145.6220 C   0  0  1  0  0  3  0  0  0  0  0  0
  161.0110  202.1570  148.0030 C   0  0  0  0  0  2  0  0  0  0  0  0
  161.2820  200.4180  146.3610 C   0  0  0  0  0  2  0  0  0  0  0  0
  159.1670  202.5600  144.1800 O   0  0  0  0  0  1  0  0  0  0  0  0
  159.5380  201.4200  144.8930 C   0  0  0  0  0  2  0  0  0  0  0  0
  159.2470  212.6510  154.1290 C   0  0  2  0  0  3  0  0  0  0  0  0
  157.8540  212.0510  153.9840 C   0  0  0  0  0  1  0  0  0  0  0  0
  159.4710  213.5690  153.0950 O   0  0  0  0  0  0  0  0  0  0  0  0
  160.3800  213.1030  150.9040 C   0  0  2  0  0  3  0  0  0  0  0  0
  157.2740  214.4530  151.4770 C   0  0  0  0  0  2  0  0  0  0  0  0
  159.2540  212.8650  151.9120 C   0  0  2  0  0  3  0  0  0  0  0  0
  156.9770  214.4270  149.9880 C   0  0  0  0  0  2  0  0  0  0  0  0
  160.6290  214.4520  150.7510 O   0  0  0  0  0  1  0  0  0  0  0  0
  160.0300  212.4730  149.5730 C   0  0  1  0  0  3  0  0  0  0  0  0
  157.8100  213.0370  151.3890 C   0  0  2  0  0  3  0  0  0  0  0  0
  158.8260  213.1730  148.9870 C   0  0  0  0  0  2  0  0  0  0  0  0
  157.5830  213.0400  149.8710 C   0  0  2  0  0  3  0  0  0  0  0  0
  161.1480  212.5610  148.6370 N   0  0  0  0  0  2  0  0  0  0  0  0
  160.7860  211.8090  147.4420 C   0  0  2  0  0  3  0  0  0  0  0  0
  161.5490  210.4960  147.4180 C   0  0  0  0  0  1  0  0  0  0  0  0
  160.2030  213.5320  144.1100 C   0  0  0  0  0  0  0  0  0  0  0  0
  161.0210  212.6060  146.1840 C   0  0  0  0  0  0  0  0  0  0  0  0
  159.9910  212.7500  145.2440 C   0  0  0  0  0  3  0  0  0  0  0  0
  162.4180  214.0330  144.8920 C   0  0  0  0  0  3  0  0  0  0  0  0
  162.2040  213.2520  145.9800 N   0  0  0  0  0  0  0  0  0  0  0  0
  161.4180  214.1890  143.9330 C   0  0  0  0  0  3  0  0  0  0  0  0
  159.1330  213.6630  143.0940 C   0  0  0  0  0  1  0  0  0  0  0  0
  1  4  1  0  0  0  0
  2 15  1  6  0  0  0
  2 12  1  0  0  0  0
  3  6  1  0  0  0  0
  3  5  2  0  0  0  0
  4 13  1  0  0  0  0
  4  9  1  1  0  0  0
  5 17  1  0  0  0  0
  6 15  1  6  0  0  0
  6  2  1  0  0  0  0
  7 16  1  0  0  0  0
  8  7  1  0  0  0  0
 10  1  2  0  0  0  0
 11  8  1  0  0  0  0
 12 14  1  0  0  0  0
 14 10  1  0  0  0  0
 14  7  2  0  0  0  0
 16 13  2  0  0  0  0
 17 11  1  0  0  0  0
 18 21  1  0  0  0  0
 19 18  2  0  0  0  0
 20  3  1  0  0  0  0
 21 20  1  0  0  0  0
 22 20  2  0  0  0  0
 23 18  1  0  0  0  0
 24 27  1  0  0  0  0
 25 23  1  6  0  0  0
 25 27  1  0  0  0  0
 26 30  1  1  0  0  0
 26 28  1  0  0  0  0
 26 25  1  0  0  0  0
 28 24  1  0  0  0  0
 29 30  1  0  0  0  0
 31 32  1  6  0  0  0
 31  1  1  0  0  0  0
 33 31  1  0  0  0  0
 34 38  1  6  0  0  0
 34 36  1  0  0  0  0
 36 33  1  1  0  0  0
 37 35  1  0  0  0  0
 39 43  1  6  0  0  0
 39 34  1  0  0  0  0
 40 35  1  6  0  0  0
 40 36  1  0  0  0  0
 41 39  1  0  0  0  0
 42 41  1  6  0  0  0
 42 37  1  0  0  0  0
 42 40  1  0  0  0  0
 44 45  1  6  0  0  0
 44 43  1  0  0  0  0
 46 48  1  0  0  0  0
 47 44  1  0  0  0  0
 48 47  2  0  0  0  0
 49 50  2  0  0  0  0
 50 47  1  0  0  0  0
 51 46  2  0  0  0  0
 51 49  1  0  0  0  0
 52 46  1  0  0  0  0
M  END
>  <MODEL>
4

>  <REMARK>
 VINA RESULT:      -4.9      1.731      2.671
  Name = 
  10 active torsions:
  status: ('A' for Active; 'I' for Inactive)
    1  A    between atoms: C_1  and  C_30
    2  A    between atoms: C_6  and  C_30
    3  A    between atoms: C_8  and  C_33
    4  A    between atoms: C_9  and  O_18
    5  A    between atoms: C_10  and  C_16
    6  A    between atoms: C_12  and  C_52
    7  A    between atoms: C_13  and  C_17
    8  A    between atoms: C_16  and  N_48
    9  A    between atoms: O_18  and  C_33
   10  A    between atoms: C_23  and  N_48
                            x       y       z     vdW  Elec       q    Type
                         _______ _______ _______ _____ _____    ______ ____

>  <TORSDO>
F 10

$$$$
=
 OpenBabel11042422183D

 52 58  0  0  1  0  0  0  0  0999 V2000
  161.3650  211.9490  148.0460 C   0  0  0  0  0  0  0  0  0  0  0  0
  161.8120  207.3080  147.8120 C   0  0  1  0  0  3  0  0  0  0  0  0
  161.3210  205.3440  149.1110 C   0  0  0  0  0  0  0  0  0  0  0  0
  162.0250  212.4650  149.2980 C   0  0  1  0  0  3  0  0  0  0  0  0
  160.3480  205.7610  149.9360 C   0  0  0  0  0  3  0  0  0  0  0  0
  162.4150  206.2710  148.6790 C   0  0  1  0  0  3  0  0  0  0  0  0
  161.9330  209.5930  149.9910 C   0  0  0  0  0  0  0  0  0  0  0  0
  162.3990  208.3840  150.7720 C   0  0  0  0  0  2  0  0  0  0  0  0
  162.0250  213.9230  149.3540 N   0  0  0  0  0  1  0  0  0  0  0  0
  161.4200  210.6330  147.7700 C   0  0  0  0  0  3  0  0  0  0  0  0
  161.2460  207.6010  151.4190 C   0  0  0  0  0  2  0  0  0  0  0  0
  162.5590  208.4900  147.9720 O   0  0  0  0  0  0  0  0  0  0  0  0
  161.3300  211.9450  150.4690 N   0  0  0  0  0  0  0  0  0  0  0  0
  161.9960  209.5760  148.6330 C   0  0  0  0  0  0  0  0  0  0  0  0
  162.6010  206.2760  147.2890 O   0  0  0  0  0  0  0  0  0  0  0  0
  161.3110  210.6800  150.7900 C   0  0  0  0  0  3  0  0  0  0  0  0
  160.1780  207.1680  150.4110 C   0  0  0  0  0  2  0  0  0  0  0  0
  160.2600  201.6490  148.9060 C   0  0  0  0  0  0  0  0  0  0  0  0
  159.1760  201.0600  149.0580 O   0  0  0  0  0  0  0  0  0  0  0  0
  161.3450  203.9390  148.6710 C   0  0  0  0  0  0  0  0  0  0  0  0
  160.2840  203.0640  149.0740 N   0  0  0  0  0  2  0  0  0  0  0  0
  162.2800  203.5220  147.9310 O   0  0  0  0  0  0  0  0  0  0  0  0
  161.4940  200.8750  148.5300 C   0  0  0  0  0  2  0  0  0  0  0  0
  160.2070  201.1270  145.1320 C   0  0  0  0  0  2  0  0  0  0  0  0
  161.6260  200.6820  147.0330 C   0  0  1  0  0  3  0  0  0  0  0  0
  160.9660  199.3720  146.6170 C   0  0  1  0  0  3  0  0  0  0  0  0
  160.8920  201.7870  146.3060 C   0  0  0  0  0  2  0  0  0  0  0  0
  159.8920  199.7160  145.5960 C   0  0  0  0  0  2  0  0  0  0  0  0
  161.6150  198.1050  144.7060 O   0  0  0  0  0  1  0  0  0  0  0  0
  162.0080  198.4640  145.9960 C   0  0  0  0  0  2  0  0  0  0  0  0
  160.6050  212.8700  147.1120 C   0  0  2  0  0  3  0  0  0  0  0  0
  159.4250  213.5110  147.8310 C   0  0  0  0  0  1  0  0  0  0  0  0
  160.1480  212.1880  145.9770 O   0  0  0  0  0  0  0  0  0  0  0  0
  159.4540  212.5640  143.6920 C   0  0  2  0  0  3  0  0  0  0  0  0
  162.6270  213.1290  144.8830 C   0  0  0  0  0  2  0  0  0  0  0  0
  160.0530  213.1500  144.9730 C   0  0  2  0  0  3  0  0  0  0  0  0
  163.0480  213.6750  143.5310 C   0  0  0  0  0  2  0  0  0  0  0  0
  160.1000  211.3970  143.3340 O   0  0  0  0  0  1  0  0  0  0  0  0
  159.5290  213.5780  142.5710 C   0  0  1  0  0  3  0  0  0  0  0  0
  161.3600  213.9600  144.8180 C   0  0  2  0  0  3  0  0  0  0  0  0
  160.9780  213.8530  142.2370 C   0  0  0  0  0  2  0  0  0  0  0  0
  161.7480  214.4510  143.4160 C   0  0  2  0  0  3  0  0  0  0  0  0
  158.8360  213.0980  141.3780 N   0  0  0  0  0  2  0  0  0  0  0  0
  159.7880  213.1190  140.2740 C   0  0  2  0  0  3  0  0  0  0  0  0
  159.4320  214.2430  139.3180 C   0  0  0  0  0  1  0  0  0  0  0  0
  160.8590  209.6140  139.2850 C   0  0  0  0  0  0  0  0  0  0  0  0
  159.8540  211.7910  139.5640 C   0  0  0  0  0  0  0  0  0  0  0  0
  160.8410  210.8580  139.9110 C   0  0  0  0  0  3  0  0  0  0  0  0
  158.9100  210.2390  138.0280 C   0  0  0  0  0  3  0  0  0  0  0  0
  158.9170  211.4540  138.6320 N   0  0  0  0  0  0  0  0  0  0  0  0
  159.8830  209.2920  138.3440 C   0  0  0  0  0  3  0  0  0  0  0  0
  161.9180  208.6340  139.6210 C   0  0  0  0  0  1  0  0  0  0  0  0
  1  4  1  0  0  0  0
  2 15  1  6  0  0  0
  2 12  1  0  0  0  0
  2  6  1  0  0  0  0
  3  5  2  0  0  0  0
  4  9  1  6  0  0  0
  4 13  1  0  0  0  0
  5 17  1  0  0  0  0
  6 15  1  6  0  0  0
  6  3  1  0  0  0  0
  7  8  1  0  0  0  0
  7 16  1  0  0  0  0
  8 11  1  0  0  0  0
 10  1  2  0  0  0  0
 10 14  1  0  0  0  0
 12 14  1  0  0  0  0
 13 16  2  0  0  0  0
 14  7  2  0  0  0  0
 17 11  1  0  0  0  0
 18 19  2  0  0  0  0
 18 21  1  0  0  0  0
 20 21  1  0  0  0  0
 20  3  1  0  0  0  0
 22 20  2  0  0  0  0
 23 18  1  0  0  0  0
 24 28  1  0  0  0  0
 24 27  1  0  0  0  0
 25 23  1  1  0  0  0
 26 30  1  6  0  0  0
 26 25  1  0  0  0  0
 27 25  1  0  0  0  0
 28 26  1  0  0  0  0
 29 30  1  0  0  0  0
 31 32  1  1  0  0  0
 31  1  1  0  0  0  0
 33 31  1  0  0  0  0
 34 38  1  6  0  0  0
 34 36  1  0  0  0  0
 36 33  1  1  0  0  0
 37 35  1  0  0  0  0
 39 43  1  6  0  0  0
 39 34  1  0  0  0  0
 40 35  1  6  0  0  0
 40 36  1  0  0  0  0
 41 39  1  0  0  0  0
 42 41  1  6  0  0  0
 42 37  1  0  0  0  0
 42 40  1  0  0  0  0
 44 45  1  6  0  0  0
 44 43  1  0  0  0  0
 46 52  1  0  0  0  0
 46 48  1  0  0  0  0
 47 48  2  0  0  0  0
 47 44  1  0  0  0  0
 49 51  1  0  0  0  0
 49 50  2  0  0  0  0
 50 47  1  0  0  0  0
 51 46  2  0  0  0  0
M  END
>  <MODEL>
5

>  <REMARK>
 VINA RESULT:      -4.6      3.865      7.002
  Name = 
  10 active torsions:
  status: ('A' for Active; 'I' for Inactive)
    1  A    between atoms: C_1  and  C_30
    2  A    between atoms: C_6  and  C_30
    3  A    between atoms: C_8  and  C_33
    4  A    between atoms: C_9  and  O_18
    5  A    between atoms: C_10  and  C_16
    6  A    between atoms: C_12  and  C_52
    7  A    between atoms: C_13  and  C_17
    8  A    between atoms: C_16  and  N_48
    9  A    between atoms: O_18  and  C_33
   10  A    between atoms: C_23  and  N_48
                            x       y       z     vdW  Elec       q    Type
                         _______ _______ _______ _____ _____    ______ ____

>  <TORSDO>
F 10

$$$$
=
 OpenBabel11042422183D

 52 58  0  0  1  0  0  0  0  0999 V2000
  161.7930  210.2070  148.5900 C   0  0  0  0  0  0  0  0  0  0  0  0
  160.1170  211.8730  144.5650 C   0  0  1  0  0  3  0  0  0  0  0  0
  160.7210  213.4080  142.8140 C   0  0  0  0  0  0  0  0  0  0  0  0
  162.0980  211.3450  149.5290 C   0  0  1  0  0  3  0  0  0  0  0  0
  162.0560  213.4890  142.9290 C   0  0  0  0  0  3  0  0  0  0  0  0
  159.8540  213.2250  144.0220 C   0  0  1  0  0  3  0  0  0  0  0  0
  161.8180  212.8920  147.0260 C   0  0  0  0  0  0  0  0  0  0  0  0
  161.5710  214.1710  146.2590 C   0  0  0  0  0  2  0  0  0  0  0  0
  162.5040  210.8710  150.8480 N   0  0  0  0  0  1  0  0  0  0  0  0
  161.2580  210.4760  147.3860 C   0  0  0  0  0  3  0  0  0  0  0  0
  162.6410  214.4520  145.1920 C   0  0  0  0  0  2  0  0  0  0  0  0
  159.9180  211.9230  145.9570 O   0  0  0  0  0  0  0  0  0  0  0  0
  163.1640  212.1680  148.9720 N   0  0  0  0  0  0  0  0  0  0  0  0
  161.0100  211.8190  146.8130 C   0  0  0  0  0  0  0  0  0  0  0  0
  158.9370  212.1740  143.8730 O   0  0  0  0  0  0  0  0  0  0  0  0
  163.0320  212.8720  147.8810 C   0  0  0  0  0  3  0  0  0  0  0  0
  162.8150  213.2970  144.2020 C   0  0  0  0  0  2  0  0  0  0  0  0
  158.3400  212.6600  139.8830 C   0  0  0  0  0  0  0  0  0  0  0  0
  157.1990  212.1720  139.8110 O   0  0  0  0  0  0  0  0  0  0  0  0
  160.0970  213.5610  141.4900 C   0  0  0  0  0  0  0  0  0  0  0  0
  158.9370  212.7800  141.1720 N   0  0  0  0  0  2  0  0  0  0  0  0
  160.5690  214.3850  140.6570 O   0  0  0  0  0  0  0  0  0  0  0  0
  159.0420  213.1280  138.6380 C   0  0  0  0  0  2  0  0  0  0  0  0
  159.2360  209.7700  137.2400 C   0  0  0  0  0  2  0  0  0  0  0  0
  159.7920  212.0120  137.9400 C   0  0  1  0  0  3  0  0  0  0  0  0
  160.3570  211.0400  138.9700 C   0  0  1  0  0  3  0  0  0  0  0  0
  158.8410  211.2190  137.0710 C   0  0  0  0  0  2  0  0  0  0  0  0
  159.7810  209.6680  138.6540 C   0  0  0  0  0  2  0  0  0  0  0  0
  162.4200  210.4670  140.0150 O   0  0  0  0  0  1  0  0  0  0  0  0
  161.8680  211.0130  138.8560 C   0  0  0  0  0  2  0  0  0  0  0  0
  162.1130  208.7700  148.9540 C   0  0  2  0  0  3  0  0  0  0  0  0
  163.3930  208.3130  148.2670 C   0  0  0  0  0  1  0  0  0  0  0  0
  161.0640  207.9080  148.6120 O   0  0  0  0  0  0  0  0  0  0  0  0
  161.3440  207.9770  151.0120 C   0  0  2  0  0  3  0  0  0  0  0  0
  161.3020  205.0980  149.1380 C   0  0  0  0  0  2  0  0  0  0  0  0
  160.5350  207.4590  149.8220 C   0  0  2  0  0  3  0  0  0  0  0  0
  161.4120  204.2620  150.4000 C   0  0  0  0  0  2  0  0  0  0  0  0
  162.6920  207.7400  150.8330 O   0  0  0  0  0  1  0  0  0  0  0  0
  160.8570  207.3320  152.2930 C   0  0  1  0  0  3  0  0  0  0  0  0
  160.2310  205.9440  149.7970 C   0  0  2  0  0  3  0  0  0  0  0  0
  161.1350  205.8470  152.2450 C   0  0  0  0  0  2  0  0  0  0  0  0
  160.3980  205.1490  151.1000 C   0  0  2  0  0  3  0  0  0  0  0  0
  161.5150  207.9140  153.4600 N   0  0  0  0  0  2  0  0  0  0  0  0
  161.4000  209.3640  153.3570 C   0  0  2  0  0  3  0  0  0  0  0  0
  162.7220  210.0060  153.7370 C   0  0  0  0  0  1  0  0  0  0  0  0
  158.3100  211.2940  154.4230 C   0  0  0  0  0  0  0  0  0  0  0  0
  160.2670  209.8980  154.1950 C   0  0  0  0  0  0  0  0  0  0  0  0
  159.3850  210.8460  153.6570 C   0  0  0  0  0  3  0  0  0  0  0  0
  158.9890  209.8270  156.2000 C   0  0  0  0  0  3  0  0  0  0  0  0
  160.0430  209.4160  155.4500 N   0  0  0  0  0  0  0  0  0  0  0  0
  158.0990  210.7760  155.6990 C   0  0  0  0  0  3  0  0  0  0  0  0
  157.3920  212.3200  153.8770 C   0  0  0  0  0  1  0  0  0  0  0  0
  1 31  1  0  0  0  0
  1  4  1  0  0  0  0
  2 15  1  6  0  0  0
  2 12  1  0  0  0  0
  3  5  2  0  0  0  0
  4  9  1  1  0  0  0
  5 17  1  0  0  0  0
  6  3  1  6  0  0  0
  6  2  1  0  0  0  0
  7 16  1  0  0  0  0
  8  7  1  0  0  0  0
 10  1  2  0  0  0  0
 11  8  1  0  0  0  0
 12 14  1  0  0  0  0
 13  4  1  0  0  0  0
 14  7  2  0  0  0  0
 14 10  1  0  0  0  0
 15  6  1  0  0  0  0
 16 13  2  0  0  0  0
 17 11  1  0  0  0  0
 18 21  1  0  0  0  0
 19 18  2  0  0  0  0
 20  3  1  0  0  0  0
 21 20  1  0  0  0  0
 22 20  2  0  0  0  0
 23 18  1  0  0  0  0
 24 28  1  0  0  0  0
 25 23  1  1  0  0  0
 25 26  1  0  0  0  0
 26 30  1  6  0  0  0
 27 24  1  0  0  0  0
 27 25  1  0  0  0  0
 28 26  1  0  0  0  0
 30 29  1  0  0  0  0
 31 32  1  6  0  0  0
 33 31  1  0  0  0  0
 34 38  1  6  0  0  0
 34 39  1  0  0  0  0
 35 37  1  0  0  0  0
 36 33  1  6  0  0  0
 36 34  1  0  0  0  0
 39 43  1  1  0  0  0
 40 35  1  6  0  0  0
 40 36  1  0  0  0  0
 40 42  1  0  0  0  0
 41 39  1  0  0  0  0
 42 37  1  6  0  0  0
 42 41  1  0  0  0  0
 44 43  1  0  0  0  0
 44 45  1  1  0  0  0
 44 47  1  0  0  0  0
 46 51  1  0  0  0  0
 47 50  2  0  0  0  0
 48 47  1  0  0  0  0
 48 46  2  0  0  0  0
 50 49  1  0  0  0  0
 51 49  2  0  0  0  0
 52 46  1  0  0  0  0
M  END
>  <MODEL>
6

>  <REMARK>
 VINA RESULT:      -3.6      4.191      9.265
  Name = 
  10 active torsions:
  status: ('A' for Active; 'I' for Inactive)
    1  A    between atoms: C_1  and  C_30
    2  A    between atoms: C_6  and  C_30
    3  A    between atoms: C_8  and  C_33
    4  A    between atoms: C_9  and  O_18
    5  A    between atoms: C_10  and  C_16
    6  A    between atoms: C_12  and  C_52
    7  A    between atoms: C_13  and  C_17
    8  A    between atoms: C_16  and  N_48
    9  A    between atoms: O_18  and  C_33
   10  A    between atoms: C_23  and  N_48
                            x       y       z     vdW  Elec       q    Type
                         _______ _______ _______ _____ _____    ______ ____

>  <TORSDO>
F 10

$$$$
