=
 OpenBabel11042421533D

 47 50  0  0  1  0  0  0  0  0999 V2000
  161.8730  209.2130  150.8160 C   0  0  0  0  0  0  0  0  0  0  0  0
  161.8560  210.1400  149.7100 C   0  0  0  0  0  0  0  0  0  0  0  0
  162.1770  208.0190  150.4350 N   0  0  0  0  0  0  0  0  0  0  0  0
  161.6000  209.5630  152.1740 N   0  0  0  0  0  2  0  0  0  0  0  0
  162.3940  208.0400  148.9910 C   0  0  2  0  0  3  0  0  0  0  0  0
  162.1680  209.4760  148.6110 C   0  0  0  0  0  3  0  0  0  0  0  0
  161.3670  207.1520  148.3070 C   0  0  2  0  0  3  0  0  0  0  0  0
  162.0400  206.1450  147.5610 N   0  0  0  0  0  0  0  0  0  0  0  0
  161.4770  207.2900  146.8960 N   0  0  0  0  0  2  0  0  0  0  0  0
  161.0960  205.0530  147.3910 C   0  0  0  0  0  2  0  0  0  0  0  0
  161.7990  203.7160  147.5730 C   0  0  0  0  0  2  0  0  0  0  0  0
  161.3220  203.0130  148.8440 C   0  0  2  0  0  3  0  0  0  0  0  0
  160.4130  201.9150  148.5250 N   0  0  0  0  0  2  0  0  0  0  0  0
  161.2160  200.7080  148.4260 C   0  0  0  0  0  1  0  0  0  0  0  0
  160.7710  203.9030  149.7950 O   0  0  0  0  0  0  0  0  0  0  0  0
  160.9300  203.3580  151.0800 C   0  0  0  0  0  1  0  0  0  0  0  0
  161.6000  211.6070  149.7820 C   0  0  0  0  0  2  0  0  0  0  0  0
  161.9600  213.9010  148.3560 O   0  0  0  0  0  1  0  0  0  0  0  0
  161.9830  212.3970  148.1910 P   0  0  1  0  0  0  0  0  0  0  0  0
  163.5200  211.9070  147.6790 O   0  0  0  0  0  0  0  0  0  0  0  0
  160.8130  211.9250  147.0560 O   0  0  0  0  0  0  0  0  0  0  0  0
  160.5720  213.0560  146.2740 C   0  0  0  0  0  2  0  0  0  0  0  0
  161.2980  212.9170  144.9500 C   0  0  0  0  0  2  0  0  0  0  0  0
  160.3190  212.9650  143.8310 C   0  0  0  0  0  0  0  0  0  0  0  0
  160.6950  213.3040  142.6800 O   0  0  0  0  0  0  0  0  0  0  0  0
  158.9950  212.6060  144.0490 O   0  0  0  0  0  1  0  0  0  0  0  0
  161.5790  208.5750  153.2470 C   0  0  1  0  0  3  0  0  0  0  0  0
  161.8670  209.7750  155.2920 F   0  0  0  0  0  0  0  0  0  0  0  0
  160.9120  209.1720  154.4890 C   0  0  0  0  0  0  0  0  0  0  0  0
  160.2990  208.1550  155.2040 F   0  0  0  0  0  0  0  0  0  0  0  0
  159.8530  210.1900  154.0680 C   0  0  0  0  0  2  0  0  0  0  0  0
  160.3460  211.6270  154.1990 C   0  0  0  0  0  2  0  0  0  0  0  0
  155.5040  214.0250  152.9750 C   0  0  0  0  0  2  0  0  0  0  0  0
  158.9520  213.5050  153.2080 C   0  0  0  0  0  0  0  0  0  0  0  0
  156.7820  214.1590  152.3520 N   0  0  0  0  0  0  0  0  0  0  0  0
  156.9700  214.0030  150.9350 C   0  0  0  0  0  3  0  0  0  0  0  0
  157.7930  214.4530  153.3460 C   0  0  1  0  0  3  0  0  0  0  0  0
  158.1480  214.1060  150.3060 C   0  0  0  0  0  0  0  0  0  0  0  0
  159.4250  214.4470  151.0320 C   0  0  0  0  0  2  0  0  0  0  0  0
  159.6750  213.5180  152.1290 N   0  0  0  0  0  0  0  0  0  0  0  0
  157.1990  214.3530  154.6210 O   0  0  0  0  0  0  0  0  0  0  0  0
  155.7990  214.3280  154.4260 C   0  0  0  0  0  2  0  0  0  0  0  0
  159.2220  212.5530  154.2430 N   0  0  0  0  0  2  0  0  0  0  0  0
  157.3660  212.9170  148.2850 C   0  0  0  0  0  1  0  0  0  0  0  0
  158.1600  213.9080  148.9230 O   0  0  0  0  0  0  0  0  0  0  0  0
  160.8510  207.3150  152.7780 C   0  0  0  0  0  2  0  0  0  0  0  0
  161.3980  206.0850  153.4760 C   0  0  0  0  0  1  0  0  0  0  0  0
  1  4  1  0  0  0  0
  2 17  1  0  0  0  0
  2  1  1  0  0  0  0
  3  1  2  0  0  0  0
  4 27  1  0  0  0  0
  5  6  1  6  0  0  0
  5  3  1  0  0  0  0
  6  2  2  0  0  0  0
  7  9  1  6  0  0  0
  7  5  1  0  0  0  0
  8  7  1  0  0  0  0
  9  8  1  0  0  0  0
 10  8  1  0  0  0  0
 10 11  1  0  0  0  0
 12 11  1  6  0  0  0
 12 15  1  0  0  0  0
 13 12  1  0  0  0  0
 14 13  1  0  0  0  0
 15 16  1  0  0  0  0
 19 20  2  6  0  0  0
 19 18  1  0  0  0  0
 19 17  1  0  0  0  0
 21 19  1  0  0  0  0
 22 21  1  0  0  0  0
 23 22  1  0  0  0  0
 24 26  1  0  0  0  0
 24 23  1  0  0  0  0
 25 24  2  0  0  0  0
 27 46  1  6  0  0  0
 27 29  1  0  0  0  0
 29 30  1  0  0  0  0
 29 28  1  0  0  0  0
 31 32  1  0  0  0  0
 31 29  1  0  0  0  0
 32 43  1  0  0  0  0
 33 42  1  0  0  0  0
 34 43  1  0  0  0  0
 35 33  1  0  0  0  0
 35 37  1  0  0  0  0
 36 35  1  0  0  0  0
 37 34  1  1  0  0  0
 37 41  1  0  0  0  0
 38 36  2  0  0  0  0
 38 39  1  0  0  0  0
 39 40  1  0  0  0  0
 40 34  2  0  0  0  0
 42 41  1  0  0  0  0
 44 45  1  0  0  0  0
 45 38  1  0  0  0  0
 46 47  1  0  0  0  0
M  END
>  <MODEL>
1

>  <REMARK>
 VINA RESULT:      -6.3      0.000      0.000
  Name = 
  19 active torsions:
  status: ('A' for Active; 'I' for Inactive)
    1  A    between atoms: C_1  and  C_8
    2  A    between atoms: C_5  and  O_33
    3  A    between atoms: C_5  and  C_38
    4  A    between atoms: N_6  and  C_24
    5  A    between atoms: C_7  and  P_10
    6  A    between atoms: C_7  and  C_15
    7  A    between atoms: C_8  and  C_11
    8  A    between atoms: C_8  and  N_43
    9  A    between atoms: P_10  and  O_33
   10  A    between atoms: C_11  and  C_12
   11  A    between atoms: C_12  and  C_42
   12  A    between atoms: C_14  and  C_45
   13  A    between atoms: N_18  and  C_22
   14  A    between atoms: C_19  and  C_38
   15  A    between atoms: C_22  and  C_39
   16  A    between atoms: C_24  and  O_34
   17  A    between atoms: C_24  and  C_39
   18  A    between atoms: C_26  and  O_40
   19  A    between atoms: N_36  and  C_42
                            x       y       z     vdW  Elec       q    Type
                         _______ _______ _______ _____ _____    ______ ____

>  <TORSDO>
F 19

$$$$
=
 OpenBabel11042421533D

 47 50  0  0  1  0  0  0  0  0999 V2000
  162.0480  209.9380  149.5790 C   0  0  0  0  0  0  0  0  0  0  0  0
  162.0300  208.4990  149.4630 C   0  0  0  0  0  0  0  0  0  0  0  0
  162.0980  210.3180  150.8100 N   0  0  0  0  0  0  0  0  0  0  0  0
  162.0230  210.8420  148.4730 N   0  0  0  0  0  2  0  0  0  0  0  0
  162.1160  209.1290  151.6570 C   0  0  2  0  0  3  0  0  0  0  0  0
  162.0770  207.9870  150.6800 C   0  0  0  0  0  3  0  0  0  0  0  0
  160.8750  209.1060  152.5340 C   0  0  2  0  0  3  0  0  0  0  0  0
  161.2660  209.1080  153.9020 N   0  0  0  0  0  0  0  0  0  0  0  0
  160.8280  207.8910  153.2700 N   0  0  0  0  0  2  0  0  0  0  0  0
  160.1350  209.6210  154.6570 C   0  0  0  0  0  2  0  0  0  0  0  0
  159.6410  210.9220  154.0450 C   0  0  0  0  0  2  0  0  0  0  0  0
  159.0280  211.8330  155.1110 C   0  0  2  0  0  3  0  0  0  0  0  0
  160.0530  212.3340  156.0220 N   0  0  0  0  0  2  0  0  0  0  0  0
  159.8980  213.7770  156.0900 C   0  0  0  0  0  1  0  0  0  0  0  0
  157.9500  211.2300  155.8000 O   0  0  0  0  0  0  0  0  0  0  0  0
  156.8610  211.1000  154.9230 C   0  0  0  0  0  1  0  0  0  0  0  0
  162.0290  207.7080  148.2000 C   0  0  0  0  0  2  0  0  0  0  0  0
  159.8180  206.5750  149.3180 O   0  0  0  0  0  1  0  0  0  0  0  0
  160.9440  206.2580  148.3590 P   0  0  1  0  0  0  0  0  0  0  0  0
  160.3030  205.8700  146.8410 O   0  0  0  0  0  0  0  0  0  0  0  0
  161.8590  204.9590  148.9550 O   0  0  0  0  0  0  0  0  0  0  0  0
  161.6710  203.9190  148.0430 C   0  0  0  0  0  2  0  0  0  0  0  0
  160.7650  202.8700  148.6560 C   0  0  0  0  0  2  0  0  0  0  0  0
  161.0170  201.5500  148.0150 C   0  0  0  0  0  0  0  0  0  0  0  0
  161.5060  200.6070  148.6880 O   0  0  0  0  0  1  0  0  0  0  0  0
  160.6840  201.3490  146.6820 O   0  0  0  0  0  0  0  0  0  0  0  0
  161.9880  212.2900  148.6480 C   0  0  1  0  0  3  0  0  0  0  0  0
  163.9280  211.9610  147.2930 F   0  0  0  0  0  0  0  0  0  0  0  0
  163.0970  212.9400  147.8160 C   0  0  0  0  0  0  0  0  0  0  0  0
  163.8430  213.7740  148.6330 F   0  0  0  0  0  0  0  0  0  0  0  0
  162.4800  213.7700  146.6910 C   0  0  0  0  0  2  0  0  0  0  0  0
  162.6820  213.1300  145.3220 C   0  0  0  0  0  2  0  0  0  0  0  0
  159.2070  213.0670  141.0080 C   0  0  0  0  0  2  0  0  0  0  0  0
  161.8700  213.9890  143.0730 C   0  0  0  0  0  0  0  0  0  0  0  0
  160.5630  213.5070  141.0910 N   0  0  0  0  0  0  0  0  0  0  0  0
  161.5770  213.0590  140.1770 C   0  0  0  0  0  3  0  0  0  0  0  0
  160.7230  214.4210  142.2020 C   0  0  1  0  0  3  0  0  0  0  0  0
  162.8630  213.4300  140.2220 C   0  0  0  0  0  0  0  0  0  0  0  0
  163.3850  214.4160  141.2370 C   0  0  0  0  0  2  0  0  0  0  0  0
  163.0790  213.9860  142.5970 N   0  0  0  0  0  0  0  0  0  0  0  0
  159.5130  214.4500  142.9270 O   0  0  0  0  0  0  0  0  0  0  0  0
  158.5290  213.8400  142.1160 C   0  0  0  0  0  2  0  0  0  0  0  0
  161.6210  213.5300  144.4060 N   0  0  0  0  0  2  0  0  0  0  0  0
  163.2670  212.0730  138.1970 C   0  0  0  0  0  1  0  0  0  0  0  0
  163.7260  212.8870  139.2660 O   0  0  0  0  0  0  0  0  0  0  0  0
  160.6120  212.8270  148.2540 C   0  0  0  0  0  2  0  0  0  0  0  0
  159.9720  213.5680  149.4120 C   0  0  0  0  0  1  0  0  0  0  0  0
  1  3  2  0  0  0  0
  2  1  1  0  0  0  0
  2  6  2  0  0  0  0
  3  5  1  0  0  0  0
  4 27  1  0  0  0  0
  4  1  1  0  0  0  0
  5  6  1  6  0  0  0
  5  7  1  0  0  0  0
  7  9  1  6  0  0  0
  7  8  1  0  0  0  0
  8 10  1  0  0  0  0
  9  8  1  0  0  0  0
 11 10  1  0  0  0  0
 12 11  1  6  0  0  0
 12 15  1  0  0  0  0
 12 13  1  0  0  0  0
 13 14  1  0  0  0  0
 16 15  1  0  0  0  0
 17 19  1  0  0  0  0
 17  2  1  0  0  0  0
 19 20  2  6  0  0  0
 19 21  1  0  0  0  0
 19 18  1  0  0  0  0
 22 23  1  0  0  0  0
 22 21  1  0  0  0  0
 24 23  1  0  0  0  0
 24 25  1  0  0  0  0
 26 24  2  0  0  0  0
 27 46  1  6  0  0  0
 28 29  1  0  0  0  0
 29 30  1  0  0  0  0
 29 27  1  0  0  0  0
 31 29  1  0  0  0  0
 32 31  1  0  0  0  0
 33 35  1  0  0  0  0
 33 42  1  0  0  0  0
 34 43  1  0  0  0  0
 35 37  1  0  0  0  0
 36 38  2  0  0  0  0
 36 35  1  0  0  0  0
 37 41  1  1  0  0  0
 37 34  1  0  0  0  0
 38 39  1  0  0  0  0
 39 40  1  0  0  0  0
 40 34  2  0  0  0  0
 42 41  1  0  0  0  0
 43 32  1  0  0  0  0
 44 45  1  0  0  0  0
 45 38  1  0  0  0  0
 46 47  1  0  0  0  0
M  END
>  <MODEL>
2

>  <REMARK>
 VINA RESULT:      -6.2      3.712      9.418
  Name = 
  19 active torsions:
  status: ('A' for Active; 'I' for Inactive)
    1  A    between atoms: C_1  and  C_8
    2  A    between atoms: C_5  and  O_33
    3  A    between atoms: C_5  and  C_38
    4  A    between atoms: N_6  and  C_24
    5  A    between atoms: C_7  and  P_10
    6  A    between atoms: C_7  and  C_15
    7  A    between atoms: C_8  and  C_11
    8  A    between atoms: C_8  and  N_43
    9  A    between atoms: P_10  and  O_33
   10  A    between atoms: C_11  and  C_12
   11  A    between atoms: C_12  and  C_42
   12  A    between atoms: C_14  and  C_45
   13  A    between atoms: N_18  and  C_22
   14  A    between atoms: C_19  and  C_38
   15  A    between atoms: C_22  and  C_39
   16  A    between atoms: C_24  and  O_34
   17  A    between atoms: C_24  and  C_39
   18  A    between atoms: C_26  and  O_40
   19  A    between atoms: N_36  and  C_42
                            x       y       z     vdW  Elec       q    Type
                         _______ _______ _______ _____ _____    ______ ____

>  <TORSDO>
F 19

$$$$
=
 OpenBabel11042421533D

 47 50  0  0  1  0  0  0  0  0999 V2000
  161.6310  206.7990  151.5520 C   0  0  0  0  0  0  0  0  0  0  0  0
  161.9960  205.6410  152.3310 C   0  0  0  0  0  0  0  0  0  0  0  0
  161.4010  207.8250  152.2980 N   0  0  0  0  0  0  0  0  0  0  0  0
  161.5420  206.8250  150.1260 N   0  0  0  0  0  2  0  0  0  0  0  0
  161.5950  207.4310  153.6910 C   0  0  2  0  0  3  0  0  0  0  0  0
  161.9910  205.9840  153.6070 C   0  0  0  0  0  3  0  0  0  0  0  0
  160.2840  207.5690  154.4490 C   0  0  2  0  0  3  0  0  0  0  0  0
  160.4750  208.4320  155.5640 N   0  0  0  0  0  0  0  0  0  0  0  0
  160.4180  207.0050  155.7470 N   0  0  0  0  0  2  0  0  0  0  0  0
  159.1640  208.9540  155.9140 C   0  0  0  0  0  2  0  0  0  0  0  0
  159.0880  210.4390  155.5950 C   0  0  0  0  0  2  0  0  0  0  0  0
  160.4860  211.0420  155.4480 C   0  0  2  0  0  3  0  0  0  0  0  0
  160.7780  211.9590  156.5460 N   0  0  0  0  0  2  0  0  0  0  0  0
  161.9260  211.4240  157.2590 C   0  0  0  0  0  1  0  0  0  0  0  0
  160.7010  211.6370  154.1830 O   0  0  0  0  0  0  0  0  0  0  0  0
  159.4790  212.1220  153.6910 C   0  0  0  0  0  1  0  0  0  0  0  0
  162.3820  204.3000  151.8050 C   0  0  0  0  0  2  0  0  0  0  0  0
  160.1090  203.1110  152.7230 O   0  0  0  0  0  1  0  0  0  0  0  0
  160.9010  203.3070  151.4490 P   0  0  1  0  0  0  0  0  0  0  0  0
  159.9480  204.1150  150.3080 O   0  0  0  0  0  0  0  0  0  0  0  0
  161.3910  201.8020  150.8380 O   0  0  0  0  0  0  0  0  0  0  0  0
  160.4670  201.4840  149.8420 C   0  0  0  0  0  2  0  0  0  0  0  0
  161.1940  200.8950  148.6490 C   0  0  0  0  0  2  0  0  0  0  0  0
  161.0880  201.8180  147.4880 C   0  0  0  0  0  0  0  0  0  0  0  0
  161.3980  203.0300  147.6160 O   0  0  0  0  0  1  0  0  0  0  0  0
  160.6740  201.3380  146.2520 O   0  0  0  0  0  0  0  0  0  0  0  0
  161.1160  208.0100  149.3900 C   0  0  1  0  0  3  0  0  0  0  0  0
  163.2120  208.7450  150.2700 F   0  0  0  0  0  0  0  0  0  0  0  0
  162.0030  209.2000  149.7650 C   0  0  0  0  0  0  0  0  0  0  0  0
  161.3630  209.9510  150.7380 F   0  0  0  0  0  0  0  0  0  0  0  0
  162.2370  210.0780  148.5360 C   0  0  0  0  0  2  0  0  0  0  0  0
  162.2260  211.5640  148.8750 C   0  0  0  0  0  2  0  0  0  0  0  0
  157.4150  212.3970  146.2580 C   0  0  0  0  0  2  0  0  0  0  0  0
  160.7410  212.8210  147.2420 C   0  0  0  0  0  0  0  0  0  0  0  0
  158.7460  212.7410  145.8700 N   0  0  0  0  0  0  0  0  0  0  0  0
  159.2900  212.3920  144.5870 C   0  0  0  0  0  3  0  0  0  0  0  0
  159.4090  213.4520  146.9420 C   0  0  1  0  0  3  0  0  0  0  0  0
  160.5340  212.6780  144.1820 C   0  0  0  0  0  0  0  0  0  0  0  0
  161.5030  213.4550  145.0370 C   0  0  0  0  0  2  0  0  0  0  0  0
  161.6780  212.8280  146.3430 N   0  0  0  0  0  0  0  0  0  0  0  0
  158.5660  213.4300  148.0740 O   0  0  0  0  0  0  0  0  0  0  0  0
  157.2890  213.0160  147.6310 C   0  0  0  0  0  2  0  0  0  0  0  0
  160.9540  212.1670  148.4980 N   0  0  0  0  0  2  0  0  0  0  0  0
  162.2470  212.3580  142.4300 C   0  0  0  0  0  1  0  0  0  0  0  0
  160.9130  212.2500  142.9070 O   0  0  0  0  0  0  0  0  0  0  0  0
  161.1650  207.7330  147.8880 C   0  0  0  0  0  2  0  0  0  0  0  0
  161.7870  206.3790  147.6100 C   0  0  0  0  0  1  0  0  0  0  0  0
  1  3  2  0  0  0  0
  1  2  1  0  0  0  0
  2  6  2  0  0  0  0
  3  5  1  0  0  0  0
  4  1  1  0  0  0  0
  5  6  1  6  0  0  0
  5  7  1  0  0  0  0
  7  8  1  0  0  0  0
  7  9  1  1  0  0  0
  8  9  1  0  0  0  0
  8 10  1  0  0  0  0
 11 10  1  0  0  0  0
 12 11  1  6  0  0  0
 12 13  1  0  0  0  0
 13 14  1  0  0  0  0
 15 12  1  0  0  0  0
 16 15  1  0  0  0  0
 17  2  1  0  0  0  0
 19 20  2  6  0  0  0
 19 17  1  0  0  0  0
 19 18  1  0  0  0  0
 21 19  1  0  0  0  0
 22 21  1  0  0  0  0
 23 22  1  0  0  0  0
 24 25  1  0  0  0  0
 24 23  1  0  0  0  0
 26 24  2  0  0  0  0
 27 46  1  6  0  0  0
 27 29  1  0  0  0  0
 27  4  1  0  0  0  0
 29 28  1  0  0  0  0
 29 30  1  0  0  0  0
 31 32  1  0  0  0  0
 31 29  1  0  0  0  0
 33 42  1  0  0  0  0
 34 43  1  0  0  0  0
 35 33  1  0  0  0  0
 35 37  1  0  0  0  0
 36 35  1  0  0  0  0
 37 34  1  1  0  0  0
 37 41  1  0  0  0  0
 38 36  2  0  0  0  0
 38 39  1  0  0  0  0
 39 40  1  0  0  0  0
 40 34  2  0  0  0  0
 42 41  1  0  0  0  0
 43 32  1  0  0  0  0
 44 45  1  0  0  0  0
 45 38  1  0  0  0  0
 47 46  1  0  0  0  0
M  END
>  <MODEL>
3

>  <REMARK>
 VINA RESULT:      -5.6      3.067      8.185
  Name = 
  19 active torsions:
  status: ('A' for Active; 'I' for Inactive)
    1  A    between atoms: C_1  and  C_8
    2  A    between atoms: C_5  and  O_33
    3  A    between atoms: C_5  and  C_38
    4  A    between atoms: N_6  and  C_24
    5  A    between atoms: C_7  and  P_10
    6  A    between atoms: C_7  and  C_15
    7  A    between atoms: C_8  and  C_11
    8  A    between atoms: C_8  and  N_43
    9  A    between atoms: P_10  and  O_33
   10  A    between atoms: C_11  and  C_12
   11  A    between atoms: C_12  and  C_42
   12  A    between atoms: C_14  and  C_45
   13  A    between atoms: N_18  and  C_22
   14  A    between atoms: C_19  and  C_38
   15  A    between atoms: C_22  and  C_39
   16  A    between atoms: C_24  and  O_34
   17  A    between atoms: C_24  and  C_39
   18  A    between atoms: C_26  and  O_40
   19  A    between atoms: N_36  and  C_42
                            x       y       z     vdW  Elec       q    Type
                         _______ _______ _______ _____ _____    ______ ____

>  <TORSDO>
F 19

$$$$
=
 OpenBabel11042421533D

 47 50  0  0  1  0  0  0  0  0999 V2000
  161.8580  210.1230  149.1960 C   0  0  0  0  0  0  0  0  0  0  0  0
  162.0990  208.7180  148.9680 C   0  0  0  0  0  0  0  0  0  0  0  0
  161.9680  210.4320  150.4430 N   0  0  0  0  0  0  0  0  0  0  0  0
  161.5450  211.0700  148.1730 N   0  0  0  0  0  2  0  0  0  0  0  0
  162.3000  209.2200  151.1880 C   0  0  2  0  0  3  0  0  0  0  0  0
  162.3720  208.1530  150.1320 C   0  0  0  0  0  3  0  0  0  0  0  0
  161.1870  208.9040  152.1730 C   0  0  2  0  0  3  0  0  0  0  0  0
  161.6080  207.8550  153.0370 N   0  0  0  0  0  0  0  0  0  0  0  0
  160.7060  207.5850  151.9480 N   0  0  0  0  0  2  0  0  0  0  0  0
  160.7980  207.9560  154.2390 C   0  0  0  0  0  2  0  0  0  0  0  0
  160.7730  209.3930  154.7380 C   0  0  0  0  0  2  0  0  0  0  0  0
  160.0420  209.4970  156.0780 C   0  0  2  0  0  3  0  0  0  0  0  0
  159.0990  210.6110  156.0740 N   0  0  0  0  0  2  0  0  0  0  0  0
  159.7370  211.7160  156.7680 C   0  0  0  0  0  1  0  0  0  0  0  0
  160.9220  209.5440  157.1850 O   0  0  0  0  0  0  0  0  0  0  0  0
  162.2100  209.1770  156.7630 C   0  0  0  0  0  1  0  0  0  0  0  0
  162.1110  208.0190  147.6520 C   0  0  0  0  0  2  0  0  0  0  0  0
  160.0690  206.6200  148.7910 O   0  0  0  0  0  1  0  0  0  0  0  0
  161.1500  206.4780  147.7430 P   0  0  1  0  0  0  0  0  0  0  0  0
  160.4410  206.1730  146.2360 O   0  0  0  0  0  0  0  0  0  0  0  0
  162.1960  205.2100  148.1620 O   0  0  0  0  0  0  0  0  0  0  0  0
  161.4180  204.3080  148.8900 C   0  0  0  0  0  2  0  0  0  0  0  0
  161.1400  203.0830  148.0410 C   0  0  0  0  0  2  0  0  0  0  0  0
  160.9550  201.8950  148.9160 C   0  0  0  0  0  0  0  0  0  0  0  0
  160.7850  200.7580  148.4060 O   0  0  0  0  0  0  0  0  0  0  0  0
  161.0000  202.0340  150.2970 O   0  0  0  0  0  1  0  0  0  0  0  0
  161.2580  212.4700  148.4640 C   0  0  1  0  0  3  0  0  0  0  0  0
  160.6580  214.4110  147.2080 F   0  0  0  0  0  0  0  0  0  0  0  0
  160.3810  213.0610  147.3580 C   0  0  0  0  0  0  0  0  0  0  0  0
  159.0490  212.9110  147.7090 F   0  0  0  0  0  0  0  0  0  0  0  0
  160.6350  212.3180  146.0450 C   0  0  0  0  0  2  0  0  0  0  0  0
  161.5120  213.1170  145.0880 C   0  0  0  0  0  2  0  0  0  0  0  0
  158.2560  212.6630  140.6290 C   0  0  0  0  0  2  0  0  0  0  0  0
  161.1320  213.0350  142.5780 C   0  0  0  0  0  0  0  0  0  0  0  0
  159.6410  212.3570  140.7930 N   0  0  0  0  0  0  0  0  0  0  0  0
  160.2020  211.0900  140.4110 C   0  0  0  0  0  3  0  0  0  0  0  0
  160.3340  213.4830  141.3850 C   0  0  1  0  0  3  0  0  0  0  0  0
  161.4890  210.7510  140.5570 C   0  0  0  0  0  0  0  0  0  0  0  0
  162.5190  211.7030  141.1110 C   0  0  0  0  0  2  0  0  0  0  0  0
  162.1220  212.2080  142.4210 N   0  0  0  0  0  0  0  0  0  0  0  0
  159.3720  214.4500  141.7470 O   0  0  0  0  0  0  0  0  0  0  0  0
  158.1640  214.0950  141.1060 C   0  0  0  0  0  2  0  0  0  0  0  0
  160.7670  213.4780  143.8890 N   0  0  0  0  0  2  0  0  0  0  0  0
  161.1190  208.7110  139.2120 C   0  0  0  0  0  1  0  0  0  0  0  0
  161.8690  209.4680  140.1510 O   0  0  0  0  0  0  0  0  0  0  0  0
  160.5820  212.5870  149.8300 C   0  0  0  0  0  2  0  0  0  0  0  0
  160.4580  214.0390  150.2470 C   0  0  0  0  0  1  0  0  0  0  0  0
  1  3  2  0  0  0  0
  2  1  1  0  0  0  0
  2  6  2  0  0  0  0
  3  5  1  0  0  0  0
  4 27  1  0  0  0  0
  4  1  1  0  0  0  0
  5  6  1  6  0  0  0
  5  7  1  0  0  0  0
  7  9  1  6  0  0  0
  7  8  1  0  0  0  0
  8 10  1  0  0  0  0
  9  8  1  0  0  0  0
 10 11  1  0  0  0  0
 12 11  1  6  0  0  0
 12 15  1  0  0  0  0
 13 12  1  0  0  0  0
 13 14  1  0  0  0  0
 16 15  1  0  0  0  0
 17 19  1  0  0  0  0
 17  2  1  0  0  0  0
 19 20  2  6  0  0  0
 19 21  1  0  0  0  0
 19 18  1  0  0  0  0
 21 22  1  0  0  0  0
 23 22  1  0  0  0  0
 23 24  1  0  0  0  0
 24 26  1  0  0  0  0
 25 24  2  0  0  0  0
 27 46  1  1  0  0  0
 28 29  1  0  0  0  0
 29 30  1  0  0  0  0
 29 27  1  0  0  0  0
 31 29  1  0  0  0  0
 32 31  1  0  0  0  0
 33 35  1  0  0  0  0
 33 42  1  0  0  0  0
 34 43  1  0  0  0  0
 35 37  1  0  0  0  0
 36 38  2  0  0  0  0
 36 35  1  0  0  0  0
 37 41  1  1  0  0  0
 37 34  1  0  0  0  0
 38 39  1  0  0  0  0
 39 40  1  0  0  0  0
 40 34  2  0  0  0  0
 42 41  1  0  0  0  0
 43 32  1  0  0  0  0
 44 45  1  0  0  0  0
 45 38  1  0  0  0  0
 46 47  1  0  0  0  0
M  END
>  <MODEL>
4

>  <REMARK>
 VINA RESULT:      -5.5      3.943      9.215
  Name = 
  19 active torsions:
  status: ('A' for Active; 'I' for Inactive)
    1  A    between atoms: C_1  and  C_8
    2  A    between atoms: C_5  and  O_33
    3  A    between atoms: C_5  and  C_38
    4  A    between atoms: N_6  and  C_24
    5  A    between atoms: C_7  and  P_10
    6  A    between atoms: C_7  and  C_15
    7  A    between atoms: C_8  and  C_11
    8  A    between atoms: C_8  and  N_43
    9  A    between atoms: P_10  and  O_33
   10  A    between atoms: C_11  and  C_12
   11  A    between atoms: C_12  and  C_42
   12  A    between atoms: C_14  and  C_45
   13  A    between atoms: N_18  and  C_22
   14  A    between atoms: C_19  and  C_38
   15  A    between atoms: C_22  and  C_39
   16  A    between atoms: C_24  and  O_34
   17  A    between atoms: C_24  and  C_39
   18  A    between atoms: C_26  and  O_40
   19  A    between atoms: N_36  and  C_42
                            x       y       z     vdW  Elec       q    Type
                         _______ _______ _______ _____ _____    ______ ____

>  <TORSDO>
F 19

$$$$
=
 OpenBabel11042421533D

 47 50  0  0  1  0  0  0  0  0999 V2000
  161.4360  206.9480  151.2640 C   0  0  0  0  0  0  0  0  0  0  0  0
  160.7900  205.6570  151.2410 C   0  0  0  0  0  0  0  0  0  0  0  0
  161.8710  207.2450  152.4410 N   0  0  0  0  0  0  0  0  0  0  0  0
  161.5920  207.7980  150.1260 N   0  0  0  0  0  2  0  0  0  0  0  0
  161.5410  206.1450  153.3430 C   0  0  2  0  0  3  0  0  0  0  0  0
  160.8410  205.1500  152.4610 C   0  0  0  0  0  3  0  0  0  0  0  0
  160.5940  206.6380  154.4250 C   0  0  2  0  0  3  0  0  0  0  0  0
  161.0570  207.8880  154.9210 N   0  0  0  0  0  0  0  0  0  0  0  0
  161.2720  206.6810  155.6740 N   0  0  0  0  0  2  0  0  0  0  0  0
  159.9070  208.5540  155.5100 C   0  0  0  0  0  2  0  0  0  0  0  0
  160.1370  210.0560  155.5600 C   0  0  0  0  0  2  0  0  0  0  0  0
  158.8960  210.8180  155.0930 C   0  0  2  0  0  3  0  0  0  0  0  0
  159.0160  211.2030  153.6900 N   0  0  0  0  0  2  0  0  0  0  0  0
  159.3610  212.6140  153.6600 C   0  0  0  0  0  1  0  0  0  0  0  0
  158.5760  211.9170  155.9240 O   0  0  0  0  0  0  0  0  0  0  0  0
  157.3220  211.6940  156.5170 C   0  0  0  0  0  1  0  0  0  0  0  0
  160.2190  204.9690  150.0490 C   0  0  0  0  0  2  0  0  0  0  0  0
  161.9330  203.0640  150.9770 O   0  0  0  0  0  1  0  0  0  0  0  0
  161.0090  203.3490  149.8130 P   0  0  1  0  0  0  0  0  0  0  0  0
  159.8160  202.1510  149.7310 O   0  0  0  0  0  0  0  0  0  0  0  0
  161.8980  203.3850  148.3680 O   0  0  0  0  0  0  0  0  0  0  0  0
  161.4820  204.5370  147.7010 C   0  0  0  0  0  2  0  0  0  0  0  0
  161.8900  204.4520  146.2430 C   0  0  0  0  0  2  0  0  0  0  0  0
  161.1880  205.5050  145.4610 C   0  0  0  0  0  0  0  0  0  0  0  0
  161.2880  205.5300  144.2070 O   0  0  0  0  0  0  0  0  0  0  0  0
  160.3980  206.4450  146.1100 O   0  0  0  0  0  1  0  0  0  0  0  0
  162.2070  209.1180  150.2150 C   0  0  1  0  0  3  0  0  0  0  0  0
  161.0570  209.4020  148.1410 F   0  0  0  0  0  0  0  0  0  0  0  0
  162.1870  209.7930  148.8420 C   0  0  0  0  0  0  0  0  0  0  0  0
  163.3130  209.4070  148.1330 F   0  0  0  0  0  0  0  0  0  0  0  0
  162.2050  211.3130  149.0130 C   0  0  0  0  0  2  0  0  0  0  0  0
  162.4450  212.0410  147.6950 C   0  0  0  0  0  2  0  0  0  0  0  0
  157.6290  213.4220  145.3290 C   0  0  0  0  0  2  0  0  0  0  0  0
  161.0580  213.3230  145.9970 C   0  0  0  0  0  0  0  0  0  0  0  0
  158.9550  213.4420  144.7990 N   0  0  0  0  0  0  0  0  0  0  0  0
  159.2960  212.8190  143.5500 C   0  0  0  0  0  3  0  0  0  0  0  0
  159.8400  214.1530  145.6980 C   0  0  1  0  0  3  0  0  0  0  0  0
  160.5250  212.7990  143.0180 C   0  0  0  0  0  0  0  0  0  0  0  0
  161.7000  213.4840  143.6700 C   0  0  0  0  0  2  0  0  0  0  0  0
  161.8870  213.0220  145.0420 N   0  0  0  0  0  0  0  0  0  0  0  0
  159.1240  214.4530  146.8760 O   0  0  0  0  0  0  0  0  0  0  0  0
  157.7550  214.2380  146.5950 C   0  0  0  0  0  2  0  0  0  0  0  0
  161.2720  212.8210  147.3200 N   0  0  0  0  0  2  0  0  0  0  0  0
  161.9670  211.7490  141.3080 C   0  0  0  0  0  1  0  0  0  0  0  0
  160.6920  212.1320  141.8010 O   0  0  0  0  0  0  0  0  0  0  0  0
  161.4760  209.9610  151.2600 C   0  0  0  0  0  2  0  0  0  0  0  0
  162.3710  210.2350  152.4530 C   0  0  0  0  0  1  0  0  0  0  0  0
  1  3  2  0  0  0  0
  2  1  1  0  0  0  0
  2  6  2  0  0  0  0
  3  5  1  0  0  0  0
  4 27  1  0  0  0  0
  4  1  1  0  0  0  0
  5  6  1  6  0  0  0
  5  7  1  0  0  0  0
  7  8  1  0  0  0  0
  7  9  1  1  0  0  0
  8 10  1  0  0  0  0
  8  9  1  0  0  0  0
 10 11  1  0  0  0  0
 12 11  1  1  0  0  0
 12 15  1  0  0  0  0
 13 12  1  0  0  0  0
 14 13  1  0  0  0  0
 15 16  1  0  0  0  0
 17  2  1  0  0  0  0
 19 20  2  6  0  0  0
 19 17  1  0  0  0  0
 19 18  1  0  0  0  0
 21 19  1  0  0  0  0
 22 21  1  0  0  0  0
 23 22  1  0  0  0  0
 24 26  1  0  0  0  0
 24 23  1  0  0  0  0
 25 24  2  0  0  0  0
 27 46  1  1  0  0  0
 28 29  1  0  0  0  0
 29 31  1  0  0  0  0
 29 27  1  0  0  0  0
 30 29  1  0  0  0  0
 32 31  1  0  0  0  0
 33 42  1  0  0  0  0
 34 43  1  0  0  0  0
 35 33  1  0  0  0  0
 35 37  1  0  0  0  0
 36 35  1  0  0  0  0
 37 34  1  1  0  0  0
 37 41  1  0  0  0  0
 38 36  2  0  0  0  0
 38 39  1  0  0  0  0
 39 40  1  0  0  0  0
 40 34  2  0  0  0  0
 42 41  1  0  0  0  0
 43 32  1  0  0  0  0
 44 45  1  0  0  0  0
 45 38  1  0  0  0  0
 46 47  1  0  0  0  0
M  END
>  <MODEL>
5

>  <REMARK>
 VINA RESULT:      -5.5      3.296      7.844
  Name = 
  19 active torsions:
  status: ('A' for Active; 'I' for Inactive)
    1  A    between atoms: C_1  and  C_8
    2  A    between atoms: C_5  and  O_33
    3  A    between atoms: C_5  and  C_38
    4  A    between atoms: N_6  and  C_24
    5  A    between atoms: C_7  and  P_10
    6  A    between atoms: C_7  and  C_15
    7  A    between atoms: C_8  and  C_11
    8  A    between atoms: C_8  and  N_43
    9  A    between atoms: P_10  and  O_33
   10  A    between atoms: C_11  and  C_12
   11  A    between atoms: C_12  and  C_42
   12  A    between atoms: C_14  and  C_45
   13  A    between atoms: N_18  and  C_22
   14  A    between atoms: C_19  and  C_38
   15  A    between atoms: C_22  and  C_39
   16  A    between atoms: C_24  and  O_34
   17  A    between atoms: C_24  and  C_39
   18  A    between atoms: C_26  and  O_40
   19  A    between atoms: N_36  and  C_42
                            x       y       z     vdW  Elec       q    Type
                         _______ _______ _______ _____ _____    ______ ____

>  <TORSDO>
F 19

$$$$
=
 OpenBabel11042421533D

 47 50  0  0  1  0  0  0  0  0999 V2000
  162.0260  209.9700  149.4230 C   0  0  0  0  0  0  0  0  0  0  0  0
  162.2350  208.5420  149.4300 C   0  0  0  0  0  0  0  0  0  0  0  0
  161.9510  210.4480  150.6180 N   0  0  0  0  0  0  0  0  0  0  0  0
  161.9210  210.7700  148.2440 N   0  0  0  0  0  2  0  0  0  0  0  0
  162.1060  209.3470  151.5640 C   0  0  2  0  0  3  0  0  0  0  0  0
  162.2950  208.1400  150.6880 C   0  0  0  0  0  3  0  0  0  0  0  0
  160.8390  209.1980  152.3890 C   0  0  2  0  0  3  0  0  0  0  0  0
  160.9630  209.9610  153.5830 N   0  0  0  0  0  0  0  0  0  0  0  0
  161.1340  208.5330  153.6100 N   0  0  0  0  0  2  0  0  0  0  0  0
  159.6120  210.2330  154.0460 C   0  0  0  0  0  2  0  0  0  0  0  0
  159.5920  210.3630  155.5610 C   0  0  0  0  0  2  0  0  0  0  0  0
  160.7210  211.2720  156.0500 C   0  0  2  0  0  3  0  0  0  0  0  0
  161.6540  210.5380  156.8980 N   0  0  0  0  0  2  0  0  0  0  0  0
  162.9770  210.6960  156.3180 C   0  0  0  0  0  1  0  0  0  0  0  0
  160.2500  212.4540  156.6700 O   0  0  0  0  0  0  0  0  0  0  0  0
  159.6820  213.2890  155.6940 C   0  0  0  0  0  1  0  0  0  0  0  0
  162.4220  207.6640  148.2400 C   0  0  0  0  0  2  0  0  0  0  0  0
  160.2680  206.4880  149.4240 O   0  0  0  0  0  1  0  0  0  0  0  0
  161.1350  206.3810  148.1890 P   0  0  1  0  0  0  0  0  0  0  0  0
  160.1830  206.5990  146.8070 O   0  0  0  0  0  0  0  0  0  0  0  0
  161.8870  204.8600  148.1440 O   0  0  0  0  0  0  0  0  0  0  0  0
  161.1440  204.0490  149.0030 C   0  0  0  0  0  2  0  0  0  0  0  0
  160.6480  202.8330  148.2460 C   0  0  0  0  0  2  0  0  0  0  0  0
  161.0560  201.5940  148.9600 C   0  0  0  0  0  0  0  0  0  0  0  0
  160.9260  201.5140  150.2080 O   0  0  0  0  0  1  0  0  0  0  0  0
  161.5540  200.5110  148.2460 O   0  0  0  0  0  0  0  0  0  0  0  0
  161.6560  212.2030  148.2930 C   0  0  1  0  0  3  0  0  0  0  0  0
  160.5020  213.8490  147.0020 F   0  0  0  0  0  0  0  0  0  0  0  0
  161.2850  212.7100  146.8970 C   0  0  0  0  0  0  0  0  0  0  0  0
  160.5640  211.7270  146.2370 F   0  0  0  0  0  0  0  0  0  0  0  0
  162.5560  213.0110  146.1020 C   0  0  0  0  0  2  0  0  0  0  0  0
  162.2780  213.8580  144.8650 C   0  0  0  0  0  2  0  0  0  0  0  0
  162.2040  212.4360  139.5100 C   0  0  0  0  0  2  0  0  0  0  0  0
  161.2260  212.7170  142.8530 C   0  0  0  0  0  0  0  0  0  0  0  0
  161.1270  212.5970  140.4360 N   0  0  0  0  0  0  0  0  0  0  0  0
  159.9800  213.4150  140.1500 C   0  0  0  0  0  3  0  0  0  0  0  0
  161.3910  211.8410  141.6420 C   0  0  1  0  0  3  0  0  0  0  0  0
  158.9540  213.6080  140.9880 C   0  0  0  0  0  0  0  0  0  0  0  0
  158.8730  212.9360  142.3360 C   0  0  0  0  0  2  0  0  0  0  0  0
  160.0600  213.2150  143.1390 N   0  0  0  0  0  0  0  0  0  0  0  0
  162.7000  211.3230  141.5610 O   0  0  0  0  0  0  0  0  0  0  0  0
  163.1190  211.4640  140.2180 C   0  0  0  0  0  2  0  0  0  0  0  0
  162.3630  213.0460  143.6580 N   0  0  0  0  0  2  0  0  0  0  0  0
  156.5520  214.0900  140.6650 C   0  0  0  0  0  1  0  0  0  0  0  0
  157.9230  214.4500  140.5630 O   0  0  0  0  0  0  0  0  0  0  0  0
  160.5440  212.4910  149.3010 C   0  0  0  0  0  2  0  0  0  0  0  0
  160.8040  213.7940  150.0320 C   0  0  0  0  0  1  0  0  0  0  0  0
  1  2  1  0  0  0  0
  1  3  2  0  0  0  0
  2  6  2  0  0  0  0
  3  5  1  0  0  0  0
  4 27  1  0  0  0  0
  4  1  1  0  0  0  0
  5  6  1  6  0  0  0
  5  7  1  0  0  0  0
  7  8  1  0  0  0  0
  7  9  1  1  0  0  0
  8  9  1  0  0  0  0
  8 10  1  0  0  0  0
 10 11  1  0  0  0  0
 12 11  1  1  0  0  0
 12 15  1  0  0  0  0
 12 13  1  0  0  0  0
 14 13  1  0  0  0  0
 16 15  1  0  0  0  0
 17  2  1  0  0  0  0
 19 20  2  6  0  0  0
 19 17  1  0  0  0  0
 19 18  1  0  0  0  0
 21 19  1  0  0  0  0
 21 22  1  0  0  0  0
 23 24  1  0  0  0  0
 23 22  1  0  0  0  0
 24 25  1  0  0  0  0
 26 24  2  0  0  0  0
 27 46  1  1  0  0  0
 29 28  1  0  0  0  0
 29 27  1  0  0  0  0
 30 29  1  0  0  0  0
 31 29  1  0  0  0  0
 32 31  1  0  0  0  0
 33 42  1  0  0  0  0
 33 35  1  0  0  0  0
 34 40  2  0  0  0  0
 34 43  1  0  0  0  0
 35 37  1  0  0  0  0
 36 35  1  0  0  0  0
 36 38  2  0  0  0  0
 37 41  1  6  0  0  0
 37 34  1  0  0  0  0
 38 39  1  0  0  0  0
 39 40  1  0  0  0  0
 42 41  1  0  0  0  0
 43 32  1  0  0  0  0
 45 44  1  0  0  0  0
 45 38  1  0  0  0  0
 46 47  1  0  0  0  0
M  END
>  <MODEL>
6

>  <REMARK>
 VINA RESULT:      -5.3      4.039      9.552
  Name = 
  19 active torsions:
  status: ('A' for Active; 'I' for Inactive)
    1  A    between atoms: C_1  and  C_8
    2  A    between atoms: C_5  and  O_33
    3  A    between atoms: C_5  and  C_38
    4  A    between atoms: N_6  and  C_24
    5  A    between atoms: C_7  and  P_10
    6  A    between atoms: C_7  and  C_15
    7  A    between atoms: C_8  and  C_11
    8  A    between atoms: C_8  and  N_43
    9  A    between atoms: P_10  and  O_33
   10  A    between atoms: C_11  and  C_12
   11  A    between atoms: C_12  and  C_42
   12  A    between atoms: C_14  and  C_45
   13  A    between atoms: N_18  and  C_22
   14  A    between atoms: C_19  and  C_38
   15  A    between atoms: C_22  and  C_39
   16  A    between atoms: C_24  and  O_34
   17  A    between atoms: C_24  and  C_39
   18  A    between atoms: C_26  and  O_40
   19  A    between atoms: N_36  and  C_42
                            x       y       z     vdW  Elec       q    Type
                         _______ _______ _______ _____ _____    ______ ____

>  <TORSDO>
F 19

$$$$
=
 OpenBabel11042421533D

 47 50  0  0  1  0  0  0  0  0999 V2000
  161.8580  209.0740  150.6990 C   0  0  0  0  0  0  0  0  0  0  0  0
  161.7060  210.0470  149.6440 C   0  0  0  0  0  0  0  0  0  0  0  0
  162.3240  207.9560  150.2560 N   0  0  0  0  0  0  0  0  0  0  0  0
  161.5450  209.3100  152.0730 N   0  0  0  0  0  2  0  0  0  0  0  0
  162.5290  208.0840  148.8150 C   0  0  2  0  0  3  0  0  0  0  0  0
  162.1030  209.4920  148.5120 C   0  0  0  0  0  3  0  0  0  0  0  0
  161.6340  207.0990  148.0820 C   0  0  2  0  0  3  0  0  0  0  0  0
  162.1980  205.7960  148.1680 N   0  0  0  0  0  0  0  0  0  0  0  0
  162.3240  206.5650  146.9590 N   0  0  0  0  0  2  0  0  0  0  0  0
  161.1100  204.8560  147.9590 C   0  0  0  0  0  2  0  0  0  0  0  0
  161.6380  203.5680  147.3470 C   0  0  0  0  0  2  0  0  0  0  0  0
  160.6990  202.3960  147.6400 C   0  0  2  0  0  3  0  0  0  0  0  0
  161.0740  201.7230  148.8800 N   0  0  0  0  0  2  0  0  0  0  0  0
  160.7050  202.6030  149.9750 C   0  0  0  0  0  1  0  0  0  0  0  0
  160.5840  201.4950  146.5550 O   0  0  0  0  0  0  0  0  0  0  0  0
  160.4380  202.2260  145.3650 C   0  0  0  0  0  1  0  0  0  0  0  0
  161.2480  211.4580  149.7930 C   0  0  0  0  0  2  0  0  0  0  0  0
  161.8250  213.9340  148.8140 O   0  0  0  0  0  1  0  0  0  0  0  0
  161.8660  212.4750  148.4180 P   0  0  1  0  0  0  0  0  0  0  0  0
  163.4610  212.0280  148.0660 O   0  0  0  0  0  0  0  0  0  0  0  0
  160.8760  212.2160  147.0650 O   0  0  0  0  0  0  0  0  0  0  0  0
  160.5830  213.4870  146.5670 C   0  0  0  0  0  2  0  0  0  0  0  0
  160.6160  213.4550  145.0520 C   0  0  0  0  0  2  0  0  0  0  0  0
  159.5910  212.5040  144.5450 C   0  0  0  0  0  0  0  0  0  0  0  0
  158.5250  212.3260  145.1880 O   0  0  0  0  0  1  0  0  0  0  0  0
  159.7960  211.8330  143.3460 O   0  0  0  0  0  0  0  0  0  0  0  0
  161.6670  208.2730  153.0910 C   0  0  1  0  0  3  0  0  0  0  0  0
  161.7980  208.0870  155.4690 F   0  0  0  0  0  0  0  0  0  0  0  0
  161.2180  208.8230  154.4480 C   0  0  0  0  0  0  0  0  0  0  0  0
  159.8400  208.7180  154.5430 F   0  0  0  0  0  0  0  0  0  0  0  0
  161.6120  210.2960  154.5640 C   0  0  0  0  0  2  0  0  0  0  0  0
  160.6150  211.2180  153.8710 C   0  0  0  0  0  2  0  0  0  0  0  0
  155.6180  212.1410  156.0780 C   0  0  0  0  0  2  0  0  0  0  0  0
  158.6960  212.7430  154.5360 C   0  0  0  0  0  0  0  0  0  0  0  0
  156.3430  212.8830  155.0960 N   0  0  0  0  0  0  0  0  0  0  0  0
  155.7660  213.2640  153.8360 C   0  0  0  0  0  3  0  0  0  0  0  0
  157.6840  213.1580  155.5690 C   0  0  1  0  0  3  0  0  0  0  0  0
  156.4070  213.9460  152.8790 C   0  0  0  0  0  0  0  0  0  0  0  0
  157.8240  214.4370  153.0460 C   0  0  0  0  0  2  0  0  0  0  0  0
  158.7270  213.3410  153.3830 N   0  0  0  0  0  0  0  0  0  0  0  0
  157.8750  212.4610  156.7810 O   0  0  0  0  0  0  0  0  0  0  0  0
  156.6010  212.0400  157.2230 C   0  0  0  0  0  2  0  0  0  0  0  0
  159.5860  211.6540  154.8050 N   0  0  0  0  0  2  0  0  0  0  0  0
  156.2980  214.1040  150.4150 C   0  0  0  0  0  1  0  0  0  0  0  0
  155.7060  214.2210  151.7020 O   0  0  0  0  0  0  0  0  0  0  0  0
  160.8430  207.0500  152.6880 C   0  0  0  0  0  2  0  0  0  0  0  0
  161.2540  205.8340  153.4960 C   0  0  0  0  0  1  0  0  0  0  0  0
  1  4  1  0  0  0  0
  2 17  1  0  0  0  0
  2  1  1  0  0  0  0
  3  1  2  0  0  0  0
  4 27  1  0  0  0  0
  5  6  1  6  0  0  0
  5  3  1  0  0  0  0
  6  2  2  0  0  0  0
  7  9  1  6  0  0  0
  7  8  1  0  0  0  0
  7  5  1  0  0  0  0
  9  8  1  0  0  0  0
 10  8  1  0  0  0  0
 11 10  1  0  0  0  0
 12 11  1  6  0  0  0
 12 13  1  0  0  0  0
 13 14  1  0  0  0  0
 15 12  1  0  0  0  0
 16 15  1  0  0  0  0
 19 20  2  6  0  0  0
 19 18  1  0  0  0  0
 19 17  1  0  0  0  0
 21 19  1  0  0  0  0
 22 21  1  0  0  0  0
 23 22  1  0  0  0  0
 24 23  1  0  0  0  0
 24 25  1  0  0  0  0
 26 24  2  0  0  0  0
 27 46  1  6  0  0  0
 27 29  1  0  0  0  0
 29 30  1  0  0  0  0
 29 31  1  0  0  0  0
 29 28  1  0  0  0  0
 32 31  1  0  0  0  0
 32 43  1  0  0  0  0
 33 42  1  0  0  0  0
 34 43  1  0  0  0  0
 35 37  1  0  0  0  0
 35 33  1  0  0  0  0
 36 35  1  0  0  0  0
 37 34  1  6  0  0  0
 37 41  1  0  0  0  0
 38 39  1  0  0  0  0
 38 36  2  0  0  0  0
 39 40  1  0  0  0  0
 40 34  2  0  0  0  0
 41 42  1  0  0  0  0
 44 45  1  0  0  0  0
 45 38  1  0  0  0  0
 46 47  1  0  0  0  0
M  END
>  <MODEL>
7

>  <REMARK>
 VINA RESULT:      -5.3      1.520      2.023
  Name = 
  19 active torsions:
  status: ('A' for Active; 'I' for Inactive)
    1  A    between atoms: C_1  and  C_8
    2  A    between atoms: C_5  and  O_33
    3  A    between atoms: C_5  and  C_38
    4  A    between atoms: N_6  and  C_24
    5  A    between atoms: C_7  and  P_10
    6  A    between atoms: C_7  and  C_15
    7  A    between atoms: C_8  and  C_11
    8  A    between atoms: C_8  and  N_43
    9  A    between atoms: P_10  and  O_33
   10  A    between atoms: C_11  and  C_12
   11  A    between atoms: C_12  and  C_42
   12  A    between atoms: C_14  and  C_45
   13  A    between atoms: N_18  and  C_22
   14  A    between atoms: C_19  and  C_38
   15  A    between atoms: C_22  and  C_39
   16  A    between atoms: C_24  and  O_34
   17  A    between atoms: C_24  and  C_39
   18  A    between atoms: C_26  and  O_40
   19  A    between atoms: N_36  and  C_42
                            x       y       z     vdW  Elec       q    Type
                         _______ _______ _______ _____ _____    ______ ____

>  <TORSDO>
F 19

$$$$
=
 OpenBabel11042421533D

 47 50  0  0  1  0  0  0  0  0999 V2000
  160.5100  210.4850  152.6100 C   0  0  0  0  0  0  0  0  0  0  0  0
  160.3100  211.4140  153.6950 C   0  0  0  0  0  0  0  0  0  0  0  0
  160.3390  211.0460  151.4610 N   0  0  0  0  0  0  0  0  0  0  0  0
  160.8650  209.1100  152.7710 N   0  0  0  0  0  2  0  0  0  0  0  0
  159.9930  212.4480  151.6830 C   0  0  2  0  0  3  0  0  0  0  0  0
  160.0080  212.5920  153.1780 C   0  0  0  0  0  3  0  0  0  0  0  0
  158.5980  212.7220  151.1470 C   0  0  2  0  0  3  0  0  0  0  0  0
  158.5250  214.0670  150.6900 N   0  0  0  0  0  0  0  0  0  0  0  0
  157.9540  213.6960  151.9580 N   0  0  0  0  0  2  0  0  0  0  0  0
  157.4320  214.1240  149.7350 C   0  0  0  0  0  2  0  0  0  0  0  0
  157.7280  213.2300  148.5410 C   0  0  0  0  0  2  0  0  0  0  0  0
  158.8520  213.8140  147.6840 C   0  0  2  0  0  3  0  0  0  0  0  0
  158.4850  213.8160  146.2710 N   0  0  0  0  0  2  0  0  0  0  0  0
  157.0340  213.7960  146.2040 C   0  0  0  0  0  1  0  0  0  0  0  0
  160.1020  213.1910  147.9100 O   0  0  0  0  0  0  0  0  0  0  0  0
  160.4150  212.3790  146.8090 C   0  0  0  0  0  1  0  0  0  0  0  0
  160.4760  211.1330  155.1500 C   0  0  0  0  0  2  0  0  0  0  0  0
  158.8370  210.5960  157.2590 O   0  0  0  0  0  1  0  0  0  0  0  0
  158.9370  211.4960  156.0470 P   0  0  1  0  0  0  0  0  0  0  0  0
  158.9480  213.1150  156.5420 O   0  0  0  0  0  0  0  0  0  0  0  0
  157.6250  211.2130  155.0090 O   0  0  0  0  0  0  0  0  0  0  0  0
  156.6640  212.1640  155.3530 C   0  0  0  0  0  2  0  0  0  0  0  0
  155.9400  211.7190  156.6080 C   0  0  0  0  0  2  0  0  0  0  0  0
  155.0760  210.5470  156.3030 C   0  0  0  0  0  0  0  0  0  0  0  0
  154.0700  210.3030  157.0180 O   0  0  0  0  0  1  0  0  0  0  0  0
  155.3600  209.7380  155.2100 O   0  0  0  0  0  0  0  0  0  0  0  0
  161.0030  208.2000  151.6400 C   0  0  1  0  0  3  0  0  0  0  0  0
  163.1440  207.3770  150.9740 F   0  0  0  0  0  0  0  0  0  0  0  0
  162.3140  208.4840  150.9030 C   0  0  0  0  0  0  0  0  0  0  0  0
  162.9460  209.5600  151.5050 F   0  0  0  0  0  0  0  0  0  0  0  0
  162.0200  208.8350  149.4440 C   0  0  0  0  0  2  0  0  0  0  0  0
  162.6910  207.8720  148.4710 C   0  0  0  0  0  2  0  0  0  0  0  0
  161.6340  202.5310  147.4450 C   0  0  0  0  0  2  0  0  0  0  0  0
  161.2160  205.9970  147.6000 C   0  0  0  0  0  0  0  0  0  0  0  0
  161.1310  203.7080  146.8100 N   0  0  0  0  0  0  0  0  0  0  0  0
  161.1660  203.8900  145.3850 C   0  0  0  0  0  3  0  0  0  0  0  0
  160.6220  204.6300  147.8030 C   0  0  1  0  0  3  0  0  0  0  0  0
  160.7210  204.9790  144.7450 C   0  0  0  0  0  0  0  0  0  0  0  0
  160.0820  206.1380  145.4680 C   0  0  0  0  0  2  0  0  0  0  0  0
  160.9590  206.6590  146.5110 N   0  0  0  0  0  0  0  0  0  0  0  0
  160.9360  204.1210  149.0810 O   0  0  0  0  0  0  0  0  0  0  0  0
  161.3290  202.7740  148.9050 C   0  0  0  0  0  2  0  0  0  0  0  0
  162.1050  206.5420  148.5790 N   0  0  0  0  0  2  0  0  0  0  0  0
  161.7730  205.8470  142.6840 C   0  0  0  0  0  1  0  0  0  0  0  0
  160.8450  205.0050  143.3530 O   0  0  0  0  0  0  0  0  0  0  0  0
  160.9440  206.7530  152.1290 C   0  0  0  0  0  2  0  0  0  0  0  0
  161.3790  206.6560  153.5780 C   0  0  0  0  0  1  0  0  0  0  0  0
  1  4  1  0  0  0  0
  1  2  1  0  0  0  0
  2 17  1  0  0  0  0
  3  5  1  0  0  0  0
  3  1  2  0  0  0  0
  5  6  1  1  0  0  0
  6  2  2  0  0  0  0
  7  5  1  0  0  0  0
  7  9  1  1  0  0  0
  8  7  1  0  0  0  0
  8  9  1  0  0  0  0
 10  8  1  0  0  0  0
 11 10  1  0  0  0  0
 12 15  1  0  0  0  0
 12 11  1  1  0  0  0
 13 12  1  0  0  0  0
 14 13  1  0  0  0  0
 16 15  1  0  0  0  0
 17 19  1  0  0  0  0
 19 20  2  1  0  0  0
 19 18  1  0  0  0  0
 21 22  1  0  0  0  0
 21 19  1  0  0  0  0
 22 23  1  0  0  0  0
 24 23  1  0  0  0  0
 24 25  1  0  0  0  0
 26 24  2  0  0  0  0
 27 46  1  1  0  0  0
 27  4  1  0  0  0  0
 29 28  1  0  0  0  0
 29 30  1  0  0  0  0
 29 27  1  0  0  0  0
 31 29  1  0  0  0  0
 32 43  1  0  0  0  0
 32 31  1  0  0  0  0
 33 42  1  0  0  0  0
 34 43  1  0  0  0  0
 35 33  1  0  0  0  0
 35 37  1  0  0  0  0
 36 35  1  0  0  0  0
 37 34  1  6  0  0  0
 37 41  1  0  0  0  0
 38 36  2  0  0  0  0
 38 39  1  0  0  0  0
 39 40  1  0  0  0  0
 40 34  2  0  0  0  0
 42 41  1  0  0  0  0
 44 45  1  0  0  0  0
 45 38  1  0  0  0  0
 46 47  1  0  0  0  0
M  END
>  <MODEL>
8

>  <REMARK>
 VINA RESULT:      -5.1      3.004      9.508
  Name = 
  19 active torsions:
  status: ('A' for Active; 'I' for Inactive)
    1  A    between atoms: C_1  and  C_8
    2  A    between atoms: C_5  and  O_33
    3  A    between atoms: C_5  and  C_38
    4  A    between atoms: N_6  and  C_24
    5  A    between atoms: C_7  and  P_10
    6  A    between atoms: C_7  and  C_15
    7  A    between atoms: C_8  and  C_11
    8  A    between atoms: C_8  and  N_43
    9  A    between atoms: P_10  and  O_33
   10  A    between atoms: C_11  and  C_12
   11  A    between atoms: C_12  and  C_42
   12  A    between atoms: C_14  and  C_45
   13  A    between atoms: N_18  and  C_22
   14  A    between atoms: C_19  and  C_38
   15  A    between atoms: C_22  and  C_39
   16  A    between atoms: C_24  and  O_34
   17  A    between atoms: C_24  and  C_39
   18  A    between atoms: C_26  and  O_40
   19  A    between atoms: N_36  and  C_42
                            x       y       z     vdW  Elec       q    Type
                         _______ _______ _______ _____ _____    ______ ____

>  <TORSDO>
F 19

$$$$
=
 OpenBabel11042421533D

 47 50  0  0  1  0  0  0  0  0999 V2000
  161.9570  210.3610  149.5570 C   0  0  0  0  0  0  0  0  0  0  0  0
  162.0790  208.9270  149.6580 C   0  0  0  0  0  0  0  0  0  0  0  0
  162.0690  210.9340  150.7070 N   0  0  0  0  0  0  0  0  0  0  0  0
  161.7470  211.0750  148.3370 N   0  0  0  0  0  2  0  0  0  0  0  0
  162.2800  209.8990  151.7160 C   0  0  2  0  0  3  0  0  0  0  0  0
  162.2790  208.6190  150.9280 C   0  0  0  0  0  3  0  0  0  0  0  0
  161.1250  209.9030  152.7030 C   0  0  2  0  0  3  0  0  0  0  0  0
  160.6030  211.2230  152.8110 N   0  0  0  0  0  0  0  0  0  0  0  0
  161.4630  210.6920  153.8360 N   0  0  0  0  0  2  0  0  0  0  0  0
  159.2400  211.0930  153.2960 C   0  0  0  0  0  2  0  0  0  0  0  0
  159.2160  210.2990  154.5930 C   0  0  0  0  0  2  0  0  0  0  0  0
  158.4160  211.0320  155.6710 C   0  0  2  0  0  3  0  0  0  0  0  0
  157.8270  212.2590  155.1420 N   0  0  0  0  0  2  0  0  0  0  0  0
  157.9710  213.2800  156.1650 C   0  0  0  0  0  1  0  0  0  0  0  0
  159.1620  211.2630  156.8520 O   0  0  0  0  0  0  0  0  0  0  0  0
  159.9800  210.1490  157.1020 C   0  0  0  0  0  1  0  0  0  0  0  0
  162.0560  207.9500  148.5330 C   0  0  0  0  0  2  0  0  0  0  0  0
  162.3710  205.5530  149.7890 O   0  0  0  0  0  0  0  0  0  0  0  0
  161.3240  206.3760  149.0730 P   0  0  1  0  0  0  0  0  0  0  0  0
  160.0350  206.6910  150.1240 O   0  0  0  0  0  1  0  0  0  0  0  0
  160.7680  205.5380  147.7060 O   0  0  0  0  0  0  0  0  0  0  0  0
  161.4760  204.3360  147.6900 C   0  0  0  0  0  2  0  0  0  0  0  0
  161.5840  203.8330  146.2640 C   0  0  0  0  0  2  0  0  0  0  0  0
  161.6550  204.9860  145.3260 C   0  0  0  0  0  0  0  0  0  0  0  0
  162.6840  205.7090  145.2940 O   0  0  0  0  0  1  0  0  0  0  0  0
  160.5970  205.2480  144.4650 O   0  0  0  0  0  0  0  0  0  0  0  0
  161.5770  212.5230  148.2980 C   0  0  1  0  0  3  0  0  0  0  0  0
  163.4630  212.1770  146.8740 F   0  0  0  0  0  0  0  0  0  0  0  0
  162.5420  213.1310  147.2770 C   0  0  0  0  0  0  0  0  0  0  0  0
  163.2170  214.1870  147.8690 F   0  0  0  0  0  0  0  0  0  0  0  0
  161.7580  213.6550  146.0740 C   0  0  0  0  0  2  0  0  0  0  0  0
  162.2980  213.1180  144.7530 C   0  0  0  0  0  2  0  0  0  0  0  0
  158.5370  212.5950  140.7180 C   0  0  0  0  0  2  0  0  0  0  0  0
  161.6180  213.0330  142.3070 C   0  0  0  0  0  0  0  0  0  0  0  0
  159.9390  212.3230  140.7110 N   0  0  0  0  0  0  0  0  0  0  0  0
  160.4810  211.0720  140.2570 C   0  0  0  0  0  3  0  0  0  0  0  0
  160.6700  213.4640  141.2220 C   0  0  1  0  0  3  0  0  0  0  0  0
  161.7840  210.7640  140.2440 C   0  0  0  0  0  0  0  0  0  0  0  0
  162.8490  211.7410  140.6740 C   0  0  0  0  0  2  0  0  0  0  0  0
  162.6020  212.2320  142.0260 N   0  0  0  0  0  0  0  0  0  0  0  0
  159.7370  214.4060  141.7030 O   0  0  0  0  0  0  0  0  0  0  0  0
  158.4690  214.0220  141.2110 C   0  0  0  0  0  2  0  0  0  0  0  0
  161.4040  213.4630  143.6550 N   0  0  0  0  0  2  0  0  0  0  0  0
  161.1860  208.5430  139.3420 C   0  0  0  0  0  1  0  0  0  0  0  0
  162.1430  209.4930  139.7870 O   0  0  0  0  0  0  0  0  0  0  0  0
  160.1260  212.8660  147.9620 C   0  0  0  0  0  2  0  0  0  0  0  0
  159.5490  213.8270  148.9830 C   0  0  0  0  0  1  0  0  0  0  0  0
  1  2  1  0  0  0  0
  1  3  2  0  0  0  0
  2  6  2  0  0  0  0
  3  5  1  0  0  0  0
  4  1  1  0  0  0  0
  5  6  1  6  0  0  0
  5  7  1  0  0  0  0
  7  8  1  0  0  0  0
  7  9  1  1  0  0  0
  8 10  1  0  0  0  0
  8  9  1  0  0  0  0
 10 11  1  0  0  0  0
 12 11  1  6  0  0  0
 12 15  1  0  0  0  0
 13 12  1  0  0  0  0
 13 14  1  0  0  0  0
 15 16  1  0  0  0  0
 17 19  1  0  0  0  0
 17  2  1  0  0  0  0
 19 18  2  1  0  0  0
 19 20  1  0  0  0  0
 21 19  1  0  0  0  0
 22 21  1  0  0  0  0
 23 22  1  0  0  0  0
 24 23  1  0  0  0  0
 25 24  1  0  0  0  0
 26 24  2  0  0  0  0
 27 46  1  6  0  0  0
 27  4  1  0  0  0  0
 28 29  1  0  0  0  0
 29 30  1  0  0  0  0
 29 27  1  0  0  0  0
 31 29  1  0  0  0  0
 32 31  1  0  0  0  0
 33 42  1  0  0  0  0
 34 43  1  0  0  0  0
 35 33  1  0  0  0  0
 35 37  1  0  0  0  0
 36 35  1  0  0  0  0
 37 41  1  1  0  0  0
 37 34  1  0  0  0  0
 38 36  2  0  0  0  0
 38 39  1  0  0  0  0
 39 40  1  0  0  0  0
 40 34  2  0  0  0  0
 42 41  1  0  0  0  0
 43 32  1  0  0  0  0
 44 45  1  0  0  0  0
 45 38  1  0  0  0  0
 46 47  1  0  0  0  0
M  END
>  <MODEL>
9

>  <REMARK>
 VINA RESULT:      -5.0      3.943      9.253
  Name = 
  19 active torsions:
  status: ('A' for Active; 'I' for Inactive)
    1  A    between atoms: C_1  and  C_8
    2  A    between atoms: C_5  and  O_33
    3  A    between atoms: C_5  and  C_38
    4  A    between atoms: N_6  and  C_24
    5  A    between atoms: C_7  and  P_10
    6  A    between atoms: C_7  and  C_15
    7  A    between atoms: C_8  and  C_11
    8  A    between atoms: C_8  and  N_43
    9  A    between atoms: P_10  and  O_33
   10  A    between atoms: C_11  and  C_12
   11  A    between atoms: C_12  and  C_42
   12  A    between atoms: C_14  and  C_45
   13  A    between atoms: N_18  and  C_22
   14  A    between atoms: C_19  and  C_38
   15  A    between atoms: C_22  and  C_39
   16  A    between atoms: C_24  and  O_34
   17  A    between atoms: C_24  and  C_39
   18  A    between atoms: C_26  and  O_40
   19  A    between atoms: N_36  and  C_42
                            x       y       z     vdW  Elec       q    Type
                         _______ _______ _______ _____ _____    ______ ____

>  <TORSDO>
F 19

$$$$
