=
 OpenBabel11042421013D

 59 62  0  0  1  0  0  0  0  0999 V2000
  162.1130  208.1730  152.6050 C   0  0  0  0  0  2  0  0  0  0  0  0
  159.3990  212.1170  153.9310 O   0  0  0  0  0  0  0  0  0  0  0  0
  162.0670  209.6750  150.6100 C   0  0  0  0  0  3  0  0  0  0  0  0
  162.1400  211.0250  148.5710 C   0  0  0  0  0  1  0  0  0  0  0  0
  159.2050  213.5070  152.1330 N   0  0  0  0  0  0  0  0  0  0  0  0
  161.6910  209.4320  151.9270 C   0  0  0  0  0  0  0  0  0  0  0  0
  159.4800  213.7900  150.8340 C   0  0  0  0  0  3  0  0  0  0  0  0
  159.6790  212.3710  152.7260 C   0  0  0  0  0  0  0  0  0  0  0  0
  160.4750  211.4750  151.9950 C   0  0  0  0  0  0  0  0  0  0  0  0
  160.8000  211.7560  150.6420 C   0  0  0  0  0  0  0  0  0  0  0  0
  160.9210  210.3320  152.5860 N   0  0  0  0  0  0  0  0  0  0  0  0
  160.2690  212.9380  150.0560 C   0  0  0  0  0  0  0  0  0  0  0  0
  161.6390  210.8320  149.9610 C   0  0  0  0  0  0  0  0  0  0  0  0
  156.9220  214.3130  152.4630 C   0  0  0  0  0  1  0  0  0  0  0  0
  158.3780  214.4490  152.8800 C   0  0  0  0  0  2  0  0  0  0  0  0
  160.4470  213.3020  148.6160 C   0  0  0  0  0  2  0  0  0  0  0  0
  161.4990  214.3860  148.4720 C   0  0  0  0  0  2  0  0  0  0  0  0
  162.0970  214.3520  147.0790 C   0  0  0  0  0  2  0  0  0  0  0  0
  161.2840  213.5860  146.2410 O   0  0  0  0  0  0  0  0  0  0  0  0
  161.5780  214.0340  144.9510 C   0  0  0  0  0  2  0  0  0  0  0  0
  163.7830  213.3230  144.3930 O   0  0  0  0  0  1  0  0  0  0  0  0
  162.4310  213.0050  144.2330 C   0  0  2  0  0  3  0  0  0  0  0  0
  162.0890  212.9990  142.8180 N   0  0  0  0  0  2  0  0  0  0  0  0
  160.8630  212.2320  142.6520 C   0  0  0  0  0  2  0  0  0  0  0  0
  161.3960  209.9190  139.0730 C   0  0  0  0  0  2  0  0  0  0  0  0
  159.8920  211.4570  140.4750 C   0  0  0  0  0  2  0  0  0  0  0  0
  160.9990  211.2420  141.5060 C   0  0  0  0  0  3  0  0  0  0  0  0
  159.9720  210.4230  139.3440 C   0  0  0  0  0  2  0  0  0  0  0  0
  162.4330  210.9930  139.3870 C   0  0  0  0  0  2  0  0  0  0  0  0
  162.3880  211.3900  140.8700 C   0  0  0  0  0  2  0  0  0  0  0  0
  161.1190  207.1210  152.4230 N   0  0  0  0  0  0  0  0  0  0  0  0
  160.6190  206.6900  153.7340 C   0  0  0  0  0  2  0  0  0  0  0  0
  160.9740  207.5900  154.7460 O   0  0  0  0  0  0  0  0  0  0  0  0
  160.3530  207.0900  155.8950 C   0  0  0  0  0  2  0  0  0  0  0  0
  159.9880  208.2250  156.8350 C   0  0  0  0  0  2  0  0  0  0  0  0
  159.4790  210.5560  156.9150 O   0  0  0  0  0  1  0  0  0  0  0  0
  160.0700  209.5660  156.1300 C   0  0  0  0  0  2  0  0  0  0  0  0
  161.7920  206.0000  151.7820 C   0  0  0  0  0  2  0  0  0  0  0  0
  160.8740  204.7920  151.7360 C   0  0  0  0  0  2  0  0  0  0  0  0
  161.6300  203.6280  151.3070 N   0  0  0  0  0  2  0  0  0  0  0  0
  160.8240  202.4660  151.6270 C   0  0  0  0  0  2  0  0  0  0  0  0
  161.3060  201.3250  150.8690 N   0  0  0  0  0  2  0  0  0  0  0  0
  161.2390  201.6790  149.5160 N   0  0  0  0  0  2  0  0  0  0  0  0
  161.8210  200.5800  148.7680 C   0  0  0  0  0  2  0  0  0  0  0  0
  161.2780  199.5750  146.6590 O   0  0  0  0  0  1  0  0  0  0  0  0
  161.6010  200.7890  147.2780 C   0  0  1  0  0  3  0  0  0  0  0  0
  160.5090  201.8340  147.0480 C   0  0  2  0  0  3  0  0  0  0  0  0
  159.1180  201.3290  147.4030 C   0  0  0  0  0  1  0  0  0  0  0  0
  160.5430  202.3900  145.6580 C   0  0  0  0  0  0  0  0  0  0  0  0
  159.8340  201.8860  144.8010 O   0  0  0  0  0  0  0  0  0  0  0  0
  160.8640  204.5090  144.3290 C   0  0  0  0  0  2  0  0  0  0  0  0
  162.4010  205.6710  145.8440 C   0  0  0  0  0  2  0  0  0  0  0  0
  162.0050  204.3470  146.4750 C   0  0  2  0  0  3  0  0  0  0  0  0
  161.4710  203.5260  145.3050 C   0  0  1  0  0  3  0  0  0  0  0  0
  161.6040  205.8130  144.5530 C   0  0  0  0  0  2  0  0  0  0  0  0
  160.9610  204.5980  147.5640 C   0  0  0  0  0  2  0  0  0  0  0  0
  161.1910  205.9150  148.2200 C   0  0  0  0  0  0  0  0  0  0  0  0
  160.2330  206.5280  148.7590 O   0  0  0  0  0  1  0  0  0  0  0  0
  162.4660  206.4600  148.2610 O   0  0  0  0  0  0  0  0  0  0  0  0
  3  6  1  0  0  0  0
  4 13  1  0  0  0  0
  5  8  1  0  0  0  0
  5 15  1  0  0  0  0
  6 11  2  0  0  0  0
  6  1  1  0  0  0  0
  7  5  1  0  0  0  0
  8  2  2  0  0  0  0
  9 11  1  0  0  0  0
  9  8  1  0  0  0  0
 10  9  2  0  0  0  0
 12 10  1  0  0  0  0
 12  7  2  0  0  0  0
 13  3  2  0  0  0  0
 13 10  1  0  0  0  0
 14 15  1  0  0  0  0
 16 12  1  0  0  0  0
 17 16  1  0  0  0  0
 18 17  1  0  0  0  0
 19 18  1  0  0  0  0
 20 19  1  0  0  0  0
 22 21  1  6  0  0  0
 22 20  1  0  0  0  0
 23 22  1  0  0  0  0
 24 23  1  0  0  0  0
 25 28  1  0  0  0  0
 25 29  1  0  0  0  0
 26 27  1  0  0  0  0
 27 24  1  0  0  0  0
 28 26  1  0  0  0  0
 29 30  1  0  0  0  0
 30 27  1  0  0  0  0
 31  1  1  0  0  0  0
 31 32  1  0  0  0  0
 32 33  1  0  0  0  0
 33 34  1  0  0  0  0
 34 35  1  0  0  0  0
 37 35  1  0  0  0  0
 37 36  1  0  0  0  0
 38 31  1  0  0  0  0
 39 38  1  0  0  0  0
 40 41  1  0  0  0  0
 40 39  1  0  0  0  0
 42 41  1  0  0  0  0
 43 42  1  0  0  0  0
 44 43  1  0  0  0  0
 46 45  1  1  0  0  0
 46 44  1  0  0  0  0
 47 46  1  0  0  0  0
 47 48  1  6  0  0  0
 49 47  1  0  0  0  0
 50 49  2  0  0  0  0
 51 55  1  0  0  0  0
 51 54  1  0  0  0  0
 52 53  1  0  0  0  0
 53 56  1  1  0  0  0
 54 49  1  1  0  0  0
 54 53  1  0  0  0  0
 55 52  1  0  0  0  0
 56 57  1  0  0  0  0
 57 59  2  0  0  0  0
 57 58  1  0  0  0  0
M  END
>  <MODEL>
1

>  <REMARK>
 VINA RESULT:      -5.1      0.000      0.000
  Name = 
  30 active torsions:
  status: ('A' for Active; 'I' for Inactive)
    1  A    between atoms: N_1  and  C_16
    2  A    between atoms: N_1  and  C_25
    3  A    between atoms: N_1  and  C_29
    4  A    between atoms: C_4  and  C_17
    5  A    between atoms: C_6  and  C_19
    6  A    between atoms: C_6  and  C_35
    7  A    between atoms: N_9  and  C_37
    8  A    between atoms: N_9  and  C_43
    9  A    between atoms: C_12  and  C_46
   10  A    between atoms: C_12  and  C_54
   11  A    between atoms: N_14  and  N_55
   12  A    between atoms: N_14  and  C_59
   13  A    between atoms: C_16  and  C_31
   14  A    between atoms: C_17  and  C_18
   15  A    between atoms: C_21  and  N_30
   16  A    between atoms: C_21  and  N_55
   17  A    between atoms: C_23  and  C_41
   18  A    between atoms: C_23  and  C_49
   19  A    between atoms: N_24  and  C_58
   20  A    between atoms: C_25  and  O_48
   21  A    between atoms: C_26  and  C_29
   22  A    between atoms: C_28  and  C_43
   23  A    between atoms: C_28  and  O_47
   24  A    between atoms: N_30  and  C_31
   25  A    between atoms: C_32  and  C_37
   26  A    between atoms: C_35  and  C_57
   27  A    between atoms: C_41  and  O_47
   28  A    between atoms: C_46  and  O_48
   29  A    between atoms: C_49  and  C_50
   30  A    between atoms: C_57  and  C_59
                            x       y       z     vdW  Elec       q    Type
                         _______ _______ _______ _____ _____    ______ ____

>  <TORSDO>
F 30

$$$$
=
 OpenBabel11042421013D

 59 62  0  0  1  0  0  0  0  0999 V2000
  162.2720  210.8630  151.2560 C   0  0  0  0  0  2  0  0  0  0  0  0
  158.1330  213.1510  149.7360 O   0  0  0  0  0  0  0  0  0  0  0  0
  162.7800  211.7580  148.9800 C   0  0  0  0  0  3  0  0  0  0  0  0
  163.4560  212.5730  146.7740 C   0  0  0  0  0  1  0  0  0  0  0  0
  158.4590  213.9140  147.6110 N   0  0  0  0  0  0  0  0  0  0  0  0
  161.8760  211.6090  150.0260 C   0  0  0  0  0  0  0  0  0  0  0  0
  159.2620  214.0530  146.5250 C   0  0  0  0  0  3  0  0  0  0  0  0
  158.8990  213.2840  148.7400 C   0  0  0  0  0  0  0  0  0  0  0  0
  160.2050  212.7730  148.7980 C   0  0  0  0  0  0  0  0  0  0  0  0
  161.0760  212.9240  147.6870 C   0  0  0  0  0  0  0  0  0  0  0  0
  160.6270  212.1230  149.9180 N   0  0  0  0  0  0  0  0  0  0  0  0
  160.5720  213.5670  146.5230 C   0  0  0  0  0  0  0  0  0  0  0  0
  162.3990  212.4190  147.8140 C   0  0  0  0  0  0  0  0  0  0  0  0
  156.3620  213.8400  146.3600 C   0  0  0  0  0  1  0  0  0  0  0  0
  157.1050  214.4530  147.5370 C   0  0  0  0  0  2  0  0  0  0  0  0
  161.3450  213.7010  145.2490 C   0  0  0  0  0  2  0  0  0  0  0  0
  160.6110  213.0160  144.1110 C   0  0  0  0  0  2  0  0  0  0  0  0
  159.8840  214.0430  143.2650 C   0  0  0  0  0  2  0  0  0  0  0  0
  159.8430  213.6080  141.9380 O   0  0  0  0  0  0  0  0  0  0  0  0
  160.4280  212.3400  141.9590 C   0  0  0  0  0  2  0  0  0  0  0  0
  162.1560  213.0730  140.4920 O   0  0  0  0  0  1  0  0  0  0  0  0
  161.1700  212.0960  140.6590 C   0  0  2  0  0  3  0  0  0  0  0  0
  160.2290  212.1480  139.5500 N   0  0  0  0  0  2  0  0  0  0  0  0
  159.3580  210.9850  139.6390 C   0  0  0  0  0  2  0  0  0  0  0  0
  155.4330  211.6070  138.0100 C   0  0  0  0  0  2  0  0  0  0  0  0
  157.2040  209.9590  138.8740 C   0  0  0  0  0  2  0  0  0  0  0  0
  158.0680  211.2190  138.8700 C   0  0  0  0  0  3  0  0  0  0  0  0
  155.9270  210.1540  138.0450 C   0  0  0  0  0  2  0  0  0  0  0  0
  155.7970  212.3460  139.2940 C   0  0  0  0  0  2  0  0  0  0  0  0
  157.3190  212.4090  139.4860 C   0  0  0  0  0  2  0  0  0  0  0  0
  161.1280  210.6690  152.1410 N   0  0  0  0  0  0  0  0  0  0  0  0
  161.5630  210.7980  153.5370 C   0  0  0  0  0  2  0  0  0  0  0  0
  160.4950  211.1110  154.3870 O   0  0  0  0  0  0  0  0  0  0  0  0
  159.9670  212.2960  153.8650 C   0  0  0  0  0  2  0  0  0  0  0  0
  158.4580  212.1870  153.7300 C   0  0  0  0  0  2  0  0  0  0  0  0
  156.4500  213.4750  153.6470 O   0  0  0  0  0  1  0  0  0  0  0  0
  157.8330  213.5470  153.4820 C   0  0  0  0  0  2  0  0  0  0  0  0
  160.6410  209.3140  151.9220 C   0  0  0  0  0  2  0  0  0  0  0  0
  160.9970  208.4300  153.1030 C   0  0  0  0  0  2  0  0  0  0  0  0
  160.4960  207.0870  152.8680 N   0  0  0  0  0  2  0  0  0  0  0  0
  161.0270  206.2520  153.9280 C   0  0  0  0  0  2  0  0  0  0  0  0
  161.2340  204.9070  153.4210 N   0  0  0  0  0  2  0  0  0  0  0  0
  162.0100  205.0250  152.2620 N   0  0  0  0  0  2  0  0  0  0  0  0
  162.2720  203.6750  151.7960 C   0  0  0  0  0  2  0  0  0  0  0  0
  160.0100  203.0780  151.2670 O   0  0  0  0  0  1  0  0  0  0  0  0
  161.2760  203.2970  150.7100 C   0  0  1  0  0  3  0  0  0  0  0  0
  161.2260  204.3850  149.6370 C   0  0  2  0  0  3  0  0  0  0  0  0
  160.0030  205.2830  149.7570 C   0  0  0  0  0  1  0  0  0  0  0  0
  161.3500  203.8210  148.2560 C   0  0  0  0  0  0  0  0  0  0  0  0
  161.3330  202.6090  148.1070 O   0  0  0  0  0  0  0  0  0  0  0  0
  162.9890  205.0460  146.7810 C   0  0  0  0  0  2  0  0  0  0  0  0
  161.7110  205.0060  144.6900 C   0  0  0  0  0  2  0  0  0  0  0  0
  160.9280  204.2540  145.7510 C   0  0  2  0  0  3  0  0  0  0  0  0
  161.5370  204.7300  147.0660 C   0  0  1  0  0  3  0  0  0  0  0  0
  163.0430  205.4090  145.3100 C   0  0  0  0  0  2  0  0  0  0  0  0
  161.0850  202.7490  145.5230 C   0  0  0  0  0  2  0  0  0  0  0  0
  159.9080  202.2020  144.7930 C   0  0  0  0  0  0  0  0  0  0  0  0
  159.0510  202.9830  144.3030 O   0  0  0  0  0  0  0  0  0  0  0  0
  159.7650  200.8320  144.6290 O   0  0  0  0  0  1  0  0  0  0  0  0
  1 31  1  0  0  0  0
  3  6  1  0  0  0  0
  4 13  1  0  0  0  0
  5  8  1  0  0  0  0
  6  1  1  0  0  0  0
  7  5  1  0  0  0  0
  8  9  1  0  0  0  0
  8  2  2  0  0  0  0
  9 11  1  0  0  0  0
 10 13  1  0  0  0  0
 10  9  2  0  0  0  0
 11  6  2  0  0  0  0
 12  7  2  0  0  0  0
 12 10  1  0  0  0  0
 13  3  2  0  0  0  0
 14 15  1  0  0  0  0
 15  5  1  0  0  0  0
 16 12  1  0  0  0  0
 17 16  1  0  0  0  0
 18 17  1  0  0  0  0
 19 20  1  0  0  0  0
 19 18  1  0  0  0  0
 22 21  1  6  0  0  0
 22 20  1  0  0  0  0
 23 24  1  0  0  0  0
 23 22  1  0  0  0  0
 25 28  1  0  0  0  0
 25 29  1  0  0  0  0
 27 26  1  0  0  0  0
 27 30  1  0  0  0  0
 27 24  1  0  0  0  0
 28 26  1  0  0  0  0
 29 30  1  0  0  0  0
 31 32  1  0  0  0  0
 32 33  1  0  0  0  0
 34 33  1  0  0  0  0
 35 34  1  0  0  0  0
 37 36  1  0  0  0  0
 37 35  1  0  0  0  0
 38 31  1  0  0  0  0
 38 39  1  0  0  0  0
 40 39  1  0  0  0  0
 40 41  1  0  0  0  0
 42 41  1  0  0  0  0
 43 42  1  0  0  0  0
 44 43  1  0  0  0  0
 46 45  1  1  0  0  0
 46 44  1  0  0  0  0
 47 48  1  6  0  0  0
 47 46  1  0  0  0  0
 49 47  1  0  0  0  0
 50 49  2  0  0  0  0
 51 54  1  0  0  0  0
 52 55  1  0  0  0  0
 52 53  1  0  0  0  0
 53 56  1  6  0  0  0
 53 54  1  0  0  0  0
 54 49  1  1  0  0  0
 55 51  1  0  0  0  0
 57 56  1  0  0  0  0
 58 57  2  0  0  0  0
 59 57  1  0  0  0  0
M  END
>  <MODEL>
2

>  <REMARK>
 VINA RESULT:      -4.0      2.422      4.264
  Name = 
  30 active torsions:
  status: ('A' for Active; 'I' for Inactive)
    1  A    between atoms: N_1  and  C_16
    2  A    between atoms: N_1  and  C_25
    3  A    between atoms: N_1  and  C_29
    4  A    between atoms: C_4  and  C_17
    5  A    between atoms: C_6  and  C_19
    6  A    between atoms: C_6  and  C_35
    7  A    between atoms: N_9  and  C_37
    8  A    between atoms: N_9  and  C_43
    9  A    between atoms: C_12  and  C_46
   10  A    between atoms: C_12  and  C_54
   11  A    between atoms: N_14  and  N_55
   12  A    between atoms: N_14  and  C_59
   13  A    between atoms: C_16  and  C_31
   14  A    between atoms: C_17  and  C_18
   15  A    between atoms: C_21  and  N_30
   16  A    between atoms: C_21  and  N_55
   17  A    between atoms: C_23  and  C_41
   18  A    between atoms: C_23  and  C_49
   19  A    between atoms: N_24  and  C_58
   20  A    between atoms: C_25  and  O_48
   21  A    between atoms: C_26  and  C_29
   22  A    between atoms: C_28  and  C_43
   23  A    between atoms: C_28  and  O_47
   24  A    between atoms: N_30  and  C_31
   25  A    between atoms: C_32  and  C_37
   26  A    between atoms: C_35  and  C_57
   27  A    between atoms: C_41  and  O_47
   28  A    between atoms: C_46  and  O_48
   29  A    between atoms: C_49  and  C_50
   30  A    between atoms: C_57  and  C_59
                            x       y       z     vdW  Elec       q    Type
                         _______ _______ _______ _____ _____    ______ ____

>  <TORSDO>
F 30

$$$$
=
 OpenBabel11042421013D

 59 62  0  0  1  0  0  0  0  0999 V2000
  162.5300  208.7910  151.3580 C   0  0  0  0  0  2  0  0  0  0  0  0
  158.9970  212.0800  152.5320 O   0  0  0  0  0  0  0  0  0  0  0  0
  162.7420  210.6460  149.6980 C   0  0  0  0  0  3  0  0  0  0  0  0
  163.1020  212.3730  148.0040 C   0  0  0  0  0  1  0  0  0  0  0  0
  159.0360  213.7700  151.0010 N   0  0  0  0  0  0  0  0  0  0  0  0
  162.0980  210.1070  150.8060 C   0  0  0  0  0  0  0  0  0  0  0  0
  159.5740  214.3330  149.8890 C   0  0  0  0  0  3  0  0  0  0  0  0
  159.5210  212.5970  151.5050 C   0  0  0  0  0  0  0  0  0  0  0  0
  160.6000  211.9540  150.8790 C   0  0  0  0  0  0  0  0  0  0  0  0
  161.2000  212.5320  149.7290 C   0  0  0  0  0  0  0  0  0  0  0  0
  161.0600  210.7710  151.3730 N   0  0  0  0  0  0  0  0  0  0  0  0
  160.6510  213.7430  149.2230 C   0  0  0  0  0  0  0  0  0  0  0  0
  162.3130  211.8560  149.1560 C   0  0  0  0  0  0  0  0  0  0  0  0
  156.6220  214.1320  150.9110 C   0  0  0  0  0  1  0  0  0  0  0  0
  157.9160  214.4520  151.6420 C   0  0  0  0  0  2  0  0  0  0  0  0
  161.1180  214.4020  147.9650 C   0  0  0  0  0  2  0  0  0  0  0  0
  160.7450  213.5590  146.7580 C   0  0  0  0  0  2  0  0  0  0  0  0
  160.3800  214.4520  145.5890 C   0  0  0  0  0  2  0  0  0  0  0  0
  159.3830  213.8390  144.8270 O   0  0  0  0  0  0  0  0  0  0  0  0
  160.0380  213.3850  143.6800 C   0  0  0  0  0  2  0  0  0  0  0  0
  158.3700  214.4430  142.3480 O   0  0  0  0  0  1  0  0  0  0  0  0
  159.7510  214.3230  142.5220 C   0  0  2  0  0  3  0  0  0  0  0  0
  160.3580  213.7900  141.3100 N   0  0  0  0  0  2  0  0  0  0  0  0
  161.6200  213.1610  141.6740 C   0  0  0  0  0  2  0  0  0  0  0  0
  162.1200  210.2060  138.5970 C   0  0  0  0  0  2  0  0  0  0  0  0
  161.2200  210.8030  140.9280 C   0  0  0  0  0  2  0  0  0  0  0  0
  161.9970  212.0910  140.6620 C   0  0  0  0  0  3  0  0  0  0  0  0
  161.6380  209.6880  139.9590 C   0  0  0  0  0  2  0  0  0  0  0  0
  161.4240  211.5120  138.2240 C   0  0  0  0  0  2  0  0  0  0  0  0
  161.7350  212.6170  139.2450 C   0  0  0  0  0  2  0  0  0  0  0  0
  161.4310  208.1260  152.0500 N   0  0  0  0  0  0  0  0  0  0  0  0
  161.9530  207.4140  153.2220 C   0  0  0  0  0  2  0  0  0  0  0  0
  160.9340  206.7660  153.9320 O   0  0  0  0  0  0  0  0  0  0  0  0
  160.9700  207.3430  155.2040 C   0  0  0  0  0  2  0  0  0  0  0  0
  161.1400  208.8490  155.0970 C   0  0  0  0  0  2  0  0  0  0  0  0
  158.8520  208.6830  155.7560 O   0  0  0  0  0  1  0  0  0  0  0  0
  159.9150  209.5750  155.6220 C   0  0  0  0  0  2  0  0  0  0  0  0
  160.8630  207.1570  151.1230 C   0  0  0  0  0  2  0  0  0  0  0  0
  161.8560  206.8400  150.0200 C   0  0  0  0  0  2  0  0  0  0  0  0
  161.4040  207.4420  148.7770 N   0  0  0  0  0  2  0  0  0  0  0  0
  160.5280  206.4760  148.1410 C   0  0  0  0  0  2  0  0  0  0  0  0
  160.1600  206.9590  146.8230 N   0  0  0  0  0  2  0  0  0  0  0  0
  160.9080  206.2210  145.8970 N   0  0  0  0  0  2  0  0  0  0  0  0
  160.0680  205.1190  145.4650 C   0  0  0  0  0  2  0  0  0  0  0  0
  162.1080  204.7380  144.2640 O   0  0  0  0  0  1  0  0  0  0  0  0
  160.8590  204.1830  144.5650 C   0  0  1  0  0  3  0  0  0  0  0  0
  161.0090  202.8140  145.2290 C   0  0  2  0  0  3  0  0  0  0  0  0
  159.9010  201.8430  144.8480 C   0  0  0  0  0  1  0  0  0  0  0  0
  161.1480  202.9190  146.7160 C   0  0  0  0  0  0  0  0  0  0  0  0
  161.6600  203.9200  147.1930 O   0  0  0  0  0  0  0  0  0  0  0  0
  161.6740  200.6300  147.6350 C   0  0  0  0  0  2  0  0  0  0  0  0
  160.5640  200.8370  149.8100 C   0  0  0  0  0  2  0  0  0  0  0  0
  160.4290  202.1560  149.0700 C   0  0  2  0  0  3  0  0  0  0  0  0
  160.7040  201.7910  147.6140 C   0  0  1  0  0  3  0  0  0  0  0  0
  161.4310  199.9230  148.9540 C   0  0  0  0  0  2  0  0  0  0  0  0
  161.4320  203.1600  149.6390 C   0  0  0  0  0  2  0  0  0  0  0  0
  161.2210  203.3420  151.1030 C   0  0  0  0  0  0  0  0  0  0  0  0
  161.8490  202.6260  151.9250 O   0  0  0  0  0  1  0  0  0  0  0  0
  160.3490  204.3180  151.5650 O   0  0  0  0  0  0  0  0  0  0  0  0
  1 31  1  0  0  0  0
  3  6  1  0  0  0  0
  4 13  1  0  0  0  0
  5  8  1  0  0  0  0
  5 15  1  0  0  0  0
  6  1  1  0  0  0  0
  6 11  2  0  0  0  0
  7  5  1  0  0  0  0
  8  2  2  0  0  0  0
  9 11  1  0  0  0  0
  9  8  1  0  0  0  0
 10  9  2  0  0  0  0
 12 10  1  0  0  0  0
 12  7  2  0  0  0  0
 13  3  2  0  0  0  0
 13 10  1  0  0  0  0
 14 15  1  0  0  0  0
 16 12  1  0  0  0  0
 17 16  1  0  0  0  0
 18 17  1  0  0  0  0
 19 18  1  0  0  0  0
 20 19  1  0  0  0  0
 22 21  1  6  0  0  0
 22 20  1  0  0  0  0
 23 24  1  0  0  0  0
 23 22  1  0  0  0  0
 25 28  1  0  0  0  0
 27 26  1  0  0  0  0
 27 24  1  0  0  0  0
 28 26  1  0  0  0  0
 29 25  1  0  0  0  0
 29 30  1  0  0  0  0
 30 27  1  0  0  0  0
 31 32  1  0  0  0  0
 32 33  1  0  0  0  0
 33 34  1  0  0  0  0
 35 34  1  0  0  0  0
 35 37  1  0  0  0  0
 37 36  1  0  0  0  0
 38 31  1  0  0  0  0
 39 38  1  0  0  0  0
 40 39  1  0  0  0  0
 41 40  1  0  0  0  0
 42 41  1  0  0  0  0
 43 42  1  0  0  0  0
 44 43  1  0  0  0  0
 46 45  1  1  0  0  0
 46 47  1  0  0  0  0
 46 44  1  0  0  0  0
 47 48  1  1  0  0  0
 47 49  1  0  0  0  0
 49 50  2  0  0  0  0
 51 55  1  0  0  0  0
 53 56  1  1  0  0  0
 53 52  1  0  0  0  0
 54 49  1  6  0  0  0
 54 51  1  0  0  0  0
 54 53  1  0  0  0  0
 55 52  1  0  0  0  0
 56 57  1  0  0  0  0
 57 59  2  0  0  0  0
 57 58  1  0  0  0  0
M  END
>  <MODEL>
3

>  <REMARK>
 VINA RESULT:      -3.4      2.119      3.216
  Name = 
  30 active torsions:
  status: ('A' for Active; 'I' for Inactive)
    1  A    between atoms: N_1  and  C_16
    2  A    between atoms: N_1  and  C_25
    3  A    between atoms: N_1  and  C_29
    4  A    between atoms: C_4  and  C_17
    5  A    between atoms: C_6  and  C_19
    6  A    between atoms: C_6  and  C_35
    7  A    between atoms: N_9  and  C_37
    8  A    between atoms: N_9  and  C_43
    9  A    between atoms: C_12  and  C_46
   10  A    between atoms: C_12  and  C_54
   11  A    between atoms: N_14  and  N_55
   12  A    between atoms: N_14  and  C_59
   13  A    between atoms: C_16  and  C_31
   14  A    between atoms: C_17  and  C_18
   15  A    between atoms: C_21  and  N_30
   16  A    between atoms: C_21  and  N_55
   17  A    between atoms: C_23  and  C_41
   18  A    between atoms: C_23  and  C_49
   19  A    between atoms: N_24  and  C_58
   20  A    between atoms: C_25  and  O_48
   21  A    between atoms: C_26  and  C_29
   22  A    between atoms: C_28  and  C_43
   23  A    between atoms: C_28  and  O_47
   24  A    between atoms: N_30  and  C_31
   25  A    between atoms: C_32  and  C_37
   26  A    between atoms: C_35  and  C_57
   27  A    between atoms: C_41  and  O_47
   28  A    between atoms: C_46  and  O_48
   29  A    between atoms: C_49  and  C_50
   30  A    between atoms: C_57  and  C_59
                            x       y       z     vdW  Elec       q    Type
                         _______ _______ _______ _____ _____    ______ ____

>  <TORSDO>
F 30

$$$$
=
 OpenBabel11042421013D

 59 62  0  0  1  0  0  0  0  0999 V2000
  162.1860  210.7800  151.3080 C   0  0  0  0  0  2  0  0  0  0  0  0
  157.8400  213.0830  150.6130 O   0  0  0  0  0  0  0  0  0  0  0  0
  162.2880  211.7590  149.0120 C   0  0  0  0  0  3  0  0  0  0  0  0
  162.5690  212.6580  146.7540 C   0  0  0  0  0  1  0  0  0  0  0  0
  157.7900  213.9240  148.4940 N   0  0  0  0  0  0  0  0  0  0  0  0
  161.5810  211.5650  150.1930 C   0  0  0  0  0  0  0  0  0  0  0  0
  158.3910  214.1080  147.2900 C   0  0  0  0  0  3  0  0  0  0  0  0
  158.4210  213.2580  149.5060 C   0  0  0  0  0  0  0  0  0  0  0  0
  159.7190  212.7570  149.3170 C   0  0  0  0  0  0  0  0  0  0  0  0
  160.3820  212.9550  148.0780 C   0  0  0  0  0  0  0  0  0  0  0  0
  160.3300  212.0710  150.3220 N   0  0  0  0  0  0  0  0  0  0  0  0
  159.6830  213.6350  147.0430 C   0  0  0  0  0  0  0  0  0  0  0  0
  161.7090  212.4570  147.9540 C   0  0  0  0  0  0  0  0  0  0  0  0
  155.8230  213.8860  149.9430 C   0  0  0  0  0  1  0  0  0  0  0  0
  156.4420  214.4530  148.6750 C   0  0  0  0  0  2  0  0  0  0  0  0
  160.2220  213.8210  145.6610 C   0  0  0  0  0  2  0  0  0  0  0  0
  159.6450  212.7750  144.7240 C   0  0  0  0  0  2  0  0  0  0  0  0
  160.1310  213.0160  143.3080 C   0  0  0  0  0  2  0  0  0  0  0  0
  159.9530  211.8560  142.5500 O   0  0  0  0  0  0  0  0  0  0  0  0
  161.1330  211.7250  141.8140 C   0  0  0  0  0  2  0  0  0  0  0  0
  161.5270  212.1180  139.4980 O   0  0  0  0  0  1  0  0  0  0  0  0
  160.8060  211.3190  140.3900 C   0  0  2  0  0  3  0  0  0  0  0  0
  159.3780  211.4840  140.1580 N   0  0  0  0  0  2  0  0  0  0  0  0
  158.9470  210.4480  139.2300 C   0  0  0  0  0  2  0  0  0  0  0  0
  154.8880  211.4150  138.2130 C   0  0  0  0  0  2  0  0  0  0  0  0
  156.5880  209.6440  138.9710 C   0  0  0  0  0  2  0  0  0  0  0  0
  157.5730  210.7710  138.6640 C   0  0  0  0  0  3  0  0  0  0  0  0
  155.2120  209.9210  138.3480 C   0  0  0  0  0  2  0  0  0  0  0  0
  155.5590  212.2280  139.3150 C   0  0  0  0  0  2  0  0  0  0  0  0
  157.0880  212.1070  139.2410 C   0  0  0  0  0  2  0  0  0  0  0  0
  161.1860  210.4480  152.3170 N   0  0  0  0  0  0  0  0  0  0  0  0
  161.8330  210.3460  153.6300 C   0  0  0  0  0  2  0  0  0  0  0  0
  161.4570  211.3970  154.4770 O   0  0  0  0  0  0  0  0  0  0  0  0
  160.3140  210.9290  155.1310 C   0  0  0  0  0  2  0  0  0  0  0  0
  160.6700  210.4120  156.5140 C   0  0  0  0  0  2  0  0  0  0  0  0
  159.4830  208.5590  155.5930 O   0  0  0  0  0  1  0  0  0  0  0  0
  160.2650  208.9590  156.6750 C   0  0  0  0  0  2  0  0  0  0  0  0
  160.6330  209.1480  151.9620 C   0  0  0  0  0  2  0  0  0  0  0  0
  161.4180  208.0400  152.6410 C   0  0  0  0  0  2  0  0  0  0  0  0
  160.8490  206.7530  152.2760 N   0  0  0  0  0  2  0  0  0  0  0  0
  160.9070  205.9200  153.4610 C   0  0  0  0  0  2  0  0  0  0  0  0
  161.2540  204.5640  153.0770 N   0  0  0  0  0  2  0  0  0  0  0  0
  162.1940  204.6620  152.0440 N   0  0  0  0  0  2  0  0  0  0  0  0
  162.6210  203.3080  151.7380 C   0  0  0  0  0  2  0  0  0  0  0  0
  160.3860  202.5740  152.2030 O   0  0  0  0  0  1  0  0  0  0  0  0
  161.4320  202.4790  151.2780 C   0  0  1  0  0  3  0  0  0  0  0  0
  160.9820  202.9270  149.8880 C   0  0  2  0  0  3  0  0  0  0  0  0
  159.6290  203.6230  149.8960 C   0  0  0  0  0  1  0  0  0  0  0  0
  161.0070  201.8050  148.8960 C   0  0  0  0  0  0  0  0  0  0  0  0
  160.7060  200.6820  149.2670 O   0  0  0  0  0  0  0  0  0  0  0  0
  160.3600  201.7300  146.4600 C   0  0  0  0  0  2  0  0  0  0  0  0
  161.7650  203.5650  145.6440 C   0  0  0  0  0  2  0  0  0  0  0  0
  161.9440  203.4480  147.1470 C   0  0  2  0  0  3  0  0  0  0  0  0
  161.4400  202.0450  147.4710 C   0  0  1  0  0  3  0  0  0  0  0  0
  160.6970  202.5580  145.2360 C   0  0  0  0  0  2  0  0  0  0  0  0
  161.1430  204.5520  147.8390 C   0  0  0  0  0  2  0  0  0  0  0  0
  161.2380  205.8280  147.0760 C   0  0  0  0  0  0  0  0  0  0  0  0
  160.2290  206.5710  146.9610 O   0  0  0  0  0  1  0  0  0  0  0  0
  162.4460  206.2140  146.5110 O   0  0  0  0  0  0  0  0  0  0  0  0
  1 31  1  0  0  0  0
  3  6  1  0  0  0  0
  4 13  1  0  0  0  0
  5 15  1  0  0  0  0
  5  8  1  0  0  0  0
  6 11  2  0  0  0  0
  6  1  1  0  0  0  0
  7  5  1  0  0  0  0
  8  2  2  0  0  0  0
  9  8  1  0  0  0  0
  9 11  1  0  0  0  0
 10  9  2  0  0  0  0
 12  7  2  0  0  0  0
 12 10  1  0  0  0  0
 13 10  1  0  0  0  0
 13  3  2  0  0  0  0
 15 14  1  0  0  0  0
 16 12  1  0  0  0  0
 17 16  1  0  0  0  0
 18 17  1  0  0  0  0
 19 18  1  0  0  0  0
 20 19  1  0  0  0  0
 22 21  1  6  0  0  0
 22 20  1  0  0  0  0
 23 22  1  0  0  0  0
 24 23  1  0  0  0  0
 25 28  1  0  0  0  0
 25 29  1  0  0  0  0
 27 26  1  0  0  0  0
 27 24  1  0  0  0  0
 27 30  1  0  0  0  0
 28 26  1  0  0  0  0
 30 29  1  0  0  0  0
 31 32  1  0  0  0  0
 32 33  1  0  0  0  0
 33 34  1  0  0  0  0
 34 35  1  0  0  0  0
 35 37  1  0  0  0  0
 36 37  1  0  0  0  0
 38 31  1  0  0  0  0
 38 39  1  0  0  0  0
 40 39  1  0  0  0  0
 40 41  1  0  0  0  0
 42 41  1  0  0  0  0
 43 42  1  0  0  0  0
 44 43  1  0  0  0  0
 46 44  1  0  0  0  0
 46 45  1  1  0  0  0
 47 48  1  1  0  0  0
 47 46  1  0  0  0  0
 49 50  2  0  0  0  0
 49 47  1  0  0  0  0
 51 54  1  0  0  0  0
 52 53  1  0  0  0  0
 53 54  1  0  0  0  0
 53 56  1  1  0  0  0
 54 49  1  1  0  0  0
 55 52  1  0  0  0  0
 55 51  1  0  0  0  0
 57 56  1  0  0  0  0
 58 57  1  0  0  0  0
 59 57  2  0  0  0  0
M  END
>  <MODEL>
4

>  <REMARK>
 VINA RESULT:      -2.6      2.432      3.766
  Name = 
  30 active torsions:
  status: ('A' for Active; 'I' for Inactive)
    1  A    between atoms: N_1  and  C_16
    2  A    between atoms: N_1  and  C_25
    3  A    between atoms: N_1  and  C_29
    4  A    between atoms: C_4  and  C_17
    5  A    between atoms: C_6  and  C_19
    6  A    between atoms: C_6  and  C_35
    7  A    between atoms: N_9  and  C_37
    8  A    between atoms: N_9  and  C_43
    9  A    between atoms: C_12  and  C_46
   10  A    between atoms: C_12  and  C_54
   11  A    between atoms: N_14  and  N_55
   12  A    between atoms: N_14  and  C_59
   13  A    between atoms: C_16  and  C_31
   14  A    between atoms: C_17  and  C_18
   15  A    between atoms: C_21  and  N_30
   16  A    between atoms: C_21  and  N_55
   17  A    between atoms: C_23  and  C_41
   18  A    between atoms: C_23  and  C_49
   19  A    between atoms: N_24  and  C_58
   20  A    between atoms: C_25  and  O_48
   21  A    between atoms: C_26  and  C_29
   22  A    between atoms: C_28  and  C_43
   23  A    between atoms: C_28  and  O_47
   24  A    between atoms: N_30  and  C_31
   25  A    between atoms: C_32  and  C_37
   26  A    between atoms: C_35  and  C_57
   27  A    between atoms: C_41  and  O_47
   28  A    between atoms: C_46  and  O_48
   29  A    between atoms: C_49  and  C_50
   30  A    between atoms: C_57  and  C_59
                            x       y       z     vdW  Elec       q    Type
                         _______ _______ _______ _____ _____    ______ ____

>  <TORSDO>
F 30

$$$$
