=
 OpenBabel11052410233D

 55 57  0  0  1  0  0  0  0  0999 V2000
  159.5420  212.5130  147.7180 N   0  0  0  0  0  0  0  0  0  0  0  0
  160.6940  212.9660  147.3230 C   0  0  0  0  0  0  0  0  0  0  0  0
  163.1070  212.8820  147.5500 C   0  0  0  0  0  2  0  0  0  0  0  0
  161.9100  212.5200  148.0130 C   0  0  0  0  0  0  0  0  0  0  0  0
  161.8190  211.4300  149.0270 C   0  0  0  0  0  2  0  0  0  0  0  0
  162.5310  210.3050  148.5930 O   0  0  0  0  0  0  0  0  0  0  0  0
  161.9150  209.2360  149.2510 C   0  0  0  0  0  2  0  0  0  0  0  0
  162.0600  209.4030  150.7510 C   0  0  0  0  0  2  0  0  0  0  0  0
  161.7490  208.1490  151.4210 N   0  0  0  0  0  2  0  0  0  0  0  0
  160.8520  207.4220  150.5430 C   0  0  0  0  0  2  0  0  0  0  0  0
  160.3520  206.1810  151.2570 C   0  0  0  0  0  2  0  0  0  0  0  0
  161.2480  204.0720  148.8060 C   0  0  1  0  0  3  0  0  0  0  0  0
  161.2520  202.6260  149.3350 C   0  0  1  0  0  3  0  0  0  0  0  0
  161.2810  202.5120  150.8650 C   0  0  2  0  0  3  0  0  0  0  0  0
  161.9940  205.0160  149.7480 C   0  0  0  0  0  2  0  0  0  0  0  0
  160.6660  203.7380  151.5410 C   0  0  0  0  0  2  0  0  0  0  0  0
  162.5970  202.3200  151.3050 O   0  0  0  0  0  1  0  0  0  0  0  0
  161.3590  205.0520  151.1500 C   0  0  2  0  0  3  0  0  0  0  0  0
  161.4670  204.0670  145.0430 O   0  0  0  0  0  1  0  0  0  0  0  0
  161.8310  204.1250  147.4320 C   0  0  0  0  0  0  0  0  0  0  0  0
  160.9650  204.0590  146.3010 N   0  0  0  0  0  2  0  0  0  0  0  0
  163.0820  204.1940  147.2730 O   0  0  0  0  0  0  0  0  0  0  0  0
  159.0570  201.6790  149.4540 O   0  0  0  0  0  0  0  0  0  0  0  0
  160.1070  201.8480  148.7730 C   0  0  0  0  0  0  0  0  0  0  0  0
  160.2110  201.3200  147.4850 O   0  0  0  0  0  0  0  0  0  0  0  0
  161.2470  200.4170  147.1290 C   0  0  0  0  0  1  0  0  0  0  0  0
  160.8060  213.9610  146.2040 C   0  0  0  0  0  2  0  0  0  0  0  0
  160.2510  211.7820  143.1550 C   0  0  0  0  0  3  0  0  0  0  0  0
  161.0220  213.2940  144.8860 C   0  0  0  0  0  0  0  0  0  0  0  0
  160.0520  212.4210  144.3840 C   0  0  0  0  0  3  0  0  0  0  0  0
  162.1980  213.5190  144.1620 C   0  0  0  0  0  3  0  0  0  0  0  0
  162.3970  212.8800  142.9330 C   0  0  0  0  0  3  0  0  0  0  0  0
  161.4230  212.0070  142.4270 C   0  0  0  0  0  0  0  0  0  0  0  0
  160.6100  210.7700  140.5240 N   0  0  0  0  0  0  0  0  0  0  0  0
  161.6040  211.3250  141.1410 C   0  0  0  0  0  3  0  0  0  0  0  0
  160.7710  210.0960  139.2730 C   0  0  0  0  0  0  0  0  0  0  0  0
  161.6480  208.8990  139.1950 C   0  0  0  0  0  1  0  0  0  0  0  0
  160.1820  210.5050  138.2360 O   0  0  0  0  0  0  0  0  0  0  0  0
  158.2500  212.8970  147.1550 C   0  0  0  0  0  2  0  0  0  0  0  0
  157.2690  213.2310  148.2630 C   0  0  0  0  0  2  0  0  0  0  0  0
  157.9630  214.0800  149.3120 C   0  0  0  0  0  2  0  0  0  0  0  0
  158.9570  213.2580  151.4880 C   0  0  0  0  0  0  0  0  0  0  0  0
  160.0980  213.6750  151.1460 O   0  0  0  0  0  0  0  0  0  0  0  0
  157.8380  213.4500  150.6180 N   0  0  0  0  0  2  0  0  0  0  0  0
  157.1310  212.0950  154.5970 C   0  0  0  0  0  0  0  0  0  0  0  0
  158.7720  212.6050  152.7960 C   0  0  0  0  0  0  0  0  0  0  0  0
  157.6920  210.9630  155.2040 O   0  0  0  0  0  0  0  0  0  0  0  0
  161.0440  210.0570  154.1390 O   0  0  0  0  0  1  0  0  0  0  0  0
  159.9850  212.0840  153.4970 C   0  0  0  0  0  2  0  0  0  0  0  0
  157.5950  212.6490  153.3510 N   0  0  0  0  0  0  0  0  0  0  0  0
  159.7960  210.6660  153.9980 C   0  0  2  0  0  3  0  0  0  0  0  0
  159.0780  210.6730  155.3380 C   0  0  1  0  0  3  0  0  0  0  0  0
  156.0660  212.5550  155.0870 O   0  0  0  0  0  0  0  0  0  0  0  0
  160.7120  210.8680  157.0860 O   0  0  0  0  0  1  0  0  0  0  0  0
  159.7370  211.5780  156.3810 C   0  0  0  0  0  2  0  0  0  0  0  0
  2  1  2  0  0  0  0
  2  4  1  0  0  0  0
  3  4  2  0  0  0  0
  4  5  1  0  0  0  0
  6  5  1  0  0  0  0
  6  7  1  0  0  0  0
  7  8  1  0  0  0  0
  8  9  1  0  0  0  0
 10 11  1  0  0  0  0
 10  9  1  0  0  0  0
 12 20  1  6  0  0  0
 12 13  1  0  0  0  0
 12 15  1  0  0  0  0
 13 24  1  1  0  0  0
 13 14  1  0  0  0  0
 14 17  1  1  0  0  0
 14 16  1  0  0  0  0
 15 18  1  0  0  0  0
 18 11  1  6  0  0  0
 18 16  1  0  0  0  0
 19 21  1  0  0  0  0
 21 20  1  0  0  0  0
 22 20  2  0  0  0  0
 24 23  2  0  0  0  0
 25 24  1  0  0  0  0
 26 25  1  0  0  0  0
 27  2  1  0  0  0  0
 28 30  1  0  0  0  0
 29 27  1  0  0  0  0
 30 29  2  0  0  0  0
 31 29  1  0  0  0  0
 32 31  2  0  0  0  0
 33 32  1  0  0  0  0
 33 28  2  0  0  0  0
 34 35  2  0  0  0  0
 35 33  1  0  0  0  0
 36 34  1  0  0  0  0
 37 36  1  0  0  0  0
 38 36  2  0  0  0  0
 39  1  1  0  0  0  0
 39 40  1  0  0  0  0
 40 41  1  0  0  0  0
 41 44  1  0  0  0  0
 42 46  1  0  0  0  0
 43 42  2  0  0  0  0
 44 42  1  0  0  0  0
 45 53  2  0  0  0  0
 45 47  1  0  0  0  0
 46 50  2  0  0  0  0
 46 49  1  0  0  0  0
 47 52  1  0  0  0  0
 49 51  1  0  0  0  0
 50 45  1  0  0  0  0
 51 48  1  1  0  0  0
 51 52  1  0  0  0  0
 52 55  1  1  0  0  0
 55 54  1  0  0  0  0
M  END
>  <MODEL>
1

>  <REMARK>
 VINA RESULT:      -5.9      0.000      0.000
  Name = 
  22 active torsions:
  status: ('A' for Active; 'I' for Inactive)
    1  A    between atoms: C_1  and  N_6
    2  A    between atoms: C_2  and  C_18
    3  A    between atoms: C_2  and  C_20
    4  A    between atoms: C_4  and  C_19
    5  A    between atoms: O_8  and  C_15
    6  A    between atoms: O_8  and  C_45
    7  A    between atoms: N_9  and  C_20
    8  A    between atoms: C_10  and  C_15
    9  A    between atoms: C_10  and  N_55
   10  A    between atoms: C_11  and  C_30
   11  A    between atoms: C_12  and  C_37
   12  A    between atoms: C_16  and  C_54
   13  A    between atoms: C_18  and  N_33
   14  A    between atoms: O_22  and  C_37
   15  A    between atoms: C_28  and  C_53
   16  A    between atoms: C_36  and  C_41
   17  A    between atoms: C_36  and  N_55
   18  A    between atoms: C_41  and  C_49
   19  A    between atoms: C_45  and  C_52
   20  A    between atoms: C_46  and  C_52
   21  A    between atoms: C_46  and  C_54
   22  A    between atoms: C_48  and  C_50
                            x       y       z     vdW  Elec       q    Type
                         _______ _______ _______ _____ _____    ______ ____

>  <TORSDO>
F 22

$$$$
=
 OpenBabel11052410233D

 55 57  0  0  1  0  0  0  0  0999 V2000
  159.8370  212.5100  148.3280 N   0  0  0  0  0  0  0  0  0  0  0  0
  161.0360  212.7490  147.8840 C   0  0  0  0  0  0  0  0  0  0  0  0
  163.3640  212.0740  147.8320 C   0  0  0  0  0  2  0  0  0  0  0  0
  162.1510  211.9250  148.3660 C   0  0  0  0  0  0  0  0  0  0  0  0
  161.8680  210.7330  149.2150 C   0  0  0  0  0  2  0  0  0  0  0  0
  162.5300  209.6090  148.7080 O   0  0  0  0  0  0  0  0  0  0  0  0
  161.5040  208.8140  148.1860 C   0  0  0  0  0  2  0  0  0  0  0  0
  161.8760  207.3500  148.3100 C   0  0  0  0  0  2  0  0  0  0  0  0
  160.6760  206.5510  148.5130 N   0  0  0  0  0  2  0  0  0  0  0  0
  160.8710  205.8190  149.7490 C   0  0  0  0  0  2  0  0  0  0  0  0
  160.1850  204.4690  149.6430 C   0  0  0  0  0  2  0  0  0  0  0  0
  161.2660  203.6460  146.5760 C   0  0  1  0  0  3  0  0  0  0  0  0
  161.1280  202.1270  146.3620 C   0  0  1  0  0  3  0  0  0  0  0  0
  160.9610  201.3190  147.6560 C   0  0  2  0  0  3  0  0  0  0  0  0
  161.9370  203.9670  147.9100 C   0  0  0  0  0  2  0  0  0  0  0  0
  160.3330  202.1530  148.7740 C   0  0  0  0  0  2  0  0  0  0  0  0
  162.2010  200.8100  148.0640 O   0  0  0  0  0  1  0  0  0  0  0  0
  161.1370  203.4190  149.1050 C   0  0  2  0  0  3  0  0  0  0  0  0
  161.9580  205.5840  143.4180 O   0  0  0  0  0  1  0  0  0  0  0  0
  162.0160  204.2640  145.4420 C   0  0  0  0  0  0  0  0  0  0  0  0
  161.3110  205.0420  144.4770 N   0  0  0  0  0  2  0  0  0  0  0  0
  163.2590  204.0730  145.3210 O   0  0  0  0  0  0  0  0  0  0  0  0
  159.4340  202.7530  144.7910 O   0  0  0  0  0  0  0  0  0  0  0  0
  160.0220  201.8190  145.4060 C   0  0  0  0  0  0  0  0  0  0  0  0
  159.6570  200.4890  145.1950 O   0  0  0  0  0  0  0  0  0  0  0  0
  160.6260  199.4690  145.0070 C   0  0  0  0  0  1  0  0  0  0  0  0
  161.3090  213.8670  146.9200 C   0  0  0  0  0  2  0  0  0  0  0  0
  162.6000  212.9760  143.4720 C   0  0  0  0  0  3  0  0  0  0  0  0
  161.3500  213.3870  145.5080 C   0  0  0  0  0  0  0  0  0  0  0  0
  162.5550  213.4140  144.8000 C   0  0  0  0  0  3  0  0  0  0  0  0
  160.1840  212.9320  144.8800 C   0  0  0  0  0  3  0  0  0  0  0  0
  160.2290  212.4950  143.5520 C   0  0  0  0  0  3  0  0  0  0  0  0
  161.4390  212.5180  142.8420 C   0  0  0  0  0  0  0  0  0  0  0  0
  161.3270  210.8230  141.1310 N   0  0  0  0  0  0  0  0  0  0  0  0
  161.5160  212.0640  141.4500 C   0  0  0  0  0  3  0  0  0  0  0  0
  161.4040  210.3640  139.7790 C   0  0  0  0  0  0  0  0  0  0  0  0
  162.5700  210.7500  138.9420 C   0  0  0  0  0  1  0  0  0  0  0  0
  160.4970  209.6400  139.2870 O   0  0  0  0  0  0  0  0  0  0  0  0
  158.6420  213.2700  147.9690 C   0  0  0  0  0  2  0  0  0  0  0  0
  157.9470  213.7800  149.2170 C   0  0  0  0  0  2  0  0  0  0  0  0
  158.9640  214.4530  150.1210 C   0  0  0  0  0  2  0  0  0  0  0  0
  158.8070  213.3840  152.4090 C   0  0  0  0  0  0  0  0  0  0  0  0
  157.7930  214.0820  152.6860 O   0  0  0  0  0  0  0  0  0  0  0  0
  159.4300  213.5090  151.1270 N   0  0  0  0  0  2  0  0  0  0  0  0
  161.2540  210.9520  153.9740 C   0  0  0  0  0  0  0  0  0  0  0  0
  159.3280  212.4170  153.3920 C   0  0  0  0  0  0  0  0  0  0  0  0
  161.1150  210.8100  155.3620 O   0  0  0  0  0  0  0  0  0  0  0  0
  158.0510  212.1090  156.8170 O   0  0  0  0  0  1  0  0  0  0  0  0
  158.4070  211.9530  154.4740 C   0  0  0  0  0  2  0  0  0  0  0  0
  160.5030  211.8960  153.1870 N   0  0  0  0  0  0  0  0  0  0  0  0
  159.0490  212.0220  155.8450 C   0  0  2  0  0  3  0  0  0  0  0  0
  159.8940  210.7820  156.0930 C   0  0  1  0  0  3  0  0  0  0  0  0
  162.1960  210.3340  153.4140 O   0  0  0  0  0  0  0  0  0  0  0  0
  159.9550  208.3840  156.1880 O   0  0  0  0  0  1  0  0  0  0  0  0
  159.1390  209.4710  155.8660 C   0  0  0  0  0  2  0  0  0  0  0  0
  2  1  2  0  0  0  0
  2  4  1  0  0  0  0
  3  4  2  0  0  0  0
  4  5  1  0  0  0  0
  6  5  1  0  0  0  0
  7  8  1  0  0  0  0
  7  6  1  0  0  0  0
  8  9  1  0  0  0  0
  9 10  1  0  0  0  0
 11 10  1  0  0  0  0
 12 20  1  6  0  0  0
 12 15  1  0  0  0  0
 13 24  1  6  0  0  0
 13 12  1  0  0  0  0
 13 14  1  0  0  0  0
 14 17  1  1  0  0  0
 14 16  1  0  0  0  0
 15 18  1  0  0  0  0
 16 18  1  0  0  0  0
 18 11  1  6  0  0  0
 19 21  1  0  0  0  0
 21 20  1  0  0  0  0
 22 20  2  0  0  0  0
 23 24  2  0  0  0  0
 25 24  1  0  0  0  0
 26 25  1  0  0  0  0
 27  2  1  0  0  0  0
 28 30  1  0  0  0  0
 29 27  1  0  0  0  0
 30 29  2  0  0  0  0
 31 29  1  0  0  0  0
 32 31  2  0  0  0  0
 33 28  2  0  0  0  0
 33 32  1  0  0  0  0
 34 35  2  0  0  0  0
 35 33  1  0  0  0  0
 36 34  1  0  0  0  0
 37 36  1  0  0  0  0
 38 36  2  0  0  0  0
 39  1  1  0  0  0  0
 39 40  1  0  0  0  0
 40 41  1  0  0  0  0
 41 44  1  0  0  0  0
 42 43  2  0  0  0  0
 42 46  1  0  0  0  0
 44 42  1  0  0  0  0
 45 47  1  0  0  0  0
 46 49  1  0  0  0  0
 47 52  1  0  0  0  0
 49 51  1  0  0  0  0
 50 46  2  0  0  0  0
 50 45  1  0  0  0  0
 51 52  1  0  0  0  0
 51 48  1  1  0  0  0
 52 55  1  6  0  0  0
 53 45  2  0  0  0  0
 55 54  1  0  0  0  0
M  END
>  <MODEL>
2

>  <REMARK>
 VINA RESULT:      -5.3      1.605      2.487
  Name = 
  22 active torsions:
  status: ('A' for Active; 'I' for Inactive)
    1  A    between atoms: C_1  and  N_6
    2  A    between atoms: C_2  and  C_18
    3  A    between atoms: C_2  and  C_20
    4  A    between atoms: C_4  and  C_19
    5  A    between atoms: O_8  and  C_15
    6  A    between atoms: O_8  and  C_45
    7  A    between atoms: N_9  and  C_20
    8  A    between atoms: C_10  and  C_15
    9  A    between atoms: C_10  and  N_55
   10  A    between atoms: C_11  and  C_30
   11  A    between atoms: C_12  and  C_37
   12  A    between atoms: C_16  and  C_54
   13  A    between atoms: C_18  and  N_33
   14  A    between atoms: O_22  and  C_37
   15  A    between atoms: C_28  and  C_53
   16  A    between atoms: C_36  and  C_41
   17  A    between atoms: C_36  and  N_55
   18  A    between atoms: C_41  and  C_49
   19  A    between atoms: C_45  and  C_52
   20  A    between atoms: C_46  and  C_52
   21  A    between atoms: C_46  and  C_54
   22  A    between atoms: C_48  and  C_50
                            x       y       z     vdW  Elec       q    Type
                         _______ _______ _______ _____ _____    ______ ____

>  <TORSDO>
F 22

$$$$
=
 OpenBabel11052410233D

 55 57  0  0  1  0  0  0  0  0999 V2000
  161.3840  203.9790  145.4510 N   0  0  0  0  0  0  0  0  0  0  0  0
  161.6210  203.5230  146.6450 C   0  0  0  0  0  0  0  0  0  0  0  0
  159.7170  202.0300  146.4880 C   0  0  0  0  0  2  0  0  0  0  0  0
  160.7940  202.4270  147.1660 C   0  0  0  0  0  0  0  0  0  0  0  0
  160.9780  201.9780  148.5750 C   0  0  0  0  0  2  0  0  0  0  0  0
  160.3820  202.8890  149.4560 O   0  0  0  0  0  0  0  0  0  0  0  0
  161.0920  202.7260  150.6490 C   0  0  0  0  0  2  0  0  0  0  0  0
  160.6620  203.7800  151.6510 C   0  0  0  0  0  2  0  0  0  0  0  0
  160.9190  205.1070  151.1120 N   0  0  0  0  0  2  0  0  0  0  0  0
  162.2510  205.4800  151.5460 C   0  0  0  0  0  2  0  0  0  0  0  0
  162.2180  206.8880  152.1100 C   0  0  0  0  0  2  0  0  0  0  0  0
  160.7950  209.5650  153.5470 C   0  0  1  0  0  3  0  0  0  0  0  0
  160.5100  209.2720  155.0320 C   0  0  1  0  0  3  0  0  0  0  0  0
  160.5240  207.7820  155.3980 C   0  0  2  0  0  3  0  0  0  0  0  0
  160.3050  208.4300  152.6480 C   0  0  0  0  0  2  0  0  0  0  0  0
  161.4110  206.9700  154.4520 C   0  0  0  0  0  2  0  0  0  0  0  0
  159.2170  207.2770  155.3950 O   0  0  0  0  0  1  0  0  0  0  0  0
  160.9920  207.0940  152.9790 C   0  0  2  0  0  3  0  0  0  0  0  0
  158.1650  212.1510  152.7680 O   0  0  0  0  0  1  0  0  0  0  0  0
  160.1760  210.8640  153.1460 C   0  0  0  0  0  0  0  0  0  0  0  0
  158.7570  210.9980  153.1620 N   0  0  0  0  0  2  0  0  0  0  0  0
  160.9020  211.8250  152.7660 O   0  0  0  0  0  0  0  0  0  0  0  0
  162.6890  209.8630  155.8270 O   0  0  0  0  0  0  0  0  0  0  0  0
  161.4410  210.0370  155.9160 C   0  0  0  0  0  0  0  0  0  0  0  0
  160.9140  210.9490  156.8310 O   0  0  0  0  0  0  0  0  0  0  0  0
  159.5870  211.4410  156.7150 C   0  0  0  0  0  1  0  0  0  0  0  0
  162.6920  204.1150  147.5140 C   0  0  0  0  0  2  0  0  0  0  0  0
  160.7710  207.2930  148.2620 C   0  0  0  0  0  3  0  0  0  0  0  0
  162.3900  205.5290  147.8850 C   0  0  0  0  0  0  0  0  0  0  0  0
  161.0630  205.9660  147.9260 C   0  0  0  0  0  3  0  0  0  0  0  0
  163.4280  206.4250  148.1680 C   0  0  0  0  0  3  0  0  0  0  0  0
  163.1350  207.7510  148.5030 C   0  0  0  0  0  3  0  0  0  0  0  0
  161.8040  208.1900  148.5490 C   0  0  0  0  0  0  0  0  0  0  0  0
  162.0400  210.5780  148.3110 N   0  0  0  0  0  0  0  0  0  0  0  0
  161.4690  209.5740  148.8980 C   0  0  0  0  0  3  0  0  0  0  0  0
  161.7270  211.9330  148.6450 C   0  0  0  0  0  0  0  0  0  0  0  0
  162.4190  213.0390  147.9330 C   0  0  0  0  0  1  0  0  0  0  0  0
  160.8760  212.2020  149.5340 O   0  0  0  0  0  0  0  0  0  0  0  0
  162.0960  205.0870  144.8180 C   0  0  0  0  0  2  0  0  0  0  0  0
  161.2080  205.7670  143.7930 C   0  0  0  0  0  2  0  0  0  0  0  0
  161.8670  205.6960  142.4280 C   0  0  0  0  0  2  0  0  0  0  0  0
  162.2180  207.2560  140.4680 C   0  0  0  0  0  0  0  0  0  0  0  0
  163.1850  206.5560  140.0600 O   0  0  0  0  0  0  0  0  0  0  0  0
  161.5010  206.8660  141.6420 N   0  0  0  0  0  2  0  0  0  0  0  0
  162.4420  210.7840  139.1050 C   0  0  0  0  0  0  0  0  0  0  0  0
  161.8080  208.4560  139.7170 C   0  0  0  0  0  0  0  0  0  0  0  0
  161.7310  210.9860  137.9130 O   0  0  0  0  0  0  0  0  0  0  0  0
  159.3290  208.4150  137.0140 O   0  0  0  0  0  1  0  0  0  0  0  0
  160.4420  208.4700  139.1110 C   0  0  0  0  0  2  0  0  0  0  0  0
  162.5840  209.5020  139.7450 N   0  0  0  0  0  0  0  0  0  0  0  0
  160.4590  208.9160  137.6620 C   0  0  2  0  0  3  0  0  0  0  0  0
  160.4640  210.4340  137.5790 C   0  0  1  0  0  3  0  0  0  0  0  0
  163.1240  211.7440  139.5490 O   0  0  0  0  0  0  0  0  0  0  0  0
  159.8040  212.2690  138.9800 O   0  0  0  0  0  1  0  0  0  0  0  0
  159.3400  211.0940  138.3810 C   0  0  0  0  0  2  0  0  0  0  0  0
  1  2  2  0  0  0  0
  2  4  1  0  0  0  0
  2 27  1  0  0  0  0
  3  4  2  0  0  0  0
  4  5  1  0  0  0  0
  5  6  1  0  0  0  0
  6  7  1  0  0  0  0
  7  8  1  0  0  0  0
  9 10  1  0  0  0  0
  9  8  1  0  0  0  0
 10 11  1  0  0  0  0
 12 20  1  6  0  0  0
 12 13  1  0  0  0  0
 13 14  1  0  0  0  0
 13 24  1  1  0  0  0
 14 17  1  6  0  0  0
 15 18  1  0  0  0  0
 15 12  1  0  0  0  0
 16 14  1  0  0  0  0
 18 11  1  6  0  0  0
 18 16  1  0  0  0  0
 19 21  1  0  0  0  0
 20 21  1  0  0  0  0
 22 20  2  0  0  0  0
 23 24  2  0  0  0  0
 24 25  1  0  0  0  0
 26 25  1  0  0  0  0
 27 29  1  0  0  0  0
 28 33  1  0  0  0  0
 29 30  1  0  0  0  0
 29 31  2  0  0  0  0
 30 28  2  0  0  0  0
 31 32  1  0  0  0  0
 32 33  2  0  0  0  0
 33 35  1  0  0  0  0
 34 36  1  0  0  0  0
 34 35  2  0  0  0  0
 36 38  2  0  0  0  0
 37 36  1  0  0  0  0
 39  1  1  0  0  0  0
 40 39  1  0  0  0  0
 41 40  1  0  0  0  0
 42 44  1  0  0  0  0
 43 42  2  0  0  0  0
 44 41  1  0  0  0  0
 45 53  2  0  0  0  0
 45 50  1  0  0  0  0
 46 50  2  0  0  0  0
 46 42  1  0  0  0  0
 47 45  1  0  0  0  0
 49 46  1  0  0  0  0
 51 48  1  6  0  0  0
 51 49  1  0  0  0  0
 52 51  1  0  0  0  0
 52 47  1  0  0  0  0
 52 55  1  1  0  0  0
 55 54  1  0  0  0  0
M  END
>  <MODEL>
3

>  <REMARK>
 VINA RESULT:      -4.2      2.601     11.064
  Name = 
  22 active torsions:
  status: ('A' for Active; 'I' for Inactive)
    1  A    between atoms: C_1  and  N_6
    2  A    between atoms: C_2  and  C_18
    3  A    between atoms: C_2  and  C_20
    4  A    between atoms: C_4  and  C_19
    5  A    between atoms: O_8  and  C_15
    6  A    between atoms: O_8  and  C_45
    7  A    between atoms: N_9  and  C_20
    8  A    between atoms: C_10  and  C_15
    9  A    between atoms: C_10  and  N_55
   10  A    between atoms: C_11  and  C_30
   11  A    between atoms: C_12  and  C_37
   12  A    between atoms: C_16  and  C_54
   13  A    between atoms: C_18  and  N_33
   14  A    between atoms: O_22  and  C_37
   15  A    between atoms: C_28  and  C_53
   16  A    between atoms: C_36  and  C_41
   17  A    between atoms: C_36  and  N_55
   18  A    between atoms: C_41  and  C_49
   19  A    between atoms: C_45  and  C_52
   20  A    between atoms: C_46  and  C_52
   21  A    between atoms: C_46  and  C_54
   22  A    between atoms: C_48  and  C_50
                            x       y       z     vdW  Elec       q    Type
                         _______ _______ _______ _____ _____    ______ ____

>  <TORSDO>
F 22

$$$$
=
 OpenBabel11052410233D

 55 57  0  0  1  0  0  0  0  0999 V2000
  160.2850  212.3840  146.6000 N   0  0  0  0  0  0  0  0  0  0  0  0
  160.7000  213.1050  147.5990 C   0  0  0  0  0  0  0  0  0  0  0  0
  163.0260  212.8460  148.2300 C   0  0  0  0  0  2  0  0  0  0  0  0
  161.7460  212.5690  148.4780 C   0  0  0  0  0  0  0  0  0  0  0  0
  161.4070  211.4840  149.4440 C   0  0  0  0  0  2  0  0  0  0  0  0
  162.2930  210.4100  149.2950 O   0  0  0  0  0  0  0  0  0  0  0  0
  162.2040  209.7230  150.5100 C   0  0  0  0  0  2  0  0  0  0  0  0
  162.5320  208.2580  150.2960 C   0  0  0  0  0  2  0  0  0  0  0  0
  162.2680  207.5090  151.5150 N   0  0  0  0  0  2  0  0  0  0  0  0
  162.6470  206.1360  151.2490 C   0  0  0  0  0  2  0  0  0  0  0  0
  161.4350  205.2400  151.4220 C   0  0  0  0  0  2  0  0  0  0  0  0
  161.4380  203.7450  148.4190 C   0  0  1  0  0  3  0  0  0  0  0  0
  161.2650  204.7990  147.3090 C   0  0  1  0  0  3  0  0  0  0  0  0
  160.7200  206.1480  147.7970 C   0  0  2  0  0  3  0  0  0  0  0  0
  160.4100  203.9310  149.5340 C   0  0  0  0  0  2  0  0  0  0  0  0
  161.0600  206.4040  149.2660 C   0  0  0  0  0  2  0  0  0  0  0  0
  159.3340  206.2030  147.6000 O   0  0  0  0  0  1  0  0  0  0  0  0
  160.5310  205.3100  150.2070 C   0  0  2  0  0  3  0  0  0  0  0  0
  160.6640  200.9440  146.0170 O   0  0  0  0  0  1  0  0  0  0  0  0
  161.3540  202.3690  147.8450 C   0  0  0  0  0  0  0  0  0  0  0  0
  160.7880  202.1840  146.5490 N   0  0  0  0  0  2  0  0  0  0  0  0
  161.7530  201.3740  148.5130 O   0  0  0  0  0  0  0  0  0  0  0  0
  163.6050  204.4500  146.9530 O   0  0  0  0  0  0  0  0  0  0  0  0
  162.5380  204.9920  146.5510 C   0  0  0  0  0  0  0  0  0  0  0  0
  162.5280  205.7690  145.3920 O   0  0  0  0  0  0  0  0  0  0  0  0
  161.6890  205.4570  144.2910 C   0  0  0  0  0  1  0  0  0  0  0  0
  160.1090  214.4530  147.8940 C   0  0  0  0  0  2  0  0  0  0  0  0
  158.8480  214.3190  151.4640 C   0  0  0  0  0  3  0  0  0  0  0  0
  159.1850  214.4110  149.0650 C   0  0  0  0  0  0  0  0  0  0  0  0
  159.7070  214.3700  150.3610 C   0  0  0  0  0  3  0  0  0  0  0  0
  157.7980  214.3890  148.8720 C   0  0  0  0  0  3  0  0  0  0  0  0
  156.9390  214.3370  149.9750 C   0  0  0  0  0  3  0  0  0  0  0  0
  157.4620  214.3000  151.2760 C   0  0  0  0  0  0  0  0  0  0  0  0
  157.0570  214.0340  153.6380 N   0  0  0  0  0  0  0  0  0  0  0  0
  156.5850  214.2470  152.4500 C   0  0  0  0  0  3  0  0  0  0  0  0
  156.2140  213.9750  154.7910 C   0  0  0  0  0  0  0  0  0  0  0  0
  156.7820  213.5250  156.0890 C   0  0  0  0  0  1  0  0  0  0  0  0
  154.9970  214.2960  154.7230 O   0  0  0  0  0  0  0  0  0  0  0  0
  159.2270  212.7680  145.6690 C   0  0  0  0  0  2  0  0  0  0  0  0
  159.8250  213.3430  144.3990 C   0  0  0  0  0  2  0  0  0  0  0  0
  158.7110  213.8420  143.4970 C   0  0  0  0  0  2  0  0  0  0  0  0
  159.8660  212.3050  141.8530 C   0  0  0  0  0  0  0  0  0  0  0  0
  160.7790  212.0650  142.6890 O   0  0  0  0  0  0  0  0  0  0  0  0
  158.7860  213.1750  142.2050 N   0  0  0  0  0  2  0  0  0  0  0  0
  158.5710  211.1880  138.4720 C   0  0  0  0  0  0  0  0  0  0  0  0
  159.8940  211.6640  140.5260 C   0  0  0  0  0  0  0  0  0  0  0  0
  159.5700  211.0000  137.5070 O   0  0  0  0  0  0  0  0  0  0  0  0
  162.9840  210.8310  138.7330 O   0  0  0  0  0  1  0  0  0  0  0  0
  161.0920  210.8450  140.1690 C   0  0  0  0  0  2  0  0  0  0  0  0
  158.8190  211.7090  139.7920 N   0  0  0  0  0  0  0  0  0  0  0  0
  161.6360  211.1890  138.7970 C   0  0  2  0  0  3  0  0  0  0  0  0
  160.8610  210.4430  137.7220 C   0  0  1  0  0  3  0  0  0  0  0  0
  157.3740  211.0440  138.1110 O   0  0  0  0  0  0  0  0  0  0  0  0
  159.5180  208.4570  137.6070 O   0  0  0  0  0  1  0  0  0  0  0  0
  160.7830  208.9330  137.9590 C   0  0  0  0  0  2  0  0  0  0  0  0
  1  2  2  0  0  0  0
  2 27  1  0  0  0  0
  2  4  1  0  0  0  0
  3  4  2  0  0  0  0
  4  5  1  0  0  0  0
  6  5  1  0  0  0  0
  6  7  1  0  0  0  0
  8  7  1  0  0  0  0
  8  9  1  0  0  0  0
 10 11  1  0  0  0  0
 10  9  1  0  0  0  0
 12 20  1  6  0  0  0
 12 15  1  0  0  0  0
 13 24  1  1  0  0  0
 13 14  1  0  0  0  0
 13 12  1  0  0  0  0
 14 17  1  1  0  0  0
 14 16  1  0  0  0  0
 15 18  1  0  0  0  0
 16 18  1  0  0  0  0
 18 11  1  1  0  0  0
 19 21  1  0  0  0  0
 20 22  2  0  0  0  0
 21 20  1  0  0  0  0
 24 23  2  0  0  0  0
 25 24  1  0  0  0  0
 26 25  1  0  0  0  0
 27 29  1  0  0  0  0
 29 30  1  0  0  0  0
 30 28  2  0  0  0  0
 31 29  2  0  0  0  0
 31 32  1  0  0  0  0
 32 33  2  0  0  0  0
 33 28  1  0  0  0  0
 33 35  1  0  0  0  0
 34 36  1  0  0  0  0
 35 34  2  0  0  0  0
 36 37  1  0  0  0  0
 38 36  2  0  0  0  0
 39  1  1  0  0  0  0
 40 39  1  0  0  0  0
 41 40  1  0  0  0  0
 42 44  1  0  0  0  0
 42 43  2  0  0  0  0
 44 41  1  0  0  0  0
 45 50  1  0  0  0  0
 46 42  1  0  0  0  0
 47 52  1  0  0  0  0
 47 45  1  0  0  0  0
 49 46  1  0  0  0  0
 50 46  2  0  0  0  0
 51 48  1  1  0  0  0
 51 49  1  0  0  0  0
 52 55  1  1  0  0  0
 52 51  1  0  0  0  0
 53 45  2  0  0  0  0
 54 55  1  0  0  0  0
M  END
>  <MODEL>
4

>  <REMARK>
 VINA RESULT:      -4.2      2.317      9.640
  Name = 
  22 active torsions:
  status: ('A' for Active; 'I' for Inactive)
    1  A    between atoms: C_1  and  N_6
    2  A    between atoms: C_2  and  C_18
    3  A    between atoms: C_2  and  C_20
    4  A    between atoms: C_4  and  C_19
    5  A    between atoms: O_8  and  C_15
    6  A    between atoms: O_8  and  C_45
    7  A    between atoms: N_9  and  C_20
    8  A    between atoms: C_10  and  C_15
    9  A    between atoms: C_10  and  N_55
   10  A    between atoms: C_11  and  C_30
   11  A    between atoms: C_12  and  C_37
   12  A    between atoms: C_16  and  C_54
   13  A    between atoms: C_18  and  N_33
   14  A    between atoms: O_22  and  C_37
   15  A    between atoms: C_28  and  C_53
   16  A    between atoms: C_36  and  C_41
   17  A    between atoms: C_36  and  N_55
   18  A    between atoms: C_41  and  C_49
   19  A    between atoms: C_45  and  C_52
   20  A    between atoms: C_46  and  C_52
   21  A    between atoms: C_46  and  C_54
   22  A    between atoms: C_48  and  C_50
                            x       y       z     vdW  Elec       q    Type
                         _______ _______ _______ _____ _____    ______ ____

>  <TORSDO>
F 22

$$$$
=
 OpenBabel11052410233D

 55 57  0  0  1  0  0  0  0  0999 V2000
  159.9520  212.2830  146.8290 N   0  0  0  0  0  0  0  0  0  0  0  0
  161.0330  212.9900  146.6770 C   0  0  0  0  0  0  0  0  0  0  0  0
  163.4130  212.6110  146.9330 C   0  0  0  0  0  2  0  0  0  0  0  0
  162.2080  212.6810  147.5000 C   0  0  0  0  0  0  0  0  0  0  0  0
  162.0180  212.1510  148.8800 C   0  0  0  0  0  2  0  0  0  0  0  0
  162.6750  210.9230  149.0220 O   0  0  0  0  0  0  0  0  0  0  0  0
  161.6410  209.9980  149.1900 C   0  0  0  0  0  2  0  0  0  0  0  0
  162.1640  208.7660  149.9020 C   0  0  0  0  0  2  0  0  0  0  0  0
  161.1150  207.7610  149.9850 N   0  0  0  0  0  2  0  0  0  0  0  0
  161.0440  207.3500  151.3740 C   0  0  0  0  0  2  0  0  0  0  0  0
  160.3560  206.0010  151.4620 C   0  0  0  0  0  2  0  0  0  0  0  0
  161.2930  203.9960  148.9400 C   0  0  1  0  0  3  0  0  0  0  0  0
  161.2780  202.5280  149.4050 C   0  0  1  0  0  3  0  0  0  0  0  0
  161.2740  202.3470  150.9290 C   0  0  2  0  0  3  0  0  0  0  0  0
  162.0230  204.8930  149.9380 C   0  0  0  0  0  2  0  0  0  0  0  0
  160.6520  203.5460  151.6450 C   0  0  0  0  0  2  0  0  0  0  0  0
  162.5800  202.1280  151.3870 O   0  0  0  0  0  1  0  0  0  0  0  0
  161.3600  204.8720  151.3270 C   0  0  2  0  0  3  0  0  0  0  0  0
  161.6640  203.8280  145.1930 O   0  0  0  0  0  1  0  0  0  0  0  0
  161.9050  204.1040  147.5820 C   0  0  0  0  0  0  0  0  0  0  0  0
  161.1260  203.7750  146.4340 N   0  0  0  0  0  2  0  0  0  0  0  0
  163.1120  204.4540  147.4530 O   0  0  0  0  0  0  0  0  0  0  0  0
  159.0710  201.6020  149.4320 O   0  0  0  0  0  0  0  0  0  0  0  0
  160.1420  201.7810  148.7860 C   0  0  0  0  0  0  0  0  0  0  0  0
  160.2760  201.2960  147.4850 O   0  0  0  0  0  0  0  0  0  0  0  0
  161.1900  200.2570  147.1660 C   0  0  0  0  0  1  0  0  0  0  0  0
  161.0920  214.1350  145.7080 C   0  0  0  0  0  2  0  0  0  0  0  0
  159.9560  213.8650  142.1040 C   0  0  0  0  0  3  0  0  0  0  0  0
  160.9800  213.6730  144.2940 C   0  0  0  0  0  0  0  0  0  0  0  0
  160.0760  214.2990  143.4290 C   0  0  0  0  0  3  0  0  0  0  0  0
  161.7560  212.6030  143.8340 C   0  0  0  0  0  3  0  0  0  0  0  0
  161.6360  212.1690  142.5090 C   0  0  0  0  0  3  0  0  0  0  0  0
  160.7330  212.7980  141.6400 C   0  0  0  0  0  0  0  0  0  0  0  0
  159.5950  212.7640  139.5150 N   0  0  0  0  0  0  0  0  0  0  0  0
  160.5870  212.3650  140.2470 C   0  0  0  0  0  3  0  0  0  0  0  0
  159.4360  212.3460  138.1560 C   0  0  0  0  0  0  0  0  0  0  0  0
  160.5850  211.7310  137.4420 C   0  0  0  0  0  1  0  0  0  0  0  0
  158.3370  212.4950  137.5560 O   0  0  0  0  0  0  0  0  0  0  0  0
  158.6980  212.4990  146.1120 C   0  0  0  0  0  2  0  0  0  0  0  0
  157.6350  213.0280  147.0560 C   0  0  0  0  0  2  0  0  0  0  0  0
  158.2050  214.1800  147.8630 C   0  0  0  0  0  2  0  0  0  0  0  0
  157.3270  213.9570  150.2250 C   0  0  0  0  0  0  0  0  0  0  0  0
  156.2170  214.4470  149.8790 O   0  0  0  0  0  0  0  0  0  0  0  0
  158.3620  213.7780  149.2540 N   0  0  0  0  0  2  0  0  0  0  0  0
  159.2490  212.7880  153.2730 C   0  0  0  0  0  0  0  0  0  0  0  0
  157.5450  213.5390  151.6210 C   0  0  0  0  0  0  0  0  0  0  0  0
  158.6610  213.1440  154.4950 O   0  0  0  0  0  0  0  0  0  0  0  0
  155.2140  214.2790  154.3550 O   0  0  0  0  0  1  0  0  0  0  0  0
  156.3450  213.3410  152.4890 C   0  0  0  0  0  2  0  0  0  0  0  0
  158.7510  213.2140  151.9910 N   0  0  0  0  0  0  0  0  0  0  0  0
  156.4840  214.0310  153.8310 C   0  0  2  0  0  3  0  0  0  0  0  0
  157.2700  213.1560  154.7940 C   0  0  1  0  0  3  0  0  0  0  0  0
  160.3610  212.1990  153.3080 O   0  0  0  0  0  0  0  0  0  0  0  0
  157.5190  210.9820  155.7820 O   0  0  0  0  0  1  0  0  0  0  0  0
  156.7160  211.7350  154.9220 C   0  0  0  0  0  2  0  0  0  0  0  0
  2  1  2  0  0  0  0
  2  4  1  0  0  0  0
  3  4  2  0  0  0  0
  4  5  1  0  0  0  0
  5  6  1  0  0  0  0
  6  7  1  0  0  0  0
  7  8  1  0  0  0  0
  8  9  1  0  0  0  0
  9 10  1  0  0  0  0
 10 11  1  0  0  0  0
 12 20  1  6  0  0  0
 12 13  1  0  0  0  0
 12 15  1  0  0  0  0
 13 24  1  6  0  0  0
 13 14  1  0  0  0  0
 14 17  1  1  0  0  0
 14 16  1  0  0  0  0
 15 18  1  0  0  0  0
 18 11  1  6  0  0  0
 18 16  1  0  0  0  0
 19 21  1  0  0  0  0
 21 20  1  0  0  0  0
 22 20  2  0  0  0  0
 24 23  2  0  0  0  0
 25 24  1  0  0  0  0
 26 25  1  0  0  0  0
 27  2  1  0  0  0  0
 28 30  1  0  0  0  0
 29 27  1  0  0  0  0
 30 29  2  0  0  0  0
 31 29  1  0  0  0  0
 32 31  2  0  0  0  0
 33 28  2  0  0  0  0
 33 32  1  0  0  0  0
 34 35  2  0  0  0  0
 35 33  1  0  0  0  0
 36 34  1  0  0  0  0
 37 36  1  0  0  0  0
 38 36  2  0  0  0  0
 39  1  1  0  0  0  0
 39 40  1  0  0  0  0
 40 41  1  0  0  0  0
 41 44  1  0  0  0  0
 42 46  1  0  0  0  0
 43 42  2  0  0  0  0
 44 42  1  0  0  0  0
 45 53  2  0  0  0  0
 45 47  1  0  0  0  0
 46 50  2  0  0  0  0
 46 49  1  0  0  0  0
 47 52  1  0  0  0  0
 49 51  1  0  0  0  0
 50 45  1  0  0  0  0
 51 48  1  1  0  0  0
 51 52  1  0  0  0  0
 52 55  1  6  0  0  0
 55 54  1  0  0  0  0
M  END
>  <MODEL>
5

>  <REMARK>
 VINA RESULT:      -4.1      1.465      2.157
  Name = 
  22 active torsions:
  status: ('A' for Active; 'I' for Inactive)
    1  A    between atoms: C_1  and  N_6
    2  A    between atoms: C_2  and  C_18
    3  A    between atoms: C_2  and  C_20
    4  A    between atoms: C_4  and  C_19
    5  A    between atoms: O_8  and  C_15
    6  A    between atoms: O_8  and  C_45
    7  A    between atoms: N_9  and  C_20
    8  A    between atoms: C_10  and  C_15
    9  A    between atoms: C_10  and  N_55
   10  A    between atoms: C_11  and  C_30
   11  A    between atoms: C_12  and  C_37
   12  A    between atoms: C_16  and  C_54
   13  A    between atoms: C_18  and  N_33
   14  A    between atoms: O_22  and  C_37
   15  A    between atoms: C_28  and  C_53
   16  A    between atoms: C_36  and  C_41
   17  A    between atoms: C_36  and  N_55
   18  A    between atoms: C_41  and  C_49
   19  A    between atoms: C_45  and  C_52
   20  A    between atoms: C_46  and  C_52
   21  A    between atoms: C_46  and  C_54
   22  A    between atoms: C_48  and  C_50
                            x       y       z     vdW  Elec       q    Type
                         _______ _______ _______ _____ _____    ______ ____

>  <TORSDO>
F 22

$$$$
=
 OpenBabel11052410233D

 55 57  0  0  1  0  0  0  0  0999 V2000
  161.1050  203.9160  144.7400 N   0  0  0  0  0  0  0  0  0  0  0  0
  161.3420  203.2190  145.8120 C   0  0  0  0  0  0  0  0  0  0  0  0
  159.4840  201.7450  145.3090 C   0  0  0  0  0  2  0  0  0  0  0  0
  160.5480  202.0120  146.0680 C   0  0  0  0  0  0  0  0  0  0  0  0
  160.7420  201.2630  147.3420 C   0  0  0  0  0  2  0  0  0  0  0  0
  160.3970  202.0690  148.4340 O   0  0  0  0  0  0  0  0  0  0  0  0
  161.2840  201.6770  149.4420 C   0  0  0  0  0  2  0  0  0  0  0  0
  160.7420  202.0950  150.7940 C   0  0  0  0  0  2  0  0  0  0  0  0
  160.8830  203.5340  150.9610 N   0  0  0  0  0  2  0  0  0  0  0  0
  161.0370  203.7730  152.3820 C   0  0  0  0  0  2  0  0  0  0  0  0
  160.3970  205.1020  152.7380 C   0  0  0  0  0  2  0  0  0  0  0  0
  160.9700  207.9220  154.4620 C   0  0  1  0  0  3  0  0  0  0  0  0
  161.0690  209.1160  153.4940 C   0  0  1  0  0  3  0  0  0  0  0  0
  161.3140  208.7260  152.0310 C   0  0  2  0  0  3  0  0  0  0  0  0
  161.8270  206.7480  153.9930 C   0  0  0  0  0  2  0  0  0  0  0  0
  160.7830  207.3270  151.7160 C   0  0  0  0  0  2  0  0  0  0  0  0
  162.6820  208.8070  151.7370 O   0  0  0  0  0  1  0  0  0  0  0  0
  161.3960  206.2350  152.6070 C   0  0  2  0  0  3  0  0  0  0  0  0
  162.7420  209.7240  157.2590 O   0  0  0  0  0  1  0  0  0  0  0  0
  161.3540  208.3400  155.8440 C   0  0  0  0  0  0  0  0  0  0  0  0
  162.3460  209.3500  156.0190 N   0  0  0  0  0  2  0  0  0  0  0  0
  160.8280  207.7830  156.8470 O   0  0  0  0  0  0  0  0  0  0  0  0
  159.3240  210.4670  152.5690 O   0  0  0  0  0  0  0  0  0  0  0  0
  159.8680  209.9980  153.6070 C   0  0  0  0  0  0  0  0  0  0  0  0
  159.3530  210.2860  154.8720 O   0  0  0  0  0  0  0  0  0  0  0  0
  159.4740  211.5760  155.4520 C   0  0  0  0  0  1  0  0  0  0  0  0
  162.3820  203.6410  146.8090 C   0  0  0  0  0  2  0  0  0  0  0  0
  160.6380  206.6860  148.2360 C   0  0  0  0  0  3  0  0  0  0  0  0
  162.1430  205.0260  147.3100 C   0  0  0  0  0  0  0  0  0  0  0  0
  160.8740  205.3860  147.7750 C   0  0  0  0  0  3  0  0  0  0  0  0
  163.1740  205.9740  147.2950 C   0  0  0  0  0  3  0  0  0  0  0  0
  162.9360  207.2730  147.7560 C   0  0  0  0  0  3  0  0  0  0  0  0
  161.6650  207.6340  148.2260 C   0  0  0  0  0  0  0  0  0  0  0  0
  162.1840  209.9780  148.4560 N   0  0  0  0  0  0  0  0  0  0  0  0
  161.3890  208.9880  148.7160 C   0  0  0  0  0  3  0  0  0  0  0  0
  161.9310  211.3020  148.9310 C   0  0  0  0  0  0  0  0  0  0  0  0
  162.2490  212.4640  148.0600 C   0  0  0  0  0  1  0  0  0  0  0  0
  161.4460  211.4990  150.0770 O   0  0  0  0  0  0  0  0  0  0  0  0
  161.7850  205.1560  144.3760 C   0  0  0  0  0  2  0  0  0  0  0  0
  160.9920  205.9030  143.3210 C   0  0  0  0  0  2  0  0  0  0  0  0
  161.7830  205.9400  142.0270 C   0  0  0  0  0  2  0  0  0  0  0  0
  162.1260  207.6180  140.1650 C   0  0  0  0  0  0  0  0  0  0  0  0
  163.2710  207.1470  139.9250 O   0  0  0  0  0  0  0  0  0  0  0  0
  161.3190  207.0430  141.1970 N   0  0  0  0  0  2  0  0  0  0  0  0
  162.1850  210.4420  137.6410 C   0  0  0  0  0  0  0  0  0  0  0  0
  161.6070  208.7390  139.3610 C   0  0  0  0  0  0  0  0  0  0  0  0
  160.9360  210.7320  137.0730 O   0  0  0  0  0  0  0  0  0  0  0  0
  158.0380  209.3210  138.7450 O   0  0  0  0  0  1  0  0  0  0  0  0
  160.2280  209.2350  139.6580 C   0  0  0  0  0  2  0  0  0  0  0  0
  162.4190  209.3450  138.5430 N   0  0  0  0  0  0  0  0  0  0  0  0
  159.3900  209.3900  138.4050 C   0  0  2  0  0  3  0  0  0  0  0  0
  159.6800  210.7260  137.7400 C   0  0  1  0  0  3  0  0  0  0  0  0
  163.1840  211.0790  137.2140 O   0  0  0  0  0  0  0  0  0  0  0  0
  159.5590  213.1140  137.9560 O   0  0  0  0  0  1  0  0  0  0  0  0
  159.5460  211.9230  138.6850 C   0  0  0  0  0  2  0  0  0  0  0  0
  1  2  2  0  0  0  0
  2  4  1  0  0  0  0
  2 27  1  0  0  0  0
  3  4  2  0  0  0  0
  4  5  1  0  0  0  0
  5  6  1  0  0  0  0
  6  7  1  0  0  0  0
  7  8  1  0  0  0  0
  8  9  1  0  0  0  0
  9 10  1  0  0  0  0
 10 11  1  0  0  0  0
 12 20  1  1  0  0  0
 13 24  1  6  0  0  0
 13 12  1  0  0  0  0
 14 17  1  1  0  0  0
 14 13  1  0  0  0  0
 15 12  1  0  0  0  0
 16 14  1  0  0  0  0
 16 18  1  0  0  0  0
 18 11  1  1  0  0  0
 18 15  1  0  0  0  0
 20 21  1  0  0  0  0
 20 22  2  0  0  0  0
 21 19  1  0  0  0  0
 23 24  2  0  0  0  0
 24 25  1  0  0  0  0
 25 26  1  0  0  0  0
 27 29  1  0  0  0  0
 29 30  1  0  0  0  0
 30 28  2  0  0  0  0
 31 29  2  0  0  0  0
 31 32  1  0  0  0  0
 32 33  2  0  0  0  0
 33 28  1  0  0  0  0
 33 35  1  0  0  0  0
 34 35  2  0  0  0  0
 34 36  1  0  0  0  0
 36 38  2  0  0  0  0
 37 36  1  0  0  0  0
 39  1  1  0  0  0  0
 40 39  1  0  0  0  0
 41 40  1  0  0  0  0
 42 44  1  0  0  0  0
 43 42  2  0  0  0  0
 44 41  1  0  0  0  0
 45 50  1  0  0  0  0
 46 49  1  0  0  0  0
 46 42  1  0  0  0  0
 47 45  1  0  0  0  0
 47 52  1  0  0  0  0
 50 46  2  0  0  0  0
 51 48  1  1  0  0  0
 51 49  1  0  0  0  0
 52 51  1  0  0  0  0
 52 55  1  1  0  0  0
 53 45  2  0  0  0  0
 54 55  1  0  0  0  0
M  END
>  <MODEL>
6

>  <REMARK>
 VINA RESULT:      -4.0      2.898     11.216
  Name = 
  22 active torsions:
  status: ('A' for Active; 'I' for Inactive)
    1  A    between atoms: C_1  and  N_6
    2  A    between atoms: C_2  and  C_18
    3  A    between atoms: C_2  and  C_20
    4  A    between atoms: C_4  and  C_19
    5  A    between atoms: O_8  and  C_15
    6  A    between atoms: O_8  and  C_45
    7  A    between atoms: N_9  and  C_20
    8  A    between atoms: C_10  and  C_15
    9  A    between atoms: C_10  and  N_55
   10  A    between atoms: C_11  and  C_30
   11  A    between atoms: C_12  and  C_37
   12  A    between atoms: C_16  and  C_54
   13  A    between atoms: C_18  and  N_33
   14  A    between atoms: O_22  and  C_37
   15  A    between atoms: C_28  and  C_53
   16  A    between atoms: C_36  and  C_41
   17  A    between atoms: C_36  and  N_55
   18  A    between atoms: C_41  and  C_49
   19  A    between atoms: C_45  and  C_52
   20  A    between atoms: C_46  and  C_52
   21  A    between atoms: C_46  and  C_54
   22  A    between atoms: C_48  and  C_50
                            x       y       z     vdW  Elec       q    Type
                         _______ _______ _______ _____ _____    ______ ____

>  <TORSDO>
F 22

$$$$
=
 OpenBabel11052410233D

 55 57  0  0  1  0  0  0  0  0999 V2000
  160.7400  212.3830  146.2500 N   0  0  0  0  0  0  0  0  0  0  0  0
  161.0270  213.0580  147.3230 C   0  0  0  0  0  0  0  0  0  0  0  0
  163.3700  212.9510  147.9350 C   0  0  0  0  0  2  0  0  0  0  0  0
  162.1130  212.5880  148.1920 C   0  0  0  0  0  0  0  0  0  0  0  0
  161.8540  211.4800  149.1540 C   0  0  0  0  0  2  0  0  0  0  0  0
  162.3910  210.2820  148.6680 O   0  0  0  0  0  0  0  0  0  0  0  0
  162.2910  209.3980  149.7470 C   0  0  0  0  0  2  0  0  0  0  0  0
  161.8130  208.0450  149.2600 C   0  0  0  0  0  2  0  0  0  0  0  0
  161.2120  208.1780  147.9410 N   0  0  0  0  0  2  0  0  0  0  0  0
  160.6090  206.8970  147.6300 C   0  0  0  0  0  2  0  0  0  0  0  0
  160.7380  206.6320  146.1420 C   0  0  0  0  0  2  0  0  0  0  0  0
  160.6890  203.2840  145.9310 C   0  0  1  0  0  3  0  0  0  0  0  0
  161.8150  202.6880  146.7970 C   0  0  1  0  0  3  0  0  0  0  0  0
  162.9130  203.6880  147.1840 C   0  0  2  0  0  3  0  0  0  0  0  0
  161.2040  204.4160  145.0440 C   0  0  0  0  0  2  0  0  0  0  0  0
  162.3920  205.1260  147.2110 C   0  0  0  0  0  2  0  0  0  0  0  0
  163.9930  203.5770  146.2990 O   0  0  0  0  0  1  0  0  0  0  0  0
  161.7920  205.5750  145.8700 C   0  0  2  0  0  3  0  0  0  0  0  0
  159.9160  199.8730  144.5240 O   0  0  0  0  0  1  0  0  0  0  0  0
  160.0470  202.2160  145.1070 C   0  0  0  0  0  0  0  0  0  0  0  0
  160.4520  200.8590  145.2820 N   0  0  0  0  0  2  0  0  0  0  0  0
  159.1770  202.5140  144.2430 O   0  0  0  0  0  0  0  0  0  0  0  0
  161.5020  200.8060  148.2420 O   0  0  0  0  0  0  0  0  0  0  0  0
  161.2580  202.0240  148.0150 C   0  0  0  0  0  0  0  0  0  0  0  0
  160.4770  202.7700  148.8980 O   0  0  0  0  0  0  0  0  0  0  0  0
  160.8320  202.9230  150.2640 C   0  0  0  0  0  1  0  0  0  0  0  0
  160.2510  214.2840  147.7110 C   0  0  0  0  0  2  0  0  0  0  0  0
  157.3940  213.5760  150.0950 C   0  0  0  0  0  3  0  0  0  0  0  0
  159.4840  214.0790  148.9740 C   0  0  0  0  0  0  0  0  0  0  0  0
  158.1240  213.7580  148.9160 C   0  0  0  0  0  3  0  0  0  0  0  0
  160.1110  214.2300  150.2170 C   0  0  0  0  0  3  0  0  0  0  0  0
  159.3800  214.0470  151.3960 C   0  0  0  0  0  3  0  0  0  0  0  0
  158.0170  213.7220  151.3390 C   0  0  0  0  0  0  0  0  0  0  0  0
  157.7900  213.4430  153.7230 N   0  0  0  0  0  0  0  0  0  0  0  0
  157.2280  213.5240  152.5580 C   0  0  0  0  0  3  0  0  0  0  0  0
  157.0340  213.2450  154.9200 C   0  0  0  0  0  0  0  0  0  0  0  0
  156.0610  212.1240  154.9930 C   0  0  0  0  0  1  0  0  0  0  0  0
  157.1800  214.0080  155.9130 O   0  0  0  0  0  0  0  0  0  0  0  0
  159.6640  212.7060  145.3160 C   0  0  0  0  0  2  0  0  0  0  0  0
  160.1550  213.6810  144.2630 C   0  0  0  0  0  2  0  0  0  0  0  0
  159.0390  213.9570  143.2720 C   0  0  0  0  0  2  0  0  0  0  0  0
  160.0130  212.4470  141.4920 C   0  0  0  0  0  0  0  0  0  0  0  0
  160.0200  211.4740  142.2940 O   0  0  0  0  0  0  0  0  0  0  0  0
  159.5130  213.7180  141.9170 N   0  0  0  0  0  2  0  0  0  0  0  0
  159.7980  212.1770  137.7190 C   0  0  0  0  0  0  0  0  0  0  0  0
  160.4890  212.2660  140.1080 C   0  0  0  0  0  0  0  0  0  0  0  0
  160.9840  212.5100  137.0500 O   0  0  0  0  0  0  0  0  0  0  0  0
  163.9860  212.6970  139.0860 O   0  0  0  0  0  1  0  0  0  0  0  0
  161.9160  211.8690  139.9050 C   0  0  0  0  0  2  0  0  0  0  0  0
  159.6170  212.3070  139.1420 N   0  0  0  0  0  0  0  0  0  0  0  0
  162.6080  212.7240  138.8620 C   0  0  2  0  0  3  0  0  0  0  0  0
  162.3080  212.1990  137.4670 C   0  0  1  0  0  3  0  0  0  0  0  0
  158.7880  211.9020  137.0190 O   0  0  0  0  0  0  0  0  0  0  0  0
  161.5340  209.9450  137.7530 O   0  0  0  0  0  1  0  0  0  0  0  0
  162.6100  210.7090  137.2950 C   0  0  0  0  0  2  0  0  0  0  0  0
  1  2  2  0  0  0  0
  2 27  1  0  0  0  0
  2  4  1  0  0  0  0
  3  4  2  0  0  0  0
  4  5  1  0  0  0  0
  6  5  1  0  0  0  0
  6  7  1  0  0  0  0
  8  7  1  0  0  0  0
  9  8  1  0  0  0  0
 10  9  1  0  0  0  0
 11 10  1  0  0  0  0
 12 20  1  6  0  0  0
 12 13  1  0  0  0  0
 13 14  1  0  0  0  0
 13 24  1  1  0  0  0
 14 17  1  6  0  0  0
 14 16  1  0  0  0  0
 15 18  1  0  0  0  0
 15 12  1  0  0  0  0
 18 11  1  1  0  0  0
 18 16  1  0  0  0  0
 19 21  1  0  0  0  0
 20 21  1  0  0  0  0
 22 20  2  0  0  0  0
 24 23  2  0  0  0  0
 24 25  1  0  0  0  0
 25 26  1  0  0  0  0
 27 29  1  0  0  0  0
 28 33  1  0  0  0  0
 29 31  2  0  0  0  0
 30 29  1  0  0  0  0
 30 28  2  0  0  0  0
 31 32  1  0  0  0  0
 33 32  2  0  0  0  0
 33 35  1  0  0  0  0
 34 36  1  0  0  0  0
 35 34  2  0  0  0  0
 36 37  1  0  0  0  0
 36 38  2  0  0  0  0
 39  1  1  0  0  0  0
 40 39  1  0  0  0  0
 41 40  1  0  0  0  0
 42 44  1  0  0  0  0
 42 43  2  0  0  0  0
 44 41  1  0  0  0  0
 45 50  1  0  0  0  0
 46 42  1  0  0  0  0
 47 52  1  0  0  0  0
 47 45  1  0  0  0  0
 49 46  1  0  0  0  0
 50 46  2  0  0  0  0
 51 48  1  1  0  0  0
 51 49  1  0  0  0  0
 52 55  1  1  0  0  0
 52 51  1  0  0  0  0
 53 45  2  0  0  0  0
 55 54  1  0  0  0  0
M  END
>  <MODEL>
7

>  <REMARK>
 VINA RESULT:      -3.4      2.337      9.799
  Name = 
  22 active torsions:
  status: ('A' for Active; 'I' for Inactive)
    1  A    between atoms: C_1  and  N_6
    2  A    between atoms: C_2  and  C_18
    3  A    between atoms: C_2  and  C_20
    4  A    between atoms: C_4  and  C_19
    5  A    between atoms: O_8  and  C_15
    6  A    between atoms: O_8  and  C_45
    7  A    between atoms: N_9  and  C_20
    8  A    between atoms: C_10  and  C_15
    9  A    between atoms: C_10  and  N_55
   10  A    between atoms: C_11  and  C_30
   11  A    between atoms: C_12  and  C_37
   12  A    between atoms: C_16  and  C_54
   13  A    between atoms: C_18  and  N_33
   14  A    between atoms: O_22  and  C_37
   15  A    between atoms: C_28  and  C_53
   16  A    between atoms: C_36  and  C_41
   17  A    between atoms: C_36  and  N_55
   18  A    between atoms: C_41  and  C_49
   19  A    between atoms: C_45  and  C_52
   20  A    between atoms: C_46  and  C_52
   21  A    between atoms: C_46  and  C_54
   22  A    between atoms: C_48  and  C_50
                            x       y       z     vdW  Elec       q    Type
                         _______ _______ _______ _____ _____    ______ ____

>  <TORSDO>
F 22

$$$$
=
 OpenBabel11052410233D

 55 57  0  0  1  0  0  0  0  0999 V2000
  161.8630  210.3990  150.0510 N   0  0  0  0  0  0  0  0  0  0  0  0
  161.9750  209.7020  151.1430 C   0  0  0  0  0  0  0  0  0  0  0  0
  160.8250  207.7810  152.0730 C   0  0  0  0  0  2  0  0  0  0  0  0
  161.6130  208.2800  151.1200 C   0  0  0  0  0  0  0  0  0  0  0  0
  162.3610  207.3470  150.2280 C   0  0  0  0  0  2  0  0  0  0  0  0
  161.5510  206.9470  149.1590 O   0  0  0  0  0  0  0  0  0  0  0  0
  162.2370  207.3920  148.0250 C   0  0  0  0  0  2  0  0  0  0  0  0
  161.8100  206.5830  146.8160 C   0  0  0  0  0  2  0  0  0  0  0  0
  162.9700  206.2750  145.9920 N   0  0  0  0  0  2  0  0  0  0  0  0
  162.4930  205.4600  144.8930 C   0  0  0  0  0  2  0  0  0  0  0  0
  162.5380  203.9980  145.2990 C   0  0  0  0  0  2  0  0  0  0  0  0
  161.2040  203.1830  148.2680 C   0  0  1  0  0  3  0  0  0  0  0  0
  160.4920  201.8210  148.1660 C   0  0  1  0  0  3  0  0  0  0  0  0
  160.1820  201.3750  146.7310 C   0  0  2  0  0  3  0  0  0  0  0  0
  160.8070  204.1110  147.1220 C   0  0  0  0  0  2  0  0  0  0  0  0
  161.1550  201.9840  145.7200 C   0  0  0  0  0  2  0  0  0  0  0  0
  158.8620  201.7120  146.4010 O   0  0  0  0  0  1  0  0  0  0  0  0
  161.1700  203.5200  145.7480 C   0  0  2  0  0  3  0  0  0  0  0  0
  161.4380  203.9800  151.9450 O   0  0  0  0  0  1  0  0  0  0  0  0
  160.9200  203.8190  149.5890 C   0  0  0  0  0  0  0  0  0  0  0  0
  161.6970  203.4480  150.7260 N   0  0  0  0  0  2  0  0  0  0  0  0
  159.9810  204.6550  149.7050 O   0  0  0  0  0  0  0  0  0  0  0  0
  162.1240  200.0740  148.2800 O   0  0  0  0  0  0  0  0  0  0  0  0
  161.2570  200.7610  148.8900 C   0  0  0  0  0  0  0  0  0  0  0  0
  161.0080  200.5490  150.2460 O   0  0  0  0  0  0  0  0  0  0  0  0
  159.6950  200.6030  150.7820 C   0  0  0  0  0  1  0  0  0  0  0  0
  162.4300  210.3260  152.4300 C   0  0  0  0  0  2  0  0  0  0  0  0
  160.2780  210.5510  155.5400 C   0  0  0  0  0  3  0  0  0  0  0  0
  161.2830  210.6320  153.3350 C   0  0  0  0  0  0  0  0  0  0  0  0
  161.3530  210.2780  154.6860 C   0  0  0  0  0  3  0  0  0  0  0  0
  160.1310  211.2500  152.8350 C   0  0  0  0  0  3  0  0  0  0  0  0
  159.0560  211.5220  153.6890 C   0  0  0  0  0  3  0  0  0  0  0  0
  159.1260  211.1710  155.0450 C   0  0  0  0  0  0  0  0  0  0  0  0
  156.9190  211.9990  155.5520 N   0  0  0  0  0  0  0  0  0  0  0  0
  158.0160  211.4450  155.9630 C   0  0  0  0  0  3  0  0  0  0  0  0
  155.8300  212.2780  156.4350 C   0  0  0  0  0  0  0  0  0  0  0  0
  155.2380  213.6410  156.4580 C   0  0  0  0  0  1  0  0  0  0  0  0
  155.3670  211.3860  157.1950 O   0  0  0  0  0  0  0  0  0  0  0  0
  162.1470  211.8270  149.9330 C   0  0  0  0  0  2  0  0  0  0  0  0
  162.3450  212.2080  148.4780 C   0  0  0  0  0  2  0  0  0  0  0  0
  161.0470  211.9940  147.7200 C   0  0  0  0  0  2  0  0  0  0  0  0
  160.1260  212.4030  145.4000 C   0  0  0  0  0  0  0  0  0  0  0  0
  158.9930  211.9760  145.7530 O   0  0  0  0  0  0  0  0  0  0  0  0
  161.1960  212.4570  146.3480 N   0  0  0  0  0  2  0  0  0  0  0  0
  159.2120  213.7480  141.9780 C   0  0  0  0  0  0  0  0  0  0  0  0
  160.3380  212.8780  144.0200 C   0  0  0  0  0  0  0  0  0  0  0  0
  160.2450  214.4510  141.3420 O   0  0  0  0  0  0  0  0  0  0  0  0
  163.5710  214.0500  142.7440 O   0  0  0  0  0  1  0  0  0  0  0  0
  161.7080  212.7500  143.4380 C   0  0  0  0  0  2  0  0  0  0  0  0
  159.2990  213.2400  143.3230 N   0  0  0  0  0  0  0  0  0  0  0  0
  162.1750  214.0320  142.7790 C   0  0  2  0  0  3  0  0  0  0  0  0
  161.6300  214.1260  141.3630 C   0  0  1  0  0  3  0  0  0  0  0  0
  158.0950  213.6990  141.4000 O   0  0  0  0  0  0  0  0  0  0  0  0
  162.6760  213.2470  139.3890 O   0  0  0  0  0  1  0  0  0  0  0  0
  161.9240  212.8900  140.5100 C   0  0  0  0  0  2  0  0  0  0  0  0
  1  2  2  0  0  0  0
  2 27  1  0  0  0  0
  4  2  1  0  0  0  0
  4  3  2  0  0  0  0
  5  4  1  0  0  0  0
  6  5  1  0  0  0  0
  7  6  1  0  0  0  0
  8  7  1  0  0  0  0
  9  8  1  0  0  0  0
 10 11  1  0  0  0  0
 10  9  1  0  0  0  0
 12 20  1  1  0  0  0
 13 12  1  0  0  0  0
 13 24  1  6  0  0  0
 14 17  1  6  0  0  0
 14 13  1  0  0  0  0
 15 12  1  0  0  0  0
 16 18  1  0  0  0  0
 16 14  1  0  0  0  0
 18 11  1  1  0  0  0
 18 15  1  0  0  0  0
 20 22  2  0  0  0  0
 20 21  1  0  0  0  0
 21 19  1  0  0  0  0
 23 24  2  0  0  0  0
 24 25  1  0  0  0  0
 25 26  1  0  0  0  0
 27 29  1  0  0  0  0
 29 30  1  0  0  0  0
 30 28  2  0  0  0  0
 31 29  2  0  0  0  0
 31 32  1  0  0  0  0
 32 33  2  0  0  0  0
 33 28  1  0  0  0  0
 33 35  1  0  0  0  0
 34 35  2  0  0  0  0
 34 36  1  0  0  0  0
 36 37  1  0  0  0  0
 36 38  2  0  0  0  0
 39  1  1  0  0  0  0
 40 39  1  0  0  0  0
 41 40  1  0  0  0  0
 42 43  2  0  0  0  0
 42 44  1  0  0  0  0
 44 41  1  0  0  0  0
 45 50  1  0  0  0  0
 46 42  1  0  0  0  0
 47 52  1  0  0  0  0
 47 45  1  0  0  0  0
 49 46  1  0  0  0  0
 50 46  2  0  0  0  0
 51 48  1  6  0  0  0
 51 49  1  0  0  0  0
 52 55  1  1  0  0  0
 52 51  1  0  0  0  0
 53 45  2  0  0  0  0
 54 55  1  0  0  0  0
M  END
>  <MODEL>
8

>  <REMARK>
 VINA RESULT:      -3.3      2.636      9.542
  Name = 
  22 active torsions:
  status: ('A' for Active; 'I' for Inactive)
    1  A    between atoms: C_1  and  N_6
    2  A    between atoms: C_2  and  C_18
    3  A    between atoms: C_2  and  C_20
    4  A    between atoms: C_4  and  C_19
    5  A    between atoms: O_8  and  C_15
    6  A    between atoms: O_8  and  C_45
    7  A    between atoms: N_9  and  C_20
    8  A    between atoms: C_10  and  C_15
    9  A    between atoms: C_10  and  N_55
   10  A    between atoms: C_11  and  C_30
   11  A    between atoms: C_12  and  C_37
   12  A    between atoms: C_16  and  C_54
   13  A    between atoms: C_18  and  N_33
   14  A    between atoms: O_22  and  C_37
   15  A    between atoms: C_28  and  C_53
   16  A    between atoms: C_36  and  C_41
   17  A    between atoms: C_36  and  N_55
   18  A    between atoms: C_41  and  C_49
   19  A    between atoms: C_45  and  C_52
   20  A    between atoms: C_46  and  C_52
   21  A    between atoms: C_46  and  C_54
   22  A    between atoms: C_48  and  C_50
                            x       y       z     vdW  Elec       q    Type
                         _______ _______ _______ _____ _____    ______ ____

>  <TORSDO>
F 22

$$$$
