=
 OpenBabel11042422053D

 54 57  0  0  1  0  0  0  0  0999 V2000
  161.5820  208.2240  151.3020 C   0  0  1  0  0  3  0  0  0  0  0  0
  160.2900  210.4760  153.5690 C   0  0  0  0  0  0  0  0  0  0  0  0
  161.0870  209.3680  153.4590 C   0  0  0  0  0  0  0  0  0  0  0  0
  159.4260  210.6180  154.6560 C   0  0  0  0  0  0  0  0  0  0  0  0
  161.6280  210.7860  151.6200 C   0  0  0  0  0  3  0  0  0  0  0  0
  160.1880  208.5220  155.5110 C   0  0  0  0  0  0  0  0  0  0  0  0
  160.4830  211.4150  152.4360 C   0  0  0  0  0  3  0  0  0  0  0  0
  159.4020  209.6330  155.6070 N   0  0  0  0  0  0  0  0  0  0  0  0
  160.1160  207.2960  156.7580 Cl  0  0  0  0  0  0  0  0  0  0  0  0
  161.9260  209.4040  152.2360 C   0  0  2  0  0  3  0  0  0  0  0  0
  161.0590  208.3650  154.4230 C   0  0  0  0  0  3  0  0  0  0  0  0
  157.8730  211.9980  155.8260 C   0  0  0  0  0  3  0  0  0  0  0  0
  158.5760  211.7670  154.7660 N   0  0  0  0  0  0  0  0  0  0  0  0
  155.2020  211.6190  154.8220 C   0  0  0  0  0  1  0  0  0  0  0  0
  156.9860  213.2040  155.8920 C   0  0  2  0  0  3  0  0  0  0  0  0
  156.5120  213.3860  157.2590 N   0  0  0  0  0  2  0  0  0  0  0  0
  155.1420  213.1920  156.7880 C   0  0  0  0  0  2  0  0  0  0  0  0
  155.5730  212.9980  155.3570 C   0  0  0  0  0  0  0  0  0  0  0  0
  155.1170  214.1380  154.4670 C   0  0  0  0  0  1  0  0  0  0  0  0
  161.8290  209.9020  149.4010 N   0  0  0  0  0  2  0  0  0  0  0  0
  160.9770  207.7600  149.0370 O   0  0  0  0  0  0  0  0  0  0  0  0
  161.4520  208.5970  149.8480 C   0  0  0  0  0  0  0  0  0  0  0  0
  161.6900  210.3200  148.0140 C   0  0  0  0  0  2  0  0  0  0  0  0
  161.7510  211.8360  147.9210 C   0  0  2  0  0  3  0  0  0  0  0  0
  164.0840  212.0800  147.6990 O   0  0  0  0  0  0  0  0  0  0  0  0
  163.0890  212.3380  148.3580 C   0  0  0  0  0  3  0  0  0  0  0  0
  160.7560  212.3940  148.7290 O   0  0  0  0  0  0  0  0  0  0  0  0
  160.2410  213.4760  148.0010 C   0  0  2  0  0  3  0  0  0  0  0  0
  159.1040  214.0800  148.7000 N   0  0  0  0  0  2  0  0  0  0  0  0
  158.8520  213.3730  149.9520 C   0  0  0  0  0  2  0  0  0  0  0  0
  157.4990  213.4610  150.2740 O   0  0  0  0  0  1  0  0  0  0  0  0
  159.8640  213.0450  146.7230 O   0  0  0  0  0  0  0  0  0  0  0  0
  158.4950  213.3150  146.6370 C   0  0  0  0  0  2  0  0  0  0  0  0
  157.8990  212.4720  145.6150 N   0  0  0  0  0  1  0  0  0  0  0  0
  162.5050  207.1030  151.4800 N   0  0  0  0  0  2  0  0  0  0  0  0
  162.2180  206.3980  152.7320 C   0  0  0  0  0  2  0  0  0  0  0  0
  161.6420  205.0060  152.4950 C   0  0  1  0  0  3  0  0  0  0  0  0
  160.7550  204.6430  153.5830 N   0  0  0  0  0  1  0  0  0  0  0  0
  160.8720  204.9670  151.1840 C   0  0  0  0  0  2  0  0  0  0  0  0
  161.6300  204.2460  150.1740 N   0  0  0  0  0  2  0  0  0  0  0  0
  160.7120  203.8440  149.1910 N   0  0  0  0  0  2  0  0  0  0  0  0
  160.9350  203.0000  145.1680 C   0  0  0  0  0  2  0  0  0  0  0  0
  161.4780  203.2720  148.0920 C   0  0  1  0  0  3  0  0  0  0  0  0
  160.8140  200.9930  148.2960 O   0  0  0  0  0  1  0  0  0  0  0  0
  160.6860  202.1130  147.4760 C   0  0  2  0  0  3  0  0  0  0  0  0
  161.6120  204.1830  145.6950 N   0  0  0  0  0  0  0  0  0  0  0  0
  161.8330  204.3550  147.1090 C   0  0  0  0  0  0  0  0  0  0  0  0
  162.3890  205.4050  147.5360 O   0  0  0  0  0  0  0  0  0  0  0  0
  161.1690  201.7870  146.0580 C   0  0  1  0  0  3  0  0  0  0  0  0
  160.3870  200.6140  145.4790 C   0  0  0  0  0  2  0  0  0  0  0  0
  159.3720  201.0890  144.6530 O   0  0  0  0  0  1  0  0  0  0  0  0
  161.8560  205.3010  144.7900 C   0  0  0  0  0  2  0  0  0  0  0  0
  160.6260  206.1400  144.6420 C   0  0  0  0  0  3  0  0  0  0  0  0
  159.6750  205.9840  145.3840 O   0  0  0  0  0  0  0  0  0  0  0  0
  1 22  1  6  0  0  0
  1 35  1  0  0  0  0
  2  4  1  0  0  0  0
  3  2  2  0  0  0  0
  3 11  1  0  0  0  0
  4 13  1  0  0  0  0
  4  8  2  0  0  0  0
  5 10  1  0  0  0  0
  5  7  2  0  0  0  0
  6  8  1  0  0  0  0
  6  9  1  0  0  0  0
  7  2  1  0  0  0  0
 10  1  1  6  0  0  0
 10  3  1  0  0  0  0
 11  6  2  0  0  0  0
 13 12  2  0  0  0  0
 14 18  1  0  0  0  0
 15 12  1  1  0  0  0
 15 16  1  0  0  0  0
 17 16  1  0  0  0  0
 18 15  1  0  0  0  0
 18 17  1  0  0  0  0
 19 18  1  0  0  0  0
 20 22  1  0  0  0  0
 21 22  2  0  0  0  0
 23 20  1  0  0  0  0
 24 23  1  1  0  0  0
 24 26  1  0  0  0  0
 24 27  1  0  0  0  0
 25 26  2  0  0  0  0
 28 32  1  6  0  0  0
 28 29  1  0  0  0  0
 28 27  1  0  0  0  0
 29 30  1  0  0  0  0
 30 31  1  0  0  0  0
 33 32  1  0  0  0  0
 34 33  1  0  0  0  0
 35 36  1  0  0  0  0
 37 36  1  0  0  0  0
 37 38  1  1  0  0  0
 39 37  1  0  0  0  0
 40 39  1  0  0  0  0
 41 40  1  0  0  0  0
 42 46  1  0  0  0  0
 42 49  1  0  0  0  0
 43 41  1  1  0  0  0
 45 43  1  0  0  0  0
 45 44  1  1  0  0  0
 46 47  1  0  0  0  0
 47 48  2  0  0  0  0
 47 43  1  0  0  0  0
 49 50  1  6  0  0  0
 49 45  1  0  0  0  0
 51 50  1  0  0  0  0
 52 46  1  0  0  0  0
 53 52  1  0  0  0  0
 53 54  2  0  0  0  0
M  END
>  <MODEL>
1

>  <REMARK>
 VINA RESULT:      -5.6      0.000      0.000
  Name = 
  23 active torsions:
  status: ('A' for Active; 'I' for Inactive)
    1  A    between atoms: C_2  and  O_5
    2  A    between atoms: C_2  and  O_19
    3  A    between atoms: C_2  and  N_50
    4  A    between atoms: N_4  and  C_27
    5  A    between atoms: N_4  and  C_37
    6  A    between atoms: O_5  and  C_48
    7  A    between atoms: C_6  and  C_46
    8  A    between atoms: C_7  and  N_51
    9  A    between atoms: C_9  and  C_41
   10  A    between atoms: N_10  and  C_49
   11  A    between atoms: C_14  and  N_53
   12  A    between atoms: C_15  and  C_21
   13  A    between atoms: C_17  and  C_32
   14  A    between atoms: C_17  and  N_54
   15  A    between atoms: O_19  and  C_39
   16  A    between atoms: C_21  and  N_25
   17  A    between atoms: C_24  and  N_50
   18  A    between atoms: C_27  and  C_33
   19  A    between atoms: C_27  and  C_42
   20  A    between atoms: C_28  and  C_48
   21  A    between atoms: C_32  and  C_37
   22  A    between atoms: C_48  and  C_49
   23  A    between atoms: N_51  and  N_54
                            x       y       z     vdW  Elec       q    Type
                         _______ _______ _______ _____ _____    ______ ____

>  <TORSDO>
F 23

$$$$
=
 OpenBabel11042422053D

 54 57  0  0  1  0  0  0  0  0999 V2000
  160.7000  208.9500  153.3310 C   0  0  1  0  0  3  0  0  0  0  0  0
  161.1830  206.1230  151.4210 C   0  0  0  0  0  0  0  0  0  0  0  0
  161.6710  207.3790  151.6580 C   0  0  0  0  0  0  0  0  0  0  0  0
  161.1460  205.6150  150.1210 C   0  0  0  0  0  0  0  0  0  0  0  0
  161.1240  206.4440  153.7830 C   0  0  0  0  0  3  0  0  0  0  0  0
  162.1020  207.6520  149.3190 C   0  0  0  0  0  0  0  0  0  0  0  0
  160.7380  205.4530  152.6680 C   0  0  0  0  0  3  0  0  0  0  0  0
  161.6140  206.3960  149.0990 N   0  0  0  0  0  0  0  0  0  0  0  0
  162.6890  208.6040  147.9730 Cl  0  0  0  0  0  0  0  0  0  0  0  0
  161.6210  207.7330  153.0980 C   0  0  2  0  0  3  0  0  0  0  0  0
  162.1430  208.1750  150.6200 C   0  0  0  0  0  3  0  0  0  0  0  0
  161.2040  203.4780  149.0630 C   0  0  0  0  0  3  0  0  0  0  0  0
  160.6180  204.3070  149.8640 N   0  0  0  0  0  0  0  0  0  0  0  0
  161.3650  202.5470  146.3450 C   0  0  0  0  0  1  0  0  0  0  0  0
  160.6090  202.1260  148.8120 C   0  0  2  0  0  3  0  0  0  0  0  0
  161.5260  201.0960  149.2850 N   0  0  0  0  0  2  0  0  0  0  0  0
  161.6380  200.5970  147.9150 C   0  0  0  0  0  2  0  0  0  0  0  0
  160.6960  201.6390  147.3700 C   0  0  0  0  0  0  0  0  0  0  0  0
  159.3950  201.0290  146.8840 C   0  0  0  0  0  1  0  0  0  0  0  0
  159.3800  210.2040  155.1120 N   0  0  0  0  0  2  0  0  0  0  0  0
  160.8020  208.4370  155.6620 O   0  0  0  0  0  0  0  0  0  0  0  0
  160.2970  209.1630  154.7670 C   0  0  0  0  0  0  0  0  0  0  0  0
  158.9880  210.4710  156.4880 C   0  0  0  0  0  2  0  0  0  0  0  0
  157.6930  211.2670  156.5120 C   0  0  2  0  0  3  0  0  0  0  0  0
  155.5560  210.3170  156.2250 O   0  0  0  0  0  0  0  0  0  0  0  0
  156.6340  210.5770  155.7150 C   0  0  0  0  0  3  0  0  0  0  0  0
  157.9190  212.5420  155.9850 O   0  0  0  0  0  0  0  0  0  0  0  0
  156.6640  213.1650  155.9530 C   0  0  2  0  0  3  0  0  0  0  0  0
  156.7260  214.4230  155.2030 N   0  0  0  0  0  2  0  0  0  0  0  0
  156.7920  214.1490  153.7710 C   0  0  0  0  0  2  0  0  0  0  0  0
  155.6420  213.4720  153.3710 O   0  0  0  0  0  1  0  0  0  0  0  0
  156.2170  213.3900  157.2610 O   0  0  0  0  0  0  0  0  0  0  0  0
  155.3090  214.4470  157.1590 C   0  0  0  0  0  2  0  0  0  0  0  0
  154.2040  214.0550  156.3000 N   0  0  0  0  0  1  0  0  0  0  0  0
  161.2590  210.1730  152.7520 N   0  0  0  0  0  2  0  0  0  0  0  0
  160.4710  210.5980  151.5930 C   0  0  0  0  0  2  0  0  0  0  0  0
  160.0500  212.0610  151.6830 C   0  0  1  0  0  3  0  0  0  0  0  0
  160.0950  212.5080  153.0620 N   0  0  0  0  0  1  0  0  0  0  0  0
  160.9700  212.9300  150.8410 C   0  0  0  0  0  2  0  0  0  0  0  0
  160.1940  213.8780  150.0580 N   0  0  0  0  0  2  0  0  0  0  0  0
  160.9890  214.2410  148.9590 N   0  0  0  0  0  2  0  0  0  0  0  0
  160.3790  213.8470  144.9070 C   0  0  0  0  0  2  0  0  0  0  0  0
  160.6080  213.3790  147.8480 C   0  0  1  0  0  3  0  0  0  0  0  0
  158.2420  213.6390  147.9430 O   0  0  0  0  0  1  0  0  0  0  0  0
  159.3590  213.9540  147.1700 C   0  0  2  0  0  3  0  0  0  0  0  0
  161.6370  213.3900  145.4950 N   0  0  0  0  0  0  0  0  0  0  0  0
  161.7800  213.2120  146.9180 C   0  0  0  0  0  0  0  0  0  0  0  0
  162.8900  212.8490  147.3980 O   0  0  0  0  0  0  0  0  0  0  0  0
  159.1860  213.4120  145.7470 C   0  0  1  0  0  3  0  0  0  0  0  0
  157.9220  213.9740  145.1070 C   0  0  0  0  0  2  0  0  0  0  0  0
  156.8030  213.5030  145.7890 O   0  0  0  0  0  1  0  0  0  0  0  0
  162.8200  213.3370  144.6430 C   0  0  0  0  0  2  0  0  0  0  0  0
  162.4860  212.7440  143.3100 C   0  0  0  0  0  3  0  0  0  0  0  0
  162.7780  213.3230  142.2810 O   0  0  0  0  0  0  0  0  0  0  0  0
  1 35  1  1  0  0  0
  1 22  1  0  0  0  0
  2  3  2  0  0  0  0
  2  7  1  0  0  0  0
  3 10  1  0  0  0  0
  4  2  1  0  0  0  0
  6 11  2  0  0  0  0
  7  5  2  0  0  0  0
  8  6  1  0  0  0  0
  8  4  2  0  0  0  0
  9  6  1  0  0  0  0
 10  1  1  6  0  0  0
 10  5  1  0  0  0  0
 11  3  1  0  0  0  0
 12 13  2  0  0  0  0
 13  4  1  0  0  0  0
 14 18  1  0  0  0  0
 15 12  1  6  0  0  0
 15 16  1  0  0  0  0
 17 16  1  0  0  0  0
 18 17  1  0  0  0  0
 18 15  1  0  0  0  0
 19 18  1  0  0  0  0
 20 23  1  0  0  0  0
 22 20  1  0  0  0  0
 22 21  2  0  0  0  0
 23 24  1  0  0  0  0
 24 26  1  6  0  0  0
 26 25  2  0  0  0  0
 27 24  1  0  0  0  0
 28 29  1  6  0  0  0
 28 27  1  0  0  0  0
 28 32  1  0  0  0  0
 30 29  1  0  0  0  0
 31 30  1  0  0  0  0
 33 32  1  0  0  0  0
 34 33  1  0  0  0  0
 36 37  1  0  0  0  0
 36 35  1  0  0  0  0
 37 38  1  1  0  0  0
 39 37  1  0  0  0  0
 40 39  1  0  0  0  0
 41 40  1  0  0  0  0
 42 46  1  0  0  0  0
 42 49  1  0  0  0  0
 43 41  1  1  0  0  0
 45 43  1  0  0  0  0
 45 44  1  1  0  0  0
 46 47  1  0  0  0  0
 47 48  2  0  0  0  0
 47 43  1  0  0  0  0
 49 50  1  6  0  0  0
 49 45  1  0  0  0  0
 50 51  1  0  0  0  0
 52 46  1  0  0  0  0
 53 52  1  0  0  0  0
 54 53  2  0  0  0  0
M  END
>  <MODEL>
2

>  <REMARK>
 VINA RESULT:      -4.3      3.582      9.513
  Name = 
  23 active torsions:
  status: ('A' for Active; 'I' for Inactive)
    1  A    between atoms: C_2  and  O_5
    2  A    between atoms: C_2  and  O_19
    3  A    between atoms: C_2  and  N_50
    4  A    between atoms: N_4  and  C_27
    5  A    between atoms: N_4  and  C_37
    6  A    between atoms: O_5  and  C_48
    7  A    between atoms: C_6  and  C_46
    8  A    between atoms: C_7  and  N_51
    9  A    between atoms: C_9  and  C_41
   10  A    between atoms: N_10  and  C_49
   11  A    between atoms: C_14  and  N_53
   12  A    between atoms: C_15  and  C_21
   13  A    between atoms: C_17  and  C_32
   14  A    between atoms: C_17  and  N_54
   15  A    between atoms: O_19  and  C_39
   16  A    between atoms: C_21  and  N_25
   17  A    between atoms: C_24  and  N_50
   18  A    between atoms: C_27  and  C_33
   19  A    between atoms: C_27  and  C_42
   20  A    between atoms: C_28  and  C_48
   21  A    between atoms: C_32  and  C_37
   22  A    between atoms: C_48  and  C_49
   23  A    between atoms: N_51  and  N_54
                            x       y       z     vdW  Elec       q    Type
                         _______ _______ _______ _____ _____    ______ ____

>  <TORSDO>
F 23

$$$$
=
 OpenBabel11042422053D

 54 57  0  0  1  0  0  0  0  0999 V2000
  161.7530  206.1620  146.9890 C   0  0  1  0  0  3  0  0  0  0  0  0
  161.4040  207.6170  150.0930 C   0  0  0  0  0  0  0  0  0  0  0  0
  161.2710  207.8550  148.7520 C   0  0  0  0  0  0  0  0  0  0  0  0
  161.8990  208.6100  150.9400 C   0  0  0  0  0  0  0  0  0  0  0  0
  160.4240  205.6610  149.1440 C   0  0  0  0  0  3  0  0  0  0  0  0
  162.1140  210.0740  149.0660 C   0  0  0  0  0  0  0  0  0  0  0  0
  160.9710  206.2450  150.4610 C   0  0  0  0  0  3  0  0  0  0  0  0
  162.2390  209.8210  150.4010 N   0  0  0  0  0  0  0  0  0  0  0  0
  162.5630  211.6430  148.4330 Cl  0  0  0  0  0  0  0  0  0  0  0  0
  160.7340  206.6780  148.0270 C   0  0  2  0  0  3  0  0  0  0  0  0
  161.6200  209.0850  148.2030 C   0  0  0  0  0  3  0  0  0  0  0  0
  161.0620  208.0130  153.0920 C   0  0  0  0  0  3  0  0  0  0  0  0
  162.0570  208.3590  152.3430 N   0  0  0  0  0  0  0  0  0  0  0  0
  160.4810  210.2560  154.7990 C   0  0  0  0  0  1  0  0  0  0  0  0
  161.2710  207.7750  154.5570 C   0  0  2  0  0  3  0  0  0  0  0  0
  160.1550  207.0020  155.0890 N   0  0  0  0  0  2  0  0  0  0  0  0
  159.8240  208.1230  155.9670 C   0  0  0  0  0  2  0  0  0  0  0  0
  160.9630  208.9670  155.4560 C   0  0  0  0  0  0  0  0  0  0  0  0
  162.0270  209.1860  156.5150 C   0  0  0  0  0  1  0  0  0  0  0  0
  161.5610  203.8470  148.0340 N   0  0  0  0  0  2  0  0  0  0  0  0
  163.5020  204.5350  146.9340 O   0  0  0  0  0  0  0  0  0  0  0  0
  162.3280  204.8050  147.2980 C   0  0  0  0  0  0  0  0  0  0  0  0
  162.0860  202.5370  148.3870 C   0  0  0  0  0  2  0  0  0  0  0  0
  160.9810  201.4960  148.3000 C   0  0  2  0  0  3  0  0  0  0  0  0
  160.3430  201.4840  150.5690 O   0  0  0  0  0  0  0  0  0  0  0  0
  160.7720  200.8380  149.6260 C   0  0  0  0  0  3  0  0  0  0  0  0
  161.3230  200.5310  147.3480 O   0  0  0  0  0  0  0  0  0  0  0  0
  160.6190  200.8820  146.1870 C   0  0  2  0  0  3  0  0  0  0  0  0
  160.6030  199.7700  145.2320 N   0  0  0  0  0  2  0  0  0  0  0  0
  161.5360  198.7310  145.6570 C   0  0  0  0  0  2  0  0  0  0  0  0
  161.0850  197.4890  145.2140 O   0  0  0  0  0  1  0  0  0  0  0  0
  161.1980  202.0200  145.6130 O   0  0  0  0  0  0  0  0  0  0  0  0
  160.1470  202.6760  144.9650 C   0  0  0  0  0  2  0  0  0  0  0  0
  158.9680  201.8270  144.9740 N   0  0  0  0  0  1  0  0  0  0  0  0
  161.2140  206.2110  145.6280 N   0  0  0  0  0  2  0  0  0  0  0  0
  162.2700  205.9430  144.6500 C   0  0  0  0  0  2  0  0  0  0  0  0
  161.7120  205.6110  143.2700 C   0  0  1  0  0  3  0  0  0  0  0  0
  160.4120  204.9810  143.3980 N   0  0  0  0  0  1  0  0  0  0  0  0
  161.5780  206.8740  142.4340 C   0  0  0  0  0  2  0  0  0  0  0  0
  161.8570  206.5870  141.0350 N   0  0  0  0  0  2  0  0  0  0  0  0
  163.0050  207.3180  140.6940 N   0  0  0  0  0  2  0  0  0  0  0  0
  160.0900  209.5550  138.8380 C   0  0  0  0  0  2  0  0  0  0  0  0
  162.6430  208.2020  139.5950 C   0  0  1  0  0  3  0  0  0  0  0  0
  162.1210  206.5730  137.9360 O   0  0  0  0  0  1  0  0  0  0  0  0
  161.5430  207.5410  138.7570 C   0  0  2  0  0  3  0  0  0  0  0  0
  161.0500  210.2130  139.7220 N   0  0  0  0  0  0  0  0  0  0  0  0
  162.2610  209.5530  140.1410 C   0  0  0  0  0  0  0  0  0  0  0  0
  163.0540  210.1340  140.9330 O   0  0  0  0  0  0  0  0  0  0  0  0
  160.7810  208.5650  137.9100 C   0  0  1  0  0  3  0  0  0  0  0  0
  159.7150  207.8790  137.0650 C   0  0  0  0  0  2  0  0  0  0  0  0
  158.5270  208.6030  137.1330 O   0  0  0  0  0  1  0  0  0  0  0  0
  160.6560  211.4620  140.3640 C   0  0  0  0  0  2  0  0  0  0  0  0
  160.4850  211.2690  141.8370 C   0  0  0  0  0  3  0  0  0  0  0  0
  160.9450  212.0730  142.6270 O   0  0  0  0  0  0  0  0  0  0  0  0
  1 35  1  6  0  0  0
  1 22  1  0  0  0  0
  2  7  1  0  0  0  0
  2  4  1  0  0  0  0
  3  2  2  0  0  0  0
  4 13  1  0  0  0  0
  5  7  2  0  0  0  0
  6  8  1  0  0  0  0
  8  4  2  0  0  0  0
  9  6  1  0  0  0  0
 10  1  1  6  0  0  0
 10  3  1  0  0  0  0
 10  5  1  0  0  0  0
 11  3  1  0  0  0  0
 11  6  2  0  0  0  0
 13 12  2  0  0  0  0
 14 18  1  0  0  0  0
 15 12  1  6  0  0  0
 15 16  1  0  0  0  0
 15 18  1  0  0  0  0
 16 17  1  0  0  0  0
 18 17  1  0  0  0  0
 18 19  1  0  0  0  0
 20 23  1  0  0  0  0
 21 22  2  0  0  0  0
 22 20  1  0  0  0  0
 24 23  1  1  0  0  0
 24 26  1  0  0  0  0
 26 25  2  0  0  0  0
 27 24  1  0  0  0  0
 28 29  1  6  0  0  0
 28 27  1  0  0  0  0
 29 30  1  0  0  0  0
 31 30  1  0  0  0  0
 32 28  1  0  0  0  0
 33 34  1  0  0  0  0
 33 32  1  0  0  0  0
 36 35  1  0  0  0  0
 37 38  1  1  0  0  0
 37 36  1  0  0  0  0
 39 37  1  0  0  0  0
 40 39  1  0  0  0  0
 41 40  1  0  0  0  0
 42 46  1  0  0  0  0
 43 47  1  0  0  0  0
 43 41  1  1  0  0  0
 45 44  1  6  0  0  0
 45 43  1  0  0  0  0
 46 47  1  0  0  0  0
 46 52  1  0  0  0  0
 47 48  2  0  0  0  0
 49 50  1  1  0  0  0
 49 45  1  0  0  0  0
 49 42  1  0  0  0  0
 50 51  1  0  0  0  0
 52 53  1  0  0  0  0
 53 54  2  0  0  0  0
M  END
>  <MODEL>
3

>  <REMARK>
 VINA RESULT:      -2.9      4.089      9.021
  Name = 
  23 active torsions:
  status: ('A' for Active; 'I' for Inactive)
    1  A    between atoms: C_2  and  O_5
    2  A    between atoms: C_2  and  O_19
    3  A    between atoms: C_2  and  N_50
    4  A    between atoms: N_4  and  C_27
    5  A    between atoms: N_4  and  C_37
    6  A    between atoms: O_5  and  C_48
    7  A    between atoms: C_6  and  C_46
    8  A    between atoms: C_7  and  N_51
    9  A    between atoms: C_9  and  C_41
   10  A    between atoms: N_10  and  C_49
   11  A    between atoms: C_14  and  N_53
   12  A    between atoms: C_15  and  C_21
   13  A    between atoms: C_17  and  C_32
   14  A    between atoms: C_17  and  N_54
   15  A    between atoms: O_19  and  C_39
   16  A    between atoms: C_21  and  N_25
   17  A    between atoms: C_24  and  N_50
   18  A    between atoms: C_27  and  C_33
   19  A    between atoms: C_27  and  C_42
   20  A    between atoms: C_28  and  C_48
   21  A    between atoms: C_32  and  C_37
   22  A    between atoms: C_48  and  C_49
   23  A    between atoms: N_51  and  N_54
                            x       y       z     vdW  Elec       q    Type
                         _______ _______ _______ _____ _____    ______ ____

>  <TORSDO>
F 23

$$$$
=
 OpenBabel11042422053D

 54 57  0  0  1  0  0  0  0  0999 V2000
  162.3380  206.4220  147.8910 C   0  0  1  0  0  3  0  0  0  0  0  0
  161.7220  208.7020  150.4010 C   0  0  0  0  0  0  0  0  0  0  0  0
  162.3350  207.5080  150.1340 C   0  0  0  0  0  0  0  0  0  0  0  0
  161.0600  208.9000  151.6140 C   0  0  0  0  0  0  0  0  0  0  0  0
  162.7800  208.9360  148.2770 C   0  0  0  0  0  3  0  0  0  0  0  0
  161.6500  206.6810  152.2740 C   0  0  0  0  0  0  0  0  0  0  0  0
  161.8680  209.6660  149.2810 C   0  0  0  0  0  3  0  0  0  0  0  0
  161.0460  207.8790  152.5260 N   0  0  0  0  0  0  0  0  0  0  0  0
  161.6010  205.4120  153.4790 Cl  0  0  0  0  0  0  0  0  0  0  0  0
  162.9760  207.4970  148.7970 C   0  0  2  0  0  3  0  0  0  0  0  0
  162.3170  206.4690  151.0590 C   0  0  0  0  0  3  0  0  0  0  0  0
  159.5220  210.2540  152.8330 C   0  0  0  0  0  3  0  0  0  0  0  0
  160.4010  210.1420  151.8910 N   0  0  0  0  0  0  0  0  0  0  0  0
  158.6100  210.6870  155.5280 C   0  0  0  0  0  1  0  0  0  0  0  0
  158.8470  211.5700  153.0780 C   0  0  2  0  0  3  0  0  0  0  0  0
  159.8520  212.6200  153.1840 N   0  0  0  0  0  2  0  0  0  0  0  0
  159.4210  212.8660  154.5590 C   0  0  0  0  0  2  0  0  0  0  0  0
  158.3650  211.7930  154.5070 C   0  0  0  0  0  0  0  0  0  0  0  0
  156.9640  212.3710  154.5630 C   0  0  0  0  0  1  0  0  0  0  0  0
  161.4150  204.3840  149.1090 N   0  0  0  0  0  2  0  0  0  0  0  0
  160.0420  206.1700  148.5020 O   0  0  0  0  0  0  0  0  0  0  0  0
  161.1960  205.6700  148.5250 C   0  0  0  0  0  0  0  0  0  0  0  0
  160.3380  203.6050  149.7010 C   0  0  0  0  0  2  0  0  0  0  0  0
  160.4250  202.1610  149.2330 C   0  0  2  0  0  3  0  0  0  0  0  0
  161.2610  201.7660  151.4000 O   0  0  0  0  0  0  0  0  0  0  0  0
  160.9760  201.2880  150.3130 C   0  0  0  0  0  3  0  0  0  0  0  0
  161.2470  202.0850  148.1050 O   0  0  0  0  0  0  0  0  0  0  0  0
  160.6300  201.1600  147.2500 C   0  0  2  0  0  3  0  0  0  0  0  0
  161.6230  200.4840  146.4110 N   0  0  0  0  0  2  0  0  0  0  0  0
  161.5940  199.0470  146.6610 C   0  0  0  0  0  2  0  0  0  0  0  0
  161.2600  198.3750  145.4870 O   0  0  0  0  0  1  0  0  0  0  0  0
  159.6770  201.8140  146.4600 O   0  0  0  0  0  0  0  0  0  0  0  0
  160.3050  202.0240  145.2300 C   0  0  0  0  0  2  0  0  0  0  0  0
  159.3240  202.4630  144.2530 N   0  0  0  0  0  1  0  0  0  0  0  0
  161.9540  206.9670  146.5880 N   0  0  0  0  0  2  0  0  0  0  0  0
  162.3500  206.0540  145.5140 C   0  0  0  0  0  2  0  0  0  0  0  0
  161.1480  205.4560  144.7890 C   0  0  1  0  0  3  0  0  0  0  0  0
  160.0020  206.3350  144.9190 N   0  0  0  0  0  1  0  0  0  0  0  0
  161.4640  205.2560  143.3150 C   0  0  0  0  0  2  0  0  0  0  0  0
  161.9790  206.4880  142.7370 N   0  0  0  0  0  2  0  0  0  0  0  0
  161.2310  206.7320  141.5750 N   0  0  0  0  0  2  0  0  0  0  0  0
  161.6940  208.4520  137.8630 C   0  0  0  0  0  2  0  0  0  0  0  0
  162.0840  207.4770  140.6600 C   0  0  1  0  0  3  0  0  0  0  0  0
  163.3220  205.6710  139.7190 O   0  0  0  0  0  1  0  0  0  0  0  0
  162.3520  206.6240  139.4140 C   0  0  2  0  0  3  0  0  0  0  0  0
  161.3240  209.2870  139.0040 N   0  0  0  0  0  0  0  0  0  0  0  0
  161.4540  208.8110  140.3580 C   0  0  0  0  0  0  0  0  0  0  0  0
  161.0930  209.5430  141.3210 O   0  0  0  0  0  0  0  0  0  0  0  0
  162.8090  207.4810  138.2280 C   0  0  1  0  0  3  0  0  0  0  0  0
  163.0980  206.6080  137.0120 C   0  0  0  0  0  2  0  0  0  0  0  0
  162.2770  205.4830  137.0390 O   0  0  0  0  0  1  0  0  0  0  0  0
  160.6000  210.5280  138.7470 C   0  0  0  0  0  2  0  0  0  0  0  0
  161.5500  211.6330  138.4080 C   0  0  0  0  0  3  0  0  0  0  0  0
  161.9230  212.4150  139.2630 O   0  0  0  0  0  0  0  0  0  0  0  0
  1 35  1  6  0  0  0
  1 22  1  0  0  0  0
  2  4  1  0  0  0  0
  3  2  2  0  0  0  0
  3 11  1  0  0  0  0
  4 13  1  0  0  0  0
  4  8  2  0  0  0  0
  5 10  1  0  0  0  0
  5  7  2  0  0  0  0
  6  8  1  0  0  0  0
  6  9  1  0  0  0  0
  7  2  1  0  0  0  0
 10  1  1  6  0  0  0
 10  3  1  0  0  0  0
 11  6  2  0  0  0  0
 13 12  2  0  0  0  0
 15 12  1  1  0  0  0
 15 16  1  0  0  0  0
 15 18  1  0  0  0  0
 16 17  1  0  0  0  0
 18 17  1  0  0  0  0
 18 19  1  0  0  0  0
 18 14  1  0  0  0  0
 20 23  1  0  0  0  0
 21 22  2  0  0  0  0
 22 20  1  0  0  0  0
 24 23  1  1  0  0  0
 24 26  1  0  0  0  0
 26 25  2  0  0  0  0
 27 24  1  0  0  0  0
 28 29  1  6  0  0  0
 28 27  1  0  0  0  0
 29 30  1  0  0  0  0
 31 30  1  0  0  0  0
 32 28  1  0  0  0  0
 33 32  1  0  0  0  0
 34 33  1  0  0  0  0
 36 35  1  0  0  0  0
 37 38  1  6  0  0  0
 37 36  1  0  0  0  0
 39 37  1  0  0  0  0
 40 39  1  0  0  0  0
 41 40  1  0  0  0  0
 42 49  1  0  0  0  0
 42 46  1  0  0  0  0
 43 41  1  1  0  0  0
 45 44  1  1  0  0  0
 45 43  1  0  0  0  0
 46 47  1  0  0  0  0
 47 43  1  0  0  0  0
 47 48  2  0  0  0  0
 49 50  1  6  0  0  0
 49 45  1  0  0  0  0
 50 51  1  0  0  0  0
 52 46  1  0  0  0  0
 53 52  1  0  0  0  0
 53 54  2  0  0  0  0
M  END
>  <MODEL>
4

>  <REMARK>
 VINA RESULT:      -2.8      3.981      8.069
  Name = 
  23 active torsions:
  status: ('A' for Active; 'I' for Inactive)
    1  A    between atoms: C_2  and  O_5
    2  A    between atoms: C_2  and  O_19
    3  A    between atoms: C_2  and  N_50
    4  A    between atoms: N_4  and  C_27
    5  A    between atoms: N_4  and  C_37
    6  A    between atoms: O_5  and  C_48
    7  A    between atoms: C_6  and  C_46
    8  A    between atoms: C_7  and  N_51
    9  A    between atoms: C_9  and  C_41
   10  A    between atoms: N_10  and  C_49
   11  A    between atoms: C_14  and  N_53
   12  A    between atoms: C_15  and  C_21
   13  A    between atoms: C_17  and  C_32
   14  A    between atoms: C_17  and  N_54
   15  A    between atoms: O_19  and  C_39
   16  A    between atoms: C_21  and  N_25
   17  A    between atoms: C_24  and  N_50
   18  A    between atoms: C_27  and  C_33
   19  A    between atoms: C_27  and  C_42
   20  A    between atoms: C_28  and  C_48
   21  A    between atoms: C_32  and  C_37
   22  A    between atoms: C_48  and  C_49
   23  A    between atoms: N_51  and  N_54
                            x       y       z     vdW  Elec       q    Type
                         _______ _______ _______ _____ _____    ______ ____

>  <TORSDO>
F 23

$$$$
