=
 OpenBabel11052409503D

 26 27  0  0  1  0  0  0  0  0999 V2000
  160.9560  206.7620  150.8890 C   0  0  1  0  0  3  0  0  0  0  0  0
  160.7830  207.8010  155.0000 C   0  0  0  0  0  0  0  0  0  0  0  0
  160.8760  208.5490  152.6540 C   0  0  0  0  0  0  0  0  0  0  0  0
  160.2730  208.0170  156.2150 C   0  0  0  0  0  0  0  0  0  0  0  0
  159.0730  211.6330  155.8870 C   0  0  0  0  0  1  0  0  0  0  0  0
  161.0750  208.9660  154.0820 C   0  0  1  0  0  3  0  0  0  0  0  0
  161.6500  206.2590  153.2880 C   0  0  0  0  0  2  0  0  0  0  0  0
  160.0730  206.9350  157.1200 N   0  0  0  0  0  1  0  0  0  0  0  0
  161.0950  207.1760  152.2870 N   0  0  0  0  0  0  0  0  0  0  0  0
  160.2940  210.1650  154.4120 N   0  0  0  0  0  0  0  0  0  0  0  0
  160.5690  209.4030  151.7780 O   0  0  0  0  0  0  0  0  0  0  0  0
  159.7880  210.3650  155.5930 C   0  0  0  0  0  0  0  0  0  0  0  0
  161.0620  206.5020  154.5650 O   0  0  0  0  0  0  0  0  0  0  0  0
  159.8360  209.3300  156.5780 N   0  0  0  0  0  2  0  0  0  0  0  0
  162.1780  207.1560  150.0470 C   0  0  0  0  0  2  0  0  0  0  0  0
  162.1290  209.2470  148.8840 O   0  0  0  0  0  1  0  0  0  0  0  0
  161.8260  207.8910  148.7600 C   0  0  0  0  0  2  0  0  0  0  0  0
  160.5680  205.2910  150.7710 C   0  0  0  0  0  2  0  0  0  0  0  0
  161.4920  204.5750  149.8050 C   0  0  0  0  0  2  0  0  0  0  0  0
  160.7540  204.2170  148.6080 N   0  0  0  0  0  2  0  0  0  0  0  0
  161.7150  203.6420  147.6800 C   0  0  0  0  0  2  0  0  0  0  0  0
  163.4200  204.8110  146.4670 O   0  0  0  0  0  1  0  0  0  0  0  0
  162.0390  204.6170  146.5560 C   0  0  1  0  0  3  0  0  0  0  0  0
  161.4890  204.1150  145.2310 C   0  0  0  0  0  2  0  0  0  0  0  0
  160.9490  205.2700  144.4090 C   0  0  0  0  0  2  0  0  0  0  0  0
  160.2640  206.2030  145.2820 N   0  0  0  0  0  1  0  0  0  0  0  0
  1 15  1  6  0  0  0
  1  9  1  0  0  0  0
  2  4  2  0  0  0  0
  4 14  1  0  0  0  0
  4  8  1  0  0  0  0
  6  3  1  6  0  0  0
  6 10  1  0  0  0  0
  6  2  1  0  0  0  0
  7 13  1  0  0  0  0
  9  3  1  0  0  0  0
  9  7  1  0  0  0  0
 10 12  2  0  0  0  0
 11  3  2  0  0  0  0
 12  5  1  0  0  0  0
 12 14  1  0  0  0  0
 13  2  1  0  0  0  0
 17 16  1  0  0  0  0
 17 15  1  0  0  0  0
 18  1  1  0  0  0  0
 19 18  1  0  0  0  0
 20 19  1  0  0  0  0
 21 20  1  0  0  0  0
 23 22  1  6  0  0  0
 23 21  1  0  0  0  0
 24 23  1  0  0  0  0
 25 24  1  0  0  0  0
 25 26  1  0  0  0  0
M  END
>  <MODEL>
1

>  <REMARK>
 VINA RESULT:      -6.5      0.000      0.000
  Name = 
  10 active torsions:
  status: ('A' for Active; 'I' for Inactive)
    1  A    between atoms: C_3  and  C_23
    2  A    between atoms: C_5  and  C_12
    3  A    between atoms: C_5  and  N_15
    4  A    between atoms: C_5  and  C_26
    5  A    between atoms: C_8  and  C_23
    6  A    between atoms: C_8  and  C_24
    7  A    between atoms: C_12  and  C_19
    8  A    between atoms: C_21  and  N_22
    9  A    between atoms: C_21  and  C_26
   10  A    between atoms: N_22  and  C_24
                            x       y       z     vdW  Elec       q    Type
                         _______ _______ _______ _____ _____    ______ ____

>  <TORSDO>
F 10

$$$$
=
 OpenBabel11052409503D

 26 27  0  0  1  0  0  0  0  0999 V2000
  161.1400  206.3180  150.5300 C   0  0  1  0  0  3  0  0  0  0  0  0
  161.6190  205.1530  146.4770 C   0  0  0  0  0  0  0  0  0  0  0  0
  161.4020  204.4790  148.8380 C   0  0  0  0  0  0  0  0  0  0  0  0
  161.3020  204.8760  145.2090 C   0  0  0  0  0  0  0  0  0  0  0  0
  160.2350  201.2150  145.4900 C   0  0  0  0  0  1  0  0  0  0  0  0
  161.8270  204.0300  147.4690 C   0  0  1  0  0  3  0  0  0  0  0  0
  162.1540  206.7850  148.2400 C   0  0  0  0  0  2  0  0  0  0  0  0
  161.1880  205.9200  144.2470 N   0  0  0  0  0  1  0  0  0  0  0  0
  161.5010  205.8700  149.1830 N   0  0  0  0  0  0  0  0  0  0  0  0
  161.1580  202.7850  147.0730 N   0  0  0  0  0  0  0  0  0  0  0  0
  161.0090  203.6350  149.6900 O   0  0  0  0  0  0  0  0  0  0  0  0
  160.8400  202.5260  145.8390 C   0  0  0  0  0  0  0  0  0  0  0  0
  161.7720  206.4760  146.9010 O   0  0  0  0  0  0  0  0  0  0  0  0
  160.9850  203.5330  144.8340 N   0  0  0  0  0  2  0  0  0  0  0  0
  162.0290  205.6790  151.6060 C   0  0  0  0  0  2  0  0  0  0  0  0
  161.2600  206.1710  153.8190 O   0  0  0  0  0  1  0  0  0  0  0  0
  161.2600  205.1900  152.8270 C   0  0  0  0  0  2  0  0  0  0  0  0
  161.0540  207.8380  150.6160 C   0  0  0  0  0  2  0  0  0  0  0  0
  162.2940  208.4020  151.2840 C   0  0  0  0  0  2  0  0  0  0  0  0
  161.9950  209.7140  151.8280 N   0  0  0  0  0  2  0  0  0  0  0  0
  160.5960  209.6900  152.2290 C   0  0  0  0  0  2  0  0  0  0  0  0
  158.7860  211.1790  152.7280 O   0  0  0  0  0  1  0  0  0  0  0  0
  160.1730  211.0340  152.8080 C   0  0  1  0  0  3  0  0  0  0  0  0
  160.6370  211.1700  154.2500 C   0  0  0  0  0  2  0  0  0  0  0  0
  160.3650  209.8900  155.0160 C   0  0  0  0  0  2  0  0  0  0  0  0
  159.3060  210.1210  155.9800 N   0  0  0  0  0  1  0  0  0  0  0  0
  1 18  1  6  0  0  0
  1 15  1  0  0  0  0
  2 13  1  0  0  0  0
  3  9  1  0  0  0  0
  3 11  2  0  0  0  0
  4  2  2  0  0  0  0
  5 12  1  0  0  0  0
  6  2  1  6  0  0  0
  6  3  1  0  0  0  0
  7  9  1  0  0  0  0
  8  4  1  0  0  0  0
  9  1  1  0  0  0  0
 10  6  1  0  0  0  0
 12 10  2  0  0  0  0
 13  7  1  0  0  0  0
 14  4  1  0  0  0  0
 14 12  1  0  0  0  0
 15 17  1  0  0  0  0
 17 16  1  0  0  0  0
 18 19  1  0  0  0  0
 19 20  1  0  0  0  0
 20 21  1  0  0  0  0
 21 23  1  0  0  0  0
 23 22  1  1  0  0  0
 23 24  1  0  0  0  0
 24 25  1  0  0  0  0
 25 26  1  0  0  0  0
M  END
>  <MODEL>
2

>  <REMARK>
 VINA RESULT:      -6.4      1.927      8.864
  Name = 
  10 active torsions:
  status: ('A' for Active; 'I' for Inactive)
    1  A    between atoms: C_3  and  C_23
    2  A    between atoms: C_5  and  C_12
    3  A    between atoms: C_5  and  N_15
    4  A    between atoms: C_5  and  C_26
    5  A    between atoms: C_8  and  C_23
    6  A    between atoms: C_8  and  C_24
    7  A    between atoms: C_12  and  C_19
    8  A    between atoms: C_21  and  N_22
    9  A    between atoms: C_21  and  C_26
   10  A    between atoms: N_22  and  C_24
                            x       y       z     vdW  Elec       q    Type
                         _______ _______ _______ _____ _____    ______ ____

>  <TORSDO>
F 10

$$$$
=
 OpenBabel11052409503D

 26 27  0  0  1  0  0  0  0  0999 V2000
  161.5460  205.7720  150.9910 C   0  0  1  0  0  3  0  0  0  0  0  0
  160.8240  208.8430  153.8290 C   0  0  0  0  0  0  0  0  0  0  0  0
  161.5440  208.2200  151.5560 C   0  0  0  0  0  0  0  0  0  0  0  0
  160.1520  209.7200  154.5800 C   0  0  0  0  0  0  0  0  0  0  0  0
  159.9170  212.7090  152.2070 C   0  0  0  0  0  1  0  0  0  0  0  0
  161.5530  209.3100  152.5890 C   0  0  1  0  0  3  0  0  0  0  0  0
  161.6230  206.5520  153.4140 C   0  0  0  0  0  2  0  0  0  0  0  0
  159.5330  209.3080  155.7960 N   0  0  0  0  0  1  0  0  0  0  0  0
  161.5030  206.8480  151.9830 N   0  0  0  0  0  0  0  0  0  0  0  0
  161.0240  210.5710  152.0540 N   0  0  0  0  0  0  0  0  0  0  0  0
  161.6210  208.5060  150.3300 O   0  0  0  0  0  0  0  0  0  0  0  0
  160.3590  211.4140  152.7860 C   0  0  0  0  0  0  0  0  0  0  0  0
  160.8710  207.4910  154.1820 O   0  0  0  0  0  0  0  0  0  0  0  0
  159.9720  211.0610  154.1170 N   0  0  0  0  0  2  0  0  0  0  0  0
  161.9890  204.4380  151.6070 C   0  0  0  0  0  2  0  0  0  0  0  0
  161.2040  202.2700  150.9630 O   0  0  0  0  0  1  0  0  0  0  0  0
  160.8730  203.4040  151.7040 C   0  0  0  0  0  2  0  0  0  0  0  0
  160.2480  205.6870  150.1930 C   0  0  0  0  0  2  0  0  0  0  0  0
  160.4960  206.0350  148.7380 C   0  0  0  0  0  2  0  0  0  0  0  0
  161.7440  205.4340  148.3040 N   0  0  0  0  0  2  0  0  0  0  0  0
  161.4070  204.1370  147.7380 C   0  0  0  0  0  2  0  0  0  0  0  0
  161.3730  203.0530  145.6010 O   0  0  0  0  0  1  0  0  0  0  0  0
  162.1120  203.9250  146.4050 C   0  0  1  0  0  3  0  0  0  0  0  0
  162.3260  205.2500  145.6910 C   0  0  0  0  0  2  0  0  0  0  0  0
  161.2910  205.4360  144.5980 C   0  0  0  0  0  2  0  0  0  0  0  0
  160.1850  206.2210  145.1110 N   0  0  0  0  0  1  0  0  0  0  0  0
  1 18  1  1  0  0  0
  1 15  1  0  0  0  0
  1  9  1  0  0  0  0
  2 13  1  0  0  0  0
  2  4  2  0  0  0  0
  3  9  1  0  0  0  0
  4  8  1  0  0  0  0
  5 12  1  0  0  0  0
  6  3  1  6  0  0  0
  6  2  1  0  0  0  0
  7 13  1  0  0  0  0
  9  7  1  0  0  0  0
 10  6  1  0  0  0  0
 10 12  2  0  0  0  0
 11  3  2  0  0  0  0
 12 14  1  0  0  0  0
 14  4  1  0  0  0  0
 15 17  1  0  0  0  0
 16 17  1  0  0  0  0
 19 18  1  0  0  0  0
 20 19  1  0  0  0  0
 21 20  1  0  0  0  0
 23 22  1  6  0  0  0
 23 21  1  0  0  0  0
 24 23  1  0  0  0  0
 25 26  1  0  0  0  0
 25 24  1  0  0  0  0
M  END
>  <MODEL>
3

>  <REMARK>
 VINA RESULT:      -6.4      1.946      2.625
  Name = 
  10 active torsions:
  status: ('A' for Active; 'I' for Inactive)
    1  A    between atoms: C_3  and  C_23
    2  A    between atoms: C_5  and  C_12
    3  A    between atoms: C_5  and  N_15
    4  A    between atoms: C_5  and  C_26
    5  A    between atoms: C_8  and  C_23
    6  A    between atoms: C_8  and  C_24
    7  A    between atoms: C_12  and  C_19
    8  A    between atoms: C_21  and  N_22
    9  A    between atoms: C_21  and  C_26
   10  A    between atoms: N_22  and  C_24
                            x       y       z     vdW  Elec       q    Type
                         _______ _______ _______ _____ _____    ______ ____

>  <TORSDO>
F 10

$$$$
=
 OpenBabel11052409503D

 26 27  0  0  1  0  0  0  0  0999 V2000
  161.7900  206.8550  152.0490 C   0  0  1  0  0  3  0  0  0  0  0  0
  160.8730  203.7520  149.3030 C   0  0  0  0  0  0  0  0  0  0  0  0
  161.4180  206.1260  149.6730 C   0  0  0  0  0  0  0  0  0  0  0  0
  161.0430  202.6820  148.5230 C   0  0  0  0  0  0  0  0  0  0  0  0
  162.3330  204.3020  145.3080 C   0  0  0  0  0  1  0  0  0  0  0  0
  160.8510  205.1370  148.6970 C   0  0  1  0  0  3  0  0  0  0  0  0
  160.4750  204.7380  151.5230 C   0  0  0  0  0  2  0  0  0  0  0  0
  160.9800  201.3670  149.0710 N   0  0  0  0  0  1  0  0  0  0  0  0
  161.2880  205.8760  151.0830 N   0  0  0  0  0  0  0  0  0  0  0  0
  161.5310  205.2030  147.3970 N   0  0  0  0  0  0  0  0  0  0  0  0
  161.9590  207.1890  149.2600 O   0  0  0  0  0  0  0  0  0  0  0  0
  161.7060  204.1570  146.6470 C   0  0  0  0  0  0  0  0  0  0  0  0
  160.7030  203.6070  150.6840 O   0  0  0  0  0  0  0  0  0  0  0  0
  161.3830  202.8550  147.1440 N   0  0  0  0  0  2  0  0  0  0  0  0
  161.1230  208.2270  151.8770 C   0  0  0  0  0  2  0  0  0  0  0  0
  161.9130  210.1790  150.7390 O   0  0  0  0  0  1  0  0  0  0  0  0
  162.1060  209.3920  151.8750 C   0  0  0  0  0  2  0  0  0  0  0  0
  161.7440  206.3160  153.4760 C   0  0  0  0  0  2  0  0  0  0  0  0
  160.7000  207.0570  154.2890 C   0  0  0  0  0  2  0  0  0  0  0  0
  161.3530  207.7950  155.3540 N   0  0  0  0  0  2  0  0  0  0  0  0
  160.3110  208.5340  156.0510 C   0  0  0  0  0  2  0  0  0  0  0  0
  161.7530  210.2940  155.2990 O   0  0  0  0  0  1  0  0  0  0  0  0
  160.5310  210.0350  155.9250 C   0  0  1  0  0  3  0  0  0  0  0  0
  159.3930  210.6840  155.1540 C   0  0  0  0  0  2  0  0  0  0  0  0
  159.9240  211.3850  153.9170 C   0  0  0  0  0  2  0  0  0  0  0  0
  159.0080  211.1730  152.8130 N   0  0  0  0  0  1  0  0  0  0  0  0
  1 15  1  1  0  0  0
  1 18  1  0  0  0  0
  2 13  1  0  0  0  0
  3  9  1  0  0  0  0
  4  8  1  0  0  0  0
  4  2  2  0  0  0  0
  5 12  1  0  0  0  0
  6 10  1  6  0  0  0
  6  2  1  0  0  0  0
  6  3  1  0  0  0  0
  9  7  1  0  0  0  0
  9  1  1  0  0  0  0
 11  3  2  0  0  0  0
 12 14  1  0  0  0  0
 12 10  2  0  0  0  0
 13  7  1  0  0  0  0
 14  4  1  0  0  0  0
 16 17  1  0  0  0  0
 17 15  1  0  0  0  0
 18 19  1  0  0  0  0
 19 20  1  0  0  0  0
 20 21  1  0  0  0  0
 23 22  1  6  0  0  0
 23 21  1  0  0  0  0
 24 23  1  0  0  0  0
 25 24  1  0  0  0  0
 26 25  1  0  0  0  0
M  END
>  <MODEL>
4

>  <REMARK>
 VINA RESULT:      -6.3      1.930      7.966
  Name = 
  10 active torsions:
  status: ('A' for Active; 'I' for Inactive)
    1  A    between atoms: C_3  and  C_23
    2  A    between atoms: C_5  and  C_12
    3  A    between atoms: C_5  and  N_15
    4  A    between atoms: C_5  and  C_26
    5  A    between atoms: C_8  and  C_23
    6  A    between atoms: C_8  and  C_24
    7  A    between atoms: C_12  and  C_19
    8  A    between atoms: C_21  and  N_22
    9  A    between atoms: C_21  and  C_26
   10  A    between atoms: N_22  and  C_24
                            x       y       z     vdW  Elec       q    Type
                         _______ _______ _______ _____ _____    ______ ____

>  <TORSDO>
F 10

$$$$
=
 OpenBabel11052409503D

 26 27  0  0  1  0  0  0  0  0999 V2000
  161.2330  206.6050  150.3640 C   0  0  1  0  0  3  0  0  0  0  0  0
  161.7510  205.0740  146.4390 C   0  0  0  0  0  0  0  0  0  0  0  0
  161.4530  204.6170  148.8430 C   0  0  0  0  0  0  0  0  0  0  0  0
  161.4500  204.7020  145.1930 C   0  0  0  0  0  0  0  0  0  0  0  0
  160.2210  201.1250  145.7590 C   0  0  0  0  0  1  0  0  0  0  0  0
  161.8880  204.0350  147.5290 C   0  0  1  0  0  3  0  0  0  0  0  0
  162.3160  206.8300  148.0690 C   0  0  0  0  0  2  0  0  0  0  0  0
  161.4020  205.6620  144.1410 N   0  0  0  0  0  1  0  0  0  0  0  0
  161.6040  206.0280  149.0700 N   0  0  0  0  0  0  0  0  0  0  0  0
  161.1760  202.7870  147.2240 N   0  0  0  0  0  0  0  0  0  0  0  0
  161.0060  203.8670  149.7540 O   0  0  0  0  0  0  0  0  0  0  0  0
  160.8740  202.4360  146.0100 C   0  0  0  0  0  0  0  0  0  0  0  0
  161.9500  206.4220  146.7520 O   0  0  0  0  0  0  0  0  0  0  0  0
  161.0830  203.3450  144.9260 N   0  0  0  0  0  2  0  0  0  0  0  0
  162.2040  206.1890  151.4790 C   0  0  0  0  0  2  0  0  0  0  0  0
  161.6400  206.4830  153.7860 O   0  0  0  0  0  1  0  0  0  0  0  0
  161.5160  205.6080  152.7070 C   0  0  0  0  0  2  0  0  0  0  0  0
  161.0060  208.1100  150.2670 C   0  0  0  0  0  2  0  0  0  0  0  0
  162.1220  208.8610  150.9670 C   0  0  0  0  0  2  0  0  0  0  0  0
  162.0900  210.2560  150.5670 N   0  0  0  0  0  2  0  0  0  0  0  0
  162.2590  210.2800  149.1220 C   0  0  0  0  0  2  0  0  0  0  0  0
  161.2160  212.3980  149.5340 O   0  0  0  0  0  1  0  0  0  0  0  0
  161.8250  211.6210  148.5450 C   0  0  1  0  0  3  0  0  0  0  0  0
  163.0110  212.3600  147.9460 C   0  0  0  0  0  2  0  0  0  0  0  0
  162.5620  213.6730  147.3330 C   0  0  0  0  0  2  0  0  0  0  0  0
  161.6510  213.4060  146.2380 N   0  0  0  0  0  1  0  0  0  0  0  0
  1 18  1  6  0  0  0
  1 15  1  0  0  0  0
  2 13  1  0  0  0  0
  3  9  1  0  0  0  0
  3 11  2  0  0  0  0
  4  2  2  0  0  0  0
  5 12  1  0  0  0  0
  6  2  1  6  0  0  0
  6  3  1  0  0  0  0
  7  9  1  0  0  0  0
  8  4  1  0  0  0  0
  9  1  1  0  0  0  0
 10  6  1  0  0  0  0
 12 10  2  0  0  0  0
 13  7  1  0  0  0  0
 14  4  1  0  0  0  0
 14 12  1  0  0  0  0
 15 17  1  0  0  0  0
 17 16  1  0  0  0  0
 18 19  1  0  0  0  0
 20 19  1  0  0  0  0
 21 20  1  0  0  0  0
 23 21  1  0  0  0  0
 23 22  1  1  0  0  0
 24 23  1  0  0  0  0
 25 24  1  0  0  0  0
 26 25  1  0  0  0  0
M  END
>  <MODEL>
5

>  <REMARK>
 VINA RESULT:      -6.3      3.358      8.285
  Name = 
  10 active torsions:
  status: ('A' for Active; 'I' for Inactive)
    1  A    between atoms: C_3  and  C_23
    2  A    between atoms: C_5  and  C_12
    3  A    between atoms: C_5  and  N_15
    4  A    between atoms: C_5  and  C_26
    5  A    between atoms: C_8  and  C_23
    6  A    between atoms: C_8  and  C_24
    7  A    between atoms: C_12  and  C_19
    8  A    between atoms: C_21  and  N_22
    9  A    between atoms: C_21  and  C_26
   10  A    between atoms: N_22  and  C_24
                            x       y       z     vdW  Elec       q    Type
                         _______ _______ _______ _____ _____    ______ ____

>  <TORSDO>
F 10

$$$$
=
 OpenBabel11052409503D

 26 27  0  0  1  0  0  0  0  0999 V2000
  161.3290  206.8310  150.8390 C   0  0  1  0  0  3  0  0  0  0  0  0
  160.7480  207.8260  154.9240 C   0  0  0  0  0  0  0  0  0  0  0  0
  160.9920  208.5960  152.5960 C   0  0  0  0  0  0  0  0  0  0  0  0
  160.1250  208.0010  156.0920 C   0  0  0  0  0  0  0  0  0  0  0  0
  158.7360  211.5400  155.6740 C   0  0  0  0  0  1  0  0  0  0  0  0
  161.0440  209.0140  154.0370 C   0  0  1  0  0  3  0  0  0  0  0  0
  161.8480  206.3540  153.2870 C   0  0  0  0  0  2  0  0  0  0  0  0
  159.9170  206.9010  156.9750 N   0  0  0  0  0  1  0  0  0  0  0  0
  161.3240  207.2430  152.2450 N   0  0  0  0  0  0  0  0  0  0  0  0
  160.1650  210.1600  154.3030 N   0  0  0  0  0  0  0  0  0  0  0  0
  160.7070  209.4370  151.7000 O   0  0  0  0  0  0  0  0  0  0  0  0
  159.5500  210.3190  155.4370 C   0  0  0  0  0  0  0  0  0  0  0  0
  161.1420  206.5500  154.5110 O   0  0  0  0  0  0  0  0  0  0  0  0
  159.5790  209.2820  156.4210 N   0  0  0  0  0  2  0  0  0  0  0  0
  162.2430  207.7190  149.9830 C   0  0  0  0  0  2  0  0  0  0  0  0
  162.3340  207.0490  147.6870 O   0  0  0  0  0  1  0  0  0  0  0  0
  161.7280  207.9460  148.5670 C   0  0  0  0  0  2  0  0  0  0  0  0
  161.5960  205.3370  150.6890 C   0  0  0  0  0  2  0  0  0  0  0  0
  160.3500  204.6220  150.2030 C   0  0  0  0  0  2  0  0  0  0  0  0
  160.7310  203.3960  149.5250 N   0  0  0  0  0  2  0  0  0  0  0  0
  161.2360  203.7820  148.2170 C   0  0  0  0  0  2  0  0  0  0  0  0
  160.5420  201.5460  147.7060 O   0  0  0  0  0  1  0  0  0  0  0  0
  161.4200  202.5630  147.3220 C   0  0  1  0  0  3  0  0  0  0  0  0
  161.2020  202.9280  145.8630 C   0  0  0  0  0  2  0  0  0  0  0  0
  161.8840  204.2430  145.5370 C   0  0  0  0  0  2  0  0  0  0  0  0
  161.1310  204.9340  144.5080 N   0  0  0  0  0  1  0  0  0  0  0  0
  1 15  1  6  0  0  0
  1  9  1  0  0  0  0
  2  4  2  0  0  0  0
  4 14  1  0  0  0  0
  4  8  1  0  0  0  0
  6  3  1  6  0  0  0
  6 10  1  0  0  0  0
  6  2  1  0  0  0  0
  7 13  1  0  0  0  0
  9  3  1  0  0  0  0
  9  7  1  0  0  0  0
 10 12  2  0  0  0  0
 11  3  2  0  0  0  0
 12  5  1  0  0  0  0
 12 14  1  0  0  0  0
 13  2  1  0  0  0  0
 16 17  1  0  0  0  0
 17 15  1  0  0  0  0
 18  1  1  0  0  0  0
 19 18  1  0  0  0  0
 20 19  1  0  0  0  0
 21 20  1  0  0  0  0
 23 22  1  1  0  0  0
 23 21  1  0  0  0  0
 24 23  1  0  0  0  0
 25 24  1  0  0  0  0
 26 25  1  0  0  0  0
M  END
>  <MODEL>
6

>  <REMARK>
 VINA RESULT:      -6.1      1.215      1.327
  Name = 
  10 active torsions:
  status: ('A' for Active; 'I' for Inactive)
    1  A    between atoms: C_3  and  C_23
    2  A    between atoms: C_5  and  C_12
    3  A    between atoms: C_5  and  N_15
    4  A    between atoms: C_5  and  C_26
    5  A    between atoms: C_8  and  C_23
    6  A    between atoms: C_8  and  C_24
    7  A    between atoms: C_12  and  C_19
    8  A    between atoms: C_21  and  N_22
    9  A    between atoms: C_21  and  C_26
   10  A    between atoms: N_22  and  C_24
                            x       y       z     vdW  Elec       q    Type
                         _______ _______ _______ _____ _____    ______ ____

>  <TORSDO>
F 10

$$$$
=
 OpenBabel11052409503D

 26 27  0  0  1  0  0  0  0  0999 V2000
  161.3540  205.5430  150.3030 C   0  0  1  0  0  3  0  0  0  0  0  0
  160.9270  207.6170  153.9810 C   0  0  0  0  0  0  0  0  0  0  0  0
  161.5410  207.6900  151.5950 C   0  0  0  0  0  0  0  0  0  0  0  0
  160.3380  208.2550  154.9960 C   0  0  0  0  0  0  0  0  0  0  0  0
  160.2530  211.8420  153.6740 C   0  0  0  0  0  1  0  0  0  0  0  0
  161.6540  208.4020  152.9120 C   0  0  1  0  0  3  0  0  0  0  0  0
  161.5500  205.5250  152.8420 C   0  0  0  0  0  2  0  0  0  0  0  0
  159.7240  207.5220  156.0530 N   0  0  0  0  0  1  0  0  0  0  0  0
  161.4140  206.2580  151.5790 N   0  0  0  0  0  0  0  0  0  0  0  0
  161.2020  209.7960  152.8180 N   0  0  0  0  0  0  0  0  0  0  0  0
  161.6050  208.3370  150.5140 O   0  0  0  0  0  0  0  0  0  0  0  0
  160.6170  210.4080  153.8040 C   0  0  0  0  0  0  0  0  0  0  0  0
  160.8880  206.2220  153.8960 O   0  0  0  0  0  0  0  0  0  0  0  0
  160.2410  209.6810  154.9770 N   0  0  0  0  0  2  0  0  0  0  0  0
  161.2780  204.0220  150.4980 C   0  0  0  0  0  2  0  0  0  0  0  0
  160.0910  202.1460  149.6030 O   0  0  0  0  0  1  0  0  0  0  0  0
  160.8470  203.2630  149.2490 C   0  0  0  0  0  2  0  0  0  0  0  0
  160.2710  206.1070  149.3890 C   0  0  0  0  0  2  0  0  0  0  0  0
  160.8860  206.6570  148.1160 C   0  0  0  0  0  2  0  0  0  0  0  0
  161.1100  205.5700  147.1800 N   0  0  0  0  0  2  0  0  0  0  0  0
  160.7960  206.0860  145.8570 C   0  0  0  0  0  2  0  0  0  0  0  0
  161.4980  205.3720  143.6800 O   0  0  0  0  0  1  0  0  0  0  0  0
  160.8000  204.9690  144.8210 C   0  0  1  0  0  3  0  0  0  0  0  0
  161.4130  203.7030  145.3970 C   0  0  0  0  0  2  0  0  0  0  0  0
  160.4980  202.5170  145.1620 C   0  0  0  0  0  2  0  0  0  0  0  0
  160.7840  201.4860  146.1410 N   0  0  0  0  0  1  0  0  0  0  0  0
  1 18  1  1  0  0  0
  1 15  1  0  0  0  0
  1  9  1  0  0  0  0
  2  4  2  0  0  0  0
  4  8  1  0  0  0  0
  5 12  1  0  0  0  0
  6  3  1  6  0  0  0
  6  2  1  0  0  0  0
  7 13  1  0  0  0  0
  9  3  1  0  0  0  0
  9  7  1  0  0  0  0
 10  6  1  0  0  0  0
 10 12  2  0  0  0  0
 11  3  2  0  0  0  0
 12 14  1  0  0  0  0
 13  2  1  0  0  0  0
 14  4  1  0  0  0  0
 17 16  1  0  0  0  0
 17 15  1  0  0  0  0
 19 18  1  0  0  0  0
 20 19  1  0  0  0  0
 21 20  1  0  0  0  0
 23 22  1  6  0  0  0
 23 24  1  0  0  0  0
 23 21  1  0  0  0  0
 25 24  1  0  0  0  0
 25 26  1  0  0  0  0
M  END
>  <MODEL>
7

>  <REMARK>
 VINA RESULT:      -6.1      1.945      2.738
  Name = 
  10 active torsions:
  status: ('A' for Active; 'I' for Inactive)
    1  A    between atoms: C_3  and  C_23
    2  A    between atoms: C_5  and  C_12
    3  A    between atoms: C_5  and  N_15
    4  A    between atoms: C_5  and  C_26
    5  A    between atoms: C_8  and  C_23
    6  A    between atoms: C_8  and  C_24
    7  A    between atoms: C_12  and  C_19
    8  A    between atoms: C_21  and  N_22
    9  A    between atoms: C_21  and  C_26
   10  A    between atoms: N_22  and  C_24
                            x       y       z     vdW  Elec       q    Type
                         _______ _______ _______ _____ _____    ______ ____

>  <TORSDO>
F 10

$$$$
=
 OpenBabel11052409503D

 26 27  0  0  1  0  0  0  0  0999 V2000
  160.7920  209.6430  153.2590 C   0  0  1  0  0  3  0  0  0  0  0  0
  161.6420  207.0920  149.9750 C   0  0  0  0  0  0  0  0  0  0  0  0
  161.2680  207.3310  152.4000 C   0  0  0  0  0  0  0  0  0  0  0  0
  161.4390  206.3430  148.8890 C   0  0  0  0  0  0  0  0  0  0  0  0
  160.5170  202.9820  150.4640 C   0  0  0  0  0  1  0  0  0  0  0  0
  161.8200  206.4370  151.3270 C   0  0  1  0  0  3  0  0  0  0  0  0
  161.9620  209.2970  151.0230 C   0  0  0  0  0  2  0  0  0  0  0  0
  161.3550  206.9430  147.5990 N   0  0  0  0  0  1  0  0  0  0  0  0
  161.2780  208.7540  152.2020 N   0  0  0  0  0  0  0  0  0  0  0  0
  161.2410  205.0890  151.3900 N   0  0  0  0  0  0  0  0  0  0  0  0
  160.8470  206.8390  153.4830 O   0  0  0  0  0  0  0  0  0  0  0  0
  161.0330  204.3680  150.3280 C   0  0  0  0  0  0  0  0  0  0  0  0
  161.7010  208.4860  149.8790 O   0  0  0  0  0  0  0  0  0  0  0  0
  161.2120  204.9370  149.0290 N   0  0  0  0  0  2  0  0  0  0  0  0
  161.9370  210.3960  153.9510 C   0  0  0  0  0  2  0  0  0  0  0  0
  163.1500  210.6990  155.9920 O   0  0  0  0  0  1  0  0  0  0  0  0
  161.9340  210.2600  155.4690 C   0  0  0  0  0  2  0  0  0  0  0  0
  159.6640  210.5450  152.7660 C   0  0  0  0  0  2  0  0  0  0  0  0
  160.0790  212.0020  152.8410 C   0  0  0  0  0  2  0  0  0  0  0  0
  159.2560  212.6880  153.8190 N   0  0  0  0  0  2  0  0  0  0  0  0
  157.9740  212.9440  153.1810 C   0  0  0  0  0  2  0  0  0  0  0  0
  155.6910  213.4940  153.6590 O   0  0  0  0  0  1  0  0  0  0  0  0
  156.8420  212.9160  154.2000 C   0  0  1  0  0  3  0  0  0  0  0  0
  156.5570  211.4920  154.6500 C   0  0  0  0  0  2  0  0  0  0  0  0
  156.2610  211.4560  156.1380 C   0  0  0  0  0  2  0  0  0  0  0  0
  157.4460  211.8500  156.8740 N   0  0  0  0  0  1  0  0  0  0  0  0
  1 18  1  6  0  0  0
  1 15  1  0  0  0  0
  3 11  2  0  0  0  0
  4 14  1  0  0  0  0
  4  2  2  0  0  0  0
  6  2  1  6  0  0  0
  6 10  1  0  0  0  0
  6  3  1  0  0  0  0
  7  9  1  0  0  0  0
  8  4  1  0  0  0  0
  9  3  1  0  0  0  0
  9  1  1  0  0  0  0
 12  5  1  0  0  0  0
 12 10  2  0  0  0  0
 13  2  1  0  0  0  0
 13  7  1  0  0  0  0
 14 12  1  0  0  0  0
 15 17  1  0  0  0  0
 17 16  1  0  0  0  0
 18 19  1  0  0  0  0
 19 20  1  0  0  0  0
 21 20  1  0  0  0  0
 21 23  1  0  0  0  0
 23 22  1  6  0  0  0
 23 24  1  0  0  0  0
 24 25  1  0  0  0  0
 25 26  1  0  0  0  0
M  END
>  <MODEL>
8

>  <REMARK>
 VINA RESULT:      -5.7      2.706      8.518
  Name = 
  10 active torsions:
  status: ('A' for Active; 'I' for Inactive)
    1  A    between atoms: C_3  and  C_23
    2  A    between atoms: C_5  and  C_12
    3  A    between atoms: C_5  and  N_15
    4  A    between atoms: C_5  and  C_26
    5  A    between atoms: C_8  and  C_23
    6  A    between atoms: C_8  and  C_24
    7  A    between atoms: C_12  and  C_19
    8  A    between atoms: C_21  and  N_22
    9  A    between atoms: C_21  and  C_26
   10  A    between atoms: N_22  and  C_24
                            x       y       z     vdW  Elec       q    Type
                         _______ _______ _______ _____ _____    ______ ____

>  <TORSDO>
F 10

$$$$
=
 OpenBabel11052409503D

 26 27  0  0  1  0  0  0  0  0999 V2000
  160.7730  209.6520  153.2450 C   0  0  1  0  0  3  0  0  0  0  0  0
  161.6040  207.0970  149.9600 C   0  0  0  0  0  0  0  0  0  0  0  0
  161.2440  207.3390  152.3860 C   0  0  0  0  0  0  0  0  0  0  0  0
  161.3950  206.3460  148.8760 C   0  0  0  0  0  0  0  0  0  0  0  0
  160.4810  202.9880  150.4600 C   0  0  0  0  0  1  0  0  0  0  0  0
  161.7900  206.4440  151.3110 C   0  0  1  0  0  3  0  0  0  0  0  0
  161.9300  209.3030  151.0030 C   0  0  0  0  0  2  0  0  0  0  0  0
  161.3040  206.9450  147.5860 N   0  0  0  0  0  1  0  0  0  0  0  0
  161.2530  208.7620  152.1860 N   0  0  0  0  0  0  0  0  0  0  0  0
  161.2110  205.0960  151.3790 N   0  0  0  0  0  0  0  0  0  0  0  0
  160.8300  206.8480  153.4720 O   0  0  0  0  0  0  0  0  0  0  0  0
  160.9970  204.3740  150.3200 C   0  0  0  0  0  0  0  0  0  0  0  0
  161.6630  208.4910  149.8610 O   0  0  0  0  0  0  0  0  0  0  0  0
  161.1680  204.9410  149.0180 N   0  0  0  0  0  2  0  0  0  0  0  0
  161.9200  210.4280  153.9090 C   0  0  0  0  0  2  0  0  0  0  0  0
  160.7980  210.5180  156.0210 O   0  0  0  0  0  1  0  0  0  0  0  0
  162.0160  210.2120  155.4140 C   0  0  0  0  0  2  0  0  0  0  0  0
  159.6230  210.5330  152.7650 C   0  0  0  0  0  2  0  0  0  0  0  0
  160.1180  211.9350  152.4680 C   0  0  0  0  0  2  0  0  0  0  0  0
  159.0730  212.8920  152.7810 N   0  0  0  0  0  2  0  0  0  0  0  0
  159.1730  213.9580  151.7950 C   0  0  0  0  0  2  0  0  0  0  0  0
  158.1920  213.4190  149.6760 O   0  0  0  0  0  1  0  0  0  0  0  0
  159.3880  213.3900  150.3990 C   0  0  1  0  0  3  0  0  0  0  0  0
  160.4700  214.1630  149.6630 C   0  0  0  0  0  2  0  0  0  0  0  0
  160.9380  213.3910  148.4440 C   0  0  0  0  0  2  0  0  0  0  0  0
  161.7400  212.2600  148.8700 N   0  0  0  0  0  1  0  0  0  0  0  0
  1 18  1  6  0  0  0
  1 15  1  0  0  0  0
  3 11  2  0  0  0  0
  4 14  1  0  0  0  0
  4  2  2  0  0  0  0
  6  2  1  6  0  0  0
  6 10  1  0  0  0  0
  6  3  1  0  0  0  0
  7  9  1  0  0  0  0
  8  4  1  0  0  0  0
  9  3  1  0  0  0  0
  9  1  1  0  0  0  0
 12  5  1  0  0  0  0
 12 10  2  0  0  0  0
 13  2  1  0  0  0  0
 13  7  1  0  0  0  0
 14 12  1  0  0  0  0
 15 17  1  0  0  0  0
 17 16  1  0  0  0  0
 19 18  1  0  0  0  0
 19 20  1  0  0  0  0
 21 20  1  0  0  0  0
 23 22  1  6  0  0  0
 23 21  1  0  0  0  0
 24 23  1  0  0  0  0
 25 26  1  0  0  0  0
 25 24  1  0  0  0  0
M  END
>  <MODEL>
9

>  <REMARK>
 VINA RESULT:      -5.7      3.264      7.499
  Name = 
  10 active torsions:
  status: ('A' for Active; 'I' for Inactive)
    1  A    between atoms: C_3  and  C_23
    2  A    between atoms: C_5  and  C_12
    3  A    between atoms: C_5  and  N_15
    4  A    between atoms: C_5  and  C_26
    5  A    between atoms: C_8  and  C_23
    6  A    between atoms: C_8  and  C_24
    7  A    between atoms: C_12  and  C_19
    8  A    between atoms: C_21  and  N_22
    9  A    between atoms: C_21  and  C_26
   10  A    between atoms: N_22  and  C_24
                            x       y       z     vdW  Elec       q    Type
                         _______ _______ _______ _____ _____    ______ ____

>  <TORSDO>
F 10

$$$$
