=
 OpenBabel11042420103D

 30 31  0  0  1  0  0  0  0  0999 V2000
  159.6230  212.7590  151.7140 O   0  0  0  0  0  0  0  0  0  0  0  0
  161.1890  211.0300  151.9280 N   0  0  0  0  0  0  0  0  0  0  0  0
  160.7660  211.4420  154.8520 C   0  0  2  0  0  3  0  0  0  0  0  0
  159.4840  208.9050  155.8500 O   0  0  0  0  0  1  0  0  0  0  0  0
  161.5770  208.5840  150.0200 C   0  0  0  0  0  2  0  0  0  0  0  0
  160.7410  207.5090  154.4010 C   0  0  0  0  0  2  0  0  0  0  0  0
  160.1440  206.8330  153.1670 C   0  0  0  0  0  2  0  0  0  0  0  0
  159.8850  211.8880  153.8200 O   0  0  0  0  0  0  0  0  0  0  0  0
  162.3930  209.8740  150.1940 C   0  0  0  0  0  2  0  0  0  0  0  0
  160.1830  208.9150  154.6390 C   0  0  2  0  0  3  0  0  0  0  0  0
  161.5150  210.9940  150.6790 C   0  0  0  0  0  3  0  0  0  0  0  0
  161.0140  207.0660  151.9600 C   0  0  0  0  0  0  0  0  0  0  0  0
  161.2980  209.9960  154.6600 C   0  0  2  0  0  3  0  0  0  0  0  0
  160.8500  208.2200  151.2900 C   0  0  0  0  0  3  0  0  0  0  0  0
  160.2340  211.9520  152.4690 C   0  0  0  0  0  0  0  0  0  0  0  0
  162.0090  206.0680  149.9310 C   0  0  0  0  0  3  0  0  0  0  0  0
  161.2300  203.9880  150.4310 C   0  0  0  0  0  3  0  0  0  0  0  0
  161.9200  205.9820  151.4180 C   0  0  2  0  0  3  0  0  0  0  0  0
  161.3860  204.5950  151.5930 C   0  0  0  0  0  0  0  0  0  0  0  0
  161.1610  203.9240  152.9050 C   0  0  0  0  0  1  0  0  0  0  0  0
  161.6220  204.9220  149.3830 C   0  0  0  0  0  3  0  0  0  0  0  0
  162.4000  209.6510  155.5860 N   0  0  0  0  0  0  0  0  0  0  0  0
  163.3150  210.7920  155.6190 C   0  0  0  0  0  2  0  0  0  0  0  0
  163.6360  211.1540  157.0610 C   0  0  0  0  0  1  0  0  0  0  0  0
  162.2400  208.2380  157.2600 C   0  0  0  0  0  1  0  0  0  0  0  0
  161.9120  209.5410  156.8560 O   0  0  0  0  0  0  0  0  0  0  0  0
  160.1290  211.6700  156.2230 C   0  0  0  0  0  2  0  0  0  0  0  0
  158.9470  212.6200  156.1360 C   0  0  0  0  0  3  0  0  0  0  0  0
  159.2570  213.9290  156.8430 C   0  0  0  0  0  1  0  0  0  0  0  0
  157.7340  211.9780  156.7820 C   0  0  0  0  0  1  0  0  0  0  0  0
  1 15  2  0  0  0  0
  2 15  1  0  0  0  0
  3 27  1  1  0  0  0
  5  9  1  0  0  0  0
  5 14  1  0  0  0  0
  6 10  1  0  0  0  0
  7  6  1  0  0  0  0
  8  3  1  0  0  0  0
  9 11  1  0  0  0  0
 10 13  1  0  0  0  0
 10  4  1  1  0  0  0
 11  2  2  0  0  0  0
 12  7  1  0  0  0  0
 13  3  1  0  0  0  0
 13 22  1  1  0  0  0
 14 12  2  0  0  0  0
 15  8  1  0  0  0  0
 16 18  1  0  0  0  0
 17 19  2  0  0  0  0
 18 19  1  0  0  0  0
 18 12  1  6  0  0  0
 19 20  1  0  0  0  0
 21 16  2  0  0  0  0
 21 17  1  0  0  0  0
 22 23  1  0  0  0  0
 22 26  1  0  0  0  0
 23 24  1  0  0  0  0
 26 25  1  0  0  0  0
 28 27  1  0  0  0  0
 28 30  1  0  0  0  0
 28 29  1  0  0  0  0
M  END
>  <MODEL>
1

>  <REMARK>
 VINA RESULT:      -4.2      0.000      0.000
  Name = 
  6 active torsions:
  status: ('A' for Active; 'I' for Inactive)
    1  A    between atoms: C_2  and  N_10
    2  A    between atoms: C_6  and  C_25
    3  A    between atoms: C_8  and  C_21
    4  A    between atoms: N_10  and  O_17
    5  A    between atoms: N_10  and  C_27
    6  A    between atoms: C_22  and  C_25
                            x       y       z     vdW  Elec       q    Type
                         _______ _______ _______ _____ _____    ______ ____

>  <TORSDO>
F 6

$$$$
=
 OpenBabel11042420103D

 30 31  0  0  1  0  0  0  0  0999 V2000
  162.2460  208.9450  157.1780 O   0  0  0  0  0  0  0  0  0  0  0  0
  160.7980  208.2600  155.4690 N   0  0  0  0  0  0  0  0  0  0  0  0
  160.1980  211.1720  155.2450 C   0  0  2  0  0  3  0  0  0  0  0  0
  161.2140  212.0030  152.5330 O   0  0  0  0  0  1  0  0  0  0  0  0
  161.2050  205.8740  153.4900 C   0  0  0  0  0  2  0  0  0  0  0  0
  160.5910  209.9610  151.4970 C   0  0  0  0  0  2  0  0  0  0  0  0
  161.6020  208.8900  151.0870 C   0  0  0  0  0  2  0  0  0  0  0  0
  161.3460  210.6140  155.8850 O   0  0  0  0  0  0  0  0  0  0  0  0
  160.3070  206.0230  154.7270 C   0  0  0  0  0  2  0  0  0  0  0  0
  160.9580  210.6560  152.8110 C   0  0  2  0  0  3  0  0  0  0  0  0
  160.9090  206.9940  155.7040 C   0  0  0  0  0  3  0  0  0  0  0  0
  161.1720  207.5350  151.5850 C   0  0  0  0  0  0  0  0  0  0  0  0
  159.8410  210.5210  153.8820 C   0  0  2  0  0  3  0  0  0  0  0  0
  161.4850  207.2120  152.8520 C   0  0  0  0  0  3  0  0  0  0  0  0
  161.4650  209.2670  156.2390 C   0  0  0  0  0  0  0  0  0  0  0  0
  160.7800  205.1300  151.1820 C   0  0  0  0  0  3  0  0  0  0  0  0
  161.7130  205.2080  149.1050 C   0  0  0  0  0  3  0  0  0  0  0  0
  160.5610  206.5090  150.6570 C   0  0  2  0  0  3  0  0  0  0  0  0
  161.2300  206.4180  149.3220 C   0  0  0  0  0  0  0  0  0  0  0  0
  161.2600  207.5060  148.3030 C   0  0  0  0  0  1  0  0  0  0  0  0
  161.4290  204.3970  150.2840 C   0  0  0  0  0  3  0  0  0  0  0  0
  158.5150  210.9290  153.3680 N   0  0  0  0  0  0  0  0  0  0  0  0
  157.5140  210.4660  154.3280 C   0  0  0  0  0  2  0  0  0  0  0  0
  156.5560  211.5990  154.6620 C   0  0  0  0  0  1  0  0  0  0  0  0
  158.1580  212.6440  152.0430 C   0  0  0  0  0  1  0  0  0  0  0  0
  158.4210  212.2910  153.3750 O   0  0  0  0  0  0  0  0  0  0  0  0
  160.3270  212.6940  155.1680 C   0  0  0  0  0  2  0  0  0  0  0  0
  159.7410  213.3650  156.3980 C   0  0  0  0  0  3  0  0  0  0  0  0
  159.0050  212.3540  157.2600 C   0  0  0  0  0  1  0  0  0  0  0  0
  158.7750  214.4530  155.9670 C   0  0  0  0  0  1  0  0  0  0  0  0
  2 11  2  0  0  0  0
  2 15  1  0  0  0  0
  3 27  1  6  0  0  0
  3  8  1  0  0  0  0
  5  9  1  0  0  0  0
  6 10  1  0  0  0  0
  7  6  1  0  0  0  0
  7 12  1  0  0  0  0
  8 15  1  0  0  0  0
  9 11  1  0  0  0  0
 10  4  1  6  0  0  0
 10 13  1  0  0  0  0
 12 14  2  0  0  0  0
 13 22  1  6  0  0  0
 13  3  1  0  0  0  0
 14  5  1  0  0  0  0
 15  1  2  0  0  0  0
 17 19  2  0  0  0  0
 17 21  1  0  0  0  0
 18 16  1  0  0  0  0
 18 12  1  1  0  0  0
 19 18  1  0  0  0  0
 20 19  1  0  0  0  0
 21 16  2  0  0  0  0
 22 26  1  0  0  0  0
 22 23  1  0  0  0  0
 23 24  1  0  0  0  0
 25 26  1  0  0  0  0
 27 28  1  0  0  0  0
 28 29  1  0  0  0  0
 30 28  1  0  0  0  0
M  END
>  <MODEL>
2

>  <REMARK>
 VINA RESULT:      -4.0      1.622      4.255
  Name = 
  6 active torsions:
  status: ('A' for Active; 'I' for Inactive)
    1  A    between atoms: C_2  and  N_10
    2  A    between atoms: C_6  and  C_25
    3  A    between atoms: C_8  and  C_21
    4  A    between atoms: N_10  and  O_17
    5  A    between atoms: N_10  and  C_27
    6  A    between atoms: C_22  and  C_25
                            x       y       z     vdW  Elec       q    Type
                         _______ _______ _______ _____ _____    ______ ____

>  <TORSDO>
F 6

$$$$
=
 OpenBabel11042420103D

 30 31  0  0  1  0  0  0  0  0999 V2000
  161.3910  209.3220  153.9020 O   0  0  0  0  0  0  0  0  0  0  0  0
  160.5830  209.8400  151.7660 N   0  0  0  0  0  0  0  0  0  0  0  0
  158.7510  211.6660  153.2500 C   0  0  2  0  0  3  0  0  0  0  0  0
  159.5350  214.4530  152.4170 O   0  0  0  0  0  1  0  0  0  0  0  0
  162.2170  209.9490  149.1020 C   0  0  0  0  0  2  0  0  0  0  0  0
  160.0100  213.8240  150.1790 C   0  0  0  0  0  2  0  0  0  0  0  0
  161.4310  213.7080  149.6280 C   0  0  0  0  0  2  0  0  0  0  0  0
  159.9600  211.1110  153.7690 O   0  0  0  0  0  0  0  0  0  0  0  0
  161.2350  208.9010  149.6470 C   0  0  0  0  0  2  0  0  0  0  0  0
  159.8930  213.3540  151.6320 C   0  0  2  0  0  3  0  0  0  0  0  0
  161.2340  208.9090  151.1500 C   0  0  0  0  0  3  0  0  0  0  0  0
  161.6180  212.3970  148.9110 C   0  0  0  0  0  0  0  0  0  0  0  0
  158.8620  212.2040  151.7980 C   0  0  2  0  0  3  0  0  0  0  0  0
  161.9200  211.3200  149.6570 C   0  0  0  0  0  3  0  0  0  0  0  0
  160.6430  210.0420  153.1830 C   0  0  0  0  0  0  0  0  0  0  0  0
  162.7790  213.0910  146.8440 C   0  0  0  0  0  3  0  0  0  0  0  0
  160.8830  213.9680  145.9360 C   0  0  0  0  0  3  0  0  0  0  0  0
  161.6310  212.3170  147.4010 C   0  0  2  0  0  3  0  0  0  0  0  0
  160.4770  213.0040  146.7430 C   0  0  0  0  0  0  0  0  0  0  0  0
  159.0480  212.5970  146.8760 C   0  0  0  0  0  1  0  0  0  0  0  0
  162.3390  214.0210  146.0050 C   0  0  0  0  0  3  0  0  0  0  0  0
  157.5520  212.5300  151.1930 N   0  0  0  0  0  0  0  0  0  0  0  0
  157.2520  213.9220  151.5270 C   0  0  0  0  0  2  0  0  0  0  0  0
  155.9570  213.9960  152.3210 C   0  0  0  0  0  1  0  0  0  0  0  0
  156.7130  213.4320  149.3740 C   0  0  0  0  0  1  0  0  0  0  0  0
  157.6540  212.4980  149.8330 O   0  0  0  0  0  0  0  0  0  0  0  0
  158.1820  212.6950  154.2290 C   0  0  0  0  0  2  0  0  0  0  0  0
  157.4960  212.0220  155.4050 C   0  0  0  0  0  3  0  0  0  0  0  0
  156.0580  211.6740  155.0600 C   0  0  0  0  0  1  0  0  0  0  0  0
  157.5120  212.9570  156.6000 C   0  0  0  0  0  1  0  0  0  0  0  0
  2 15  1  0  0  0  0
  3  8  1  0  0  0  0
  3 27  1  1  0  0  0
  5  9  1  0  0  0  0
  5 14  1  0  0  0  0
  6 10  1  0  0  0  0
  7  6  1  0  0  0  0
  9 11  1  0  0  0  0
 10 13  1  0  0  0  0
 10  4  1  1  0  0  0
 11  2  2  0  0  0  0
 12  7  1  0  0  0  0
 12 14  2  0  0  0  0
 13 22  1  1  0  0  0
 13  3  1  0  0  0  0
 15  8  1  0  0  0  0
 15  1  2  0  0  0  0
 16 18  1  0  0  0  0
 17 21  1  0  0  0  0
 17 19  2  0  0  0  0
 18 12  1  1  0  0  0
 19 20  1  0  0  0  0
 19 18  1  0  0  0  0
 21 16  2  0  0  0  0
 22 23  1  0  0  0  0
 23 24  1  0  0  0  0
 25 26  1  0  0  0  0
 26 22  1  0  0  0  0
 27 28  1  0  0  0  0
 28 30  1  0  0  0  0
 29 28  1  0  0  0  0
M  END
>  <MODEL>
3

>  <REMARK>
 VINA RESULT:      -2.8      3.094      6.526
  Name = 
  6 active torsions:
  status: ('A' for Active; 'I' for Inactive)
    1  A    between atoms: C_2  and  N_10
    2  A    between atoms: C_6  and  C_25
    3  A    between atoms: C_8  and  C_21
    4  A    between atoms: N_10  and  O_17
    5  A    between atoms: N_10  and  C_27
    6  A    between atoms: C_22  and  C_25
                            x       y       z     vdW  Elec       q    Type
                         _______ _______ _______ _____ _____    ______ ____

>  <TORSDO>
F 6

$$$$
=
 OpenBabel11042420103D

 30 31  0  0  1  0  0  0  0  0999 V2000
  162.3610  205.1860  152.4100 O   0  0  0  0  0  0  0  0  0  0  0  0
  161.1900  206.9320  151.3800 N   0  0  0  0  0  0  0  0  0  0  0  0
  160.8150  207.9040  154.1740 C   0  0  2  0  0  3  0  0  0  0  0  0
  162.3300  210.5020  154.3390 O   0  0  0  0  0  1  0  0  0  0  0  0
  161.7860  208.2240  148.5960 C   0  0  0  0  0  2  0  0  0  0  0  0
  161.7720  211.1530  152.1260 C   0  0  0  0  0  2  0  0  0  0  0  0
  162.7720  211.1240  150.9700 C   0  0  0  0  0  2  0  0  0  0  0  0
  161.8000  206.9580  153.7550 O   0  0  0  0  0  0  0  0  0  0  0  0
  160.6990  207.2340  149.0420 C   0  0  0  0  0  2  0  0  0  0  0  0
  161.9500  209.9830  153.0980 C   0  0  2  0  0  3  0  0  0  0  0  0
  161.1820  206.4060  150.2000 C   0  0  0  0  0  3  0  0  0  0  0  0
  162.1820  210.4240  149.7750 C   0  0  0  0  0  0  0  0  0  0  0  0
  160.6590  209.1290  153.2340 C   0  0  2  0  0  3  0  0  0  0  0  0
  162.2520  209.0820  149.7450 C   0  0  0  0  0  3  0  0  0  0  0  0
  161.7740  206.2980  152.5240 C   0  0  0  0  0  0  0  0  0  0  0  0
  162.8100  211.5630  147.6740 C   0  0  0  0  0  3  0  0  0  0  0  0
  161.7910  213.5060  148.2890 C   0  0  0  0  0  3  0  0  0  0  0  0
  161.6780  211.1960  148.5760 C   0  0  2  0  0  3  0  0  0  0  0  0
  161.1260  212.5470  148.9060 C   0  0  0  0  0  0  0  0  0  0  0  0
  159.9110  212.7950  149.7340 C   0  0  0  0  0  1  0  0  0  0  0  0
  162.8560  212.8800  147.5130 C   0  0  0  0  0  3  0  0  0  0  0  0
  159.4690  209.9530  153.5400 N   0  0  0  0  0  0  0  0  0  0  0  0
  159.8580  210.9200  154.5660 C   0  0  0  0  0  2  0  0  0  0  0  0
  158.8520  210.8970  155.7060 C   0  0  0  0  0  1  0  0  0  0  0  0
  158.3110  211.7210  152.9410 C   0  0  0  0  0  1  0  0  0  0  0  0
  159.1360  210.7000  152.4470 O   0  0  0  0  0  0  0  0  0  0  0  0
  161.0480  208.2930  155.6350 C   0  0  0  0  0  2  0  0  0  0  0  0
  160.1190  207.5350  156.5670 C   0  0  0  0  0  3  0  0  0  0  0  0
  160.8600  206.4050  157.2610 C   0  0  0  0  0  1  0  0  0  0  0  0
  158.9630  206.9600  155.7700 C   0  0  0  0  0  1  0  0  0  0  0  0
  1 15  2  0  0  0  0
  2 15  1  0  0  0  0
  3 27  1  1  0  0  0
  5  9  1  0  0  0  0
  5 14  1  0  0  0  0
  6 10  1  0  0  0  0
  7  6  1  0  0  0  0
  8  3  1  0  0  0  0
  9 11  1  0  0  0  0
 10 13  1  0  0  0  0
 10  4  1  1  0  0  0
 11  2  2  0  0  0  0
 12  7  1  0  0  0  0
 13 22  1  1  0  0  0
 13  3  1  0  0  0  0
 14 12  2  0  0  0  0
 15  8  1  0  0  0  0
 16 18  1  0  0  0  0
 17 19  2  0  0  0  0
 18 19  1  0  0  0  0
 18 12  1  1  0  0  0
 19 20  1  0  0  0  0
 21 16  2  0  0  0  0
 21 17  1  0  0  0  0
 22 23  1  0  0  0  0
 23 24  1  0  0  0  0
 26 25  1  0  0  0  0
 26 22  1  0  0  0  0
 27 28  1  0  0  0  0
 28 29  1  0  0  0  0
 30 28  1  0  0  0  0
M  END
>  <MODEL>
4

>  <REMARK>
 VINA RESULT:      -2.8      2.451      5.585
  Name = 
  6 active torsions:
  status: ('A' for Active; 'I' for Inactive)
    1  A    between atoms: C_2  and  N_10
    2  A    between atoms: C_6  and  C_25
    3  A    between atoms: C_8  and  C_21
    4  A    between atoms: N_10  and  O_17
    5  A    between atoms: N_10  and  C_27
    6  A    between atoms: C_22  and  C_25
                            x       y       z     vdW  Elec       q    Type
                         _______ _______ _______ _____ _____    ______ ____

>  <TORSDO>
F 6

$$$$
=
 OpenBabel11042420103D

 30 31  0  0  1  0  0  0  0  0999 V2000
  159.7240  200.8790  149.3860 O   0  0  0  0  0  0  0  0  0  0  0  0
  161.2090  202.5790  150.0100 N   0  0  0  0  0  0  0  0  0  0  0  0
  161.2790  203.1540  147.0850 C   0  0  2  0  0  3  0  0  0  0  0  0
  160.0380  205.8810  146.7650 O   0  0  0  0  0  1  0  0  0  0  0  0
  161.1590  204.2590  152.6460 C   0  0  0  0  0  2  0  0  0  0  0  0
  160.9740  206.7190  148.7780 C   0  0  0  0  0  2  0  0  0  0  0  0
  160.1530  206.9530  150.0470 C   0  0  0  0  0  2  0  0  0  0  0  0
  160.2700  202.3950  147.7520 O   0  0  0  0  0  0  0  0  0  0  0  0
  162.0600  203.0970  152.2020 C   0  0  0  0  0  2  0  0  0  0  0  0
  160.5360  205.4720  148.0060 C   0  0  2  0  0  3  0  0  0  0  0  0
  161.3310  202.2010  151.2400 C   0  0  0  0  0  3  0  0  0  0  0  0
  160.8310  206.3340  151.2400 C   0  0  0  0  0  0  0  0  0  0  0  0
  161.6960  204.4560  147.8220 C   0  0  2  0  0  3  0  0  0  0  0  0
  160.6250  205.0240  151.4610 C   0  0  0  0  0  3  0  0  0  0  0  0
  160.4030  201.8890  149.0470 C   0  0  0  0  0  0  0  0  0  0  0  0
  160.9510  207.0650  153.5970 C   0  0  0  0  0  3  0  0  0  0  0  0
  160.9310  209.2710  153.0340 C   0  0  0  0  0  3  0  0  0  0  0  0
  161.5810  207.1760  152.2480 C   0  0  2  0  0  3  0  0  0  0  0  0
  161.4820  208.6490  152.0070 C   0  0  0  0  0  0  0  0  0  0  0  0
  162.0320  209.3610  150.8180 C   0  0  0  0  0  1  0  0  0  0  0  0
  160.5950  208.2660  154.0350 C   0  0  0  0  0  3  0  0  0  0  0  0
  162.9110  205.0840  147.2570 N   0  0  0  0  0  0  0  0  0  0  0  0
  163.0790  204.5640  145.8990 C   0  0  0  0  0  2  0  0  0  0  0  0
  162.7080  205.6360  144.8860 C   0  0  0  0  0  1  0  0  0  0  0  0
  163.4110  207.0200  148.1650 C   0  0  0  0  0  1  0  0  0  0  0  0
  162.7060  206.4250  147.1080 O   0  0  0  0  0  0  0  0  0  0  0  0
  160.8810  203.3920  145.6270 C   0  0  0  0  0  2  0  0  0  0  0  0
  159.6680  202.5630  145.2400 C   0  0  0  0  0  3  0  0  0  0  0  0
  160.0810  201.1460  144.8770 C   0  0  0  0  0  1  0  0  0  0  0  0
  158.9780  203.2030  144.0500 C   0  0  0  0  0  1  0  0  0  0  0  0
  2 11  2  0  0  0  0
  3 27  1  6  0  0  0
  3  8  1  0  0  0  0
  3 13  1  0  0  0  0
  6  7  1  0  0  0  0
  7 12  1  0  0  0  0
  8 15  1  0  0  0  0
  9  5  1  0  0  0  0
 10  4  1  6  0  0  0
 10  6  1  0  0  0  0
 11  9  1  0  0  0  0
 12 14  2  0  0  0  0
 13 22  1  6  0  0  0
 13 10  1  0  0  0  0
 14  5  1  0  0  0  0
 15  1  2  0  0  0  0
 15  2  1  0  0  0  0
 16 21  2  0  0  0  0
 17 21  1  0  0  0  0
 18 12  1  6  0  0  0
 18 16  1  0  0  0  0
 19 18  1  0  0  0  0
 19 17  2  0  0  0  0
 20 19  1  0  0  0  0
 23 22  1  0  0  0  0
 24 23  1  0  0  0  0
 26 22  1  0  0  0  0
 26 25  1  0  0  0  0
 28 27  1  0  0  0  0
 29 28  1  0  0  0  0
 30 28  1  0  0  0  0
M  END
>  <MODEL>
5

>  <REMARK>
 VINA RESULT:      -2.8      4.821      9.496
  Name = 
  6 active torsions:
  status: ('A' for Active; 'I' for Inactive)
    1  A    between atoms: C_2  and  N_10
    2  A    between atoms: C_6  and  C_25
    3  A    between atoms: C_8  and  C_21
    4  A    between atoms: N_10  and  O_17
    5  A    between atoms: N_10  and  C_27
    6  A    between atoms: C_22  and  C_25
                            x       y       z     vdW  Elec       q    Type
                         _______ _______ _______ _____ _____    ______ ____

>  <TORSDO>
F 6

$$$$
=
 OpenBabel11042420103D

 30 31  0  0  1  0  0  0  0  0999 V2000
  161.9610  206.9380  156.5240 O   0  0  0  0  0  0  0  0  0  0  0  0
  160.7150  206.9740  154.5410 N   0  0  0  0  0  0  0  0  0  0  0  0
  160.9170  209.9340  154.8440 C   0  0  2  0  0  3  0  0  0  0  0  0
  162.5750  210.8750  152.5110 O   0  0  0  0  0  1  0  0  0  0  0  0
  160.8550  204.9250  152.1840 C   0  0  0  0  0  2  0  0  0  0  0  0
  161.6530  209.2870  151.0080 C   0  0  0  0  0  2  0  0  0  0  0  0
  162.4190  208.0570  150.5200 C   0  0  0  0  0  2  0  0  0  0  0  0
  161.7550  208.9790  155.4970 O   0  0  0  0  0  0  0  0  0  0  0  0
  159.8170  205.1160  153.3010 C   0  0  0  0  0  2  0  0  0  0  0  0
  161.9440  209.6280  152.4720 C   0  0  2  0  0  3  0  0  0  0  0  0
  160.4610  205.7070  154.5240 C   0  0  0  0  0  3  0  0  0  0  0  0
  161.5810  206.8150  150.6710 C   0  0  0  0  0  0  0  0  0  0  0  0
  160.6570  209.6390  153.3420 C   0  0  2  0  0  3  0  0  0  0  0  0
  161.5720  206.2150  151.8740 C   0  0  0  0  0  3  0  0  0  0  0  0
  161.4670  207.6150  155.5790 C   0  0  0  0  0  0  0  0  0  0  0  0
  160.9590  204.6800  149.5950 C   0  0  0  0  0  3  0  0  0  0  0  0
  161.9830  205.2360  147.6370 C   0  0  0  0  0  3  0  0  0  0  0  0
  160.9060  206.1680  149.4820 C   0  0  2  0  0  3  0  0  0  0  0  0
  161.6180  206.3820  148.1840 C   0  0  0  0  0  0  0  0  0  0  0  0
  161.8040  207.7020  147.5180 C   0  0  0  0  0  1  0  0  0  0  0  0
  161.5660  204.1630  148.5330 C   0  0  0  0  0  3  0  0  0  0  0  0
  159.5900  210.4810  152.7570 N   0  0  0  0  0  0  0  0  0  0  0  0
  158.4290  210.3910  153.6430 C   0  0  0  0  0  2  0  0  0  0  0  0
  157.8230  211.7720  153.8420 C   0  0  0  0  0  1  0  0  0  0  0  0
  159.6730  212.2900  151.5140 C   0  0  0  0  0  1  0  0  0  0  0  0
  159.9700  211.7910  152.7910 O   0  0  0  0  0  0  0  0  0  0  0  0
  161.4370  211.3490  155.0960 C   0  0  0  0  0  2  0  0  0  0  0  0
  160.8290  211.9490  156.3530 C   0  0  0  0  0  3  0  0  0  0  0  0
  159.8690  210.9680  157.0040 C   0  0  0  0  0  1  0  0  0  0  0  0
  160.0810  213.2190  155.9950 C   0  0  0  0  0  1  0  0  0  0  0  0
  2 15  1  0  0  0  0
  3 27  1  6  0  0  0
  3  8  1  0  0  0  0
  5  9  1  0  0  0  0
  6 10  1  0  0  0  0
  7 12  1  0  0  0  0
  7  6  1  0  0  0  0
  8 15  1  0  0  0  0
  9 11  1  0  0  0  0
 10  4  1  6  0  0  0
 10 13  1  0  0  0  0
 11  2  2  0  0  0  0
 12 14  2  0  0  0  0
 13 22  1  6  0  0  0
 13  3  1  0  0  0  0
 14  5  1  0  0  0  0
 15  1  2  0  0  0  0
 17 19  2  0  0  0  0
 17 21  1  0  0  0  0
 18 16  1  0  0  0  0
 18 12  1  1  0  0  0
 19 18  1  0  0  0  0
 20 19  1  0  0  0  0
 21 16  2  0  0  0  0
 22 26  1  0  0  0  0
 22 23  1  0  0  0  0
 23 24  1  0  0  0  0
 25 26  1  0  0  0  0
 27 28  1  0  0  0  0
 28 29  1  0  0  0  0
 30 28  1  0  0  0  0
M  END
>  <MODEL>
6

>  <REMARK>
 VINA RESULT:      -2.6      1.740      4.389
  Name = 
  6 active torsions:
  status: ('A' for Active; 'I' for Inactive)
    1  A    between atoms: C_2  and  N_10
    2  A    between atoms: C_6  and  C_25
    3  A    between atoms: C_8  and  C_21
    4  A    between atoms: N_10  and  O_17
    5  A    between atoms: N_10  and  C_27
    6  A    between atoms: C_22  and  C_25
                            x       y       z     vdW  Elec       q    Type
                         _______ _______ _______ _____ _____    ______ ____

>  <TORSDO>
F 6

$$$$
=
 OpenBabel11042420103D

 30 31  0  0  1  0  0  0  0  0999 V2000
  160.6860  205.2160  153.6000 O   0  0  0  0  0  0  0  0  0  0  0  0
  161.2190  207.2630  154.6060 N   0  0  0  0  0  0  0  0  0  0  0  0
  161.5320  208.2000  151.7920 C   0  0  2  0  0  3  0  0  0  0  0  0
  159.3550  210.2400  151.3700 O   0  0  0  0  0  1  0  0  0  0  0  0
  160.0470  208.4260  157.2610 C   0  0  0  0  0  2  0  0  0  0  0  0
  159.5160  211.1040  153.5740 C   0  0  0  0  0  2  0  0  0  0  0  0
  158.4740  210.8280  154.6570 C   0  0  0  0  0  2  0  0  0  0  0  0
  160.8270  207.0260  152.1960 O   0  0  0  0  0  0  0  0  0  0  0  0
  161.4050  207.7790  156.9500 C   0  0  0  0  0  2  0  0  0  0  0  0
  159.7630  209.8990  152.6630 C   0  0  2  0  0  3  0  0  0  0  0  0
  161.2780  206.8050  155.8120 C   0  0  0  0  0  3  0  0  0  0  0  0
  159.1370  210.3730  155.9300 C   0  0  0  0  0  0  0  0  0  0  0  0
  161.2510  209.4520  152.6670 C   0  0  2  0  0  3  0  0  0  0  0  0
  159.4520  209.0700  156.0330 C   0  0  0  0  0  3  0  0  0  0  0  0
  160.9380  206.4460  153.4620 C   0  0  0  0  0  0  0  0  0  0  0  0
  158.2960  212.4060  157.0530 C   0  0  0  0  0  3  0  0  0  0  0  0
  160.3560  213.3760  157.0930 C   0  0  0  0  0  3  0  0  0  0  0  0
  159.2970  211.3000  157.1140 C   0  0  2  0  0  3  0  0  0  0  0  0
  160.5780  212.0740  157.1160 C   0  0  0  0  0  0  0  0  0  0  0  0
  161.9380  211.4770  157.2410 C   0  0  0  0  0  1  0  0  0  0  0  0
  158.9130  213.5810  157.0520 C   0  0  0  0  0  3  0  0  0  0  0  0
  162.1770  210.5740  152.3980 N   0  0  0  0  0  0  0  0  0  0  0  0
  163.3020  210.4420  153.3230 C   0  0  0  0  0  2  0  0  0  0  0  0
  162.7870  210.3290  154.7500 C   0  0  0  0  0  1  0  0  0  0  0  0
  162.1330  211.4550  150.3860 C   0  0  0  0  0  1  0  0  0  0  0  0
  162.7150  210.4340  151.1510 O   0  0  0  0  0  0  0  0  0  0  0  0
  161.3200  208.4530  150.2980 C   0  0  0  0  0  2  0  0  0  0  0  0
  161.7390  207.2530  149.4670 C   0  0  0  0  0  3  0  0  0  0  0  0
  162.6350  207.6840  148.3170 C   0  0  0  0  0  1  0  0  0  0  0  0
  160.5050  206.5690  148.9100 C   0  0  0  0  0  1  0  0  0  0  0  0
  2 11  2  0  0  0  0
  3 27  1  6  0  0  0
  3  8  1  0  0  0  0
  3 13  1  0  0  0  0
  6  7  1  0  0  0  0
  7 12  1  0  0  0  0
  8 15  1  0  0  0  0
  9  5  1  0  0  0  0
 10  4  1  6  0  0  0
 10 13  1  0  0  0  0
 10  6  1  0  0  0  0
 11  9  1  0  0  0  0
 12 14  2  0  0  0  0
 13 22  1  6  0  0  0
 14  5  1  0  0  0  0
 15  1  2  0  0  0  0
 15  2  1  0  0  0  0
 16 18  1  0  0  0  0
 17 19  2  0  0  0  0
 18 12  1  6  0  0  0
 18 19  1  0  0  0  0
 19 20  1  0  0  0  0
 21 16  2  0  0  0  0
 21 17  1  0  0  0  0
 22 23  1  0  0  0  0
 23 24  1  0  0  0  0
 25 26  1  0  0  0  0
 26 22  1  0  0  0  0
 28 27  1  0  0  0  0
 29 28  1  0  0  0  0
 30 28  1  0  0  0  0
M  END
>  <MODEL>
7

>  <REMARK>
 VINA RESULT:      -1.7      2.123      7.094
  Name = 
  6 active torsions:
  status: ('A' for Active; 'I' for Inactive)
    1  A    between atoms: C_2  and  N_10
    2  A    between atoms: C_6  and  C_25
    3  A    between atoms: C_8  and  C_21
    4  A    between atoms: N_10  and  O_17
    5  A    between atoms: N_10  and  C_27
    6  A    between atoms: C_22  and  C_25
                            x       y       z     vdW  Elec       q    Type
                         _______ _______ _______ _____ _____    ______ ____

>  <TORSDO>
F 6

$$$$
