=
 OpenBabel11042420453D

 27 31  0  0  1  0  0  0  0  0999 V2000
  159.2090  211.7990  154.5890 C   0  0  2  0  0  3  0  0  0  0  0  0
  161.4760  210.9860  156.0620 S   0  0  0  0  0  0  0  0  0  0  0  0
  160.9560  210.3810  153.2870 C   0  0  2  0  0  3  0  0  0  0  0  0
  159.3790  211.9380  152.0140 C   0  0  1  0  0  3  0  0  0  0  0  0
  160.8520  207.1660  155.1680 N   0  0  0  0  0  0  0  0  0  0  0  0
  158.3980  210.7040  154.8930 O   0  0  0  0  0  1  0  0  0  0  0  0
  161.0830  206.7140  153.8390 C   0  0  0  0  0  0  0  0  0  0  0  0
  160.1380  209.0210  157.2600 O   0  0  0  0  0  0  0  0  0  0  0  0
  158.7130  212.4620  153.2970 C   0  0  0  0  0  2  0  0  0  0  0  0
  161.0800  208.9360  153.7160 C   0  0  0  0  0  0  0  0  0  0  0  0
  160.6750  211.3700  154.4560 C   0  0  1  0  0  3  0  0  0  0  0  0
  161.2650  207.8610  152.9490 C   0  0  0  0  0  0  0  0  0  0  0  0
  160.4190  212.7880  151.6350 O   0  0  0  0  0  1  0  0  0  0  0  0
  160.8580  208.4560  155.0780 C   0  0  2  0  0  3  0  0  0  0  0  0
  159.8980  210.5080  152.1750 C   0  0  0  0  0  2  0  0  0  0  0  0
  160.7430  209.3610  156.2110 C   0  0  0  0  0  0  0  0  0  0  0  0
  161.2930  205.4410  153.5300 C   0  0  0  0  0  1  0  0  0  0  0  0
  161.2450  204.9960  148.3380 C   0  0  0  0  0  3  0  0  0  0  0  0
  160.9470  205.4620  150.7480 C   0  0  0  0  0  3  0  0  0  0  0  0
  160.8850  204.5730  149.5670 C   0  0  0  0  0  3  0  0  0  0  0  0
  162.0800  208.4820  149.3760 N   0  0  0  0  0  0  0  0  0  0  0  0
  161.7580  207.2330  149.2960 C   0  0  0  0  0  0  0  0  0  0  0  0
  161.3880  206.7040  150.5780 C   0  0  0  0  0  0  0  0  0  0  0  0
  161.9330  208.8560  150.7550 C   0  0  0  0  0  2  0  0  0  0  0  0
  160.8650  207.0210  147.0600 N   0  0  0  0  0  1  0  0  0  0  0  0
  161.5360  207.8200  151.4960 C   0  0  0  0  0  0  0  0  0  0  0  0
  161.7360  206.4030  148.0460 C   0  0  0  0  0  0  0  0  0  0  0  0
  1  6  1  6  0  0  0
  2 16  1  0  0  0  0
  3 15  1  6  0  0  0
  3 10  1  0  0  0  0
  3 11  1  0  0  0  0
  4 13  1  1  0  0  0
  4 15  1  0  0  0  0
  4  9  1  0  0  0  0
  7  5  2  0  0  0  0
  9  1  1  0  0  0  0
 11  1  1  0  0  0  0
 11  2  1  1  0  0  0
 12 10  2  0  0  0  0
 12  7  1  0  0  0  0
 14 10  1  1  0  0  0
 14  5  1  0  0  0  0
 14 16  1  0  0  0  0
 16  8  2  0  0  0  0
 17  7  1  0  0  0  0
 18 20  1  0  0  0  0
 20 19  2  0  0  0  0
 21 24  1  0  0  0  0
 22 21  2  0  0  0  0
 22 23  1  0  0  0  0
 23 19  1  0  0  0  0
 23 26  2  0  0  0  0
 24 26  1  0  0  0  0
 25 27  1  0  0  0  0
 26 12  1  0  0  0  0
 27 18  2  0  0  0  0
 27 22  1  0  0  0  0
M  END
>  <MODEL>
1

>  <REMARK>
 VINA RESULT:      -9.1      0.000      0.000
  Name = 
  1 active torsions:
  status: ('A' for Active; 'I' for Inactive)
    1  A    between atoms: C_18  and  C_26
                            x       y       z     vdW  Elec       q    Type
                         _______ _______ _______ _____ _____    ______ ____

>  <TORSDO>
F 1

$$$$
=
 OpenBabel11042420453D

 27 31  0  0  1  0  0  0  0  0999 V2000
  160.9330  210.2760  155.4620 C   0  0  2  0  0  3  0  0  0  0  0  0
  159.2120  211.0780  153.3740 S   0  0  0  0  0  0  0  0  0  0  0  0
  160.2420  208.4130  153.7860 C   0  0  2  0  0  3  0  0  0  0  0  0
  160.9830  207.7860  156.1500 C   0  0  1  0  0  3  0  0  0  0  0  0
  161.7050  209.6950  150.6070 N   0  0  0  0  0  0  0  0  0  0  0  0
  162.1390  210.5520  154.8140 O   0  0  0  0  0  1  0  0  0  0  0  0
  161.8620  208.2900  150.4500 C   0  0  0  0  0  0  0  0  0  0  0  0
  161.2060  212.1770  151.9930 O   0  0  0  0  0  0  0  0  0  0  0  0
  161.1740  209.2500  156.5770 C   0  0  0  0  0  2  0  0  0  0  0  0
  160.7940  208.5520  152.3850 C   0  0  0  0  0  0  0  0  0  0  0  0
  159.8850  209.7670  154.4670 C   0  0  1  0  0  3  0  0  0  0  0  0
  161.2370  207.5910  151.5730 C   0  0  0  0  0  0  0  0  0  0  0  0
  159.7060  207.3470  156.5030 O   0  0  0  0  0  1  0  0  0  0  0  0
  161.0800  209.8280  151.7320 C   0  0  2  0  0  3  0  0  0  0  0  0
  161.2130  207.5870  154.6510 C   0  0  0  0  0  2  0  0  0  0  0  0
  160.6230  211.0980  152.2750 C   0  0  0  0  0  0  0  0  0  0  0  0
  162.3310  207.7310  149.3420 C   0  0  0  0  0  1  0  0  0  0  0  0
  160.8250  202.6440  149.3780 C   0  0  0  0  0  3  0  0  0  0  0  0
  160.9420  205.1130  149.4600 C   0  0  0  0  0  3  0  0  0  0  0  0
  160.8310  203.8280  148.7330 C   0  0  0  0  0  3  0  0  0  0  0  0
  161.2060  204.0830  152.8010 N   0  0  0  0  0  0  0  0  0  0  0  0
  161.0510  203.8570  151.5370 C   0  0  0  0  0  0  0  0  0  0  0  0
  161.0190  205.0800  150.7860 C   0  0  0  0  0  0  0  0  0  0  0  0
  161.2910  205.5090  152.9550 C   0  0  0  0  0  3  0  0  0  0  0  0
  162.0980  201.7030  151.2140 N   0  0  0  0  0  1  0  0  0  0  0  0
  161.1710  206.1290  151.7800 C   0  0  0  0  0  0  0  0  0  0  0  0
  160.9350  202.5100  150.8870 C   0  0  2  0  0  3  0  0  0  0  0  0
  1  6  1  6  0  0  0
  1  9  1  0  0  0  0
  3 11  1  0  0  0  0
  3 15  1  1  0  0  0
  4 13  1  6  0  0  0
  4  9  1  0  0  0  0
  7  5  2  0  0  0  0
  7 12  1  0  0  0  0
  8 16  2  0  0  0  0
 10  3  1  0  0  0  0
 11  2  1  6  0  0  0
 11  1  1  0  0  0  0
 12 26  1  0  0  0  0
 12 10  2  0  0  0  0
 14  5  1  6  0  0  0
 14 16  1  0  0  0  0
 14 10  1  0  0  0  0
 15  4  1  0  0  0  0
 16  2  1  0  0  0  0
 17  7  1  0  0  0  0
 18 27  1  0  0  0  0
 19 23  2  0  0  0  0
 20 18  2  0  0  0  0
 20 19  1  0  0  0  0
 21 24  1  0  0  0  0
 22 21  2  0  0  0  0
 23 22  1  0  0  0  0
 23 26  1  0  0  0  0
 26 24  2  0  0  0  0
 27 25  1  6  0  0  0
 27 22  1  0  0  0  0
M  END
>  <MODEL>
2

>  <REMARK>
 VINA RESULT:      -8.2      2.148      4.160
  Name = 
  1 active torsions:
  status: ('A' for Active; 'I' for Inactive)
    1  A    between atoms: C_18  and  C_26
                            x       y       z     vdW  Elec       q    Type
                         _______ _______ _______ _____ _____    ______ ____

>  <TORSDO>
F 1

$$$$
=
 OpenBabel11042420453D

 27 31  0  0  1  0  0  0  0  0999 V2000
  157.7470  213.3230  153.8600 C   0  0  2  0  0  3  0  0  0  0  0  0
  159.7070  213.2930  155.8910 S   0  0  0  0  0  0  0  0  0  0  0  0
  159.9330  212.0310  153.3040 C   0  0  2  0  0  3  0  0  0  0  0  0
  158.4830  212.9490  151.4120 C   0  0  1  0  0  3  0  0  0  0  0  0
  159.8640  209.3240  155.8650 N   0  0  0  0  0  0  0  0  0  0  0  0
  157.0540  212.1810  154.2650 O   0  0  0  0  0  1  0  0  0  0  0  0
  160.4570  208.6570  154.7570 C   0  0  0  0  0  0  0  0  0  0  0  0
  158.4280  211.4010  157.2600 O   0  0  0  0  0  0  0  0  0  0  0  0
  157.4710  213.5910  152.3750 C   0  0  0  0  0  2  0  0  0  0  0  0
  160.1620  210.7600  154.0920 C   0  0  0  0  0  0  0  0  0  0  0  0
  159.2500  213.1690  154.1180 C   0  0  1  0  0  3  0  0  0  0  0  0
  160.6710  209.6040  153.6630 C   0  0  0  0  0  0  0  0  0  0  0  0
  159.4480  213.8860  151.0400 O   0  0  0  0  0  1  0  0  0  0  0  0
  159.7040  210.5420  155.4620 C   0  0  2  0  0  3  0  0  0  0  0  0
  159.1510  211.7140  152.0150 C   0  0  0  0  0  2  0  0  0  0  0  0
  159.2020  211.6250  156.2950 C   0  0  0  0  0  0  0  0  0  0  0  0
  160.9140  207.4120  154.8170 C   0  0  0  0  0  1  0  0  0  0  0  0
  161.5800  205.9960  149.7110 C   0  0  0  0  0  3  0  0  0  0  0  0
  160.7500  206.8700  151.8700 C   0  0  0  0  0  3  0  0  0  0  0  0
  160.9210  205.7930  150.8690 C   0  0  0  0  0  3  0  0  0  0  0  0
  162.3320  209.5970  150.3380 N   0  0  0  0  0  0  0  0  0  0  0  0
  161.9710  208.3570  150.3870 C   0  0  0  0  0  0  0  0  0  0  0  0
  161.2850  208.0590  151.6120 C   0  0  0  0  0  0  0  0  0  0  0  0
  161.8870  210.2020  151.5620 C   0  0  0  0  0  2  0  0  0  0  0  0
  161.6170  207.7780  148.0680 N   0  0  0  0  0  1  0  0  0  0  0  0
  161.2730  209.3130  152.3440 C   0  0  0  0  0  0  0  0  0  0  0  0
  162.1990  207.3270  149.3200 C   0  0  0  0  0  0  0  0  0  0  0  0
  1 11  1  0  0  0  0
  1  6  1  6  0  0  0
  2 16  1  0  0  0  0
  3 15  1  6  0  0  0
  3 10  1  0  0  0  0
  3 11  1  0  0  0  0
  4 13  1  1  0  0  0
  4 15  1  0  0  0  0
  4  9  1  0  0  0  0
  7 17  1  0  0  0  0
  7  5  2  0  0  0  0
  9  1  1  0  0  0  0
 11  2  1  1  0  0  0
 12 10  2  0  0  0  0
 12  7  1  0  0  0  0
 14 10  1  1  0  0  0
 14  5  1  0  0  0  0
 14 16  1  0  0  0  0
 16  8  2  0  0  0  0
 18 20  1  0  0  0  0
 20 19  2  0  0  0  0
 21 22  2  0  0  0  0
 21 24  1  0  0  0  0
 22 23  1  0  0  0  0
 23 19  1  0  0  0  0
 23 26  2  0  0  0  0
 24 26  1  0  0  0  0
 25 27  1  0  0  0  0
 26 12  1  0  0  0  0
 27 18  2  0  0  0  0
 27 22  1  0  0  0  0
M  END
>  <MODEL>
3

>  <REMARK>
 VINA RESULT:      -8.2      1.539      2.035
  Name = 
  1 active torsions:
  status: ('A' for Active; 'I' for Inactive)
    1  A    between atoms: C_18  and  C_26
                            x       y       z     vdW  Elec       q    Type
                         _______ _______ _______ _____ _____    ______ ____

>  <TORSDO>
F 1

$$$$
=
 OpenBabel11042420453D

 27 31  0  0  1  0  0  0  0  0999 V2000
  160.7190  211.7930  157.1350 C   0  0  2  0  0  3  0  0  0  0  0  0
  158.0290  211.3010  156.4350 S   0  0  0  0  0  0  0  0  0  0  0  0
  160.3410  210.6470  154.8330 C   0  0  2  0  0  3  0  0  0  0  0  0
  162.5740  210.3640  156.0430 C   0  0  1  0  0  3  0  0  0  0  0  0
  158.4240  213.2690  153.0060 N   0  0  0  0  0  0  0  0  0  0  0  0
  160.8110  213.0770  156.5950 O   0  0  0  0  0  1  0  0  0  0  0  0
  159.1980  212.6970  151.9590 C   0  0  0  0  0  0  0  0  0  0  0  0
  157.6280  213.8350  155.7210 O   0  0  0  0  0  0  0  0  0  0  0  0
  162.1220  211.1880  157.2610 C   0  0  0  0  0  2  0  0  0  0  0  0
  159.6850  211.5030  153.7730 C   0  0  0  0  0  0  0  0  0  0  0  0
  159.8140  210.9040  156.2750 C   0  0  1  0  0  3  0  0  0  0  0  0
  159.9550  211.5530  152.4680 C   0  0  0  0  0  0  0  0  0  0  0  0
  162.3490  209.0060  156.2750 O   0  0  0  0  0  1  0  0  0  0  0  0
  158.7150  212.5610  154.0490 C   0  0  2  0  0  3  0  0  0  0  0  0
  161.8710  210.8020  154.7570 C   0  0  0  0  0  2  0  0  0  0  0  0
  158.0940  212.7260  155.3540 C   0  0  0  0  0  0  0  0  0  0  0  0
  159.0730  213.0490  150.6860 C   0  0  0  0  0  1  0  0  0  0  0  0
  161.8730  206.5590  151.5480 C   0  0  0  0  0  3  0  0  0  0  0  0
  160.5210  208.3350  152.6130 C   0  0  0  0  0  3  0  0  0  0  0  0
  160.9510  206.9270  152.4600 C   0  0  0  0  0  3  0  0  0  0  0  0
  162.3870  209.9770  150.1410 N   0  0  0  0  0  0  0  0  0  0  0  0
  162.0460  208.9300  150.8170 C   0  0  1  0  0  3  0  0  0  0  0  0
  161.0830  209.2520  151.8310 C   0  0  0  0  0  0  0  0  0  0  0  0
  161.6430  211.0780  150.6860 C   0  0  0  0  0  3  0  0  0  0  0  0
  162.2860  207.1260  149.2270 N   0  0  0  0  0  1  0  0  0  0  0  0
  160.8690  210.6820  151.6990 C   0  0  0  0  0  0  0  0  0  0  0  0
  162.5480  207.5320  150.5970 C   0  0  0  0  0  0  0  0  0  0  0  0
  1  6  1  6  0  0  0
  1  9  1  0  0  0  0
  3 15  1  1  0  0  0
  3 11  1  0  0  0  0
  4 13  1  1  0  0  0
  4  9  1  0  0  0  0
  7 12  1  0  0  0  0
  7  5  2  0  0  0  0
 10 14  1  0  0  0  0
 10  3  1  0  0  0  0
 11  2  1  6  0  0  0
 11  1  1  0  0  0  0
 12 10  2  0  0  0  0
 14  5  1  6  0  0  0
 14 16  1  0  0  0  0
 15  4  1  0  0  0  0
 16  8  2  0  0  0  0
 16  2  1  0  0  0  0
 17  7  1  0  0  0  0
 18 20  1  0  0  0  0
 20 19  2  0  0  0  0
 21 24  2  0  0  0  0
 22 21  1  6  0  0  0
 22 23  1  0  0  0  0
 23 19  1  0  0  0  0
 24 26  1  0  0  0  0
 25 27  1  0  0  0  0
 26 23  2  0  0  0  0
 26 12  1  0  0  0  0
 27 22  1  0  0  0  0
 27 18  2  0  0  0  0
M  END
>  <MODEL>
4

>  <REMARK>
 VINA RESULT:      -7.3      2.433      4.276
  Name = 
  1 active torsions:
  status: ('A' for Active; 'I' for Inactive)
    1  A    between atoms: C_18  and  C_26
                            x       y       z     vdW  Elec       q    Type
                         _______ _______ _______ _____ _____    ______ ____

>  <TORSDO>
F 1

$$$$
