=
 OpenBabel11052410153D

 25 27  0  0  0  0  0  0  0  0999 V2000
  161.0780  204.4040  151.7740 C   0  0  0  0  0  3  0  0  0  0  0  0
  161.4000  205.9290  148.5700 C   0  0  0  0  0  0  0  0  0  0  0  0
  161.4830  206.6050  150.7920 C   0  0  0  0  0  0  0  0  0  0  0  0
  160.7760  202.6290  150.1140 C   0  0  0  0  0  0  0  0  0  0  0  0
  161.6270  207.4940  151.9900 C   0  0  0  0  0  3  0  0  0  0  0  0
  161.9060  208.9300  151.5780 C   0  0  0  0  0  0  0  0  0  0  0  0
  161.5890  207.0940  149.4380 C   0  0  0  0  0  0  0  0  0  0  0  0
  161.2550  205.3010  150.7240 C   0  0  0  0  0  0  0  0  0  0  0  0
  160.8370  203.0580  151.4590 C   0  0  0  0  0  3  0  0  0  0  0  0
  162.0690  209.8840  152.5730 O   0  0  0  0  0  1  0  0  0  0  0  0
  161.2030  204.8900  149.3930 C   0  0  0  0  0  0  0  0  0  0  0  0
  160.9580  203.5530  149.0730 C   0  0  0  0  0  3  0  0  0  0  0  0
  161.8410  208.3690  149.1610 C   0  0  0  0  0  2  0  0  0  0  0  0
  162.0010  209.3150  150.2890 C   0  0  0  0  0  3  0  0  0  0  0  0
  160.2960  206.4050  146.3950 C   0  0  0  0  0  3  0  0  0  0  0  0
  160.2880  206.4100  145.1350 O   0  0  0  0  0  0  0  0  0  0  0  0
  161.4230  205.9090  147.1270 N   0  0  0  0  0  0  0  0  0  0  0  0
  162.6020  205.4450  146.3960 C   0  0  0  0  0  2  0  0  0  0  0  0
  162.2160  204.3920  145.3680 C   0  0  0  0  0  2  0  0  0  0  0  0
  161.6850  203.1470  146.0530 C   0  0  0  0  0  2  0  0  0  0  0  0
  160.2960  201.1970  145.3630 O   0  0  0  0  0  1  0  0  0  0  0  0
  160.5950  202.5470  145.2380 C   0  0  0  0  0  0  0  0  0  0  0  0
  159.9230  203.2690  144.4580 O   0  0  0  0  0  0  0  0  0  0  0  0
  160.5240  201.2240  149.7770 C   0  0  0  0  0  3  0  0  0  0  0  0
  161.0910  200.6620  148.7610 N   0  0  0  0  0  2  0  0  0  0  0  0
  2 11  1  0  0  0  0
  2  7  2  0  0  0  0
  3  5  2  0  0  0  0
  4  9  2  0  0  0  0
  6  5  1  0  0  0  0
  6 10  1  0  0  0  0
  7  3  1  0  0  0  0
  8  3  1  0  0  0  0
  8  1  2  0  0  0  0
  9  1  1  0  0  0  0
 11  8  1  0  0  0  0
 12 11  2  0  0  0  0
 12  4  1  0  0  0  0
 13  7  1  0  0  0  0
 13 14  1  0  0  0  0
 14  6  2  0  0  0  0
 15 17  1  0  0  0  0
 16 15  2  0  0  0  0
 17  2  1  0  0  0  0
 18 17  1  0  0  0  0
 19 20  1  0  0  0  0
 19 18  1  0  0  0  0
 22 21  1  0  0  0  0
 22 20  1  0  0  0  0
 23 22  2  0  0  0  0
 24  4  1  0  0  0  0
 25 24  2  0  0  0  0
M  END
>  <MODEL>
1

>  <REMARK>
 VINA RESULT:      -9.5      0.000      0.000
  Name = 
  6 active torsions:
  status: ('A' for Active; 'I' for Inactive)
    1  A    between atoms: C_2  and  N_15
    2  A    between atoms: C_4  and  C_17
    3  A    between atoms: C_8  and  C_25
    4  A    between atoms: C_14  and  N_15
    5  A    between atoms: C_14  and  C_19
    6  A    between atoms: C_19  and  C_25
                            x       y       z     vdW  Elec       q    Type
                         _______ _______ _______ _____ _____    ______ ____

>  <TORSDO>
F 6

$$$$
=
 OpenBabel11052410153D

 25 27  0  0  1  0  0  0  0  0999 V2000
  160.9280  203.4920  152.0750 C   0  0  0  0  0  3  0  0  0  0  0  0
  161.2070  206.6250  150.3990 C   0  0  0  0  0  0  0  0  0  0  0  0
  161.0550  205.8770  152.5950 C   0  0  0  0  0  0  0  0  0  0  0  0
  160.9950  203.0060  149.6760 C   0  0  0  0  0  0  0  0  0  0  0  0
  160.9930  205.9060  154.0920 C   0  0  0  0  0  3  0  0  0  0  0  0
  161.0770  207.3290  154.6180 C   0  0  0  0  0  0  0  0  0  0  0  0
  161.1670  207.0730  151.7930 C   0  0  1  0  0  3  0  0  0  0  0  0
  161.0300  204.8460  151.7630 C   0  0  0  0  0  0  0  0  0  0  0  0
  160.9110  202.5700  151.0170 C   0  0  0  0  0  3  0  0  0  0  0  0
  161.0360  207.5310  155.9910 O   0  0  0  0  0  1  0  0  0  0  0  0
  161.1200  205.2880  150.4450 C   0  0  0  0  0  0  0  0  0  0  0  0
  161.0980  204.3760  149.3870 C   0  0  0  0  0  3  0  0  0  0  0  0
  161.2410  208.2850  152.3330 C   0  0  0  0  0  3  0  0  0  0  0  0
  161.1900  208.4020  153.8080 C   0  0  0  0  0  3  0  0  0  0  0  0
  161.9420  208.7410  149.3230 C   0  0  0  0  0  3  0  0  0  0  0  0
  162.0630  209.4870  148.3140 O   0  0  0  0  0  0  0  0  0  0  0  0
  161.3190  207.4550  149.2240 N   0  0  0  0  0  0  0  0  0  0  0  0
  160.8570  206.9840  147.9190 C   0  0  0  0  0  2  0  0  0  0  0  0
  162.0340  206.5530  147.0560 C   0  0  0  0  0  2  0  0  0  0  0  0
  161.5500  205.7890  145.8380 C   0  0  0  0  0  2  0  0  0  0  0  0
  161.6260  203.3380  145.4040 O   0  0  0  0  0  0  0  0  0  0  0  0
  162.3000  204.5120  145.7120 C   0  0  0  0  0  0  0  0  0  0  0  0
  163.5500  204.4990  145.8540 O   0  0  0  0  0  1  0  0  0  0  0  0
  160.9770  202.0480  148.5650 C   0  0  0  0  0  3  0  0  0  0  0  0
  161.2600  200.8000  148.7460 N   0  0  0  0  0  2  0  0  0  0  0  0
  2 11  2  0  0  0  0
  2  7  1  0  0  0  0
  3  5  1  0  0  0  0
  4  9  1  0  0  0  0
  5  6  2  0  0  0  0
  6 10  1  0  0  0  0
  7 13  1  1  0  0  0
  7  3  1  0  0  0  0
  8  1  1  0  0  0  0
  8  3  2  0  0  0  0
  9  1  2  0  0  0  0
 11  8  1  0  0  0  0
 12  4  2  0  0  0  0
 12 11  1  0  0  0  0
 13 14  2  0  0  0  0
 14  6  1  0  0  0  0
 16 15  2  0  0  0  0
 17 15  1  0  0  0  0
 17  2  1  0  0  0  0
 18 17  1  0  0  0  0
 19 18  1  0  0  0  0
 20 19  1  0  0  0  0
 21 22  2  0  0  0  0
 22 20  1  0  0  0  0
 22 23  1  0  0  0  0
 24 25  2  0  0  0  0
 24  4  1  0  0  0  0
M  END
>  <MODEL>
2

>  <REMARK>
 VINA RESULT:      -8.9      1.953      2.699
  Name = 
  6 active torsions:
  status: ('A' for Active; 'I' for Inactive)
    1  A    between atoms: C_2  and  N_15
    2  A    between atoms: C_4  and  C_17
    3  A    between atoms: C_8  and  C_25
    4  A    between atoms: C_14  and  N_15
    5  A    between atoms: C_14  and  C_19
    6  A    between atoms: C_19  and  C_25
                            x       y       z     vdW  Elec       q    Type
                         _______ _______ _______ _____ _____    ______ ____

>  <TORSDO>
F 6

$$$$
=
 OpenBabel11052410153D

 25 27  0  0  0  0  0  0  0  0999 V2000
  160.9970  205.4010  153.5570 C   0  0  0  0  0  3  0  0  0  0  0  0
  161.2190  206.3630  150.1330 C   0  0  0  0  0  0  0  0  0  0  0  0
  161.0450  204.3820  151.3360 C   0  0  0  0  0  0  0  0  0  0  0  0
  161.1570  207.8440  153.5200 C   0  0  0  0  0  0  0  0  0  0  0  0
  160.9380  202.9160  151.6290 C   0  0  0  0  0  3  0  0  0  0  0  0
  160.9340  202.0990  150.3470 C   0  0  0  0  0  0  0  0  0  0  0  0
  161.1440  204.9070  149.9950 C   0  0  0  0  0  0  0  0  0  0  0  0
  161.0640  205.4150  152.1660 C   0  0  0  0  0  0  0  0  0  0  0  0
  161.0440  206.6300  154.2330 C   0  0  0  0  0  3  0  0  0  0  0  0
  160.8380  200.7180  150.4440 O   0  0  0  0  0  1  0  0  0  0  0  0
  161.1690  206.6060  151.4500 C   0  0  0  0  0  0  0  0  0  0  0  0
  161.2230  207.8320  152.1170 C   0  0  0  0  0  3  0  0  0  0  0  0
  161.1280  204.1220  148.9220 C   0  0  0  0  0  2  0  0  0  0  0  0
  161.0210  202.6590  149.1230 C   0  0  0  0  0  3  0  0  0  0  0  0
  161.9510  208.5950  149.3210 C   0  0  0  0  0  3  0  0  0  0  0  0
  162.0670  209.4590  148.4110 O   0  0  0  0  0  0  0  0  0  0  0  0
  161.3250  207.3320  149.0680 N   0  0  0  0  0  0  0  0  0  0  0  0
  160.8560  207.0240  147.7180 C   0  0  0  0  0  2  0  0  0  0  0  0
  162.0090  206.5590  146.8410 C   0  0  0  0  0  2  0  0  0  0  0  0
  161.4890  205.7870  145.6420 C   0  0  0  0  0  2  0  0  0  0  0  0
  161.4180  203.3110  145.3810 O   0  0  0  0  0  0  0  0  0  0  0  0
  162.1670  204.4660  145.5600 C   0  0  0  0  0  0  0  0  0  0  0  0
  163.4210  204.3980  145.6210 O   0  0  0  0  0  1  0  0  0  0  0  0
  161.2080  209.1330  154.2190 C   0  0  0  0  0  3  0  0  0  0  0  0
  161.5890  210.2120  153.6180 N   0  0  0  0  0  2  0  0  0  0  0  0
  1  9  1  0  0  0  0
  2 11  1  0  0  0  0
  3  5  2  0  0  0  0
  3  8  1  0  0  0  0
  4 24  1  0  0  0  0
  4  9  2  0  0  0  0
  6 10  1  0  0  0  0
  6  5  1  0  0  0  0
  7  2  2  0  0  0  0
  7  3  1  0  0  0  0
  8  1  2  0  0  0  0
 11 12  2  0  0  0  0
 11  8  1  0  0  0  0
 12  4  1  0  0  0  0
 13 14  1  0  0  0  0
 13  7  1  0  0  0  0
 14  6  2  0  0  0  0
 16 15  2  0  0  0  0
 17 15  1  0  0  0  0
 17  2  1  0  0  0  0
 18 17  1  0  0  0  0
 19 18  1  0  0  0  0
 20 19  1  0  0  0  0
 21 22  2  0  0  0  0
 22 23  1  0  0  0  0
 22 20  1  0  0  0  0
 25 24  2  0  0  0  0
M  END
>  <MODEL>
3

>  <REMARK>
 VINA RESULT:      -8.7      2.520      5.024
  Name = 
  6 active torsions:
  status: ('A' for Active; 'I' for Inactive)
    1  A    between atoms: C_2  and  N_15
    2  A    between atoms: C_4  and  C_17
    3  A    between atoms: C_8  and  C_25
    4  A    between atoms: C_14  and  N_15
    5  A    between atoms: C_14  and  C_19
    6  A    between atoms: C_19  and  C_25
                            x       y       z     vdW  Elec       q    Type
                         _______ _______ _______ _____ _____    ______ ____

>  <TORSDO>
F 6

$$$$
=
 OpenBabel11052410153D

 25 27  0  0  0  0  0  0  0  0999 V2000
  161.7300  208.1490  151.1220 C   0  0  0  0  0  3  0  0  0  0  0  0
  161.4010  206.1350  148.2010 C   0  0  0  0  0  0  0  0  0  0  0  0
  161.3110  205.8230  150.5030 C   0  0  0  0  0  0  0  0  0  0  0  0
  162.0470  209.6350  149.2010 C   0  0  0  0  0  0  0  0  0  0  0  0
  161.1580  205.1370  151.8270 C   0  0  0  0  0  3  0  0  0  0  0  0
  160.8690  203.6550  151.6480 C   0  0  0  0  0  0  0  0  0  0  0  0
  161.2030  205.1250  149.2430 C   0  0  0  0  0  0  0  0  0  0  0  0
  161.5480  207.0970  150.2270 C   0  0  0  0  0  0  0  0  0  0  0  0
  161.9810  209.4260  150.5970 C   0  0  0  0  0  3  0  0  0  0  0  0
  160.6980  202.8740  152.7820 O   0  0  0  0  0  1  0  0  0  0  0  0
  161.6040  207.2900  148.8490 C   0  0  0  0  0  0  0  0  0  0  0  0
  161.8600  208.5570  148.3200 C   0  0  0  0  0  3  0  0  0  0  0  0
  160.9420  203.8240  149.1730 C   0  0  0  0  0  2  0  0  0  0  0  0
  160.7730  203.0700  150.4370 C   0  0  0  0  0  3  0  0  0  0  0  0
  160.2990  206.4530  145.9960 C   0  0  0  0  0  3  0  0  0  0  0  0
  160.2560  206.2940  144.7470 O   0  0  0  0  0  0  0  0  0  0  0  0
  161.3800  205.9240  146.7730 N   0  0  0  0  0  0  0  0  0  0  0  0
  162.4730  205.2270  146.0960 C   0  0  0  0  0  2  0  0  0  0  0  0
  162.2730  203.7210  146.1620 C   0  0  0  0  0  2  0  0  0  0  0  0
  161.1210  203.2960  145.2690 C   0  0  0  0  0  2  0  0  0  0  0  0
  160.9680  201.4230  146.9050 O   0  0  0  0  0  1  0  0  0  0  0  0
  160.6620  201.9350  145.6510 C   0  0  0  0  0  0  0  0  0  0  0  0
  159.9680  201.2570  144.8490 O   0  0  0  0  0  0  0  0  0  0  0  0
  162.3100  210.9660  148.6440 C   0  0  0  0  0  3  0  0  0  0  0  0
  161.6700  212.0090  149.0600 N   0  0  0  0  0  2  0  0  0  0  0  0
  2 11  1  0  0  0  0
  2  7  2  0  0  0  0
  3  5  2  0  0  0  0
  4  9  2  0  0  0  0
  6  5  1  0  0  0  0
  6 10  1  0  0  0  0
  7  3  1  0  0  0  0
  8  3  1  0  0  0  0
  8  1  2  0  0  0  0
  9  1  1  0  0  0  0
 11  8  1  0  0  0  0
 12 11  2  0  0  0  0
 12  4  1  0  0  0  0
 13  7  1  0  0  0  0
 13 14  1  0  0  0  0
 14  6  2  0  0  0  0
 15 17  1  0  0  0  0
 16 15  2  0  0  0  0
 17  2  1  0  0  0  0
 18 19  1  0  0  0  0
 18 17  1  0  0  0  0
 20 22  1  0  0  0  0
 20 19  1  0  0  0  0
 22 21  1  0  0  0  0
 23 22  2  0  0  0  0
 24 25  2  0  0  0  0
 24  4  1  0  0  0  0
M  END
>  <MODEL>
4

>  <REMARK>
 VINA RESULT:      -8.7      2.092      4.634
  Name = 
  6 active torsions:
  status: ('A' for Active; 'I' for Inactive)
    1  A    between atoms: C_2  and  N_15
    2  A    between atoms: C_4  and  C_17
    3  A    between atoms: C_8  and  C_25
    4  A    between atoms: C_14  and  N_15
    5  A    between atoms: C_14  and  C_19
    6  A    between atoms: C_19  and  C_25
                            x       y       z     vdW  Elec       q    Type
                         _______ _______ _______ _____ _____    ______ ____

>  <TORSDO>
F 6

$$$$
=
 OpenBabel11052410153D

 25 27  0  0  1  0  0  0  0  0999 V2000
  160.9230  203.0630  151.8700 C   0  0  0  0  0  3  0  0  0  0  0  0
  161.2600  205.9370  149.7900 C   0  0  0  0  0  0  0  0  0  0  0  0
  161.1070  205.4910  152.0670 C   0  0  0  0  0  0  0  0  0  0  0  0
  160.9620  202.2600  149.5570 C   0  0  0  0  0  0  0  0  0  0  0  0
  161.0570  205.7210  153.5480 C   0  0  0  0  0  3  0  0  0  0  0  0
  161.1760  207.1990  153.8790 C   0  0  0  0  0  0  0  0  0  0  0  0
  161.2390  206.5670  151.1130 C   0  0  1  0  0  3  0  0  0  0  0  0
  161.0530  204.3600  151.3790 C   0  0  0  0  0  0  0  0  0  0  0  0
  160.8790  202.0080  150.9450 C   0  0  0  0  0  3  0  0  0  0  0  0
  161.1500  207.5820  155.2120 O   0  0  0  0  0  1  0  0  0  0  0  0
  161.1430  204.6210  150.0140 C   0  0  0  0  0  0  0  0  0  0  0  0
  161.0930  203.5760  149.0870 C   0  0  0  0  0  3  0  0  0  0  0  0
  161.3440  207.8380  151.4860 C   0  0  0  0  0  3  0  0  0  0  0  0
  161.3060  208.1520  152.9330 C   0  0  0  0  0  3  0  0  0  0  0  0
  160.5420  206.1980  147.4250 C   0  0  0  0  0  3  0  0  0  0  0  0
  160.6160  206.7640  146.3020 O   0  0  0  0  0  0  0  0  0  0  0  0
  161.3800  206.6010  148.5150 N   0  0  0  0  0  0  0  0  0  0  0  0
  162.3060  207.7180  148.3290 C   0  0  0  0  0  2  0  0  0  0  0  0
  161.5520  209.0380  148.2820 C   0  0  0  0  0  2  0  0  0  0  0  0
  162.3410  210.1280  148.9840 C   0  0  0  0  0  2  0  0  0  0  0  0
  161.0070  211.6470  147.5280 O   0  0  0  0  0  0  0  0  0  0  0  0
  162.1550  211.4220  148.2760 C   0  0  0  0  0  0  0  0  0  0  0  0
  163.0230  212.3270  148.3800 O   0  0  0  0  0  1  0  0  0  0  0  0
  160.9150  201.1630  148.5830 C   0  0  0  0  0  3  0  0  0  0  0  0
  161.2950  201.3310  147.3590 N   0  0  0  0  0  2  0  0  0  0  0  0
  2 11  2  0  0  0  0
  2  7  1  0  0  0  0
  3  5  1  0  0  0  0
  4  9  1  0  0  0  0
  5  6  2  0  0  0  0
  6 10  1  0  0  0  0
  7 13  1  1  0  0  0
  7  3  1  0  0  0  0
  8  1  1  0  0  0  0
  8  3  2  0  0  0  0
  9  1  2  0  0  0  0
 11  8  1  0  0  0  0
 12  4  2  0  0  0  0
 12 11  1  0  0  0  0
 13 14  2  0  0  0  0
 14  6  1  0  0  0  0
 15 17  1  0  0  0  0
 16 15  2  0  0  0  0
 17  2  1  0  0  0  0
 18 17  1  0  0  0  0
 19 18  1  0  0  0  0
 19 20  1  0  0  0  0
 21 22  2  0  0  0  0
 22 23  1  0  0  0  0
 22 20  1  0  0  0  0
 24  4  1  0  0  0  0
 25 24  2  0  0  0  0
M  END
>  <MODEL>
5

>  <REMARK>
 VINA RESULT:      -8.3      2.195      4.355
  Name = 
  6 active torsions:
  status: ('A' for Active; 'I' for Inactive)
    1  A    between atoms: C_2  and  N_15
    2  A    between atoms: C_4  and  C_17
    3  A    between atoms: C_8  and  C_25
    4  A    between atoms: C_14  and  N_15
    5  A    between atoms: C_14  and  C_19
    6  A    between atoms: C_19  and  C_25
                            x       y       z     vdW  Elec       q    Type
                         _______ _______ _______ _____ _____    ______ ____

>  <TORSDO>
F 6

$$$$
=
 OpenBabel11052410153D

 25 27  0  0  1  0  0  0  0  0999 V2000
  161.4970  207.9590  148.8830 C   0  0  0  0  0  3  0  0  0  0  0  0
  161.1440  204.8230  150.5390 C   0  0  0  0  0  0  0  0  0  0  0  0
  161.2480  207.0660  151.1440 C   0  0  0  0  0  0  0  0  0  0  0  0
  161.5380  206.2340  147.1450 C   0  0  0  0  0  0  0  0  0  0  0  0
  161.2550  208.2950  152.0020 C   0  0  0  0  0  3  0  0  0  0  0  0
  161.0910  207.9400  153.4710 C   0  0  0  0  0  0  0  0  0  0  0  0
  161.1150  205.7340  151.6870 C   0  0  1  0  0  3  0  0  0  0  0  0
  161.3480  206.9460  149.8290 C   0  0  0  0  0  0  0  0  0  0  0  0
  161.5920  207.5920  147.5320 C   0  0  0  0  0  3  0  0  0  0  0  0
  161.0730  208.9700  154.4020 O   0  0  0  0  0  1  0  0  0  0  0  0
  161.2870  205.6040  149.4600 C   0  0  0  0  0  0  0  0  0  0  0  0
  161.3870  205.2320  148.1170 C   0  0  0  0  0  3  0  0  0  0  0  0
  160.9690  205.5080  152.9880 C   0  0  0  0  0  3  0  0  0  0  0  0
  160.9610  206.6700  153.9070 C   0  0  0  0  0  3  0  0  0  0  0  0
  161.7870  202.6420  151.5420 C   0  0  0  0  0  3  0  0  0  0  0  0
  161.7120  201.3860  151.6020 O   0  0  0  0  0  0  0  0  0  0  0  0
  161.0400  203.3840  150.5710 N   0  0  0  0  0  0  0  0  0  0  0  0
  160.1390  202.6720  149.6650 C   0  0  0  0  0  2  0  0  0  0  0  0
  160.9120  201.6760  148.8130 C   0  0  0  0  0  2  0  0  0  0  0  0
  161.1460  202.2340  147.4210 C   0  0  0  0  0  2  0  0  0  0  0  0
  160.0910  201.5310  145.2770 O   0  0  0  0  0  0  0  0  0  0  0  0
  160.8320  201.1980  146.4020 C   0  0  0  0  0  0  0  0  0  0  0  0
  161.2660  200.0250  146.5430 O   0  0  0  0  0  1  0  0  0  0  0  0
  161.6370  205.8430  145.7350 C   0  0  0  0  0  3  0  0  0  0  0  0
  160.5880  205.7480  144.9860 N   0  0  0  0  0  2  0  0  0  0  0  0
  1  8  1  0  0  0  0
  2 17  1  0  0  0  0
  2  7  1  0  0  0  0
  3  7  1  0  0  0  0
  3  5  1  0  0  0  0
  4  9  1  0  0  0  0
  4 12  2  0  0  0  0
  5  6  2  0  0  0  0
  6 14  1  0  0  0  0
  6 10  1  0  0  0  0
  7 13  1  6  0  0  0
  8  3  2  0  0  0  0
  9  1  2  0  0  0  0
 11  8  1  0  0  0  0
 11  2  2  0  0  0  0
 12 11  1  0  0  0  0
 13 14  2  0  0  0  0
 15 16  2  0  0  0  0
 17 15  1  0  0  0  0
 18 17  1  0  0  0  0
 19 18  1  0  0  0  0
 20 19  1  0  0  0  0
 21 22  2  0  0  0  0
 22 23  1  0  0  0  0
 22 20  1  0  0  0  0
 24  4  1  0  0  0  0
 25 24  2  0  0  0  0
M  END
>  <MODEL>
6

>  <REMARK>
 VINA RESULT:      -7.8      1.967      4.170
  Name = 
  6 active torsions:
  status: ('A' for Active; 'I' for Inactive)
    1  A    between atoms: C_2  and  N_15
    2  A    between atoms: C_4  and  C_17
    3  A    between atoms: C_8  and  C_25
    4  A    between atoms: C_14  and  N_15
    5  A    between atoms: C_14  and  C_19
    6  A    between atoms: C_19  and  C_25
                            x       y       z     vdW  Elec       q    Type
                         _______ _______ _______ _____ _____    ______ ____

>  <TORSDO>
F 6

$$$$
=
 OpenBabel11052410153D

 25 27  0  0  0  0  0  0  0  0999 V2000
  160.9430  204.1640  151.2700 C   0  0  0  0  0  3  0  0  0  0  0  0
  161.7780  207.2970  149.7910 C   0  0  0  0  0  0  0  0  0  0  0  0
  161.4290  205.1140  149.0720 C   0  0  0  0  0  0  0  0  0  0  0  0
  161.0490  205.7990  153.0910 C   0  0  0  0  0  0  0  0  0  0  0  0
  161.3050  203.9350  148.1530 C   0  0  0  0  0  3  0  0  0  0  0  0
  161.5600  204.3350  146.7090 C   0  0  0  0  0  0  0  0  0  0  0  0
  161.7640  206.4380  148.6040 C   0  0  0  0  0  0  0  0  0  0  0  0
  161.2690  205.1890  150.3850 C   0  0  0  0  0  0  0  0  0  0  0  0
  160.8330  204.4790  152.6340 C   0  0  0  0  0  3  0  0  0  0  0  0
  161.4800  203.3570  145.7290 O   0  0  0  0  0  1  0  0  0  0  0  0
  161.4770  206.4950  150.8220 C   0  0  0  0  0  0  0  0  0  0  0  0
  161.3750  206.8150  152.1790 C   0  0  0  0  0  3  0  0  0  0  0  0
  161.9670  206.7070  147.3190 C   0  0  0  0  0  2  0  0  0  0  0  0
  161.8600  205.5980  146.3430 C   0  0  0  0  0  3  0  0  0  0  0  0
  161.9560  209.4910  148.6370 C   0  0  0  0  0  3  0  0  0  0  0  0
  162.1850  210.7300  148.6430 O   0  0  0  0  0  0  0  0  0  0  0  0
  162.0570  208.7120  149.8350 N   0  0  0  0  0  0  0  0  0  0  0  0
  162.3880  209.3780  151.0940 C   0  0  0  0  0  2  0  0  0  0  0  0
  161.2030  210.1860  151.6020 C   0  0  0  0  0  2  0  0  0  0  0  0
  161.2880  210.3720  153.1050 C   0  0  0  0  0  2  0  0  0  0  0  0
  159.8820  212.3540  152.5600 O   0  0  0  0  0  0  0  0  0  0  0  0
  160.4530  211.5290  153.5200 C   0  0  0  0  0  0  0  0  0  0  0  0
  160.2360  211.7440  154.7400 O   0  0  0  0  0  1  0  0  0  0  0  0
  160.9370  206.1360  154.5140 C   0  0  0  0  0  3  0  0  0  0  0  0
  160.4660  207.2750  154.9030 N   0  0  0  0  0  2  0  0  0  0  0  0
  1  9  1  0  0  0  0
  2 17  1  0  0  0  0
  2 11  1  0  0  0  0
  3  8  1  0  0  0  0
  4 24  1  0  0  0  0
  5  3  2  0  0  0  0
  6  5  1  0  0  0  0
  7  3  1  0  0  0  0
  7  2  2  0  0  0  0
  8 11  1  0  0  0  0
  8  1  2  0  0  0  0
  9  4  2  0  0  0  0
 10  6  1  0  0  0  0
 11 12  2  0  0  0  0
 12  4  1  0  0  0  0
 13  7  1  0  0  0  0
 14  6  2  0  0  0  0
 14 13  1  0  0  0  0
 15 16  2  0  0  0  0
 15 17  1  0  0  0  0
 17 18  1  0  0  0  0
 18 19  1  0  0  0  0
 19 20  1  0  0  0  0
 20 22  1  0  0  0  0
 21 22  2  0  0  0  0
 22 23  1  0  0  0  0
 24 25  2  0  0  0  0
M  END
>  <MODEL>
7

>  <REMARK>
 VINA RESULT:      -7.6      2.563      6.836
  Name = 
  6 active torsions:
  status: ('A' for Active; 'I' for Inactive)
    1  A    between atoms: C_2  and  N_15
    2  A    between atoms: C_4  and  C_17
    3  A    between atoms: C_8  and  C_25
    4  A    between atoms: C_14  and  N_15
    5  A    between atoms: C_14  and  C_19
    6  A    between atoms: C_19  and  C_25
                            x       y       z     vdW  Elec       q    Type
                         _______ _______ _______ _____ _____    ______ ____

>  <TORSDO>
F 6

$$$$
=
 OpenBabel11052410153D

 25 27  0  0  0  0  0  0  0  0999 V2000
  161.2530  209.5800  153.5480 C   0  0  0  0  0  3  0  0  0  0  0  0
  161.3130  206.8160  151.2990 C   0  0  0  0  0  0  0  0  0  0  0  0
  161.6460  209.1140  151.1810 C   0  0  0  0  0  0  0  0  0  0  0  0
  160.7150  207.5870  154.8650 C   0  0  0  0  0  0  0  0  0  0  0  0
  161.9460  210.4670  150.6100 C   0  0  0  0  0  3  0  0  0  0  0  0
  162.2400  210.3810  149.1210 C   0  0  0  0  0  0  0  0  0  0  0  0
  161.6350  207.9120  150.3810 C   0  0  0  0  0  0  0  0  0  0  0  0
  161.3600  208.7610  152.4260 C   0  0  0  0  0  0  0  0  0  0  0  0
  160.9280  208.9810  154.7740 C   0  0  0  0  0  3  0  0  0  0  0  0
  162.5410  211.5510  148.4380 O   0  0  0  0  0  1  0  0  0  0  0  0
  161.1590  207.3850  152.5030 C   0  0  0  0  0  0  0  0  0  0  0  0
  160.8280  206.7830  153.7200 C   0  0  0  0  0  3  0  0  0  0  0  0
  161.9100  207.9210  149.0810 C   0  0  0  0  0  2  0  0  0  0  0  0
  162.2200  209.2180  148.4380 C   0  0  0  0  0  3  0  0  0  0  0  0
  161.6860  204.4290  151.8830 C   0  0  0  0  0  3  0  0  0  0  0  0
  161.5860  203.1990  151.6300 O   0  0  0  0  0  0  0  0  0  0  0  0
  161.1910  205.4160  150.9700 N   0  0  0  0  0  0  0  0  0  0  0  0
  160.5170  204.9840  149.7460 C   0  0  0  0  0  2  0  0  0  0  0  0
  161.5300  204.5110  148.7150 C   0  0  0  0  0  2  0  0  0  0  0  0
  161.2310  205.1170  147.3560 C   0  0  0  0  0  2  0  0  0  0  0  0
  161.3760  203.3200  145.6370 O   0  0  0  0  0  0  0  0  0  0  0  0
  161.9760  204.3820  146.3000 C   0  0  0  0  0  0  0  0  0  0  0  0
  163.1390  204.7430  145.9840 O   0  0  0  0  0  1  0  0  0  0  0  0
  160.3730  206.9540  156.1430 C   0  0  0  0  0  3  0  0  0  0  0  0
  160.3390  207.6310  157.2440 N   0  0  0  0  0  2  0  0  0  0  0  0
  1  9  1  0  0  0  0
  2 11  1  0  0  0  0
  3  8  1  0  0  0  0
  4 24  1  0  0  0  0
  5  3  2  0  0  0  0
  6  5  1  0  0  0  0
  7  3  1  0  0  0  0
  7  2  2  0  0  0  0
  8 11  1  0  0  0  0
  8  1  2  0  0  0  0
  9  4  2  0  0  0  0
 10  6  1  0  0  0  0
 11 12  2  0  0  0  0
 12  4  1  0  0  0  0
 13  7  1  0  0  0  0
 14 13  1  0  0  0  0
 14  6  2  0  0  0  0
 16 15  2  0  0  0  0
 17  2  1  0  0  0  0
 17 15  1  0  0  0  0
 18 17  1  0  0  0  0
 19 18  1  0  0  0  0
 20 19  1  0  0  0  0
 21 22  2  0  0  0  0
 22 20  1  0  0  0  0
 23 22  1  0  0  0  0
 24 25  2  0  0  0  0
M  END
>  <MODEL>
8

>  <REMARK>
 VINA RESULT:      -7.6      3.246      4.920
  Name = 
  6 active torsions:
  status: ('A' for Active; 'I' for Inactive)
    1  A    between atoms: C_2  and  N_15
    2  A    between atoms: C_4  and  C_17
    3  A    between atoms: C_8  and  C_25
    4  A    between atoms: C_14  and  N_15
    5  A    between atoms: C_14  and  C_19
    6  A    between atoms: C_19  and  C_25
                            x       y       z     vdW  Elec       q    Type
                         _______ _______ _______ _____ _____    ______ ____

>  <TORSDO>
F 6

$$$$
=
 OpenBabel11052410153D

 25 27  0  0  0  0  0  0  0  0999 V2000
  161.6580  206.2940  147.0570 C   0  0  0  0  0  3  0  0  0  0  0  0
  161.5010  206.0220  150.6070 C   0  0  0  0  0  0  0  0  0  0  0  0
  161.7810  207.7170  149.0400 C   0  0  0  0  0  0  0  0  0  0  0  0
  161.3370  203.9210  147.5690 C   0  0  0  0  0  0  0  0  0  0  0  0
  161.9780  209.0880  148.4670 C   0  0  0  0  0  2  0  0  0  0  0  0
  162.0620  210.1350  149.5660 C   0  0  0  0  0  0  0  0  0  0  0  0
  161.7030  207.4660  150.4600 C   0  0  0  0  0  0  0  0  0  0  0  0
  161.6450  206.5510  148.4260 C   0  0  0  0  0  0  0  0  0  0  0  0
  161.5020  204.9660  146.6320 C   0  0  0  0  0  3  0  0  0  0  0  0
  162.2410  211.4630  149.2020 O   0  0  0  0  0  1  0  0  0  0  0  0
  161.4770  205.5310  149.3600 C   0  0  0  0  0  0  0  0  0  0  0  0
  161.3270  204.2050  148.9450 C   0  0  0  0  0  3  0  0  0  0  0  0
  161.7810  208.4420  151.3590 C   0  0  0  0  0  3  0  0  0  0  0  0
  161.9720  209.8290  150.8760 C   0  0  0  0  0  3  0  0  0  0  0  0
  160.7870  203.9740  151.8190 C   0  0  0  0  0  3  0  0  0  0  0  0
  160.6570  203.3020  152.8770 O   0  0  0  0  0  0  0  0  0  0  0  0
  161.3580  205.2870  151.8400 N   0  0  0  0  0  0  0  0  0  0  0  0
  161.8390  205.8370  153.1070 C   0  0  0  0  0  2  0  0  0  0  0  0
  160.6830  206.3950  153.9240 C   0  0  0  0  0  2  0  0  0  0  0  0
  161.1610  207.5150  154.8290 C   0  0  0  0  0  2  0  0  0  0  0  0
  159.7900  206.8680  156.8050 O   0  0  0  0  0  1  0  0  0  0  0  0
  160.1240  207.8180  155.8490 C   0  0  0  0  0  0  0  0  0  0  0  0
  159.5700  208.9480  155.8670 O   0  0  0  0  0  0  0  0  0  0  0  0
  161.1750  202.5300  147.1340 C   0  0  0  0  0  3  0  0  0  0  0  0
  160.9260  202.2340  145.9010 N   0  0  0  0  0  2  0  0  0  0  0  0
  1  8  1  0  0  0  0
  2 17  1  0  0  0  0
  3  7  1  0  0  0  0
  4 12  2  0  0  0  0
  5  3  1  0  0  0  0
  5  6  1  0  0  0  0
  6 14  2  0  0  0  0
  7  2  1  0  0  0  0
  7 13  2  0  0  0  0
  8  3  2  0  0  0  0
  8 11  1  0  0  0  0
  9  1  2  0  0  0  0
  9  4  1  0  0  0  0
 10  6  1  0  0  0  0
 11  2  2  0  0  0  0
 12 11  1  0  0  0  0
 14 13  1  0  0  0  0
 15 17  1  0  0  0  0
 15 16  2  0  0  0  0
 17 18  1  0  0  0  0
 18 19  1  0  0  0  0
 19 20  1  0  0  0  0
 20 22  1  0  0  0  0
 22 23  2  0  0  0  0
 22 21  1  0  0  0  0
 24  4  1  0  0  0  0
 25 24  2  0  0  0  0
M  END
>  <MODEL>
9

>  <REMARK>
 VINA RESULT:      -7.6      3.165      6.183
  Name = 
  6 active torsions:
  status: ('A' for Active; 'I' for Inactive)
    1  A    between atoms: C_2  and  N_15
    2  A    between atoms: C_4  and  C_17
    3  A    between atoms: C_8  and  C_25
    4  A    between atoms: C_14  and  N_15
    5  A    between atoms: C_14  and  C_19
    6  A    between atoms: C_19  and  C_25
                            x       y       z     vdW  Elec       q    Type
                         _______ _______ _______ _____ _____    ______ ____

>  <TORSDO>
F 6

$$$$
