=
 OpenBabel11052409273D

 35 37  0  0  1  0  0  0  0  0999 V2000
  161.8850  206.2840  153.0470 C   0  0  0  0  0  2  0  0  0  0  0  0
  161.2320  202.0850  150.6770 F   0  0  0  0  0  0  0  0  0  0  0  0
  160.7570  204.1000  149.5670 N   0  0  0  0  0  0  0  0  0  0  0  0
  160.6900  205.4580  149.5240 C   0  0  0  0  0  0  0  0  0  0  0  0
  161.4960  205.5430  151.8080 C   0  0  0  0  0  0  0  0  0  0  0  0
  160.2430  206.0980  148.3310 N   0  0  0  0  0  1  0  0  0  0  0  0
  161.1780  203.4380  150.6780 C   0  0  0  0  0  0  0  0  0  0  0  0
  161.5540  204.1490  151.8160 C   0  0  0  0  0  3  0  0  0  0  0  0
  161.0640  206.2170  150.6470 C   0  0  0  0  0  0  0  0  0  0  0  0
  161.0120  207.7150  150.6000 C   0  0  0  0  0  2  0  0  0  0  0  0
  162.3270  208.2760  150.0910 C   0  0  0  0  0  2  0  0  0  0  0  0
  162.1500  210.1060  148.3440 O   0  0  0  0  0  0  0  0  0  0  0  0
  162.1290  209.6870  149.6650 C   0  0  0  0  0  0  0  0  0  0  0  0
  161.7630  211.8270  149.7490 N   0  0  0  0  0  2  0  0  0  0  0  0
  161.9090  210.6490  150.4880 N   0  0  0  0  0  0  0  0  0  0  0  0
  161.9030  211.5050  148.3340 C   0  0  1  0  0  3  0  0  0  0  0  0
  163.1010  212.2310  147.7490 C   0  0  0  0  0  2  0  0  0  0  0  0
  162.6910  213.0480  146.6970 O   0  0  0  0  0  1  0  0  0  0  0  0
  160.6620  206.5650  153.9040 C   0  0  0  0  0  2  0  0  0  0  0  0
  161.9820  209.4550  155.9500 C   0  0  0  0  0  2  0  0  0  0  0  0
  161.6620  208.7340  157.2610 C   0  0  0  0  0  2  0  0  0  0  0  0
  159.8960  207.4190  155.9760 C   0  0  0  0  0  2  0  0  0  0  0  0
  161.0580  207.3110  155.0900 N   0  0  0  0  0  0  0  0  0  0  0  0
  160.2270  208.2040  157.2540 C   0  0  0  0  0  2  0  0  0  0  0  0
  161.5490  208.6500  154.7140 C   0  0  1  0  0  3  0  0  0  0  0  0
  160.3230  209.6220  153.7590 S   0  0  0  0  0  0  0  0  0  0  0  0
  160.9280  211.1880  154.4470 C   0  0  0  0  0  2  0  0  0  0  0  0
  159.7630  211.9780  155.0050 C   0  0  0  0  0  2  0  0  0  0  0  0
  158.4510  211.3060  154.6350 C   0  0  0  0  0  2  0  0  0  0  0  0
  158.1890  211.8650  156.8900 C   0  0  0  0  0  1  0  0  0  0  0  0
  157.6890  210.9990  155.8350 N   0  0  0  0  0  0  0  0  0  0  0  0
  155.1570  210.0980  154.9980 O   0  0  0  0  0  1  0  0  0  0  0  0
  156.0190  211.4510  155.5320 P   0  0  0  0  0  0  0  0  0  0  0  0
  155.9500  212.5340  154.4770 O   0  0  0  0  0  0  0  0  0  0  0  0
  155.3220  212.0210  156.9630 O   0  0  0  0  0  1  0  0  0  0  0  0
  1 19  1  0  0  0  0
  2  7  1  0  0  0  0
  3  7  1  0  0  0  0
  4  3  2  0  0  0  0
  4  9  1  0  0  0  0
  5  8  1  0  0  0  0
  5  1  1  0  0  0  0
  6  4  1  0  0  0  0
  7  8  2  0  0  0  0
  9  5  2  0  0  0  0
 10  9  1  0  0  0  0
 11 10  1  0  0  0  0
 12 13  1  0  0  0  0
 13 11  1  0  0  0  0
 13 15  2  0  0  0  0
 14 15  1  0  0  0  0
 16 17  1  1  0  0  0
 16 12  1  0  0  0  0
 16 14  1  0  0  0  0
 18 17  1  0  0  0  0
 19 23  1  0  0  0  0
 20 21  1  0  0  0  0
 22 24  1  0  0  0  0
 23 22  1  0  0  0  0
 24 21  1  0  0  0  0
 25 26  1  1  0  0  0
 25 23  1  0  0  0  0
 25 20  1  0  0  0  0
 26 27  1  0  0  0  0
 27 28  1  0  0  0  0
 29 28  1  0  0  0  0
 29 31  1  0  0  0  0
 31 30  1  0  0  0  0
 32 33  1  0  0  0  0
 33 31  1  0  0  0  0
 33 35  1  0  0  0  0
 34 33  2  0  0  0  0
M  END
>  <MODEL>
1

>  <REMARK>
 VINA RESULT:      -6.7      0.000      0.000
  Name = 
  13 active torsions:
  status: ('A' for Active; 'I' for Inactive)
    1  A    between atoms: C_2  and  C_12
    2  A    between atoms: C_2  and  C_22
    3  A    between atoms: S_6  and  C_22
    4  A    between atoms: S_6  and  C_28
    5  A    between atoms: C_9  and  C_34
    6  A    between atoms: C_10  and  N_23
    7  A    between atoms: C_10  and  C_35
    8  A    between atoms: C_12  and  N_21
    9  A    between atoms: C_13  and  C_14
   10  A    between atoms: C_14  and  C_17
   11  A    between atoms: P_15  and  N_21
   12  A    between atoms: C_17  and  C_32
   13  A    between atoms: C_20  and  C_35
                            x       y       z     vdW  Elec       q    Type
                         _______ _______ _______ _____ _____    ______ ____

>  <TORSDO>
F 13

$$$$
=
 OpenBabel11052409273D

 35 37  0  0  1  0  0  0  0  0999 V2000
  161.0450  207.2320  152.3570 C   0  0  0  0  0  2  0  0  0  0  0  0
  162.5140  210.1800  148.7750 F   0  0  0  0  0  0  0  0  0  0  0  0
  161.6270  208.0760  148.2220 N   0  0  0  0  0  0  0  0  0  0  0  0
  161.0820  206.8770  148.5630 C   0  0  0  0  0  0  0  0  0  0  0  0
  161.2260  207.5080  150.8990 C   0  0  0  0  0  0  0  0  0  0  0  0
  160.7330  205.9520  147.5370 N   0  0  0  0  0  1  0  0  0  0  0  0
  161.9760  208.9970  149.1580 C   0  0  0  0  0  0  0  0  0  0  0  0
  161.7810  208.7280  150.5120 C   0  0  0  0  0  3  0  0  0  0  0  0
  160.8620  206.5640  149.9160 C   0  0  0  0  0  0  0  0  0  0  0  0
  160.2420  205.2530  150.2980 C   0  0  0  0  0  2  0  0  0  0  0  0
  161.3140  204.1960  150.4920 C   0  0  0  0  0  2  0  0  0  0  0  0
  161.6950  202.8480  148.3780 O   0  0  0  0  0  0  0  0  0  0  0  0
  161.0430  203.0480  149.5850 C   0  0  0  0  0  0  0  0  0  0  0  0
  160.1970  201.2130  148.7880 N   0  0  0  0  0  2  0  0  0  0  0  0
  160.1840  202.1290  149.8450 N   0  0  0  0  0  0  0  0  0  0  0  0
  161.1890  201.6480  147.8120 C   0  0  1  0  0  3  0  0  0  0  0  0
  160.5170  201.9520  146.4850 C   0  0  0  0  0  2  0  0  0  0  0  0
  161.2950  202.8490  145.7560 O   0  0  0  0  0  1  0  0  0  0  0  0
  161.6480  208.3510  153.1890 C   0  0  0  0  0  2  0  0  0  0  0  0
  161.1340  209.1020  156.8560 C   0  0  0  0  0  2  0  0  0  0  0  0
  160.8660  207.6280  157.1680 C   0  0  0  0  0  2  0  0  0  0  0  0
  160.1540  207.3580  154.7350 C   0  0  0  0  0  2  0  0  0  0  0  0
  161.4180  208.0880  154.6010 N   0  0  0  0  0  0  0  0  0  0  0  0
  159.8300  207.0470  156.2040 C   0  0  0  0  0  2  0  0  0  0  0  0
  161.3680  209.3540  155.3570 C   0  0  1  0  0  3  0  0  0  0  0  0
  160.0920  210.5120  154.7330 S   0  0  0  0  0  0  0  0  0  0  0  0
  159.7560  211.1460  156.4000 C   0  0  0  0  0  2  0  0  0  0  0  0
  159.9530  212.6480  156.4180 C   0  0  0  0  0  2  0  0  0  0  0  0
  158.8160  213.3330  155.6790 C   0  0  0  0  0  2  0  0  0  0  0  0
  156.9150  213.8550  156.9370 C   0  0  0  0  0  1  0  0  0  0  0  0
  157.5370  212.8130  156.1370 N   0  0  0  0  0  0  0  0  0  0  0  0
  155.2900  213.7180  154.7030 O   0  0  0  0  0  1  0  0  0  0  0  0
  156.5280  212.5670  154.7200 P   0  0  0  0  0  0  0  0  0  0  0  0
  155.9200  211.1810  154.7420 O   0  0  0  0  0  1  0  0  0  0  0  0
  157.4660  212.7430  153.3250 O   0  0  0  0  0  0  0  0  0  0  0  0
  1 19  1  0  0  0  0
  2  7  1  0  0  0  0
  3  4  2  0  0  0  0
  3  7  1  0  0  0  0
  4  9  1  0  0  0  0
  5  1  1  0  0  0  0
  6  4  1  0  0  0  0
  7  8  2  0  0  0  0
  8  5  1  0  0  0  0
  9 10  1  0  0  0  0
  9  5  2  0  0  0  0
 10 11  1  0  0  0  0
 12 13  1  0  0  0  0
 13 15  2  0  0  0  0
 13 11  1  0  0  0  0
 14 15  1  0  0  0  0
 16 17  1  6  0  0  0
 16 12  1  0  0  0  0
 16 14  1  0  0  0  0
 18 17  1  0  0  0  0
 19 23  1  0  0  0  0
 20 21  1  0  0  0  0
 22 24  1  0  0  0  0
 23 22  1  0  0  0  0
 23 25  1  0  0  0  0
 24 21  1  0  0  0  0
 25 26  1  6  0  0  0
 25 20  1  0  0  0  0
 26 27  1  0  0  0  0
 27 28  1  0  0  0  0
 29 31  1  0  0  0  0
 29 28  1  0  0  0  0
 31 30  1  0  0  0  0
 32 33  1  0  0  0  0
 33 34  1  0  0  0  0
 33 31  1  0  0  0  0
 35 33  2  0  0  0  0
M  END
>  <MODEL>
2

>  <REMARK>
 VINA RESULT:      -6.7      2.917      4.970
  Name = 
  13 active torsions:
  status: ('A' for Active; 'I' for Inactive)
    1  A    between atoms: C_2  and  C_12
    2  A    between atoms: C_2  and  C_22
    3  A    between atoms: S_6  and  C_22
    4  A    between atoms: S_6  and  C_28
    5  A    between atoms: C_9  and  C_34
    6  A    between atoms: C_10  and  N_23
    7  A    between atoms: C_10  and  C_35
    8  A    between atoms: C_12  and  N_21
    9  A    between atoms: C_13  and  C_14
   10  A    between atoms: C_14  and  C_17
   11  A    between atoms: P_15  and  N_21
   12  A    between atoms: C_17  and  C_32
   13  A    between atoms: C_20  and  C_35
                            x       y       z     vdW  Elec       q    Type
                         _______ _______ _______ _____ _____    ______ ____

>  <TORSDO>
F 13

$$$$
=
 OpenBabel11052409273D

 35 37  0  0  1  0  0  0  0  0999 V2000
  161.7170  207.4340  151.5550 C   0  0  0  0  0  2  0  0  0  0  0  0
  161.3310  202.7410  152.7800 F   0  0  0  0  0  0  0  0  0  0  0  0
  160.9640  203.3640  150.5450 N   0  0  0  0  0  0  0  0  0  0  0  0
  160.8960  204.2960  149.5560 C   0  0  0  0  0  0  0  0  0  0  0  0
  161.4620  206.0120  151.1700 C   0  0  0  0  0  0  0  0  0  0  0  0
  160.5720  203.8840  148.2300 N   0  0  0  0  0  1  0  0  0  0  0  0
  161.2710  203.7000  151.8260 C   0  0  0  0  0  0  0  0  0  0  0  0
  161.5250  205.0300  152.1600 C   0  0  0  0  0  3  0  0  0  0  0  0
  161.1490  205.6490  149.8440 C   0  0  0  0  0  0  0  0  0  0  0  0
  161.0950  206.6780  148.7550 C   0  0  0  0  0  2  0  0  0  0  0  0
  162.4270  206.7530  148.0310 C   0  0  0  0  0  2  0  0  0  0  0  0
  161.3900  206.1640  145.7920 O   0  0  0  0  0  0  0  0  0  0  0  0
  162.3490  205.9620  146.7730 C   0  0  0  0  0  0  0  0  0  0  0  0
  162.8120  204.5070  145.2280 N   0  0  0  0  0  2  0  0  0  0  0  0
  163.1740  205.0230  146.4760 N   0  0  0  0  0  0  0  0  0  0  0  0
  161.6500  205.2420  144.7440 C   0  0  1  0  0  3  0  0  0  0  0  0
  160.4680  204.3040  144.5830 C   0  0  0  0  0  2  0  0  0  0  0  0
  160.8100  203.0310  145.0380 O   0  0  0  0  0  1  0  0  0  0  0  0
  160.6220  207.9410  152.4780 C   0  0  0  0  0  2  0  0  0  0  0  0
  161.8810  210.7560  154.6610 C   0  0  0  0  0  2  0  0  0  0  0  0
  162.1910  209.7910  155.8070 C   0  0  0  0  0  2  0  0  0  0  0  0
  160.4330  208.2310  154.8210 C   0  0  0  0  0  2  0  0  0  0  0  0
  161.2200  208.5870  153.6360 N   0  0  0  0  0  0  0  0  0  0  0  0
  160.9950  208.8820  156.0930 C   0  0  0  0  0  2  0  0  0  0  0  0
  161.2450  210.0500  153.4520 C   0  0  1  0  0  3  0  0  0  0  0  0
  159.5850  210.7620  153.1410 S   0  0  0  0  0  0  0  0  0  0  0  0
  159.9320  212.2010  154.1910 C   0  0  0  0  0  2  0  0  0  0  0  0
  158.8650  213.2540  153.9720 C   0  0  0  0  0  2  0  0  0  0  0  0
  158.3200  213.7310  155.3080 C   0  0  0  0  0  2  0  0  0  0  0  0
  156.4270  213.5710  153.9440 C   0  0  0  0  0  1  0  0  0  0  0  0
  156.8710  213.6150  155.3280 N   0  0  0  0  0  0  0  0  0  0  0  0
  155.1130  212.2400  157.0440 O   0  0  0  0  0  1  0  0  0  0  0  0
  156.4740  212.0660  156.0550 P   0  0  0  0  0  0  0  0  0  0  0  0
  157.6330  211.5630  156.8880 O   0  0  0  0  0  1  0  0  0  0  0  0
  156.1330  210.9430  154.8380 O   0  0  0  0  0  0  0  0  0  0  0  0
  1 19  1  0  0  0  0
  3  7  1  0  0  0  0
  4  9  1  0  0  0  0
  4  3  2  0  0  0  0
  5  1  1  0  0  0  0
  5  8  1  0  0  0  0
  6  4  1  0  0  0  0
  7  8  2  0  0  0  0
  7  2  1  0  0  0  0
  9  5  2  0  0  0  0
 10  9  1  0  0  0  0
 11 10  1  0  0  0  0
 12 13  1  0  0  0  0
 13 11  1  0  0  0  0
 14 15  1  0  0  0  0
 15 13  2  0  0  0  0
 16 17  1  1  0  0  0
 16 14  1  0  0  0  0
 16 12  1  0  0  0  0
 17 18  1  0  0  0  0
 19 23  1  0  0  0  0
 20 21  1  0  0  0  0
 21 24  1  0  0  0  0
 22 24  1  0  0  0  0
 23 22  1  0  0  0  0
 25 26  1  1  0  0  0
 25 23  1  0  0  0  0
 25 20  1  0  0  0  0
 26 27  1  0  0  0  0
 28 27  1  0  0  0  0
 28 29  1  0  0  0  0
 29 31  1  0  0  0  0
 30 31  1  0  0  0  0
 31 33  1  0  0  0  0
 33 34  1  0  0  0  0
 33 32  1  0  0  0  0
 35 33  2  0  0  0  0
M  END
>  <MODEL>
3

>  <REMARK>
 VINA RESULT:      -6.6      2.674      3.871
  Name = 
  13 active torsions:
  status: ('A' for Active; 'I' for Inactive)
    1  A    between atoms: C_2  and  C_12
    2  A    between atoms: C_2  and  C_22
    3  A    between atoms: S_6  and  C_22
    4  A    between atoms: S_6  and  C_28
    5  A    between atoms: C_9  and  C_34
    6  A    between atoms: C_10  and  N_23
    7  A    between atoms: C_10  and  C_35
    8  A    between atoms: C_12  and  N_21
    9  A    between atoms: C_13  and  C_14
   10  A    between atoms: C_14  and  C_17
   11  A    between atoms: P_15  and  N_21
   12  A    between atoms: C_17  and  C_32
   13  A    between atoms: C_20  and  C_35
                            x       y       z     vdW  Elec       q    Type
                         _______ _______ _______ _____ _____    ______ ____

>  <TORSDO>
F 13

$$$$
=
 OpenBabel11052409273D

 35 37  0  0  1  0  0  0  0  0999 V2000
  161.8970  207.5060  151.8520 C   0  0  0  0  0  2  0  0  0  0  0  0
  160.3890  203.0300  153.0200 F   0  0  0  0  0  0  0  0  0  0  0  0
  160.8940  203.5080  150.7760 N   0  0  0  0  0  0  0  0  0  0  0  0
  161.3090  204.3530  149.7940 C   0  0  0  0  0  0  0  0  0  0  0  0
  161.5650  206.1060  151.4490 C   0  0  0  0  0  0  0  0  0  0  0  0
  161.3870  203.8800  148.4530 N   0  0  0  0  0  1  0  0  0  0  0  0
  160.8040  203.9050  152.0730 C   0  0  0  0  0  0  0  0  0  0  0  0
  161.1370  205.2110  152.4310 C   0  0  0  0  0  3  0  0  0  0  0  0
  161.6600  205.6780  150.1080 C   0  0  0  0  0  0  0  0  0  0  0  0
  162.1380  206.6100  149.0350 C   0  0  0  0  0  2  0  0  0  0  0  0
  160.9810  207.0390  148.1520 C   0  0  0  0  0  2  0  0  0  0  0  0
  160.0990  206.1540  145.9440 O   0  0  0  0  0  0  0  0  0  0  0  0
  161.1520  206.4520  146.7960 C   0  0  0  0  0  0  0  0  0  0  0  0
  162.0870  205.6510  145.0050 N   0  0  0  0  0  2  0  0  0  0  0  0
  162.2980  206.1760  146.2840 N   0  0  0  0  0  0  0  0  0  0  0  0
  160.6520  205.6340  144.7440 C   0  0  1  0  0  3  0  0  0  0  0  0
  160.1770  204.2080  144.5380 C   0  0  0  0  0  2  0  0  0  0  0  0
  161.1810  203.3160  144.9100 O   0  0  0  0  0  1  0  0  0  0  0  0
  160.7390  208.1310  152.6100 C   0  0  0  0  0  2  0  0  0  0  0  0
  161.5800  211.0610  154.8440 C   0  0  0  0  0  2  0  0  0  0  0  0
  162.0450  210.1310  155.9660 C   0  0  0  0  0  2  0  0  0  0  0  0
  160.5330  208.3430  154.9610 C   0  0  0  0  0  2  0  0  0  0  0  0
  161.2440  208.8380  153.7780 N   0  0  0  0  0  0  0  0  0  0  0  0
  161.0030  209.0470  156.2430 C   0  0  0  0  0  2  0  0  0  0  0  0
  161.0450  210.2910  153.6250 C   0  0  1  0  0  3  0  0  0  0  0  0
  159.2940  210.7490  153.3410 S   0  0  0  0  0  0  0  0  0  0  0  0
  159.7240  212.4900  153.0600 C   0  0  0  0  0  2  0  0  0  0  0  0
  159.2990  212.8960  151.6640 C   0  0  0  0  0  2  0  0  0  0  0  0
  160.4780  212.8010  150.7110 C   0  0  0  0  0  2  0  0  0  0  0  0
  159.8780  214.4530  149.1700 C   0  0  0  0  0  1  0  0  0  0  0  0
  160.0350  213.0190  149.3430 N   0  0  0  0  0  0  0  0  0  0  0  0
  162.2240  213.8460  147.7780 O   0  0  0  0  0  1  0  0  0  0  0  0
  161.3300  212.4990  148.2770 P   0  0  0  0  0  0  0  0  0  0  0  0
  160.7630  211.8000  147.0610 O   0  0  0  0  0  0  0  0  0  0  0  0
  162.3500  211.4360  149.1080 O   0  0  0  0  0  1  0  0  0  0  0  0
  1 19  1  0  0  0  0
  3  7  1  0  0  0  0
  4  9  1  0  0  0  0
  4  3  2  0  0  0  0
  5  1  1  0  0  0  0
  5  8  1  0  0  0  0
  6  4  1  0  0  0  0
  7  8  2  0  0  0  0
  7  2  1  0  0  0  0
  9  5  2  0  0  0  0
 10  9  1  0  0  0  0
 11 10  1  0  0  0  0
 12 13  1  0  0  0  0
 13 11  1  0  0  0  0
 14 15  1  0  0  0  0
 15 13  2  0  0  0  0
 16 17  1  1  0  0  0
 16 14  1  0  0  0  0
 16 12  1  0  0  0  0
 17 18  1  0  0  0  0
 19 23  1  0  0  0  0
 20 21  1  0  0  0  0
 21 24  1  0  0  0  0
 22 24  1  0  0  0  0
 23 22  1  0  0  0  0
 25 26  1  1  0  0  0
 25 23  1  0  0  0  0
 25 20  1  0  0  0  0
 27 26  1  0  0  0  0
 28 27  1  0  0  0  0
 29 28  1  0  0  0  0
 30 31  1  0  0  0  0
 31 29  1  0  0  0  0
 32 33  1  0  0  0  0
 33 35  1  0  0  0  0
 33 31  1  0  0  0  0
 34 33  2  0  0  0  0
M  END
>  <MODEL>
4

>  <REMARK>
 VINA RESULT:      -6.5      3.787      5.315
  Name = 
  13 active torsions:
  status: ('A' for Active; 'I' for Inactive)
    1  A    between atoms: C_2  and  C_12
    2  A    between atoms: C_2  and  C_22
    3  A    between atoms: S_6  and  C_22
    4  A    between atoms: S_6  and  C_28
    5  A    between atoms: C_9  and  C_34
    6  A    between atoms: C_10  and  N_23
    7  A    between atoms: C_10  and  C_35
    8  A    between atoms: C_12  and  N_21
    9  A    between atoms: C_13  and  C_14
   10  A    between atoms: C_14  and  C_17
   11  A    between atoms: P_15  and  N_21
   12  A    between atoms: C_17  and  C_32
   13  A    between atoms: C_20  and  C_35
                            x       y       z     vdW  Elec       q    Type
                         _______ _______ _______ _____ _____    ______ ____

>  <TORSDO>
F 13

$$$$
=
 OpenBabel11052409273D

 35 37  0  0  1  0  0  0  0  0999 V2000
  162.0130  209.7850  149.6150 C   0  0  0  0  0  2  0  0  0  0  0  0
  160.6180  210.4760  154.2250 F   0  0  0  0  0  0  0  0  0  0  0  0
  160.9520  208.2810  153.4570 N   0  0  0  0  0  0  0  0  0  0  0  0
  161.2880  207.3880  152.4870 C   0  0  0  0  0  0  0  0  0  0  0  0
  161.6580  209.2310  150.9580 C   0  0  0  0  0  0  0  0  0  0  0  0
  161.2680  205.9950  152.7840 N   0  0  0  0  0  1  0  0  0  0  0  0
  160.9570  209.6220  153.2300 C   0  0  0  0  0  0  0  0  0  0  0  0
  161.3090  210.1190  151.9760 C   0  0  0  0  0  3  0  0  0  0  0  0
  161.6560  207.8430  151.2080 C   0  0  0  0  0  0  0  0  0  0  0  0
  162.0470  206.8660  150.1410 C   0  0  0  0  0  2  0  0  0  0  0  0
  160.8230  206.3950  149.3780 C   0  0  0  0  0  2  0  0  0  0  0  0
  161.8400  205.4030  147.2770 O   0  0  0  0  0  0  0  0  0  0  0  0
  161.1990  205.2570  148.4980 C   0  0  0  0  0  0  0  0  0  0  0  0
  161.4610  203.2320  147.7540 N   0  0  0  0  0  2  0  0  0  0  0  0
  160.9710  204.0270  148.7950 N   0  0  0  0  0  0  0  0  0  0  0  0
  162.0510  204.1040  146.7450 C   0  0  1  0  0  3  0  0  0  0  0  0
  161.3030  203.9620  145.4320 C   0  0  0  0  0  2  0  0  0  0  0  0
  160.8300  202.6570  145.2960 O   0  0  0  0  0  1  0  0  0  0  0  0
  162.0170  211.3040  149.6500 C   0  0  0  0  0  2  0  0  0  0  0  0
  160.1290  213.2050  146.9860 C   0  0  0  0  0  2  0  0  0  0  0  0
  161.1970  212.8890  145.9370 C   0  0  0  0  0  2  0  0  0  0  0  0
  162.8460  212.6170  147.8620 C   0  0  0  0  0  2  0  0  0  0  0  0
  161.7050  211.8240  148.3270 N   0  0  0  0  0  0  0  0  0  0  0  0
  162.5950  213.2130  146.4680 C   0  0  0  0  0  2  0  0  0  0  0  0
  160.4840  212.6510  148.3750 C   0  0  1  0  0  3  0  0  0  0  0  0
  160.6050  214.0380  149.5660 S   0  0  0  0  0  0  0  0  0  0  0  0
  159.0100  213.6160  150.3220 C   0  0  0  0  0  2  0  0  0  0  0  0
  159.2460  212.9800  151.6760 C   0  0  0  0  0  2  0  0  0  0  0  0
  158.3180  213.5930  152.7110 C   0  0  0  0  0  2  0  0  0  0  0  0
  159.1080  213.4540  154.9070 C   0  0  0  0  0  1  0  0  0  0  0  0
  158.2970  212.7730  153.9120 N   0  0  0  0  0  0  0  0  0  0  0  0
  156.1150  211.1480  154.6380 O   0  0  0  0  0  1  0  0  0  0  0  0
  156.6450  212.7490  154.5080 P   0  0  0  0  0  0  0  0  0  0  0  0
  155.7330  213.5000  153.5620 O   0  0  0  0  0  0  0  0  0  0  0  0
  156.5860  213.4760  156.0340 O   0  0  0  0  0  1  0  0  0  0  0  0
  1 19  1  0  0  0  0
  1  5  1  0  0  0  0
  4  6  1  0  0  0  0
  4  3  2  0  0  0  0
  5  9  2  0  0  0  0
  5  8  1  0  0  0  0
  7  3  1  0  0  0  0
  7  2  1  0  0  0  0
  8  7  2  0  0  0  0
  9  4  1  0  0  0  0
 10  9  1  0  0  0  0
 11 10  1  0  0  0  0
 12 13  1  0  0  0  0
 13 15  2  0  0  0  0
 13 11  1  0  0  0  0
 14 15  1  0  0  0  0
 16 17  1  6  0  0  0
 16 12  1  0  0  0  0
 16 14  1  0  0  0  0
 18 17  1  0  0  0  0
 20 25  1  0  0  0  0
 21 24  1  0  0  0  0
 21 20  1  0  0  0  0
 22 23  1  0  0  0  0
 23 25  1  0  0  0  0
 23 19  1  0  0  0  0
 24 22  1  0  0  0  0
 25 26  1  1  0  0  0
 26 27  1  0  0  0  0
 27 28  1  0  0  0  0
 28 29  1  0  0  0  0
 29 31  1  0  0  0  0
 31 33  1  0  0  0  0
 31 30  1  0  0  0  0
 33 32  1  0  0  0  0
 33 35  1  0  0  0  0
 34 33  2  0  0  0  0
M  END
>  <MODEL>
5

>  <REMARK>
 VINA RESULT:      -6.4      3.204      6.477
  Name = 
  13 active torsions:
  status: ('A' for Active; 'I' for Inactive)
    1  A    between atoms: C_2  and  C_12
    2  A    between atoms: C_2  and  C_22
    3  A    between atoms: S_6  and  C_22
    4  A    between atoms: S_6  and  C_28
    5  A    between atoms: C_9  and  C_34
    6  A    between atoms: C_10  and  N_23
    7  A    between atoms: C_10  and  C_35
    8  A    between atoms: C_12  and  N_21
    9  A    between atoms: C_13  and  C_14
   10  A    between atoms: C_14  and  C_17
   11  A    between atoms: P_15  and  N_21
   12  A    between atoms: C_17  and  C_32
   13  A    between atoms: C_20  and  C_35
                            x       y       z     vdW  Elec       q    Type
                         _______ _______ _______ _____ _____    ______ ____

>  <TORSDO>
F 13

$$$$
=
 OpenBabel11052409273D

 35 37  0  0  1  0  0  0  0  0999 V2000
  160.8320  209.5120  151.7960 C   0  0  0  0  0  2  0  0  0  0  0  0
  161.7660  208.3550  156.4290 F   0  0  0  0  0  0  0  0  0  0  0  0
  160.1890  210.0360  155.9740 N   0  0  0  0  0  0  0  0  0  0  0  0
  159.4780  210.8110  155.1120 C   0  0  0  0  0  0  0  0  0  0  0  0
  160.5770  209.7070  153.2560 C   0  0  0  0  0  0  0  0  0  0  0  0
  158.5560  211.7660  155.6300 N   0  0  0  0  0  1  0  0  0  0  0  0
  161.0800  209.1070  155.5360 C   0  0  0  0  0  0  0  0  0  0  0  0
  161.2890  208.9280  154.1690 C   0  0  0  0  0  3  0  0  0  0  0  0
  159.6510  210.6620  153.7250 C   0  0  0  0  0  0  0  0  0  0  0  0
  158.8560  211.4980  152.7680 C   0  0  0  0  0  2  0  0  0  0  0  0
  159.5030  212.8590  152.5870 C   0  0  0  0  0  2  0  0  0  0  0  0
  158.5200  213.9510  150.5200 O   0  0  0  0  0  0  0  0  0  0  0  0
  159.5130  213.2110  151.1420 C   0  0  0  0  0  0  0  0  0  0  0  0
  160.1460  213.3710  149.0700 N   0  0  0  0  0  2  0  0  0  0  0  0
  160.4550  212.8680  150.3380 N   0  0  0  0  0  0  0  0  0  0  0  0
  158.8860  214.1000  149.1570 C   0  0  1  0  0  3  0  0  0  0  0  0
  157.8420  213.4440  148.2720 C   0  0  0  0  0  2  0  0  0  0  0  0
  156.7990  212.9540  149.0560 O   0  0  0  0  0  1  0  0  0  0  0  0
  161.9520  208.5090  151.5800 C   0  0  0  0  0  2  0  0  0  0  0  0
  160.2230  205.5470  149.9940 C   0  0  0  0  0  2  0  0  0  0  0  0
  160.4870  204.6750  151.2230 C   0  0  0  0  0  2  0  0  0  0  0  0
  162.4610  206.2010  151.7430 C   0  0  0  0  0  2  0  0  0  0  0  0
  161.3940  207.1690  151.4740 N   0  0  0  0  0  0  0  0  0  0  0  0
  161.9560  204.7540  151.6420 C   0  0  0  0  0  2  0  0  0  0  0  0
  160.8270  206.9540  150.1290 C   0  0  1  0  0  3  0  0  0  0  0  0
  162.0460  207.2190  148.7870 S   0  0  0  0  0  0  0  0  0  0  0  0
  161.1440  206.1210  147.6590 C   0  0  0  0  0  2  0  0  0  0  0  0
  162.1270  205.2240  146.9340 C   0  0  0  0  0  2  0  0  0  0  0  0
  162.1460  203.8460  147.5740 C   0  0  0  0  0  2  0  0  0  0  0  0
  161.0990  202.6150  145.8840 C   0  0  0  0  0  1  0  0  0  0  0  0
  160.9320  203.1200  147.2370 N   0  0  0  0  0  0  0  0  0  0  0  0
  159.2190  201.4810  148.7540 O   0  0  0  0  0  1  0  0  0  0  0  0
  160.8310  201.7320  148.3070 P   0  0  0  0  0  0  0  0  0  0  0  0
  161.6610  201.9640  149.5510 O   0  0  0  0  0  1  0  0  0  0  0  0
  161.4010  200.3580  147.5030 O   0  0  0  0  0  0  0  0  0  0  0  0
  1  5  1  0  0  0  0
  4  6  1  0  0  0  0
  4  3  2  0  0  0  0
  5  9  2  0  0  0  0
  5  8  1  0  0  0  0
  7  3  1  0  0  0  0
  7  2  1  0  0  0  0
  8  7  2  0  0  0  0
  9  4  1  0  0  0  0
 10  9  1  0  0  0  0
 11 10  1  0  0  0  0
 12 13  1  0  0  0  0
 13 11  1  0  0  0  0
 14 16  1  0  0  0  0
 14 15  1  0  0  0  0
 15 13  2  0  0  0  0
 16 17  1  6  0  0  0
 16 12  1  0  0  0  0
 17 18  1  0  0  0  0
 19  1  1  0  0  0  0
 20 25  1  0  0  0  0
 20 21  1  0  0  0  0
 21 24  1  0  0  0  0
 23 19  1  0  0  0  0
 23 22  1  0  0  0  0
 24 22  1  0  0  0  0
 25 26  1  6  0  0  0
 25 23  1  0  0  0  0
 27 26  1  0  0  0  0
 28 29  1  0  0  0  0
 28 27  1  0  0  0  0
 30 31  1  0  0  0  0
 31 29  1  0  0  0  0
 31 33  1  0  0  0  0
 33 32  1  0  0  0  0
 33 34  1  0  0  0  0
 35 33  2  0  0  0  0
M  END
>  <MODEL>
6

>  <REMARK>
 VINA RESULT:      -6.1      4.604      8.144
  Name = 
  13 active torsions:
  status: ('A' for Active; 'I' for Inactive)
    1  A    between atoms: C_2  and  C_12
    2  A    between atoms: C_2  and  C_22
    3  A    between atoms: S_6  and  C_22
    4  A    between atoms: S_6  and  C_28
    5  A    between atoms: C_9  and  C_34
    6  A    between atoms: C_10  and  N_23
    7  A    between atoms: C_10  and  C_35
    8  A    between atoms: C_12  and  N_21
    9  A    between atoms: C_13  and  C_14
   10  A    between atoms: C_14  and  C_17
   11  A    between atoms: P_15  and  N_21
   12  A    between atoms: C_17  and  C_32
   13  A    between atoms: C_20  and  C_35
                            x       y       z     vdW  Elec       q    Type
                         _______ _______ _______ _____ _____    ______ ____

>  <TORSDO>
F 13

$$$$
=
 OpenBabel11052409273D

 35 37  0  0  1  0  0  0  0  0999 V2000
  162.2520  208.9070  150.7240 C   0  0  0  0  0  2  0  0  0  0  0  0
  161.6850  212.9030  148.0060 F   0  0  0  0  0  0  0  0  0  0  0  0
  160.7150  212.8380  150.1450 N   0  0  0  0  0  0  0  0  0  0  0  0
  160.4570  212.2140  151.3250 C   0  0  0  0  0  0  0  0  0  0  0  0
  161.7120  210.2910  150.5530 C   0  0  0  0  0  0  0  0  0  0  0  0
  159.6830  212.8860  152.3160 N   0  0  0  0  0  1  0  0  0  0  0  0
  161.4490  212.2450  149.1660 C   0  0  0  0  0  0  0  0  0  0  0  0
  161.9590  210.9610  149.3540 C   0  0  0  0  0  3  0  0  0  0  0  0
  160.9550  210.9200  151.5620 C   0  0  0  0  0  0  0  0  0  0  0  0
  160.6920  210.2350  152.8690 C   0  0  0  0  0  2  0  0  0  0  0  0
  161.6740  210.7080  153.9240 C   0  0  0  0  0  2  0  0  0  0  0  0
  161.2560  208.4300  154.9580 O   0  0  0  0  0  0  0  0  0  0  0  0
  161.6800  209.7460  155.0590 C   0  0  0  0  0  0  0  0  0  0  0  0
  161.9630  208.9110  157.0440 N   0  0  0  0  0  2  0  0  0  0  0  0
  162.0900  210.0470  156.2390 N   0  0  0  0  0  0  0  0  0  0  0  0
  161.4300  207.8250  156.2300 C   0  0  1  0  0  3  0  0  0  0  0  0
  160.0840  207.3800  156.7730 C   0  0  0  0  0  2  0  0  0  0  0  0
  159.2720  206.9460  155.7260 O   0  0  0  0  0  1  0  0  0  0  0  0
  161.3090  207.8880  150.1090 C   0  0  0  0  0  2  0  0  0  0  0  0
  160.4610  204.3760  151.2160 C   0  0  0  0  0  2  0  0  0  0  0  0
  160.9990  204.6400  152.6240 C   0  0  0  0  0  2  0  0  0  0  0  0
  162.4640  206.4570  151.6020 C   0  0  0  0  0  2  0  0  0  0  0  0
  161.1570  206.7560  151.0110 N   0  0  0  0  0  0  0  0  0  0  0  0
  162.3940  205.2630  152.5660 C   0  0  0  0  0  2  0  0  0  0  0  0
  160.6380  205.5830  150.2820 C   0  0  1  0  0  3  0  0  0  0  0  0
  161.6910  205.0990  148.8620 S   0  0  0  0  0  0  0  0  0  0  0  0
  161.0960  203.3860  148.9180 C   0  0  0  0  0  2  0  0  0  0  0  0
  161.1930  202.7730  147.5360 C   0  0  0  0  0  2  0  0  0  0  0  0
  162.1850  203.5500  146.6880 C   0  0  0  0  0  2  0  0  0  0  0  0
  160.4380  202.9390  145.2590 C   0  0  0  0  0  1  0  0  0  0  0  0
  161.7340  203.5940  145.3060 N   0  0  0  0  0  0  0  0  0  0  0  0
  159.9630  205.7790  145.4240 O   0  0  0  0  0  1  0  0  0  0  0  0
  161.4860  205.2800  144.8830 P   0  0  0  0  0  0  0  0  0  0  0  0
  161.5660  205.4650  143.3830 O   0  0  0  0  0  0  0  0  0  0  0  0
  162.6730  206.2270  145.6260 O   0  0  0  0  0  1  0  0  0  0  0  0
  2  7  1  0  0  0  0
  3  4  1  0  0  0  0
  4  9  2  0  0  0  0
  4  6  1  0  0  0  0
  5  1  1  0  0  0  0
  5  9  1  0  0  0  0
  7  8  1  0  0  0  0
  7  3  2  0  0  0  0
  8  5  2  0  0  0  0
  9 10  1  0  0  0  0
 10 11  1  0  0  0  0
 11 13  1  0  0  0  0
 12 13  1  0  0  0  0
 12 16  1  0  0  0  0
 13 15  2  0  0  0  0
 15 14  1  0  0  0  0
 16 17  1  1  0  0  0
 16 14  1  0  0  0  0
 18 17  1  0  0  0  0
 19  1  1  0  0  0  0
 19 23  1  0  0  0  0
 20 21  1  0  0  0  0
 22 24  1  0  0  0  0
 23 22  1  0  0  0  0
 24 21  1  0  0  0  0
 25 26  1  6  0  0  0
 25 23  1  0  0  0  0
 25 20  1  0  0  0  0
 26 27  1  0  0  0  0
 28 27  1  0  0  0  0
 29 28  1  0  0  0  0
 30 31  1  0  0  0  0
 31 29  1  0  0  0  0
 33 31  1  0  0  0  0
 33 32  1  0  0  0  0
 33 35  1  0  0  0  0
 34 33  2  0  0  0  0
M  END
>  <MODEL>
7

>  <REMARK>
 VINA RESULT:      -6.0      4.368      8.943
  Name = 
  13 active torsions:
  status: ('A' for Active; 'I' for Inactive)
    1  A    between atoms: C_2  and  C_12
    2  A    between atoms: C_2  and  C_22
    3  A    between atoms: S_6  and  C_22
    4  A    between atoms: S_6  and  C_28
    5  A    between atoms: C_9  and  C_34
    6  A    between atoms: C_10  and  N_23
    7  A    between atoms: C_10  and  C_35
    8  A    between atoms: C_12  and  N_21
    9  A    between atoms: C_13  and  C_14
   10  A    between atoms: C_14  and  C_17
   11  A    between atoms: P_15  and  N_21
   12  A    between atoms: C_17  and  C_32
   13  A    between atoms: C_20  and  C_35
                            x       y       z     vdW  Elec       q    Type
                         _______ _______ _______ _____ _____    ______ ____

>  <TORSDO>
F 13

$$$$
=
 OpenBabel11052409273D

 35 37  0  0  1  0  0  0  0  0999 V2000
  162.3110  205.7500  148.3010 C   0  0  0  0  0  2  0  0  0  0  0  0
  160.9610  206.2450  143.6530 F   0  0  0  0  0  0  0  0  0  0  0  0
  160.9190  204.1070  144.6250 N   0  0  0  0  0  0  0  0  0  0  0  0
  161.1020  203.2650  145.6780 C   0  0  0  0  0  0  0  0  0  0  0  0
  161.8090  205.1500  147.0270 C   0  0  0  0  0  0  0  0  0  0  0  0
  160.8310  201.8760  145.5150 N   0  0  0  0  0  1  0  0  0  0  0  0
  161.1590  205.4420  144.7250 C   0  0  0  0  0  0  0  0  0  0  0  0
  161.6090  205.9850  145.9280 C   0  0  0  0  0  3  0  0  0  0  0  0
  161.5500  203.7680  146.9120 C   0  0  0  0  0  0  0  0  0  0  0  0
  161.7340  202.8490  148.0820 C   0  0  0  0  0  2  0  0  0  0  0  0
  160.4450  202.7310  148.8730 C   0  0  0  0  0  2  0  0  0  0  0  0
  160.4570  204.2710  150.8890 O   0  0  0  0  0  0  0  0  0  0  0  0
  160.7140  203.0410  150.3030 C   0  0  0  0  0  0  0  0  0  0  0  0
  161.3140  202.8120  152.3790 N   0  0  0  0  0  2  0  0  0  0  0  0
  161.2020  202.1890  151.1310 N   0  0  0  0  0  0  0  0  0  0  0  0
  160.8200  204.1780  152.2580 C   0  0  1  0  0  3  0  0  0  0  0  0
  161.9350  205.1640  152.5590 C   0  0  0  0  0  2  0  0  0  0  0  0
  161.5470  206.0150  153.5930 O   0  0  0  0  0  1  0  0  0  0  0  0
  162.3950  207.2620  148.1800 C   0  0  0  0  0  2  0  0  0  0  0  0
  162.5390  209.9580  150.8230 C   0  0  0  0  0  2  0  0  0  0  0  0
  161.9910  209.0070  151.8890 C   0  0  0  0  0  2  0  0  0  0  0  0
  160.9290  207.6740  149.9940 C   0  0  0  0  0  2  0  0  0  0  0  0
  162.2960  207.8650  149.5010 N   0  0  0  0  0  0  0  0  0  0  0  0
  160.7360  208.2920  151.3870 C   0  0  0  0  0  2  0  0  0  0  0  0
  162.6280  209.3000  149.4370 C   0  0  1  0  0  3  0  0  0  0  0  0
  161.5750  210.2280  148.2590 S   0  0  0  0  0  0  0  0  0  0  0  0
  161.9590  211.8110  149.0580 C   0  0  0  0  0  2  0  0  0  0  0  0
  162.4610  212.7920  148.0190 C   0  0  0  0  0  2  0  0  0  0  0  0
  161.3760  213.8030  147.6870 C   0  0  0  0  0  2  0  0  0  0  0  0
  162.4660  213.3320  145.6720 C   0  0  0  0  0  1  0  0  0  0  0  0
  161.4490  214.1720  146.2820 N   0  0  0  0  0  0  0  0  0  0  0  0
  159.9170  214.2300  143.9210 O   0  0  0  0  0  0  0  0  0  0  0  0
  159.9110  213.7560  145.5440 P   0  0  0  0  0  0  0  0  0  0  0  0
  158.7760  214.4530  146.2620 O   0  0  0  0  0  1  0  0  0  0  0  0
  159.6810  212.0830  145.6290 O   0  0  0  0  0  1  0  0  0  0  0  0
  2  7  1  0  0  0  0
  3  7  2  0  0  0  0
  3  4  1  0  0  0  0
  4  9  2  0  0  0  0
  5  1  1  0  0  0  0
  6  4  1  0  0  0  0
  7  8  1  0  0  0  0
  8  5  2  0  0  0  0
  9  5  1  0  0  0  0
  9 10  1  0  0  0  0
 10 11  1  0  0  0  0
 11 13  1  0  0  0  0
 12 16  1  0  0  0  0
 13 12  1  0  0  0  0
 13 15  2  0  0  0  0
 15 14  1  0  0  0  0
 16 14  1  0  0  0  0
 16 17  1  6  0  0  0
 17 18  1  0  0  0  0
 19  1  1  0  0  0  0
 19 23  1  0  0  0  0
 20 21  1  0  0  0  0
 22 24  1  0  0  0  0
 23 22  1  0  0  0  0
 24 21  1  0  0  0  0
 25 26  1  6  0  0  0
 25 23  1  0  0  0  0
 25 20  1  0  0  0  0
 26 27  1  0  0  0  0
 28 27  1  0  0  0  0
 29 28  1  0  0  0  0
 30 31  1  0  0  0  0
 31 29  1  0  0  0  0
 32 33  2  0  0  0  0
 33 35  1  0  0  0  0
 33 34  1  0  0  0  0
 33 31  1  0  0  0  0
M  END
>  <MODEL>
8

>  <REMARK>
 VINA RESULT:      -5.9      4.905      7.599
  Name = 
  13 active torsions:
  status: ('A' for Active; 'I' for Inactive)
    1  A    between atoms: C_2  and  C_12
    2  A    between atoms: C_2  and  C_22
    3  A    between atoms: S_6  and  C_22
    4  A    between atoms: S_6  and  C_28
    5  A    between atoms: C_9  and  C_34
    6  A    between atoms: C_10  and  N_23
    7  A    between atoms: C_10  and  C_35
    8  A    between atoms: C_12  and  N_21
    9  A    between atoms: C_13  and  C_14
   10  A    between atoms: C_14  and  C_17
   11  A    between atoms: P_15  and  N_21
   12  A    between atoms: C_17  and  C_32
   13  A    between atoms: C_20  and  C_35
                            x       y       z     vdW  Elec       q    Type
                         _______ _______ _______ _____ _____    ______ ____

>  <TORSDO>
F 13

$$$$
=
 OpenBabel11052409273D

 35 37  0  0  1  0  0  0  0  0999 V2000
  159.7610  211.8530  153.6620 C   0  0  0  0  0  2  0  0  0  0  0  0
  155.6570  210.9560  156.1180 F   0  0  0  0  0  0  0  0  0  0  0  0
  155.6690  212.6750  154.5180 N   0  0  0  0  0  0  0  0  0  0  0  0
  156.2910  213.4250  153.5680 C   0  0  0  0  0  0  0  0  0  0  0  0
  158.3210  212.1540  153.9330 C   0  0  0  0  0  0  0  0  0  0  0  0
  155.5620  214.4530  152.9030 N   0  0  0  0  0  1  0  0  0  0  0  0
  156.3150  211.6800  155.1820 C   0  0  0  0  0  0  0  0  0  0  0  0
  157.6520  211.4040  154.9000 C   0  0  0  0  0  3  0  0  0  0  0  0
  157.6380  213.1790  153.2470 C   0  0  0  0  0  0  0  0  0  0  0  0
  158.3230  213.9880  152.1870 C   0  0  0  0  0  2  0  0  0  0  0  0
  157.8810  213.5370  150.8070 C   0  0  0  0  0  2  0  0  0  0  0  0
  158.9630  213.8600  148.5360 O   0  0  0  0  0  0  0  0  0  0  0  0
  159.0490  213.5560  149.8850 C   0  0  0  0  0  0  0  0  0  0  0  0
  161.0880  213.4190  149.1480 N   0  0  0  0  0  2  0  0  0  0  0  0
  160.2510  213.3020  150.2620 N   0  0  0  0  0  0  0  0  0  0  0  0
  160.2750  213.7980  147.9970 C   0  0  1  0  0  3  0  0  0  0  0  0
  160.3410  212.7170  146.9340 C   0  0  0  0  0  2  0  0  0  0  0  0
  161.0480  211.6180  147.4200 O   0  0  0  0  0  1  0  0  0  0  0  0
  159.8890  210.6730  152.7150 C   0  0  0  0  0  2  0  0  0  0  0  0
  160.8440  207.0730  153.3490 C   0  0  0  0  0  2  0  0  0  0  0  0
  160.8190  207.2840  154.8640 C   0  0  0  0  0  2  0  0  0  0  0  0
  161.2590  209.7540  154.4140 C   0  0  0  0  0  2  0  0  0  0  0  0
  160.1720  209.4650  153.4750 N   0  0  0  0  0  0  0  0  0  0  0  0
  161.6280  208.5220  155.2540 C   0  0  0  0  0  2  0  0  0  0  0  0
  160.5490  208.3640  152.5690 C   0  0  1  0  0  3  0  0  0  0  0  0
  161.9860  208.7700  151.5060 S   0  0  0  0  0  0  0  0  0  0  0  0
  162.0660  207.0800  150.8530 C   0  0  0  0  0  2  0  0  0  0  0  0
  161.0530  206.9200  149.7380 C   0  0  0  0  0  2  0  0  0  0  0  0
  161.7560  206.5520  148.4420 C   0  0  0  0  0  2  0  0  0  0  0  0
  160.5340  206.6030  146.4500 C   0  0  0  0  0  1  0  0  0  0  0  0
  160.8670  205.7720  147.5950 N   0  0  0  0  0  0  0  0  0  0  0  0
  161.6290  203.1060  148.0830 O   0  0  0  0  0  1  0  0  0  0  0  0
  161.7790  204.3950  146.9980 P   0  0  0  0  0  0  0  0  0  0  0  0
  163.2410  204.7550  146.8510 O   0  0  0  0  0  1  0  0  0  0  0  0
  161.1650  203.9240  145.4940 O   0  0  0  0  0  0  0  0  0  0  0  0
  1  5  1  0  0  0  0
  3  7  1  0  0  0  0
  4  3  2  0  0  0  0
  5  8  1  0  0  0  0
  6  4  1  0  0  0  0
  7  2  1  0  0  0  0
  8  7  2  0  0  0  0
  9  4  1  0  0  0  0
  9  5  2  0  0  0  0
 10  9  1  0  0  0  0
 11 10  1  0  0  0  0
 12 13  1  0  0  0  0
 13 15  2  0  0  0  0
 13 11  1  0  0  0  0
 14 15  1  0  0  0  0
 16 17  1  6  0  0  0
 16 12  1  0  0  0  0
 16 14  1  0  0  0  0
 17 18  1  0  0  0  0
 19 23  1  0  0  0  0
 19  1  1  0  0  0  0
 20 21  1  0  0  0  0
 21 24  1  0  0  0  0
 22 24  1  0  0  0  0
 23 22  1  0  0  0  0
 25 26  1  1  0  0  0
 25 20  1  0  0  0  0
 25 23  1  0  0  0  0
 27 26  1  0  0  0  0
 28 27  1  0  0  0  0
 29 28  1  0  0  0  0
 30 31  1  0  0  0  0
 31 29  1  0  0  0  0
 33 31  1  0  0  0  0
 33 32  1  0  0  0  0
 34 33  1  0  0  0  0
 35 33  2  0  0  0  0
M  END
>  <MODEL>
9

>  <REMARK>
 VINA RESULT:      -5.9      4.266      7.908
  Name = 
  13 active torsions:
  status: ('A' for Active; 'I' for Inactive)
    1  A    between atoms: C_2  and  C_12
    2  A    between atoms: C_2  and  C_22
    3  A    between atoms: S_6  and  C_22
    4  A    between atoms: S_6  and  C_28
    5  A    between atoms: C_9  and  C_34
    6  A    between atoms: C_10  and  N_23
    7  A    between atoms: C_10  and  C_35
    8  A    between atoms: C_12  and  N_21
    9  A    between atoms: C_13  and  C_14
   10  A    between atoms: C_14  and  C_17
   11  A    between atoms: P_15  and  N_21
   12  A    between atoms: C_17  and  C_32
   13  A    between atoms: C_20  and  C_35
                            x       y       z     vdW  Elec       q    Type
                         _______ _______ _______ _____ _____    ______ ____

>  <TORSDO>
F 13

$$$$
