=
 OpenBabel11042421093D

 28 30  0  0  1  0  0  0  0  0999 V2000
  160.7860  206.9640  154.3010 N   0  0  0  0  0  0  0  0  0  0  0  0
  161.3060  205.6040  152.6550 C   0  0  1  0  0  3  0  0  0  0  0  0
  161.6740  209.8470  150.9030 C   0  0  0  0  0  0  0  0  0  0  0  0
  161.3830  207.0090  152.1590 C   0  0  0  0  0  0  0  0  0  0  0  0
  160.7180  205.6530  153.9420 O   0  0  0  0  0  0  0  0  0  0  0  0
  161.7820  207.3350  150.8820 C   0  0  0  0  0  3  0  0  0  0  0  0
  160.9770  209.2210  153.2580 C   0  0  0  0  0  0  0  0  0  0  0  0
  161.8970  208.5980  150.3390 C   0  0  0  0  0  3  0  0  0  0  0  0
  161.8340  210.9020  150.0140 O   0  0  0  0  0  1  0  0  0  0  0  0
  160.5850  209.7140  154.3530 O   0  0  0  0  0  0  0  0  0  0  0  0
  161.2890  210.1430  152.2360 C   0  0  0  0  0  0  0  0  0  0  0  0
  161.0560  207.8190  153.1960 C   0  0  0  0  0  0  0  0  0  0  0  0
  161.1640  211.4920  152.6210 O   0  0  0  0  0  0  0  0  0  0  0  0
  159.9770  212.2630  152.4810 C   0  0  0  0  0  1  0  0  0  0  0  0
  160.0560  207.0710  156.6300 C   0  0  0  0  0  1  0  0  0  0  0  0
  161.1980  207.3050  155.6590 C   0  0  0  0  0  2  0  0  0  0  0  0
  160.4690  204.8020  151.7750 N   0  0  0  0  0  2  0  0  0  0  0  0
  160.6560  202.6850  149.0270 C   0  0  2  0  0  3  0  0  0  0  0  0
  161.3540  203.9650  150.9810 C   0  0  2  0  0  3  0  0  0  0  0  0
  160.9900  204.0820  149.5110 C   0  0  0  0  0  2  0  0  0  0  0  0
  161.2170  201.7380  150.0650 C   0  0  0  0  0  2  0  0  0  0  0  0
  161.1690  202.5090  151.3640 C   0  0  0  0  0  2  0  0  0  0  0  0
  161.2930  202.4370  147.6690 C   0  0  0  0  0  2  0  0  0  0  0  0
  161.8110  203.6800  147.1200 N   0  0  0  0  0  2  0  0  0  0  0  0
  161.4660  203.7010  145.7070 C   0  0  0  0  0  2  0  0  0  0  0  0
  162.4070  205.8520  146.0670 O   0  0  0  0  0  1  0  0  0  0  0  0
  161.7050  205.0860  145.1380 C   0  0  0  0  0  3  0  0  0  0  0  0
  160.4850  205.7000  144.8580 O   0  0  0  0  0  1  0  0  0  0  0  0
  1 16  1  0  0  0  0
  2 17  1  6  0  0  0
  2  5  1  0  0  0  0
  3 11  2  0  0  0  0
  4  2  1  0  0  0  0
  4 12  2  0  0  0  0
  5  1  1  0  0  0  0
  6  4  1  0  0  0  0
  7 10  2  0  0  0  0
  8  6  2  0  0  0  0
  8  3  1  0  0  0  0
  9  3  1  0  0  0  0
 11 13  1  0  0  0  0
 11  7  1  0  0  0  0
 12  7  1  0  0  0  0
 12  1  1  0  0  0  0
 14 13  1  0  0  0  0
 16 15  1  0  0  0  0
 18 23  1  6  0  0  0
 18 20  1  0  0  0  0
 18 21  1  0  0  0  0
 19 22  1  0  0  0  0
 19 17  1  1  0  0  0
 20 19  1  0  0  0  0
 21 22  1  0  0  0  0
 24 23  1  0  0  0  0
 25 24  1  0  0  0  0
 27 25  1  0  0  0  0
 27 26  1  0  0  0  0
 28 27  1  0  0  0  0
M  END
>  <MODEL>
1

>  <REMARK>
 VINA RESULT:      -7.7      0.000      0.000
  Name = 
  8 active torsions:
  status: ('A' for Active; 'I' for Inactive)
    1  A    between atoms: N_1  and  C_18
    2  A    between atoms: C_2  and  N_19
    3  A    between atoms: C_4  and  N_20
    4  A    between atoms: C_4  and  C_25
    5  A    between atoms: C_6  and  C_23
    6  A    between atoms: C_8  and  N_19
    7  A    between atoms: O_11  and  C_17
    8  A    between atoms: N_20  and  C_23
                            x       y       z     vdW  Elec       q    Type
                         _______ _______ _______ _____ _____    ______ ____

>  <TORSDO>
F 8

$$$$
=
 OpenBabel11042421093D

 28 30  0  0  1  0  0  0  0  0999 V2000
  162.1390  209.6070  149.5320 N   0  0  0  0  0  0  0  0  0  0  0  0
  161.6130  207.7210  148.5340 C   0  0  1  0  0  3  0  0  0  0  0  0
  161.0480  206.9270  153.0340 C   0  0  0  0  0  0  0  0  0  0  0  0
  161.4730  207.5400  150.0080 C   0  0  0  0  0  0  0  0  0  0  0  0
  162.2390  208.9740  148.3310 O   0  0  0  0  0  0  0  0  0  0  0  0
  161.0230  206.3710  150.5830 C   0  0  0  0  0  3  0  0  0  0  0  0
  161.8390  209.0760  151.9490 C   0  0  0  0  0  0  0  0  0  0  0  0
  160.8490  206.1150  151.9260 C   0  0  0  0  0  3  0  0  0  0  0  0
  160.8240  206.2890  154.2480 O   0  0  0  0  0  1  0  0  0  0  0  0
  162.2500  210.2420  152.2130 O   0  0  0  0  0  0  0  0  0  0  0  0
  161.4650  208.2830  153.0550 C   0  0  0  0  0  0  0  0  0  0  0  0
  161.8060  208.7180  150.5910 C   0  0  0  0  0  0  0  0  0  0  0  0
  161.5570  208.9440  154.2950 O   0  0  0  0  0  0  0  0  0  0  0  0
  160.4560  209.5250  154.9830 C   0  0  0  0  0  1  0  0  0  0  0  0
  162.3540  211.7450  148.3690 C   0  0  0  0  0  1  0  0  0  0  0  0
  161.7590  211.0160  149.5590 C   0  0  0  0  0  2  0  0  0  0  0  0
  162.4470  206.6700  147.9710 N   0  0  0  0  0  2  0  0  0  0  0  0
  162.0620  203.5680  146.4570 C   0  0  2  0  0  3  0  0  0  0  0  0
  161.6080  205.8790  147.0850 C   0  0  2  0  0  3  0  0  0  0  0  0
  161.5470  204.4450  147.5810 C   0  0  0  0  0  2  0  0  0  0  0  0
  162.0210  204.4220  145.2090 C   0  0  0  0  0  2  0  0  0  0  0  0
  162.2190  205.8380  145.6970 C   0  0  0  0  0  2  0  0  0  0  0  0
  161.1750  202.3430  146.3030 C   0  0  0  0  0  2  0  0  0  0  0  0
  160.4120  202.1160  147.5200 N   0  0  0  0  0  2  0  0  0  0  0  0
  161.1630  201.1660  148.3260 C   0  0  0  0  0  2  0  0  0  0  0  0
  159.2110  201.1950  149.6800 O   0  0  0  0  0  1  0  0  0  0  0  0
  160.6020  201.1280  149.7340 C   0  0  0  0  0  3  0  0  0  0  0  0
  161.0900  202.2090  150.4670 O   0  0  0  0  0  1  0  0  0  0  0  0
  1 16  1  0  0  0  0
  1 12  1  0  0  0  0
  2 17  1  1  0  0  0
  2  4  1  0  0  0  0
  3 11  2  0  0  0  0
  3  9  1  0  0  0  0
  4  6  1  0  0  0  0
  4 12  2  0  0  0  0
  5  2  1  0  0  0  0
  5  1  1  0  0  0  0
  6  8  2  0  0  0  0
  7 10  2  0  0  0  0
  7 11  1  0  0  0  0
  8  3  1  0  0  0  0
 11 13  1  0  0  0  0
 12  7  1  0  0  0  0
 13 14  1  0  0  0  0
 15 16  1  0  0  0  0
 18 23  1  6  0  0  0
 18 20  1  0  0  0  0
 19 20  1  0  0  0  0
 19 17  1  1  0  0  0
 21 22  1  0  0  0  0
 21 18  1  0  0  0  0
 22 19  1  0  0  0  0
 23 24  1  0  0  0  0
 24 25  1  0  0  0  0
 25 27  1  0  0  0  0
 26 27  1  0  0  0  0
 27 28  1  0  0  0  0
M  END
>  <MODEL>
2

>  <REMARK>
 VINA RESULT:      -7.6      2.439      4.771
  Name = 
  8 active torsions:
  status: ('A' for Active; 'I' for Inactive)
    1  A    between atoms: N_1  and  C_18
    2  A    between atoms: C_2  and  N_19
    3  A    between atoms: C_4  and  N_20
    4  A    between atoms: C_4  and  C_25
    5  A    between atoms: C_6  and  C_23
    6  A    between atoms: C_8  and  N_19
    7  A    between atoms: O_11  and  C_17
    8  A    between atoms: N_20  and  C_23
                            x       y       z     vdW  Elec       q    Type
                         _______ _______ _______ _____ _____    ______ ____

>  <TORSDO>
F 8

$$$$
=
 OpenBabel11042421093D

 28 30  0  0  1  0  0  0  0  0999 V2000
  161.7390  205.6600  146.9670 N   0  0  0  0  0  0  0  0  0  0  0  0
  161.8820  206.6030  148.9480 C   0  0  1  0  0  3  0  0  0  0  0  0
  160.7810  202.2050  149.7580 C   0  0  0  0  0  0  0  0  0  0  0  0
  161.5070  205.1690  149.1240 C   0  0  0  0  0  0  0  0  0  0  0  0
  161.7980  206.8830  147.5630 O   0  0  0  0  0  0  0  0  0  0  0  0
  161.3500  204.5790  150.3590 C   0  0  0  0  0  3  0  0  0  0  0  0
  161.1100  203.3070  147.5000 C   0  0  0  0  0  0  0  0  0  0  0  0
  161.0200  203.2660  150.6210 C   0  0  0  0  0  3  0  0  0  0  0  0
  160.4070  201.0310  150.4000 O   0  0  0  0  0  1  0  0  0  0  0  0
  161.0510  203.0860  146.2580 O   0  0  0  0  0  0  0  0  0  0  0  0
  160.8520  202.2030  148.3410 C   0  0  0  0  0  0  0  0  0  0  0  0
  161.4260  204.6200  147.8870 C   0  0  0  0  0  0  0  0  0  0  0  0
  160.6190  200.9970  147.6530 O   0  0  0  0  0  0  0  0  0  0  0  0
  161.6210  200.0350  147.3490 C   0  0  0  0  0  1  0  0  0  0  0  0
  161.6980  205.6250  144.5250 C   0  0  0  0  0  1  0  0  0  0  0  0
  162.5390  205.4170  145.7710 C   0  0  0  0  0  2  0  0  0  0  0  0
  160.9540  207.4610  149.6690 N   0  0  0  0  0  2  0  0  0  0  0  0
  160.7190  209.5750  152.4150 C   0  0  2  0  0  3  0  0  0  0  0  0
  161.7020  208.1060  150.7360 C   0  0  2  0  0  3  0  0  0  0  0  0
  160.8710  208.1240  152.0070 C   0  0  0  0  0  2  0  0  0  0  0  0
  161.7770  210.3380  151.6480 C   0  0  0  0  0  2  0  0  0  0  0  0
  161.9770  209.5530  150.3720 C   0  0  0  0  0  2  0  0  0  0  0  0
  160.9270  209.7220  153.9130 C   0  0  0  0  0  2  0  0  0  0  0  0
  160.5260  208.5040  154.6000 N   0  0  0  0  0  2  0  0  0  0  0  0
  159.9410  208.9010  155.8700 C   0  0  0  0  0  2  0  0  0  0  0  0
  161.9560  208.0860  156.8280 O   0  0  0  0  0  1  0  0  0  0  0  0
  160.5730  208.1110  157.0000 C   0  0  0  0  0  3  0  0  0  0  0  0
  160.0820  206.8060  156.9960 O   0  0  0  0  0  1  0  0  0  0  0  0
  1  5  1  0  0  0  0
  1 12  1  0  0  0  0
  2  4  1  0  0  0  0
  2 17  1  1  0  0  0
  3  9  1  0  0  0  0
  3  8  1  0  0  0  0
  4  6  1  0  0  0  0
  5  2  1  0  0  0  0
  6  8  2  0  0  0  0
  7 12  1  0  0  0  0
  7 11  1  0  0  0  0
 10  7  2  0  0  0  0
 11  3  2  0  0  0  0
 12  4  2  0  0  0  0
 13 11  1  0  0  0  0
 14 13  1  0  0  0  0
 15 16  1  0  0  0  0
 16  1  1  0  0  0  0
 18 23  1  1  0  0  0
 19 17  1  6  0  0  0
 19 20  1  0  0  0  0
 20 18  1  0  0  0  0
 21 18  1  0  0  0  0
 22 19  1  0  0  0  0
 22 21  1  0  0  0  0
 23 24  1  0  0  0  0
 24 25  1  0  0  0  0
 25 27  1  0  0  0  0
 26 27  1  0  0  0  0
 28 27  1  0  0  0  0
M  END
>  <MODEL>
3

>  <REMARK>
 VINA RESULT:      -7.5      2.285      8.769
  Name = 
  8 active torsions:
  status: ('A' for Active; 'I' for Inactive)
    1  A    between atoms: N_1  and  C_18
    2  A    between atoms: C_2  and  N_19
    3  A    between atoms: C_4  and  N_20
    4  A    between atoms: C_4  and  C_25
    5  A    between atoms: C_6  and  C_23
    6  A    between atoms: C_8  and  N_19
    7  A    between atoms: O_11  and  C_17
    8  A    between atoms: N_20  and  C_23
                            x       y       z     vdW  Elec       q    Type
                         _______ _______ _______ _____ _____    ______ ____

>  <TORSDO>
F 8

$$$$
=
 OpenBabel11042421093D

 28 30  0  0  1  0  0  0  0  0999 V2000
  161.3340  204.5320  150.0380 N   0  0  0  0  0  0  0  0  0  0  0  0
  161.0110  206.6860  149.7460 C   0  0  1  0  0  3  0  0  0  0  0  0
  160.9760  204.8570  145.5200 C   0  0  0  0  0  0  0  0  0  0  0  0
  161.0320  206.0190  148.4120 C   0  0  0  0  0  0  0  0  0  0  0  0
  161.4210  205.7200  150.6960 O   0  0  0  0  0  0  0  0  0  0  0  0
  160.8160  206.6930  147.2300 C   0  0  0  0  0  3  0  0  0  0  0  0
  161.3340  203.6350  147.7120 C   0  0  0  0  0  0  0  0  0  0  0  0
  160.8030  206.1630  145.9570 C   0  0  0  0  0  3  0  0  0  0  0  0
  160.9600  204.7190  144.1380 O   0  0  0  0  0  1  0  0  0  0  0  0
  161.5860  202.4960  148.1950 O   0  0  0  0  0  0  0  0  0  0  0  0
  161.1840  203.6960  146.3090 C   0  0  0  0  0  0  0  0  0  0  0  0
  161.2340  204.6960  148.6280 C   0  0  0  0  0  0  0  0  0  0  0  0
  161.2860  202.4480  145.6650 O   0  0  0  0  0  0  0  0  0  0  0  0
  160.1760  201.6510  145.2710 C   0  0  0  0  0  1  0  0  0  0  0  0
  160.8440  203.5670  152.2280 C   0  0  0  0  0  1  0  0  0  0  0  0
  160.7500  203.3840  150.7240 C   0  0  0  0  0  2  0  0  0  0  0  0
  161.9410  207.8050  149.7670 N   0  0  0  0  0  2  0  0  0  0  0  0
  160.6030  209.3220  152.5910 C   0  0  2  0  0  3  0  0  0  0  0  0
  162.1840  208.1400  151.1620 C   0  0  2  0  0  3  0  0  0  0  0  0
  160.9020  207.9770  151.9590 C   0  0  0  0  0  2  0  0  0  0  0  0
  161.8880  210.1160  152.5100 C   0  0  0  0  0  2  0  0  0  0  0  0
  162.5920  209.5960  151.2790 C   0  0  0  0  0  2  0  0  0  0  0  0
  160.1740  209.1350  154.0380 C   0  0  0  0  0  2  0  0  0  0  0  0
  160.6670  207.8660  154.5510 N   0  0  0  0  0  2  0  0  0  0  0  0
  161.5160  208.1670  155.6920 C   0  0  0  0  0  2  0  0  0  0  0  0
  159.8200  206.9580  156.8350 O   0  0  0  0  0  1  0  0  0  0  0  0
  160.7290  208.0050  156.9780 C   0  0  0  0  0  3  0  0  0  0  0  0
  160.0380  209.1830  157.2600 O   0  0  0  0  0  1  0  0  0  0  0  0
  1  5  1  0  0  0  0
  1 16  1  0  0  0  0
  2 17  1  6  0  0  0
  2  5  1  0  0  0  0
  3  8  1  0  0  0  0
  3 11  2  0  0  0  0
  4 12  2  0  0  0  0
  4  2  1  0  0  0  0
  6  4  1  0  0  0  0
  7 10  2  0  0  0  0
  7 12  1  0  0  0  0
  8  6  2  0  0  0  0
  9  3  1  0  0  0  0
 11  7  1  0  0  0  0
 12  1  1  0  0  0  0
 13 11  1  0  0  0  0
 14 13  1  0  0  0  0
 16 15  1  0  0  0  0
 18 23  1  1  0  0  0
 19 17  1  6  0  0  0
 19 22  1  0  0  0  0
 19 20  1  0  0  0  0
 20 18  1  0  0  0  0
 21 18  1  0  0  0  0
 22 21  1  0  0  0  0
 23 24  1  0  0  0  0
 24 25  1  0  0  0  0
 25 27  1  0  0  0  0
 26 27  1  0  0  0  0
 27 28  1  0  0  0  0
M  END
>  <MODEL>
4

>  <REMARK>
 VINA RESULT:      -7.5      2.177      8.055
  Name = 
  8 active torsions:
  status: ('A' for Active; 'I' for Inactive)
    1  A    between atoms: N_1  and  C_18
    2  A    between atoms: C_2  and  N_19
    3  A    between atoms: C_4  and  N_20
    4  A    between atoms: C_4  and  C_25
    5  A    between atoms: C_6  and  C_23
    6  A    between atoms: C_8  and  N_19
    7  A    between atoms: O_11  and  C_17
    8  A    between atoms: N_20  and  C_23
                            x       y       z     vdW  Elec       q    Type
                         _______ _______ _______ _____ _____    ______ ____

>  <TORSDO>
F 8

$$$$
=
 OpenBabel11042421093D

 28 30  0  0  1  0  0  0  0  0999 V2000
  161.3660  204.1670  149.9300 N   0  0  0  0  0  0  0  0  0  0  0  0
  161.1930  206.3490  149.7300 C   0  0  1  0  0  3  0  0  0  0  0  0
  161.0280  204.7050  145.4310 C   0  0  0  0  0  0  0  0  0  0  0  0
  161.1670  205.7380  148.3680 C   0  0  0  0  0  0  0  0  0  0  0  0
  161.5350  205.3170  150.6370 O   0  0  0  0  0  0  0  0  0  0  0  0
  160.9980  206.4750  147.2170 C   0  0  0  0  0  3  0  0  0  0  0  0
  161.3020  203.3700  147.5680 C   0  0  0  0  0  0  0  0  0  0  0  0
  160.9470  206.0010  145.9230 C   0  0  0  0  0  3  0  0  0  0  0  0
  161.0020  204.6270  144.0440 O   0  0  0  0  0  1  0  0  0  0  0  0
  161.4740  202.1970  148.0030 O   0  0  0  0  0  0  0  0  0  0  0  0
  161.1550  203.5010  146.1700 C   0  0  0  0  0  0  0  0  0  0  0  0
  161.2770  204.3960  148.5280 C   0  0  0  0  0  0  0  0  0  0  0  0
  161.1700  202.2770  145.4740 O   0  0  0  0  0  0  0  0  0  0  0  0
  160.0060  201.5580  145.0820 C   0  0  0  0  0  1  0  0  0  0  0  0
  160.9960  203.0270  152.0580 C   0  0  0  0  0  1  0  0  0  0  0  0
  160.7030  203.0350  150.5700 C   0  0  0  0  0  2  0  0  0  0  0  0
  162.1990  207.3980  149.7940 N   0  0  0  0  0  2  0  0  0  0  0  0
  162.4400  210.8470  149.4600 C   0  0  2  0  0  3  0  0  0  0  0  0
  161.4970  208.6590  149.9750 C   0  0  2  0  0  3  0  0  0  0  0  0
  161.8380  209.6040  148.8360 C   0  0  0  0  0  2  0  0  0  0  0  0
  162.0700  210.8000  150.9260 C   0  0  0  0  0  2  0  0  0  0  0  0
  161.9610  209.3290  151.2540 C   0  0  0  0  0  2  0  0  0  0  0  0
  161.8690  212.0920  148.7990 C   0  0  0  0  0  2  0  0  0  0  0  0
  161.2440  211.7490  147.5310 N   0  0  0  0  0  2  0  0  0  0  0  0
  161.4800  212.8600  146.6230 C   0  0  0  0  0  2  0  0  0  0  0  0
  159.3040  213.8060  146.7440 O   0  0  0  0  0  1  0  0  0  0  0  0
  160.2040  213.1930  145.8740 C   0  0  0  0  0  3  0  0  0  0  0  0
  159.6350  212.0250  145.3660 O   0  0  0  0  0  1  0  0  0  0  0  0
  1 16  1  0  0  0  0
  1  5  1  0  0  0  0
  2 17  1  6  0  0  0
  2  5  1  0  0  0  0
  3  8  1  0  0  0  0
  3 11  2  0  0  0  0
  4 12  2  0  0  0  0
  4  2  1  0  0  0  0
  6  4  1  0  0  0  0
  7 10  2  0  0  0  0
  7 12  1  0  0  0  0
  8  6  2  0  0  0  0
  9  3  1  0  0  0  0
 11  7  1  0  0  0  0
 12  1  1  0  0  0  0
 13 11  1  0  0  0  0
 14 13  1  0  0  0  0
 16 15  1  0  0  0  0
 18 23  1  6  0  0  0
 18 21  1  0  0  0  0
 19 17  1  6  0  0  0
 19 22  1  0  0  0  0
 20 18  1  0  0  0  0
 20 19  1  0  0  0  0
 21 22  1  0  0  0  0
 24 23  1  0  0  0  0
 25 24  1  0  0  0  0
 27 25  1  0  0  0  0
 27 26  1  0  0  0  0
 28 27  1  0  0  0  0
M  END
>  <MODEL>
5

>  <REMARK>
 VINA RESULT:      -7.3      3.237      7.565
  Name = 
  8 active torsions:
  status: ('A' for Active; 'I' for Inactive)
    1  A    between atoms: N_1  and  C_18
    2  A    between atoms: C_2  and  N_19
    3  A    between atoms: C_4  and  N_20
    4  A    between atoms: C_4  and  C_25
    5  A    between atoms: C_6  and  C_23
    6  A    between atoms: C_8  and  N_19
    7  A    between atoms: O_11  and  C_17
    8  A    between atoms: N_20  and  C_23
                            x       y       z     vdW  Elec       q    Type
                         _______ _______ _______ _____ _____    ______ ____

>  <TORSDO>
F 8

$$$$
=
 OpenBabel11042421093D

 28 30  0  0  1  0  0  0  0  0999 V2000
  161.6620  205.5460  146.8550 N   0  0  0  0  0  0  0  0  0  0  0  0
  161.8630  206.5160  148.8170 C   0  0  1  0  0  3  0  0  0  0  0  0
  160.8130  202.1240  149.7200 C   0  0  0  0  0  0  0  0  0  0  0  0
  161.5010  205.0830  149.0240 C   0  0  0  0  0  0  0  0  0  0  0  0
  161.7330  206.7770  147.4320 O   0  0  0  0  0  0  0  0  0  0  0  0
  161.3880  204.5080  150.2710 C   0  0  0  0  0  3  0  0  0  0  0  0
  161.0640  203.1970  147.4380 C   0  0  0  0  0  0  0  0  0  0  0  0
  161.0740  203.1970  150.5610 C   0  0  0  0  0  3  0  0  0  0  0  0
  160.4670  200.9560  150.3890 O   0  0  0  0  0  1  0  0  0  0  0  0
  160.9670  202.9590  146.2010 O   0  0  0  0  0  0  0  0  0  0  0  0
  160.8390  202.1040  148.3020 C   0  0  0  0  0  0  0  0  0  0  0  0
  161.3850  204.5170  147.7980 C   0  0  0  0  0  0  0  0  0  0  0  0
  160.5910  200.8870  147.6370 O   0  0  0  0  0  0  0  0  0  0  0  0
  161.5870  199.9210  147.3250 C   0  0  0  0  0  1  0  0  0  0  0  0
  161.5340  205.4360  144.4180 C   0  0  0  0  0  1  0  0  0  0  0  0
  162.4250  205.2910  145.6370 C   0  0  0  0  0  2  0  0  0  0  0  0
  160.9530  207.3790  149.5560 N   0  0  0  0  0  2  0  0  0  0  0  0
  160.6850  209.1920  152.5070 C   0  0  2  0  0  3  0  0  0  0  0  0
  161.6900  207.9130  150.6910 C   0  0  2  0  0  3  0  0  0  0  0  0
  160.8500  207.7920  151.9500 C   0  0  0  0  0  2  0  0  0  0  0  0
  161.7440  210.0360  151.8320 C   0  0  0  0  0  2  0  0  0  0  0  0
  161.9580  209.3910  150.4830 C   0  0  0  0  0  2  0  0  0  0  0  0
  160.8820  209.1810  154.0140 C   0  0  0  0  0  2  0  0  0  0  0  0
  160.9350  210.5410  154.5260 N   0  0  0  0  0  2  0  0  0  0  0  0
  159.6770  210.7900  155.2110 C   0  0  0  0  0  2  0  0  0  0  0  0
  157.7160  211.5650  154.1160 O   0  0  0  0  0  1  0  0  0  0  0  0
  158.9680  211.9710  154.5770 C   0  0  0  0  0  3  0  0  0  0  0  0
  159.7200  212.4550  153.5070 O   0  0  0  0  0  1  0  0  0  0  0  0
  1  5  1  0  0  0  0
  1 12  1  0  0  0  0
  2  4  1  0  0  0  0
  2 17  1  1  0  0  0
  3  9  1  0  0  0  0
  3  8  1  0  0  0  0
  4  6  1  0  0  0  0
  5  2  1  0  0  0  0
  6  8  2  0  0  0  0
  7 12  1  0  0  0  0
  7 11  1  0  0  0  0
 10  7  2  0  0  0  0
 11  3  2  0  0  0  0
 12  4  2  0  0  0  0
 13 11  1  0  0  0  0
 14 13  1  0  0  0  0
 15 16  1  0  0  0  0
 16  1  1  0  0  0  0
 18 23  1  1  0  0  0
 19 17  1  6  0  0  0
 19 20  1  0  0  0  0
 20 18  1  0  0  0  0
 21 18  1  0  0  0  0
 22 19  1  0  0  0  0
 22 21  1  0  0  0  0
 23 24  1  0  0  0  0
 24 25  1  0  0  0  0
 26 27  1  0  0  0  0
 27 25  1  0  0  0  0
 28 27  1  0  0  0  0
M  END
>  <MODEL>
6

>  <REMARK>
 VINA RESULT:      -7.2      2.388      8.773
  Name = 
  8 active torsions:
  status: ('A' for Active; 'I' for Inactive)
    1  A    between atoms: N_1  and  C_18
    2  A    between atoms: C_2  and  N_19
    3  A    between atoms: C_4  and  N_20
    4  A    between atoms: C_4  and  C_25
    5  A    between atoms: C_6  and  C_23
    6  A    between atoms: C_8  and  N_19
    7  A    between atoms: O_11  and  C_17
    8  A    between atoms: N_20  and  C_23
                            x       y       z     vdW  Elec       q    Type
                         _______ _______ _______ _____ _____    ______ ____

>  <TORSDO>
F 8

$$$$
=
 OpenBabel11042421093D

 28 30  0  0  1  0  0  0  0  0999 V2000
  161.1300  205.6690  151.5260 N   0  0  0  0  0  0  0  0  0  0  0  0
  161.9320  206.7690  149.8000 C   0  0  1  0  0  3  0  0  0  0  0  0
  161.5850  209.8750  153.1820 C   0  0  0  0  0  0  0  0  0  0  0  0
  161.7700  207.7170  150.9410 C   0  0  0  0  0  0  0  0  0  0  0  0
  161.3080  205.5560  150.1810 O   0  0  0  0  0  0  0  0  0  0  0  0
  162.1410  209.0420  150.8760 C   0  0  0  0  0  3  0  0  0  0  0  0
  160.9450  207.4250  153.2850 C   0  0  0  0  0  0  0  0  0  0  0  0
  162.0440  209.9860  151.8760 C   0  0  0  0  0  3  0  0  0  0  0  0
  161.5800  211.0760  153.8800 O   0  0  0  0  0  1  0  0  0  0  0  0
  160.4390  206.5520  154.0450 O   0  0  0  0  0  0  0  0  0  0  0  0
  161.1160  208.7110  153.8430 C   0  0  0  0  0  0  0  0  0  0  0  0
  161.2740  207.0080  151.9850 C   0  0  0  0  0  0  0  0  0  0  0  0
  160.7400  208.8060  155.1960 O   0  0  0  0  0  0  0  0  0  0  0  0
  161.5810  208.4670  156.2930 C   0  0  0  0  0  1  0  0  0  0  0  0
  161.2050  203.2290  151.6220 C   0  0  0  0  0  1  0  0  0  0  0  0
  161.4350  204.5250  152.3770 C   0  0  0  0  0  2  0  0  0  0  0  0
  161.2780  207.2930  148.6110 N   0  0  0  0  0  2  0  0  0  0  0  0
  162.1070  204.8440  146.2910 C   0  0  2  0  0  3  0  0  0  0  0  0
  160.7760  206.1550  147.8560 C   0  0  2  0  0  3  0  0  0  0  0  0
  161.8500  205.0860  147.7650 C   0  0  0  0  0  2  0  0  0  0  0  0
  160.9260  205.4420  145.5580 C   0  0  0  0  0  2  0  0  0  0  0  0
  160.4560  206.5780  146.4350 C   0  0  0  0  0  2  0  0  0  0  0  0
  162.2130  203.3530  146.0170 C   0  0  0  0  0  2  0  0  0  0  0  0
  160.9180  202.8170  145.6300 N   0  0  0  0  0  2  0  0  0  0  0  0
  160.8310  201.4710  146.1740 C   0  0  0  0  0  2  0  0  0  0  0  0
  161.5820  200.2070  148.0400 O   0  0  0  0  0  1  0  0  0  0  0  0
  161.1920  201.4860  147.6470 C   0  0  0  0  0  3  0  0  0  0  0  0
  160.0880  201.8850  148.4000 O   0  0  0  0  0  1  0  0  0  0  0  0
  1 12  1  0  0  0  0
  1 16  1  0  0  0  0
  2 17  1  6  0  0  0
  2  5  1  0  0  0  0
  2  4  1  0  0  0  0
  3 11  2  0  0  0  0
  3  9  1  0  0  0  0
  4 12  2  0  0  0  0
  5  1  1  0  0  0  0
  6  4  1  0  0  0  0
  6  8  2  0  0  0  0
  7 11  1  0  0  0  0
  7 10  2  0  0  0  0
  8  3  1  0  0  0  0
 11 13  1  0  0  0  0
 12  7  1  0  0  0  0
 13 14  1  0  0  0  0
 15 16  1  0  0  0  0
 18 23  1  1  0  0  0
 18 20  1  0  0  0  0
 19 17  1  1  0  0  0
 20 19  1  0  0  0  0
 21 18  1  0  0  0  0
 21 22  1  0  0  0  0
 22 19  1  0  0  0  0
 24 23  1  0  0  0  0
 24 25  1  0  0  0  0
 25 27  1  0  0  0  0
 27 26  1  0  0  0  0
 27 28  1  0  0  0  0
M  END
>  <MODEL>
7

>  <REMARK>
 VINA RESULT:      -7.2      2.201      3.837
  Name = 
  8 active torsions:
  status: ('A' for Active; 'I' for Inactive)
    1  A    between atoms: N_1  and  C_18
    2  A    between atoms: C_2  and  N_19
    3  A    between atoms: C_4  and  N_20
    4  A    between atoms: C_4  and  C_25
    5  A    between atoms: C_6  and  C_23
    6  A    between atoms: C_8  and  N_19
    7  A    between atoms: O_11  and  C_17
    8  A    between atoms: N_20  and  C_23
                            x       y       z     vdW  Elec       q    Type
                         _______ _______ _______ _____ _____    ______ ____

>  <TORSDO>
F 8

$$$$
=
 OpenBabel11042421093D

 28 30  0  0  1  0  0  0  0  0999 V2000
  160.7270  207.9510  154.8350 N   0  0  0  0  0  0  0  0  0  0  0  0
  161.3270  207.7780  152.7270 C   0  0  1  0  0  3  0  0  0  0  0  0
  159.8410  212.1080  153.2300 C   0  0  0  0  0  0  0  0  0  0  0  0
  160.8110  209.1570  152.9680 C   0  0  0  0  0  0  0  0  0  0  0  0
  161.0410  207.0220  153.8900 O   0  0  0  0  0  0  0  0  0  0  0  0
  160.7980  210.1360  151.9990 C   0  0  0  0  0  3  0  0  0  0  0  0
  159.9100  210.3000  155.0040 C   0  0  0  0  0  0  0  0  0  0  0  0
  160.3570  211.4360  152.1300 C   0  0  0  0  0  3  0  0  0  0  0  0
  159.4400  213.4100  152.9560 O   0  0  0  0  0  1  0  0  0  0  0  0
  159.6100  210.0650  156.2090 O   0  0  0  0  0  0  0  0  0  0  0  0
  159.6660  211.6130  154.5480 C   0  0  0  0  0  0  0  0  0  0  0  0
  160.4500  209.2290  154.2730 C   0  0  0  0  0  0  0  0  0  0  0  0
  159.1680  212.4830  155.5370 O   0  0  0  0  0  0  0  0  0  0  0  0
  159.9740  213.3310  156.3450 C   0  0  0  0  0  1  0  0  0  0  0  0
  160.3520  206.9400  157.0270 C   0  0  0  0  0  1  0  0  0  0  0  0
  161.2710  207.8010  156.1800 C   0  0  0  0  0  2  0  0  0  0  0  0
  160.6520  207.1780  151.5860 N   0  0  0  0  0  2  0  0  0  0  0  0
  160.8600  204.5080  149.3740 C   0  0  2  0  0  3  0  0  0  0  0  0
  161.5140  206.1200  151.0810 C   0  0  2  0  0  3  0  0  0  0  0  0
  161.2900  205.9450  149.5900 C   0  0  0  0  0  2  0  0  0  0  0  0
  161.2320  203.7670  150.6400 C   0  0  0  0  0  2  0  0  0  0  0  0
  161.1500  204.8020  151.7370 C   0  0  0  0  0  2  0  0  0  0  0  0
  161.5820  203.9210  148.1730 C   0  0  0  0  0  2  0  0  0  0  0  0
  162.0500  204.9830  147.2960 N   0  0  0  0  0  2  0  0  0  0  0  0
  162.0290  204.4600  145.9400 C   0  0  0  0  0  2  0  0  0  0  0  0
  161.2920  205.3450  143.8620 O   0  0  0  0  0  1  0  0  0  0  0  0
  160.8790  205.0770  145.1670 C   0  0  0  0  0  3  0  0  0  0  0  0
  160.4800  206.2650  145.7800 O   0  0  0  0  0  1  0  0  0  0  0  0
  1 16  1  0  0  0  0
  2 17  1  6  0  0  0
  2  4  1  0  0  0  0
  2  5  1  0  0  0  0
  3 11  2  0  0  0  0
  4 12  2  0  0  0  0
  5  1  1  0  0  0  0
  6  8  2  0  0  0  0
  6  4  1  0  0  0  0
  7 10  2  0  0  0  0
  8  3  1  0  0  0  0
  9  3  1  0  0  0  0
 11  7  1  0  0  0  0
 11 13  1  0  0  0  0
 12  1  1  0  0  0  0
 12  7  1  0  0  0  0
 13 14  1  0  0  0  0
 16 15  1  0  0  0  0
 18 23  1  6  0  0  0
 18 20  1  0  0  0  0
 18 21  1  0  0  0  0
 19 17  1  1  0  0  0
 19 22  1  0  0  0  0
 20 19  1  0  0  0  0
 21 22  1  0  0  0  0
 24 23  1  0  0  0  0
 25 24  1  0  0  0  0
 26 27  1  0  0  0  0
 27 28  1  0  0  0  0
 27 25  1  0  0  0  0
M  END
>  <MODEL>
8

>  <REMARK>
 VINA RESULT:      -7.1      1.661      2.438
  Name = 
  8 active torsions:
  status: ('A' for Active; 'I' for Inactive)
    1  A    between atoms: N_1  and  C_18
    2  A    between atoms: C_2  and  N_19
    3  A    between atoms: C_4  and  N_20
    4  A    between atoms: C_4  and  C_25
    5  A    between atoms: C_6  and  C_23
    6  A    between atoms: C_8  and  N_19
    7  A    between atoms: O_11  and  C_17
    8  A    between atoms: N_20  and  C_23
                            x       y       z     vdW  Elec       q    Type
                         _______ _______ _______ _____ _____    ______ ____

>  <TORSDO>
F 8

$$$$
=
 OpenBabel11042421093D

 28 30  0  0  1  0  0  0  0  0999 V2000
  161.2190  204.6360  150.0600 N   0  0  0  0  0  0  0  0  0  0  0  0
  160.9390  206.7890  149.7160 C   0  0  1  0  0  3  0  0  0  0  0  0
  161.0160  204.8760  145.5280 C   0  0  0  0  0  0  0  0  0  0  0  0
  160.9950  206.0950  148.3960 C   0  0  0  0  0  0  0  0  0  0  0  0
  161.3020  205.8360  150.6980 O   0  0  0  0  0  0  0  0  0  0  0  0
  160.8280  206.7480  147.1950 C   0  0  0  0  0  3  0  0  0  0  0  0
  161.2830  203.6930  147.7530 C   0  0  0  0  0  0  0  0  0  0  0  0
  160.8490  206.1940  145.9330 C   0  0  0  0  0  3  0  0  0  0  0  0
  161.0440  204.7110  144.1490 O   0  0  0  0  0  1  0  0  0  0  0  0
  161.5010  202.5600  148.2670 O   0  0  0  0  0  0  0  0  0  0  0  0
  161.1800  203.7290  146.3460 C   0  0  0  0  0  0  0  0  0  0  0  0
  161.1690  204.7730  148.6450 C   0  0  0  0  0  0  0  0  0  0  0  0
  161.2840  202.4670  145.7290 O   0  0  0  0  0  0  0  0  0  0  0  0
  160.1760  201.6910  145.2880 C   0  0  0  0  0  1  0  0  0  0  0  0
  160.8450  203.6040  152.2430 C   0  0  0  0  0  1  0  0  0  0  0  0
  160.5950  203.5110  150.7490 C   0  0  0  0  0  2  0  0  0  0  0  0
  161.8850  207.8940  149.7460 N   0  0  0  0  0  2  0  0  0  0  0  0
  160.6520  209.5420  152.5450 C   0  0  2  0  0  3  0  0  0  0  0  0
  162.1370  208.2100  151.1440 C   0  0  2  0  0  3  0  0  0  0  0  0
  160.8330  208.1720  151.9210 C   0  0  0  0  0  2  0  0  0  0  0  0
  162.0080  210.2110  152.4820 C   0  0  0  0  0  2  0  0  0  0  0  0
  162.6790  209.6210  151.2640 C   0  0  0  0  0  2  0  0  0  0  0  0
  160.1850  209.4030  153.9840 C   0  0  0  0  0  2  0  0  0  0  0  0
  159.9610  210.7140  154.5720 N   0  0  0  0  0  2  0  0  0  0  0  0
  158.8790  211.3380  153.8270 C   0  0  0  0  0  2  0  0  0  0  0  0
  157.3200  210.9480  155.5770 O   0  0  0  0  0  1  0  0  0  0  0  0
  157.8780  211.9520  154.7870 C   0  0  0  0  0  3  0  0  0  0  0  0
  156.8670  212.5930  154.0710 O   0  0  0  0  0  1  0  0  0  0  0  0
  1  5  1  0  0  0  0
  1 16  1  0  0  0  0
  2 17  1  6  0  0  0
  2  5  1  0  0  0  0
  3  8  1  0  0  0  0
  3 11  2  0  0  0  0
  4 12  2  0  0  0  0
  4  2  1  0  0  0  0
  6  4  1  0  0  0  0
  7 10  2  0  0  0  0
  7 12  1  0  0  0  0
  8  6  2  0  0  0  0
  9  3  1  0  0  0  0
 11  7  1  0  0  0  0
 12  1  1  0  0  0  0
 13 11  1  0  0  0  0
 14 13  1  0  0  0  0
 16 15  1  0  0  0  0
 18 23  1  1  0  0  0
 19 17  1  6  0  0  0
 19 22  1  0  0  0  0
 19 20  1  0  0  0  0
 20 18  1  0  0  0  0
 21 18  1  0  0  0  0
 22 21  1  0  0  0  0
 23 24  1  0  0  0  0
 25 24  1  0  0  0  0
 25 27  1  0  0  0  0
 27 26  1  0  0  0  0
 28 27  1  0  0  0  0
M  END
>  <MODEL>
9

>  <REMARK>
 VINA RESULT:      -7.1      2.399      8.165
  Name = 
  8 active torsions:
  status: ('A' for Active; 'I' for Inactive)
    1  A    between atoms: N_1  and  C_18
    2  A    between atoms: C_2  and  N_19
    3  A    between atoms: C_4  and  N_20
    4  A    between atoms: C_4  and  C_25
    5  A    between atoms: C_6  and  C_23
    6  A    between atoms: C_8  and  N_19
    7  A    between atoms: O_11  and  C_17
    8  A    between atoms: N_20  and  C_23
                            x       y       z     vdW  Elec       q    Type
                         _______ _______ _______ _____ _____    ______ ____

>  <TORSDO>
F 8

$$$$
