=
 OpenBabel11042422283D

 34 38  0  0  1  0  0  0  0  0999 V2000
  161.2270  202.9960  148.3970 N   0  0  0  0  0  0  0  0  0  0  0  0
  161.1660  206.5860  148.4250 C   0  0  0  0  0  3  0  0  0  0  0  0
  160.9660  204.7490  146.4470 S   0  0  0  0  0  0  0  0  0  0  0  0
  161.2310  206.7050  151.0000 C   0  0  0  0  0  0  0  0  0  0  0  0
  161.1860  203.0960  147.1110 C   0  0  0  0  0  0  0  0  0  0  0  0
  161.4040  207.5360  152.1460 C   0  0  0  0  0  0  0  0  0  0  0  0
  161.3580  207.2880  149.7100 C   0  0  0  0  0  0  0  0  0  0  0  0
  161.7070  208.9080  152.0100 C   0  0  0  0  0  0  0  0  0  0  0  0
  162.0960  210.6910  150.3850 N   0  0  0  0  0  0  0  0  0  0  0  0
  161.6470  208.6190  149.6450 N   0  0  0  0  0  0  0  0  0  0  0  0
  161.8120  209.3930  148.5550 C   0  0  0  0  0  3  0  0  0  0  0  0
  161.1430  204.2190  149.0640 N   0  0  0  0  0  0  0  0  0  0  0  0
  161.0380  205.2960  148.1460 C   0  0  0  0  0  0  0  0  0  0  0  0
  161.2680  206.9560  153.5260 C   0  0  0  0  0  1  0  0  0  0  0  0
  160.8960  205.2900  151.2620 C   0  0  0  0  0  3  0  0  0  0  0  0
  162.0880  210.6650  149.0330 C   0  0  0  0  0  0  0  0  0  0  0  0
  160.8660  204.2320  150.4600 C   0  0  0  0  0  3  0  0  0  0  0  0
  161.8200  209.4120  150.7140 C   0  0  0  0  0  0  0  0  0  0  0  0
  161.2660  201.8960  146.2370 C   0  0  0  0  0  1  0  0  0  0  0  0
  162.3340  211.8180  148.2170 N   0  0  0  0  0  0  0  0  0  0  0  0
  163.6950  212.2330  147.9240 C   0  0  0  0  0  1  0  0  0  0  0  0
  161.2370  212.6490  147.7480 C   0  0  0  0  0  2  0  0  0  0  0  0
  160.0650  213.8360  143.1370 C   0  0  2  0  0  3  0  0  0  0  0  0
  161.6740  213.4450  146.6120 N   0  0  0  0  0  2  0  0  0  0  0  0
  161.6220  214.3200  143.9490 S   0  0  0  0  0  0  0  0  0  0  0  0
  159.6240  212.4920  143.7290 C   0  0  1  0  0  3  0  0  0  0  0  0
  161.1070  213.2910  145.3110 C   0  0  0  0  0  0  0  0  0  0  0  0
  160.1720  211.4180  143.0220 O   0  0  0  0  0  1  0  0  0  0  0  0
  160.1340  212.4710  145.0870 N   0  0  0  0  0  0  0  0  0  0  0  0
  158.8640  213.8160  140.8540 C   0  0  0  0  0  1  0  0  0  0  0  0
  160.1300  213.8940  141.6340 C   0  0  0  0  0  0  0  0  0  0  0  0
  161.2760  214.1160  140.9880 C   0  0  0  0  0  2  0  0  0  0  0  0
  161.8900  209.7610  153.2050 C   0  0  0  0  0  3  0  0  0  0  0  0
  161.0150  210.5850  153.5830 O   0  0  0  0  0  0  0  0  0  0  0  0
  1 12  1  0  0  0  0
  2  7  1  0  0  0  0
  3  5  1  0  0  0  0
  3 13  1  0  0  0  0
  4 15  1  0  0  0  0
  4  6  1  0  0  0  0
  5  1  2  0  0  0  0
  6 14  1  0  0  0  0
  7  4  2  0  0  0  0
  8  6  2  0  0  0  0
  8 33  1  0  0  0  0
  9 18  2  0  0  0  0
 10  7  1  0  0  0  0
 10 18  1  0  0  0  0
 11 16  2  0  0  0  0
 11 10  1  0  0  0  0
 12 17  1  0  0  0  0
 13  2  2  0  0  0  0
 13 12  1  0  0  0  0
 16  9  1  0  0  0  0
 17 15  2  0  0  0  0
 18  8  1  0  0  0  0
 19  5  1  0  0  0  0
 20 16  1  0  0  0  0
 21 20  1  0  0  0  0
 22 20  1  0  0  0  0
 23 31  1  6  0  0  0
 23 26  1  0  0  0  0
 23 25  1  0  0  0  0
 24 22  1  0  0  0  0
 25 27  1  0  0  0  0
 26 28  1  6  0  0  0
 26 29  1  0  0  0  0
 27 24  1  0  0  0  0
 29 27  2  0  0  0  0
 30 31  1  0  0  0  0
 32 31  2  0  0  0  0
 33 34  2  0  0  0  0
M  END
>  <MODEL>
1

>  <REMARK>
 VINA RESULT:      -8.4      0.000      0.000
  Name = 
  5 active torsions:
  status: ('A' for Active; 'I' for Inactive)
    1  A    between atoms: N_2  and  C_5
    2  A    between atoms: N_2  and  C_28
    3  A    between atoms: C_5  and  N_8
    4  A    between atoms: C_7  and  C_14
    5  A    between atoms: C_13  and  C_15
                            x       y       z     vdW  Elec       q    Type
                         _______ _______ _______ _____ _____    ______ ____

>  <TORSDO>
F 5

$$$$
=
 OpenBabel11042422283D

 34 38  0  0  1  0  0  0  0  0999 V2000
  160.9300  203.2560  148.6490 N   0  0  0  0  0  0  0  0  0  0  0  0
  161.3040  205.3280  151.5580 C   0  0  0  0  0  3  0  0  0  0  0  0
  161.0630  202.6540  151.2110 S   0  0  0  0  0  0  0  0  0  0  0  0
  161.6130  207.4730  150.1610 C   0  0  0  0  0  0  0  0  0  0  0  0
  160.7970  202.2750  149.4770 C   0  0  0  0  0  0  0  0  0  0  0  0
  161.6770  208.8970  150.1710 C   0  0  0  0  0  0  0  0  0  0  0  0
  161.3560  206.7930  151.3820 C   0  0  0  0  0  0  0  0  0  0  0  0
  161.4770  209.6260  151.3630 C   0  0  0  0  0  0  0  0  0  0  0  0
  161.0170  209.4080  153.7540 N   0  0  0  0  0  0  0  0  0  0  0  0
  161.1770  207.5520  152.5010 N   0  0  0  0  0  0  0  0  0  0  0  0
  160.9260  207.1490  153.7610 C   0  0  0  0  0  3  0  0  0  0  0  0
  161.2130  204.4790  149.2600 N   0  0  0  0  0  0  0  0  0  0  0  0
  161.2790  204.3430  150.6700 C   0  0  0  0  0  0  0  0  0  0  0  0
  161.9560  209.6490  148.8990 C   0  0  0  0  0  1  0  0  0  0  0  0
  161.8590  206.8160  148.8600 C   0  0  0  0  0  3  0  0  0  0  0  0
  160.8310  208.3070  154.5160 C   0  0  0  0  0  0  0  0  0  0  0  0
  161.6850  205.5610  148.4640 C   0  0  0  0  0  3  0  0  0  0  0  0
  161.2250  208.8940  152.5240 C   0  0  0  0  0  0  0  0  0  0  0  0
  160.4920  200.8990  149.0050 C   0  0  0  0  0  1  0  0  0  0  0  0
  160.5720  208.3550  155.9260 N   0  0  0  0  0  0  0  0  0  0  0  0
  160.3810  207.1280  156.6790 C   0  0  0  0  0  1  0  0  0  0  0  0
  160.4010  209.6270  156.6120 C   0  0  0  0  0  2  0  0  0  0  0  0
  157.2810  212.5560  154.2180 C   0  0  2  0  0  3  0  0  0  0  0  0
  159.0040  210.0300  156.5570 N   0  0  0  0  0  2  0  0  0  0  0  0
  156.8420  211.5960  155.7030 S   0  0  0  0  0  0  0  0  0  0  0  0
  158.7670  212.9180  154.3150 C   0  0  1  0  0  3  0  0  0  0  0  0
  158.5680  211.1590  155.8000 C   0  0  0  0  0  0  0  0  0  0  0  0
  158.9550  214.1270  154.9900 O   0  0  0  0  0  1  0  0  0  0  0  0
  159.3860  211.8520  155.0800 N   0  0  0  0  0  0  0  0  0  0  0  0
  156.3670  214.3530  152.6090 C   0  0  0  0  0  1  0  0  0  0  0  0
  156.3470  213.7060  153.9500 C   0  0  0  0  0  0  0  0  0  0  0  0
  155.4340  214.0920  154.8430 C   0  0  0  0  0  2  0  0  0  0  0  0
  161.5390  211.1040  151.3630 C   0  0  0  0  0  3  0  0  0  0  0  0
  160.5040  211.8190  151.4210 O   0  0  0  0  0  0  0  0  0  0  0  0
  1 12  1  0  0  0  0
  1  5  2  0  0  0  0
  4  6  1  0  0  0  0
  4  7  2  0  0  0  0
  5  3  1  0  0  0  0
  6  8  2  0  0  0  0
  7  2  1  0  0  0  0
  7 10  1  0  0  0  0
  8 33  1  0  0  0  0
  8 18  1  0  0  0  0
  9 16  1  0  0  0  0
 10 18  1  0  0  0  0
 10 11  1  0  0  0  0
 11 16  2  0  0  0  0
 12 13  1  0  0  0  0
 13  3  1  0  0  0  0
 13  2  2  0  0  0  0
 14  6  1  0  0  0  0
 15  4  1  0  0  0  0
 16 20  1  0  0  0  0
 17 15  2  0  0  0  0
 17 12  1  0  0  0  0
 18  9  2  0  0  0  0
 19  5  1  0  0  0  0
 20 22  1  0  0  0  0
 20 21  1  0  0  0  0
 23 31  1  1  0  0  0
 23 26  1  0  0  0  0
 23 25  1  0  0  0  0
 24 22  1  0  0  0  0
 25 27  1  0  0  0  0
 26 28  1  1  0  0  0
 26 29  1  0  0  0  0
 27 24  1  0  0  0  0
 29 27  2  0  0  0  0
 30 31  1  0  0  0  0
 31 32  2  0  0  0  0
 33 34  2  0  0  0  0
M  END
>  <MODEL>
2

>  <REMARK>
 VINA RESULT:      -7.9      5.138      7.565
  Name = 
  5 active torsions:
  status: ('A' for Active; 'I' for Inactive)
    1  A    between atoms: N_2  and  C_5
    2  A    between atoms: N_2  and  C_28
    3  A    between atoms: C_5  and  N_8
    4  A    between atoms: C_7  and  C_14
    5  A    between atoms: C_13  and  C_15
                            x       y       z     vdW  Elec       q    Type
                         _______ _______ _______ _____ _____    ______ ____

>  <TORSDO>
F 5

$$$$
=
 OpenBabel11042422283D

 34 38  0  0  1  0  0  0  0  0999 V2000
  160.8560  203.0500  148.3690 N   0  0  0  0  0  0  0  0  0  0  0  0
  161.3350  205.0450  151.3160 C   0  0  0  0  0  3  0  0  0  0  0  0
  161.0600  202.3830  150.9110 S   0  0  0  0  0  0  0  0  0  0  0  0
  161.6230  207.2220  149.9630 C   0  0  0  0  0  0  0  0  0  0  0  0
  160.7400  202.0490  149.1760 C   0  0  0  0  0  0  0  0  0  0  0  0
  161.7000  208.6450  150.0070 C   0  0  0  0  0  0  0  0  0  0  0  0
  161.3960  206.5130  151.1750 C   0  0  0  0  0  0  0  0  0  0  0  0
  161.5420  209.3450  151.2220 C   0  0  0  0  0  0  0  0  0  0  0  0
  161.1510  209.0720  153.6190 N   0  0  0  0  0  0  0  0  0  0  0  0
  161.2570  207.2460  152.3160 N   0  0  0  0  0  0  0  0  0  0  0  0
  161.0400  206.8140  153.5730 C   0  0  0  0  0  3  0  0  0  0  0  0
  161.1690  204.2540  149.0010 N   0  0  0  0  0  0  0  0  0  0  0  0
  161.2750  204.0830  150.4050 C   0  0  0  0  0  0  0  0  0  0  0  0
  161.9480  209.4260  148.7460 C   0  0  0  0  0  1  0  0  0  0  0  0
  161.8240  206.5950  148.6400 C   0  0  0  0  0  3  0  0  0  0  0  0
  160.9780  207.9540  154.3600 C   0  0  0  0  0  0  0  0  0  0  0  0
  161.6260  205.3520  148.2180 C   0  0  0  0  0  3  0  0  0  0  0  0
  161.3180  208.5860  152.3720 C   0  0  0  0  0  0  0  0  0  0  0  0
  160.4080  200.6880  148.6800 C   0  0  0  0  0  1  0  0  0  0  0  0
  160.7620  207.9690  155.7770 N   0  0  0  0  0  0  0  0  0  0  0  0
  159.7310  207.1360  156.3710 C   0  0  0  0  0  1  0  0  0  0  0  0
  161.4990  208.8830  156.6360 C   0  0  0  0  0  2  0  0  0  0  0  0
  158.6660  212.8790  156.8420 C   0  0  2  0  0  3  0  0  0  0  0  0
  161.3760  210.2400  156.1290 N   0  0  0  0  0  2  0  0  0  0  0  0
  160.0800  212.6900  155.7110 S   0  0  0  0  0  0  0  0  0  0  0  0
  158.0650  211.4890  157.0800 C   0  0  1  0  0  3  0  0  0  0  0  0
  160.1830  211.0080  156.2910 C   0  0  0  0  0  0  0  0  0  0  0  0
  157.0910  211.1830  156.1270 O   0  0  0  0  0  1  0  0  0  0  0  0
  159.1660  210.5540  156.9450 N   0  0  0  0  0  0  0  0  0  0  0  0
  157.6930  214.3890  154.9910 C   0  0  0  0  0  1  0  0  0  0  0  0
  157.6910  213.9430  156.4110 C   0  0  0  0  0  0  0  0  0  0  0  0
  156.7610  214.4200  157.2390 C   0  0  0  0  0  2  0  0  0  0  0  0
  161.6170  210.8220  151.2560 C   0  0  0  0  0  3  0  0  0  0  0  0
  160.6870  211.5320  151.7220 O   0  0  0  0  0  0  0  0  0  0  0  0
  1 12  1  0  0  0  0
  1  5  2  0  0  0  0
  4  6  1  0  0  0  0
  4  7  2  0  0  0  0
  5  3  1  0  0  0  0
  6  8  2  0  0  0  0
  7  2  1  0  0  0  0
  7 10  1  0  0  0  0
  8 33  1  0  0  0  0
  8 18  1  0  0  0  0
  9 16  1  0  0  0  0
 10 18  1  0  0  0  0
 10 11  1  0  0  0  0
 11 16  2  0  0  0  0
 12 13  1  0  0  0  0
 13  3  1  0  0  0  0
 13  2  2  0  0  0  0
 14  6  1  0  0  0  0
 15  4  1  0  0  0  0
 16 20  1  0  0  0  0
 17 15  2  0  0  0  0
 17 12  1  0  0  0  0
 18  9  2  0  0  0  0
 19  5  1  0  0  0  0
 20 21  1  0  0  0  0
 20 22  1  0  0  0  0
 23 31  1  6  0  0  0
 23 26  1  0  0  0  0
 24 27  1  0  0  0  0
 24 22  1  0  0  0  0
 25 27  1  0  0  0  0
 25 23  1  0  0  0  0
 26 28  1  6  0  0  0
 27 29  2  0  0  0  0
 29 26  1  0  0  0  0
 30 31  1  0  0  0  0
 31 32  2  0  0  0  0
 33 34  2  0  0  0  0
M  END
>  <MODEL>
3

>  <REMARK>
 VINA RESULT:      -7.1      5.071      8.189
  Name = 
  5 active torsions:
  status: ('A' for Active; 'I' for Inactive)
    1  A    between atoms: N_2  and  C_5
    2  A    between atoms: N_2  and  C_28
    3  A    between atoms: C_5  and  N_8
    4  A    between atoms: C_7  and  C_14
    5  A    between atoms: C_13  and  C_15
                            x       y       z     vdW  Elec       q    Type
                         _______ _______ _______ _____ _____    ______ ____

>  <TORSDO>
F 5

$$$$
=
 OpenBabel11042422283D

 34 38  0  0  1  0  0  0  0  0999 V2000
  161.1410  202.8140  147.7640 N   0  0  0  0  0  0  0  0  0  0  0  0
  161.1940  206.3760  148.2140 C   0  0  0  0  0  3  0  0  0  0  0  0
  161.0130  204.7920  146.0270 S   0  0  0  0  0  0  0  0  0  0  0  0
  161.1610  206.1900  150.7860 C   0  0  0  0  0  0  0  0  0  0  0  0
  161.1540  203.0650  146.4980 C   0  0  0  0  0  0  0  0  0  0  0  0
  161.3150  206.8740  152.0270 C   0  0  0  0  0  0  0  0  0  0  0  0
  161.3570  206.9150  149.5790 C   0  0  0  0  0  0  0  0  0  0  0  0
  161.6670  208.2410  152.0660 C   0  0  0  0  0  0  0  0  0  0  0  0
  162.1760  210.1860  150.6770 N   0  0  0  0  0  0  0  0  0  0  0  0
  161.6910  208.2330  149.6820 N   0  0  0  0  0  0  0  0  0  0  0  0
  161.9240  209.1230  148.6980 C   0  0  0  0  0  3  0  0  0  0  0  0
  161.0700  203.9530  148.5670 N   0  0  0  0  0  0  0  0  0  0  0  0
  161.0360  205.1330  147.7800 C   0  0  0  0  0  0  0  0  0  0  0  0
  161.1070  206.1420  153.3230 C   0  0  0  0  0  1  0  0  0  0  0  0
  160.7710  204.7670  150.8670 C   0  0  0  0  0  3  0  0  0  0  0  0
  162.2210  210.3190  149.3320 C   0  0  0  0  0  0  0  0  0  0  0  0
  160.7380  203.8120  149.9440 C   0  0  0  0  0  3  0  0  0  0  0  0
  161.8470  208.8880  150.8430 C   0  0  0  0  0  0  0  0  0  0  0  0
  161.2300  201.9740  145.4920 C   0  0  0  0  0  1  0  0  0  0  0  0
  162.5360  211.5500  148.6680 N   0  0  0  0  0  0  0  0  0  0  0  0
  163.2760  211.5410  147.4190 C   0  0  0  0  0  1  0  0  0  0  0  0
  162.2080  212.8310  149.2740 C   0  0  0  0  0  2  0  0  0  0  0  0
  157.8070  214.3250  150.8380 C   0  0  2  0  0  3  0  0  0  0  0  0
  160.9040  213.2760  148.8070 N   0  0  0  0  0  2  0  0  0  0  0  0
  158.2100  213.9950  149.0920 S   0  0  0  0  0  0  0  0  0  0  0  0
  158.6630  213.3910  151.7020 C   0  0  1  0  0  3  0  0  0  0  0  0
  159.7810  213.3910  149.6800 C   0  0  0  0  0  0  0  0  0  0  0  0
  158.0210  212.1700  151.9230 O   0  0  0  0  0  1  0  0  0  0  0  0
  159.8780  213.1550  150.9460 N   0  0  0  0  0  0  0  0  0  0  0  0
  155.3840  213.9960  150.0180 C   0  0  0  0  0  1  0  0  0  0  0  0
  156.3300  214.3050  151.1250 C   0  0  0  0  0  0  0  0  0  0  0  0
  155.8530  214.4530  152.3620 C   0  0  0  0  0  2  0  0  0  0  0  0
  161.8300  208.9400  153.3590 C   0  0  0  0  0  3  0  0  0  0  0  0
  160.8800  209.5540  153.9150 O   0  0  0  0  0  0  0  0  0  0  0  0
  1 12  1  0  0  0  0
  2  7  1  0  0  0  0
  3  5  1  0  0  0  0
  3 13  1  0  0  0  0
  4 15  1  0  0  0  0
  4  6  1  0  0  0  0
  5  1  2  0  0  0  0
  6  8  2  0  0  0  0
  6 14  1  0  0  0  0
  7 10  1  0  0  0  0
  7  4  2  0  0  0  0
  8 33  1  0  0  0  0
  9 18  2  0  0  0  0
 10 18  1  0  0  0  0
 11 16  2  0  0  0  0
 11 10  1  0  0  0  0
 12 17  1  0  0  0  0
 13  2  2  0  0  0  0
 13 12  1  0  0  0  0
 16  9  1  0  0  0  0
 17 15  2  0  0  0  0
 18  8  1  0  0  0  0
 19  5  1  0  0  0  0
 20 22  1  0  0  0  0
 20 16  1  0  0  0  0
 21 20  1  0  0  0  0
 23 31  1  6  0  0  0
 23 26  1  0  0  0  0
 24 22  1  0  0  0  0
 24 27  1  0  0  0  0
 25 27  1  0  0  0  0
 25 23  1  0  0  0  0
 26 28  1  6  0  0  0
 27 29  2  0  0  0  0
 29 26  1  0  0  0  0
 30 31  1  0  0  0  0
 31 32  2  0  0  0  0
 33 34  2  0  0  0  0
M  END
>  <MODEL>
4

>  <REMARK>
 VINA RESULT:      -6.9      3.423      4.492
  Name = 
  5 active torsions:
  status: ('A' for Active; 'I' for Inactive)
    1  A    between atoms: N_2  and  C_5
    2  A    between atoms: N_2  and  C_28
    3  A    between atoms: C_5  and  N_8
    4  A    between atoms: C_7  and  C_14
    5  A    between atoms: C_13  and  C_15
                            x       y       z     vdW  Elec       q    Type
                         _______ _______ _______ _____ _____    ______ ____

>  <TORSDO>
F 5

$$$$
=
 OpenBabel11042422283D

 34 38  0  0  1  0  0  0  0  0999 V2000
  161.4700  204.0650  146.0190 N   0  0  0  0  0  0  0  0  0  0  0  0
  160.8060  206.5900  148.4850 C   0  0  0  0  0  3  0  0  0  0  0  0
  160.7720  206.5950  145.7780 S   0  0  0  0  0  0  0  0  0  0  0  0
  161.0410  204.9320  150.4460 C   0  0  0  0  0  0  0  0  0  0  0  0
  161.3170  205.0050  145.1470 C   0  0  0  0  0  0  0  0  0  0  0  0
  161.1560  204.7730  151.8580 C   0  0  0  0  0  0  0  0  0  0  0  0
  160.9720  206.2480  149.9110 C   0  0  0  0  0  0  0  0  0  0  0  0
  161.2130  205.8940  152.7140 C   0  0  0  0  0  0  0  0  0  0  0  0
  161.1730  208.3370  152.7700 N   0  0  0  0  0  0  0  0  0  0  0  0
  161.0260  207.2890  150.7900 N   0  0  0  0  0  0  0  0  0  0  0  0
  160.9770  208.6100  150.5340 C   0  0  0  0  0  3  0  0  0  0  0  0
  161.2300  204.4670  147.3340 N   0  0  0  0  0  0  0  0  0  0  0  0
  160.8770  205.8400  147.3930 C   0  0  0  0  0  0  0  0  0  0  0  0
  161.2230  203.3970  152.4600 C   0  0  0  0  0  1  0  0  0  0  0  0
  160.9710  203.6890  149.6510 C   0  0  0  0  0  3  0  0  0  0  0  0
  161.0690  209.2380  151.7670 C   0  0  0  0  0  0  0  0  0  0  0  0
  161.0590  203.4770  148.3430 C   0  0  0  0  0  3  0  0  0  0  0  0
  161.1420  207.1550  152.1210 C   0  0  0  0  0  0  0  0  0  0  0  0
  161.5330  204.7600  143.6980 C   0  0  0  0  0  1  0  0  0  0  0  0
  161.0560  210.6560  151.9740 N   0  0  0  0  0  0  0  0  0  0  0  0
  161.3780  211.5610  150.8840 C   0  0  0  0  0  1  0  0  0  0  0  0
  160.8150  211.2160  153.2950 C   0  0  0  0  0  2  0  0  0  0  0  0
  156.9420  213.4190  155.3410 C   0  0  2  0  0  3  0  0  0  0  0  0
  159.9580  212.3860  153.1840 N   0  0  0  0  0  2  0  0  0  0  0  0
  157.7280  213.9710  153.7940 S   0  0  0  0  0  0  0  0  0  0  0  0
  157.1110  211.8990  155.4390 C   0  0  1  0  0  3  0  0  0  0  0  0
  158.7300  212.5010  153.9030 C   0  0  0  0  0  0  0  0  0  0  0  0
  156.0550  211.2270  154.8180 O   0  0  0  0  0  1  0  0  0  0  0  0
  158.3420  211.5920  154.7350 N   0  0  0  0  0  0  0  0  0  0  0  0
  154.9700  214.0310  156.8880 C   0  0  0  0  0  1  0  0  0  0  0  0
  155.5360  213.9290  155.5140 C   0  0  0  0  0  0  0  0  0  0  0  0
  154.8230  214.3880  154.4850 C   0  0  0  0  0  2  0  0  0  0  0  0
  161.3370  205.7190  154.1780 C   0  0  0  0  0  3  0  0  0  0  0  0
  160.6760  206.4120  154.9960 O   0  0  0  0  0  0  0  0  0  0  0  0
  1 12  1  0  0  0  0
  2  7  1  0  0  0  0
  3 13  1  0  0  0  0
  4  6  1  0  0  0  0
  5  3  1  0  0  0  0
  5  1  2  0  0  0  0
  6 14  1  0  0  0  0
  6  8  2  0  0  0  0
  7  4  2  0  0  0  0
  7 10  1  0  0  0  0
  8 33  1  0  0  0  0
 10 18  1  0  0  0  0
 11 10  1  0  0  0  0
 11 16  2  0  0  0  0
 12 13  1  0  0  0  0
 12 17  1  0  0  0  0
 13  2  2  0  0  0  0
 15  4  1  0  0  0  0
 16 20  1  0  0  0  0
 16  9  1  0  0  0  0
 17 15  2  0  0  0  0
 18  8  1  0  0  0  0
 18  9  2  0  0  0  0
 19  5  1  0  0  0  0
 20 22  1  0  0  0  0
 21 20  1  0  0  0  0
 23 26  1  0  0  0  0
 23 31  1  6  0  0  0
 24 22  1  0  0  0  0
 24 27  1  0  0  0  0
 25 27  1  0  0  0  0
 25 23  1  0  0  0  0
 26 28  1  6  0  0  0
 27 29  2  0  0  0  0
 29 26  1  0  0  0  0
 31 30  1  0  0  0  0
 32 31  2  0  0  0  0
 33 34  2  0  0  0  0
M  END
>  <MODEL>
5

>  <REMARK>
 VINA RESULT:      -6.6      5.019      7.132
  Name = 
  5 active torsions:
  status: ('A' for Active; 'I' for Inactive)
    1  A    between atoms: N_2  and  C_5
    2  A    between atoms: N_2  and  C_28
    3  A    between atoms: C_5  and  N_8
    4  A    between atoms: C_7  and  C_14
    5  A    between atoms: C_13  and  C_15
                            x       y       z     vdW  Elec       q    Type
                         _______ _______ _______ _____ _____    ______ ____

>  <TORSDO>
F 5

$$$$
=
 OpenBabel11042422283D

 34 38  0  0  1  0  0  0  0  0999 V2000
  161.3000  202.9900  150.8790 N   0  0  0  0  0  0  0  0  0  0  0  0
  161.0130  206.5190  150.2750 C   0  0  0  0  0  3  0  0  0  0  0  0
  160.8830  204.3500  148.6600 S   0  0  0  0  0  0  0  0  0  0  0  0
  161.1310  207.0980  152.7850 C   0  0  0  0  0  0  0  0  0  0  0  0
  161.2220  202.8570  149.5980 C   0  0  0  0  0  0  0  0  0  0  0  0
  161.2780  208.1280  153.7600 C   0  0  0  0  0  0  0  0  0  0  0  0
  161.1910  207.4480  151.4090 C   0  0  0  0  0  0  0  0  0  0  0  0
  161.4910  209.4690  153.3740 C   0  0  0  0  0  0  0  0  0  0  0  0
  161.7290  210.9530  151.4470 N   0  0  0  0  0  0  0  0  0  0  0  0
  161.3940  208.7610  151.1000 N   0  0  0  0  0  0  0  0  0  0  0  0
  161.4850  209.3360  149.8860 C   0  0  0  0  0  3  0  0  0  0  0  0
  161.1540  204.3060  151.3220 N   0  0  0  0  0  0  0  0  0  0  0  0
  160.9610  205.1940  150.2330 C   0  0  0  0  0  0  0  0  0  0  0  0
  161.2120  207.7960  155.2250 C   0  0  0  0  0  1  0  0  0  0  0  0
  160.8930  205.7350  153.3040 C   0  0  0  0  0  3  0  0  0  0  0  0
  161.6910  210.6860  150.1220 C   0  0  0  0  0  0  0  0  0  0  0  0
  160.9100  204.5510  152.7030 C   0  0  0  0  0  3  0  0  0  0  0  0
  161.5420  209.7400  152.0060 C   0  0  0  0  0  0  0  0  0  0  0  0
  161.3570  201.5280  148.9470 C   0  0  0  0  0  1  0  0  0  0  0  0
  161.8450  211.6880  149.1080 N   0  0  0  0  0  0  0  0  0  0  0  0
  162.9130  211.5840  148.1290 C   0  0  0  0  0  1  0  0  0  0  0  0
  161.0010  212.8730  149.0940 C   0  0  0  0  0  2  0  0  0  0  0  0
  160.4450  212.3970  144.2450 C   0  0  2  0  0  3  0  0  0  0  0  0
  159.9940  212.7460  148.0520 N   0  0  0  0  0  2  0  0  0  0  0  0
  159.0680  212.6570  145.4080 S   0  0  0  0  0  0  0  0  0  0  0  0
  161.6840  213.0940  144.8200 C   0  0  1  0  0  3  0  0  0  0  0  0
  160.3110  212.8760  146.6660 C   0  0  0  0  0  0  0  0  0  0  0  0
  161.7590  214.4260  144.4040 O   0  0  0  0  0  1  0  0  0  0  0  0
  161.5240  213.0600  146.2610 N   0  0  0  0  0  0  0  0  0  0  0  0
  160.9000  212.1440  141.7190 C   0  0  0  0  0  1  0  0  0  0  0  0
  160.1030  212.7490  142.8220 C   0  0  0  0  0  0  0  0  0  0  0  0
  159.0450  213.5020  142.5200 C   0  0  0  0  0  2  0  0  0  0  0  0
  161.6480  210.5300  154.3930 C   0  0  0  0  0  3  0  0  0  0  0  0
  160.6600  211.0990  154.9290 O   0  0  0  0  0  0  0  0  0  0  0  0
  1 12  1  0  0  0  0
  2  7  1  0  0  0  0
  3  5  1  0  0  0  0
  3 13  1  0  0  0  0
  4 15  1  0  0  0  0
  4  6  1  0  0  0  0
  5  1  2  0  0  0  0
  6 14  1  0  0  0  0
  7  4  2  0  0  0  0
  8  6  2  0  0  0  0
  8 33  1  0  0  0  0
  9 18  2  0  0  0  0
 10  7  1  0  0  0  0
 10 18  1  0  0  0  0
 11 16  2  0  0  0  0
 11 10  1  0  0  0  0
 12 17  1  0  0  0  0
 13  2  2  0  0  0  0
 13 12  1  0  0  0  0
 16  9  1  0  0  0  0
 17 15  2  0  0  0  0
 18  8  1  0  0  0  0
 19  5  1  0  0  0  0
 20 16  1  0  0  0  0
 21 20  1  0  0  0  0
 22 20  1  0  0  0  0
 23 31  1  6  0  0  0
 23 26  1  0  0  0  0
 23 25  1  0  0  0  0
 24 22  1  0  0  0  0
 25 27  1  0  0  0  0
 26 28  1  6  0  0  0
 26 29  1  0  0  0  0
 27 24  1  0  0  0  0
 29 27  2  0  0  0  0
 30 31  1  0  0  0  0
 32 31  2  0  0  0  0
 33 34  2  0  0  0  0
M  END
>  <MODEL>
6

>  <REMARK>
 VINA RESULT:      -6.5      1.699      2.053
  Name = 
  5 active torsions:
  status: ('A' for Active; 'I' for Inactive)
    1  A    between atoms: N_2  and  C_5
    2  A    between atoms: N_2  and  C_28
    3  A    between atoms: C_5  and  N_8
    4  A    between atoms: C_7  and  C_14
    5  A    between atoms: C_13  and  C_15
                            x       y       z     vdW  Elec       q    Type
                         _______ _______ _______ _____ _____    ______ ____

>  <TORSDO>
F 5

$$$$
=
 OpenBabel11042422283D

 34 38  0  0  1  0  0  0  0  0999 V2000
  160.1050  212.1520  139.6880 N   0  0  0  0  0  0  0  0  0  0  0  0
  161.0780  212.5290  143.1250 C   0  0  0  0  0  3  0  0  0  0  0  0
  162.4190  211.7840  140.8950 S   0  0  0  0  0  0  0  0  0  0  0  0
  158.7830  213.4820  143.8130 C   0  0  0  0  0  0  0  0  0  0  0  0
  161.2980  211.6980  139.4950 C   0  0  0  0  0  0  0  0  0  0  0  0
  157.9220  213.8420  144.8920 C   0  0  0  0  0  0  0  0  0  0  0  0
  160.0510  212.9140  144.1130 C   0  0  0  0  0  0  0  0  0  0  0  0
  158.3090  213.6290  146.2330 C   0  0  0  0  0  0  0  0  0  0  0  0
  160.1100  212.7930  147.6570 N   0  0  0  0  0  0  0  0  0  0  0  0
  160.3680  212.7390  145.4280 N   0  0  0  0  0  0  0  0  0  0  0  0
  161.4950  212.2290  145.9610 C   0  0  0  0  0  3  0  0  0  0  0  0
  159.8710  212.5950  140.9910 N   0  0  0  0  0  0  0  0  0  0  0  0
  161.0220  212.4260  141.8030 C   0  0  0  0  0  0  0  0  0  0  0  0
  156.5770  214.4530  144.6120 C   0  0  0  0  0  1  0  0  0  0  0  0
  158.2820  213.7690  142.4520 C   0  0  0  0  0  3  0  0  0  0  0  0
  161.3150  212.2720  147.3350 C   0  0  0  0  0  0  0  0  0  0  0  0
  158.7230  213.3940  141.2580 C   0  0  0  0  0  3  0  0  0  0  0  0
  159.5650  213.0640  146.4530 C   0  0  0  0  0  0  0  0  0  0  0  0
  161.7250  211.1810  138.1690 C   0  0  0  0  0  1  0  0  0  0  0  0
  162.2710  211.8280  148.3070 N   0  0  0  0  0  0  0  0  0  0  0  0
  163.6450  212.2970  148.2520 C   0  0  0  0  0  1  0  0  0  0  0  0
  161.9150  210.8320  149.3060 C   0  0  0  0  0  2  0  0  0  0  0  0
  160.7820  206.1510  150.2260 C   0  0  2  0  0  3  0  0  0  0  0  0
  161.6930  209.5470  148.6600 N   0  0  0  0  0  2  0  0  0  0  0  0
  161.2770  206.7760  148.5890 S   0  0  0  0  0  0  0  0  0  0  0  0
  161.4890  207.0020  151.2880 C   0  0  1  0  0  3  0  0  0  0  0  0
  161.6080  208.3290  149.3990 C   0  0  0  0  0  0  0  0  0  0  0  0
  162.7420  206.4760  151.6120 O   0  0  0  0  0  1  0  0  0  0  0  0
  161.6690  208.3110  150.6900 N   0  0  0  0  0  0  0  0  0  0  0  0
  160.8870  204.0610  151.7340 C   0  0  0  0  0  1  0  0  0  0  0  0
  160.9450  204.6620  150.3730 C   0  0  0  0  0  0  0  0  0  0  0  0
  161.0350  203.8570  149.3130 C   0  0  0  0  0  2  0  0  0  0  0  0
  157.4060  214.0000  147.3450 C   0  0  0  0  0  3  0  0  0  0  0  0
  156.8530  213.1370  148.0770 O   0  0  0  0  0  0  0  0  0  0  0  0
  1 12  1  0  0  0  0
  2  7  1  0  0  0  0
  3 13  1  0  0  0  0
  4  7  2  0  0  0  0
  4  6  1  0  0  0  0
  5  1  2  0  0  0  0
  5  3  1  0  0  0  0
  6  8  2  0  0  0  0
  7 10  1  0  0  0  0
  8 18  1  0  0  0  0
  8 33  1  0  0  0  0
 10 11  1  0  0  0  0
 10 18  1  0  0  0  0
 11 16  2  0  0  0  0
 12 17  1  0  0  0  0
 12 13  1  0  0  0  0
 13  2  2  0  0  0  0
 14  6  1  0  0  0  0
 15  4  1  0  0  0  0
 16  9  1  0  0  0  0
 16 20  1  0  0  0  0
 17 15  2  0  0  0  0
 18  9  2  0  0  0  0
 19  5  1  0  0  0  0
 20 22  1  0  0  0  0
 21 20  1  0  0  0  0
 23 31  1  6  0  0  0
 23 26  1  0  0  0  0
 24 22  1  0  0  0  0
 24 27  1  0  0  0  0
 25 27  1  0  0  0  0
 25 23  1  0  0  0  0
 26 28  1  6  0  0  0
 27 29  2  0  0  0  0
 29 26  1  0  0  0  0
 31 30  1  0  0  0  0
 32 31  2  0  0  0  0
 33 34  2  0  0  0  0
M  END
>  <MODEL>
7

>  <REMARK>
 VINA RESULT:      -6.4      2.629      9.297
  Name = 
  5 active torsions:
  status: ('A' for Active; 'I' for Inactive)
    1  A    between atoms: N_2  and  C_5
    2  A    between atoms: N_2  and  C_28
    3  A    between atoms: C_5  and  N_8
    4  A    between atoms: C_7  and  C_14
    5  A    between atoms: C_13  and  C_15
                            x       y       z     vdW  Elec       q    Type
                         _______ _______ _______ _____ _____    ______ ____

>  <TORSDO>
F 5

$$$$
=
 OpenBabel11042422283D

 34 38  0  0  1  0  0  0  0  0999 V2000
  161.5380  204.2090  146.3090 N   0  0  0  0  0  0  0  0  0  0  0  0
  160.7790  206.7380  148.7430 C   0  0  0  0  0  3  0  0  0  0  0  0
  160.7990  206.7240  146.0360 S   0  0  0  0  0  0  0  0  0  0  0  0
  161.0050  205.0980  150.7200 C   0  0  0  0  0  0  0  0  0  0  0  0
  161.3850  205.1400  145.4280 C   0  0  0  0  0  0  0  0  0  0  0  0
  161.0940  204.9510  152.1360 C   0  0  0  0  0  0  0  0  0  0  0  0
  160.9230  206.4090  150.1750 C   0  0  0  0  0  0  0  0  0  0  0  0
  161.1130  206.0790  152.9850 C   0  0  0  0  0  0  0  0  0  0  0  0
  161.0290  208.5210  153.0220 N   0  0  0  0  0  0  0  0  0  0  0  0
  160.9400  207.4560  151.0470 N   0  0  0  0  0  0  0  0  0  0  0  0
  160.8730  208.7750  150.7810 C   0  0  0  0  0  3  0  0  0  0  0  0
  161.2640  204.6150  147.6160 N   0  0  0  0  0  0  0  0  0  0  0  0
  160.8860  205.9820  147.6580 C   0  0  0  0  0  0  0  0  0  0  0  0
  161.1740  203.5800  152.7480 C   0  0  0  0  0  1  0  0  0  0  0  0
  160.9720  203.8480  149.9330 C   0  0  0  0  0  3  0  0  0  0  0  0
  160.9290  209.4120  152.0110 C   0  0  0  0  0  0  0  0  0  0  0  0
  161.0910  203.6290  148.6280 C   0  0  0  0  0  3  0  0  0  0  0  0
  161.0330  207.3340  152.3810 C   0  0  0  0  0  0  0  0  0  0  0  0
  161.6340  204.8890  143.9840 C   0  0  0  0  0  1  0  0  0  0  0  0
  160.8860  210.8320  152.2080 N   0  0  0  0  0  0  0  0  0  0  0  0
  161.1080  211.3960  153.5280 C   0  0  0  0  0  1  0  0  0  0  0  0
  160.5260  211.7270  151.1190 C   0  0  0  0  0  2  0  0  0  0  0  0
  161.7670  213.6040  146.7630 C   0  0  2  0  0  3  0  0  0  0  0  0
  161.6100  211.7850  150.1520 N   0  0  0  0  0  2  0  0  0  0  0  0
  162.7860  212.4090  147.6850 S   0  0  0  0  0  0  0  0  0  0  0  0
  160.2970  213.3270  147.0990 C   0  0  1  0  0  3  0  0  0  0  0  0
  161.4260  212.2950  148.8310 C   0  0  0  0  0  0  0  0  0  0  0  0
  159.7440  212.3850  146.2270 O   0  0  0  0  0  1  0  0  0  0  0  0
  160.2940  212.7820  148.4430 N   0  0  0  0  0  0  0  0  0  0  0  0
  161.2140  214.4530  144.3910 C   0  0  0  0  0  1  0  0  0  0  0  0
  162.0980  213.6680  145.2960 C   0  0  0  0  0  0  0  0  0  0  0  0
  163.2150  213.1300  144.8040 C   0  0  0  0  0  2  0  0  0  0  0  0
  161.2120  205.9150  154.4510 C   0  0  0  0  0  3  0  0  0  0  0  0
  160.4840  206.5630  155.2500 O   0  0  0  0  0  0  0  0  0  0  0  0
  1 12  1  0  0  0  0
  2  7  1  0  0  0  0
  3 13  1  0  0  0  0
  4  6  1  0  0  0  0
  5  3  1  0  0  0  0
  5  1  2  0  0  0  0
  6 14  1  0  0  0  0
  6  8  2  0  0  0  0
  7  4  2  0  0  0  0
  7 10  1  0  0  0  0
  8 33  1  0  0  0  0
 10 18  1  0  0  0  0
 11 10  1  0  0  0  0
 11 16  2  0  0  0  0
 12 13  1  0  0  0  0
 12 17  1  0  0  0  0
 13  2  2  0  0  0  0
 15  4  1  0  0  0  0
 16 20  1  0  0  0  0
 16  9  1  0  0  0  0
 17 15  2  0  0  0  0
 18  8  1  0  0  0  0
 18  9  2  0  0  0  0
 19  5  1  0  0  0  0
 20 21  1  0  0  0  0
 22 20  1  0  0  0  0
 23 31  1  6  0  0  0
 23 26  1  0  0  0  0
 23 25  1  0  0  0  0
 24 22  1  0  0  0  0
 25 27  1  0  0  0  0
 26 28  1  6  0  0  0
 26 29  1  0  0  0  0
 27 24  1  0  0  0  0
 29 27  2  0  0  0  0
 30 31  1  0  0  0  0
 32 31  2  0  0  0  0
 33 34  2  0  0  0  0
M  END
>  <MODEL>
8

>  <REMARK>
 VINA RESULT:      -6.4      2.263      3.331
  Name = 
  5 active torsions:
  status: ('A' for Active; 'I' for Inactive)
    1  A    between atoms: N_2  and  C_5
    2  A    between atoms: N_2  and  C_28
    3  A    between atoms: C_5  and  N_8
    4  A    between atoms: C_7  and  C_14
    5  A    between atoms: C_13  and  C_15
                            x       y       z     vdW  Elec       q    Type
                         _______ _______ _______ _____ _____    ______ ____

>  <TORSDO>
F 5

$$$$
=
 OpenBabel11042422283D

 34 38  0  0  1  0  0  0  0  0999 V2000
  156.1240  214.3670  154.9360 N   0  0  0  0  0  0  0  0  0  0  0  0
  158.2340  213.3080  152.2290 C   0  0  0  0  0  3  0  0  0  0  0  0
  158.4820  213.1910  154.9220 S   0  0  0  0  0  0  0  0  0  0  0  0
  156.4790  213.9170  150.4410 C   0  0  0  0  0  0  0  0  0  0  0  0
  157.0920  214.0100  155.7100 C   0  0  0  0  0  0  0  0  0  0  0  0
  156.2160  214.1040  149.0520 C   0  0  0  0  0  0  0  0  0  0  0  0
  157.8000  213.5810  150.8450 C   0  0  0  0  0  0  0  0  0  0  0  0
  157.2430  213.9710  148.0920 C   0  0  0  0  0  0  0  0  0  0  0  0
  159.6160  213.4670  147.8010 N   0  0  0  0  0  0  0  0  0  0  0  0
  158.7470  213.4620  149.8700 N   0  0  0  0  0  0  0  0  0  0  0  0
  160.0520  213.1540  149.9970 C   0  0  0  0  0  3  0  0  0  0  0  0
  156.3480  214.0950  153.5850 N   0  0  0  0  0  0  0  0  0  0  0  0
  157.6160  213.4890  153.3890 C   0  0  0  0  0  0  0  0  0  0  0  0
  154.8290  214.4510  148.5870 C   0  0  0  0  0  1  0  0  0  0  0  0
  155.3240  214.0610  151.3510 C   0  0  0  0  0  3  0  0  0  0  0  0
  160.5690  213.1620  148.7110 C   0  0  0  0  0  0  0  0  0  0  0  0
  155.2550  214.1480  152.6740 C   0  0  0  0  0  3  0  0  0  0  0  0
  158.5160  213.6430  148.5610 C   0  0  0  0  0  0  0  0  0  0  0  0
  157.0290  214.2240  157.1790 C   0  0  0  0  0  1  0  0  0  0  0  0
  161.9320  212.8840  148.3670 N   0  0  0  0  0  0  0  0  0  0  0  0
  162.8260  213.9610  147.9780 C   0  0  0  0  0  1  0  0  0  0  0  0
  162.4240  211.5160  148.3070 C   0  0  0  0  0  2  0  0  0  0  0  0
  162.2700  207.0870  150.4050 C   0  0  2  0  0  3  0  0  0  0  0  0
  162.1590  210.8430  149.5690 N   0  0  0  0  0  2  0  0  0  0  0  0
  161.7320  208.6220  151.2250 S   0  0  0  0  0  0  0  0  0  0  0  0
  162.0160  207.2430  148.9010 C   0  0  1  0  0  3  0  0  0  0  0  0
  161.9990  209.4270  149.6570 C   0  0  0  0  0  0  0  0  0  0  0  0
  160.7300  206.8210  148.5550 O   0  0  0  0  0  1  0  0  0  0  0  0
  162.1360  208.6620  148.6250 N   0  0  0  0  0  0  0  0  0  0  0  0
  161.5310  205.7960  152.5130 C   0  0  0  0  0  1  0  0  0  0  0  0
  161.7050  205.8420  151.0340 C   0  0  0  0  0  0  0  0  0  0  0  0
  161.2600  204.8220  150.2980 C   0  0  0  0  0  2  0  0  0  0  0  0
  156.9610  214.1720  146.6540 C   0  0  0  0  0  3  0  0  0  0  0  0
  156.6450  213.2200  145.8920 O   0  0  0  0  0  0  0  0  0  0  0  0
  1  5  2  0  0  0  0
  2 13  2  0  0  0  0
  3  5  1  0  0  0  0
  4  7  2  0  0  0  0
  4 15  1  0  0  0  0
  5 19  1  0  0  0  0
  6  4  1  0  0  0  0
  7  2  1  0  0  0  0
  8 18  1  0  0  0  0
  8  6  2  0  0  0  0
  9 18  2  0  0  0  0
  9 16  1  0  0  0  0
 10 11  1  0  0  0  0
 10  7  1  0  0  0  0
 12  1  1  0  0  0  0
 13 12  1  0  0  0  0
 13  3  1  0  0  0  0
 14  6  1  0  0  0  0
 15 17  2  0  0  0  0
 16 11  2  0  0  0  0
 17 12  1  0  0  0  0
 18 10  1  0  0  0  0
 20 16  1  0  0  0  0
 21 20  1  0  0  0  0
 22 20  1  0  0  0  0
 22 24  1  0  0  0  0
 23 31  1  1  0  0  0
 23 25  1  0  0  0  0
 24 27  1  0  0  0  0
 26 28  1  1  0  0  0
 26 23  1  0  0  0  0
 27 25  1  0  0  0  0
 29 26  1  0  0  0  0
 29 27  2  0  0  0  0
 31 30  1  0  0  0  0
 32 31  2  0  0  0  0
 33  8  1  0  0  0  0
 34 33  2  0  0  0  0
M  END
>  <MODEL>
9

>  <REMARK>
 VINA RESULT:      -6.4      5.022      9.406
  Name = 
  5 active torsions:
  status: ('A' for Active; 'I' for Inactive)
    1  A    between atoms: N_2  and  C_5
    2  A    between atoms: N_2  and  C_28
    3  A    between atoms: C_5  and  N_8
    4  A    between atoms: C_7  and  C_14
    5  A    between atoms: C_13  and  C_15
                            x       y       z     vdW  Elec       q    Type
                         _______ _______ _______ _____ _____    ______ ____

>  <TORSDO>
F 5

$$$$
