=
 OpenBabel11042421173D

 39 42  0  0  1  0  0  0  0  0999 V2000
  161.3440  207.9530  149.7320 C   0  0  2  0  0  3  0  0  0  0  0  0
  160.9800  209.2730  151.6220 C   0  0  2  0  0  3  0  0  0  0  0  0
  162.1990  209.2040  149.6320 C   0  0  0  0  0  2  0  0  0  0  0  0
  161.0230  207.8020  151.2060 C   0  0  2  0  0  3  0  0  0  0  0  0
  161.9330  210.0260  150.8100 N   0  0  0  0  0  2  0  0  0  0  0  0
  162.0430  206.9080  151.9560 C   0  0  2  0  0  3  0  0  0  0  0  0
  161.8630  205.4530  151.6000 C   0  0  0  0  0  0  0  0  0  0  0  0
  162.8180  204.7010  151.6950 O   0  0  0  0  0  0  0  0  0  0  0  0
  160.5410  204.8970  151.1580 C   0  0  0  0  0  2  0  0  0  0  0  0
  160.7080  203.5360  149.0710 C   0  0  0  0  0  3  0  0  0  0  0  0
  160.8850  202.3150  148.4150 C   0  0  0  0  0  3  0  0  0  0  0  0
  161.0560  201.1400  149.1580 C   0  0  0  0  0  3  0  0  0  0  0  0
  160.6940  203.5830  150.4680 C   0  0  0  0  0  0  0  0  0  0  0  0
  160.8720  202.4060  151.2100 C   0  0  0  0  0  3  0  0  0  0  0  0
  161.0500  201.1850  150.5560 C   0  0  0  0  0  3  0  0  0  0  0  0
  162.0390  207.1370  153.3370 O   0  0  0  0  0  0  0  0  0  0  0  0
  160.5640  206.8570  155.0610 O   0  0  0  0  0  1  0  0  0  0  0  0
  161.0300  206.3220  153.8590 C   0  0  0  0  0  2  0  0  0  0  0  0
  161.0120  209.6220  153.1200 C   0  0  0  0  0  2  0  0  0  0  0  0
  157.6120  212.9510  153.8900 C   0  0  0  0  0  0  0  0  0  0  0  0
  159.1530  211.2410  153.4890 C   0  0  0  0  0  0  0  0  0  0  0  0
  156.8680  213.4330  154.8990 N   0  0  0  0  0  0  0  0  0  0  0  0
  155.9410  212.3680  156.9670 C   0  0  0  0  0  1  0  0  0  0  0  0
  157.9370  211.6750  154.1270 C   0  0  0  0  0  0  0  0  0  0  0  0
  159.6890  210.0370  153.6820 C   0  0  0  0  0  2  0  0  0  0  0  0
  158.6940  213.8470  152.7940 S   0  0  0  0  0  0  0  0  0  0  0  0
  156.7020  212.3360  155.6840 C   0  0  0  0  0  0  0  0  0  0  0  0
  159.7730  212.3430  152.6690 C   0  0  0  0  0  3  0  0  0  0  0  0
  157.3960  211.2430  155.2780 N   0  0  0  0  0  2  0  0  0  0  0  0
  161.9860  206.7480  149.0620 C   0  0  0  0  0  2  0  0  0  0  0  0
  162.1650  207.0280  147.5850 C   0  0  0  0  0  2  0  0  0  0  0  0
  161.3620  206.0490  146.7430 C   0  0  1  0  0  3  0  0  0  0  0  0
  160.1890  206.6760  146.3120 O   0  0  0  0  0  1  0  0  0  0  0  0
  161.3180  205.5440  144.2800 C   0  0  0  0  0  1  0  0  0  0  0  0
  162.1810  205.5660  145.5360 C   0  0  2  0  0  3  0  0  0  0  0  0
  163.9120  204.0060  144.9550 F   0  0  0  0  0  0  0  0  0  0  0  0
  162.7980  204.1760  145.7610 C   0  0  0  0  0  0  0  0  0  0  0  0
  161.8800  203.1940  145.4380 F   0  0  0  0  0  0  0  0  0  0  0  0
  163.1740  204.0260  147.0870 F   0  0  0  0  0  0  0  0  0  0  0  0
  1 30  1  1  0  0  0
  1  4  1  0  0  0  0
  2 19  1  1  0  0  0
  3  1  1  0  0  0  0
  3  5  1  0  0  0  0
  4  2  1  0  0  0  0
  4  6  1  1  0  0  0
  5  2  1  0  0  0  0
  6  7  1  1  0  0  0
  6 16  1  0  0  0  0
  7  8  2  0  0  0  0
  9  7  1  0  0  0  0
 10 13  1  0  0  0  0
 11 10  2  0  0  0  0
 11 12  1  0  0  0  0
 12 15  2  0  0  0  0
 13  9  1  0  0  0  0
 13 14  2  0  0  0  0
 15 14  1  0  0  0  0
 16 18  1  0  0  0  0
 18 17  1  0  0  0  0
 19 25  1  0  0  0  0
 20 24  2  0  0  0  0
 20 22  1  0  0  0  0
 21 25  1  0  0  0  0
 21 24  1  0  0  0  0
 22 27  2  0  0  0  0
 24 29  1  0  0  0  0
 26 20  1  0  0  0  0
 27 23  1  0  0  0  0
 28 26  1  0  0  0  0
 28 21  2  0  0  0  0
 29 27  1  0  0  0  0
 31 30  1  0  0  0  0
 32 33  1  6  0  0  0
 32 31  1  0  0  0  0
 35 34  1  6  0  0  0
 35 37  1  0  0  0  0
 35 32  1  0  0  0  0
 36 37  1  0  0  0  0
 37 39  1  0  0  0  0
 38 37  1  0  0  0  0
M  END
>  <MODEL>
1

>  <REMARK>
 VINA RESULT:      -8.1      0.000      0.000
  Name = 
  13 active torsions:
  status: ('A' for Active; 'I' for Inactive)
    1  A    between atoms: O_1  and  C_11
    2  A    between atoms: O_1  and  C_21
    3  A    between atoms: C_3  and  C_35
    4  A    between atoms: C_9  and  C_28
    5  A    between atoms: C_9  and  C_29
    6  A    between atoms: C_11  and  C_20
    7  A    between atoms: C_11  and  C_26
    8  A    between atoms: C_12  and  C_28
    9  A    between atoms: C_15  and  C_22
   10  A    between atoms: C_18  and  C_22
   11  A    between atoms: C_19  and  C_20
   12  A    between atoms: C_19  and  C_27
   13  A    between atoms: C_29  and  C_35
                            x       y       z     vdW  Elec       q    Type
                         _______ _______ _______ _____ _____    ______ ____

>  <TORSDO>
F 13

$$$$
=
 OpenBabel11042421173D

 39 42  0  0  1  0  0  0  0  0999 V2000
  161.5320  208.2140  149.4670 C   0  0  2  0  0  3  0  0  0  0  0  0
  160.9740  209.3420  151.4320 C   0  0  2  0  0  3  0  0  0  0  0  0
  162.3180  209.5110  149.5300 C   0  0  0  0  0  2  0  0  0  0  0  0
  161.1280  207.9170  150.8980 C   0  0  2  0  0  3  0  0  0  0  0  0
  161.9310  210.2110  150.7530 N   0  0  0  0  0  2  0  0  0  0  0  0
  162.1490  207.0150  151.6380 C   0  0  2  0  0  3  0  0  0  0  0  0
  161.9410  205.5600  151.2990 C   0  0  0  0  0  0  0  0  0  0  0  0
  162.8740  204.7860  151.4280 O   0  0  0  0  0  0  0  0  0  0  0  0
  160.6170  205.0300  150.8320 C   0  0  0  0  0  2  0  0  0  0  0  0
  160.8140  203.4490  148.9100 C   0  0  0  0  0  3  0  0  0  0  0  0
  160.9570  202.1580  148.3930 C   0  0  0  0  0  3  0  0  0  0  0  0
  161.0280  201.0610  149.2630 C   0  0  0  0  0  3  0  0  0  0  0  0
  160.7330  203.6450  150.2910 C   0  0  0  0  0  0  0  0  0  0  0  0
  160.8110  202.5450  151.1590 C   0  0  0  0  0  3  0  0  0  0  0  0
  160.9550  201.2550  150.6460 C   0  0  0  0  0  3  0  0  0  0  0  0
  162.1720  207.2570  153.0170 O   0  0  0  0  0  0  0  0  0  0  0  0
  160.7500  206.7360  154.7280 O   0  0  0  0  0  1  0  0  0  0  0  0
  161.4060  206.2440  153.5980 C   0  0  0  0  0  2  0  0  0  0  0  0
  160.8910  209.5600  152.9530 C   0  0  0  0  0  2  0  0  0  0  0  0
  159.8500  212.8960  156.2720 C   0  0  0  0  0  0  0  0  0  0  0  0
  160.3820  211.3880  154.5690 C   0  0  0  0  0  0  0  0  0  0  0  0
  158.7930  213.5960  156.7170 N   0  0  0  0  0  0  0  0  0  0  0  0
  156.7380  214.4530  155.5730 C   0  0  0  0  0  1  0  0  0  0  0  0
  159.6790  212.5750  154.9850 C   0  0  0  0  0  0  0  0  0  0  0  0
  160.2600  210.8570  153.3540 C   0  0  0  0  0  2  0  0  0  0  0  0
  160.9480  211.8480  157.2060 S   0  0  0  0  0  0  0  0  0  0  0  0
  158.0490  213.7420  155.5890 C   0  0  0  0  0  0  0  0  0  0  0  0
  161.1780  210.7900  155.7000 C   0  0  0  0  0  3  0  0  0  0  0  0
  158.5270  213.0740  154.5090 N   0  0  0  0  0  2  0  0  0  0  0  0
  162.2840  207.1060  148.7440 C   0  0  0  0  0  2  0  0  0  0  0  0
  161.3780  206.4760  147.7070 C   0  0  0  0  0  2  0  0  0  0  0  0
  162.1850  205.9080  146.5500 C   0  0  1  0  0  3  0  0  0  0  0  0
  163.4130  205.4480  147.0350 O   0  0  0  0  0  1  0  0  0  0  0  0
  162.3810  203.6470  145.4690 C   0  0  0  0  0  1  0  0  0  0  0  0
  161.4230  204.7660  145.8610 C   0  0  2  0  0  3  0  0  0  0  0  0
  159.7850  206.2690  144.9540 F   0  0  0  0  0  0  0  0  0  0  0  0
  160.6480  205.2390  144.6200 C   0  0  0  0  0  0  0  0  0  0  0  0
  159.8960  204.1980  144.1080 F   0  0  0  0  0  0  0  0  0  0  0  0
  161.5270  205.6840  143.6450 F   0  0  0  0  0  0  0  0  0  0  0  0
  1 30  1  1  0  0  0
  1  3  1  0  0  0  0
  1  4  1  0  0  0  0
  2 19  1  1  0  0  0
  3  5  1  0  0  0  0
  4  2  1  0  0  0  0
  4  6  1  1  0  0  0
  5  2  1  0  0  0  0
  6  7  1  1  0  0  0
  6 16  1  0  0  0  0
  7  8  2  0  0  0  0
  9  7  1  0  0  0  0
 10 13  1  0  0  0  0
 11 10  2  0  0  0  0
 11 12  1  0  0  0  0
 12 15  2  0  0  0  0
 13  9  1  0  0  0  0
 13 14  2  0  0  0  0
 15 14  1  0  0  0  0
 16 18  1  0  0  0  0
 18 17  1  0  0  0  0
 19 25  1  0  0  0  0
 20 22  1  0  0  0  0
 20 26  1  0  0  0  0
 21 24  1  0  0  0  0
 21 28  2  0  0  0  0
 23 27  1  0  0  0  0
 24 20  2  0  0  0  0
 25 21  1  0  0  0  0
 27 22  2  0  0  0  0
 28 26  1  0  0  0  0
 29 24  1  0  0  0  0
 29 27  1  0  0  0  0
 31 30  1  0  0  0  0
 32 33  1  1  0  0  0
 32 31  1  0  0  0  0
 35 34  1  6  0  0  0
 35 32  1  0  0  0  0
 37 36  1  0  0  0  0
 37 35  1  0  0  0  0
 38 37  1  0  0  0  0
 39 37  1  0  0  0  0
M  END
>  <MODEL>
2

>  <REMARK>
 VINA RESULT:      -7.6      1.757      2.031
  Name = 
  13 active torsions:
  status: ('A' for Active; 'I' for Inactive)
    1  A    between atoms: O_1  and  C_11
    2  A    between atoms: O_1  and  C_21
    3  A    between atoms: C_3  and  C_35
    4  A    between atoms: C_9  and  C_28
    5  A    between atoms: C_9  and  C_29
    6  A    between atoms: C_11  and  C_20
    7  A    between atoms: C_11  and  C_26
    8  A    between atoms: C_12  and  C_28
    9  A    between atoms: C_15  and  C_22
   10  A    between atoms: C_18  and  C_22
   11  A    between atoms: C_19  and  C_20
   12  A    between atoms: C_19  and  C_27
   13  A    between atoms: C_29  and  C_35
                            x       y       z     vdW  Elec       q    Type
                         _______ _______ _______ _____ _____    ______ ____

>  <TORSDO>
F 13

$$$$
=
 OpenBabel11042421173D

 39 42  0  0  1  0  0  0  0  0999 V2000
  161.8050  206.3020  151.3790 C   0  0  2  0  0  3  0  0  0  0  0  0
  162.1940  208.3710  152.3870 C   0  0  2  0  0  3  0  0  0  0  0  0
  160.7900  206.5090  152.4890 C   0  0  0  0  0  2  0  0  0  0  0  0
  162.2970  207.6910  151.0210 C   0  0  2  0  0  3  0  0  0  0  0  0
  161.0710  207.7950  153.1220 N   0  0  0  0  0  2  0  0  0  0  0  0
  161.4870  208.3400  149.8700 C   0  0  2  0  0  3  0  0  0  0  0  0
  161.8440  207.7310  148.5370 C   0  0  0  0  0  0  0  0  0  0  0  0
  163.0190  207.5540  148.2660 O   0  0  0  0  0  0  0  0  0  0  0  0
  160.7990  207.3140  147.5440 C   0  0  0  0  0  2  0  0  0  0  0  0
  160.4930  205.8110  145.5740 C   0  0  0  0  0  3  0  0  0  0  0  0
  160.9580  204.8220  144.7020 C   0  0  0  0  0  3  0  0  0  0  0  0
  162.2260  204.2590  144.8970 C   0  0  0  0  0  3  0  0  0  0  0  0
  161.2900  206.2320  146.6420 C   0  0  0  0  0  0  0  0  0  0  0  0
  162.5620  205.6720  146.8300 C   0  0  0  0  0  3  0  0  0  0  0  0
  163.0290  204.6840  145.9600 C   0  0  0  0  0  3  0  0  0  0  0  0
  161.5780  209.7370  149.8750 O   0  0  0  0  0  0  0  0  0  0  0  0
  162.0670  211.4890  148.4920 O   0  0  0  0  0  1  0  0  0  0  0  0
  161.9930  210.0990  148.5910 C   0  0  0  0  0  2  0  0  0  0  0  0
  162.2770  209.9060  152.4600 C   0  0  0  0  0  2  0  0  0  0  0  0
  159.7240  211.7110  156.1290 C   0  0  0  0  0  0  0  0  0  0  0  0
  160.9160  210.9500  154.2690 C   0  0  0  0  0  0  0  0  0  0  0  0
  158.4860  211.6330  156.6450 N   0  0  0  0  0  0  0  0  0  0  0  0
  156.2440  211.2600  155.5950 C   0  0  0  0  0  1  0  0  0  0  0  0
  159.6890  211.4730  154.8130 C   0  0  0  0  0  0  0  0  0  0  0  0
  161.0450  210.5620  153.0020 C   0  0  0  0  0  2  0  0  0  0  0  0
  161.2780  211.4000  156.9440 S   0  0  0  0  0  0  0  0  0  0  0  0
  157.7250  211.4320  155.5370 C   0  0  0  0  0  0  0  0  0  0  0  0
  161.9780  210.8130  155.3300 C   0  0  0  0  0  3  0  0  0  0  0  0
  158.4320  211.2640  154.3910 N   0  0  0  0  0  2  0  0  0  0  0  0
  161.2560  205.4730  150.2280 C   0  0  0  0  0  2  0  0  0  0  0  0
  160.4620  204.3080  150.7810 C   0  0  0  0  0  2  0  0  0  0  0  0
  161.1310  202.9840  150.4470 C   0  0  1  0  0  3  0  0  0  0  0  0
  161.2940  202.2470  151.6240 O   0  0  0  0  0  1  0  0  0  0  0  0
  159.7480  200.9170  150.0740 C   0  0  0  0  0  1  0  0  0  0  0  0
  160.2920  202.1890  149.4340 C   0  0  2  0  0  3  0  0  0  0  0  0
  162.0360  202.7990  147.9000 F   0  0  0  0  0  0  0  0  0  0  0  0
  161.0840  201.8290  148.1670 C   0  0  0  0  0  0  0  0  0  0  0  0
  160.2310  201.7550  147.0810 F   0  0  0  0  0  0  0  0  0  0  0  0
  161.7180  200.6070  148.3270 F   0  0  0  0  0  0  0  0  0  0  0  0
  1 30  1  6  0  0  0
  1  3  1  0  0  0  0
  2 19  1  6  0  0  0
  2  5  1  0  0  0  0
  3  5  1  0  0  0  0
  4  6  1  6  0  0  0
  4  1  1  0  0  0  0
  4  2  1  0  0  0  0
  6  7  1  6  0  0  0
  6 16  1  0  0  0  0
  8  7  2  0  0  0  0
  9  7  1  0  0  0  0
 10 13  1  0  0  0  0
 11 12  1  0  0  0  0
 11 10  2  0  0  0  0
 12 15  2  0  0  0  0
 13 14  2  0  0  0  0
 13  9  1  0  0  0  0
 15 14  1  0  0  0  0
 17 18  1  0  0  0  0
 18 16  1  0  0  0  0
 19 25  1  0  0  0  0
 20 22  1  0  0  0  0
 20 26  1  0  0  0  0
 21 24  1  0  0  0  0
 21 28  2  0  0  0  0
 24 20  2  0  0  0  0
 25 21  1  0  0  0  0
 27 23  1  0  0  0  0
 27 22  2  0  0  0  0
 28 26  1  0  0  0  0
 29 24  1  0  0  0  0
 29 27  1  0  0  0  0
 30 31  1  0  0  0  0
 32 31  1  0  0  0  0
 32 33  1  1  0  0  0
 35 34  1  1  0  0  0
 35 32  1  0  0  0  0
 36 37  1  0  0  0  0
 37 39  1  0  0  0  0
 37 35  1  0  0  0  0
 38 37  1  0  0  0  0
M  END
>  <MODEL>
3

>  <REMARK>
 VINA RESULT:      -7.4      2.227      4.249
  Name = 
  13 active torsions:
  status: ('A' for Active; 'I' for Inactive)
    1  A    between atoms: O_1  and  C_11
    2  A    between atoms: O_1  and  C_21
    3  A    between atoms: C_3  and  C_35
    4  A    between atoms: C_9  and  C_28
    5  A    between atoms: C_9  and  C_29
    6  A    between atoms: C_11  and  C_20
    7  A    between atoms: C_11  and  C_26
    8  A    between atoms: C_12  and  C_28
    9  A    between atoms: C_15  and  C_22
   10  A    between atoms: C_18  and  C_22
   11  A    between atoms: C_19  and  C_20
   12  A    between atoms: C_19  and  C_27
   13  A    between atoms: C_29  and  C_35
                            x       y       z     vdW  Elec       q    Type
                         _______ _______ _______ _____ _____    ______ ____

>  <TORSDO>
F 13

$$$$
=
 OpenBabel11042421173D

 39 42  0  0  1  0  0  0  0  0999 V2000
  160.8180  206.9850  149.0470 C   0  0  2  0  0  3  0  0  0  0  0  0
  161.7410  209.1220  148.8780 C   0  0  2  0  0  3  0  0  0  0  0  0
  162.1130  206.9020  148.2580 C   0  0  0  0  0  2  0  0  0  0  0  0
  160.9140  208.2710  149.8440 C   0  0  2  0  0  3  0  0  0  0  0  0
  162.6550  208.2530  148.1420 N   0  0  0  0  0  2  0  0  0  0  0  0
  161.5150  208.0620  151.2570 C   0  0  2  0  0  3  0  0  0  0  0  0
  161.4640  209.3320  152.0690 C   0  0  0  0  0  0  0  0  0  0  0  0
  162.5110  209.8730  152.3820 O   0  0  0  0  0  0  0  0  0  0  0  0
  160.1670  209.9650  152.4820 C   0  0  0  0  0  2  0  0  0  0  0  0
  160.1680  211.7650  154.2120 C   0  0  0  0  0  3  0  0  0  0  0  0
  160.1570  212.1840  155.5460 C   0  0  0  0  0  3  0  0  0  0  0  0
  160.1620  211.2350  156.5760 C   0  0  0  0  0  3  0  0  0  0  0  0
  160.1920  210.4010  153.9080 C   0  0  0  0  0  0  0  0  0  0  0  0
  160.1900  209.4530  154.9430 C   0  0  0  0  0  3  0  0  0  0  0  0
  160.1780  209.8690  156.2750 C   0  0  0  0  0  3  0  0  0  0  0  0
  162.7930  207.4910  151.2140 O   0  0  0  0  0  0  0  0  0  0  0  0
  161.7640  206.4910  152.9930 O   0  0  0  0  0  1  0  0  0  0  0  0
  162.7230  206.3320  151.9920 C   0  0  0  0  0  2  0  0  0  0  0  0
  162.3830  210.4210  149.3960 C   0  0  0  0  0  2  0  0  0  0  0  0
  161.2460  214.1100  146.5100 C   0  0  0  0  0  0  0  0  0  0  0  0
  161.9290  212.3840  147.9290 C   0  0  0  0  0  0  0  0  0  0  0  0
  161.3200  214.4500  145.2120 N   0  0  0  0  0  0  0  0  0  0  0  0
  162.9600  213.8720  143.4110 C   0  0  0  0  0  1  0  0  0  0  0  0
  162.2240  213.2520  146.8170 C   0  0  0  0  0  0  0  0  0  0  0  0
  162.7360  211.4020  148.3220 C   0  0  0  0  0  2  0  0  0  0  0  0
  159.8040  214.0670  147.5560 S   0  0  0  0  0  0  0  0  0  0  0  0
  162.4530  213.8130  144.8130 C   0  0  0  0  0  0  0  0  0  0  0  0
  160.5670  212.6710  148.5090 C   0  0  0  0  0  3  0  0  0  0  0  0
  163.0100  213.0110  145.7550 N   0  0  0  0  0  2  0  0  0  0  0  0
  160.5380  205.7230  149.8500 C   0  0  0  0  0  2  0  0  0  0  0  0
  160.8860  204.5080  149.0160 C   0  0  0  0  0  2  0  0  0  0  0  0
  161.0970  203.2850  149.8960 C   0  0  1  0  0  3  0  0  0  0  0  0
  160.5660  203.5410  151.1640 O   0  0  0  0  0  1  0  0  0  0  0  0
  160.5350  200.8570  150.2240 C   0  0  0  0  0  1  0  0  0  0  0  0
  160.4280  202.0480  149.2790 C   0  0  2  0  0  3  0  0  0  0  0  0
  162.0120  202.5790  147.5530 F   0  0  0  0  0  0  0  0  0  0  0  0
  161.0250  201.6750  147.9120 C   0  0  0  0  0  0  0  0  0  0  0  0
  160.0410  201.7070  146.9410 F   0  0  0  0  0  0  0  0  0  0  0  0
  161.5740  200.4030  147.9580 F   0  0  0  0  0  0  0  0  0  0  0  0
  1  4  1  0  0  0  0
  1 30  1  1  0  0  0
  2 19  1  1  0  0  0
  2  4  1  0  0  0  0
  3  1  1  0  0  0  0
  4  6  1  1  0  0  0
  5  3  1  0  0  0  0
  5  2  1  0  0  0  0
  6 16  1  6  0  0  0
  6  7  1  0  0  0  0
  7  8  2  0  0  0  0
  7  9  1  0  0  0  0
  9 13  1  0  0  0  0
 10 11  1  0  0  0  0
 11 12  2  0  0  0  0
 13 10  2  0  0  0  0
 13 14  1  0  0  0  0
 14 15  2  0  0  0  0
 15 12  1  0  0  0  0
 16 18  1  0  0  0  0
 18 17  1  0  0  0  0
 20 24  2  0  0  0  0
 20 26  1  0  0  0  0
 21 25  1  0  0  0  0
 21 28  2  0  0  0  0
 22 20  1  0  0  0  0
 23 27  1  0  0  0  0
 24 21  1  0  0  0  0
 25 19  1  0  0  0  0
 26 28  1  0  0  0  0
 27 22  2  0  0  0  0
 27 29  1  0  0  0  0
 29 24  1  0  0  0  0
 31 30  1  0  0  0  0
 31 32  1  0  0  0  0
 32 33  1  1  0  0  0
 35 32  1  0  0  0  0
 35 34  1  1  0  0  0
 36 37  1  0  0  0  0
 37 39  1  0  0  0  0
 37 35  1  0  0  0  0
 38 37  1  0  0  0  0
M  END
>  <MODEL>
4

>  <REMARK>
 VINA RESULT:      -7.2      3.262      6.925
  Name = 
  13 active torsions:
  status: ('A' for Active; 'I' for Inactive)
    1  A    between atoms: O_1  and  C_11
    2  A    between atoms: O_1  and  C_21
    3  A    between atoms: C_3  and  C_35
    4  A    between atoms: C_9  and  C_28
    5  A    between atoms: C_9  and  C_29
    6  A    between atoms: C_11  and  C_20
    7  A    between atoms: C_11  and  C_26
    8  A    between atoms: C_12  and  C_28
    9  A    between atoms: C_15  and  C_22
   10  A    between atoms: C_18  and  C_22
   11  A    between atoms: C_19  and  C_20
   12  A    between atoms: C_19  and  C_27
   13  A    between atoms: C_29  and  C_35
                            x       y       z     vdW  Elec       q    Type
                         _______ _______ _______ _____ _____    ______ ____

>  <TORSDO>
F 13

$$$$
=
 OpenBabel11042421173D

 39 42  0  0  1  0  0  0  0  0999 V2000
  159.3650  209.3110  155.8440 C   0  0  2  0  0  3  0  0  0  0  0  0
  160.5320  207.6180  154.7380 C   0  0  2  0  0  3  0  0  0  0  0  0
  160.0000  208.3950  156.8750 C   0  0  0  0  0  2  0  0  0  0  0  0
  160.1560  209.0920  154.5690 C   0  0  2  0  0  3  0  0  0  0  0  0
  160.6990  207.3290  156.1590 N   0  0  0  0  0  2  0  0  0  0  0  0
  161.3360  210.0850  154.4150 C   0  0  2  0  0  3  0  0  0  0  0  0
  161.5770  210.4290  152.9660 C   0  0  0  0  0  0  0  0  0  0  0  0
  162.6960  210.2810  152.5040 O   0  0  0  0  0  0  0  0  0  0  0  0
  160.4800  210.9220  152.0690 C   0  0  0  0  0  2  0  0  0  0  0  0
  161.7630  210.5490  149.9600 C   0  0  0  0  0  3  0  0  0  0  0  0
  162.2350  210.9840  148.7180 C   0  0  0  0  0  3  0  0  0  0  0  0
  161.9430  212.2800  148.2750 C   0  0  0  0  0  3  0  0  0  0  0  0
  161.0080  211.4090  150.7610 C   0  0  0  0  0  0  0  0  0  0  0  0
  160.7120  212.7050  150.3120 C   0  0  0  0  0  3  0  0  0  0  0  0
  161.1810  213.1410  149.0710 C   0  0  0  0  0  3  0  0  0  0  0  0
  162.4920  209.6470  155.0720 O   0  0  0  0  0  0  0  0  0  0  0  0
  163.1280  210.0990  157.2200 O   0  0  0  0  0  1  0  0  0  0  0  0
  162.8270  210.6570  155.9770 C   0  0  0  0  0  2  0  0  0  0  0  0
  161.6290  207.0250  153.8380 C   0  0  0  0  0  2  0  0  0  0  0  0
  160.8050  204.4330  149.8590 C   0  0  0  0  0  0  0  0  0  0  0  0
  161.0870  205.7720  151.7530 C   0  0  0  0  0  0  0  0  0  0  0  0
  161.1430  204.4270  148.5580 N   0  0  0  0  0  0  0  0  0  0  0  0
  161.6760  206.2680  146.9480 C   0  0  0  0  0  1  0  0  0  0  0  0
  160.8400  205.6830  150.3370 C   0  0  0  0  0  0  0  0  0  0  0  0
  161.2530  206.9270  152.3930 C   0  0  0  0  0  2  0  0  0  0  0  0
  161.0040  203.1270  151.0540 S   0  0  0  0  0  0  0  0  0  0  0  0
  161.2810  205.7520  148.2910 C   0  0  0  0  0  0  0  0  0  0  0  0
  161.2280  204.4070  152.3780 C   0  0  0  0  0  3  0  0  0  0  0  0
  161.1650  206.5610  149.3750 N   0  0  0  0  0  2  0  0  0  0  0  0
  159.2590  210.7510  156.3240 C   0  0  0  0  0  2  0  0  0  0  0  0
  158.0080  211.3820  155.7510 C   0  0  0  0  0  2  0  0  0  0  0  0
  158.2820  212.7990  155.2730 C   0  0  1  0  0  3  0  0  0  0  0  0
  159.6650  213.0000  155.2170 O   0  0  0  0  0  1  0  0  0  0  0  0
  158.5350  213.9640  153.0590 C   0  0  0  0  0  1  0  0  0  0  0  0
  157.6530  213.0410  153.8930 C   0  0  2  0  0  3  0  0  0  0  0  0
  155.2930  212.6140  154.0060 F   0  0  0  0  0  0  0  0  0  0  0  0
  156.2360  213.6280  153.9860 C   0  0  0  0  0  0  0  0  0  0  0  0
  155.9820  214.4280  152.8850 F   0  0  0  0  0  0  0  0  0  0  0  0
  156.1050  214.3890  155.1360 F   0  0  0  0  0  0  0  0  0  0  0  0
  1 30  1  1  0  0  0
  1  3  1  0  0  0  0
  2 19  1  6  0  0  0
  2  5  1  0  0  0  0
  4  6  1  1  0  0  0
  4  2  1  0  0  0  0
  4  1  1  0  0  0  0
  5  3  1  0  0  0  0
  6  7  1  6  0  0  0
  6 16  1  0  0  0  0
  8  7  2  0  0  0  0
  9  7  1  0  0  0  0
 10 13  1  0  0  0  0
 11 10  2  0  0  0  0
 12 11  1  0  0  0  0
 12 15  2  0  0  0  0
 13  9  1  0  0  0  0
 14 13  2  0  0  0  0
 15 14  1  0  0  0  0
 16 18  1  0  0  0  0
 18 17  1  0  0  0  0
 20 24  2  0  0  0  0
 20 26  1  0  0  0  0
 21 28  2  0  0  0  0
 21 25  1  0  0  0  0
 22 20  1  0  0  0  0
 23 27  1  0  0  0  0
 24 21  1  0  0  0  0
 25 19  1  0  0  0  0
 26 28  1  0  0  0  0
 27 22  2  0  0  0  0
 27 29  1  0  0  0  0
 29 24  1  0  0  0  0
 31 30  1  0  0  0  0
 32 33  1  6  0  0  0
 32 31  1  0  0  0  0
 35 34  1  6  0  0  0
 35 37  1  0  0  0  0
 35 32  1  0  0  0  0
 37 36  1  0  0  0  0
 37 39  1  0  0  0  0
 38 37  1  0  0  0  0
M  END
>  <MODEL>
5

>  <REMARK>
 VINA RESULT:      -7.2      5.176      9.342
  Name = 
  13 active torsions:
  status: ('A' for Active; 'I' for Inactive)
    1  A    between atoms: O_1  and  C_11
    2  A    between atoms: O_1  and  C_21
    3  A    between atoms: C_3  and  C_35
    4  A    between atoms: C_9  and  C_28
    5  A    between atoms: C_9  and  C_29
    6  A    between atoms: C_11  and  C_20
    7  A    between atoms: C_11  and  C_26
    8  A    between atoms: C_12  and  C_28
    9  A    between atoms: C_15  and  C_22
   10  A    between atoms: C_18  and  C_22
   11  A    between atoms: C_19  and  C_20
   12  A    between atoms: C_19  and  C_27
   13  A    between atoms: C_29  and  C_35
                            x       y       z     vdW  Elec       q    Type
                         _______ _______ _______ _____ _____    ______ ____

>  <TORSDO>
F 13

$$$$
=
 OpenBabel11042421173D

 39 42  0  0  1  0  0  0  0  0999 V2000
  159.5280  209.0120  155.7570 C   0  0  2  0  0  3  0  0  0  0  0  0
  160.6260  207.9800  153.9740 C   0  0  2  0  0  3  0  0  0  0  0  0
  160.6040  208.0920  156.3060 C   0  0  0  0  0  2  0  0  0  0  0  0
  159.9380  209.3010  154.3260 C   0  0  2  0  0  3  0  0  0  0  0  0
  161.2560  207.4380  155.1740 N   0  0  0  0  0  2  0  0  0  0  0  0
  160.8020  210.5800  154.1920 C   0  0  2  0  0  3  0  0  0  0  0  0
  160.4930  211.3210  152.9150 C   0  0  0  0  0  0  0  0  0  0  0  0
  160.6750  210.7580  151.8490 O   0  0  0  0  0  0  0  0  0  0  0  0
  159.9440  212.7180  152.9150 C   0  0  0  0  0  2  0  0  0  0  0  0
  160.2230  213.4670  150.5500 C   0  0  0  0  0  3  0  0  0  0  0  0
  159.6970  213.7830  149.2930 C   0  0  0  0  0  3  0  0  0  0  0  0
  158.3150  213.7120  149.0750 C   0  0  0  0  0  3  0  0  0  0  0  0
  159.3690  213.0880  151.5890 C   0  0  0  0  0  0  0  0  0  0  0  0
  157.9860  213.0110  151.3660 C   0  0  0  0  0  3  0  0  0  0  0  0
  157.4590  213.3250  150.1120 C   0  0  0  0  0  3  0  0  0  0  0  0
  162.1680  210.3200  154.3550 O   0  0  0  0  0  0  0  0  0  0  0  0
  163.2140  210.2500  156.3860 O   0  0  0  0  0  1  0  0  0  0  0  0
  162.5740  211.0740  155.4600 C   0  0  0  0  0  2  0  0  0  0  0  0
  161.5050  207.9150  152.7130 C   0  0  0  0  0  2  0  0  0  0  0  0
  161.3100  204.8270  149.0180 C   0  0  0  0  0  0  0  0  0  0  0  0
  161.5300  206.2580  150.8520 C   0  0  0  0  0  0  0  0  0  0  0  0
  160.8090  203.6140  148.7280 N   0  0  0  0  0  0  0  0  0  0  0  0
  160.4130  201.5770  150.1270 C   0  0  0  0  0  1  0  0  0  0  0  0
  161.5670  204.9160  150.3280 C   0  0  0  0  0  0  0  0  0  0  0  0
  161.6640  206.5390  152.1460 C   0  0  0  0  0  2  0  0  0  0  0  0
  161.0350  206.3650  148.1630 S   0  0  0  0  0  0  0  0  0  0  0  0
  160.8810  202.9790  149.9280 C   0  0  0  0  0  0  0  0  0  0  0  0
  161.2260  207.2660  149.7730 C   0  0  0  0  0  3  0  0  0  0  0  0
  161.2850  203.7650  150.9580 N   0  0  0  0  0  2  0  0  0  0  0  0
  159.2890  210.2280  156.6400 C   0  0  0  0  0  2  0  0  0  0  0  0
  157.9330  210.8220  156.3220 C   0  0  0  0  0  2  0  0  0  0  0  0
  157.9810  212.3420  156.3560 C   0  0  1  0  0  3  0  0  0  0  0  0
  159.3100  212.7510  156.4970 O   0  0  0  0  0  1  0  0  0  0  0  0
  157.5280  214.4520  155.0670 C   0  0  0  0  0  1  0  0  0  0  0  0
  157.3740  212.9350  155.0760 C   0  0  2  0  0  3  0  0  0  0  0  0
  155.7710  211.3080  154.3340 F   0  0  0  0  0  0  0  0  0  0  0  0
  155.8920  212.5670  154.9000 C   0  0  0  0  0  0  0  0  0  0  0  0
  155.2750  213.4760  154.0600 F   0  0  0  0  0  0  0  0  0  0  0  0
  155.2460  212.5740  156.1260 F   0  0  0  0  0  0  0  0  0  0  0  0
  1  3  1  0  0  0  0
  1 30  1  1  0  0  0
  2 19  1  6  0  0  0
  2  4  1  0  0  0  0
  2  5  1  0  0  0  0
  4  6  1  1  0  0  0
  4  1  1  0  0  0  0
  5  3  1  0  0  0  0
  6  7  1  6  0  0  0
  6 16  1  0  0  0  0
  8  7  2  0  0  0  0
  9  7  1  0  0  0  0
 10 13  1  0  0  0  0
 11 10  2  0  0  0  0
 12 11  1  0  0  0  0
 12 15  2  0  0  0  0
 13  9  1  0  0  0  0
 14 13  2  0  0  0  0
 15 14  1  0  0  0  0
 16 18  1  0  0  0  0
 18 17  1  0  0  0  0
 20 24  2  0  0  0  0
 21 25  1  0  0  0  0
 22 20  1  0  0  0  0
 22 27  2  0  0  0  0
 24 21  1  0  0  0  0
 24 29  1  0  0  0  0
 25 19  1  0  0  0  0
 26 20  1  0  0  0  0
 26 28  1  0  0  0  0
 27 23  1  0  0  0  0
 27 29  1  0  0  0  0
 28 21  2  0  0  0  0
 31 32  1  0  0  0  0
 31 30  1  0  0  0  0
 32 33  1  6  0  0  0
 35 34  1  1  0  0  0
 35 32  1  0  0  0  0
 36 37  1  0  0  0  0
 37 35  1  0  0  0  0
 37 39  1  0  0  0  0
 38 37  1  0  0  0  0
M  END
>  <MODEL>
6

>  <REMARK>
 VINA RESULT:      -6.8      5.013      9.805
  Name = 
  13 active torsions:
  status: ('A' for Active; 'I' for Inactive)
    1  A    between atoms: O_1  and  C_11
    2  A    between atoms: O_1  and  C_21
    3  A    between atoms: C_3  and  C_35
    4  A    between atoms: C_9  and  C_28
    5  A    between atoms: C_9  and  C_29
    6  A    between atoms: C_11  and  C_20
    7  A    between atoms: C_11  and  C_26
    8  A    between atoms: C_12  and  C_28
    9  A    between atoms: C_15  and  C_22
   10  A    between atoms: C_18  and  C_22
   11  A    between atoms: C_19  and  C_20
   12  A    between atoms: C_19  and  C_27
   13  A    between atoms: C_29  and  C_35
                            x       y       z     vdW  Elec       q    Type
                         _______ _______ _______ _____ _____    ______ ____

>  <TORSDO>
F 13

$$$$
=
 OpenBabel11042421173D

 39 42  0  0  1  0  0  0  0  0999 V2000
  160.7950  208.8260  152.5130 C   0  0  2  0  0  3  0  0  0  0  0  0
  160.4600  210.9930  151.7120 C   0  0  2  0  0  3  0  0  0  0  0  0
  162.0910  209.3330  151.9080 C   0  0  0  0  0  2  0  0  0  0  0  0
  159.9880  210.0680  152.8360 C   0  0  2  0  0  3  0  0  0  0  0  0
  161.8490  210.6780  151.3880 N   0  0  0  0  0  2  0  0  0  0  0  0
  160.2170  210.5770  154.2820 C   0  0  2  0  0  3  0  0  0  0  0  0
  159.1490  211.5590  154.6940 C   0  0  0  0  0  0  0  0  0  0  0  0
  159.4650  212.5260  155.3660 O   0  0  0  0  0  0  0  0  0  0  0  0
  157.7140  211.3980  154.2820 C   0  0  0  0  0  2  0  0  0  0  0  0
  156.3200  211.4530  156.3520 C   0  0  0  0  0  3  0  0  0  0  0  0
  155.4780  212.1210  157.2460 C   0  0  0  0  0  3  0  0  0  0  0  0
  155.1100  213.4500  157.0000 C   0  0  0  0  0  3  0  0  0  0  0  0
  156.7870  212.1080  155.2100 C   0  0  0  0  0  0  0  0  0  0  0  0
  156.4230  213.4410  154.9690 C   0  0  0  0  0  3  0  0  0  0  0  0
  155.5820  214.1110  155.8610 C   0  0  0  0  0  3  0  0  0  0  0  0
  161.5140  211.0680  154.4750 O   0  0  0  0  0  0  0  0  0  0  0  0
  161.8870  211.1170  156.7290 O   0  0  0  0  0  1  0  0  0  0  0  0
  162.0340  210.3630  155.5640 C   0  0  0  0  0  2  0  0  0  0  0  0
  160.1600  212.4980  151.8140 C   0  0  0  0  0  2  0  0  0  0  0  0
  157.5130  214.4090  148.2680 C   0  0  0  0  0  0  0  0  0  0  0  0
  158.8880  213.5970  149.9730 C   0  0  0  0  0  0  0  0  0  0  0  0
  157.4240  214.3690  146.9280 N   0  0  0  0  0  0  0  0  0  0  0  0
  159.1400  214.0440  145.1340 C   0  0  0  0  0  1  0  0  0  0  0  0
  158.7700  214.1580  148.6520 C   0  0  0  0  0  0  0  0  0  0  0  0
  160.0450  213.1920  150.4930 C   0  0  0  0  0  2  0  0  0  0  0  0
  156.2410  214.0660  149.4660 S   0  0  0  0  0  0  0  0  0  0  0  0
  158.7180  214.1770  146.5590 C   0  0  0  0  0  0  0  0  0  0  0  0
  157.5420  213.4420  150.6320 C   0  0  0  0  0  3  0  0  0  0  0  0
  159.5750  213.9780  147.5920 N   0  0  0  0  0  2  0  0  0  0  0  0
  161.0240  207.8620  153.6670 C   0  0  0  0  0  2  0  0  0  0  0  0
  160.9350  206.4380  153.1590 C   0  0  0  0  0  2  0  0  0  0  0  0
  161.6370  206.2930  151.8180 C   0  0  1  0  0  3  0  0  0  0  0  0
  162.9340  205.8150  152.0330 O   0  0  0  0  0  1  0  0  0  0  0  0
  161.3280  203.9000  151.1120 C   0  0  0  0  0  1  0  0  0  0  0  0
  160.8640  205.3360  150.8980 C   0  0  2  0  0  3  0  0  0  0  0  0
  161.9510  206.7040  149.2500 F   0  0  0  0  0  0  0  0  0  0  0  0
  161.0030  205.7060  149.4120 C   0  0  0  0  0  0  0  0  0  0  0  0
  159.7970  206.1780  148.9270 F   0  0  0  0  0  0  0  0  0  0  0  0
  161.3850  204.5970  148.6740 F   0  0  0  0  0  0  0  0  0  0  0  0
  1  4  1  0  0  0  0
  1 30  1  1  0  0  0
  2 19  1  1  0  0  0
  2  4  1  0  0  0  0
  3  1  1  0  0  0  0
  4  6  1  1  0  0  0
  5  2  1  0  0  0  0
  5  3  1  0  0  0  0
  6 16  1  6  0  0  0
  6  7  1  0  0  0  0
  7  8  2  0  0  0  0
  9  7  1  0  0  0  0
  9 13  1  0  0  0  0
 10 11  1  0  0  0  0
 12 11  2  0  0  0  0
 13 10  2  0  0  0  0
 14 13  1  0  0  0  0
 14 15  2  0  0  0  0
 15 12  1  0  0  0  0
 16 18  1  0  0  0  0
 18 17  1  0  0  0  0
 20 24  2  0  0  0  0
 20 26  1  0  0  0  0
 21 25  1  0  0  0  0
 21 28  2  0  0  0  0
 22 20  1  0  0  0  0
 23 27  1  0  0  0  0
 24 21  1  0  0  0  0
 25 19  1  0  0  0  0
 26 28  1  0  0  0  0
 27 22  2  0  0  0  0
 27 29  1  0  0  0  0
 29 24  1  0  0  0  0
 31 30  1  0  0  0  0
 32 33  1  1  0  0  0
 32 31  1  0  0  0  0
 35 34  1  6  0  0  0
 35 32  1  0  0  0  0
 36 37  1  0  0  0  0
 37 35  1  0  0  0  0
 38 37  1  0  0  0  0
 39 37  1  0  0  0  0
M  END
>  <MODEL>
7

>  <REMARK>
 VINA RESULT:      -6.7      3.286      7.506
  Name = 
  13 active torsions:
  status: ('A' for Active; 'I' for Inactive)
    1  A    between atoms: O_1  and  C_11
    2  A    between atoms: O_1  and  C_21
    3  A    between atoms: C_3  and  C_35
    4  A    between atoms: C_9  and  C_28
    5  A    between atoms: C_9  and  C_29
    6  A    between atoms: C_11  and  C_20
    7  A    between atoms: C_11  and  C_26
    8  A    between atoms: C_12  and  C_28
    9  A    between atoms: C_15  and  C_22
   10  A    between atoms: C_18  and  C_22
   11  A    between atoms: C_19  and  C_20
   12  A    between atoms: C_19  and  C_27
   13  A    between atoms: C_29  and  C_35
                            x       y       z     vdW  Elec       q    Type
                         _______ _______ _______ _____ _____    ______ ____

>  <TORSDO>
F 13

$$$$
=
 OpenBabel11042421173D

 39 42  0  0  1  0  0  0  0  0999 V2000
  159.6840  210.4210  153.0260 C   0  0  2  0  0  3  0  0  0  0  0  0
  160.5530  208.2660  152.8010 C   0  0  2  0  0  3  0  0  0  0  0  0
  160.1170  209.9190  154.3920 C   0  0  0  0  0  2  0  0  0  0  0  0
  160.4550  209.5820  152.0250 C   0  0  2  0  0  3  0  0  0  0  0  0
  160.6300  208.5600  154.2290 N   0  0  0  0  0  2  0  0  0  0  0  0
  161.7980  210.2300  151.6030 C   0  0  2  0  0  3  0  0  0  0  0  0
  161.9540  210.2410  150.1030 C   0  0  0  0  0  0  0  0  0  0  0  0
  161.6860  209.2300  149.4750 O   0  0  0  0  0  0  0  0  0  0  0  0
  162.4050  211.4620  149.3560 C   0  0  0  0  0  2  0  0  0  0  0  0
  160.8770  212.0350  147.4670 C   0  0  0  0  0  3  0  0  0  0  0  0
  159.7780  212.7230  146.9430 C   0  0  0  0  0  3  0  0  0  0  0  0
  159.0490  213.5990  147.7580 C   0  0  0  0  0  3  0  0  0  0  0  0
  161.2530  212.2280  148.7990 C   0  0  0  0  0  0  0  0  0  0  0  0
  160.5170  213.1020  149.6140 C   0  0  0  0  0  3  0  0  0  0  0  0
  159.4190  213.7890  149.0940 C   0  0  0  0  0  3  0  0  0  0  0  0
  162.8950  209.6600  152.2620 O   0  0  0  0  0  0  0  0  0  0  0  0
  163.0730  210.6990  154.2900 O   0  0  0  0  0  1  0  0  0  0  0  0
  163.5060  210.7030  152.9630 C   0  0  0  0  0  2  0  0  0  0  0  0
  161.5470  207.1950  152.3210 C   0  0  0  0  0  2  0  0  0  0  0  0
  160.8300  203.3670  149.4820 C   0  0  0  0  0  0  0  0  0  0  0  0
  161.0610  205.2860  150.7940 C   0  0  0  0  0  0  0  0  0  0  0  0
  161.2030  202.9100  148.2740 N   0  0  0  0  0  0  0  0  0  0  0  0
  161.7790  204.0750  146.1350 C   0  0  0  0  0  1  0  0  0  0  0  0
  160.8520  204.7050  149.4930 C   0  0  0  0  0  0  0  0  0  0  0  0
  161.2100  206.5940  150.9930 C   0  0  0  0  0  2  0  0  0  0  0  0
  160.9980  202.5640  151.0630 S   0  0  0  0  0  0  0  0  0  0  0  0
  161.3480  204.0590  147.5640 C   0  0  0  0  0  0  0  0  0  0  0  0
  161.1860  204.2290  151.8600 C   0  0  0  0  0  3  0  0  0  0  0  0
  161.2020  205.1940  148.2920 N   0  0  0  0  0  2  0  0  0  0  0  0
  159.8290  211.9290  152.8820 C   0  0  0  0  0  2  0  0  0  0  0  0
  158.4550  212.5620  152.8120 C   0  0  0  0  0  2  0  0  0  0  0  0
  157.8950  212.8050  154.2050 C   0  0  1  0  0  3  0  0  0  0  0  0
  158.1150  214.1410  154.5570 O   0  0  0  0  0  1  0  0  0  0  0  0
  155.5990  213.7090  154.6840 C   0  0  0  0  0  1  0  0  0  0  0  0
  156.3940  212.4820  154.2540 C   0  0  2  0  0  3  0  0  0  0  0  0
  155.2320  210.4040  154.5650 F   0  0  0  0  0  0  0  0  0  0  0  0
  156.0750  211.3070  155.1920 C   0  0  0  0  0  0  0  0  0  0  0  0
  155.4380  211.7690  156.3290 F   0  0  0  0  0  0  0  0  0  0  0  0
  157.2410  210.6550  155.5610 F   0  0  0  0  0  0  0  0  0  0  0  0
  1 30  1  1  0  0  0
  1  3  1  0  0  0  0
  2 19  1  6  0  0  0
  2  5  1  0  0  0  0
  4  6  1  1  0  0  0
  4  2  1  0  0  0  0
  4  1  1  0  0  0  0
  5  3  1  0  0  0  0
  6  7  1  6  0  0  0
  6 16  1  0  0  0  0
  8  7  2  0  0  0  0
  9  7  1  0  0  0  0
 10 13  1  0  0  0  0
 11 10  2  0  0  0  0
 11 12  1  0  0  0  0
 12 15  2  0  0  0  0
 13  9  1  0  0  0  0
 13 14  2  0  0  0  0
 15 14  1  0  0  0  0
 16 18  1  0  0  0  0
 18 17  1  0  0  0  0
 20 24  2  0  0  0  0
 20 26  1  0  0  0  0
 21 25  1  0  0  0  0
 21 28  2  0  0  0  0
 22 20  1  0  0  0  0
 23 27  1  0  0  0  0
 24 21  1  0  0  0  0
 25 19  1  0  0  0  0
 26 28  1  0  0  0  0
 27 22  2  0  0  0  0
 27 29  1  0  0  0  0
 29 24  1  0  0  0  0
 31 30  1  0  0  0  0
 31 32  1  0  0  0  0
 32 35  1  0  0  0  0
 32 33  1  6  0  0  0
 35 34  1  1  0  0  0
 35 37  1  0  0  0  0
 36 37  1  0  0  0  0
 37 39  1  0  0  0  0
 37 38  1  0  0  0  0
M  END
>  <MODEL>
8

>  <REMARK>
 VINA RESULT:      -6.6      5.057      9.575
  Name = 
  13 active torsions:
  status: ('A' for Active; 'I' for Inactive)
    1  A    between atoms: O_1  and  C_11
    2  A    between atoms: O_1  and  C_21
    3  A    between atoms: C_3  and  C_35
    4  A    between atoms: C_9  and  C_28
    5  A    between atoms: C_9  and  C_29
    6  A    between atoms: C_11  and  C_20
    7  A    between atoms: C_11  and  C_26
    8  A    between atoms: C_12  and  C_28
    9  A    between atoms: C_15  and  C_22
   10  A    between atoms: C_18  and  C_22
   11  A    between atoms: C_19  and  C_20
   12  A    between atoms: C_19  and  C_27
   13  A    between atoms: C_29  and  C_35
                            x       y       z     vdW  Elec       q    Type
                         _______ _______ _______ _____ _____    ______ ____

>  <TORSDO>
F 13

$$$$
=
 OpenBabel11042421173D

 39 42  0  0  1  0  0  0  0  0999 V2000
  161.0850  206.4650  153.4140 C   0  0  2  0  0  3  0  0  0  0  0  0
  160.9090  205.9610  151.1420 C   0  0  2  0  0  3  0  0  0  0  0  0
  162.1050  205.3960  153.0660 C   0  0  0  0  0  2  0  0  0  0  0  0
  160.7480  207.1430  152.1000 C   0  0  2  0  0  3  0  0  0  0  0  0
  161.9550  205.0770  151.6480 N   0  0  0  0  0  2  0  0  0  0  0  0
  161.6360  208.3810  151.8150 C   0  0  2  0  0  3  0  0  0  0  0  0
  160.8830  209.6640  152.0640 C   0  0  0  0  0  0  0  0  0  0  0  0
  159.7070  209.6060  152.3800 O   0  0  0  0  0  0  0  0  0  0  0  0
  161.5420  211.0090  151.9610 C   0  0  0  0  0  2  0  0  0  0  0  0
  159.7880  212.5390  152.8650 C   0  0  0  0  0  3  0  0  0  0  0  0
  158.8740  213.5860  152.7080 C   0  0  0  0  0  3  0  0  0  0  0  0
  158.7240  214.2010  151.4590 C   0  0  0  0  0  3  0  0  0  0  0  0
  160.5440  212.1020  151.7740 C   0  0  0  0  0  0  0  0  0  0  0  0
  160.3960  212.7250  150.5250 C   0  0  0  0  0  3  0  0  0  0  0  0
  159.4850  213.7710  150.3670 C   0  0  0  0  0  3  0  0  0  0  0  0
  162.2280  208.3320  150.5470 O   0  0  0  0  0  0  0  0  0  0  0  0
  162.3590  209.5370  148.6090 O   0  0  0  0  0  1  0  0  0  0  0  0
  161.9300  209.5540  149.9370 C   0  0  0  0  0  2  0  0  0  0  0  0
  160.9900  206.2370  149.6310 C   0  0  0  0  0  2  0  0  0  0  0  0
  161.1750  203.9940  145.3690 C   0  0  0  0  0  0  0  0  0  0  0  0
  161.2120  205.0150  147.4690 C   0  0  0  0  0  0  0  0  0  0  0  0
  160.7730  202.8420  144.8050 N   0  0  0  0  0  0  0  0  0  0  0  0
  160.4630  200.5350  145.7240 C   0  0  0  0  0  1  0  0  0  0  0  0
  161.3680  203.8200  146.6810 C   0  0  0  0  0  0  0  0  0  0  0  0
  161.2700  205.0240  148.8000 C   0  0  0  0  0  2  0  0  0  0  0  0
  160.8280  205.6590  144.8380 S   0  0  0  0  0  0  0  0  0  0  0  0
  160.8380  201.9730  145.8480 C   0  0  0  0  0  0  0  0  0  0  0  0
  160.8840  206.2080  146.6090 C   0  0  0  0  0  3  0  0  0  0  0  0
  161.1410  202.5460  147.0400 N   0  0  0  0  0  2  0  0  0  0  0  0
  161.5540  207.3820  154.5350 C   0  0  0  0  0  2  0  0  0  0  0  0
  160.4180  207.6080  155.5090 C   0  0  0  0  0  2  0  0  0  0  0  0
  160.7000  208.8020  156.4080 C   0  0  1  0  0  3  0  0  0  0  0  0
  161.9690  208.6530  156.9760 O   0  0  0  0  0  1  0  0  0  0  0  0
  161.9290  210.8910  155.7400 C   0  0  0  0  0  1  0  0  0  0  0  0
  160.6240  210.1140  155.6130 C   0  0  2  0  0  3  0  0  0  0  0  0
  158.9330  210.5570  157.2600 F   0  0  0  0  0  0  0  0  0  0  0  0
  159.4500  211.0030  156.0550 C   0  0  0  0  0  0  0  0  0  0  0  0
  158.4400  210.9570  155.1110 F   0  0  0  0  0  0  0  0  0  0  0  0
  159.8700  212.3160  156.2030 F   0  0  0  0  0  0  0  0  0  0  0  0
  1 30  1  1  0  0  0
  2 19  1  6  0  0  0
  2  5  1  0  0  0  0
  2  4  1  0  0  0  0
  3  1  1  0  0  0  0
  4  6  1  6  0  0  0
  4  1  1  0  0  0  0
  5  3  1  0  0  0  0
  6 16  1  6  0  0  0
  6  7  1  0  0  0  0
  7  8  2  0  0  0  0
  9  7  1  0  0  0  0
 11 10  1  0  0  0  0
 12 11  2  0  0  0  0
 13  9  1  0  0  0  0
 13 10  2  0  0  0  0
 14 13  1  0  0  0  0
 15 14  2  0  0  0  0
 15 12  1  0  0  0  0
 17 18  1  0  0  0  0
 18 16  1  0  0  0  0
 20 24  2  0  0  0  0
 21 25  1  0  0  0  0
 22 20  1  0  0  0  0
 22 27  2  0  0  0  0
 23 27  1  0  0  0  0
 24 29  1  0  0  0  0
 24 21  1  0  0  0  0
 25 19  1  0  0  0  0
 26 20  1  0  0  0  0
 26 28  1  0  0  0  0
 27 29  1  0  0  0  0
 28 21  2  0  0  0  0
 30 31  1  0  0  0  0
 31 32  1  0  0  0  0
 32 33  1  6  0  0  0
 35 34  1  1  0  0  0
 35 37  1  0  0  0  0
 35 32  1  0  0  0  0
 37 39  1  0  0  0  0
 37 36  1  0  0  0  0
 38 37  1  0  0  0  0
M  END
>  <MODEL>
9

>  <REMARK>
 VINA RESULT:      -6.4      5.045     10.002
  Name = 
  13 active torsions:
  status: ('A' for Active; 'I' for Inactive)
    1  A    between atoms: O_1  and  C_11
    2  A    between atoms: O_1  and  C_21
    3  A    between atoms: C_3  and  C_35
    4  A    between atoms: C_9  and  C_28
    5  A    between atoms: C_9  and  C_29
    6  A    between atoms: C_11  and  C_20
    7  A    between atoms: C_11  and  C_26
    8  A    between atoms: C_12  and  C_28
    9  A    between atoms: C_15  and  C_22
   10  A    between atoms: C_18  and  C_22
   11  A    between atoms: C_19  and  C_20
   12  A    between atoms: C_19  and  C_27
   13  A    between atoms: C_29  and  C_35
                            x       y       z     vdW  Elec       q    Type
                         _______ _______ _______ _____ _____    ______ ____

>  <TORSDO>
F 13

$$$$
