=
 OpenBabel11052412053D

 50 57  0  0  1  0  0  0  0  0999 V2000
  162.0970  210.1410  150.9860 C   0  0  1  0  0  3  0  0  0  0  0  0
  161.1650  210.3300  153.1120 C   0  0  2  0  0  3  0  0  0  0  0  0
  161.9580  209.3790  149.6910 C   0  0  0  0  0  0  0  0  0  0  0  0
  162.0070  207.8890  149.7200 C   0  0  0  0  0  2  0  0  0  0  0  0
  161.3080  211.4000  151.0700 C   0  0  0  0  0  0  0  0  0  0  0  0
  161.7540  209.3420  152.1910 N   0  0  1  0  0  0  0  0  0  0  0  0
  161.1620  207.2750  150.8380 C   0  0  1  0  0  0  0  0  0  0  0  0
  161.9300  209.9580  148.6170 O   0  0  0  0  0  0  0  0  0  0  0  0
  160.7140  208.3300  151.8910 C   0  0  1  0  0  3  0  0  0  0  0  0
  160.8020  211.5100  152.2830 C   0  0  0  0  0  0  0  0  0  0  0  0
  160.0240  206.7290  150.2420 O   0  0  0  0  0  1  0  0  0  0  0  0
  161.2290  212.4360  149.9840 C   0  0  1  0  0  3  0  0  0  0  0  0
  162.2130  212.1460  148.9280 N   0  0  0  0  0  2  0  0  0  0  0  0
  160.9850  213.6790  146.0540 O   0  0  0  0  0  0  0  0  0  0  0  0
  162.3360  213.4900  145.6970 C   0  0  0  0  0  2  0  0  0  0  0  0
  163.0710  212.9920  146.9320 C   0  0  0  0  0  2  0  0  0  0  0  0
  160.8860  212.9870  147.2650 C   0  0  1  0  0  3  0  0  0  0  0  0
  162.1190  213.1870  147.9900 N   0  0  1  0  0  0  0  0  0  0  0  0
  159.7950  212.5430  149.4160 C   0  0  0  0  0  2  0  0  0  0  0  0
  159.7400  213.4270  148.1590 C   0  0  2  0  0  3  0  0  0  0  0  0
  158.5200  213.2370  147.5080 O   0  0  0  0  0  0  0  0  0  0  0  0
  157.5550  213.4830  148.4850 C   0  0  0  0  0  1  0  0  0  0  0  0
  161.9680  206.2130  151.4460 N   0  0  0  0  0  2  0  0  0  0  0  0
  162.5270  203.9400  151.8480 N   0  0  0  0  0  0  0  0  0  0  0  0
  160.9690  202.7100  150.6080 N   0  0  2  0  0  0  0  0  0  0  0  0
  160.7280  204.1530  150.4440 C   0  0  0  0  0  2  0  0  0  0  0  0
  161.7710  204.8040  151.2850 C   0  0  0  0  0  0  0  0  0  0  0  0
  162.0800  202.6780  151.4720 N   0  0  0  0  0  2  0  0  0  0  0  0
  161.0050  203.1080  148.1740 C   0  0  0  0  0  2  0  0  0  0  0  0
  160.7170  200.8100  149.0590 C   0  0  0  0  0  2  0  0  0  0  0  0
  161.4800  202.5720  146.8990 N   0  0  0  0  0  2  0  0  0  0  0  0
  161.0990  200.2850  147.6780 C   0  0  0  0  0  2  0  0  0  0  0  0
  161.3890  202.1620  149.3160 C   0  0  2  0  0  3  0  0  0  0  0  0
  160.7600  201.3300  146.6220 C   0  0  0  0  0  2  0  0  0  0  0  0
  160.0980  207.7020  153.1530 C   0  0  0  0  0  2  0  0  0  0  0  0
  161.0940  207.2070  153.9980 O   0  0  0  0  0  1  0  0  0  0  0  0
  159.9990  212.6120  152.7540 C   0  0  0  0  0  0  0  0  0  0  0  0
  159.3260  213.5320  153.1480 C   0  0  0  0  0  3  0  0  0  0  0  0
  162.1880  210.7080  154.1750 C   0  0  0  0  0  2  0  0  0  0  0  0
  161.6090  210.4890  155.5590 C   0  0  0  0  0  2  0  0  0  0  0  0
  160.1080  210.3090  155.4590 C   0  0  0  0  0  2  0  0  0  0  0  0
  160.1960  212.5470  156.7150 C   0  0  0  0  0  3  0  0  0  0  0  0
  157.4580  212.8470  156.3420 N   0  0  0  0  0  0  0  0  0  0  0  0
  157.1440  210.8200  155.1780 C   0  0  0  0  0  3  0  0  0  0  0  0
  159.4130  211.5040  156.0240 C   0  0  0  0  0  0  0  0  0  0  0  0
  155.8430  211.6320  155.2870 C   0  0  0  0  0  3  0  0  0  0  0  0
  159.6040  213.6210  157.2560 C   0  0  0  0  0  3  0  0  0  0  0  0
  156.0810  212.8410  156.0980 N   0  0  0  0  0  0  0  0  0  0  0  0
  158.1050  213.8120  157.2330 C   0  0  0  0  0  3  0  0  0  0  0  0
  158.1010  211.6940  155.8620 C   0  0  0  0  0  0  0  0  0  0  0  0
  1  3  1  6  0  0  0
  1  5  1  0  0  0  0
  1  6  1  0  0  0  0
  2 39  1  1  0  0  0
  3  4  1  0  0  0  0
  4  7  1  0  0  0  0
  5 10  2  0  0  0  0
  6  2  1  0  0  0  0
  7 23  1  0  0  0  0
  7  9  1  0  0  0  0
  8  3  2  0  0  0  0
  9  6  1  0  0  0  0
  9 35  1  0  0  0  0
 10 37  1  0  0  0  0
 10  2  1  0  0  0  0
 11  7  1  0  0  0  0
 12  5  1  0  0  0  0
 13 12  1  0  0  0  0
 14 17  1  0  0  0  0
 15 14  1  0  0  0  0
 15 16  1  0  0  0  0
 16 18  1  0  0  0  0
 17 18  1  0  0  0  0
 17 20  1  0  0  0  0
 18 13  1  0  0  0  0
 19 12  1  0  0  0  0
 20 19  1  0  0  0  0
 21 20  1  0  0  0  0
 21 22  1  0  0  0  0
 25 28  1  0  0  0  0
 26 25  1  0  0  0  0
 26 27  1  0  0  0  0
 27 23  1  0  0  0  0
 27 24  2  0  0  0  0
 28 24  1  0  0  0  0
 29 33  1  0  0  0  0
 30 33  1  0  0  0  0
 31 29  1  0  0  0  0
 32 30  1  0  0  0  0
 33 25  1  0  0  0  0
 34 31  1  0  0  0  0
 34 32  1  0  0  0  0
 35 36  1  0  0  0  0
 37 38  3  0  0  0  0
 39 40  1  0  0  0  0
 41 40  1  0  0  0  0
 41 45  1  0  0  0  0
 42 47  1  0  0  0  0
 43 49  1  0  0  0  0
 44 46  1  0  0  0  0
 44 50  2  0  0  0  0
 45 42  2  0  0  0  0
 46 48  2  0  0  0  0
 48 43  1  0  0  0  0
 49 47  2  0  0  0  0
 50 45  1  0  0  0  0
 50 43  1  0  0  0  0
M  END
>  <MODEL>
1

>  <REMARK>
 VINA RESULT:      -5.1      0.000      0.000
  Name = 
  10 active torsions:
  status: ('A' for Active; 'I' for Inactive)
    1  A    between atoms: C_1  and  C_44
    2  A    between atoms: C_3  and  C_46
    3  A    between atoms: C_4  and  C_27
    4  A    between atoms: N_5  and  C_29
    5  A    between atoms: C_9  and  C_26
    6  A    between atoms: C_12  and  C_27
    7  A    between atoms: C_12  and  C_31
    8  A    between atoms: N_18  and  C_41
    9  A    between atoms: C_20  and  C_31
   10  A    between atoms: O_33  and  C_49
                            x       y       z     vdW  Elec       q    Type
                         _______ _______ _______ _____ _____    ______ ____

>  <TORSDO>
F 10

$$$$
=
 OpenBabel11052412053D

 50 57  0  0  1  0  0  0  0  0999 V2000
  162.2800  207.0320  151.6930 C   0  0  1  0  0  3  0  0  0  0  0  0
  161.5260  208.7540  150.3170 C   0  0  2  0  0  3  0  0  0  0  0  0
  161.9100  206.2510  152.9300 C   0  0  0  0  0  0  0  0  0  0  0  0
  161.6370  206.9890  154.1960 C   0  0  0  0  0  2  0  0  0  0  0  0
  161.7880  206.4610  150.4090 C   0  0  0  0  0  0  0  0  0  0  0  0
  161.8370  208.4500  151.7250 N   0  0  1  0  0  0  0  0  0  0  0  0
  160.7400  208.2140  154.0040 C   0  0  1  0  0  0  0  0  0  0  0  0
  161.9500  205.0310  152.9410 O   0  0  0  0  0  0  0  0  0  0  0  0
  160.5880  208.6090  152.5070 C   0  0  1  0  0  3  0  0  0  0  0  0
  161.3840  207.4440  149.6290 C   0  0  0  0  0  0  0  0  0  0  0  0
  159.4800  207.8850  154.5080 O   0  0  0  0  0  1  0  0  0  0  0  0
  161.8770  205.0100  150.0270 C   0  0  1  0  0  3  0  0  0  0  0  0
  160.7540  204.2580  150.6120 N   0  0  0  0  0  2  0  0  0  0  0  0
  160.3490  201.4530  148.5910 O   0  0  0  0  0  0  0  0  0  0  0  0
  159.6570  201.0470  149.7500 C   0  0  0  0  0  2  0  0  0  0  0  0
  159.8980  202.1000  150.8220 C   0  0  0  0  0  2  0  0  0  0  0  0
  160.6350  202.7950  148.8570 C   0  0  1  0  0  3  0  0  0  0  0  0
  160.9440  202.9110  150.2630 N   0  0  1  0  0  0  0  0  0  0  0  0
  161.9410  204.8380  148.4920 C   0  0  0  0  0  2  0  0  0  0  0  0
  161.8040  203.3660  148.0720 C   0  0  2  0  0  3  0  0  0  0  0  0
  161.5460  203.2930  146.7020 O   0  0  0  0  0  0  0  0  0  0  0  0
  162.3260  204.3040  146.1410 C   0  0  0  0  0  1  0  0  0  0  0  0
  161.3280  209.2990  154.7930 N   0  0  0  0  0  2  0  0  0  0  0  0
  161.3080  211.4630  155.7690 N   0  0  0  0  0  0  0  0  0  0  0  0
  159.2380  212.3740  155.1690 N   0  0  2  0  0  0  0  0  0  0  0  0
  159.3770  211.0160  154.6180 C   0  0  0  0  0  2  0  0  0  0  0  0
  160.7270  210.5700  155.0630 C   0  0  0  0  0  0  0  0  0  0  0  0
  160.4530  212.5580  155.8540 N   0  0  0  0  0  2  0  0  0  0  0  0
  157.0670  211.3630  155.7650 C   0  0  0  0  0  2  0  0  0  0  0  0
  157.5190  213.7460  156.2830 C   0  0  0  0  0  2  0  0  0  0  0  0
  156.0290  211.3220  156.7930 N   0  0  0  0  0  2  0  0  0  0  0  0
  156.3480  213.7020  157.2610 C   0  0  0  0  0  2  0  0  0  0  0  0
  158.1600  212.3610  156.1630 C   0  0  2  0  0  3  0  0  0  0  0  0
  155.3620  212.6230  156.8300 C   0  0  0  0  0  2  0  0  0  0  0  0
  159.9200  209.9800  152.3070 C   0  0  0  0  0  2  0  0  0  0  0  0
  160.8710  210.9580  152.0080 O   0  0  0  0  0  1  0  0  0  0  0  0
  160.8650  207.2860  148.2910 C   0  0  0  0  0  0  0  0  0  0  0  0
  160.4300  207.1530  147.1750 C   0  0  0  0  0  3  0  0  0  0  0  0
  162.6620  209.5660  149.7080 C   0  0  0  0  0  2  0  0  0  0  0  0
  162.1330  210.4610  148.6050 C   0  0  0  0  0  2  0  0  0  0  0  0
  162.4750  211.9040  148.9150 C   0  0  0  0  0  2  0  0  0  0  0  0
  160.3840  213.2510  149.5520 C   0  0  0  0  0  3  0  0  0  0  0  0
  160.1620  214.1240  146.9230 N   0  0  0  0  0  0  0  0  0  0  0  0
  162.0440  212.9540  146.1150 C   0  0  0  0  0  3  0  0  0  0  0  0
  161.3390  212.7920  148.5250 C   0  0  0  0  0  0  0  0  0  0  0  0
  161.3880  213.8180  145.0250 C   0  0  0  0  0  3  0  0  0  0  0  0
  159.3380  214.0280  149.2360 C   0  0  0  0  0  3  0  0  0  0  0  0
  160.1710  214.4530  145.5630 N   0  0  0  0  0  0  0  0  0  0  0  0
  159.0450  214.4450  147.8120 C   0  0  0  0  0  3  0  0  0  0  0  0
  161.1960  213.2430  147.2760 C   0  0  0  0  0  0  0  0  0  0  0  0
  1  5  1  6  0  0  0
  1  6  1  0  0  0  0
  1  3  1  0  0  0  0
  2 39  1  6  0  0  0
  2  6  1  0  0  0  0
  3  8  2  0  0  0  0
  3  4  1  0  0  0  0
  6  9  1  0  0  0  0
  7  4  1  0  0  0  0
  7 11  1  0  0  0  0
  7 23  1  0  0  0  0
  9  7  1  0  0  0  0
 10  2  1  0  0  0  0
 10  5  2  0  0  0  0
 12  5  1  0  0  0  0
 12 13  1  0  0  0  0
 14 17  1  0  0  0  0
 14 15  1  0  0  0  0
 15 16  1  0  0  0  0
 17 18  1  0  0  0  0
 18 13  1  0  0  0  0
 18 16  1  0  0  0  0
 19 12  1  0  0  0  0
 20 19  1  0  0  0  0
 20 17  1  0  0  0  0
 21 20  1  0  0  0  0
 22 21  1  0  0  0  0
 23 27  1  0  0  0  0
 24 28  1  0  0  0  0
 25 28  1  0  0  0  0
 25 33  1  0  0  0  0
 26 27  1  0  0  0  0
 26 25  1  0  0  0  0
 27 24  2  0  0  0  0
 29 33  1  0  0  0  0
 29 31  1  0  0  0  0
 30 32  1  0  0  0  0
 31 34  1  0  0  0  0
 33 30  1  0  0  0  0
 34 32  1  0  0  0  0
 35  9  1  0  0  0  0
 36 35  1  0  0  0  0
 37 10  1  0  0  0  0
 38 37  3  0  0  0  0
 40 41  1  0  0  0  0
 40 39  1  0  0  0  0
 43 50  1  0  0  0  0
 43 49  1  0  0  0  0
 44 50  2  0  0  0  0
 45 41  1  0  0  0  0
 45 42  2  0  0  0  0
 46 48  2  0  0  0  0
 46 44  1  0  0  0  0
 47 42  1  0  0  0  0
 48 43  1  0  0  0  0
 49 47  2  0  0  0  0
 50 45  1  0  0  0  0
M  END
>  <MODEL>
2

>  <REMARK>
 VINA RESULT:      -3.8      2.190      9.209
  Name = 
  10 active torsions:
  status: ('A' for Active; 'I' for Inactive)
    1  A    between atoms: C_1  and  C_44
    2  A    between atoms: C_3  and  C_46
    3  A    between atoms: C_4  and  C_27
    4  A    between atoms: N_5  and  C_29
    5  A    between atoms: C_9  and  C_26
    6  A    between atoms: C_12  and  C_27
    7  A    between atoms: C_12  and  C_31
    8  A    between atoms: N_18  and  C_41
    9  A    between atoms: C_20  and  C_31
   10  A    between atoms: O_33  and  C_49
                            x       y       z     vdW  Elec       q    Type
                         _______ _______ _______ _____ _____    ______ ____

>  <TORSDO>
F 10

$$$$
=
 OpenBabel11052412053D

 50 57  0  0  1  0  0  0  0  0999 V2000
  160.9590  212.6320  151.4410 C   0  0  1  0  0  3  0  0  0  0  0  0
  161.4700  210.4000  151.0170 C   0  0  2  0  0  3  0  0  0  0  0  0
  160.1700  213.7960  150.8930 C   0  0  0  0  0  0  0  0  0  0  0  0
  160.4130  214.2370  149.4900 C   0  0  0  0  0  2  0  0  0  0  0  0
  160.2280  211.7660  152.4050 C   0  0  0  0  0  0  0  0  0  0  0  0
  161.5090  211.7340  150.3930 N   0  0  1  0  0  0  0  0  0  0  0  0
  160.4900  213.0790  148.4930 C   0  0  1  0  0  0  0  0  0  0  0  0
  159.4330  214.4530  151.6100 O   0  0  0  0  0  0  0  0  0  0  0  0
  160.6330  211.6990  149.1980 C   0  0  1  0  0  3  0  0  0  0  0  0
  160.5390  210.5060  152.1710 C   0  0  0  0  0  0  0  0  0  0  0  0
  159.3000  213.0840  147.7620 O   0  0  0  0  0  1  0  0  0  0  0  0
  159.3850  212.2700  153.5430 C   0  0  1  0  0  3  0  0  0  0  0  0
  158.0570  211.6360  153.5160 N   0  0  0  0  0  2  0  0  0  0  0  0
  156.8680  211.8080  156.7820 O   0  0  0  0  0  0  0  0  0  0  0  0
  155.6710  211.5680  156.0770 C   0  0  0  0  0  2  0  0  0  0  0  0
  155.9890  211.6530  154.5910 C   0  0  0  0  0  2  0  0  0  0  0  0
  157.8440  211.6580  155.7930 C   0  0  1  0  0  3  0  0  0  0  0  0
  157.3160  212.2030  154.5650 N   0  0  1  0  0  0  0  0  0  0  0  0
  160.0930  212.0570  154.9010 C   0  0  0  0  0  2  0  0  0  0  0  0
  159.1610  212.3540  156.0870 C   0  0  2  0  0  3  0  0  0  0  0  0
  159.7230  211.8490  157.2600 O   0  0  0  0  0  0  0  0  0  0  0  0
  161.0180  211.4740  156.8990 C   0  0  0  0  0  1  0  0  0  0  0  0
  161.6240  213.3540  147.6080 N   0  0  0  0  0  2  0  0  0  0  0  0
  162.7040  213.3930  145.4930 N   0  0  0  0  0  0  0  0  0  0  0  0
  161.1190  212.5470  143.9940 N   0  0  2  0  0  0  0  0  0  0  0  0
  160.5670  212.5740  145.3580 C   0  0  0  0  0  2  0  0  0  0  0  0
  161.6730  213.1170  146.1960 C   0  0  0  0  0  0  0  0  0  0  0  0
  162.4160  213.0640  144.1730 N   0  0  0  0  0  2  0  0  0  0  0  0
  158.8760  213.4610  143.5260 C   0  0  0  0  0  2  0  0  0  0  0  0
  160.5090  213.1580  141.6850 C   0  0  0  0  0  2  0  0  0  0  0  0
  158.1490  214.4530  142.7360 N   0  0  0  0  0  2  0  0  0  0  0  0
  159.6590  214.1050  140.8430 C   0  0  0  0  0  2  0  0  0  0  0  0
  160.3660  213.4980  143.1710 C   0  0  2  0  0  3  0  0  0  0  0  0
  158.2150  214.0630  141.3290 C   0  0  0  0  0  2  0  0  0  0  0  0
  160.9790  210.5560  148.2270 C   0  0  0  0  0  2  0  0  0  0  0  0
  162.3520  210.2980  148.2330 O   0  0  0  0  0  1  0  0  0  0  0  0
  160.0480  209.3740  152.9190 C   0  0  0  0  0  0  0  0  0  0  0  0
  159.6350  208.4290  153.5440 C   0  0  0  0  0  3  0  0  0  0  0  0
  162.8690  210.0140  151.4810 C   0  0  0  0  0  2  0  0  0  0  0  0
  163.2160  208.6210  150.9940 C   0  0  0  0  0  2  0  0  0  0  0  0
  162.2800  207.6130  151.6280 C   0  0  0  0  0  2  0  0  0  0  0  0
  161.8830  206.9840  149.1710 C   0  0  0  0  0  3  0  0  0  0  0  0
  161.0220  204.4650  149.9690 N   0  0  0  0  0  0  0  0  0  0  0  0
  161.2960  204.8320  152.2830 C   0  0  0  0  0  3  0  0  0  0  0  0
  161.8160  206.6320  150.6030 C   0  0  0  0  0  0  0  0  0  0  0  0
  160.8320  203.3990  151.9760 C   0  0  0  0  0  3  0  0  0  0  0  0
  161.4540  206.1400  148.2230 C   0  0  0  0  0  3  0  0  0  0  0  0
  160.5940  203.2560  150.5270 N   0  0  0  0  0  0  0  0  0  0  0  0
  160.8370  204.8000  148.5560 C   0  0  0  0  0  3  0  0  0  0  0  0
  161.4020  205.4070  150.9380 C   0  0  0  0  0  0  0  0  0  0  0  0
  1  3  1  6  0  0  0
  1  5  1  0  0  0  0
  2 39  1  1  0  0  0
  2 10  1  0  0  0  0
  3  8  2  0  0  0  0
  4  3  1  0  0  0  0
  5 12  1  0  0  0  0
  6  2  1  0  0  0  0
  6  1  1  0  0  0  0
  7  9  1  0  0  0  0
  7  4  1  0  0  0  0
  9  6  1  0  0  0  0
 10  5  2  0  0  0  0
 10 37  1  0  0  0  0
 11  7  1  0  0  0  0
 12 19  1  0  0  0  0
 13 12  1  0  0  0  0
 13 18  1  0  0  0  0
 15 14  1  0  0  0  0
 16 15  1  0  0  0  0
 17 20  1  0  0  0  0
 17 14  1  0  0  0  0
 18 16  1  0  0  0  0
 18 17  1  0  0  0  0
 19 20  1  0  0  0  0
 20 21  1  0  0  0  0
 22 21  1  0  0  0  0
 23  7  1  0  0  0  0
 24 27  2  0  0  0  0
 25 28  1  0  0  0  0
 25 26  1  0  0  0  0
 26 27  1  0  0  0  0
 27 23  1  0  0  0  0
 28 24  1  0  0  0  0
 30 33  1  0  0  0  0
 31 29  1  0  0  0  0
 32 34  1  0  0  0  0
 32 30  1  0  0  0  0
 33 29  1  0  0  0  0
 33 25  1  0  0  0  0
 34 31  1  0  0  0  0
 35 36  1  0  0  0  0
 35  9  1  0  0  0  0
 37 38  3  0  0  0  0
 40 39  1  0  0  0  0
 40 41  1  0  0  0  0
 42 45  2  0  0  0  0
 43 48  1  0  0  0  0
 43 50  1  0  0  0  0
 45 50  1  0  0  0  0
 45 41  1  0  0  0  0
 46 44  1  0  0  0  0
 47 49  2  0  0  0  0
 47 42  1  0  0  0  0
 48 46  2  0  0  0  0
 49 43  1  0  0  0  0
 50 44  2  0  0  0  0
M  END
>  <MODEL>
3

>  <REMARK>
 VINA RESULT:      -3.0      2.732      9.012
  Name = 
  10 active torsions:
  status: ('A' for Active; 'I' for Inactive)
    1  A    between atoms: C_1  and  C_44
    2  A    between atoms: C_3  and  C_46
    3  A    between atoms: C_4  and  C_27
    4  A    between atoms: N_5  and  C_29
    5  A    between atoms: C_9  and  C_26
    6  A    between atoms: C_12  and  C_27
    7  A    between atoms: C_12  and  C_31
    8  A    between atoms: N_18  and  C_41
    9  A    between atoms: C_20  and  C_31
   10  A    between atoms: O_33  and  C_49
                            x       y       z     vdW  Elec       q    Type
                         _______ _______ _______ _____ _____    ______ ____

>  <TORSDO>
F 10

$$$$
=
 OpenBabel11052412053D

 50 57  0  0  1  0  0  0  0  0999 V2000
  161.1070  207.5420  149.8470 C   0  0  1  0  0  3  0  0  0  0  0  0
  161.5920  207.2410  152.1050 C   0  0  2  0  0  3  0  0  0  0  0  0
  161.5010  208.3670  148.6460 C   0  0  0  0  0  0  0  0  0  0  0  0
  161.4420  209.8540  148.7390 C   0  0  0  0  0  2  0  0  0  0  0  0
  161.8670  206.2750  150.0250 C   0  0  0  0  0  0  0  0  0  0  0  0
  161.1970  208.2780  151.1340 N   0  0  1  0  0  0  0  0  0  0  0  0
  162.0410  210.4060  150.0330 C   0  0  1  0  0  0  0  0  0  0  0  0
  161.7470  207.8410  147.5720 O   0  0  0  0  0  0  0  0  0  0  0  0
  162.2720  209.2970  151.1010 C   0  0  1  0  0  3  0  0  0  0  0  0
  162.1190  206.1020  151.3080 C   0  0  0  0  0  0  0  0  0  0  0  0
  163.2750  210.9730  149.7070 O   0  0  0  0  0  1  0  0  0  0  0  0
  162.1680  205.2940  148.9270 C   0  0  1  0  0  3  0  0  0  0  0  0
  161.2680  204.1320  149.0190 N   0  0  0  0  0  2  0  0  0  0  0  0
  161.1440  202.7840  145.8130 O   0  0  0  0  0  0  0  0  0  0  0  0
  160.6660  201.6990  146.5750 C   0  0  0  0  0  2  0  0  0  0  0  0
  160.8350  202.0600  148.0430 C   0  0  0  0  0  2  0  0  0  0  0  0
  161.2160  203.8140  146.7540 C   0  0  1  0  0  3  0  0  0  0  0  0
  161.6530  203.2400  148.0050 N   0  0  1  0  0  0  0  0  0  0  0  0
  162.0920  205.9670  147.5370 C   0  0  0  0  0  2  0  0  0  0  0  0
  162.1710  204.9400  146.3960 C   0  0  2  0  0  3  0  0  0  0  0  0
  161.7800  205.5410  145.1990 O   0  0  0  0  0  0  0  0  0  0  0  0
  160.5050  206.0440  145.4560 C   0  0  0  0  0  1  0  0  0  0  0  0
  161.1260  211.4410  150.5190 N   0  0  0  0  0  2  0  0  0  0  0  0
  159.9000  213.4620  150.2950 N   0  0  0  0  0  0  0  0  0  0  0  0
  160.4000  214.2350  148.1440 N   0  0  2  0  0  0  0  0  0  0  0  0
  161.1090  212.9720  148.4110 C   0  0  0  0  0  2  0  0  0  0  0  0
  160.7100  212.6080  149.8000 C   0  0  0  0  0  0  0  0  0  0  0  0
  159.6910  214.4520  149.3400 N   0  0  0  0  0  2  0  0  0  0  0  0
  157.9940  214.0710  147.6260 C   0  0  0  0  0  2  0  0  0  0  0  0
  159.6240  212.6160  146.4550 C   0  0  0  0  0  2  0  0  0  0  0  0
  157.0320  213.8900  146.5400 N   0  0  0  0  0  2  0  0  0  0  0  0
  158.5530  212.3500  145.4010 C   0  0  0  0  0  2  0  0  0  0  0  0
  159.4230  214.0000  147.0780 C   0  0  2  0  0  3  0  0  0  0  0  0
  157.1720  212.5320  146.0200 C   0  0  0  0  0  2  0  0  0  0  0  0
  162.6180  209.8580  152.4910 C   0  0  0  0  0  2  0  0  0  0  0  0
  161.5260  210.5300  153.0420 O   0  0  0  0  0  1  0  0  0  0  0  0
  162.8140  204.9730  151.8760 C   0  0  0  0  0  0  0  0  0  0  0  0
  163.3970  204.0300  152.3520 C   0  0  0  0  0  3  0  0  0  0  0  0
  160.3770  206.8180  152.9200 C   0  0  0  0  0  2  0  0  0  0  0  0
  160.7560  206.6580  154.3790 C   0  0  0  0  0  2  0  0  0  0  0  0
  159.8000  207.4570  155.2420 C   0  0  0  0  0  2  0  0  0  0  0  0
  161.8370  208.3500  156.5260 C   0  0  0  0  0  3  0  0  0  0  0  0
  160.7650  210.9120  156.4160 N   0  0  0  0  0  0  0  0  0  0  0  0
  158.8050  210.3100  155.2490 C   0  0  0  0  0  3  0  0  0  0  0  0
  160.5260  208.5890  155.8910 C   0  0  0  0  0  0  0  0  0  0  0  0
  158.8900  211.8250  155.4940 C   0  0  0  0  0  3  0  0  0  0  0  0
  162.5060  209.3360  157.1390 C   0  0  0  0  0  3  0  0  0  0  0  0
  160.0860  212.1300  156.3010 N   0  0  0  0  0  0  0  0  0  0  0  0
  161.9470  210.7360  157.2600 C   0  0  0  0  0  3  0  0  0  0  0  0
  160.0530  209.8380  155.8570 C   0  0  0  0  0  0  0  0  0  0  0  0
  1  3  1  6  0  0  0
  1  5  1  0  0  0  0
  1  6  1  0  0  0  0
  2 39  1  6  0  0  0
  3  4  1  0  0  0  0
  4  7  1  0  0  0  0
  5 10  2  0  0  0  0
  6  2  1  0  0  0  0
  7 23  1  0  0  0  0
  7  9  1  0  0  0  0
  8  3  2  0  0  0  0
  9  6  1  0  0  0  0
  9 35  1  0  0  0  0
 10 37  1  0  0  0  0
 10  2  1  0  0  0  0
 11  7  1  0  0  0  0
 12 13  1  0  0  0  0
 12  5  1  0  0  0  0
 14 15  1  0  0  0  0
 14 17  1  0  0  0  0
 15 16  1  0  0  0  0
 17 18  1  0  0  0  0
 18 16  1  0  0  0  0
 18 13  1  0  0  0  0
 19 12  1  0  0  0  0
 20 17  1  0  0  0  0
 20 19  1  0  0  0  0
 21 22  1  0  0  0  0
 21 20  1  0  0  0  0
 25 26  1  0  0  0  0
 25 28  1  0  0  0  0
 26 27  1  0  0  0  0
 27 24  2  0  0  0  0
 27 23  1  0  0  0  0
 28 24  1  0  0  0  0
 30 33  1  0  0  0  0
 31 29  1  0  0  0  0
 32 34  1  0  0  0  0
 32 30  1  0  0  0  0
 33 29  1  0  0  0  0
 33 25  1  0  0  0  0
 34 31  1  0  0  0  0
 35 36  1  0  0  0  0
 37 38  3  0  0  0  0
 39 40  1  0  0  0  0
 40 41  1  0  0  0  0
 41 45  1  0  0  0  0
 42 47  1  0  0  0  0
 43 49  1  0  0  0  0
 44 46  1  0  0  0  0
 44 50  2  0  0  0  0
 45 42  2  0  0  0  0
 46 48  2  0  0  0  0
 47 49  2  0  0  0  0
 48 43  1  0  0  0  0
 50 45  1  0  0  0  0
 50 43  1  0  0  0  0
M  END
>  <MODEL>
4

>  <REMARK>
 VINA RESULT:      -2.9      2.398      7.639
  Name = 
  10 active torsions:
  status: ('A' for Active; 'I' for Inactive)
    1  A    between atoms: C_1  and  C_44
    2  A    between atoms: C_3  and  C_46
    3  A    between atoms: C_4  and  C_27
    4  A    between atoms: N_5  and  C_29
    5  A    between atoms: C_9  and  C_26
    6  A    between atoms: C_12  and  C_27
    7  A    between atoms: C_12  and  C_31
    8  A    between atoms: N_18  and  C_41
    9  A    between atoms: C_20  and  C_31
   10  A    between atoms: O_33  and  C_49
                            x       y       z     vdW  Elec       q    Type
                         _______ _______ _______ _____ _____    ______ ____

>  <TORSDO>
F 10

$$$$
=
 OpenBabel11052412053D

 50 57  0  0  1  0  0  0  0  0999 V2000
  161.0120  207.7810  149.6640 C   0  0  1  0  0  3  0  0  0  0  0  0
  161.3750  208.4070  151.8780 C   0  0  2  0  0  3  0  0  0  0  0  0
  161.5280  208.0070  148.2640 C   0  0  0  0  0  0  0  0  0  0  0  0
  161.6020  209.4000  147.7380 C   0  0  0  0  0  2  0  0  0  0  0  0
  161.6440  206.6520  150.4000 C   0  0  0  0  0  0  0  0  0  0  0  0
  161.1170  208.9740  150.5430 N   0  0  1  0  0  0  0  0  0  0  0  0
  162.1980  210.3960  148.7360 C   0  0  1  0  0  0  0  0  0  0  0  0
  161.7680  207.0700  147.5210 O   0  0  0  0  0  0  0  0  0  0  0  0
  162.2820  209.8130  150.1760 C   0  0  1  0  0  3  0  0  0  0  0  0
  161.8260  207.0070  151.6570 C   0  0  0  0  0  0  0  0  0  0  0  0
  163.4910  210.6920  148.2990 O   0  0  0  0  0  1  0  0  0  0  0  0
  161.8960  205.2870  149.8240 C   0  0  1  0  0  3  0  0  0  0  0  0
  161.1700  204.2640  150.5950 N   0  0  0  0  0  2  0  0  0  0  0  0
  160.7370  201.5810  148.4200 O   0  0  0  0  0  0  0  0  0  0  0  0
  160.5150  200.9540  149.6630 C   0  0  0  0  0  2  0  0  0  0  0  0
  160.8540  201.9600  150.7520 C   0  0  0  0  0  2  0  0  0  0  0  0
  160.8220  202.9320  148.7680 C   0  0  1  0  0  3  0  0  0  0  0  0
  161.5070  203.0210  150.0360 N   0  0  1  0  0  0  0  0  0  0  0  0
  161.5320  205.2370  148.3220 C   0  0  0  0  0  2  0  0  0  0  0  0
  161.5670  203.8020  147.7710 C   0  0  2  0  0  3  0  0  0  0  0  0
  160.9320  203.7640  146.5280 O   0  0  0  0  0  0  0  0  0  0  0  0
  161.9730  203.7120  145.6010 C   0  0  0  0  0  1  0  0  0  0  0  0
  161.3630  211.5980  148.6870 N   0  0  0  0  0  2  0  0  0  0  0  0
  160.6570  213.6520  147.7270 N   0  0  0  0  0  0  0  0  0  0  0  0
  161.9960  213.9200  145.8270 N   0  0  2  0  0  0  0  0  0  0  0  0
  162.3400  212.6680  146.5220 C   0  0  0  0  0  2  0  0  0  0  0  0
  161.4300  212.6340  147.7000 C   0  0  0  0  0  0  0  0  0  0  0  0
  160.9650  214.4460  146.6270 N   0  0  0  0  0  2  0  0  0  0  0  0
  160.2760  212.5790  144.6750 C   0  0  0  0  0  2  0  0  0  0  0  0
  162.4850  212.9530  143.6130 C   0  0  0  0  0  2  0  0  0  0  0  0
  159.6810  212.2950  143.3700 N   0  0  0  0  0  2  0  0  0  0  0  0
  161.8600  212.5330  142.2850 C   0  0  0  0  0  2  0  0  0  0  0  0
  161.4240  213.5820  144.5210 C   0  0  2  0  0  3  0  0  0  0  0  0
  160.6760  211.6100  142.5470 C   0  0  0  0  0  2  0  0  0  0  0  0
  162.6230  210.8730  151.2390 C   0  0  0  0  0  2  0  0  0  0  0  0
  163.4350  210.3320  152.2370 O   0  0  0  0  0  1  0  0  0  0  0  0
  162.3910  206.1690  152.6860 C   0  0  0  0  0  0  0  0  0  0  0  0
  162.8640  205.4670  153.5450 C   0  0  0  0  0  3  0  0  0  0  0  0
  160.0950  208.4400  152.7020 C   0  0  0  0  0  2  0  0  0  0  0  0
  160.3890  208.9300  154.1060 C   0  0  0  0  0  2  0  0  0  0  0  0
  160.5340  210.4380  154.0980 C   0  0  0  0  0  2  0  0  0  0  0  0
  158.3440  210.7120  155.4100 C   0  0  0  0  0  3  0  0  0  0  0  0
  157.5320  212.6760  153.6190 N   0  0  0  0  0  0  0  0  0  0  0  0
  159.4570  212.5800  152.2590 C   0  0  0  0  0  3  0  0  0  0  0  0
  159.1940  211.0790  154.2620 C   0  0  0  0  0  0  0  0  0  0  0  0
  158.4740  213.6670  151.7940 C   0  0  0  0  0  3  0  0  0  0  0  0
  157.1270  211.2480  155.5770 C   0  0  0  0  0  3  0  0  0  0  0  0
  157.2560  213.6210  152.6250 N   0  0  0  0  0  0  0  0  0  0  0  0
  156.5310  212.2200  154.5840 C   0  0  0  0  0  3  0  0  0  0  0  0
  158.7660  212.0320  153.4300 C   0  0  0  0  0  0  0  0  0  0  0  0
  1  3  1  6  0  0  0
  1  5  1  0  0  0  0
  1  6  1  0  0  0  0
  2 39  1  1  0  0  0
  4  3  1  0  0  0  0
  4  7  1  0  0  0  0
  5 10  2  0  0  0  0
  6  2  1  0  0  0  0
  7  9  1  0  0  0  0
  8  3  2  0  0  0  0
  9  6  1  0  0  0  0
  9 35  1  0  0  0  0
 10  2  1  0  0  0  0
 10 37  1  0  0  0  0
 11  7  1  0  0  0  0
 12  5  1  0  0  0  0
 12 13  1  0  0  0  0
 14 17  1  0  0  0  0
 14 15  1  0  0  0  0
 15 16  1  0  0  0  0
 17 18  1  0  0  0  0
 18 13  1  0  0  0  0
 18 16  1  0  0  0  0
 19 12  1  0  0  0  0
 20 19  1  0  0  0  0
 20 17  1  0  0  0  0
 21 20  1  0  0  0  0
 22 21  1  0  0  0  0
 23  7  1  0  0  0  0
 25 26  1  0  0  0  0
 25 28  1  0  0  0  0
 26 27  1  0  0  0  0
 27 24  2  0  0  0  0
 27 23  1  0  0  0  0
 28 24  1  0  0  0  0
 30 33  1  0  0  0  0
 31 29  1  0  0  0  0
 32 34  1  0  0  0  0
 32 30  1  0  0  0  0
 33 29  1  0  0  0  0
 33 25  1  0  0  0  0
 34 31  1  0  0  0  0
 35 36  1  0  0  0  0
 37 38  3  0  0  0  0
 39 40  1  0  0  0  0
 41 40  1  0  0  0  0
 41 45  1  0  0  0  0
 42 47  1  0  0  0  0
 43 49  1  0  0  0  0
 44 50  2  0  0  0  0
 45 42  2  0  0  0  0
 46 44  1  0  0  0  0
 46 48  2  0  0  0  0
 48 43  1  0  0  0  0
 49 47  2  0  0  0  0
 50 43  1  0  0  0  0
 50 45  1  0  0  0  0
M  END
>  <MODEL>
5

>  <REMARK>
 VINA RESULT:      -2.4      2.254      7.843
  Name = 
  10 active torsions:
  status: ('A' for Active; 'I' for Inactive)
    1  A    between atoms: C_1  and  C_44
    2  A    between atoms: C_3  and  C_46
    3  A    between atoms: C_4  and  C_27
    4  A    between atoms: N_5  and  C_29
    5  A    between atoms: C_9  and  C_26
    6  A    between atoms: C_12  and  C_27
    7  A    between atoms: C_12  and  C_31
    8  A    between atoms: N_18  and  C_41
    9  A    between atoms: C_20  and  C_31
   10  A    between atoms: O_33  and  C_49
                            x       y       z     vdW  Elec       q    Type
                         _______ _______ _______ _____ _____    ______ ____

>  <TORSDO>
F 10

$$$$
