=
 OpenBabel11042423103D

 29 32  0  0  1  0  0  0  0  0999 V2000
  160.7200  209.9340  154.7780 C   0  0  0  0  0  3  0  0  0  0  0  0
  160.6840  209.6370  152.3910 C   0  0  0  0  0  3  0  0  0  0  0  0
  160.6190  210.4800  153.5020 C   0  0  0  0  0  0  0  0  0  0  0  0
  160.9510  207.7410  153.8330 N   0  0  0  0  0  0  0  0  0  0  0  0
  161.1530  206.0170  154.0710 Cl  0  0  0  0  0  0  0  0  0  0  0  0
  160.8860  208.5560  154.9300 C   0  0  0  0  0  0  0  0  0  0  0  0
  160.8530  208.2560  152.5660 C   0  0  0  0  0  0  0  0  0  0  0  0
  160.9740  208.0750  156.0910 O   0  0  0  0  0  0  0  0  0  0  0  0
  160.9220  207.3670  151.3890 C   0  0  0  0  0  3  0  0  0  0  0  0
  161.5850  207.6840  150.2780 C   0  0  0  0  0  3  0  0  0  0  0  0
  161.0870  203.7410  147.4170 C   0  0  0  0  0  3  0  0  0  0  0  0
  162.0770  204.4590  145.2980 C   0  0  0  0  0  3  0  0  0  0  0  0
  161.3870  205.0040  147.9210 C   0  0  0  0  0  0  0  0  0  0  0  0
  162.1610  207.0850  147.9350 C   0  0  0  0  0  3  0  0  0  0  0  0
  162.0040  205.9610  147.1590 C   0  0  0  0  0  0  0  0  0  0  0  0
  162.3680  205.7260  145.8360 C   0  0  0  0  0  3  0  0  0  0  0  0
  161.6400  206.8020  149.1550 N   0  0  0  0  0  0  0  0  0  0  0  0
  161.4420  203.4720  146.0820 C   0  0  0  0  0  0  0  0  0  0  0  0
  161.1650  202.2270  145.5340 O   0  0  0  0  0  1  0  0  0  0  0  0
  161.1610  205.5360  149.1700 C   0  0  0  0  0  3  0  0  0  0  0  0
  160.4380  211.8920  153.3550 N   0  0  0  0  0  2  0  0  0  0  0  0
  158.1080  211.6180  153.5030 O   0  0  0  0  0  0  0  0  0  0  0  0
  157.5700  213.1640  156.8380 C   0  0  0  0  0  1  0  0  0  0  0  0
  157.3880  211.8530  154.6310 N   0  0  0  0  0  0  0  0  0  0  0  0
  159.1630  212.5650  153.5650 C   0  0  1  0  0  3  0  0  0  0  0  0
  158.0490  212.7550  155.4880 C   0  0  0  0  0  0  0  0  0  0  0  0
  159.1320  213.2010  154.9210 C   0  0  0  0  0  3  0  0  0  0  0  0
  155.9430  211.6860  154.6430 C   0  0  0  0  0  2  0  0  0  0  0  0
  155.5850  210.3470  155.2580 C   0  0  0  0  0  1  0  0  0  0  0  0
  1  6  1  0  0  0  0
  2  7  2  0  0  0  0
  2  3  1  0  0  0  0
  3  1  2  0  0  0  0
  4  5  1  0  0  0  0
  4  6  1  0  0  0  0
  6  8  2  0  0  0  0
  7  4  1  0  0  0  0
  9  7  1  0  0  0  0
 10  9  2  0  0  0  0
 11 13  1  0  0  0  0
 12 16  2  0  0  0  0
 12 18  1  0  0  0  0
 13 20  2  0  0  0  0
 14 17  1  0  0  0  0
 15 13  1  0  0  0  0
 15 14  2  0  0  0  0
 16 15  1  0  0  0  0
 17 20  1  0  0  0  0
 17 10  1  0  0  0  0
 18 11  2  0  0  0  0
 19 18  1  0  0  0  0
 21  3  1  0  0  0  0
 22 25  1  0  0  0  0
 22 24  1  0  0  0  0
 24 28  1  0  0  0  0
 24 26  1  0  0  0  0
 25 21  1  1  0  0  0
 25 27  1  0  0  0  0
 26 23  1  0  0  0  0
 27 26  2  0  0  0  0
 28 29  1  0  0  0  0
M  END
>  <MODEL>
1

>  <REMARK>
 VINA RESULT:      -8.4      0.000      0.000
  Name = 
  5 active torsions:
  status: ('A' for Active; 'I' for Inactive)
    1  A    between atoms: C_2  and  C_22
    2  A    between atoms: C_7  and  N_18
    3  A    between atoms: C_10  and  N_17
    4  A    between atoms: C_11  and  N_26
    5  A    between atoms: C_24  and  N_26
                            x       y       z     vdW  Elec       q    Type
                         _______ _______ _______ _____ _____    ______ ____

>  <TORSDO>
F 5

$$$$
=
 OpenBabel11042423103D

 29 32  0  0  1  0  0  0  0  0999 V2000
  160.6290  211.3640  154.1670 C   0  0  0  0  0  3  0  0  0  0  0  0
  160.3540  209.8290  152.3350 C   0  0  0  0  0  3  0  0  0  0  0  0
  160.2970  211.1320  152.8360 C   0  0  0  0  0  0  0  0  0  0  0  0
  161.0690  209.0260  154.4780 N   0  0  0  0  0  0  0  0  0  0  0  0
  161.5520  207.7170  155.5360 Cl  0  0  0  0  0  0  0  0  0  0  0  0
  161.0150  210.2970  154.9800 C   0  0  0  0  0  0  0  0  0  0  0  0
  160.7450  208.7720  153.1690 C   0  0  0  0  0  0  0  0  0  0  0  0
  161.3110  210.5220  156.1850 O   0  0  0  0  0  0  0  0  0  0  0  0
  160.8050  207.3970  152.6360 C   0  0  0  0  0  3  0  0  0  0  0  0
  160.8510  207.1250  151.3330 C   0  0  0  0  0  3  0  0  0  0  0  0
  161.0860  203.2590  148.3360 C   0  0  0  0  0  3  0  0  0  0  0  0
  161.1030  201.3570  149.8760 C   0  0  0  0  0  3  0  0  0  0  0  0
  161.0200  204.0900  149.4510 C   0  0  0  0  0  0  0  0  0  0  0  0
  160.9280  204.6530  151.5970 C   0  0  0  0  0  3  0  0  0  0  0  0
  160.9950  203.5900  150.7270 C   0  0  0  0  0  0  0  0  0  0  0  0
  161.0340  202.2230  150.9830 C   0  0  0  0  0  3  0  0  0  0  0  0
  160.9130  205.7820  150.8450 N   0  0  0  0  0  0  0  0  0  0  0  0
  161.1280  201.8700  148.5600 C   0  0  0  0  0  0  0  0  0  0  0  0
  161.1930  201.0000  147.4810 O   0  0  0  0  0  1  0  0  0  0  0  0
  160.9690  205.4630  149.5310 C   0  0  0  0  0  3  0  0  0  0  0  0
  159.8920  212.2280  152.0110 N   0  0  0  0  0  2  0  0  0  0  0  0
  161.1560  211.8590  150.0640 O   0  0  0  0  0  0  0  0  0  0  0  0
  159.6030  214.4360  147.8860 C   0  0  0  0  0  1  0  0  0  0  0  0
  160.8760  212.4230  148.8610 N   0  0  0  0  0  0  0  0  0  0  0  0
  160.7520  212.8400  151.0070 C   0  0  1  0  0  3  0  0  0  0  0  0
  160.1370  213.6130  149.0070 C   0  0  0  0  0  0  0  0  0  0  0  0
  160.0050  213.9090  150.2670 C   0  0  0  0  0  3  0  0  0  0  0  0
  161.7180  212.1680  147.7020 C   0  0  0  0  0  2  0  0  0  0  0  0
  163.0610  212.8490  147.8830 C   0  0  0  0  0  1  0  0  0  0  0  0
  1  6  1  0  0  0  0
  2  3  1  0  0  0  0
  2  7  2  0  0  0  0
  3  1  2  0  0  0  0
  4  6  1  0  0  0  0
  4  5  1  0  0  0  0
  6  8  2  0  0  0  0
  7  4  1  0  0  0  0
  9  7  1  0  0  0  0
 10  9  2  0  0  0  0
 11 18  2  0  0  0  0
 11 13  1  0  0  0  0
 12 16  2  0  0  0  0
 13 20  2  0  0  0  0
 13 15  1  0  0  0  0
 15 16  1  0  0  0  0
 15 14  2  0  0  0  0
 17 10  1  0  0  0  0
 17 14  1  0  0  0  0
 18 12  1  0  0  0  0
 19 18  1  0  0  0  0
 20 17  1  0  0  0  0
 21  3  1  0  0  0  0
 22 25  1  0  0  0  0
 23 26  1  0  0  0  0
 24 26  1  0  0  0  0
 24 22  1  0  0  0  0
 25 21  1  1  0  0  0
 26 27  2  0  0  0  0
 27 25  1  0  0  0  0
 28 29  1  0  0  0  0
 28 24  1  0  0  0  0
M  END
>  <MODEL>
2

>  <REMARK>
 VINA RESULT:      -7.8      2.994      4.519
  Name = 
  5 active torsions:
  status: ('A' for Active; 'I' for Inactive)
    1  A    between atoms: C_2  and  C_22
    2  A    between atoms: C_7  and  N_18
    3  A    between atoms: C_10  and  N_17
    4  A    between atoms: C_11  and  N_26
    5  A    between atoms: C_24  and  N_26
                            x       y       z     vdW  Elec       q    Type
                         _______ _______ _______ _____ _____    ______ ____

>  <TORSDO>
F 5

$$$$
=
 OpenBabel11042423103D

 29 32  0  0  1  0  0  0  0  0999 V2000
  161.0020  208.8520  155.4810 C   0  0  0  0  0  3  0  0  0  0  0  0
  161.4630  209.2380  153.1520 C   0  0  0  0  0  3  0  0  0  0  0  0
  161.2990  209.7340  154.4470 C   0  0  0  0  0  0  0  0  0  0  0  0
  161.0380  207.0140  153.9400 N   0  0  0  0  0  0  0  0  0  0  0  0
  160.8610  205.2960  153.6470 Cl  0  0  0  0  0  0  0  0  0  0  0  0
  160.8730  207.4880  155.2120 C   0  0  0  0  0  0  0  0  0  0  0  0
  161.3310  207.8640  152.9040 C   0  0  0  0  0  0  0  0  0  0  0  0
  160.6010  206.7010  156.1580 O   0  0  0  0  0  0  0  0  0  0  0  0
  161.5060  207.3430  151.5340 C   0  0  0  0  0  3  0  0  0  0  0  0
  160.7180  206.4060  151.0090 C   0  0  0  0  0  3  0  0  0  0  0  0
  161.0170  206.1870  146.1250 C   0  0  0  0  0  3  0  0  0  0  0  0
  161.6360  203.8570  145.7070 C   0  0  0  0  0  3  0  0  0  0  0  0
  161.0260  205.8870  147.4850 C   0  0  0  0  0  0  0  0  0  0  0  0
  161.2500  204.6590  149.3210 C   0  0  0  0  0  3  0  0  0  0  0  0
  161.3260  204.6330  147.9480 C   0  0  0  0  0  0  0  0  0  0  0  0
  161.6370  203.5850  147.0870 C   0  0  0  0  0  3  0  0  0  0  0  0
  160.9080  205.9220  149.6770 N   0  0  0  0  0  0  0  0  0  0  0  0
  161.3270  205.1490  145.2270 C   0  0  0  0  0  0  0  0  0  0  0  0
  161.3310  205.3980  143.8620 O   0  0  0  0  0  1  0  0  0  0  0  0
  160.7660  206.6900  148.5710 C   0  0  0  0  0  3  0  0  0  0  0  0
  161.4190  211.1320  154.7290 N   0  0  0  0  0  2  0  0  0  0  0  0
  160.1240  212.1600  153.0580 O   0  0  0  0  0  0  0  0  0  0  0  0
  156.7490  211.3730  154.3980 C   0  0  0  0  0  1  0  0  0  0  0  0
  158.7760  212.0190  152.9510 N   0  0  0  0  0  0  0  0  0  0  0  0
  160.3650  212.1000  154.4560 C   0  0  1  0  0  3  0  0  0  0  0  0
  158.1930  211.6760  154.1860 C   0  0  0  0  0  0  0  0  0  0  0  0
  159.0920  211.6820  155.1260 C   0  0  0  0  0  3  0  0  0  0  0  0
  158.0350  212.7060  151.9040 C   0  0  0  0  0  2  0  0  0  0  0  0
  158.4490  214.1640  151.8520 C   0  0  0  0  0  1  0  0  0  0  0  0
  2  3  1  0  0  0  0
  3 21  1  0  0  0  0
  3  1  2  0  0  0  0
  4  6  1  0  0  0  0
  5  4  1  0  0  0  0
  6  1  1  0  0  0  0
  6  8  2  0  0  0  0
  7  2  2  0  0  0  0
  7  4  1  0  0  0  0
  9  7  1  0  0  0  0
 10  9  2  0  0  0  0
 11 13  1  0  0  0  0
 12 16  2  0  0  0  0
 13 15  1  0  0  0  0
 13 20  2  0  0  0  0
 14 17  1  0  0  0  0
 15 14  2  0  0  0  0
 16 15  1  0  0  0  0
 17 10  1  0  0  0  0
 18 12  1  0  0  0  0
 18 11  2  0  0  0  0
 19 18  1  0  0  0  0
 20 17  1  0  0  0  0
 22 25  1  0  0  0  0
 24 22  1  0  0  0  0
 24 26  1  0  0  0  0
 25 21  1  6  0  0  0
 25 27  1  0  0  0  0
 26 23  1  0  0  0  0
 26 27  2  0  0  0  0
 28 24  1  0  0  0  0
 29 28  1  0  0  0  0
M  END
>  <MODEL>
3

>  <REMARK>
 VINA RESULT:      -7.5      1.472      2.185
  Name = 
  5 active torsions:
  status: ('A' for Active; 'I' for Inactive)
    1  A    between atoms: C_2  and  C_22
    2  A    between atoms: C_7  and  N_18
    3  A    between atoms: C_10  and  N_17
    4  A    between atoms: C_11  and  N_26
    5  A    between atoms: C_24  and  N_26
                            x       y       z     vdW  Elec       q    Type
                         _______ _______ _______ _____ _____    ______ ____

>  <TORSDO>
F 5

$$$$
=
 OpenBabel11042423103D

 29 32  0  0  1  0  0  0  0  0999 V2000
  161.4040  211.2790  151.3590 C   0  0  0  0  0  3  0  0  0  0  0  0
  161.1120  209.0030  152.0810 C   0  0  0  0  0  3  0  0  0  0  0  0
  161.0400  210.3710  152.3500 C   0  0  0  0  0  0  0  0  0  0  0  0
  161.8980  209.4680  149.8650 N   0  0  0  0  0  0  0  0  0  0  0  0
  162.4490  208.9270  148.2930 Cl  0  0  0  0  0  0  0  0  0  0  0  0
  161.8340  210.8120  150.1160 C   0  0  0  0  0  0  0  0  0  0  0  0
  161.5450  208.5550  150.8250 C   0  0  0  0  0  0  0  0  0  0  0  0
  162.1630  211.6440  149.2300 O   0  0  0  0  0  0  0  0  0  0  0  0
  161.6190  207.1070  150.5440 C   0  0  0  0  0  3  0  0  0  0  0  0
  160.7630  206.4800  149.7400 C   0  0  0  0  0  3  0  0  0  0  0  0
  161.3800  202.1890  147.4610 C   0  0  0  0  0  3  0  0  0  0  0  0
  161.0560  200.5530  149.2510 C   0  0  0  0  0  3  0  0  0  0  0  0
  161.1490  203.1860  148.4050 C   0  0  0  0  0  0  0  0  0  0  0  0
  160.7020  204.0800  150.3880 C   0  0  0  0  0  3  0  0  0  0  0  0
  160.8820  202.8930  149.7170 C   0  0  0  0  0  0  0  0  0  0  0  0
  160.8260  201.5820  150.1820 C   0  0  0  0  0  3  0  0  0  0  0  0
  160.8610  205.0770  149.4820 N   0  0  0  0  0  0  0  0  0  0  0  0
  161.3300  200.8530  147.8990 C   0  0  0  0  0  0  0  0  0  0  0  0
  161.5530  199.8230  146.9950 O   0  0  0  0  0  1  0  0  0  0  0  0
  161.1350  204.5540  148.2640 C   0  0  0  0  0  3  0  0  0  0  0  0
  160.6120  210.8580  153.6250 N   0  0  0  0  0  2  0  0  0  0  0  0
  158.2760  211.1150  153.5920 O   0  0  0  0  0  0  0  0  0  0  0  0
  157.8180  212.5370  156.9940 C   0  0  0  0  0  1  0  0  0  0  0  0
  157.5340  211.4390  154.6840 N   0  0  0  0  0  0  0  0  0  0  0  0
  159.5060  211.7910  153.8000 C   0  0  1  0  0  3  0  0  0  0  0  0
  158.3050  212.1120  155.6510 C   0  0  0  0  0  0  0  0  0  0  0  0
  159.5040  212.3330  155.1970 C   0  0  0  0  0  3  0  0  0  0  0  0
  156.0920  211.6060  154.5840 C   0  0  0  0  0  2  0  0  0  0  0  0
  155.3950  210.3400  155.0430 C   0  0  0  0  0  1  0  0  0  0  0  0
  1  3  2  0  0  0  0
  2  3  1  0  0  0  0
  3 21  1  0  0  0  0
  4  6  1  0  0  0  0
  4  7  1  0  0  0  0
  5  4  1  0  0  0  0
  6  1  1  0  0  0  0
  7  2  2  0  0  0  0
  8  6  2  0  0  0  0
  9  7  1  0  0  0  0
 10  9  2  0  0  0  0
 11 18  2  0  0  0  0
 11 13  1  0  0  0  0
 12 16  2  0  0  0  0
 13 15  1  0  0  0  0
 15 16  1  0  0  0  0
 15 14  2  0  0  0  0
 17 10  1  0  0  0  0
 17 14  1  0  0  0  0
 18 12  1  0  0  0  0
 19 18  1  0  0  0  0
 20 13  2  0  0  0  0
 20 17  1  0  0  0  0
 22 25  1  0  0  0  0
 22 24  1  0  0  0  0
 24 26  1  0  0  0  0
 25 21  1  1  0  0  0
 25 27  1  0  0  0  0
 26 23  1  0  0  0  0
 27 26  2  0  0  0  0
 28 24  1  0  0  0  0
 28 29  1  0  0  0  0
M  END
>  <MODEL>
4

>  <REMARK>
 VINA RESULT:      -7.4      2.400      3.301
  Name = 
  5 active torsions:
  status: ('A' for Active; 'I' for Inactive)
    1  A    between atoms: C_2  and  C_22
    2  A    between atoms: C_7  and  N_18
    3  A    between atoms: C_10  and  N_17
    4  A    between atoms: C_11  and  N_26
    5  A    between atoms: C_24  and  N_26
                            x       y       z     vdW  Elec       q    Type
                         _______ _______ _______ _____ _____    ______ ____

>  <TORSDO>
F 5

$$$$
=
 OpenBabel11042423103D

 29 32  0  0  1  0  0  0  0  0999 V2000
  161.5810  204.5540  147.9080 C   0  0  0  0  0  3  0  0  0  0  0  0
  161.1370  204.9410  150.2400 C   0  0  0  0  0  3  0  0  0  0  0  0
  161.3120  204.0520  149.1770 C   0  0  0  0  0  0  0  0  0  0  0  0
  161.5020  206.7940  148.7630 N   0  0  0  0  0  0  0  0  0  0  0  0
  161.6190  208.5180  148.4720 Cl  0  0  0  0  0  0  0  0  0  0  0  0
  161.6730  205.9330  147.7140 C   0  0  0  0  0  0  0  0  0  0  0  0
  161.2350  206.3230  150.0230 C   0  0  0  0  0  0  0  0  0  0  0  0
  161.9150  206.3740  146.5580 O   0  0  0  0  0  0  0  0  0  0  0  0
  161.0500  207.2600  151.1490 C   0  0  0  0  0  3  0  0  0  0  0  0
  161.2110  206.9050  152.4220 C   0  0  0  0  0  3  0  0  0  0  0  0
  160.7600  211.0750  154.9520 C   0  0  0  0  0  3  0  0  0  0  0  0
  160.3960  210.3010  157.2450 C   0  0  0  0  0  3  0  0  0  0  0  0
  160.8350  209.7380  154.5720 C   0  0  0  0  0  0  0  0  0  0  0  0
  160.8210  207.5290  154.7980 C   0  0  0  0  0  3  0  0  0  0  0  0
  160.6980  208.7180  155.4770 C   0  0  0  0  0  0  0  0  0  0  0  0
  160.4770  208.9600  156.8300 C   0  0  0  0  0  3  0  0  0  0  0  0
  161.0290  207.8350  153.4930 N   0  0  0  0  0  0  0  0  0  0  0  0
  160.5370  211.3540  156.3130 C   0  0  0  0  0  0  0  0  0  0  0  0
  160.4560  212.6710  156.7410 O   0  0  0  0  0  1  0  0  0  0  0  0
  161.0420  209.1790  153.3310 C   0  0  0  0  0  3  0  0  0  0  0  0
  161.2090  202.6380  149.3660 N   0  0  0  0  0  2  0  0  0  0  0  0
  160.3120  202.3640  147.2110 O   0  0  0  0  0  0  0  0  0  0  0  0
  161.8350  199.0780  146.3810 C   0  0  0  0  0  1  0  0  0  0  0  0
  160.6970  201.3870  146.3490 N   0  0  0  0  0  0  0  0  0  0  0  0
  160.4400  201.7640  148.4910 C   0  0  1  0  0  3  0  0  0  0  0  0
  161.2470  200.2840  147.0310 C   0  0  0  0  0  0  0  0  0  0  0  0
  161.1460  200.4540  148.3170 C   0  0  0  0  0  3  0  0  0  0  0  0
  160.0800  201.2620  145.0380 C   0  0  0  0  0  2  0  0  0  0  0  0
  159.7070  202.6350  144.5120 C   0  0  0  0  0  1  0  0  0  0  0  0
  1  3  2  0  0  0  0
  3 21  1  0  0  0  0
  3  2  1  0  0  0  0
  4  7  1  0  0  0  0
  5  4  1  0  0  0  0
  6  1  1  0  0  0  0
  6  4  1  0  0  0  0
  7  2  2  0  0  0  0
  7  9  1  0  0  0  0
  8  6  2  0  0  0  0
  9 10  2  0  0  0  0
 10 17  1  0  0  0  0
 11 18  2  0  0  0  0
 13 11  1  0  0  0  0
 13 15  1  0  0  0  0
 14 15  2  0  0  0  0
 15 16  1  0  0  0  0
 16 12  2  0  0  0  0
 17 14  1  0  0  0  0
 18 19  1  0  0  0  0
 18 12  1  0  0  0  0
 20 17  1  0  0  0  0
 20 13  2  0  0  0  0
 22 25  1  0  0  0  0
 23 26  1  0  0  0  0
 24 26  1  0  0  0  0
 24 22  1  0  0  0  0
 25 21  1  1  0  0  0
 26 27  2  0  0  0  0
 27 25  1  0  0  0  0
 28 24  1  0  0  0  0
 29 28  1  0  0  0  0
M  END
>  <MODEL>
5

>  <REMARK>
 VINA RESULT:      -7.3      2.878     10.539
  Name = 
  5 active torsions:
  status: ('A' for Active; 'I' for Inactive)
    1  A    between atoms: C_2  and  C_22
    2  A    between atoms: C_7  and  N_18
    3  A    between atoms: C_10  and  N_17
    4  A    between atoms: C_11  and  N_26
    5  A    between atoms: C_24  and  N_26
                            x       y       z     vdW  Elec       q    Type
                         _______ _______ _______ _____ _____    ______ ____

>  <TORSDO>
F 5

$$$$
=
 OpenBabel11042423103D

 29 32  0  0  1  0  0  0  0  0999 V2000
  160.8350  211.4980  151.6730 C   0  0  0  0  0  3  0  0  0  0  0  0
  160.3290  209.2400  152.3300 C   0  0  0  0  0  3  0  0  0  0  0  0
  160.2340  210.6130  152.5630 C   0  0  0  0  0  0  0  0  0  0  0  0
  161.6070  209.6550  150.3440 N   0  0  0  0  0  0  0  0  0  0  0  0
  162.4840  209.0780  148.9420 Cl  0  0  0  0  0  0  0  0  0  0  0  0
  161.5220  211.0030  150.5630 C   0  0  0  0  0  0  0  0  0  0  0  0
  161.0220  208.7640  151.2080 C   0  0  0  0  0  0  0  0  0  0  0  0
  162.0640  211.8150  149.7660 O   0  0  0  0  0  0  0  0  0  0  0  0
  161.1200  207.3110  150.9640 C   0  0  0  0  0  3  0  0  0  0  0  0
  160.6730  206.7310  149.8520 C   0  0  0  0  0  3  0  0  0  0  0  0
  161.3180  202.3740  147.7090 C   0  0  0  0  0  3  0  0  0  0  0  0
  161.0320  200.7950  149.5570 C   0  0  0  0  0  3  0  0  0  0  0  0
  161.0850  203.3990  148.6230 C   0  0  0  0  0  0  0  0  0  0  0  0
  160.6480  204.3530  150.5790 C   0  0  0  0  0  3  0  0  0  0  0  0
  160.8360  203.1460  149.9460 C   0  0  0  0  0  0  0  0  0  0  0  0
  160.8000  201.8510  150.4550 C   0  0  0  0  0  3  0  0  0  0  0  0
  160.7850  205.3210  149.6390 N   0  0  0  0  0  0  0  0  0  0  0  0
  161.2890  201.0530  148.1920 C   0  0  0  0  0  0  0  0  0  0  0  0
  161.5140  199.9960  147.3200 O   0  0  0  0  0  1  0  0  0  0  0  0
  161.0520  204.7620  148.4360 C   0  0  0  0  0  3  0  0  0  0  0  0
  159.5410  211.1280  153.7040 N   0  0  0  0  0  2  0  0  0  0  0  0
  160.0990  209.4190  155.2190 O   0  0  0  0  0  0  0  0  0  0  0  0
  163.3580  210.7550  156.3990 C   0  0  0  0  0  1  0  0  0  0  0  0
  161.3130  209.3060  155.8180 N   0  0  0  0  0  0  0  0  0  0  0  0
  159.9150  210.8200  155.0780 C   0  0  1  0  0  3  0  0  0  0  0  0
  161.9790  210.5450  155.8750 C   0  0  0  0  0  0  0  0  0  0  0  0
  161.2080  211.4910  155.4250 C   0  0  0  0  0  3  0  0  0  0  0  0
  161.5800  208.2340  156.7660 C   0  0  0  0  0  2  0  0  0  0  0  0
  160.3980  207.2850  156.8160 C   0  0  0  0  0  1  0  0  0  0  0  0
  1  3  2  0  0  0  0
  2  3  1  0  0  0  0
  3 21  1  0  0  0  0
  4  6  1  0  0  0  0
  4  7  1  0  0  0  0
  5  4  1  0  0  0  0
  6  1  1  0  0  0  0
  7  2  2  0  0  0  0
  8  6  2  0  0  0  0
  9  7  1  0  0  0  0
 10  9  2  0  0  0  0
 11 18  2  0  0  0  0
 11 13  1  0  0  0  0
 12 16  2  0  0  0  0
 13 15  1  0  0  0  0
 15 16  1  0  0  0  0
 15 14  2  0  0  0  0
 17 10  1  0  0  0  0
 17 14  1  0  0  0  0
 18 12  1  0  0  0  0
 19 18  1  0  0  0  0
 20 13  2  0  0  0  0
 20 17  1  0  0  0  0
 22 24  1  0  0  0  0
 24 26  1  0  0  0  0
 24 28  1  0  0  0  0
 25 21  1  6  0  0  0
 25 22  1  0  0  0  0
 25 27  1  0  0  0  0
 26 23  1  0  0  0  0
 27 26  2  0  0  0  0
 28 29  1  0  0  0  0
M  END
>  <MODEL>
6

>  <REMARK>
 VINA RESULT:      -7.2      2.585      4.062
  Name = 
  5 active torsions:
  status: ('A' for Active; 'I' for Inactive)
    1  A    between atoms: C_2  and  C_22
    2  A    between atoms: C_7  and  N_18
    3  A    between atoms: C_10  and  N_17
    4  A    between atoms: C_11  and  N_26
    5  A    between atoms: C_24  and  N_26
                            x       y       z     vdW  Elec       q    Type
                         _______ _______ _______ _____ _____    ______ ____

>  <TORSDO>
F 5

$$$$
=
 OpenBabel11042423103D

 29 32  0  0  1  0  0  0  0  0999 V2000
  161.2650  210.4200  153.5690 C   0  0  0  0  0  3  0  0  0  0  0  0
  161.2040  208.0250  153.7800 C   0  0  0  0  0  3  0  0  0  0  0  0
  161.1340  209.2890  154.3690 C   0  0  0  0  0  0  0  0  0  0  0  0
  161.5260  209.0330  151.6290 N   0  0  0  0  0  0  0  0  0  0  0  0
  161.7810  208.9010  149.9010 Cl  0  0  0  0  0  0  0  0  0  0  0  0
  161.4620  210.2770  152.1950 C   0  0  0  0  0  0  0  0  0  0  0  0
  161.4000  207.9040  152.3970 C   0  0  0  0  0  0  0  0  0  0  0  0
  161.5810  211.3100  151.4830 O   0  0  0  0  0  0  0  0  0  0  0  0
  161.4730  206.5660  151.7770 C   0  0  0  0  0  3  0  0  0  0  0  0
  160.7550  206.2210  150.7100 C   0  0  0  0  0  3  0  0  0  0  0  0
  161.1770  202.5900  147.4510 C   0  0  0  0  0  3  0  0  0  0  0  0
  161.1010  200.5780  148.8420 C   0  0  0  0  0  3  0  0  0  0  0  0
  161.0410  203.3350  148.6190 C   0  0  0  0  0  0  0  0  0  0  0  0
  160.8190  203.7360  150.7920 C   0  0  0  0  0  3  0  0  0  0  0  0
  160.9400  202.7410  149.8500 C   0  0  0  0  0  0  0  0  0  0  0  0
  160.9650  201.3580  150.0040 C   0  0  0  0  0  3  0  0  0  0  0  0
  160.8480  204.9190  150.1270 N   0  0  0  0  0  0  0  0  0  0  0  0
  161.2050  201.1880  147.5720 C   0  0  0  0  0  0  0  0  0  0  0  0
  161.3380  200.4010  146.4370 O   0  0  0  0  0  1  0  0  0  0  0  0
  160.9840  204.6980  148.7990 C   0  0  0  0  0  3  0  0  0  0  0  0
  160.9430  209.4430  155.7790 N   0  0  0  0  0  2  0  0  0  0  0  0
  160.2260  211.5190  156.6150 O   0  0  0  0  0  0  0  0  0  0  0  0
  157.2240  211.9810  154.4760 C   0  0  0  0  0  1  0  0  0  0  0  0
  159.2410  212.2640  156.0490 N   0  0  0  0  0  0  0  0  0  0  0  0
  159.8310  210.1790  156.3640 C   0  0  1  0  0  3  0  0  0  0  0  0
  158.3630  211.4680  155.2880 C   0  0  0  0  0  0  0  0  0  0  0  0
  158.6740  210.2110  155.4130 C   0  0  0  0  0  3  0  0  0  0  0  0
  158.8320  213.5310  156.6360 C   0  0  0  0  0  2  0  0  0  0  0  0
  160.0490  214.4010  156.8820 C   0  0  0  0  0  1  0  0  0  0  0  0
  1  3  2  0  0  0  0
  2  3  1  0  0  0  0
  3 21  1  0  0  0  0
  4  6  1  0  0  0  0
  4  7  1  0  0  0  0
  5  4  1  0  0  0  0
  6  1  1  0  0  0  0
  7  2  2  0  0  0  0
  8  6  2  0  0  0  0
  9  7  1  0  0  0  0
 10  9  2  0  0  0  0
 11 18  2  0  0  0  0
 11 13  1  0  0  0  0
 12 16  2  0  0  0  0
 13 20  2  0  0  0  0
 13 15  1  0  0  0  0
 15 16  1  0  0  0  0
 15 14  2  0  0  0  0
 17 10  1  0  0  0  0
 17 14  1  0  0  0  0
 18 12  1  0  0  0  0
 19 18  1  0  0  0  0
 20 17  1  0  0  0  0
 23 26  1  0  0  0  0
 24 22  1  0  0  0  0
 24 28  1  0  0  0  0
 25 21  1  6  0  0  0
 25 22  1  0  0  0  0
 26 27  2  0  0  0  0
 26 24  1  0  0  0  0
 27 25  1  0  0  0  0
 28 29  1  0  0  0  0
M  END
>  <MODEL>
7

>  <REMARK>
 VINA RESULT:      -7.0      2.334      3.413
  Name = 
  5 active torsions:
  status: ('A' for Active; 'I' for Inactive)
    1  A    between atoms: C_2  and  C_22
    2  A    between atoms: C_7  and  N_18
    3  A    between atoms: C_10  and  N_17
    4  A    between atoms: C_11  and  N_26
    5  A    between atoms: C_24  and  N_26
                            x       y       z     vdW  Elec       q    Type
                         _______ _______ _______ _____ _____    ______ ____

>  <TORSDO>
F 5

$$$$
=
 OpenBabel11042423103D

 29 32  0  0  1  0  0  0  0  0999 V2000
  161.4830  204.5150  149.6620 C   0  0  0  0  0  3  0  0  0  0  0  0
  161.5040  206.8410  150.2750 C   0  0  0  0  0  3  0  0  0  0  0  0
  161.6160  205.8510  149.2970 C   0  0  0  0  0  0  0  0  0  0  0  0
  161.1300  205.1620  151.9450 N   0  0  0  0  0  0  0  0  0  0  0  0
  160.8310  204.6990  153.6080 Cl  0  0  0  0  0  0  0  0  0  0  0  0
  161.2400  204.1830  150.9960 C   0  0  0  0  0  0  0  0  0  0  0  0
  161.2580  206.4860  151.6090 C   0  0  0  0  0  0  0  0  0  0  0  0
  161.1240  202.9690  151.3130 O   0  0  0  0  0  0  0  0  0  0  0  0
  161.1400  207.5350  152.6410 C   0  0  0  0  0  3  0  0  0  0  0  0
  160.6880  208.7600  152.3820 C   0  0  0  0  0  3  0  0  0  0  0  0
  159.3430  212.7550  154.8760 C   0  0  0  0  0  3  0  0  0  0  0  0
  160.6330  212.5810  156.9480 C   0  0  0  0  0  3  0  0  0  0  0  0
  159.9370  211.5620  154.4710 C   0  0  0  0  0  0  0  0  0  0  0  0
  161.2400  209.7680  154.5870 C   0  0  0  0  0  3  0  0  0  0  0  0
  160.8400  210.8990  155.2600 C   0  0  0  0  0  0  0  0  0  0  0  0
  161.2170  211.3790  156.5110 C   0  0  0  0  0  3  0  0  0  0  0  0
  160.5800  209.7560  153.4020 N   0  0  0  0  0  0  0  0  0  0  0  0
  159.7030  213.2670  156.1360 C   0  0  0  0  0  0  0  0  0  0  0  0
  159.1380  214.4530  156.5830 O   0  0  0  0  0  1  0  0  0  0  0  0
  159.7780  210.8420  153.3100 C   0  0  0  0  0  3  0  0  0  0  0  0
  161.8760  206.1830  147.9300 N   0  0  0  0  0  2  0  0  0  0  0  0
  161.1630  204.2320  146.8300 O   0  0  0  0  0  0  0  0  0  0  0  0
  161.3620  205.4540  143.3270 C   0  0  0  0  0  1  0  0  0  0  0  0
  160.8690  204.1740  145.5050 N   0  0  0  0  0  0  0  0  0  0  0  0
  162.2020  205.1940  146.9100 C   0  0  1  0  0  3  0  0  0  0  0  0
  161.5270  205.1890  144.7850 C   0  0  0  0  0  0  0  0  0  0  0  0
  162.3230  205.8540  145.5700 C   0  0  0  0  0  3  0  0  0  0  0  0
  160.4560  202.9240  144.8860 C   0  0  0  0  0  2  0  0  0  0  0  0
  160.8110  201.7600  145.7900 C   0  0  0  0  0  1  0  0  0  0  0  0
  1  6  1  0  0  0  0
  2  7  2  0  0  0  0
  3  1  2  0  0  0  0
  3  2  1  0  0  0  0
  4  5  1  0  0  0  0
  6  8  2  0  0  0  0
  6  4  1  0  0  0  0
  7  4  1  0  0  0  0
  7  9  1  0  0  0  0
 10  9  2  0  0  0  0
 10 17  1  0  0  0  0
 11 18  2  0  0  0  0
 13 11  1  0  0  0  0
 13 15  1  0  0  0  0
 14 15  2  0  0  0  0
 15 16  1  0  0  0  0
 16 12  2  0  0  0  0
 17 14  1  0  0  0  0
 18 19  1  0  0  0  0
 18 12  1  0  0  0  0
 20 17  1  0  0  0  0
 20 13  2  0  0  0  0
 21  3  1  0  0  0  0
 22 25  1  0  0  0  0
 23 26  1  0  0  0  0
 24 22  1  0  0  0  0
 25 21  1  1  0  0  0
 26 24  1  0  0  0  0
 26 27  2  0  0  0  0
 27 25  1  0  0  0  0
 28 24  1  0  0  0  0
 28 29  1  0  0  0  0
M  END
>  <MODEL>
8

>  <REMARK>
 VINA RESULT:      -6.7      2.343     10.001
  Name = 
  5 active torsions:
  status: ('A' for Active; 'I' for Inactive)
    1  A    between atoms: C_2  and  C_22
    2  A    between atoms: C_7  and  N_18
    3  A    between atoms: C_10  and  N_17
    4  A    between atoms: C_11  and  N_26
    5  A    between atoms: C_24  and  N_26
                            x       y       z     vdW  Elec       q    Type
                         _______ _______ _______ _____ _____    ______ ____

>  <TORSDO>
F 5

$$$$
=
 OpenBabel11042423103D

 29 32  0  0  1  0  0  0  0  0999 V2000
  161.3000  203.2460  148.4820 C   0  0  0  0  0  3  0  0  0  0  0  0
  161.4730  205.5200  149.2460 C   0  0  0  0  0  3  0  0  0  0  0  0
  161.5570  204.5860  148.2110 C   0  0  0  0  0  0  0  0  0  0  0  0
  160.8800  203.7780  150.7830 N   0  0  0  0  0  0  0  0  0  0  0  0
  160.4580  203.2400  152.3960 Cl  0  0  0  0  0  0  0  0  0  0  0  0
  160.9610  202.8530  149.7780 C   0  0  0  0  0  0  0  0  0  0  0  0
  161.1290  205.1050  150.5400 C   0  0  0  0  0  0  0  0  0  0  0  0
  160.7340  201.6360  150.0090 O   0  0  0  0  0  0  0  0  0  0  0  0
  161.0400  206.0950  151.6320 C   0  0  0  0  0  3  0  0  0  0  0  0
  160.9420  207.4060  151.4170 C   0  0  0  0  0  3  0  0  0  0  0  0
  160.2700  211.5360  153.9620 C   0  0  0  0  0  3  0  0  0  0  0  0
  160.7190  210.8510  156.2680 C   0  0  0  0  0  3  0  0  0  0  0  0
  160.5360  210.2240  153.5790 C   0  0  0  0  0  0  0  0  0  0  0  0
  161.0770  208.0820  153.8060 C   0  0  0  0  0  3  0  0  0  0  0  0
  160.8790  209.2590  154.4900 C   0  0  0  0  0  0  0  0  0  0  0  0
  160.9830  209.5340  155.8500 C   0  0  0  0  0  3  0  0  0  0  0  0
  160.8530  208.3420  152.4930 N   0  0  0  0  0  0  0  0  0  0  0  0
  160.3650  211.8470  155.3300 C   0  0  0  0  0  0  0  0  0  0  0  0
  160.1100  213.1410  155.7620 O   0  0  0  0  0  1  0  0  0  0  0  0
  160.5210  209.6440  152.3310 C   0  0  0  0  0  3  0  0  0  0  0  0
  161.9140  204.9790  146.8820 N   0  0  0  0  0  2  0  0  0  0  0  0
  161.4860  202.7840  146.1560 O   0  0  0  0  0  0  0  0  0  0  0  0
  158.7190  203.5050  143.7840 C   0  0  0  0  0  1  0  0  0  0  0  0
  160.4180  202.4340  145.3940 N   0  0  0  0  0  0  0  0  0  0  0  0
  161.7990  204.1000  145.7260 C   0  0  1  0  0  3  0  0  0  0  0  0
  159.9260  203.5300  144.6580 C   0  0  0  0  0  0  0  0  0  0  0  0
  160.6920  204.5670  144.8300 C   0  0  0  0  0  3  0  0  0  0  0  0
  160.2300  201.0580  144.9600 C   0  0  0  0  0  2  0  0  0  0  0  0
  160.9400  200.1170  145.9130 C   0  0  0  0  0  1  0  0  0  0  0  0
  1  6  1  0  0  0  0
  2  7  2  0  0  0  0
  3  1  2  0  0  0  0
  3  2  1  0  0  0  0
  4  5  1  0  0  0  0
  6  8  2  0  0  0  0
  6  4  1  0  0  0  0
  7  4  1  0  0  0  0
  7  9  1  0  0  0  0
 10  9  2  0  0  0  0
 10 17  1  0  0  0  0
 11 18  2  0  0  0  0
 13 11  1  0  0  0  0
 13 15  1  0  0  0  0
 14 15  2  0  0  0  0
 15 16  1  0  0  0  0
 16 12  2  0  0  0  0
 17 14  1  0  0  0  0
 18 19  1  0  0  0  0
 18 12  1  0  0  0  0
 20 17  1  0  0  0  0
 20 13  2  0  0  0  0
 21  3  1  0  0  0  0
 23 26  1  0  0  0  0
 24 22  1  0  0  0  0
 25 22  1  0  0  0  0
 25 21  1  1  0  0  0
 26 27  2  0  0  0  0
 26 24  1  0  0  0  0
 27 25  1  0  0  0  0
 28 24  1  0  0  0  0
 28 29  1  0  0  0  0
M  END
>  <MODEL>
9

>  <REMARK>
 VINA RESULT:      -6.5      2.557     10.155
  Name = 
  5 active torsions:
  status: ('A' for Active; 'I' for Inactive)
    1  A    between atoms: C_2  and  C_22
    2  A    between atoms: C_7  and  N_18
    3  A    between atoms: C_10  and  N_17
    4  A    between atoms: C_11  and  N_26
    5  A    between atoms: C_24  and  N_26
                            x       y       z     vdW  Elec       q    Type
                         _______ _______ _______ _____ _____    ______ ____

>  <TORSDO>
F 5

$$$$
