=
 OpenBabel11052409583D

 39 43  0  0  1  0  0  0  0  0999 V2000
  161.2380  208.6030  151.5450 C   0  0  0  0  0  0  0  0  0  0  0  0
  161.1630  208.4610  152.9010 C   0  0  0  0  0  0  0  0  0  0  0  0
  161.3120  210.7950  152.4410 C   0  0  1  0  0  3  0  0  0  0  0  0
  160.9710  204.7590  153.1280 C   0  0  0  0  0  3  0  0  0  0  0  0
  161.1650  205.3090  148.9620 C   0  0  0  0  0  3  0  0  0  0  0  0
  160.9530  203.6610  152.2680 C   0  0  0  0  0  3  0  0  0  0  0  0
  161.0650  207.1960  153.4890 C   0  0  0  0  0  0  0  0  0  0  0  0
  161.1860  209.7770  153.5840 C   0  0  0  0  0  2  0  0  0  0  0  0
  161.0180  203.8510  150.8880 C   0  0  0  0  0  0  0  0  0  0  0  0
  160.9950  202.7740  150.0560 N   0  0  0  0  0  0  0  0  0  0  0  0
  161.0520  202.9150  148.7040 C   0  0  0  0  0  0  0  0  0  0  0  0
  161.1270  206.2670  151.2170 C   0  0  0  0  0  0  0  0  0  0  0  0
  161.0240  201.7650  147.8700 N   0  0  0  0  0  1  0  0  0  0  0  0
  161.3340  210.0110  151.1170 C   0  0  0  0  0  2  0  0  0  0  0  0
  161.2170  207.5320  150.7140 N   0  0  0  0  0  0  0  0  0  0  0  0
  161.0560  206.0670  152.6270 C   0  0  0  0  0  0  0  0  0  0  0  0
  161.1390  204.1880  148.1330 C   0  0  0  0  0  3  0  0  0  0  0  0
  161.1050  205.1560  150.3540 C   0  0  0  0  0  0  0  0  0  0  0  0
  161.4740  208.2740  157.1550 C   0  0  0  0  0  2  0  0  0  0  0  0
  160.0330  208.7930  157.1510 C   0  0  2  0  0  3  0  0  0  0  0  0
  159.6760  207.0590  155.4930 O   0  0  0  0  0  0  0  0  0  0  0  0
  159.2770  208.3500  155.8900 C   0  0  0  0  0  2  0  0  0  0  0  0
  161.0050  207.1000  154.9940 C   0  0  2  0  0  3  0  0  0  0  0  0
  161.9770  208.0370  155.7360 C   0  0  0  0  0  2  0  0  0  0  0  0
  160.0380  210.3090  157.2520 C   0  0  0  0  0  2  0  0  0  0  0  0
  158.9590  210.8360  156.5440 O   0  0  0  0  0  0  0  0  0  0  0  0
  159.4080  212.0770  156.0950 C   0  0  0  0  0  2  0  0  0  0  0  0
  160.7720  212.2000  156.3500 O   0  0  0  0  0  1  0  0  0  0  0  0
  160.1460  211.7280  152.4720 C   0  0  0  0  0  3  0  0  0  0  0  0
  159.9290  212.5770  151.4710 C   0  0  0  0  0  3  0  0  0  0  0  0
  158.7560  213.4930  151.5120 C   0  0  0  0  0  2  0  0  0  0  0  0
  158.1780  213.6310  150.1510 C   0  0  0  0  0  0  0  0  0  0  0  0
  159.0460  213.8280  149.0340 N   0  0  0  0  0  2  0  0  0  0  0  0
  156.9300  213.5570  149.9910 O   0  0  0  0  0  0  0  0  0  0  0  0
  158.5510  213.9190  147.6680 C   0  0  0  0  0  2  0  0  0  0  0  0
  159.7040  213.0980  146.5290 P   0  0  0  0  0  0  0  0  0  0  0  0
  158.8420  212.2330  145.3560 O   0  0  0  0  0  0  0  0  0  0  0  0
  160.6930  212.0350  147.3970 O   0  0  0  0  0  1  0  0  0  0  0  0
  160.5630  214.1420  145.8520 O   0  0  0  0  0  1  0  0  0  0  0  0
  1  2  1  0  0  0  0
  2  7  2  0  0  0  0
  2  8  1  0  0  0  0
  3 29  1  6  0  0  0
  3  8  1  0  0  0  0
  5 18  1  0  0  0  0
  6  4  2  0  0  0  0
  9  6  1  0  0  0  0
 10  9  1  0  0  0  0
 11 10  2  0  0  0  0
 12 16  2  0  0  0  0
 13 11  1  0  0  0  0
 14  1  1  0  0  0  0
 14  3  1  0  0  0  0
 15 12  1  0  0  0  0
 15  1  2  0  0  0  0
 16  4  1  0  0  0  0
 16  7  1  0  0  0  0
 17 11  1  0  0  0  0
 17  5  2  0  0  0  0
 18  9  2  0  0  0  0
 18 12  1  0  0  0  0
 20 19  1  0  0  0  0
 20 25  1  6  0  0  0
 21 22  1  0  0  0  0
 22 20  1  0  0  0  0
 23  7  1  6  0  0  0
 23 21  1  0  0  0  0
 23 24  1  0  0  0  0
 24 19  1  0  0  0  0
 26 25  1  0  0  0  0
 27 28  1  0  0  0  0
 27 26  1  0  0  0  0
 30 31  1  0  0  0  0
 30 29  2  0  0  0  0
 32 31  1  0  0  0  0
 33 32  1  0  0  0  0
 34 32  2  0  0  0  0
 35 33  1  0  0  0  0
 36 38  1  0  0  0  0
 36 35  1  0  0  0  0
 37 36  2  0  0  0  0
 39 36  1  0  0  0  0
M  END
>  <MODEL>
1

>  <REMARK>
 VINA RESULT:      -8.0      0.000      0.000
  Name = 
  9 active torsions:
  status: ('A' for Active; 'I' for Inactive)
    1  A    between atoms: C_3  and  P_4
    2  A    between atoms: C_3  and  N_27
    3  A    between atoms: C_5  and  C_6
    4  A    between atoms: C_6  and  C_14
    5  A    between atoms: C_8  and  C_9
    6  A    between atoms: C_10  and  C_30
    7  A    between atoms: C_17  and  C_26
    8  A    between atoms: C_18  and  O_20
    9  A    between atoms: O_20  and  C_30
                            x       y       z     vdW  Elec       q    Type
                         _______ _______ _______ _____ _____    ______ ____

>  <TORSDO>
F 9

$$$$
=
 OpenBabel11052409583D

 39 43  0  0  1  0  0  0  0  0999 V2000
  161.9010  208.4830  149.5490 C   0  0  0  0  0  0  0  0  0  0  0  0
  161.8330  208.9730  150.8220 C   0  0  0  0  0  0  0  0  0  0  0  0
  162.3020  210.8120  149.3810 C   0  0  1  0  0  3  0  0  0  0  0  0
  161.1220  205.8260  152.6600 C   0  0  0  0  0  3  0  0  0  0  0  0
  161.3110  204.4280  148.6970 C   0  0  0  0  0  3  0  0  0  0  0  0
  160.9320  204.4730  152.3770 C   0  0  0  0  0  3  0  0  0  0  0  0
  161.5670  208.1290  151.9050 C   0  0  0  0  0  0  0  0  0  0  0  0
  162.0550  210.4390  150.8500 C   0  0  0  0  0  2  0  0  0  0  0  0
  160.9970  204.0160  151.0610 C   0  0  0  0  0  0  0  0  0  0  0  0
  160.8040  202.6960  150.7940 N   0  0  0  0  0  0  0  0  0  0  0  0
  160.8550  202.2100  149.5240 C   0  0  0  0  0  0  0  0  0  0  0  0
  161.4530  206.2850  150.2880 C   0  0  0  0  0  0  0  0  0  0  0  0
  160.6480  200.8230  149.2870 N   0  0  0  0  0  1  0  0  0  0  0  0
  162.1870  209.5250  148.5450 C   0  0  0  0  0  2  0  0  0  0  0  0
  161.7110  207.1680  149.2800 N   0  0  0  0  0  0  0  0  0  0  0  0
  161.3820  206.7470  151.6350 C   0  0  0  0  0  0  0  0  0  0  0  0
  161.1100  203.0690  148.4520 C   0  0  0  0  0  3  0  0  0  0  0  0
  161.2570  204.9210  150.0070 C   0  0  0  0  0  0  0  0  0  0  0  0
  161.7500  210.8180  154.6450 C   0  0  0  0  0  2  0  0  0  0  0  0
  160.2350  211.0170  154.5340 C   0  0  2  0  0  3  0  0  0  0  0  0
  160.2280  208.6850  153.8700 O   0  0  0  0  0  0  0  0  0  0  0  0
  159.5830  209.9220  153.6770 C   0  0  0  0  0  2  0  0  0  0  0  0
  161.5240  208.7240  153.2910 C   0  0  2  0  0  3  0  0  0  0  0  0
  162.2920  210.0510  153.4460 C   0  0  0  0  0  2  0  0  0  0  0  0
  159.9440  212.3870  153.9420 C   0  0  0  0  0  2  0  0  0  0  0  0
  159.8500  212.2940  152.5550 O   0  0  0  0  0  0  0  0  0  0  0  0
  159.0310  213.3610  152.1870 C   0  0  0  0  0  2  0  0  0  0  0  0
  157.8050  213.2540  152.8410 O   0  0  0  0  0  1  0  0  0  0  0  0
  161.2810  211.8100  148.9400 C   0  0  0  0  0  3  0  0  0  0  0  0
  161.2720  212.2660  147.6900 C   0  0  0  0  0  3  0  0  0  0  0  0
  160.2400  213.2510  147.2640 C   0  0  0  0  0  2  0  0  0  0  0  0
  160.2250  213.3530  145.7820 C   0  0  0  0  0  0  0  0  0  0  0  0
  161.0380  214.3330  145.1350 N   0  0  0  0  0  2  0  0  0  0  0  0
  159.5070  212.5660  145.1090 O   0  0  0  0  0  0  0  0  0  0  0  0
  161.1100  214.4530  143.6870 C   0  0  0  0  0  2  0  0  0  0  0  0
  162.4660  213.4310  143.0400 P   0  0  0  0  0  0  0  0  0  0  0  0
  163.2690  214.2510  141.7970 O   0  0  0  0  0  0  0  0  0  0  0  0
  161.8390  211.9780  142.4410 O   0  0  0  0  0  1  0  0  0  0  0  0
  163.4410  213.1330  144.1570 O   0  0  0  0  0  1  0  0  0  0  0  0
  1  2  1  0  0  0  0
  2  8  1  0  0  0  0
  2  7  2  0  0  0  0
  3 29  1  6  0  0  0
  3  8  1  0  0  0  0
  5 18  1  0  0  0  0
  6  4  1  0  0  0  0
  9  6  2  0  0  0  0
 10  9  1  0  0  0  0
 11 10  2  0  0  0  0
 12 16  1  0  0  0  0
 13 11  1  0  0  0  0
 14  3  1  0  0  0  0
 14  1  1  0  0  0  0
 15  1  2  0  0  0  0
 15 12  1  0  0  0  0
 16  7  1  0  0  0  0
 16  4  2  0  0  0  0
 17  5  2  0  0  0  0
 17 11  1  0  0  0  0
 18 12  2  0  0  0  0
 18  9  1  0  0  0  0
 20 25  1  6  0  0  0
 20 19  1  0  0  0  0
 22 21  1  0  0  0  0
 22 20  1  0  0  0  0
 23  7  1  6  0  0  0
 23 24  1  0  0  0  0
 23 21  1  0  0  0  0
 24 19  1  0  0  0  0
 26 25  1  0  0  0  0
 27 26  1  0  0  0  0
 27 28  1  0  0  0  0
 30 29  2  0  0  0  0
 31 30  1  0  0  0  0
 32 31  1  0  0  0  0
 33 32  1  0  0  0  0
 34 32  2  0  0  0  0
 35 33  1  0  0  0  0
 36 35  1  0  0  0  0
 36 39  1  0  0  0  0
 37 36  2  0  0  0  0
 38 36  1  0  0  0  0
M  END
>  <MODEL>
2

>  <REMARK>
 VINA RESULT:      -7.9      2.356      3.289
  Name = 
  9 active torsions:
  status: ('A' for Active; 'I' for Inactive)
    1  A    between atoms: C_3  and  P_4
    2  A    between atoms: C_3  and  N_27
    3  A    between atoms: C_5  and  C_6
    4  A    between atoms: C_6  and  C_14
    5  A    between atoms: C_8  and  C_9
    6  A    between atoms: C_10  and  C_30
    7  A    between atoms: C_17  and  C_26
    8  A    between atoms: C_18  and  O_20
    9  A    between atoms: O_20  and  C_30
                            x       y       z     vdW  Elec       q    Type
                         _______ _______ _______ _____ _____    ______ ____

>  <TORSDO>
F 9

$$$$
=
 OpenBabel11052409583D

 39 43  0  0  1  0  0  0  0  0999 V2000
  161.1780  208.6580  151.4650 C   0  0  0  0  0  0  0  0  0  0  0  0
  161.0940  208.4530  152.8130 C   0  0  0  0  0  0  0  0  0  0  0  0
  161.1850  210.8080  152.4610 C   0  0  1  0  0  3  0  0  0  0  0  0
  160.9980  204.7410  152.8700 C   0  0  0  0  0  3  0  0  0  0  0  0
  161.2150  205.4850  148.7360 C   0  0  0  0  0  3  0  0  0  0  0  0
  161.0170  203.6830  151.9610 C   0  0  0  0  0  3  0  0  0  0  0  0
  161.0240  207.1600  153.3420 C   0  0  0  0  0  0  0  0  0  0  0  0
  161.0760  209.7360  153.5550 C   0  0  0  0  0  2  0  0  0  0  0  0
  161.0900  203.9370  150.5910 C   0  0  0  0  0  0  0  0  0  0  0  0
  161.1030  202.8990  149.7110 N   0  0  0  0  0  0  0  0  0  0  0  0
  161.1690  203.1030  148.3680 C   0  0  0  0  0  0  0  0  0  0  0  0
  161.1320  206.3370  151.0310 C   0  0  0  0  0  0  0  0  0  0  0  0
  161.1790  201.9920  147.4820 N   0  0  0  0  0  1  0  0  0  0  0  0
  161.2400  210.0860  151.1030 C   0  0  0  0  0  2  0  0  0  0  0  0
  161.1920  207.6260  150.5870 N   0  0  0  0  0  0  0  0  0  0  0  0
  161.0530  206.0720  152.4300 C   0  0  0  0  0  0  0  0  0  0  0  0
  161.2270  204.4020  147.8560 C   0  0  0  0  0  3  0  0  0  0  0  0
  161.1470  205.2670  150.1180 C   0  0  0  0  0  0  0  0  0  0  0  0
  161.4950  208.0240  157.0570 C   0  0  0  0  0  2  0  0  0  0  0  0
  160.0930  208.6420  157.0790 C   0  0  2  0  0  3  0  0  0  0  0  0
  159.6220  207.0210  155.3370 O   0  0  0  0  0  0  0  0  0  0  0  0
  159.3120  208.3160  155.7970 C   0  0  0  0  0  2  0  0  0  0  0  0
  160.9530  206.9950  154.8400 C   0  0  2  0  0  3  0  0  0  0  0  0
  161.9840  207.8240  155.6280 C   0  0  0  0  0  2  0  0  0  0  0  0
  160.2030  210.1480  157.2550 C   0  0  0  0  0  2  0  0  0  0  0  0
  161.5440  210.5290  157.2610 O   0  0  0  0  0  0  0  0  0  0  0  0
  161.5120  211.9210  157.1990 C   0  0  0  0  0  2  0  0  0  0  0  0
  160.4890  212.3260  156.3440 O   0  0  0  0  0  1  0  0  0  0  0  0
  159.9940  211.7090  152.5210 C   0  0  0  0  0  3  0  0  0  0  0  0
  159.8850  212.7460  151.6970 C   0  0  0  0  0  3  0  0  0  0  0  0
  158.6860  213.6270  151.7630 C   0  0  0  0  0  2  0  0  0  0  0  0
  158.1760  213.6780  153.1570 C   0  0  0  0  0  0  0  0  0  0  0  0
  156.8400  213.2590  153.4350 N   0  0  0  0  0  2  0  0  0  0  0  0
  158.9320  214.0760  154.0840 O   0  0  0  0  0  0  0  0  0  0  0  0
  156.2940  213.2350  154.7840 C   0  0  0  0  0  2  0  0  0  0  0  0
  156.4620  211.5720  155.4970 P   0  0  0  0  0  0  0  0  0  0  0  0
  155.1850  210.5880  154.9810 O   0  0  0  0  0  0  0  0  0  0  0  0
  156.4430  211.6790  157.1850 O   0  0  0  0  0  1  0  0  0  0  0  0
  157.7730  210.9680  155.0480 O   0  0  0  0  0  1  0  0  0  0  0  0
  1  2  1  0  0  0  0
  2  7  2  0  0  0  0
  2  8  1  0  0  0  0
  3 29  1  6  0  0  0
  3  8  1  0  0  0  0
  5 18  1  0  0  0  0
  6  4  2  0  0  0  0
  9  6  1  0  0  0  0
 10  9  1  0  0  0  0
 11 10  2  0  0  0  0
 12 16  2  0  0  0  0
 13 11  1  0  0  0  0
 14  1  1  0  0  0  0
 14  3  1  0  0  0  0
 15 12  1  0  0  0  0
 15  1  2  0  0  0  0
 16  4  1  0  0  0  0
 16  7  1  0  0  0  0
 17 11  1  0  0  0  0
 17  5  2  0  0  0  0
 18  9  2  0  0  0  0
 18 12  1  0  0  0  0
 19 20  1  0  0  0  0
 20 25  1  6  0  0  0
 21 22  1  0  0  0  0
 22 20  1  0  0  0  0
 23  7  1  6  0  0  0
 23 21  1  0  0  0  0
 23 24  1  0  0  0  0
 24 19  1  0  0  0  0
 25 26  1  0  0  0  0
 27 26  1  0  0  0  0
 28 27  1  0  0  0  0
 30 31  1  0  0  0  0
 30 29  2  0  0  0  0
 31 32  1  0  0  0  0
 32 33  1  0  0  0  0
 32 34  2  0  0  0  0
 33 35  1  0  0  0  0
 35 36  1  0  0  0  0
 36 38  1  0  0  0  0
 37 36  2  0  0  0  0
 39 36  1  0  0  0  0
M  END
>  <MODEL>
3

>  <REMARK>
 VINA RESULT:      -7.6      3.088      3.735
  Name = 
  9 active torsions:
  status: ('A' for Active; 'I' for Inactive)
    1  A    between atoms: C_3  and  P_4
    2  A    between atoms: C_3  and  N_27
    3  A    between atoms: C_5  and  C_6
    4  A    between atoms: C_6  and  C_14
    5  A    between atoms: C_8  and  C_9
    6  A    between atoms: C_10  and  C_30
    7  A    between atoms: C_17  and  C_26
    8  A    between atoms: C_18  and  O_20
    9  A    between atoms: O_20  and  C_30
                            x       y       z     vdW  Elec       q    Type
                         _______ _______ _______ _____ _____    ______ ____

>  <TORSDO>
F 9

$$$$
=
 OpenBabel11052409583D

 39 43  0  0  1  0  0  0  0  0999 V2000
  161.5100  208.0510  151.0430 C   0  0  0  0  0  0  0  0  0  0  0  0
  161.3890  208.0030  152.4020 C   0  0  0  0  0  0  0  0  0  0  0  0
  161.7180  210.2860  151.8000 C   0  0  1  0  0  3  0  0  0  0  0  0
  160.9250  204.3470  152.8560 C   0  0  0  0  0  3  0  0  0  0  0  0
  161.2680  204.6090  148.6720 C   0  0  0  0  0  3  0  0  0  0  0  0
  160.8500  203.1990  152.0670 C   0  0  0  0  0  3  0  0  0  0  0  0
  161.1840  206.7890  153.0650 C   0  0  0  0  0  0  0  0  0  0  0  0
  161.4890  209.3560  153.0010 C   0  0  0  0  0  2  0  0  0  0  0  0
  160.9660  203.2930  150.6800 C   0  0  0  0  0  0  0  0  0  0  0  0
  160.8870  202.1690  149.9180 N   0  0  0  0  0  0  0  0  0  0  0  0
  160.9900  202.2170  148.5620 C   0  0  0  0  0  0  0  0  0  0  0  0
  161.2400  205.7120  150.8600 C   0  0  0  0  0  0  0  0  0  0  0  0
  160.9010  201.0200  147.8020 N   0  0  0  0  0  1  0  0  0  0  0  0
  161.7190  209.4180  150.5300 C   0  0  0  0  0  2  0  0  0  0  0  0
  161.4330  206.9320  150.2810 N   0  0  0  0  0  0  0  0  0  0  0  0
  161.1170  205.6100  152.2770 C   0  0  0  0  0  0  0  0  0  0  0  0
  161.1830  203.4410  147.9150 C   0  0  0  0  0  3  0  0  0  0  0  0
  161.1610  204.5520  150.0680 C   0  0  0  0  0  0  0  0  0  0  0  0
  161.5280  208.0950  156.6630 C   0  0  0  0  0  2  0  0  0  0  0  0
  160.1080  208.6630  156.5810 C   0  0  2  0  0  3  0  0  0  0  0  0
  159.7350  206.8360  155.0300 O   0  0  0  0  0  0  0  0  0  0  0  0
  159.3730  208.1640  155.3280 C   0  0  0  0  0  2  0  0  0  0  0  0
  161.0780  206.7970  154.5700 C   0  0  2  0  0  3  0  0  0  0  0  0
  162.0620  207.7460  155.2800 C   0  0  0  0  0  2  0  0  0  0  0  0
  160.1670  210.1820  156.5820 C   0  0  0  0  0  2  0  0  0  0  0  0
  161.3150  210.6120  157.2440 O   0  0  0  0  0  0  0  0  0  0  0  0
  161.2100  212.0020  157.2600 C   0  0  0  0  0  2  0  0  0  0  0  0
  160.3460  212.4160  156.2490 O   0  0  0  0  0  1  0  0  0  0  0  0
  160.6220  211.2990  151.7350 C   0  0  0  0  0  3  0  0  0  0  0  0
  160.1540  211.8670  152.8440 C   0  0  0  0  0  3  0  0  0  0  0  0
  159.0700  212.8830  152.7600 C   0  0  0  0  0  2  0  0  0  0  0  0
  157.8830  212.4150  153.5220 C   0  0  0  0  0  0  0  0  0  0  0  0
  156.8080  213.3200  153.7780 N   0  0  0  0  0  2  0  0  0  0  0  0
  157.8280  211.2220  153.9220 O   0  0  0  0  0  0  0  0  0  0  0  0
  155.5950  212.9140  154.4720 C   0  0  0  0  0  2  0  0  0  0  0  0
  155.7270  213.3030  156.2420 P   0  0  0  0  0  0  0  0  0  0  0  0
  157.3170  213.7380  156.6240 O   0  0  0  0  0  1  0  0  0  0  0  0
  155.2800  211.9480  157.1510 O   0  0  0  0  0  1  0  0  0  0  0  0
  154.8010  214.4530  156.5680 O   0  0  0  0  0  0  0  0  0  0  0  0
  1  2  1  0  0  0  0
  2  8  1  0  0  0  0
  2  7  2  0  0  0  0
  3 29  1  6  0  0  0
  3  8  1  0  0  0  0
  5 18  1  0  0  0  0
  6  4  2  0  0  0  0
  9  6  1  0  0  0  0
 10  9  1  0  0  0  0
 11 10  2  0  0  0  0
 12 16  2  0  0  0  0
 13 11  1  0  0  0  0
 14  1  1  0  0  0  0
 14  3  1  0  0  0  0
 15 12  1  0  0  0  0
 15  1  2  0  0  0  0
 16  4  1  0  0  0  0
 16  7  1  0  0  0  0
 17 11  1  0  0  0  0
 17  5  2  0  0  0  0
 18  9  2  0  0  0  0
 18 12  1  0  0  0  0
 20 25  1  6  0  0  0
 20 19  1  0  0  0  0
 21 22  1  0  0  0  0
 22 20  1  0  0  0  0
 23  7  1  6  0  0  0
 23 21  1  0  0  0  0
 23 24  1  0  0  0  0
 24 19  1  0  0  0  0
 25 26  1  0  0  0  0
 26 27  1  0  0  0  0
 28 27  1  0  0  0  0
 29 30  2  0  0  0  0
 31 30  1  0  0  0  0
 31 32  1  0  0  0  0
 32 33  1  0  0  0  0
 32 34  2  0  0  0  0
 33 35  1  0  0  0  0
 35 36  1  0  0  0  0
 36 39  2  0  0  0  0
 36 37  1  0  0  0  0
 36 38  1  0  0  0  0
M  END
>  <MODEL>
4

>  <REMARK>
 VINA RESULT:      -7.6      3.312      4.116
  Name = 
  9 active torsions:
  status: ('A' for Active; 'I' for Inactive)
    1  A    between atoms: C_3  and  P_4
    2  A    between atoms: C_3  and  N_27
    3  A    between atoms: C_5  and  C_6
    4  A    between atoms: C_6  and  C_14
    5  A    between atoms: C_8  and  C_9
    6  A    between atoms: C_10  and  C_30
    7  A    between atoms: C_17  and  C_26
    8  A    between atoms: C_18  and  O_20
    9  A    between atoms: O_20  and  C_30
                            x       y       z     vdW  Elec       q    Type
                         _______ _______ _______ _____ _____    ______ ____

>  <TORSDO>
F 9

$$$$
=
 OpenBabel11052409583D

 39 43  0  0  1  0  0  0  0  0999 V2000
  161.8790  209.3290  149.3860 C   0  0  0  0  0  0  0  0  0  0  0  0
  161.7430  210.1080  150.4980 C   0  0  0  0  0  0  0  0  0  0  0  0
  162.2570  211.5580  148.6780 C   0  0  1  0  0  3  0  0  0  0  0  0
  160.9860  207.4800  153.0100 C   0  0  0  0  0  3  0  0  0  0  0  0
  161.3870  205.1740  149.5150 C   0  0  0  0  0  3  0  0  0  0  0  0
  160.8280  206.0940  153.0540 C   0  0  0  0  0  3  0  0  0  0  0  0
  161.4360  209.5440  151.7410 C   0  0  0  0  0  0  0  0  0  0  0  0
  161.9440  211.5430  150.1810 C   0  0  0  0  0  2  0  0  0  0  0  0
  160.9630  205.3360  151.8920 C   0  0  0  0  0  0  0  0  0  0  0  0
  160.8020  203.9860  151.9430 N   0  0  0  0  0  0  0  0  0  0  0  0
  160.9220  203.2100  150.8320 C   0  0  0  0  0  0  0  0  0  0  0  0
  161.4260  207.3630  150.6140 C   0  0  0  0  0  0  0  0  0  0  0  0
  160.7450  201.8030  150.9280 N   0  0  0  0  0  1  0  0  0  0  0  0
  162.2000  210.1050  148.1740 C   0  0  0  0  0  2  0  0  0  0  0  0
  161.7210  207.9830  149.4350 N   0  0  0  0  0  0  0  0  0  0  0  0
  161.2830  208.1340  151.8050 C   0  0  0  0  0  0  0  0  0  0  0  0
  161.2170  203.7920  149.5970 C   0  0  0  0  0  3  0  0  0  0  0  0
  161.2630  205.9670  150.6630 C   0  0  0  0  0  0  0  0  0  0  0  0
  159.9830  211.0080  154.9840 C   0  0  0  0  0  2  0  0  0  0  0  0
  160.9060  210.0930  155.7960 C   0  0  2  0  0  3  0  0  0  0  0  0
  162.3720  210.2800  153.8730 O   0  0  0  0  0  0  0  0  0  0  0  0
  161.9560  209.4150  154.9040 C   0  0  0  0  0  2  0  0  0  0  0  0
  161.3170  210.4540  152.9390 C   0  0  2  0  0  3  0  0  0  0  0  0
  159.8990  210.5540  153.5320 C   0  0  0  0  0  2  0  0  0  0  0  0
  160.0760  209.0430  156.5170 C   0  0  0  0  0  2  0  0  0  0  0  0
  160.9100  208.1890  157.2360 O   0  0  0  0  0  0  0  0  0  0  0  0
  160.2780  206.9480  157.1740 C   0  0  0  0  0  2  0  0  0  0  0  0
  159.3350  206.9570  156.1490 O   0  0  0  0  0  1  0  0  0  0  0  0
  161.2450  212.3940  147.9640 C   0  0  0  0  0  3  0  0  0  0  0  0
  161.5740  213.5840  147.4690 C   0  0  0  0  0  3  0  0  0  0  0  0
  160.5560  214.3990  146.7500 C   0  0  0  0  0  2  0  0  0  0  0  0
  159.8940  213.5730  145.7090 C   0  0  0  0  0  0  0  0  0  0  0  0
  160.6800  212.9790  144.6750 N   0  0  0  0  0  2  0  0  0  0  0  0
  158.6480  213.3890  145.7550 O   0  0  0  0  0  0  0  0  0  0  0  0
  160.1040  212.1170  143.6540 C   0  0  0  0  0  2  0  0  0  0  0  0
  160.9830  212.3360  142.0790 P   0  0  0  0  0  0  0  0  0  0  0  0
  160.5980  211.0730  141.0200 O   0  0  0  0  0  0  0  0  0  0  0  0
  162.6510  212.3430  142.3620 O   0  0  0  0  0  1  0  0  0  0  0  0
  160.5740  213.6530  141.4600 O   0  0  0  0  0  1  0  0  0  0  0  0
  1 15  2  0  0  0  0
  1  2  1  0  0  0  0
  2  7  2  0  0  0  0
  3 29  1  6  0  0  0
  3  8  1  0  0  0  0
  4  6  1  0  0  0  0
  5 17  2  0  0  0  0
  5 18  1  0  0  0  0
  7 16  1  0  0  0  0
  8  2  1  0  0  0  0
  9 10  1  0  0  0  0
  9  6  2  0  0  0  0
 11 13  1  0  0  0  0
 11 10  2  0  0  0  0
 12 18  2  0  0  0  0
 12 16  1  0  0  0  0
 14  3  1  0  0  0  0
 14  1  1  0  0  0  0
 15 12  1  0  0  0  0
 16  4  2  0  0  0  0
 17 11  1  0  0  0  0
 18  9  1  0  0  0  0
 19 20  1  0  0  0  0
 20 25  1  6  0  0  0
 21 22  1  0  0  0  0
 22 20  1  0  0  0  0
 23  7  1  6  0  0  0
 23 24  1  0  0  0  0
 23 21  1  0  0  0  0
 24 19  1  0  0  0  0
 25 26  1  0  0  0  0
 27 26  1  0  0  0  0
 28 27  1  0  0  0  0
 30 29  2  0  0  0  0
 31 30  1  0  0  0  0
 32 34  2  0  0  0  0
 32 31  1  0  0  0  0
 33 32  1  0  0  0  0
 35 33  1  0  0  0  0
 36 38  1  0  0  0  0
 36 35  1  0  0  0  0
 37 36  2  0  0  0  0
 39 36  1  0  0  0  0
M  END
>  <MODEL>
5

>  <REMARK>
 VINA RESULT:      -7.1      2.458      3.626
  Name = 
  9 active torsions:
  status: ('A' for Active; 'I' for Inactive)
    1  A    between atoms: C_3  and  P_4
    2  A    between atoms: C_3  and  N_27
    3  A    between atoms: C_5  and  C_6
    4  A    between atoms: C_6  and  C_14
    5  A    between atoms: C_8  and  C_9
    6  A    between atoms: C_10  and  C_30
    7  A    between atoms: C_17  and  C_26
    8  A    between atoms: C_18  and  O_20
    9  A    between atoms: O_20  and  C_30
                            x       y       z     vdW  Elec       q    Type
                         _______ _______ _______ _____ _____    ______ ____

>  <TORSDO>
F 9

$$$$
=
 OpenBabel11052409583D

 39 43  0  0  1  0  0  0  0  0999 V2000
  161.8890  208.6070  149.3890 C   0  0  0  0  0  0  0  0  0  0  0  0
  161.9790  209.2170  150.6070 C   0  0  0  0  0  0  0  0  0  0  0  0
  162.3120  210.8960  148.9480 C   0  0  1  0  0  3  0  0  0  0  0  0
  161.4290  206.2830  152.8150 C   0  0  0  0  0  3  0  0  0  0  0  0
  161.1260  204.5080  149.0130 C   0  0  0  0  0  3  0  0  0  0  0  0
  161.1810  204.9150  152.6900 C   0  0  0  0  0  3  0  0  0  0  0  0
  161.8260  208.4890  151.7910 C   0  0  0  0  0  0  0  0  0  0  0  0
  162.2320  210.6720  150.4650 C   0  0  0  0  0  2  0  0  0  0  0  0
  161.0830  204.3330  151.4260 C   0  0  0  0  0  0  0  0  0  0  0  0
  160.8360  203.0000  151.3140 N   0  0  0  0  0  0  0  0  0  0  0  0
  160.7280  202.3940  150.1010 C   0  0  0  0  0  0  0  0  0  0  0  0
  161.4890  206.5040  150.3870 C   0  0  0  0  0  0  0  0  0  0  0  0
  160.4680  200.9980  150.0260 N   0  0  0  0  0  1  0  0  0  0  0  0
  162.0760  209.5390  148.2620 C   0  0  0  0  0  2  0  0  0  0  0  0
  161.6440  207.2780  149.2740 N   0  0  0  0  0  0  0  0  0  0  0  0
  161.5850  207.0940  151.6810 C   0  0  0  0  0  0  0  0  0  0  0  0
  160.8720  203.1390  148.9270 C   0  0  0  0  0  3  0  0  0  0  0  0
  161.2360  205.1260  150.2660 C   0  0  0  0  0  0  0  0  0  0  0  0
  161.0870  211.0850  154.5270 C   0  0  0  0  0  2  0  0  0  0  0  0
  160.1270  210.0940  155.1920 C   0  0  2  0  0  3  0  0  0  0  0  0
  161.5820  208.4150  154.2200 O   0  0  0  0  0  0  0  0  0  0  0  0
  160.2480  208.6920  154.5770 C   0  0  0  0  0  2  0  0  0  0  0  0
  161.9570  209.2150  153.1080 C   0  0  2  0  0  3  0  0  0  0  0  0
  161.4180  210.6580  153.1030 C   0  0  0  0  0  2  0  0  0  0  0  0
  158.7000  210.6010  155.0590 C   0  0  0  0  0  2  0  0  0  0  0  0
  158.2700  211.1340  156.2730 O   0  0  0  0  0  0  0  0  0  0  0  0
  156.9740  211.5820  156.0190 C   0  0  0  0  0  2  0  0  0  0  0  0
  156.5380  211.0790  154.7950 O   0  0  0  0  0  1  0  0  0  0  0  0
  161.2650  211.8770  148.5310 C   0  0  0  0  0  3  0  0  0  0  0  0
  161.6050  213.0370  147.9740 C   0  0  0  0  0  3  0  0  0  0  0  0
  160.5490  213.9980  147.5540 C   0  0  0  0  0  2  0  0  0  0  0  0
  159.2760  213.6860  148.2550 C   0  0  0  0  0  0  0  0  0  0  0  0
  159.0240  214.2510  149.5420 N   0  0  0  0  0  2  0  0  0  0  0  0
  158.4260  212.9390  147.7020 O   0  0  0  0  0  0  0  0  0  0  0  0
  157.7780  214.0280  150.2610 C   0  0  0  0  0  2  0  0  0  0  0  0
  158.1240  213.5100  151.9680 P   0  0  0  0  0  0  0  0  0  0  0  0
  158.4820  211.8560  152.0100 O   0  0  0  0  0  0  0  0  0  0  0  0
  156.7700  213.8170  152.9350 O   0  0  0  0  0  1  0  0  0  0  0  0
  159.3050  214.2920  152.4960 O   0  0  0  0  0  1  0  0  0  0  0  0
  1  2  1  0  0  0  0
  2  7  2  0  0  0  0
  3 29  1  6  0  0  0
  3  8  1  0  0  0  0
  5 18  1  0  0  0  0
  6  4  1  0  0  0  0
  8  2  1  0  0  0  0
  9  6  2  0  0  0  0
 10  9  1  0  0  0  0
 11 10  2  0  0  0  0
 12 16  1  0  0  0  0
 13 11  1  0  0  0  0
 14  3  1  0  0  0  0
 14  1  1  0  0  0  0
 15  1  2  0  0  0  0
 15 12  1  0  0  0  0
 16  7  1  0  0  0  0
 16  4  2  0  0  0  0
 17  5  2  0  0  0  0
 17 11  1  0  0  0  0
 18 12  2  0  0  0  0
 18  9  1  0  0  0  0
 19 20  1  0  0  0  0
 20 25  1  6  0  0  0
 21 22  1  0  0  0  0
 22 20  1  0  0  0  0
 23  7  1  6  0  0  0
 23 21  1  0  0  0  0
 24 23  1  0  0  0  0
 24 19  1  0  0  0  0
 25 26  1  0  0  0  0
 27 26  1  0  0  0  0
 28 27  1  0  0  0  0
 30 29  2  0  0  0  0
 31 30  1  0  0  0  0
 31 32  1  0  0  0  0
 32 33  1  0  0  0  0
 33 35  1  0  0  0  0
 34 32  2  0  0  0  0
 35 36  1  0  0  0  0
 36 37  2  0  0  0  0
 36 39  1  0  0  0  0
 36 38  1  0  0  0  0
M  END
>  <MODEL>
6

>  <REMARK>
 VINA RESULT:      -7.0      2.086      3.222
  Name = 
  9 active torsions:
  status: ('A' for Active; 'I' for Inactive)
    1  A    between atoms: C_3  and  P_4
    2  A    between atoms: C_3  and  N_27
    3  A    between atoms: C_5  and  C_6
    4  A    between atoms: C_6  and  C_14
    5  A    between atoms: C_8  and  C_9
    6  A    between atoms: C_10  and  C_30
    7  A    between atoms: C_17  and  C_26
    8  A    between atoms: C_18  and  O_20
    9  A    between atoms: O_20  and  C_30
                            x       y       z     vdW  Elec       q    Type
                         _______ _______ _______ _____ _____    ______ ____

>  <TORSDO>
F 9

$$$$
=
 OpenBabel11052409583D

 39 43  0  0  1  0  0  0  0  0999 V2000
  160.8740  207.4760  153.6490 C   0  0  0  0  0  0  0  0  0  0  0  0
  161.5010  207.7430  152.4660 C   0  0  0  0  0  0  0  0  0  0  0  0
  161.8500  205.4350  152.9470 C   0  0  1  0  0  3  0  0  0  0  0  0
  160.7180  211.3580  152.1500 C   0  0  0  0  0  3  0  0  0  0  0  0
  158.7840  210.4210  155.7660 C   0  0  0  0  0  3  0  0  0  0  0  0
  160.0270  212.3420  152.8580 C   0  0  0  0  0  3  0  0  0  0  0  0
  161.4760  209.0260  151.9100 C   0  0  0  0  0  0  0  0  0  0  0  0
  162.1460  206.5280  151.9110 C   0  0  0  0  0  2  0  0  0  0  0  0
  159.3890  212.0240  154.0570 C   0  0  0  0  0  0  0  0  0  0  0  0
  158.7120  212.9880  154.7380 N   0  0  0  0  0  0  0  0  0  0  0  0
  158.0730  212.7200  155.9090 C   0  0  0  0  0  0  0  0  0  0  0  0
  160.1390  209.7110  153.8520 C   0  0  0  0  0  0  0  0  0  0  0  0
  157.3770  213.7560  156.5900 N   0  0  0  0  0  1  0  0  0  0  0  0
  161.0100  206.0690  154.0700 C   0  0  0  0  0  2  0  0  0  0  0  0
  160.2010  208.4350  154.3310 N   0  0  0  0  0  0  0  0  0  0  0  0
  160.7860  210.0400  152.6250 C   0  0  0  0  0  0  0  0  0  0  0  0
  158.0980  211.4290  156.4440 C   0  0  0  0  0  3  0  0  0  0  0  0
  159.4410  210.7050  154.5610 C   0  0  0  0  0  0  0  0  0  0  0  0
  161.9560  209.6690  148.1520 C   0  0  0  0  0  2  0  0  0  0  0  0
  161.9930  211.1750  148.4260 C   0  0  2  0  0  3  0  0  0  0  0  0
  162.8880  210.5090  150.5800 O   0  0  0  0  0  0  0  0  0  0  0  0
  162.0930  211.4730  149.9300 C   0  0  0  0  0  2  0  0  0  0  0  0
  162.2040  209.2650  150.6100 C   0  0  2  0  0  3  0  0  0  0  0  0
  161.3980  208.9060  149.3470 C   0  0  0  0  0  2  0  0  0  0  0  0
  160.7500  211.8290  147.8450 C   0  0  0  0  0  2  0  0  0  0  0  0
  160.9840  212.2030  146.5230 O   0  0  0  0  0  0  0  0  0  0  0  0
  161.8190  213.3160  146.6170 C   0  0  0  0  0  2  0  0  0  0  0  0
  162.7010  213.3290  145.5390 O   0  0  0  0  0  1  0  0  0  0  0  0
  161.0930  204.3220  152.2980 C   0  0  0  0  0  3  0  0  0  0  0  0
  161.2120  204.0890  150.9940 C   0  0  0  0  0  3  0  0  0  0  0  0
  160.4590  202.9690  150.3660 C   0  0  0  0  0  2  0  0  0  0  0  0
  160.9460  202.7510  148.9800 C   0  0  0  0  0  0  0  0  0  0  0  0
  161.3750  203.8670  148.2000 N   0  0  0  0  0  2  0  0  0  0  0  0
  160.9920  201.5830  148.5100 O   0  0  0  0  0  0  0  0  0  0  0  0
  161.9120  203.7200  146.8550 C   0  0  0  0  0  2  0  0  0  0  0  0
  161.4500  205.1510  145.8350 P   0  0  0  0  0  0  0  0  0  0  0  0
  160.5440  206.2480  146.7530 O   0  0  0  0  0  1  0  0  0  0  0  0
  160.5290  204.6280  144.5150 O   0  0  0  0  0  0  0  0  0  0  0  0
  162.7040  205.8310  145.3340 O   0  0  0  0  0  1  0  0  0  0  0  0
  1 14  1  0  0  0  0
  1 15  1  0  0  0  0
  2  1  2  0  0  0  0
  3 29  1  6  0  0  0
  3 14  1  0  0  0  0
  4 16  1  0  0  0  0
  4  6  2  0  0  0  0
  5 17  1  0  0  0  0
  6  9  1  0  0  0  0
  7  2  1  0  0  0  0
  7 16  2  0  0  0  0
  8  2  1  0  0  0  0
  8  3  1  0  0  0  0
  9 18  1  0  0  0  0
  9 10  2  0  0  0  0
 10 11  1  0  0  0  0
 11 17  2  0  0  0  0
 11 13  1  0  0  0  0
 12 15  2  0  0  0  0
 12 18  1  0  0  0  0
 16 12  1  0  0  0  0
 18  5  2  0  0  0  0
 19 20  1  0  0  0  0
 19 24  1  0  0  0  0
 20 25  1  1  0  0  0
 20 22  1  0  0  0  0
 21 23  1  0  0  0  0
 22 21  1  0  0  0  0
 23  7  1  1  0  0  0
 24 23  1  0  0  0  0
 26 27  1  0  0  0  0
 26 25  1  0  0  0  0
 28 27  1  0  0  0  0
 30 29  2  0  0  0  0
 31 30  1  0  0  0  0
 32 31  1  0  0  0  0
 33 32  1  0  0  0  0
 34 32  2  0  0  0  0
 35 33  1  0  0  0  0
 36 37  1  0  0  0  0
 36 35  1  0  0  0  0
 38 36  2  0  0  0  0
 39 36  1  0  0  0  0
M  END
>  <MODEL>
7

>  <REMARK>
 VINA RESULT:      -6.9      3.594      8.572
  Name = 
  9 active torsions:
  status: ('A' for Active; 'I' for Inactive)
    1  A    between atoms: C_3  and  P_4
    2  A    between atoms: C_3  and  N_27
    3  A    between atoms: C_5  and  C_6
    4  A    between atoms: C_6  and  C_14
    5  A    between atoms: C_8  and  C_9
    6  A    between atoms: C_10  and  C_30
    7  A    between atoms: C_17  and  C_26
    8  A    between atoms: C_18  and  O_20
    9  A    between atoms: O_20  and  C_30
                            x       y       z     vdW  Elec       q    Type
                         _______ _______ _______ _____ _____    ______ ____

>  <TORSDO>
F 9

$$$$
=
 OpenBabel11052409583D

 39 43  0  0  1  0  0  0  0  0999 V2000
  161.7030  209.4120  149.5220 C   0  0  0  0  0  0  0  0  0  0  0  0
  161.5650  210.1360  150.6710 C   0  0  0  0  0  0  0  0  0  0  0  0
  161.9960  211.6820  148.9100 C   0  0  1  0  0  3  0  0  0  0  0  0
  160.9410  207.3740  153.0740 C   0  0  0  0  0  3  0  0  0  0  0  0
  161.3420  205.2420  149.4700 C   0  0  0  0  0  3  0  0  0  0  0  0
  160.8270  205.9830  153.0580 C   0  0  0  0  0  3  0  0  0  0  0  0
  161.3010  209.5070  151.8920 C   0  0  0  0  0  0  0  0  0  0  0  0
  161.7150  211.5890  150.4160 C   0  0  0  0  0  2  0  0  0  0  0  0
  160.9620  205.2830  151.8600 C   0  0  0  0  0  0  0  0  0  0  0  0
  160.8440  203.9270  151.8520 N   0  0  0  0  0  0  0  0  0  0  0  0
  160.9640  203.2060  150.7050 C   0  0  0  0  0  0  0  0  0  0  0  0
  161.3360  207.3790  150.6670 C   0  0  0  0  0  0  0  0  0  0  0  0
  160.8330  201.7910  150.7400 N   0  0  0  0  0  1  0  0  0  0  0  0
  161.9750  210.2520  148.3410 C   0  0  0  0  0  2  0  0  0  0  0  0
  161.5870  208.0610  149.5130 N   0  0  0  0  0  0  0  0  0  0  0  0
  161.1930  208.0910  151.8950 C   0  0  0  0  0  0  0  0  0  0  0  0
  161.2160  203.8530  149.4920 C   0  0  0  0  0  3  0  0  0  0  0  0
  161.2170  205.9780  150.6560 C   0  0  0  0  0  0  0  0  0  0  0  0
  160.4200  210.4300  155.5170 C   0  0  0  0  0  2  0  0  0  0  0  0
  161.8370  210.0420  155.9490 C   0  0  2  0  0  3  0  0  0  0  0  0
  162.4370  210.7030  153.6940 O   0  0  0  0  0  0  0  0  0  0  0  0
  162.7530  209.8110  154.7370 C   0  0  0  0  0  2  0  0  0  0  0  0
  161.1790  210.3570  153.1330 C   0  0  2  0  0  3  0  0  0  0  0  0
  160.1010  209.8900  154.1290 C   0  0  0  0  0  2  0  0  0  0  0  0
  161.7830  208.7890  156.8080 C   0  0  0  0  0  2  0  0  0  0  0  0
  160.4810  208.5800  157.2610 O   0  0  0  0  0  0  0  0  0  0  0  0
  160.2950  207.2010  157.1670 C   0  0  0  0  0  2  0  0  0  0  0  0
  159.3400  206.9250  156.1910 O   0  0  0  0  0  1  0  0  0  0  0  0
  160.9450  212.5160  148.2540 C   0  0  0  0  0  3  0  0  0  0  0  0
  160.1170  213.2610  148.9820 C   0  0  0  0  0  3  0  0  0  0  0  0
  159.0820  214.0960  148.3120 C   0  0  0  0  0  2  0  0  0  0  0  0
  157.9030  214.2460  149.2040 C   0  0  0  0  0  0  0  0  0  0  0  0
  158.0880  214.2580  150.6200 N   0  0  0  0  0  2  0  0  0  0  0  0
  156.7540  214.3780  148.7040 O   0  0  0  0  0  0  0  0  0  0  0  0
  156.9850  214.4530  151.5480 C   0  0  0  0  0  2  0  0  0  0  0  0
  157.3200  213.5860  153.1100 P   0  0  0  0  0  0  0  0  0  0  0  0
  158.1060  212.1190  152.8010 O   0  0  0  0  0  0  0  0  0  0  0  0
  155.8600  213.2840  153.9110 O   0  0  0  0  0  1  0  0  0  0  0  0
  158.1990  214.4530  153.9810 O   0  0  0  0  0  1  0  0  0  0  0  0
  1  2  1  0  0  0  0
  2  7  2  0  0  0  0
  3 29  1  6  0  0  0
  3  8  1  0  0  0  0
  5 17  2  0  0  0  0
  5 18  1  0  0  0  0
  6  4  1  0  0  0  0
  7 16  1  0  0  0  0
  8  2  1  0  0  0  0
  9  6  2  0  0  0  0
 10  9  1  0  0  0  0
 11 13  1  0  0  0  0
 11 10  2  0  0  0  0
 12 16  1  0  0  0  0
 14  3  1  0  0  0  0
 14  1  1  0  0  0  0
 15  1  2  0  0  0  0
 15 12  1  0  0  0  0
 16  4  2  0  0  0  0
 17 11  1  0  0  0  0
 18 12  2  0  0  0  0
 18  9  1  0  0  0  0
 19 20  1  0  0  0  0
 20 25  1  6  0  0  0
 21 22  1  0  0  0  0
 22 20  1  0  0  0  0
 23  7  1  6  0  0  0
 23 21  1  0  0  0  0
 23 24  1  0  0  0  0
 24 19  1  0  0  0  0
 25 26  1  0  0  0  0
 27 26  1  0  0  0  0
 28 27  1  0  0  0  0
 29 30  2  0  0  0  0
 31 30  1  0  0  0  0
 31 32  1  0  0  0  0
 32 33  1  0  0  0  0
 33 35  1  0  0  0  0
 34 32  2  0  0  0  0
 35 36  1  0  0  0  0
 36 38  1  0  0  0  0
 36 39  1  0  0  0  0
 37 36  2  0  0  0  0
M  END
>  <MODEL>
8

>  <REMARK>
 VINA RESULT:      -6.8      2.269      3.767
  Name = 
  9 active torsions:
  status: ('A' for Active; 'I' for Inactive)
    1  A    between atoms: C_3  and  P_4
    2  A    between atoms: C_3  and  N_27
    3  A    between atoms: C_5  and  C_6
    4  A    between atoms: C_6  and  C_14
    5  A    between atoms: C_8  and  C_9
    6  A    between atoms: C_10  and  C_30
    7  A    between atoms: C_17  and  C_26
    8  A    between atoms: C_18  and  O_20
    9  A    between atoms: O_20  and  C_30
                            x       y       z     vdW  Elec       q    Type
                         _______ _______ _______ _____ _____    ______ ____

>  <TORSDO>
F 9

$$$$
=
 OpenBabel11052409583D

 39 43  0  0  1  0  0  0  0  0999 V2000
  161.9990  208.0190  149.1200 C   0  0  0  0  0  0  0  0  0  0  0  0
  161.6170  208.1430  150.4250 C   0  0  0  0  0  0  0  0  0  0  0  0
  162.3870  210.2820  149.7060 C   0  0  1  0  0  3  0  0  0  0  0  0
  160.5420  204.6530  151.0940 C   0  0  0  0  0  3  0  0  0  0  0  0
  161.7050  204.3870  147.0600 C   0  0  0  0  0  3  0  0  0  0  0  0
  160.4500  203.4400  150.4090 C   0  0  0  0  0  3  0  0  0  0  0  0
  161.1140  207.0500  151.1370 C   0  0  0  0  0  0  0  0  0  0  0  0
  161.8000  209.5330  150.9120 C   0  0  0  0  0  2  0  0  0  0  0  0
  160.8380  203.3590  149.0720 C   0  0  0  0  0  0  0  0  0  0  0  0
  160.7400  202.1740  148.4110 N   0  0  0  0  0  0  0  0  0  0  0  0
  161.1030  202.0530  147.1050 C   0  0  0  0  0  0  0  0  0  0  0  0
  161.4260  205.7280  149.0910 C   0  0  0  0  0  0  0  0  0  0  0  0
  160.9850  200.7970  146.4510 N   0  0  0  0  0  1  0  0  0  0  0  0
  162.5000  209.2800  148.5430 C   0  0  0  0  0  2  0  0  0  0  0  0
  161.9040  206.8390  148.4600 N   0  0  0  0  0  0  0  0  0  0  0  0
  161.0240  205.8060  150.4570 C   0  0  0  0  0  0  0  0  0  0  0  0
  161.5940  203.1590  146.4070 C   0  0  0  0  0  3  0  0  0  0  0  0
  161.3290  204.5040  148.4050 C   0  0  0  0  0  0  0  0  0  0  0  0
  161.5570  207.7460  154.8900 C   0  0  0  0  0  2  0  0  0  0  0  0
  161.2730  209.2300  154.6370 C   0  0  2  0  0  3  0  0  0  0  0  0
  159.9330  208.4020  152.7920 O   0  0  0  0  0  0  0  0  0  0  0  0
  160.7510  209.4690  153.2120 C   0  0  0  0  0  2  0  0  0  0  0  0
  160.7270  207.2430  152.5820 C   0  0  2  0  0  3  0  0  0  0  0  0
  161.8710  207.0170  153.5900 C   0  0  0  0  0  2  0  0  0  0  0  0
  162.5390  210.0380  154.8720 C   0  0  0  0  0  2  0  0  0  0  0  0
  162.2550  211.1420  155.6740 O   0  0  0  0  0  0  0  0  0  0  0  0
  161.2790  210.6890  156.5600 C   0  0  0  0  0  2  0  0  0  0  0  0
  160.2880  211.6580  156.6970 O   0  0  0  0  0  1  0  0  0  0  0  0
  161.4840  211.4120  149.3320 C   0  0  0  0  0  3  0  0  0  0  0  0
  161.6520  212.0640  148.1850 C   0  0  0  0  0  3  0  0  0  0  0  0
  160.7360  213.1800  147.8220 C   0  0  0  0  0  2  0  0  0  0  0  0
  161.1150  213.7290  146.4940 C   0  0  0  0  0  0  0  0  0  0  0  0
  160.1520  213.7480  145.4390 N   0  0  0  0  0  2  0  0  0  0  0  0
  162.2750  214.1860  146.3150 O   0  0  0  0  0  0  0  0  0  0  0  0
  160.4400  214.3180  144.1310 C   0  0  0  0  0  2  0  0  0  0  0  0
  160.9610  213.0120  142.9800 P   0  0  0  0  0  0  0  0  0  0  0  0
  160.0470  211.6110  143.2400 O   0  0  0  0  0  1  0  0  0  0  0  0
  162.6000  212.6670  143.2240 O   0  0  0  0  0  1  0  0  0  0  0  0
  160.7560  213.4890  141.5600 O   0  0  0  0  0  0  0  0  0  0  0  0
  1  2  1  0  0  0  0
  2  8  1  0  0  0  0
  2  7  2  0  0  0  0
  3 29  1  6  0  0  0
  3  8  1  0  0  0  0
  5 18  1  0  0  0  0
  6  4  2  0  0  0  0
  9  6  1  0  0  0  0
 10  9  1  0  0  0  0
 11 10  2  0  0  0  0
 12 16  2  0  0  0  0
 13 11  1  0  0  0  0
 14  1  1  0  0  0  0
 14  3  1  0  0  0  0
 15 12  1  0  0  0  0
 15  1  2  0  0  0  0
 16  4  1  0  0  0  0
 16  7  1  0  0  0  0
 17  5  2  0  0  0  0
 17 11  1  0  0  0  0
 18  9  2  0  0  0  0
 18 12  1  0  0  0  0
 20 25  1  6  0  0  0
 20 19  1  0  0  0  0
 21 22  1  0  0  0  0
 22 20  1  0  0  0  0
 23  7  1  6  0  0  0
 23 21  1  0  0  0  0
 23 24  1  0  0  0  0
 24 19  1  0  0  0  0
 25 26  1  0  0  0  0
 26 27  1  0  0  0  0
 27 28  1  0  0  0  0
 30 29  2  0  0  0  0
 31 30  1  0  0  0  0
 32 31  1  0  0  0  0
 33 32  1  0  0  0  0
 34 32  2  0  0  0  0
 35 33  1  0  0  0  0
 36 38  1  0  0  0  0
 36 37  1  0  0  0  0
 36 35  1  0  0  0  0
 39 36  2  0  0  0  0
M  END
>  <MODEL>
9

>  <REMARK>
 VINA RESULT:      -6.4      2.286      3.071
  Name = 
  9 active torsions:
  status: ('A' for Active; 'I' for Inactive)
    1  A    between atoms: C_3  and  P_4
    2  A    between atoms: C_3  and  N_27
    3  A    between atoms: C_5  and  C_6
    4  A    between atoms: C_6  and  C_14
    5  A    between atoms: C_8  and  C_9
    6  A    between atoms: C_10  and  C_30
    7  A    between atoms: C_17  and  C_26
    8  A    between atoms: C_18  and  O_20
    9  A    between atoms: O_20  and  C_30
                            x       y       z     vdW  Elec       q    Type
                         _______ _______ _______ _____ _____    ______ ____

>  <TORSDO>
F 9

$$$$
