=
 OpenBabel11042420473D

 27 30  0  0  1  0  0  0  0  0999 V2000
  161.4430  205.6030  150.9630 C   0  0  2  0  0  3  0  0  0  0  0  0
  161.3480  206.2120  153.3460 C   0  0  0  0  0  2  0  0  0  0  0  0
  161.6010  207.6550  153.0190 C   0  0  0  0  0  0  0  0  0  0  0  0
  160.5760  205.5690  152.2210 C   0  0  0  0  0  2  0  0  0  0  0  0
  161.9470  207.0030  150.5520 C   0  0  2  0  0  3  0  0  0  0  0  0
  162.0660  208.0240  151.6210 C   0  0  1  0  0  3  0  0  0  0  0  0
  160.9030  208.0280  150.7120 N   0  0  0  0  0  2  0  0  0  0  0  0
  161.4230  208.6220  153.9560 C   0  0  0  0  0  0  0  0  0  0  0  0
  161.7060  210.0690  153.5940 C   0  0  1  0  0  3  0  0  0  0  0  0
  160.5190  210.7940  153.5630 C   0  0  0  0  0  0  0  0  0  0  0  0
  159.0880  211.1840  152.8840 S   0  0  0  0  0  0  0  0  0  0  0  0
  161.5570  210.9380  154.6810 N   0  0  0  0  0  2  0  0  0  0  0  0
  161.9110  208.1300  156.2410 O   0  0  0  0  0  0  0  0  0  0  0  0
  159.6570  208.0870  155.6890 N   0  0  0  0  0  1  0  0  0  0  0  0
  161.0300  208.2690  155.3480 C   0  0  0  0  0  0  0  0  0  0  0  0
  160.8260  204.8540  149.7710 C   0  0  2  0  0  3  0  0  0  0  0  0
  160.3080  202.5720  149.0420 N   0  0  0  0  0  2  0  0  0  0  0  0
  161.3660  203.4360  149.5870 C   0  0  2  0  0  3  0  0  0  0  0  0
  160.6600  202.5090  150.4680 C   0  0  2  0  0  3  0  0  0  0  0  0
  161.4620  201.3910  150.6950 O   0  0  0  0  0  1  0  0  0  0  0  0
  160.0980  206.5290  148.2850 O   0  0  0  0  0  0  0  0  0  0  0  0
  160.9100  205.6370  148.4900 C   0  0  0  0  0  0  0  0  0  0  0  0
  161.2810  205.3840  145.8680 C   0  0  0  0  0  2  0  0  0  0  0  0
  162.1280  205.2670  147.2370 S   0  0  0  0  0  0  0  0  0  0  0  0
  161.2030  204.2210  144.9390 C   0  0  0  0  0  2  0  0  0  0  0  0
  161.4380  202.9930  145.6770 N   0  0  0  0  0  2  0  0  0  0  0  0
  160.3930  202.0650  145.2850 C   0  0  0  0  0  1  0  0  0  0  0  0
  1 16  1  6  0  0  0
  1  4  1  0  0  0  0
  3  2  1  0  0  0  0
  3  8  2  0  0  0  0
  4  2  1  0  0  0  0
  5  7  1  6  0  0  0
  5  1  1  0  0  0  0
  5  6  1  0  0  0  0
  6  7  1  6  0  0  0
  6  3  1  0  0  0  0
  8 15  1  0  0  0  0
  9  8  1  1  0  0  0
  9 12  1  0  0  0  0
 10  9  1  0  0  0  0
 10 12  1  0  0  0  0
 11 10  2  0  0  0  0
 15 14  1  0  0  0  0
 15 13  2  0  0  0  0
 16 22  1  6  0  0  0
 17 18  1  0  0  0  0
 17 19  1  0  0  0  0
 18 16  1  1  0  0  0
 18 19  1  0  0  0  0
 19 20  1  6  0  0  0
 21 22  2  0  0  0  0
 23 24  1  0  0  0  0
 24 22  1  0  0  0  0
 25 26  1  0  0  0  0
 25 23  1  0  0  0  0
 27 26  1  0  0  0  0
M  END
>  <MODEL>
1

>  <REMARK>
 VINA RESULT:      -7.0      0.000      0.000
  Name = 
  8 active torsions:
  status: ('A' for Active; 'I' for Inactive)
    1  A    between atoms: C_1  and  C_24
    2  A    between atoms: C_2  and  C_17
    3  A    between atoms: C_3  and  C_10
    4  A    between atoms: C_10  and  CA_16
    5  A    between atoms: C_10  and  C_25
    6  A    between atoms: S_13  and  C_25
    7  A    between atoms: N_14  and  C_17
    8  A    between atoms: C_24  and  C_27
                            x       y       z     vdW  Elec       q    Type
                         _______ _______ _______ _____ _____    ______ ____

>  <TORSDO>
F 8

$$$$
=
 OpenBabel11042420473D

 27 30  0  0  1  0  0  0  0  0999 V2000
  160.8430  205.6300  150.9230 C   0  0  2  0  0  3  0  0  0  0  0  0
  160.6470  207.9590  151.6940 C   0  0  0  0  0  2  0  0  0  0  0  0
  160.9070  207.5440  153.1130 C   0  0  0  0  0  0  0  0  0  0  0  0
  161.3960  207.0440  150.7570 C   0  0  0  0  0  2  0  0  0  0  0  0
  160.8720  205.0790  152.3650 C   0  0  2  0  0  3  0  0  0  0  0  0
  160.8570  206.0680  153.4700 C   0  0  1  0  0  3  0  0  0  0  0  0
  162.1220  205.4300  153.0580 N   0  0  0  0  0  2  0  0  0  0  0  0
  161.1790  208.4690  154.0690 C   0  0  0  0  0  0  0  0  0  0  0  0
  161.4190  208.0130  155.4970 C   0  0  1  0  0  3  0  0  0  0  0  0
  161.7540  209.1010  156.2960 C   0  0  0  0  0  0  0  0  0  0  0  0
  162.7870  210.2670  156.7790 S   0  0  0  0  0  0  0  0  0  0  0  0
  160.3950  208.3990  156.3680 N   0  0  0  0  0  2  0  0  0  0  0  0
  162.2120  210.4880  153.3240 O   0  0  0  0  0  0  0  0  0  0  0  0
  159.9760  210.6890  153.9090 N   0  0  0  0  0  1  0  0  0  0  0  0
  161.1670  209.9220  153.7470 C   0  0  0  0  0  0  0  0  0  0  0  0
  161.4280  204.6200  149.9230 C   0  0  2  0  0  3  0  0  0  0  0  0
  162.1270  204.6420  147.5740 N   0  0  0  0  0  2  0  0  0  0  0  0
  160.9880  204.8560  148.4780 C   0  0  2  0  0  3  0  0  0  0  0  0
  161.6930  206.0050  147.9160 C   0  0  2  0  0  3  0  0  0  0  0  0
  160.9490  206.5290  146.8610 O   0  0  0  0  0  1  0  0  0  0  0  0
  161.7760  202.7550  151.3160 O   0  0  0  0  0  0  0  0  0  0  0  0
  161.1910  203.1940  150.3360 C   0  0  0  0  0  0  0  0  0  0  0  0
  161.1350  200.9680  148.8800 C   0  0  0  0  0  2  0  0  0  0  0  0
  160.1210  202.1080  149.4060 S   0  0  0  0  0  0  0  0  0  0  0  0
  161.2690  200.7060  147.4190 C   0  0  0  0  0  2  0  0  0  0  0  0
  160.6330  201.7780  146.6740 N   0  0  0  0  0  2  0  0  0  0  0  0
  160.2850  201.2320  145.3740 C   0  0  0  0  0  1  0  0  0  0  0  0
  1 16  1  6  0  0  0
  1  5  1  0  0  0  0
  2  3  1  0  0  0  0
  3  6  1  0  0  0  0
  3  8  2  0  0  0  0
  4  1  1  0  0  0  0
  4  2  1  0  0  0  0
  5  7  1  6  0  0  0
  5  6  1  0  0  0  0
  6  7  1  1  0  0  0
  9  8  1  6  0  0  0
  9 10  1  0  0  0  0
  9 12  1  0  0  0  0
 10 12  1  0  0  0  0
 10 11  2  0  0  0  0
 13 15  2  0  0  0  0
 15 14  1  0  0  0  0
 15  8  1  0  0  0  0
 16 22  1  1  0  0  0
 17 19  1  0  0  0  0
 17 18  1  0  0  0  0
 18 16  1  1  0  0  0
 19 20  1  6  0  0  0
 19 18  1  0  0  0  0
 22 21  2  0  0  0  0
 23 24  1  0  0  0  0
 24 22  1  0  0  0  0
 25 23  1  0  0  0  0
 26 25  1  0  0  0  0
 27 26  1  0  0  0  0
M  END
>  <MODEL>
2

>  <REMARK>
 VINA RESULT:      -6.4      2.097      3.402
  Name = 
  8 active torsions:
  status: ('A' for Active; 'I' for Inactive)
    1  A    between atoms: C_1  and  C_24
    2  A    between atoms: C_2  and  C_17
    3  A    between atoms: C_3  and  C_10
    4  A    between atoms: C_10  and  CA_16
    5  A    between atoms: C_10  and  C_25
    6  A    between atoms: S_13  and  C_25
    7  A    between atoms: N_14  and  C_17
    8  A    between atoms: C_24  and  C_27
                            x       y       z     vdW  Elec       q    Type
                         _______ _______ _______ _____ _____    ______ ____

>  <TORSDO>
F 8

$$$$
=
 OpenBabel11042420473D

 27 30  0  0  1  0  0  0  0  0999 V2000
  160.8360  207.1880  151.7370 C   0  0  2  0  0  3  0  0  0  0  0  0
  160.4440  204.8680  151.0110 C   0  0  0  0  0  2  0  0  0  0  0  0
  161.0140  205.1640  149.6540 C   0  0  0  0  0  0  0  0  0  0  0  0
  161.1370  205.7220  152.0450 C   0  0  0  0  0  2  0  0  0  0  0  0
  161.2060  207.6480  150.3100 C   0  0  2  0  0  3  0  0  0  0  0  0
  161.2460  206.6100  149.2510 C   0  0  1  0  0  3  0  0  0  0  0  0
  162.4950  207.0890  149.8740 N   0  0  0  0  0  2  0  0  0  0  0  0
  161.3170  204.1580  148.7940 C   0  0  0  0  0  0  0  0  0  0  0  0
  161.8750  204.4960  147.4220 C   0  0  1  0  0  3  0  0  0  0  0  0
  161.2240  203.7510  146.4450 C   0  0  0  0  0  0  0  0  0  0  0  0
  160.9100  202.3470  145.6760 S   0  0  0  0  0  0  0  0  0  0  0  0
  160.9870  205.2510  146.6480 N   0  0  0  0  0  2  0  0  0  0  0  0
  161.9780  201.9630  149.4600 O   0  0  0  0  0  0  0  0  0  0  0  0
  159.6960  202.2480  149.1500 N   0  0  0  0  0  1  0  0  0  0  0  0
  161.0340  202.7410  149.1500 C   0  0  0  0  0  0  0  0  0  0  0  0
  161.3720  208.1620  152.7990 C   0  0  2  0  0  3  0  0  0  0  0  0
  161.4040  208.7080  155.1880 N   0  0  0  0  0  2  0  0  0  0  0  0
  160.5820  208.1450  154.1070 C   0  0  2  0  0  3  0  0  0  0  0  0
  161.2200  207.2540  155.0720 C   0  0  2  0  0  3  0  0  0  0  0  0
  160.2730  206.8340  156.0050 O   0  0  0  0  0  1  0  0  0  0  0  0
  162.6230  209.9350  151.8860 O   0  0  0  0  0  0  0  0  0  0  0  0
  161.5240  209.5620  152.2740 C   0  0  0  0  0  0  0  0  0  0  0  0
  160.5130  211.7150  153.4660 C   0  0  0  0  0  2  0  0  0  0  0  0
  160.1590  210.7140  152.2510 S   0  0  0  0  0  0  0  0  0  0  0  0
  159.5490  211.8970  154.5880 C   0  0  0  0  0  2  0  0  0  0  0  0
  158.2510  211.3710  154.2010 N   0  0  0  0  0  2  0  0  0  0  0  0
  157.5170  211.1280  155.4300 C   0  0  0  0  0  1  0  0  0  0  0  0
  1  4  1  0  0  0  0
  1 16  1  1  0  0  0
  2  4  1  0  0  0  0
  3  2  1  0  0  0  0
  5  7  1  1  0  0  0
  5  1  1  0  0  0  0
  6  3  1  1  0  0  0
  6  7  1  0  0  0  0
  6  5  1  0  0  0  0
  8 15  1  0  0  0  0
  8  3  2  0  0  0  0
  9  8  1  1  0  0  0
 10 12  1  0  0  0  0
 10  9  1  0  0  0  0
 11 10  2  0  0  0  0
 12  9  1  0  0  0  0
 15 14  1  0  0  0  0
 15 13  2  0  0  0  0
 16 22  1  6  0  0  0
 18 16  1  6  0  0  0
 18 19  1  0  0  0  0
 18 17  1  0  0  0  0
 19 17  1  0  0  0  0
 19 20  1  1  0  0  0
 21 22  2  0  0  0  0
 23 25  1  0  0  0  0
 24 22  1  0  0  0  0
 24 23  1  0  0  0  0
 26 25  1  0  0  0  0
 26 27  1  0  0  0  0
M  END
>  <MODEL>
3

>  <REMARK>
 VINA RESULT:      -5.8      1.975      7.895
  Name = 
  8 active torsions:
  status: ('A' for Active; 'I' for Inactive)
    1  A    between atoms: C_1  and  C_24
    2  A    between atoms: C_2  and  C_17
    3  A    between atoms: C_3  and  C_10
    4  A    between atoms: C_10  and  CA_16
    5  A    between atoms: C_10  and  C_25
    6  A    between atoms: S_13  and  C_25
    7  A    between atoms: N_14  and  C_17
    8  A    between atoms: C_24  and  C_27
                            x       y       z     vdW  Elec       q    Type
                         _______ _______ _______ _____ _____    ______ ____

>  <TORSDO>
F 8

$$$$
=
 OpenBabel11042420473D

 27 30  0  0  1  0  0  0  0  0999 V2000
  160.6440  206.3470  150.5600 C   0  0  2  0  0  3  0  0  0  0  0  0
  160.2200  203.9640  150.1140 C   0  0  0  0  0  2  0  0  0  0  0  0
  160.8020  204.0870  148.7350 C   0  0  0  0  0  0  0  0  0  0  0  0
  160.9200  204.9240  151.0430 C   0  0  0  0  0  2  0  0  0  0  0  0
  161.0290  206.6280  149.0920 C   0  0  2  0  0  3  0  0  0  0  0  0
  161.0590  205.4710  148.1640 C   0  0  1  0  0  3  0  0  0  0  0  0
  162.3120  206.0020  148.7350 N   0  0  0  0  0  2  0  0  0  0  0  0
  161.0940  202.9810  148.0030 C   0  0  0  0  0  0  0  0  0  0  0  0
  161.6650  203.1450  146.6060 C   0  0  1  0  0  3  0  0  0  0  0  0
  160.7870  202.6150  145.6670 C   0  0  0  0  0  0  0  0  0  0  0  0
  160.0540  201.3580  144.9300 S   0  0  0  0  0  0  0  0  0  0  0  0
  160.9960  204.1200  145.8580 N   0  0  0  0  0  2  0  0  0  0  0  0
  159.6610  201.3750  149.0370 O   0  0  0  0  0  0  0  0  0  0  0  0
  161.7600  200.5810  148.4470 N   0  0  0  0  0  1  0  0  0  0  0  0
  160.7870  201.6210  148.5240 C   0  0  0  0  0  0  0  0  0  0  0  0
  161.1890  207.4330  151.5030 C   0  0  2  0  0  3  0  0  0  0  0  0
  162.3740  209.5720  151.6650 N   0  0  0  0  0  2  0  0  0  0  0  0
  162.2140  208.3600  150.8490 C   0  0  2  0  0  3  0  0  0  0  0  0
  161.5750  209.6050  150.4310 C   0  0  2  0  0  3  0  0  0  0  0  0
  162.3260  210.1870  149.4120 O   0  0  0  0  0  1  0  0  0  0  0  0
  162.8000  206.3070  152.7970 O   0  0  0  0  0  0  0  0  0  0  0  0
  161.7130  206.8670  152.7930 C   0  0  0  0  0  0  0  0  0  0  0  0
  161.1100  208.4180  154.8690 C   0  0  0  0  0  2  0  0  0  0  0  0
  160.7700  206.9440  154.3080 S   0  0  0  0  0  0  0  0  0  0  0  0
  161.7100  208.5800  156.2240 C   0  0  0  0  0  2  0  0  0  0  0  0
  161.6720  209.9800  156.6070 N   0  0  0  0  0  2  0  0  0  0  0  0
  161.8520  210.7490  155.3880 C   0  0  0  0  0  1  0  0  0  0  0  0
  1  4  1  0  0  0  0
  1 16  1  1  0  0  0
  2  4  1  0  0  0  0
  3  2  1  0  0  0  0
  5  7  1  1  0  0  0
  5  1  1  0  0  0  0
  6  3  1  1  0  0  0
  6  7  1  0  0  0  0
  6  5  1  0  0  0  0
  8 15  1  0  0  0  0
  8  3  2  0  0  0  0
  9  8  1  1  0  0  0
 10 12  1  0  0  0  0
 10  9  1  0  0  0  0
 11 10  2  0  0  0  0
 12  9  1  0  0  0  0
 14 15  1  0  0  0  0
 15 13  2  0  0  0  0
 16 22  1  1  0  0  0
 18 16  1  1  0  0  0
 18 17  1  0  0  0  0
 19 20  1  6  0  0  0
 19 18  1  0  0  0  0
 19 17  1  0  0  0  0
 22 21  2  0  0  0  0
 22 24  1  0  0  0  0
 23 25  1  0  0  0  0
 24 23  1  0  0  0  0
 25 26  1  0  0  0  0
 27 26  1  0  0  0  0
M  END
>  <MODEL>
4

>  <REMARK>
 VINA RESULT:      -5.6      2.340      8.356
  Name = 
  8 active torsions:
  status: ('A' for Active; 'I' for Inactive)
    1  A    between atoms: C_1  and  C_24
    2  A    between atoms: C_2  and  C_17
    3  A    between atoms: C_3  and  C_10
    4  A    between atoms: C_10  and  CA_16
    5  A    between atoms: C_10  and  C_25
    6  A    between atoms: S_13  and  C_25
    7  A    between atoms: N_14  and  C_17
    8  A    between atoms: C_24  and  C_27
                            x       y       z     vdW  Elec       q    Type
                         _______ _______ _______ _____ _____    ______ ____

>  <TORSDO>
F 8

$$$$
=
 OpenBabel11042420473D

 27 30  0  0  1  0  0  0  0  0999 V2000
  162.0460  205.5210  151.5330 C   0  0  2  0  0  3  0  0  0  0  0  0
  161.5830  206.0910  153.8830 C   0  0  0  0  0  2  0  0  0  0  0  0
  161.3820  207.5350  153.5250 C   0  0  0  0  0  0  0  0  0  0  0  0
  161.1450  205.2220  152.7300 C   0  0  0  0  0  2  0  0  0  0  0  0
  162.1020  207.0050  151.1100 C   0  0  2  0  0  3  0  0  0  0  0  0
  161.8060  208.0200  152.1500 C   0  0  1  0  0  3  0  0  0  0  0  0
  160.7750  207.6390  151.1650 N   0  0  0  0  0  2  0  0  0  0  0  0
  160.8330  208.4010  154.4150 C   0  0  0  0  0  0  0  0  0  0  0  0
  160.6610  209.8590  154.0240 C   0  0  1  0  0  3  0  0  0  0  0  0
  160.0130  210.5520  155.0410 C   0  0  0  0  0  0  0  0  0  0  0  0
  158.6860  210.9100  155.9200 S   0  0  0  0  0  0  0  0  0  0  0  0
  161.5060  210.7140  154.7390 N   0  0  0  0  0  2  0  0  0  0  0  0
  159.3410  207.4460  156.0150 O   0  0  0  0  0  0  0  0  0  0  0  0
  161.4020  208.0940  156.8610 N   0  0  0  0  0  1  0  0  0  0  0  0
  160.4730  207.9550  155.7880 C   0  0  0  0  0  0  0  0  0  0  0  0
  161.7940  204.6010  150.3280 C   0  0  2  0  0  3  0  0  0  0  0  0
  161.2310  204.6650  147.9440 N   0  0  0  0  0  2  0  0  0  0  0  0
  160.8840  205.2130  149.2640 C   0  0  2  0  0  3  0  0  0  0  0  0
  161.6680  206.0150  148.3290 C   0  0  2  0  0  3  0  0  0  0  0  0
  160.8370  206.9580  147.7250 O   0  0  0  0  0  1  0  0  0  0  0  0
  161.8460  202.6770  151.6830 O   0  0  0  0  0  0  0  0  0  0  0  0
  161.3130  203.2360  150.7350 C   0  0  0  0  0  0  0  0  0  0  0  0
  160.8180  201.1850  149.1140 C   0  0  0  0  0  2  0  0  0  0  0  0
  160.0210  202.3860  149.8410 S   0  0  0  0  0  0  0  0  0  0  0  0
  160.7720  201.0520  147.6300 C   0  0  0  0  0  2  0  0  0  0  0  0
  161.7390  200.0550  147.2030 N   0  0  0  0  0  2  0  0  0  0  0  0
  161.1990  199.4390  146.0040 C   0  0  0  0  0  1  0  0  0  0  0  0
  1 16  1  6  0  0  0
  1  4  1  0  0  0  0
  3  2  1  0  0  0  0
  3  8  2  0  0  0  0
  4  2  1  0  0  0  0
  5  7  1  6  0  0  0
  5  1  1  0  0  0  0
  5  6  1  0  0  0  0
  6  7  1  6  0  0  0
  6  3  1  0  0  0  0
  8 15  1  0  0  0  0
  9  8  1  1  0  0  0
  9 12  1  0  0  0  0
  9 10  1  0  0  0  0
 10 11  2  0  0  0  0
 12 10  1  0  0  0  0
 15 13  2  0  0  0  0
 15 14  1  0  0  0  0
 16 22  1  1  0  0  0
 17 19  1  0  0  0  0
 17 18  1  0  0  0  0
 18 16  1  1  0  0  0
 19 20  1  6  0  0  0
 19 18  1  0  0  0  0
 22 21  2  0  0  0  0
 23 24  1  0  0  0  0
 24 22  1  0  0  0  0
 25 23  1  0  0  0  0
 26 25  1  0  0  0  0
 27 26  1  0  0  0  0
M  END
>  <MODEL>
5

>  <REMARK>
 VINA RESULT:      -5.5      1.898      2.877
  Name = 
  8 active torsions:
  status: ('A' for Active; 'I' for Inactive)
    1  A    between atoms: C_1  and  C_24
    2  A    between atoms: C_2  and  C_17
    3  A    between atoms: C_3  and  C_10
    4  A    between atoms: C_10  and  CA_16
    5  A    between atoms: C_10  and  C_25
    6  A    between atoms: S_13  and  C_25
    7  A    between atoms: N_14  and  C_17
    8  A    between atoms: C_24  and  C_27
                            x       y       z     vdW  Elec       q    Type
                         _______ _______ _______ _____ _____    ______ ____

>  <TORSDO>
F 8

$$$$
=
 OpenBabel11042420473D

 27 30  0  0  1  0  0  0  0  0999 V2000
  161.0530  206.3270  151.4900 C   0  0  2  0  0  3  0  0  0  0  0  0
  160.7110  203.9900  150.7960 C   0  0  0  0  0  2  0  0  0  0  0  0
  160.7310  204.3850  149.3480 C   0  0  0  0  0  0  0  0  0  0  0  0
  161.6140  204.9090  151.5810 C   0  0  0  0  0  2  0  0  0  0  0  0
  160.8430  206.8590  150.0560 C   0  0  2  0  0  3  0  0  0  0  0  0
  160.6340  205.8560  148.9830 C   0  0  1  0  0  3  0  0  0  0  0  0
  161.9560  206.4870  149.1680 N   0  0  0  0  0  2  0  0  0  0  0  0
  160.8310  203.4450  148.3730 C   0  0  0  0  0  0  0  0  0  0  0  0
  160.8300  203.8810  146.9180 C   0  0  1  0  0  3  0  0  0  0  0  0
  162.1360  203.9760  146.4480 C   0  0  0  0  0  0  0  0  0  0  0  0
  163.5940  204.7030  146.3870 S   0  0  0  0  0  0  0  0  0  0  0  0
  161.1820  202.8480  146.0430 N   0  0  0  0  0  2  0  0  0  0  0  0
  161.9560  201.3700  148.7270 O   0  0  0  0  0  0  0  0  0  0  0  0
  159.6560  201.3020  149.0290 N   0  0  0  0  0  1  0  0  0  0  0  0
  160.8610  201.9970  148.7130 C   0  0  0  0  0  0  0  0  0  0  0  0
  161.8070  207.3430  152.3630 C   0  0  2  0  0  3  0  0  0  0  0  0
  160.4510  206.7550  154.3190 N   0  0  0  0  0  2  0  0  0  0  0  0
  161.8250  206.9860  153.8490 C   0  0  2  0  0  3  0  0  0  0  0  0
  161.1410  208.0170  154.6260 C   0  0  2  0  0  3  0  0  0  0  0  0
  161.6010  207.9820  155.9410 O   0  0  0  0  0  1  0  0  0  0  0  0
  160.1560  209.0210  152.3560 O   0  0  0  0  0  0  0  0  0  0  0  0
  161.3310  208.7530  152.1500 C   0  0  0  0  0  0  0  0  0  0  0  0
  161.6250  210.6170  150.2740 C   0  0  0  0  0  2  0  0  0  0  0  0
  162.4210  210.0350  151.5510 S   0  0  0  0  0  0  0  0  0  0  0  0
  162.2680  210.6130  148.9290 C   0  0  0  0  0  2  0  0  0  0  0  0
  162.5040  211.9800  148.5000 N   0  0  0  0  0  2  0  0  0  0  0  0
  161.2440  212.6860  148.6480 C   0  0  0  0  0  1  0  0  0  0  0  0
  1  4  1  0  0  0  0
  1 16  1  1  0  0  0
  2  4  1  0  0  0  0
  3  2  1  0  0  0  0
  5  7  1  6  0  0  0
  5  1  1  0  0  0  0
  6  7  1  6  0  0  0
  6  3  1  0  0  0  0
  6  5  1  0  0  0  0
  8 15  1  0  0  0  0
  8  3  2  0  0  0  0
  9  8  1  1  0  0  0
 10  9  1  0  0  0  0
 11 10  2  0  0  0  0
 12 10  1  0  0  0  0
 12  9  1  0  0  0  0
 15 13  2  0  0  0  0
 15 14  1  0  0  0  0
 16 22  1  1  0  0  0
 17 19  1  0  0  0  0
 18 16  1  6  0  0  0
 18 17  1  0  0  0  0
 18 19  1  0  0  0  0
 19 20  1  1  0  0  0
 22 21  2  0  0  0  0
 23 24  1  0  0  0  0
 24 22  1  0  0  0  0
 25 23  1  0  0  0  0
 26 27  1  0  0  0  0
 26 25  1  0  0  0  0
M  END
>  <MODEL>
6

>  <REMARK>
 VINA RESULT:      -5.4      2.342      7.301
  Name = 
  8 active torsions:
  status: ('A' for Active; 'I' for Inactive)
    1  A    between atoms: C_1  and  C_24
    2  A    between atoms: C_2  and  C_17
    3  A    between atoms: C_3  and  C_10
    4  A    between atoms: C_10  and  CA_16
    5  A    between atoms: C_10  and  C_25
    6  A    between atoms: S_13  and  C_25
    7  A    between atoms: N_14  and  C_17
    8  A    between atoms: C_24  and  C_27
                            x       y       z     vdW  Elec       q    Type
                         _______ _______ _______ _____ _____    ______ ____

>  <TORSDO>
F 8

$$$$
=
 OpenBabel11042420473D

 27 30  0  0  1  0  0  0  0  0999 V2000
  161.7750  206.4550  150.9200 C   0  0  2  0  0  3  0  0  0  0  0  0
  162.0930  206.0030  148.5210 C   0  0  0  0  0  2  0  0  0  0  0  0
  161.5230  204.6230  148.6750 C   0  0  0  0  0  0  0  0  0  0  0  0
  161.4330  206.9320  149.5100 C   0  0  0  0  0  2  0  0  0  0  0  0
  161.4100  204.9860  151.2220 C   0  0  2  0  0  3  0  0  0  0  0  0
  161.3310  204.0540  150.0700 C   0  0  1  0  0  3  0  0  0  0  0  0
  160.1010  204.6210  150.6560 N   0  0  0  0  0  2  0  0  0  0  0  0
  161.1850  203.8860  147.5850 C   0  0  0  0  0  0  0  0  0  0  0  0
  160.6280  202.4860  147.7780 C   0  0  1  0  0  3  0  0  0  0  0  0
  160.6310  201.8010  146.5690 C   0  0  0  0  0  0  0  0  0  0  0  0
  160.0580  201.5310  145.0650 S   0  0  0  0  0  0  0  0  0  0  0  0
  161.6130  201.4960  147.7040 N   0  0  0  0  0  2  0  0  0  0  0  0
  160.5260  205.0450  145.6050 O   0  0  0  0  0  0  0  0  0  0  0  0
  162.6810  204.1850  145.5660 N   0  0  0  0  0  1  0  0  0  0  0  0
  161.4280  204.4040  146.2110 C   0  0  0  0  0  0  0  0  0  0  0  0
  161.2760  207.3980  152.0270 C   0  0  2  0  0  3  0  0  0  0  0  0
  160.8140  209.8020  152.1540 N   0  0  0  0  0  2  0  0  0  0  0  0
  161.8750  208.8020  151.9570 C   0  0  2  0  0  3  0  0  0  0  0  0
  161.3370  209.5250  150.8080 C   0  0  2  0  0  3  0  0  0  0  0  0
  162.2270  210.5350  150.4430 O   0  0  0  0  0  1  0  0  0  0  0  0
  162.3170  205.9900  153.6000 O   0  0  0  0  0  0  0  0  0  0  0  0
  161.4300  206.8090  153.4010 C   0  0  0  0  0  0  0  0  0  0  0  0
  161.0850  208.4510  155.4660 C   0  0  0  0  0  2  0  0  0  0  0  0
  160.3220  207.2300  154.7370 S   0  0  0  0  0  0  0  0  0  0  0  0
  161.4360  208.3540  156.9110 C   0  0  0  0  0  2  0  0  0  0  0  0
  162.5500  209.2390  157.2000 N   0  0  0  0  0  2  0  0  0  0  0  0
  162.5030  210.3030  156.2130 C   0  0  0  0  0  1  0  0  0  0  0  0
  1  5  1  0  0  0  0
  1 16  1  1  0  0  0
  2  3  1  0  0  0  0
  2  4  1  0  0  0  0
  4  1  1  0  0  0  0
  5  7  1  6  0  0  0
  6  3  1  6  0  0  0
  6  7  1  0  0  0  0
  6  5  1  0  0  0  0
  8  3  2  0  0  0  0
  9  8  1  6  0  0  0
 10 12  1  0  0  0  0
 10  9  1  0  0  0  0
 11 10  2  0  0  0  0
 12  9  1  0  0  0  0
 13 15  2  0  0  0  0
 14 15  1  0  0  0  0
 15  8  1  0  0  0  0
 16 22  1  1  0  0  0
 18 16  1  6  0  0  0
 18 17  1  0  0  0  0
 19 20  1  1  0  0  0
 19 18  1  0  0  0  0
 19 17  1  0  0  0  0
 22 21  2  0  0  0  0
 22 24  1  0  0  0  0
 23 25  1  0  0  0  0
 24 23  1  0  0  0  0
 25 26  1  0  0  0  0
 27 26  1  0  0  0  0
M  END
>  <MODEL>
7

>  <REMARK>
 VINA RESULT:      -5.4      2.426      8.647
  Name = 
  8 active torsions:
  status: ('A' for Active; 'I' for Inactive)
    1  A    between atoms: C_1  and  C_24
    2  A    between atoms: C_2  and  C_17
    3  A    between atoms: C_3  and  C_10
    4  A    between atoms: C_10  and  CA_16
    5  A    between atoms: C_10  and  C_25
    6  A    between atoms: S_13  and  C_25
    7  A    between atoms: N_14  and  C_17
    8  A    between atoms: C_24  and  C_27
                            x       y       z     vdW  Elec       q    Type
                         _______ _______ _______ _____ _____    ______ ____

>  <TORSDO>
F 8

$$$$
=
 OpenBabel11042420473D

 27 30  0  0  1  0  0  0  0  0999 V2000
  160.8350  207.5800  153.0680 C   0  0  2  0  0  3  0  0  0  0  0  0
  160.5140  205.2080  152.4880 C   0  0  0  0  0  2  0  0  0  0  0  0
  161.0050  205.4520  151.0900 C   0  0  0  0  0  0  0  0  0  0  0  0
  161.2160  206.1470  153.4380 C   0  0  0  0  0  2  0  0  0  0  0  0
  161.1150  207.9740  151.6020 C   0  0  2  0  0  3  0  0  0  0  0  0
  161.1520  206.8810  150.5990 C   0  0  1  0  0  3  0  0  0  0  0  0
  162.4070  207.4470  151.1320 N   0  0  0  0  0  2  0  0  0  0  0  0
  161.3110  204.4130  150.2710 C   0  0  0  0  0  0  0  0  0  0  0  0
  161.7880  204.6980  148.8570 C   0  0  1  0  0  3  0  0  0  0  0  0
  161.2590  203.7590  147.9780 C   0  0  0  0  0  0  0  0  0  0  0  0
  161.1780  202.2510  147.3600 S   0  0  0  0  0  0  0  0  0  0  0  0
  160.7760  205.2110  148.0380 N   0  0  0  0  0  2  0  0  0  0  0  0
  160.0340  202.4050  150.4530 O   0  0  0  0  0  0  0  0  0  0  0  0
  162.1320  202.3260  151.4420 N   0  0  0  0  0  1  0  0  0  0  0  0
  161.1100  203.0080  150.7170 C   0  0  0  0  0  0  0  0  0  0  0  0
  161.3770  208.6330  154.0480 C   0  0  2  0  0  3  0  0  0  0  0  0
  161.6610  209.0210  156.4510 N   0  0  0  0  0  2  0  0  0  0  0  0
  160.7010  208.6060  155.4180 C   0  0  2  0  0  3  0  0  0  0  0  0
  161.3270  207.6010  156.2720 C   0  0  2  0  0  3  0  0  0  0  0  0
  160.4250  207.2120  157.2610 O   0  0  0  0  0  1  0  0  0  0  0  0
  162.3160  210.3760  152.7750 O   0  0  0  0  0  0  0  0  0  0  0  0
  161.3720  210.0190  153.4660 C   0  0  0  0  0  0  0  0  0  0  0  0
  159.5990  211.6400  152.3230 C   0  0  0  0  0  2  0  0  0  0  0  0
  160.0540  211.1770  153.8000 S   0  0  0  0  0  0  0  0  0  0  0  0
  159.6340  213.0830  151.9510 C   0  0  0  0  0  2  0  0  0  0  0  0
  158.2920  213.5330  151.6280 N   0  0  0  0  0  2  0  0  0  0  0  0
  158.1600  213.4500  150.1850 C   0  0  0  0  0  1  0  0  0  0  0  0
  1  4  1  0  0  0  0
  1 16  1  1  0  0  0
  2  4  1  0  0  0  0
  3  2  1  0  0  0  0
  5  7  1  1  0  0  0
  5  1  1  0  0  0  0
  6  3  1  1  0  0  0
  6  7  1  0  0  0  0
  6  5  1  0  0  0  0
  8 15  1  0  0  0  0
  8  3  2  0  0  0  0
  9  8  1  1  0  0  0
 10 12  1  0  0  0  0
 10  9  1  0  0  0  0
 11 10  2  0  0  0  0
 12  9  1  0  0  0  0
 13 15  2  0  0  0  0
 15 14  1  0  0  0  0
 16 22  1  6  0  0  0
 18 16  1  6  0  0  0
 18 19  1  0  0  0  0
 18 17  1  0  0  0  0
 19 17  1  0  0  0  0
 19 20  1  1  0  0  0
 21 22  2  0  0  0  0
 22 24  1  0  0  0  0
 23 24  1  0  0  0  0
 25 23  1  0  0  0  0
 26 25  1  0  0  0  0
 27 26  1  0  0  0  0
M  END
>  <MODEL>
8

>  <REMARK>
 VINA RESULT:      -5.2      2.231      7.671
  Name = 
  8 active torsions:
  status: ('A' for Active; 'I' for Inactive)
    1  A    between atoms: C_1  and  C_24
    2  A    between atoms: C_2  and  C_17
    3  A    between atoms: C_3  and  C_10
    4  A    between atoms: C_10  and  CA_16
    5  A    between atoms: C_10  and  C_25
    6  A    between atoms: S_13  and  C_25
    7  A    between atoms: N_14  and  C_17
    8  A    between atoms: C_24  and  C_27
                            x       y       z     vdW  Elec       q    Type
                         _______ _______ _______ _____ _____    ______ ____

>  <TORSDO>
F 8

$$$$
=
 OpenBabel11042420473D

 27 30  0  0  1  0  0  0  0  0999 V2000
  162.0870  208.6080  149.8530 C   0  0  2  0  0  3  0  0  0  0  0  0
  162.5040  207.1760  147.8940 C   0  0  0  0  0  2  0  0  0  0  0  0
  161.8220  206.0160  148.5580 C   0  0  0  0  0  0  0  0  0  0  0  0
  161.8630  208.4640  148.3480 C   0  0  0  0  0  2  0  0  0  0  0  0
  161.5930  207.4200  150.7060 C   0  0  2  0  0  3  0  0  0  0  0  0
  161.5080  206.0960  150.0420 C   0  0  1  0  0  3  0  0  0  0  0  0
  160.2940  206.9120  150.2350 N   0  0  0  0  0  2  0  0  0  0  0  0
  161.4900  204.9060  147.8490 C   0  0  0  0  0  0  0  0  0  0  0  0
  160.8170  203.7450  148.5590 C   0  0  1  0  0  3  0  0  0  0  0  0
  161.0510  202.5620  147.8660 C   0  0  0  0  0  0  0  0  0  0  0  0
  160.8190  201.5700  146.5920 S   0  0  0  0  0  0  0  0  0  0  0  0
  161.7290  202.8980  149.1980 N   0  0  0  0  0  2  0  0  0  0  0  0
  163.0150  204.4420  146.0710 O   0  0  0  0  0  0  0  0  0  0  0  0
  160.8810  205.0600  145.3980 N   0  0  0  0  0  1  0  0  0  0  0  0
  161.8490  204.7880  146.4100 C   0  0  0  0  0  0  0  0  0  0  0  0
  161.6000  209.9500  150.4210 C   0  0  2  0  0  3  0  0  0  0  0  0
  161.3320  212.2200  149.5370 N   0  0  0  0  0  2  0  0  0  0  0  0
  162.3140  211.1660  149.8310 C   0  0  2  0  0  3  0  0  0  0  0  0
  161.8780  211.3890  148.4550 C   0  0  2  0  0  3  0  0  0  0  0  0
  162.8600  212.1070  147.7740 O   0  0  0  0  0  1  0  0  0  0  0  0
  162.7000  210.0360  152.5000 O   0  0  0  0  0  0  0  0  0  0  0  0
  161.6230  209.9830  151.9240 C   0  0  0  0  0  0  0  0  0  0  0  0
  160.6080  210.3870  154.3510 C   0  0  0  0  0  2  0  0  0  0  0  0
  160.1240  209.8940  152.8920 S   0  0  0  0  0  0  0  0  0  0  0  0
  160.4250  209.5020  155.5350 C   0  0  0  0  0  2  0  0  0  0  0  0
  160.3530  208.1180  155.1000 N   0  0  0  0  0  2  0  0  0  0  0  0
  160.0220  207.3290  156.2730 C   0  0  0  0  0  1  0  0  0  0  0  0
  1 16  1  1  0  0  0
  1  5  1  0  0  0  0
  2  4  1  0  0  0  0
  2  3  1  0  0  0  0
  4  1  1  0  0  0  0
  5  7  1  6  0  0  0
  6  3  1  6  0  0  0
  6  7  1  0  0  0  0
  6  5  1  0  0  0  0
  8  3  2  0  0  0  0
  9  8  1  6  0  0  0
  9 12  1  0  0  0  0
 10  9  1  0  0  0  0
 10 12  1  0  0  0  0
 11 10  2  0  0  0  0
 13 15  2  0  0  0  0
 14 15  1  0  0  0  0
 15  8  1  0  0  0  0
 16 22  1  1  0  0  0
 17 18  1  0  0  0  0
 18 16  1  1  0  0  0
 19 20  1  6  0  0  0
 19 17  1  0  0  0  0
 19 18  1  0  0  0  0
 22 21  2  0  0  0  0
 22 24  1  0  0  0  0
 23 25  1  0  0  0  0
 24 23  1  0  0  0  0
 26 25  1  0  0  0  0
 26 27  1  0  0  0  0
M  END
>  <MODEL>
9

>  <REMARK>
 VINA RESULT:      -5.2      2.692      8.376
  Name = 
  8 active torsions:
  status: ('A' for Active; 'I' for Inactive)
    1  A    between atoms: C_1  and  C_24
    2  A    between atoms: C_2  and  C_17
    3  A    between atoms: C_3  and  C_10
    4  A    between atoms: C_10  and  CA_16
    5  A    between atoms: C_10  and  C_25
    6  A    between atoms: S_13  and  C_25
    7  A    between atoms: N_14  and  C_17
    8  A    between atoms: C_24  and  C_27
                            x       y       z     vdW  Elec       q    Type
                         _______ _______ _______ _____ _____    ______ ____

>  <TORSDO>
F 8

$$$$
