=
 OpenBabel11052409453D

 31 32  0  0  1  0  0  0  0  0999 V2000
  160.7920  206.8220  152.3790 C   0  0  2  0  0  3  0  0  0  0  0  0
  161.1450  201.3910  150.2940 C   0  0  0  0  0  2  0  0  0  0  0  0
  160.9100  203.1920  152.0660 C   0  0  0  0  0  3  0  0  0  0  0  0
  160.5750  202.2890  149.2920 N   0  0  0  0  0  2  0  0  0  0  0  0
  160.5130  204.6210  148.8330 C   0  0  0  0  0  3  0  0  0  0  0  0
  160.1350  206.9090  148.8640 F   0  0  0  0  0  0  0  0  0  0  0  0
  161.0880  204.4640  151.7980 C   0  0  0  0  0  0  0  0  0  0  0  0
  161.2460  205.7290  151.4710 C   0  0  0  0  0  0  0  0  0  0  0  0
  161.8110  202.1600  151.4530 C   0  0  0  0  0  2  0  0  0  0  0  0
  161.2270  203.5190  149.0060 C   0  0  0  0  0  3  0  0  0  0  0  0
  161.1580  205.9770  148.8920 C   0  0  1  0  0  0  0  0  0  0  0  0
  161.1390  208.3980  151.5350 S   0  0  0  0  0  0  0  0  0  0  0  0
  162.4180  207.6000  150.5160 C   0  0  1  0  0  3  0  0  0  0  0  0
  161.9790  206.1580  150.2220 C   0  0  1  0  0  3  0  0  0  0  0  0
  161.5480  206.7720  153.7000 C   0  0  0  0  0  2  0  0  0  0  0  0
  160.6590  206.9310  154.7620 O   0  0  0  0  0  1  0  0  0  0  0  0
  162.0240  206.2050  147.6390 C   0  0  0  0  0  2  0  0  0  0  0  0
  161.2600  206.0680  146.3300 C   0  0  0  0  0  2  0  0  0  0  0  0
  161.9240  205.0260  145.4510 C   0  0  0  0  0  2  0  0  0  0  0  0
  160.9010  204.0050  144.9820 C   0  0  0  0  0  2  0  0  0  0  0  0
  161.2450  202.7270  145.4510 O   0  0  0  0  0  0  0  0  0  0  0  0
  159.4590  201.7030  146.4800 F   0  0  0  0  0  0  0  0  0  0  0  0
  159.2640  202.4760  144.3810 F   0  0  0  0  0  0  0  0  0  0  0  0
  160.1310  201.8830  145.2800 C   0  0  0  0  0  0  0  0  0  0  0  0
  160.5180  200.6540  144.7680 F   0  0  0  0  0  0  0  0  0  0  0  0
  162.6710  208.3500  149.3660 O   0  0  0  0  0  0  0  0  0  0  0  0
  161.9810  209.5480  149.5670 C   0  0  0  0  0  2  0  0  0  0  0  0
  161.9390  211.8660  148.5560 C   0  0  0  0  0  0  0  0  0  0  0  0
  162.3050  210.4860  148.5030 N   0  0  0  0  0  2  0  0  0  0  0  0
  161.2850  212.3200  149.5320 O   0  0  0  0  0  0  0  0  0  0  0  0
  162.3110  212.7350  147.4930 N   0  0  0  0  0  1  0  0  0  0  0  0
  1 15  1  1  0  0  0
  2  9  1  0  0  0  0
  4  2  1  0  0  0  0
  5 11  1  0  0  0  0
  5 10  2  0  0  0  0
  7  3  2  0  0  0  0
  8  7  2  0  0  0  0
  8  1  1  0  0  0  0
  9  3  1  0  0  0  0
 10  4  1  0  0  0  0
 11  6  1  6  0  0  0
 11 14  1  0  0  0  0
 12  1  1  0  0  0  0
 13 26  1  6  0  0  0
 13 12  1  0  0  0  0
 14 13  1  0  0  0  0
 14  8  1  1  0  0  0
 15 16  1  0  0  0  0
 17 11  1  0  0  0  0
 18 17  1  0  0  0  0
 19 18  1  0  0  0  0
 20 21  1  0  0  0  0
 20 19  1  0  0  0  0
 23 24  1  0  0  0  0
 24 21  1  0  0  0  0
 24 22  1  0  0  0  0
 25 24  1  0  0  0  0
 26 27  1  0  0  0  0
 28 30  2  0  0  0  0
 29 28  1  0  0  0  0
 29 27  1  0  0  0  0
 31 28  1  0  0  0  0
M  END
>  <MODEL>
1

>  <REMARK>
 VINA RESULT:      -8.1      0.000      0.000
  Name = 
  10 active torsions:
  status: ('A' for Active; 'I' for Inactive)
    1  A    between atoms: C_1  and  N_10
    2  A    between atoms: C_1  and  O_16
    3  A    between atoms: C_2  and  C_5
    4  A    between atoms: C_3  and  C_8
    5  A    between atoms: C_3  and  C_23
    6  A    between atoms: C_8  and  C_29
    7  A    between atoms: O_16  and  C_26
    8  A    between atoms: C_18  and  O_27
    9  A    between atoms: C_18  and  C_29
   10  A    between atoms: C_24  and  O_27
                            x       y       z     vdW  Elec       q    Type
                         _______ _______ _______ _____ _____    ______ ____

>  <TORSDO>
F 10

$$$$
=
 OpenBabel11052409453D

 31 32  0  0  1  0  0  0  0  0999 V2000
  162.4460  206.0240  147.6900 C   0  0  2  0  0  3  0  0  0  0  0  0
  160.3050  201.1430  150.0490 C   0  0  0  0  0  2  0  0  0  0  0  0
  161.1890  202.6410  148.2010 C   0  0  0  0  0  3  0  0  0  0  0  0
  161.0680  201.9000  151.0400 N   0  0  0  0  0  2  0  0  0  0  0  0
  161.8250  204.1300  151.3670 C   0  0  0  0  0  3  0  0  0  0  0  0
  162.8960  206.1830  151.2350 F   0  0  0  0  0  0  0  0  0  0  0  0
  161.3990  203.9230  148.3810 C   0  0  0  0  0  0  0  0  0  0  0  0
  161.6240  205.1970  148.6210 C   0  0  0  0  0  0  0  0  0  0  0  0
  159.9790  201.9850  148.7990 C   0  0  0  0  0  2  0  0  0  0  0  0
  160.8150  203.2890  151.2030 C   0  0  0  0  0  3  0  0  0  0  0  0
  161.6380  205.6100  151.1800 C   0  0  1  0  0  0  0  0  0  0  0  0
  162.5570  207.6920  148.4120 S   0  0  0  0  0  0  0  0  0  0  0  0
  161.0390  207.4060  149.3720 C   0  0  1  0  0  3  0  0  0  0  0  0
  160.9910  205.9270  149.7820 C   0  0  1  0  0  3  0  0  0  0  0  0
  161.7880  206.1040  146.3180 C   0  0  0  0  0  2  0  0  0  0  0  0
  162.6460  205.5850  145.3500 O   0  0  0  0  0  1  0  0  0  0  0  0
  160.8150  206.1890  152.3460 C   0  0  0  0  0  2  0  0  0  0  0  0
  161.6560  206.6060  153.5450 C   0  0  0  0  0  2  0  0  0  0  0  0
  160.7570  207.1300  154.6480 C   0  0  0  0  0  2  0  0  0  0  0  0
  161.2010  208.5210  155.0700 C   0  0  0  0  0  2  0  0  0  0  0  0
  161.4510  209.3120  153.9360 O   0  0  0  0  0  0  0  0  0  0  0  0
  160.9310  211.5340  153.6300 F   0  0  0  0  0  0  0  0  0  0  0  0
  159.6330  209.9340  152.7360 F   0  0  0  0  0  0  0  0  0  0  0  0
  160.4160  210.2610  153.8270 C   0  0  0  0  0  0  0  0  0  0  0  0
  159.6140  210.2470  154.9590 F   0  0  0  0  0  0  0  0  0  0  0  0
  160.9660  208.2860  150.4530 O   0  0  0  0  0  0  0  0  0  0  0  0
  162.0500  209.1500  150.2800 C   0  0  0  0  0  2  0  0  0  0  0  0
  161.7770  211.4600  149.2870 C   0  0  0  0  0  0  0  0  0  0  0  0
  161.5960  210.5300  150.3570 N   0  0  0  0  0  2  0  0  0  0  0  0
  162.3730  211.1170  148.2320 O   0  0  0  0  0  0  0  0  0  0  0  0
  161.2850  212.7880  149.4180 N   0  0  0  0  0  1  0  0  0  0  0  0
  1 15  1  6  0  0  0
  1 12  1  0  0  0  0
  1  8  1  0  0  0  0
  2  4  1  0  0  0  0
  3  7  2  0  0  0  0
  3  9  1  0  0  0  0
  4 10  1  0  0  0  0
  7  8  2  0  0  0  0
  9  2  1  0  0  0  0
 10  5  2  0  0  0  0
 11  6  1  1  0  0  0
 11  5  1  0  0  0  0
 11 17  1  0  0  0  0
 12 13  1  0  0  0  0
 13 14  1  0  0  0  0
 13 26  1  1  0  0  0
 14  8  1  6  0  0  0
 14 11  1  0  0  0  0
 16 15  1  0  0  0  0
 17 18  1  0  0  0  0
 18 19  1  0  0  0  0
 19 20  1  0  0  0  0
 21 20  1  0  0  0  0
 22 24  1  0  0  0  0
 23 24  1  0  0  0  0
 24 21  1  0  0  0  0
 24 25  1  0  0  0  0
 27 29  1  0  0  0  0
 27 26  1  0  0  0  0
 28 31  1  0  0  0  0
 28 29  1  0  0  0  0
 30 28  2  0  0  0  0
M  END
>  <MODEL>
2

>  <REMARK>
 VINA RESULT:      -7.8      3.128      6.508
  Name = 
  10 active torsions:
  status: ('A' for Active; 'I' for Inactive)
    1  A    between atoms: C_1  and  N_10
    2  A    between atoms: C_1  and  O_16
    3  A    between atoms: C_2  and  C_5
    4  A    between atoms: C_3  and  C_8
    5  A    between atoms: C_3  and  C_23
    6  A    between atoms: C_8  and  C_29
    7  A    between atoms: O_16  and  C_26
    8  A    between atoms: C_18  and  O_27
    9  A    between atoms: C_18  and  C_29
   10  A    between atoms: C_24  and  O_27
                            x       y       z     vdW  Elec       q    Type
                         _______ _______ _______ _____ _____    ______ ____

>  <TORSDO>
F 10

$$$$
=
 OpenBabel11052409453D

 31 32  0  0  1  0  0  0  0  0999 V2000
  160.4680  203.2710  150.5380 C   0  0  2  0  0  3  0  0  0  0  0  0
  162.0050  205.1910  145.2540 C   0  0  0  0  0  2  0  0  0  0  0  0
  161.2680  203.4920  146.9880 C   0  0  0  0  0  3  0  0  0  0  0  0
  161.3900  206.2660  146.0320 N   0  0  0  0  0  2  0  0  0  0  0  0
  160.9590  206.7780  148.3130 C   0  0  0  0  0  3  0  0  0  0  0  0
  160.1760  206.8360  150.4940 F   0  0  0  0  0  0  0  0  0  0  0  0
  161.2420  203.7680  148.2700 C   0  0  0  0  0  0  0  0  0  0  0  0
  161.2030  204.1040  149.5420 C   0  0  0  0  0  0  0  0  0  0  0  0
  162.3980  203.9870  146.1340 C   0  0  0  0  0  2  0  0  0  0  0  0
  161.8370  206.5100  147.3580 C   0  0  0  0  0  3  0  0  0  0  0  0
  161.3400  206.6830  149.7630 C   0  0  1  0  0  0  0  0  0  0  0  0
  160.6130  204.1090  152.1480 S   0  0  0  0  0  0  0  0  0  0  0  0
  162.1130  204.9750  151.5910 C   0  0  1  0  0  3  0  0  0  0  0  0
  161.9730  205.2810  150.0930 C   0  0  1  0  0  3  0  0  0  0  0  0
  161.0800  201.8780  150.6300 C   0  0  0  0  0  2  0  0  0  0  0  0
  160.3120  200.9740  149.8980 O   0  0  0  0  0  1  0  0  0  0  0  0
  162.2770  207.8460  150.1400 C   0  0  0  0  0  2  0  0  0  0  0  0
  161.9230  209.1650  149.4660 C   0  0  0  0  0  2  0  0  0  0  0  0
  162.0600  210.3040  150.4580 C   0  0  0  0  0  2  0  0  0  0  0  0
  162.1950  209.7570  151.8690 C   0  0  0  0  0  2  0  0  0  0  0  0
  161.5580  210.6140  152.7810 O   0  0  0  0  0  0  0  0  0  0  0  0
  160.0440  208.9100  152.4580 F   0  0  0  0  0  0  0  0  0  0  0  0
  159.8310  210.2960  154.2130 F   0  0  0  0  0  0  0  0  0  0  0  0
  160.2100  210.2200  152.8850 C   0  0  0  0  0  0  0  0  0  0  0  0
  159.3920  211.0630  152.1480 F   0  0  0  0  0  0  0  0  0  0  0  0
  162.3450  206.1090  152.3720 O   0  0  0  0  0  0  0  0  0  0  0  0
  161.4150  206.0210  153.4100 C   0  0  0  0  0  2  0  0  0  0  0  0
  160.7660  207.4110  155.4210 C   0  0  0  0  0  0  0  0  0  0  0  0
  161.7100  207.0240  154.4220 N   0  0  0  0  0  2  0  0  0  0  0  0
  159.6120  206.9050  155.4430 O   0  0  0  0  0  0  0  0  0  0  0  0
  161.1290  208.3790  156.3960 N   0  0  0  0  0  1  0  0  0  0  0  0
  1 15  1  1  0  0  0
  1 12  1  0  0  0  0
  2  4  1  0  0  0  0
  2  9  1  0  0  0  0
  3  7  2  0  0  0  0
  4 10  1  0  0  0  0
  5 11  1  0  0  0  0
  7  8  2  0  0  0  0
  8  1  1  0  0  0  0
  9  3  1  0  0  0  0
 10  5  2  0  0  0  0
 11 14  1  0  0  0  0
 11 17  1  0  0  0  0
 11  6  1  1  0  0  0
 13 12  1  0  0  0  0
 13 26  1  1  0  0  0
 14  8  1  1  0  0  0
 14 13  1  0  0  0  0
 16 15  1  0  0  0  0
 18 17  1  0  0  0  0
 18 19  1  0  0  0  0
 19 20  1  0  0  0  0
 20 21  1  0  0  0  0
 21 24  1  0  0  0  0
 22 24  1  0  0  0  0
 24 23  1  0  0  0  0
 25 24  1  0  0  0  0
 26 27  1  0  0  0  0
 27 29  1  0  0  0  0
 28 30  2  0  0  0  0
 28 31  1  0  0  0  0
 29 28  1  0  0  0  0
M  END
>  <MODEL>
3

>  <REMARK>
 VINA RESULT:      -7.4      3.472      6.827
  Name = 
  10 active torsions:
  status: ('A' for Active; 'I' for Inactive)
    1  A    between atoms: C_1  and  N_10
    2  A    between atoms: C_1  and  O_16
    3  A    between atoms: C_2  and  C_5
    4  A    between atoms: C_3  and  C_8
    5  A    between atoms: C_3  and  C_23
    6  A    between atoms: C_8  and  C_29
    7  A    between atoms: O_16  and  C_26
    8  A    between atoms: C_18  and  O_27
    9  A    between atoms: C_18  and  C_29
   10  A    between atoms: C_24  and  O_27
                            x       y       z     vdW  Elec       q    Type
                         _______ _______ _______ _____ _____    ______ ____

>  <TORSDO>
F 10

$$$$
=
 OpenBabel11052409453D

 31 32  0  0  1  0  0  0  0  0999 V2000
  160.5260  203.3940  150.6810 C   0  0  2  0  0  3  0  0  0  0  0  0
  162.0180  205.4030  145.4160 C   0  0  0  0  0  2  0  0  0  0  0  0
  161.3090  203.6720  147.1310 C   0  0  0  0  0  3  0  0  0  0  0  0
  161.3920  206.4590  146.2100 N   0  0  0  0  0  2  0  0  0  0  0  0
  160.9630  206.9360  148.4990 C   0  0  0  0  0  3  0  0  0  0  0  0
  160.1880  206.9560  150.6850 F   0  0  0  0  0  0  0  0  0  0  0  0
  161.2840  203.9310  148.4170 C   0  0  0  0  0  0  0  0  0  0  0  0
  161.2460  204.2500  149.6930 C   0  0  0  0  0  0  0  0  0  0  0  0
  162.4290  204.1930  146.2800 C   0  0  0  0  0  2  0  0  0  0  0  0
  161.8410  206.6920  147.5380 C   0  0  0  0  0  3  0  0  0  0  0  0
  161.3520  206.8280  149.9470 C   0  0  1  0  0  0  0  0  0  0  0  0
  160.6670  204.2140  152.3010 S   0  0  0  0  0  0  0  0  0  0  0  0
  162.1530  205.1060  151.7500 C   0  0  1  0  0  3  0  0  0  0  0  0
  162.0030  205.4300  150.2570 C   0  0  1  0  0  3  0  0  0  0  0  0
  161.1560  202.0090  150.7520 C   0  0  0  0  0  2  0  0  0  0  0  0
  160.3860  201.1010  150.0260 O   0  0  0  0  0  1  0  0  0  0  0  0
  162.2750  207.9970  150.3360 C   0  0  0  0  0  2  0  0  0  0  0  0
  161.5450  209.1720  150.9730 C   0  0  0  0  0  2  0  0  0  0  0  0
  162.0220  210.4720  150.3540 C   0  0  0  0  0  2  0  0  0  0  0  0
  161.9990  210.3710  148.8390 C   0  0  0  0  0  2  0  0  0  0  0  0
  162.7100  211.4430  148.2730 O   0  0  0  0  0  0  0  0  0  0  0  0
  161.4080  213.3210  148.5500 F   0  0  0  0  0  0  0  0  0  0  0  0
  162.3790  212.8990  146.5700 F   0  0  0  0  0  0  0  0  0  0  0  0
  161.7830  212.3150  147.6720 C   0  0  0  0  0  0  0  0  0  0  0  0
  160.6610  211.6210  147.2440 F   0  0  0  0  0  0  0  0  0  0  0  0
  162.3740  206.2320  152.5440 O   0  0  0  0  0  0  0  0  0  0  0  0
  161.4490  206.1190  153.5850 C   0  0  0  0  0  2  0  0  0  0  0  0
  160.4400  207.6910  155.2890 C   0  0  0  0  0  0  0  0  0  0  0  0
  161.0190  207.4430  154.0070 N   0  0  0  0  0  2  0  0  0  0  0  0
  160.2520  206.7480  156.1030 O   0  0  0  0  0  0  0  0  0  0  0  0
  160.0660  209.0150  155.6480 N   0  0  0  0  0  1  0  0  0  0  0  0
  1 15  1  1  0  0  0
  1 12  1  0  0  0  0
  2  4  1  0  0  0  0
  2  9  1  0  0  0  0
  3  7  2  0  0  0  0
  4 10  1  0  0  0  0
  5 11  1  0  0  0  0
  7  8  2  0  0  0  0
  8  1  1  0  0  0  0
  9  3  1  0  0  0  0
 10  5  2  0  0  0  0
 11 14  1  0  0  0  0
 11 17  1  0  0  0  0
 11  6  1  1  0  0  0
 13 12  1  0  0  0  0
 13 26  1  1  0  0  0
 14  8  1  6  0  0  0
 14 13  1  0  0  0  0
 16 15  1  0  0  0  0
 17 18  1  0  0  0  0
 19 18  1  0  0  0  0
 20 19  1  0  0  0  0
 21 20  1  0  0  0  0
 23 24  1  0  0  0  0
 24 21  1  0  0  0  0
 24 22  1  0  0  0  0
 25 24  1  0  0  0  0
 26 27  1  0  0  0  0
 27 29  1  0  0  0  0
 28 31  1  0  0  0  0
 28 30  2  0  0  0  0
 29 28  1  0  0  0  0
M  END
>  <MODEL>
4

>  <REMARK>
 VINA RESULT:      -7.4      3.431      6.604
  Name = 
  10 active torsions:
  status: ('A' for Active; 'I' for Inactive)
    1  A    between atoms: C_1  and  N_10
    2  A    between atoms: C_1  and  O_16
    3  A    between atoms: C_2  and  C_5
    4  A    between atoms: C_3  and  C_8
    5  A    between atoms: C_3  and  C_23
    6  A    between atoms: C_8  and  C_29
    7  A    between atoms: O_16  and  C_26
    8  A    between atoms: C_18  and  O_27
    9  A    between atoms: C_18  and  C_29
   10  A    between atoms: C_24  and  O_27
                            x       y       z     vdW  Elec       q    Type
                         _______ _______ _______ _____ _____    ______ ____

>  <TORSDO>
F 10

$$$$
=
 OpenBabel11052409453D

 31 32  0  0  1  0  0  0  0  0999 V2000
  161.4760  207.2590  154.1330 C   0  0  2  0  0  3  0  0  0  0  0  0
  160.0400  212.5190  152.0730 C   0  0  0  0  0  2  0  0  0  0  0  0
  160.3390  210.7090  153.8260 C   0  0  0  0  0  3  0  0  0  0  0  0
  161.1010  211.9230  151.2630 N   0  0  0  0  0  2  0  0  0  0  0  0
  161.9920  209.7630  150.8230 C   0  0  0  0  0  3  0  0  0  0  0  0
  163.0300  207.6930  150.9400 F   0  0  0  0  0  0  0  0  0  0  0  0
  160.6360  209.4710  153.5090 C   0  0  0  0  0  0  0  0  0  0  0  0
  160.9650  208.2510  153.1420 C   0  0  0  0  0  0  0  0  0  0  0  0
  159.3610  211.4850  152.9940 C   0  0  0  0  0  2  0  0  0  0  0  0
  160.9560  210.5880  150.7970 C   0  0  0  0  0  3  0  0  0  0  0  0
  161.8020  208.2780  150.6890 C   0  0  1  0  0  0  0  0  0  0  0  0
  161.8630  205.7360  153.2130 S   0  0  0  0  0  0  0  0  0  0  0  0
  160.7180  206.2160  151.8840 C   0  0  1  0  0  3  0  0  0  0  0  0
  160.7560  207.7440  151.7350 C   0  0  1  0  0  3  0  0  0  0  0  0
  160.4200  206.9630  155.1910 C   0  0  0  0  0  2  0  0  0  0  0  0
  160.7880  207.5440  156.4030 O   0  0  0  0  0  1  0  0  0  0  0  0
  161.4100  207.9250  149.2420 C   0  0  0  0  0  2  0  0  0  0  0  0
  162.6000  207.6860  148.3230 C   0  0  0  0  0  2  0  0  0  0  0  0
  162.5280  206.2890  147.7380 C   0  0  0  0  0  2  0  0  0  0  0  0
  161.4980  206.2400  146.6220 C   0  0  0  0  0  2  0  0  0  0  0  0
  161.9580  205.4240  145.5760 O   0  0  0  0  0  0  0  0  0  0  0  0
  160.4510  204.1020  144.4440 F   0  0  0  0  0  0  0  0  0  0  0  0
  159.9320  206.2260  144.9550 F   0  0  0  0  0  0  0  0  0  0  0  0
  160.9630  205.3840  144.5800 C   0  0  0  0  0  0  0  0  0  0  0  0
  161.4650  205.8230  143.3650 F   0  0  0  0  0  0  0  0  0  0  0  0
  161.0200  205.5340  150.7040 O   0  0  0  0  0  0  0  0  0  0  0  0
  161.5820  204.3270  151.1260 C   0  0  0  0  0  2  0  0  0  0  0  0
  160.6410  202.6380  149.4970 C   0  0  0  0  0  0  0  0  0  0  0  0
  160.6900  203.2270  150.7970 N   0  0  0  0  0  2  0  0  0  0  0  0
  161.3640  203.0790  148.5650 O   0  0  0  0  0  0  0  0  0  0  0  0
  159.7640  201.5460  149.2510 N   0  0  0  0  0  1  0  0  0  0  0  0
  1 15  1  1  0  0  0
  2  9  1  0  0  0  0
  4  2  1  0  0  0  0
  7  3  2  0  0  0  0
  8  7  2  0  0  0  0
  8  1  1  0  0  0  0
  9  3  1  0  0  0  0
 10  5  2  0  0  0  0
 10  4  1  0  0  0  0
 11  5  1  0  0  0  0
 11  6  1  1  0  0  0
 11 14  1  0  0  0  0
 12  1  1  0  0  0  0
 13 26  1  6  0  0  0
 13 12  1  0  0  0  0
 14 13  1  0  0  0  0
 14  8  1  1  0  0  0
 15 16  1  0  0  0  0
 17 11  1  0  0  0  0
 18 17  1  0  0  0  0
 19 18  1  0  0  0  0
 20 19  1  0  0  0  0
 21 20  1  0  0  0  0
 22 24  1  0  0  0  0
 24 23  1  0  0  0  0
 24 21  1  0  0  0  0
 25 24  1  0  0  0  0
 26 27  1  0  0  0  0
 28 29  1  0  0  0  0
 29 27  1  0  0  0  0
 30 28  2  0  0  0  0
 31 28  1  0  0  0  0
M  END
>  <MODEL>
5

>  <REMARK>
 VINA RESULT:      -6.7      2.564      5.896
  Name = 
  10 active torsions:
  status: ('A' for Active; 'I' for Inactive)
    1  A    between atoms: C_1  and  N_10
    2  A    between atoms: C_1  and  O_16
    3  A    between atoms: C_2  and  C_5
    4  A    between atoms: C_3  and  C_8
    5  A    between atoms: C_3  and  C_23
    6  A    between atoms: C_8  and  C_29
    7  A    between atoms: O_16  and  C_26
    8  A    between atoms: C_18  and  O_27
    9  A    between atoms: C_18  and  C_29
   10  A    between atoms: C_24  and  O_27
                            x       y       z     vdW  Elec       q    Type
                         _______ _______ _______ _____ _____    ______ ____

>  <TORSDO>
F 10

$$$$
=
 OpenBabel11052409453D

 31 32  0  0  1  0  0  0  0  0999 V2000
  162.2640  206.7340  148.8300 C   0  0  2  0  0  3  0  0  0  0  0  0
  160.4970  201.3200  150.0750 C   0  0  0  0  0  2  0  0  0  0  0  0
  161.2460  203.2410  148.5950 C   0  0  0  0  0  3  0  0  0  0  0  0
  161.2250  201.8950  151.2050 N   0  0  0  0  0  2  0  0  0  0  0  0
  161.8360  204.0470  152.0080 C   0  0  0  0  0  3  0  0  0  0  0  0
  162.7640  206.1490  152.3240 F   0  0  0  0  0  0  0  0  0  0  0  0
  161.3730  204.4650  149.0490 C   0  0  0  0  0  0  0  0  0  0  0  0
  161.5150  205.6690  149.5600 C   0  0  0  0  0  0  0  0  0  0  0  0
  160.0930  202.3890  149.0390 C   0  0  0  0  0  2  0  0  0  0  0  0
  160.8820  203.1940  151.6670 C   0  0  0  0  0  3  0  0  0  0  0  0
  161.5460  205.5160  152.1480 C   0  0  1  0  0  0  0  0  0  0  0  0
  162.2750  208.2080  149.8990 S   0  0  0  0  0  0  0  0  0  0  0  0
  160.7960  207.6160  150.7760 C   0  0  1  0  0  3  0  0  0  0  0  0
  160.8550  206.0840  150.8550 C   0  0  1  0  0  3  0  0  0  0  0  0
  161.5780  207.0640  147.5110 C   0  0  0  0  0  2  0  0  0  0  0  0
  161.9010  206.1010  146.5550 O   0  0  0  0  0  1  0  0  0  0  0  0
  160.7070  205.7700  153.4140 C   0  0  0  0  0  2  0  0  0  0  0  0
  161.4220  206.6040  154.4690 C   0  0  0  0  0  2  0  0  0  0  0  0
  160.4070  207.3750  155.2910 C   0  0  0  0  0  2  0  0  0  0  0  0
  160.9970  207.7420  156.6420 C   0  0  0  0  0  2  0  0  0  0  0  0
  162.3090  208.2160  156.4830 O   0  0  0  0  0  0  0  0  0  0  0  0
  163.4000  210.1150  157.1930 F   0  0  0  0  0  0  0  0  0  0  0  0
  162.2710  210.1170  155.2510 F   0  0  0  0  0  0  0  0  0  0  0  0
  162.2780  209.6230  156.5420 C   0  0  0  0  0  0  0  0  0  0  0  0
  161.1300  210.0630  157.1840 F   0  0  0  0  0  0  0  0  0  0  0  0
  160.6840  208.2330  152.0230 O   0  0  0  0  0  0  0  0  0  0  0  0
  161.0280  209.5670  151.7910 C   0  0  0  0  0  2  0  0  0  0  0  0
  159.9510  211.7620  152.4380 C   0  0  0  0  0  0  0  0  0  0  0  0
  160.3460  210.4250  152.7480 N   0  0  0  0  0  2  0  0  0  0  0  0
  160.2100  212.2630  151.3110 O   0  0  0  0  0  0  0  0  0  0  0  0
  159.2640  212.5370  153.4110 N   0  0  0  0  0  1  0  0  0  0  0  0
  1 15  1  6  0  0  0
  1  8  1  0  0  0  0
  1 12  1  0  0  0  0
  2  4  1  0  0  0  0
  3  9  1  0  0  0  0
  3  7  2  0  0  0  0
  4 10  1  0  0  0  0
  5 11  1  0  0  0  0
  7  8  2  0  0  0  0
  9  2  1  0  0  0  0
 10  5  2  0  0  0  0
 11  6  1  1  0  0  0
 11 17  1  0  0  0  0
 12 13  1  0  0  0  0
 13 14  1  0  0  0  0
 13 26  1  1  0  0  0
 14  8  1  6  0  0  0
 14 11  1  0  0  0  0
 16 15  1  0  0  0  0
 17 18  1  0  0  0  0
 18 19  1  0  0  0  0
 19 20  1  0  0  0  0
 21 24  1  0  0  0  0
 21 20  1  0  0  0  0
 23 24  1  0  0  0  0
 24 25  1  0  0  0  0
 24 22  1  0  0  0  0
 27 26  1  0  0  0  0
 27 29  1  0  0  0  0
 28 29  1  0  0  0  0
 28 31  1  0  0  0  0
 30 28  2  0  0  0  0
M  END
>  <MODEL>
6

>  <REMARK>
 VINA RESULT:      -6.6      3.778      7.307
  Name = 
  10 active torsions:
  status: ('A' for Active; 'I' for Inactive)
    1  A    between atoms: C_1  and  N_10
    2  A    between atoms: C_1  and  O_16
    3  A    between atoms: C_2  and  C_5
    4  A    between atoms: C_3  and  C_8
    5  A    between atoms: C_3  and  C_23
    6  A    between atoms: C_8  and  C_29
    7  A    between atoms: O_16  and  C_26
    8  A    between atoms: C_18  and  O_27
    9  A    between atoms: C_18  and  C_29
   10  A    between atoms: C_24  and  O_27
                            x       y       z     vdW  Elec       q    Type
                         _______ _______ _______ _____ _____    ______ ____

>  <TORSDO>
F 10

$$$$
=
 OpenBabel11052409453D

 31 32  0  0  1  0  0  0  0  0999 V2000
  161.6530  204.8060  151.5940 C   0  0  2  0  0  3  0  0  0  0  0  0
  161.2160  209.7180  154.7010 C   0  0  0  0  0  2  0  0  0  0  0  0
  161.2710  207.2120  154.3060 C   0  0  0  0  0  3  0  0  0  0  0  0
  162.0440  209.9330  153.5160 N   0  0  0  0  0  2  0  0  0  0  0  0
  162.4010  208.9170  151.3960 C   0  0  0  0  0  3  0  0  0  0  0  0
  162.9690  207.5030  149.6480 F   0  0  0  0  0  0  0  0  0  0  0  0
  161.2620  206.6940  153.1010 C   0  0  0  0  0  0  0  0  0  0  0  0
  161.2830  206.2250  151.8720 C   0  0  0  0  0  0  0  0  0  0  0  0
  160.4140  208.4030  154.6200 C   0  0  0  0  0  2  0  0  0  0  0  0
  161.5710  209.5010  152.2470 C   0  0  0  0  0  3  0  0  0  0  0  0
  161.8810  208.1340  150.2230 C   0  0  1  0  0  0  0  0  0  0  0  0
  161.6140  204.5870  149.7870 S   0  0  0  0  0  0  0  0  0  0  0  0
  160.4860  206.0030  149.6130 C   0  0  1  0  0  3  0  0  0  0  0  0
  160.8420  207.0460  150.6830 C   0  0  1  0  0  3  0  0  0  0  0  0
  160.6580  203.8540  152.2460 C   0  0  0  0  0  2  0  0  0  0  0  0
  160.8220  202.5700  151.7290 O   0  0  0  0  0  1  0  0  0  0  0  0
  161.2920  209.0900  149.1700 C   0  0  0  0  0  2  0  0  0  0  0  0
  162.3100  210.0550  148.5770 C   0  0  0  0  0  2  0  0  0  0  0  0
  161.9600  211.4780  148.9670 C   0  0  0  0  0  2  0  0  0  0  0  0
  161.7490  212.3260  147.7230 C   0  0  0  0  0  2  0  0  0  0  0  0
  160.5480  211.9640  147.0910 O   0  0  0  0  0  0  0  0  0  0  0  0
  159.7210  211.8940  144.9440 F   0  0  0  0  0  0  0  0  0  0  0  0
  159.9220  213.8570  146.0160 F   0  0  0  0  0  0  0  0  0  0  0  0
  160.4970  212.6120  145.8420 C   0  0  0  0  0  0  0  0  0  0  0  0
  161.7720  212.7890  145.3270 F   0  0  0  0  0  0  0  0  0  0  0  0
  160.5240  206.5060  148.3110 O   0  0  0  0  0  0  0  0  0  0  0  0
  161.2500  205.5580  147.5860 C   0  0  0  0  0  2  0  0  0  0  0  0
  161.3830  204.9850  145.1270 C   0  0  0  0  0  0  0  0  0  0  0  0
  161.2960  205.9420  146.1830 N   0  0  0  0  0  2  0  0  0  0  0  0
  161.4520  203.7520  145.3810 O   0  0  0  0  0  0  0  0  0  0  0  0
  161.3970  205.4260  143.7760 N   0  0  0  0  0  1  0  0  0  0  0  0
  1  8  1  0  0  0  0
  1 15  1  1  0  0  0
  3  9  1  0  0  0  0
  4  2  1  0  0  0  0
  5 10  2  0  0  0  0
  7  3  2  0  0  0  0
  8  7  2  0  0  0  0
  9  2  1  0  0  0  0
 10  4  1  0  0  0  0
 11  6  1  6  0  0  0
 11 14  1  0  0  0  0
 11  5  1  0  0  0  0
 12  1  1  0  0  0  0
 13 26  1  6  0  0  0
 13 12  1  0  0  0  0
 13 14  1  0  0  0  0
 14  8  1  1  0  0  0
 16 15  1  0  0  0  0
 17 11  1  0  0  0  0
 18 19  1  0  0  0  0
 18 17  1  0  0  0  0
 20 19  1  0  0  0  0
 21 20  1  0  0  0  0
 22 24  1  0  0  0  0
 24 23  1  0  0  0  0
 24 21  1  0  0  0  0
 25 24  1  0  0  0  0
 27 26  1  0  0  0  0
 28 30  2  0  0  0  0
 28 29  1  0  0  0  0
 29 27  1  0  0  0  0
 31 28  1  0  0  0  0
M  END
>  <MODEL>
7

>  <REMARK>
 VINA RESULT:      -6.5      3.644      6.819
  Name = 
  10 active torsions:
  status: ('A' for Active; 'I' for Inactive)
    1  A    between atoms: C_1  and  N_10
    2  A    between atoms: C_1  and  O_16
    3  A    between atoms: C_2  and  C_5
    4  A    between atoms: C_3  and  C_8
    5  A    between atoms: C_3  and  C_23
    6  A    between atoms: C_8  and  C_29
    7  A    between atoms: O_16  and  C_26
    8  A    between atoms: C_18  and  O_27
    9  A    between atoms: C_18  and  C_29
   10  A    between atoms: C_24  and  O_27
                            x       y       z     vdW  Elec       q    Type
                         _______ _______ _______ _____ _____    ______ ____

>  <TORSDO>
F 10

$$$$
=
 OpenBabel11052409453D

 31 32  0  0  1  0  0  0  0  0999 V2000
  161.3930  210.2060  150.0120 C   0  0  2  0  0  3  0  0  0  0  0  0
  161.5360  209.2000  155.7510 C   0  0  0  0  0  2  0  0  0  0  0  0
  161.5330  210.5970  153.6330 C   0  0  0  0  0  3  0  0  0  0  0  0
  160.8050  208.1370  155.0620 N   0  0  0  0  0  2  0  0  0  0  0  0
  160.6290  207.2450  152.8660 C   0  0  0  0  0  3  0  0  0  0  0  0
  160.2160  206.8820  150.6130 F   0  0  0  0  0  0  0  0  0  0  0  0
  161.6450  210.0610  152.4420 C   0  0  0  0  0  0  0  0  0  0  0  0
  161.7270  209.4730  151.2680 C   0  0  0  0  0  0  0  0  0  0  0  0
  162.3520  210.0710  154.7750 C   0  0  0  0  0  2  0  0  0  0  0  0
  161.3830  207.5210  153.9200 C   0  0  0  0  0  3  0  0  0  0  0  0
  161.2500  206.9380  151.5310 C   0  0  1  0  0  0  0  0  0  0  0  0
  161.5800  209.0260  148.6370 S   0  0  0  0  0  0  0  0  0  0  0  0
  162.7060  208.0030  149.6340 C   0  0  1  0  0  3  0  0  0  0  0  0
  162.2560  208.0670  151.1010 C   0  0  1  0  0  3  0  0  0  0  0  0
  162.3390  211.3820  149.8080 C   0  0  0  0  0  2  0  0  0  0  0  0
  162.3720  211.7370  148.4600 O   0  0  0  0  0  1  0  0  0  0  0  0
  161.9140  205.5490  151.5640 C   0  0  0  0  0  2  0  0  0  0  0  0
  160.9410  204.4080  151.8300 C   0  0  0  0  0  2  0  0  0  0  0  0
  161.2940  203.2170  150.9590 C   0  0  0  0  0  2  0  0  0  0  0  0
  160.8150  203.4480  149.5360 C   0  0  0  0  0  2  0  0  0  0  0  0
  161.5820  202.6860  148.6390 O   0  0  0  0  0  0  0  0  0  0  0  0
  160.4550  201.6940  146.8940 F   0  0  0  0  0  0  0  0  0  0  0  0
  161.5630  200.4340  148.3870 F   0  0  0  0  0  0  0  0  0  0  0  0
  160.8080  201.5820  148.2310 C   0  0  0  0  0  0  0  0  0  0  0  0
  159.6680  201.4640  149.0110 F   0  0  0  0  0  0  0  0  0  0  0  0
  162.7700  206.7040  149.1270 O   0  0  0  0  0  0  0  0  0  0  0  0
  162.1550  206.7810  147.8760 C   0  0  0  0  0  2  0  0  0  0  0  0
  161.6310  205.1940  145.9780 C   0  0  0  0  0  0  0  0  0  0  0  0
  162.3880  205.5500  147.1360 N   0  0  0  0  0  2  0  0  0  0  0  0
  160.6990  205.9350  145.5670 O   0  0  0  0  0  0  0  0  0  0  0  0
  161.9290  203.9880  145.2870 N   0  0  0  0  0  1  0  0  0  0  0  0
  1 15  1  6  0  0  0
  1  8  1  0  0  0  0
  3  9  1  0  0  0  0
  4  2  1  0  0  0  0
  5 10  2  0  0  0  0
  7  3  2  0  0  0  0
  8  7  2  0  0  0  0
  9  2  1  0  0  0  0
 10  4  1  0  0  0  0
 11  6  1  6  0  0  0
 11 17  1  0  0  0  0
 11  5  1  0  0  0  0
 12 13  1  0  0  0  0
 12  1  1  0  0  0  0
 13 26  1  6  0  0  0
 13 14  1  0  0  0  0
 14  8  1  6  0  0  0
 14 11  1  0  0  0  0
 16 15  1  0  0  0  0
 17 18  1  0  0  0  0
 19 18  1  0  0  0  0
 20 19  1  0  0  0  0
 21 20  1  0  0  0  0
 22 24  1  0  0  0  0
 24 23  1  0  0  0  0
 24 21  1  0  0  0  0
 24 25  1  0  0  0  0
 27 26  1  0  0  0  0
 28 29  1  0  0  0  0
 29 27  1  0  0  0  0
 30 28  2  0  0  0  0
 31 28  1  0  0  0  0
M  END
>  <MODEL>
8

>  <REMARK>
 VINA RESULT:      -6.4      2.596      5.519
  Name = 
  10 active torsions:
  status: ('A' for Active; 'I' for Inactive)
    1  A    between atoms: C_1  and  N_10
    2  A    between atoms: C_1  and  O_16
    3  A    between atoms: C_2  and  C_5
    4  A    between atoms: C_3  and  C_8
    5  A    between atoms: C_3  and  C_23
    6  A    between atoms: C_8  and  C_29
    7  A    between atoms: O_16  and  C_26
    8  A    between atoms: C_18  and  O_27
    9  A    between atoms: C_18  and  C_29
   10  A    between atoms: C_24  and  O_27
                            x       y       z     vdW  Elec       q    Type
                         _______ _______ _______ _____ _____    ______ ____

>  <TORSDO>
F 10

$$$$
=
 OpenBabel11052409453D

 31 32  0  0  1  0  0  0  0  0999 V2000
  162.3000  206.3910  152.2480 C   0  0  2  0  0  3  0  0  0  0  0  0
  161.8270  211.5670  149.6090 C   0  0  0  0  0  2  0  0  0  0  0  0
  162.1690  209.9660  151.5480 C   0  0  0  0  0  3  0  0  0  0  0  0
  162.3310  210.5590  148.6770 N   0  0  0  0  0  2  0  0  0  0  0  0
  162.3600  208.1910  148.4730 C   0  0  0  0  0  3  0  0  0  0  0  0
  162.7350  205.9170  148.7290 F   0  0  0  0  0  0  0  0  0  0  0  0
  161.9720  208.6750  151.4320 C   0  0  0  0  0  0  0  0  0  0  0  0
  161.7920  207.3830  151.2570 C   0  0  0  0  0  0  0  0  0  0  0  0
  161.2340  210.9330  150.8840 C   0  0  0  0  0  2  0  0  0  0  0  0
  161.6600  209.3120  148.5680 C   0  0  0  0  0  3  0  0  0  0  0  0
  161.7170  206.8550  148.7190 C   0  0  1  0  0  0  0  0  0  0  0  0
  161.8970  204.7360  151.6040 S   0  0  0  0  0  0  0  0  0  0  0  0
  160.5590  205.4300  150.5860 C   0  0  1  0  0  3  0  0  0  0  0  0
  160.9810  206.8270  150.1090 C   0  0  1  0  0  3  0  0  0  0  0  0
  161.6280  206.5910  153.6010 C   0  0  0  0  0  2  0  0  0  0  0  0
  160.8520  205.4760  153.9150 O   0  0  0  0  0  1  0  0  0  0  0  0
  160.7740  206.5000  147.5550 C   0  0  0  0  0  2  0  0  0  0  0  0
  161.4950  206.2030  146.2470 C   0  0  0  0  0  2  0  0  0  0  0  0
  160.4870  205.8570  145.1690 C   0  0  0  0  0  2  0  0  0  0  0  0
  161.0510  204.7910  144.2460 C   0  0  0  0  0  2  0  0  0  0  0  0
  161.6310  203.7580  145.0000 O   0  0  0  0  0  0  0  0  0  0  0  0
  160.0810  203.0600  146.5520 F   0  0  0  0  0  0  0  0  0  0  0  0
  159.6220  202.9310  144.3570 F   0  0  0  0  0  0  0  0  0  0  0  0
  160.6270  202.8170  145.3000 C   0  0  0  0  0  0  0  0  0  0  0  0
  161.1300  201.5260  145.2480 F   0  0  0  0  0  0  0  0  0  0  0  0
  160.2330  204.5610  149.5430 O   0  0  0  0  0  0  0  0  0  0  0  0
  160.5510  203.2900  150.0280 C   0  0  0  0  0  2  0  0  0  0  0  0
  161.1480  201.0320  149.0600 C   0  0  0  0  0  0  0  0  0  0  0  0
  161.0140  202.4480  148.9360 N   0  0  0  0  0  2  0  0  0  0  0  0
  160.8920  200.4560  150.1510 O   0  0  0  0  0  0  0  0  0  0  0  0
  161.5810  200.2650  147.9440 N   0  0  0  0  0  1  0  0  0  0  0  0
  1 15  1  1  0  0  0
  2  9  1  0  0  0  0
  4  2  1  0  0  0  0
  5 10  2  0  0  0  0
  5 11  1  0  0  0  0
  7  3  2  0  0  0  0
  8  7  2  0  0  0  0
  8  1  1  0  0  0  0
  9  3  1  0  0  0  0
 10  4  1  0  0  0  0
 11  6  1  1  0  0  0
 11 14  1  0  0  0  0
 12  1  1  0  0  0  0
 13 26  1  6  0  0  0
 13 12  1  0  0  0  0
 14 13  1  0  0  0  0
 14  8  1  1  0  0  0
 15 16  1  0  0  0  0
 17 11  1  0  0  0  0
 18 17  1  0  0  0  0
 19 18  1  0  0  0  0
 20 21  1  0  0  0  0
 20 19  1  0  0  0  0
 21 24  1  0  0  0  0
 23 24  1  0  0  0  0
 24 22  1  0  0  0  0
 25 24  1  0  0  0  0
 26 27  1  0  0  0  0
 28 30  2  0  0  0  0
 29 28  1  0  0  0  0
 29 27  1  0  0  0  0
 31 28  1  0  0  0  0
M  END
>  <MODEL>
9

>  <REMARK>
 VINA RESULT:      -6.0      2.216      5.587
  Name = 
  10 active torsions:
  status: ('A' for Active; 'I' for Inactive)
    1  A    between atoms: C_1  and  N_10
    2  A    between atoms: C_1  and  O_16
    3  A    between atoms: C_2  and  C_5
    4  A    between atoms: C_3  and  C_8
    5  A    between atoms: C_3  and  C_23
    6  A    between atoms: C_8  and  C_29
    7  A    between atoms: O_16  and  C_26
    8  A    between atoms: C_18  and  O_27
    9  A    between atoms: C_18  and  C_29
   10  A    between atoms: C_24  and  O_27
                            x       y       z     vdW  Elec       q    Type
                         _______ _______ _______ _____ _____    ______ ____

>  <TORSDO>
F 10

$$$$
