=
 OpenBabel11052411053D

 34 37  0  0  1  0  0  0  0  0999 V2000
  161.7520  206.8390  150.9320 C   0  0  1  0  0  0  0  0  0  0  0  0
  160.3550  206.4820  147.5920 C   0  0  0  0  0  3  0  0  0  0  0  0
  161.2690  205.9400  149.8000 C   0  0  0  0  0  0  0  0  0  0  0  0
  160.0280  206.2770  149.0280 C   0  0  0  0  0  2  0  0  0  0  0  0
  161.1190  204.1410  147.3170 C   0  0  0  0  0  0  0  0  0  0  0  0
  160.8370  205.5110  146.8160 C   0  0  0  0  0  0  0  0  0  0  0  0
  161.9070  204.8280  149.5610 N   0  0  0  0  0  0  0  0  0  0  0  0
  161.6290  203.8680  148.5260 C   0  0  0  0  0  3  0  0  0  0  0  0
  161.0290  205.7940  145.4350 N   0  0  0  0  0  1  0  0  0  0  0  0
  160.8290  202.1050  145.6510 C   0  0  0  0  0  3  0  0  0  0  0  0
  160.9610  203.0340  146.4100 C   0  0  0  0  0  0  0  0  0  0  0  0
  160.5610  207.6100  151.5380 C   0  0  0  0  0  2  0  0  0  0  0  0
  159.8770  208.8480  155.5280 C   0  0  0  0  0  2  0  0  0  0  0  0
  161.9020  210.2090  155.1800 C   0  0  0  0  0  0  0  0  0  0  0  0
  161.7160  210.3890  153.8250 O   0  0  0  0  0  0  0  0  0  0  0  0
  161.3810  208.9110  155.6940 C   0  0  2  0  0  3  0  0  0  0  0  0
  160.8930  209.0630  151.8780 C   0  0  2  0  0  3  0  0  0  0  0  0
  161.0430  209.2590  153.3380 C   0  0  2  0  0  0  0  0  0  0  0  0
  159.8650  209.6240  152.6640 O   0  0  0  0  0  0  0  0  0  0  0  0
  162.4720  211.0650  155.9060 O   0  0  0  0  0  0  0  0  0  0  0  0
  160.7670  208.2480  154.4520 C   0  0  2  0  0  3  0  0  0  0  0  0
  162.4290  205.9770  152.0160 C   0  0  0  0  0  2  0  0  0  0  0  0
  161.1810  205.5330  154.0050 O   0  0  0  0  0  1  0  0  0  0  0  0
  160.9730  203.9680  152.3450 O   0  0  0  0  0  0  0  0  0  0  0  0
  161.4960  205.1520  152.8490 C   0  0  0  0  0  0  0  0  0  0  0  0
  162.8170  207.8360  150.4150 C   0  0  0  0  0  2  0  0  0  0  0  0
  163.1440  207.6040  148.0800 O   0  0  0  0  0  0  0  0  0  0  0  0
  162.6430  208.2570  148.9810 C   0  0  0  0  0  0  0  0  0  0  0  0
  161.7990  209.4490  148.6680 C   0  0  0  0  0  2  0  0  0  0  0  0
  162.3790  210.7080  149.2930 C   0  0  0  0  0  2  0  0  0  0  0  0
  161.7750  212.1880  148.4270 P   0  0  0  0  0  0  0  0  0  0  0  0
  163.0930  213.0850  147.8630 O   0  0  0  0  0  1  0  0  0  0  0  0
  160.8710  213.1370  149.4970 O   0  0  0  0  0  1  0  0  0  0  0  0
  160.9060  211.7900  147.2570 O   0  0  0  0  0  0  0  0  0  0  0  0
  1 26  1  6  0  0  0
  1 12  1  0  0  0  0
  1 22  1  0  0  0  0
  2  4  1  0  0  0  0
  3  1  1  0  0  0  0
  4  3  1  0  0  0  0
  5  8  2  0  0  0  0
  6  5  1  0  0  0  0
  6  2  2  0  0  0  0
  7  3  2  0  0  0  0
  8  7  1  0  0  0  0
  9  6  1  0  0  0  0
 10 11  3  0  0  0  0
 11  5  1  0  0  0  0
 14 16  1  0  0  0  0
 14 20  2  0  0  0  0
 15 14  1  0  0  0  0
 16 13  1  1  0  0  0
 17 12  1  1  0  0  0
 17 19  1  0  0  0  0
 17 18  1  0  0  0  0
 18 19  1  1  0  0  0
 18 15  1  0  0  0  0
 18 21  1  0  0  0  0
 21 13  1  1  0  0  0
 21 16  1  0  0  0  0
 22 25  1  0  0  0  0
 24 25  2  0  0  0  0
 25 23  1  0  0  0  0
 27 28  2  0  0  0  0
 28 26  1  0  0  0  0
 29 28  1  0  0  0  0
 29 30  1  0  0  0  0
 31 30  1  0  0  0  0
 31 33  1  0  0  0  0
 32 31  1  0  0  0  0
 34 31  2  0  0  0  0
M  END
>  <MODEL>
1

>  <REMARK>
 VINA RESULT:      -6.4      0.000      0.000
  Name = 
  11 active torsions:
  status: ('A' for Active; 'I' for Inactive)
    1  A    between atoms: P_2  and  C_23
    2  A    between atoms: C_4  and  C_23
    3  A    between atoms: C_4  and  C_29
    4  A    between atoms: C_9  and  C_15
    5  A    between atoms: C_11  and  C_12
    6  A    between atoms: C_11  and  C_15
    7  A    between atoms: C_13  and  C_15
    8  A    between atoms: C_13  and  C_21
    9  A    between atoms: C_14  and  C_15
   10  A    between atoms: C_14  and  C_29
   11  A    between atoms: C_18  and  C_33
                            x       y       z     vdW  Elec       q    Type
                         _______ _______ _______ _____ _____    ______ ____

>  <TORSDO>
F 11

$$$$
=
 OpenBabel11052411053D

 34 37  0  0  1  0  0  0  0  0999 V2000
  161.6390  207.7250  151.8060 C   0  0  1  0  0  0  0  0  0  0  0  0
  160.5240  206.0730  148.7620 C   0  0  0  0  0  3  0  0  0  0  0  0
  161.1400  206.4690  151.1010 C   0  0  0  0  0  0  0  0  0  0  0  0
  160.0380  206.5450  150.0860 C   0  0  0  0  0  2  0  0  0  0  0  0
  160.9660  203.7890  149.6150 C   0  0  0  0  0  0  0  0  0  0  0  0
  160.9320  204.8230  148.5480 C   0  0  0  0  0  0  0  0  0  0  0  0
  161.6300  205.3130  151.4490 N   0  0  0  0  0  0  0  0  0  0  0  0
  161.3150  204.0270  150.8870 C   0  0  0  0  0  3  0  0  0  0  0  0
  161.2920  204.4570  147.2200 N   0  0  0  0  0  1  0  0  0  0  0  0
  160.5400  201.2660  148.9390 C   0  0  0  0  0  3  0  0  0  0  0  0
  160.7350  202.4160  149.2460 C   0  0  0  0  0  0  0  0  0  0  0  0
  160.4760  208.7200  151.9980 C   0  0  0  0  0  2  0  0  0  0  0  0
  157.8170  211.2500  154.1070 C   0  0  0  0  0  2  0  0  0  0  0  0
  159.8810  212.1630  155.0980 C   0  0  0  0  0  0  0  0  0  0  0  0
  160.6800  211.9200  154.0000 O   0  0  0  0  0  0  0  0  0  0  0  0
  158.7800  211.1750  155.2740 C   0  0  2  0  0  3  0  0  0  0  0  0
  160.9440  210.1520  152.2590 C   0  0  2  0  0  3  0  0  0  0  0  0
  160.1690  210.7870  153.3500 C   0  0  2  0  0  0  0  0  0  0  0  0
  159.8960  211.0590  151.9990 O   0  0  0  0  0  0  0  0  0  0  0  0
  160.0790  213.1290  155.8810 O   0  0  0  0  0  0  0  0  0  0  0  0
  158.9430  210.2300  154.0740 C   0  0  2  0  0  3  0  0  0  0  0  0
  162.2340  207.3400  153.1750 C   0  0  0  0  0  2  0  0  0  0  0  0
  160.3240  206.5170  154.3500 O   0  0  0  0  0  0  0  0  0  0  0  0
  161.4080  208.2710  155.3460 O   0  0  0  0  0  1  0  0  0  0  0  0
  161.2650  207.3490  154.3180 C   0  0  0  0  0  0  0  0  0  0  0  0
  162.7720  208.3910  150.9890 C   0  0  0  0  0  2  0  0  0  0  0  0
  162.8780  207.6420  148.7450 O   0  0  0  0  0  0  0  0  0  0  0  0
  162.5010  208.5100  149.5150 C   0  0  0  0  0  0  0  0  0  0  0  0
  161.7090  209.6720  149.0110 C   0  0  0  0  0  2  0  0  0  0  0  0
  162.5300  210.9510  149.0520 C   0  0  0  0  0  2  0  0  0  0  0  0
  161.6090  212.3270  148.3020 P   0  0  0  0  0  0  0  0  0  0  0  0
  162.6980  213.4520  147.6650 O   0  0  0  0  0  1  0  0  0  0  0  0
  160.6580  213.0780  149.4840 O   0  0  0  0  0  1  0  0  0  0  0  0
  160.7150  211.8160  147.1950 O   0  0  0  0  0  0  0  0  0  0  0  0
  1 26  1  6  0  0  0
  1 12  1  0  0  0  0
  1 22  1  0  0  0  0
  2  4  1  0  0  0  0
  3  7  2  0  0  0  0
  3  1  1  0  0  0  0
  4  3  1  0  0  0  0
  5  8  2  0  0  0  0
  6  2  2  0  0  0  0
  6  5  1  0  0  0  0
  8  7  1  0  0  0  0
  9  6  1  0  0  0  0
 10 11  3  0  0  0  0
 11  5  1  0  0  0  0
 14 16  1  0  0  0  0
 14 20  2  0  0  0  0
 15 14  1  0  0  0  0
 16 13  1  6  0  0  0
 17 12  1  6  0  0  0
 17 18  1  0  0  0  0
 18 19  1  6  0  0  0
 18 15  1  0  0  0  0
 18 21  1  0  0  0  0
 19 17  1  0  0  0  0
 21 13  1  6  0  0  0
 21 16  1  0  0  0  0
 22 25  1  0  0  0  0
 25 23  2  0  0  0  0
 25 24  1  0  0  0  0
 27 28  2  0  0  0  0
 28 26  1  0  0  0  0
 29 30  1  0  0  0  0
 29 28  1  0  0  0  0
 31 30  1  0  0  0  0
 31 33  1  0  0  0  0
 32 31  1  0  0  0  0
 34 31  2  0  0  0  0
M  END
>  <MODEL>
2

>  <REMARK>
 VINA RESULT:      -6.1      1.708      2.123
  Name = 
  11 active torsions:
  status: ('A' for Active; 'I' for Inactive)
    1  A    between atoms: P_2  and  C_23
    2  A    between atoms: C_4  and  C_23
    3  A    between atoms: C_4  and  C_29
    4  A    between atoms: C_9  and  C_15
    5  A    between atoms: C_11  and  C_12
    6  A    between atoms: C_11  and  C_15
    7  A    between atoms: C_13  and  C_15
    8  A    between atoms: C_13  and  C_21
    9  A    between atoms: C_14  and  C_15
   10  A    between atoms: C_14  and  C_29
   11  A    between atoms: C_18  and  C_33
                            x       y       z     vdW  Elec       q    Type
                         _______ _______ _______ _____ _____    ______ ____

>  <TORSDO>
F 11

$$$$
=
 OpenBabel11052411053D

 34 37  0  0  1  0  0  0  0  0999 V2000
  161.7820  207.0780  151.2090 C   0  0  1  0  0  0  0  0  0  0  0  0
  161.0170  206.4600  147.7060 C   0  0  0  0  0  3  0  0  0  0  0  0
  161.3160  206.1240  150.1150 C   0  0  0  0  0  0  0  0  0  0  0  0
  160.3760  206.5870  149.0420 C   0  0  0  0  0  2  0  0  0  0  0  0
  161.2000  203.9960  147.9050 C   0  0  0  0  0  0  0  0  0  0  0  0
  161.3780  205.2860  147.1880 C   0  0  0  0  0  0  0  0  0  0  0  0
  161.6840  204.8750  150.1690 N   0  0  0  0  0  0  0  0  0  0  0  0
  161.3790  203.8340  149.2240 C   0  0  0  0  0  3  0  0  0  0  0  0
  161.9010  205.2730  145.8650 N   0  0  0  0  0  1  0  0  0  0  0  0
  160.7340  201.8170  146.4780 C   0  0  0  0  0  3  0  0  0  0  0  0
  160.9450  202.8110  147.1290 C   0  0  0  0  0  0  0  0  0  0  0  0
  160.5870  207.8990  151.7370 C   0  0  0  0  0  2  0  0  0  0  0  0
  160.1800  211.9010  153.0550 C   0  0  0  0  0  2  0  0  0  0  0  0
  158.9580  210.8840  154.9390 C   0  0  0  0  0  0  0  0  0  0  0  0
  159.6570  209.6950  154.9310 O   0  0  0  0  0  0  0  0  0  0  0  0
  158.8190  211.5120  153.5950 C   0  0  2  0  0  3  0  0  0  0  0  0
  160.6410  208.1390  153.2460 C   0  0  2  0  0  3  0  0  0  0  0  0
  160.0590  209.4510  153.6090 C   0  0  2  0  0  0  0  0  0  0  0  0
  161.4480  209.2600  153.5300 O   0  0  0  0  0  0  0  0  0  0  0  0
  158.4750  211.3800  155.9900 O   0  0  0  0  0  0  0  0  0  0  0  0
  159.5840  210.5570  152.6660 C   0  0  2  0  0  3  0  0  0  0  0  0
  162.4150  206.2680  152.3580 C   0  0  0  0  0  2  0  0  0  0  0  0
  161.1760  205.8870  154.3650 O   0  0  0  0  0  1  0  0  0  0  0  0
  160.8440  204.3500  152.7000 O   0  0  0  0  0  0  0  0  0  0  0  0
  161.4480  205.4960  153.2020 C   0  0  0  0  0  0  0  0  0  0  0  0
  162.8760  208.0290  150.6680 C   0  0  0  0  0  2  0  0  0  0  0  0
  162.6130  210.3050  151.2700 O   0  0  0  0  0  0  0  0  0  0  0  0
  162.4220  209.4430  150.4280 C   0  0  0  0  0  0  0  0  0  0  0  0
  161.7890  209.7940  149.1210 C   0  0  0  0  0  2  0  0  0  0  0  0
  162.5660  210.8950  148.4170 C   0  0  0  0  0  2  0  0  0  0  0  0
  161.5380  212.3830  148.2310 P   0  0  0  0  0  0  0  0  0  0  0  0
  162.5200  213.6970  147.8240 O   0  0  0  0  0  1  0  0  0  0  0  0
  160.7480  212.7080  149.6920 O   0  0  0  0  0  1  0  0  0  0  0  0
  160.5080  212.1740  147.1450 O   0  0  0  0  0  0  0  0  0  0  0  0
  1 26  1  6  0  0  0
  1 12  1  0  0  0  0
  1 22  1  0  0  0  0
  2  4  1  0  0  0  0
  3  7  2  0  0  0  0
  3  1  1  0  0  0  0
  4  3  1  0  0  0  0
  5  8  2  0  0  0  0
  6  2  2  0  0  0  0
  6  5  1  0  0  0  0
  8  7  1  0  0  0  0
  9  6  1  0  0  0  0
 10 11  3  0  0  0  0
 11  5  1  0  0  0  0
 14 20  2  0  0  0  0
 15 14  1  0  0  0  0
 16 13  1  1  0  0  0
 16 14  1  0  0  0  0
 17 12  1  6  0  0  0
 17 19  1  0  0  0  0
 17 18  1  0  0  0  0
 18 19  1  1  0  0  0
 18 15  1  0  0  0  0
 21 13  1  1  0  0  0
 21 16  1  0  0  0  0
 21 18  1  0  0  0  0
 22 25  1  0  0  0  0
 24 25  2  0  0  0  0
 25 23  1  0  0  0  0
 28 26  1  0  0  0  0
 28 27  2  0  0  0  0
 29 28  1  0  0  0  0
 30 29  1  0  0  0  0
 31 30  1  0  0  0  0
 31 33  1  0  0  0  0
 32 31  1  0  0  0  0
 34 31  2  0  0  0  0
M  END
>  <MODEL>
3

>  <REMARK>
 VINA RESULT:      -5.8      1.454      1.815
  Name = 
  11 active torsions:
  status: ('A' for Active; 'I' for Inactive)
    1  A    between atoms: P_2  and  C_23
    2  A    between atoms: C_4  and  C_23
    3  A    between atoms: C_4  and  C_29
    4  A    between atoms: C_9  and  C_15
    5  A    between atoms: C_11  and  C_12
    6  A    between atoms: C_11  and  C_15
    7  A    between atoms: C_13  and  C_15
    8  A    between atoms: C_13  and  C_21
    9  A    between atoms: C_14  and  C_15
   10  A    between atoms: C_14  and  C_29
   11  A    between atoms: C_18  and  C_33
                            x       y       z     vdW  Elec       q    Type
                         _______ _______ _______ _____ _____    ______ ____

>  <TORSDO>
F 11

$$$$
=
 OpenBabel11052411053D

 34 37  0  0  1  0  0  0  0  0999 V2000
  161.5130  208.9580  152.4650 C   0  0  1  0  0  0  0  0  0  0  0  0
  162.1070  205.3720  152.6260 C   0  0  0  0  0  3  0  0  0  0  0  0
  161.5810  207.6060  151.7650 C   0  0  0  0  0  0  0  0  0  0  0  0
  162.6780  206.6330  152.0800 C   0  0  0  0  0  2  0  0  0  0  0  0
  160.8880  204.8850  150.5250 C   0  0  0  0  0  0  0  0  0  0  0  0
  161.3070  204.5770  151.9170 C   0  0  0  0  0  0  0  0  0  0  0  0
  160.7160  207.3360  150.8290 N   0  0  0  0  0  0  0  0  0  0  0  0
  160.5960  206.1140  150.0780 C   0  0  0  0  0  3  0  0  0  0  0  0
  160.8920  203.3510  152.5080 N   0  0  0  0  0  1  0  0  0  0  0  0
  160.4570  202.8690  148.8650 C   0  0  0  0  0  3  0  0  0  0  0  0
  160.6520  203.7880  149.6220 C   0  0  0  0  0  0  0  0  0  0  0  0
  160.0640  209.4890  152.4470 C   0  0  0  0  0  2  0  0  0  0  0  0
  157.0010  211.2620  154.7690 C   0  0  0  0  0  2  0  0  0  0  0  0
  158.6830  213.0150  155.1810 C   0  0  0  0  0  0  0  0  0  0  0  0
  159.3330  212.8690  153.9740 O   0  0  0  0  0  0  0  0  0  0  0  0
  158.0870  211.7530  155.7030 C   0  0  2  0  0  3  0  0  0  0  0  0
  159.9810  211.0150  152.4340 C   0  0  2  0  0  3  0  0  0  0  0  0
  159.2020  211.5280  153.5840 C   0  0  2  0  0  0  0  0  0  0  0  0
  158.6390  211.4270  152.3010 O   0  0  0  0  0  0  0  0  0  0  0  0
  158.6140  214.1170  155.7860 O   0  0  0  0  0  0  0  0  0  0  0  0
  158.4120  210.7200  154.6140 C   0  0  2  0  0  3  0  0  0  0  0  0
  162.0000  208.8060  153.9200 C   0  0  0  0  0  2  0  0  0  0  0  0
  160.6770  209.0390  155.8950 O   0  0  0  0  0  1  0  0  0  0  0  0
  160.3140  207.1250  154.6910 O   0  0  0  0  0  0  0  0  0  0  0  0
  160.9640  208.3350  154.8940 C   0  0  0  0  0  0  0  0  0  0  0  0
  162.4540  209.9740  151.7750 C   0  0  0  0  0  2  0  0  0  0  0  0
  162.2850  209.1600  149.5560 O   0  0  0  0  0  0  0  0  0  0  0  0
  162.2370  210.1310  150.2950 C   0  0  0  0  0  0  0  0  0  0  0  0
  161.8990  211.4790  149.7460 C   0  0  0  0  0  2  0  0  0  0  0  0
  162.2900  211.5850  148.2810 C   0  0  0  0  0  2  0  0  0  0  0  0
  161.3390  212.8990  147.4600 P   0  0  0  0  0  0  0  0  0  0  0  0
  160.0260  212.2160  146.6430 O   0  0  0  0  0  1  0  0  0  0  0  0
  162.3310  213.7020  146.3480 O   0  0  0  0  0  0  0  0  0  0  0  0
  160.8300  213.8910  148.4800 O   0  0  0  0  0  1  0  0  0  0  0  0
  1 26  1  6  0  0  0
  1 22  1  0  0  0  0
  3  4  1  0  0  0  0
  3  1  1  0  0  0  0
  4  2  1  0  0  0  0
  5  6  1  0  0  0  0
  6  9  1  0  0  0  0
  6  2  2  0  0  0  0
  7  3  2  0  0  0  0
  8  5  2  0  0  0  0
  8  7  1  0  0  0  0
 10 11  3  0  0  0  0
 11  5  1  0  0  0  0
 12  1  1  0  0  0  0
 14 16  1  0  0  0  0
 14 20  2  0  0  0  0
 15 14  1  0  0  0  0
 16 13  1  6  0  0  0
 17 12  1  1  0  0  0
 17 18  1  0  0  0  0
 18 19  1  6  0  0  0
 18 15  1  0  0  0  0
 18 21  1  0  0  0  0
 19 17  1  0  0  0  0
 21 13  1  6  0  0  0
 21 16  1  0  0  0  0
 22 25  1  0  0  0  0
 24 25  2  0  0  0  0
 25 23  1  0  0  0  0
 27 28  2  0  0  0  0
 28 26  1  0  0  0  0
 29 28  1  0  0  0  0
 30 29  1  0  0  0  0
 31 30  1  0  0  0  0
 31 34  1  0  0  0  0
 32 31  1  0  0  0  0
 33 31  2  0  0  0  0
M  END
>  <MODEL>
4

>  <REMARK>
 VINA RESULT:      -5.7      2.251      3.559
  Name = 
  11 active torsions:
  status: ('A' for Active; 'I' for Inactive)
    1  A    between atoms: P_2  and  C_23
    2  A    between atoms: C_4  and  C_23
    3  A    between atoms: C_4  and  C_29
    4  A    between atoms: C_9  and  C_15
    5  A    between atoms: C_11  and  C_12
    6  A    between atoms: C_11  and  C_15
    7  A    between atoms: C_13  and  C_15
    8  A    between atoms: C_13  and  C_21
    9  A    between atoms: C_14  and  C_15
   10  A    between atoms: C_14  and  C_29
   11  A    between atoms: C_18  and  C_33
                            x       y       z     vdW  Elec       q    Type
                         _______ _______ _______ _____ _____    ______ ____

>  <TORSDO>
F 11

$$$$
=
 OpenBabel11052411053D

 34 37  0  0  1  0  0  0  0  0999 V2000
  161.7100  207.2660  151.4040 C   0  0  1  0  0  0  0  0  0  0  0  0
  161.4490  208.4660  154.8290 C   0  0  0  0  0  3  0  0  0  0  0  0
  160.9330  208.0250  152.4740 C   0  0  0  0  0  0  0  0  0  0  0  0
  160.8440  207.4990  153.8750 C   0  0  0  0  0  2  0  0  0  0  0  0
  159.7770  210.2140  154.2890 C   0  0  0  0  0  0  0  0  0  0  0  0
  160.9590  209.6900  155.0240 C   0  0  0  0  0  0  0  0  0  0  0  0
  160.2800  209.1010  152.1360 N   0  0  0  0  0  0  0  0  0  0  0  0
  159.5200  209.9670  152.9980 C   0  0  0  0  0  3  0  0  0  0  0  0
  161.5640  210.5000  156.0250 N   0  0  0  0  0  1  0  0  0  0  0  0
  158.1910  211.9370  155.5210 C   0  0  0  0  0  3  0  0  0  0  0  0
  158.9150  211.1520  154.9610 C   0  0  0  0  0  0  0  0  0  0  0  0
  160.7520  206.8000  150.2880 C   0  0  0  0  0  2  0  0  0  0  0  0
  162.5040  204.6110  147.1170 C   0  0  0  0  0  2  0  0  0  0  0  0
  160.9770  205.9330  145.7040 C   0  0  0  0  0  0  0  0  0  0  0  0
  160.9600  207.0440  146.5220 O   0  0  0  0  0  0  0  0  0  0  0  0
  161.1510  204.6470  146.4360 C   0  0  2  0  0  3  0  0  0  0  0  0
  160.9580  207.5410  148.9670 C   0  0  2  0  0  3  0  0  0  0  0  0
  161.1460  206.6000  147.8400 C   0  0  2  0  0  0  0  0  0  0  0  0
  162.2350  207.2510  148.4430 O   0  0  0  0  0  0  0  0  0  0  0  0
  160.8460  206.0090  144.4540 O   0  0  0  0  0  0  0  0  0  0  0  0
  161.2900  205.0790  147.9030 C   0  0  2  0  0  3  0  0  0  0  0  0
  162.7970  208.1860  150.8130 C   0  0  0  0  0  2  0  0  0  0  0  0
  163.0050  210.1460  152.1640 O   0  0  0  0  0  1  0  0  0  0  0  0
  162.0070  210.4590  150.1260 O   0  0  0  0  0  0  0  0  0  0  0  0
  162.6100  209.6480  151.0790 C   0  0  0  0  0  0  0  0  0  0  0  0
  162.4330  206.0460  152.0220 C   0  0  0  0  0  2  0  0  0  0  0  0
  160.7730  204.6210  152.9300 O   0  0  0  0  0  0  0  0  0  0  0  0
  161.6170  204.7830  152.0630 C   0  0  0  0  0  0  0  0  0  0  0  0
  161.8070  203.7570  150.9940 C   0  0  0  0  0  2  0  0  0  0  0  0
  160.4810  203.4000  150.3400 C   0  0  0  0  0  2  0  0  0  0  0  0
  160.5230  201.6990  149.7000 P   0  0  0  0  0  0  0  0  0  0  0  0
  161.2750  201.6870  148.1850 O   0  0  0  0  0  0  0  0  0  0  0  0
  158.9420  201.1170  149.5420 O   0  0  0  0  0  1  0  0  0  0  0  0
  161.2920  200.8040  150.6440 O   0  0  0  0  0  1  0  0  0  0  0  0
  1 12  1  6  0  0  0
  1 26  1  0  0  0  0
  1  3  1  0  0  0  0
  2  6  2  0  0  0  0
  3  4  1  0  0  0  0
  4  2  1  0  0  0  0
  5 11  1  0  0  0  0
  5  6  1  0  0  0  0
  6  9  1  0  0  0  0
  7  3  2  0  0  0  0
  7  8  1  0  0  0  0
  8  5  2  0  0  0  0
 11 10  3  0  0  0  0
 14 16  1  0  0  0  0
 14 15  1  0  0  0  0
 16 13  1  6  0  0  0
 16 21  1  0  0  0  0
 17 12  1  1  0  0  0
 18 15  1  6  0  0  0
 18 21  1  0  0  0  0
 18 19  1  0  0  0  0
 18 17  1  0  0  0  0
 19 17  1  0  0  0  0
 20 14  2  0  0  0  0
 21 13  1  6  0  0  0
 22 25  1  0  0  0  0
 22  1  1  0  0  0  0
 24 25  2  0  0  0  0
 25 23  1  0  0  0  0
 26 28  1  0  0  0  0
 28 27  2  0  0  0  0
 29 28  1  0  0  0  0
 30 29  1  0  0  0  0
 31 30  1  0  0  0  0
 31 34  1  0  0  0  0
 32 31  2  0  0  0  0
 33 31  1  0  0  0  0
M  END
>  <MODEL>
5

>  <REMARK>
 VINA RESULT:      -5.7      3.295      8.220
  Name = 
  11 active torsions:
  status: ('A' for Active; 'I' for Inactive)
    1  A    between atoms: P_2  and  C_23
    2  A    between atoms: C_4  and  C_23
    3  A    between atoms: C_4  and  C_29
    4  A    between atoms: C_9  and  C_15
    5  A    between atoms: C_11  and  C_12
    6  A    between atoms: C_11  and  C_15
    7  A    between atoms: C_13  and  C_15
    8  A    between atoms: C_13  and  C_21
    9  A    between atoms: C_14  and  C_15
   10  A    between atoms: C_14  and  C_29
   11  A    between atoms: C_18  and  C_33
                            x       y       z     vdW  Elec       q    Type
                         _______ _______ _______ _____ _____    ______ ____

>  <TORSDO>
F 11

$$$$
=
 OpenBabel11052411053D

 34 37  0  0  1  0  0  0  0  0999 V2000
  161.5370  207.4310  151.4390 C   0  0  1  0  0  0  0  0  0  0  0  0
  161.5810  207.9200  155.0440 C   0  0  0  0  0  3  0  0  0  0  0  0
  160.8990  208.0190  152.6920 C   0  0  0  0  0  0  0  0  0  0  0  0
  160.8310  207.2270  153.9640 C   0  0  0  0  0  2  0  0  0  0  0  0
  160.0700  209.8830  154.9860 C   0  0  0  0  0  0  0  0  0  0  0  0
  161.2290  209.1160  155.5140 C   0  0  0  0  0  0  0  0  0  0  0  0
  160.3420  209.1960  152.6240 N   0  0  0  0  0  0  0  0  0  0  0  0
  159.7210  209.9300  153.6930 C   0  0  0  0  0  3  0  0  0  0  0  0
  161.9650  209.6460  156.6110 N   0  0  0  0  0  1  0  0  0  0  0  0
  158.7350  211.4520  156.6480 C   0  0  0  0  0  3  0  0  0  0  0  0
  159.3440  210.7350  155.8920 C   0  0  0  0  0  0  0  0  0  0  0  0
  162.3140  208.5260  150.6790 C   0  0  0  0  0  2  0  0  0  0  0  0
  163.1090  211.7140  148.0100 C   0  0  0  0  0  2  0  0  0  0  0  0
  161.0940  212.7160  149.0140 C   0  0  0  0  0  0  0  0  0  0  0  0
  161.2500  212.1280  150.2520 O   0  0  0  0  0  0  0  0  0  0  0  0
  161.6100  211.8920  147.8850 C   0  0  2  0  0  3  0  0  0  0  0  0
  162.0090  209.9380  151.1770 C   0  0  2  0  0  3  0  0  0  0  0  0
  161.8970  210.8980  150.0570 C   0  0  2  0  0  0  0  0  0  0  0  0
  163.0630  210.8110  150.8360 O   0  0  0  0  0  0  0  0  0  0  0  0
  160.5530  213.8420  148.8620 O   0  0  0  0  0  0  0  0  0  0  0  0
  162.1860  210.6470  148.5760 C   0  0  2  0  0  3  0  0  0  0  0  0
  162.4920  206.2890  151.8400 C   0  0  0  0  0  2  0  0  0  0  0  0
  161.2010  204.6900  153.0590 O   0  0  0  0  0  1  0  0  0  0  0  0
  161.9560  203.9890  151.0130 O   0  0  0  0  0  0  0  0  0  0  0  0
  161.8480  204.9480  152.0120 C   0  0  0  0  0  0  0  0  0  0  0  0
  160.4560  206.8160  150.5190 C   0  0  0  0  0  2  0  0  0  0  0  0
  161.2070  207.7150  148.4600 O   0  0  0  0  0  0  0  0  0  0  0  0
  160.8410  206.7220  149.0680 C   0  0  0  0  0  0  0  0  0  0  0  0
  160.8310  205.3880  148.3960 C   0  0  0  0  0  2  0  0  0  0  0  0
  162.0440  205.2230  147.4920 C   0  0  0  0  0  2  0  0  0  0  0  0
  161.5460  205.2490  145.7440 P   0  0  0  0  0  0  0  0  0  0  0  0
  160.1610  206.2030  145.5690 O   0  0  0  0  0  1  0  0  0  0  0  0
  161.2050  203.6720  145.2320 O   0  0  0  0  0  1  0  0  0  0  0  0
  162.6560  205.8200  144.8930 O   0  0  0  0  0  0  0  0  0  0  0  0
  1 26  1  6  0  0  0
  1 22  1  0  0  0  0
  1  3  1  0  0  0  0
  2  6  2  0  0  0  0
  3  4  1  0  0  0  0
  4  2  1  0  0  0  0
  5  6  1  0  0  0  0
  5 11  1  0  0  0  0
  6  9  1  0  0  0  0
  7  3  2  0  0  0  0
  7  8  1  0  0  0  0
  8  5  2  0  0  0  0
 11 10  3  0  0  0  0
 12  1  1  0  0  0  0
 14 15  1  0  0  0  0
 16 13  1  1  0  0  0
 16 21  1  0  0  0  0
 16 14  1  0  0  0  0
 17 12  1  6  0  0  0
 18 15  1  1  0  0  0
 18 19  1  0  0  0  0
 18 17  1  0  0  0  0
 19 17  1  0  0  0  0
 20 14  2  0  0  0  0
 21 13  1  1  0  0  0
 21 18  1  0  0  0  0
 22 25  1  0  0  0  0
 24 25  2  0  0  0  0
 25 23  1  0  0  0  0
 27 28  2  0  0  0  0
 28 26  1  0  0  0  0
 29 28  1  0  0  0  0
 30 29  1  0  0  0  0
 31 30  1  0  0  0  0
 32 31  1  0  0  0  0
 33 31  1  0  0  0  0
 34 31  2  0  0  0  0
M  END
>  <MODEL>
6

>  <REMARK>
 VINA RESULT:      -5.3      2.898      6.796
  Name = 
  11 active torsions:
  status: ('A' for Active; 'I' for Inactive)
    1  A    between atoms: P_2  and  C_23
    2  A    between atoms: C_4  and  C_23
    3  A    between atoms: C_4  and  C_29
    4  A    between atoms: C_9  and  C_15
    5  A    between atoms: C_11  and  C_12
    6  A    between atoms: C_11  and  C_15
    7  A    between atoms: C_13  and  C_15
    8  A    between atoms: C_13  and  C_21
    9  A    between atoms: C_14  and  C_15
   10  A    between atoms: C_14  and  C_29
   11  A    between atoms: C_18  and  C_33
                            x       y       z     vdW  Elec       q    Type
                         _______ _______ _______ _____ _____    ______ ____

>  <TORSDO>
F 11

$$$$
=
 OpenBabel11052411053D

 34 37  0  0  1  0  0  0  0  0999 V2000
  161.7560  206.8830  151.0730 C   0  0  1  0  0  0  0  0  0  0  0  0
  162.2230  210.4210  150.3640 C   0  0  0  0  0  3  0  0  0  0  0  0
  161.5420  208.3400  151.4660 C   0  0  0  0  0  0  0  0  0  0  0  0
  162.6410  209.3480  151.3050 C   0  0  0  0  0  2  0  0  0  0  0  0
  160.3780  211.1560  151.8470 C   0  0  0  0  0  0  0  0  0  0  0  0
  161.2070  211.2460  150.6160 C   0  0  0  0  0  0  0  0  0  0  0  0
  160.4130  208.6860  152.0180 N   0  0  0  0  0  0  0  0  0  0  0  0
  160.0100  210.0050  152.4270 C   0  0  0  0  0  3  0  0  0  0  0  0
  160.9520  212.2930  149.6880 N   0  0  0  0  0  1  0  0  0  0  0  0
  159.3550  213.3850  152.8410 C   0  0  0  0  0  3  0  0  0  0  0  0
  159.8230  212.3690  152.3890 C   0  0  0  0  0  0  0  0  0  0  0  0
  162.5710  206.8040  149.7650 C   0  0  0  0  0  2  0  0  0  0  0  0
  163.4560  205.0840  146.0000 C   0  0  0  0  0  2  0  0  0  0  0  0
  161.0600  205.4550  145.5570 C   0  0  0  0  0  0  0  0  0  0  0  0
  160.9420  206.5680  146.3630 O   0  0  0  0  0  0  0  0  0  0  0  0
  162.0720  204.4700  146.0320 C   0  0  2  0  0  3  0  0  0  0  0  0
  161.8260  207.3670  148.5550 C   0  0  2  0  0  3  0  0  0  0  0  0
  161.8680  206.4320  147.4080 C   0  0  2  0  0  0  0  0  0  0  0  0
  162.7170  207.5490  147.4780 O   0  0  0  0  0  0  0  0  0  0  0  0
  160.3640  205.2900  144.5210 O   0  0  0  0  0  0  0  0  0  0  0  0
  162.6560  205.1270  147.2920 C   0  0  2  0  0  3  0  0  0  0  0  0
  162.5050  206.1540  152.2060 C   0  0  0  0  0  2  0  0  0  0  0  0
  161.2060  205.2330  153.9870 O   0  0  0  0  0  0  0  0  0  0  0  0
  161.9560  207.3710  154.3220 O   0  0  0  0  0  1  0  0  0  0  0  0
  161.8500  206.2210  153.5510 C   0  0  0  0  0  0  0  0  0  0  0  0
  160.3970  206.1660  150.8910 C   0  0  0  0  0  2  0  0  0  0  0  0
  160.4560  203.9550  151.7380 O   0  0  0  0  0  0  0  0  0  0  0  0
  160.4860  204.6710  150.7510 C   0  0  0  0  0  0  0  0  0  0  0  0
  160.5470  204.0690  149.3850 C   0  0  0  0  0  2  0  0  0  0  0  0
  161.5000  202.8850  149.3530 C   0  0  0  0  0  2  0  0  0  0  0  0
  160.7060  201.4460  148.5770 P   0  0  0  0  0  0  0  0  0  0  0  0
  160.4560  201.7610  146.9340 O   0  0  0  0  0  0  0  0  0  0  0  0
  159.2140  201.1560  149.3220 O   0  0  0  0  0  1  0  0  0  0  0  0
  161.5810  200.2230  148.7230 O   0  0  0  0  0  1  0  0  0  0  0  0
  1 12  1  6  0  0  0
  1  3  1  0  0  0  0
  1 22  1  0  0  0  0
  2  6  2  0  0  0  0
  2  4  1  0  0  0  0
  3  7  2  0  0  0  0
  4  3  1  0  0  0  0
  5 11  1  0  0  0  0
  5  8  2  0  0  0  0
  6  5  1  0  0  0  0
  7  8  1  0  0  0  0
  9  6  1  0  0  0  0
 11 10  3  0  0  0  0
 14 16  1  0  0  0  0
 14 15  1  0  0  0  0
 16 13  1  6  0  0  0
 16 21  1  0  0  0  0
 17 12  1  1  0  0  0
 18 15  1  6  0  0  0
 18 19  1  0  0  0  0
 18 17  1  0  0  0  0
 19 17  1  0  0  0  0
 20 14  2  0  0  0  0
 21 13  1  6  0  0  0
 21 18  1  0  0  0  0
 22 25  1  0  0  0  0
 25 23  2  0  0  0  0
 25 24  1  0  0  0  0
 26  1  1  0  0  0  0
 28 26  1  0  0  0  0
 28 27  2  0  0  0  0
 29 28  1  0  0  0  0
 30 29  1  0  0  0  0
 31 34  1  0  0  0  0
 31 33  1  0  0  0  0
 31 30  1  0  0  0  0
 32 31  2  0  0  0  0
M  END
>  <MODEL>
7

>  <REMARK>
 VINA RESULT:      -5.2      3.440      7.831
  Name = 
  11 active torsions:
  status: ('A' for Active; 'I' for Inactive)
    1  A    between atoms: P_2  and  C_23
    2  A    between atoms: C_4  and  C_23
    3  A    between atoms: C_4  and  C_29
    4  A    between atoms: C_9  and  C_15
    5  A    between atoms: C_11  and  C_12
    6  A    between atoms: C_11  and  C_15
    7  A    between atoms: C_13  and  C_15
    8  A    between atoms: C_13  and  C_21
    9  A    between atoms: C_14  and  C_15
   10  A    between atoms: C_14  and  C_29
   11  A    between atoms: C_18  and  C_33
                            x       y       z     vdW  Elec       q    Type
                         _______ _______ _______ _____ _____    ______ ____

>  <TORSDO>
F 11

$$$$
=
 OpenBabel11052411053D

 34 37  0  0  1  0  0  0  0  0999 V2000
  161.2130  209.0840  152.0500 C   0  0  1  0  0  0  0  0  0  0  0  0
  162.3190  205.6180  152.0350 C   0  0  0  0  0  3  0  0  0  0  0  0
  161.5070  207.8030  151.2780 C   0  0  0  0  0  0  0  0  0  0  0  0
  162.7210  206.9790  151.5920 C   0  0  0  0  0  2  0  0  0  0  0  0
  161.2720  205.0960  149.8510 C   0  0  0  0  0  0  0  0  0  0  0  0
  161.6740  204.7630  151.2430 C   0  0  0  0  0  0  0  0  0  0  0  0
  160.7310  207.4720  150.2860 N   0  0  0  0  0  0  0  0  0  0  0  0
  160.8210  206.2970  149.4610 C   0  0  0  0  0  3  0  0  0  0  0  0
  161.4170  203.4540  151.7400 N   0  0  0  0  0  1  0  0  0  0  0  0
  161.2080  203.1470  148.0610 C   0  0  0  0  0  3  0  0  0  0  0  0
  161.2360  204.0370  148.8760 C   0  0  0  0  0  0  0  0  0  0  0  0
  160.9500  210.2440  151.0670 C   0  0  0  0  0  2  0  0  0  0  0  0
  160.1830  212.7200  147.7200 C   0  0  0  0  0  2  0  0  0  0  0  0
  162.4810  213.5200  148.1120 C   0  0  0  0  0  0  0  0  0  0  0  0
  162.9520  212.3350  148.6370 O   0  0  0  0  0  0  0  0  0  0  0  0
  161.0390  213.7740  148.3910 C   0  0  2  0  0  3  0  0  0  0  0  0
  162.1200  210.5090  150.1200 C   0  0  2  0  0  3  0  0  0  0  0  0
  161.8760  211.6990  149.2740 C   0  0  2  0  0  0  0  0  0  0  0  0
  161.6940  210.3970  148.7800 O   0  0  0  0  0  0  0  0  0  0  0  0
  163.2130  214.3140  147.4650 O   0  0  0  0  0  0  0  0  0  0  0  0
  160.5950  212.5280  149.1710 C   0  0  2  0  0  3  0  0  0  0  0  0
  159.9810  208.8670  152.9510 C   0  0  0  0  0  2  0  0  0  0  0  0
  160.5040  206.8010  154.0310 O   0  0  0  0  0  0  0  0  0  0  0  0
  160.1260  208.5740  155.4320 O   0  0  0  0  0  1  0  0  0  0  0  0
  160.2170  208.0180  154.1620 C   0  0  0  0  0  0  0  0  0  0  0  0
  162.3980  209.4410  152.9800 C   0  0  0  0  0  2  0  0  0  0  0  0
  162.7980  210.6450  154.9790 O   0  0  0  0  0  0  0  0  0  0  0  0
  162.1130  210.5300  153.9760 C   0  0  0  0  0  0  0  0  0  0  0  0
  161.0200  211.5100  153.6930 C   0  0  0  0  0  2  0  0  0  0  0  0
  160.3060  211.9160  154.9730 C   0  0  0  0  0  2  0  0  0  0  0  0
  158.5200  212.0800  154.6830 P   0  0  0  0  0  0  0  0  0  0  0  0
  157.6980  210.8730  155.5360 O   0  0  0  0  0  1  0  0  0  0  0  0
  158.1990  211.9110  153.0300 O   0  0  0  0  0  0  0  0  0  0  0  0
  158.0370  213.4350  155.1470 O   0  0  0  0  0  1  0  0  0  0  0  0
  1 12  1  6  0  0  0
  1 22  1  0  0  0  0
  1 26  1  0  0  0  0
  3  4  1  0  0  0  0
  3  1  1  0  0  0  0
  4  2  1  0  0  0  0
  5  6  1  0  0  0  0
  6  9  1  0  0  0  0
  6  2  2  0  0  0  0
  7  3  2  0  0  0  0
  8  5  2  0  0  0  0
  8  7  1  0  0  0  0
 10 11  3  0  0  0  0
 11  5  1  0  0  0  0
 14 16  1  0  0  0  0
 14 15  1  0  0  0  0
 16 13  1  6  0  0  0
 16 21  1  0  0  0  0
 17 12  1  1  0  0  0
 18 15  1  6  0  0  0
 18 17  1  0  0  0  0
 19 18  1  0  0  0  0
 19 17  1  0  0  0  0
 20 14  2  0  0  0  0
 21 13  1  6  0  0  0
 21 18  1  0  0  0  0
 22 25  1  0  0  0  0
 23 25  2  0  0  0  0
 25 24  1  0  0  0  0
 26 28  1  0  0  0  0
 28 27  2  0  0  0  0
 29 28  1  0  0  0  0
 29 30  1  0  0  0  0
 31 30  1  0  0  0  0
 31 34  1  0  0  0  0
 31 32  1  0  0  0  0
 33 31  2  0  0  0  0
M  END
>  <MODEL>
8

>  <REMARK>
 VINA RESULT:      -4.7      2.413      5.553
  Name = 
  11 active torsions:
  status: ('A' for Active; 'I' for Inactive)
    1  A    between atoms: P_2  and  C_23
    2  A    between atoms: C_4  and  C_23
    3  A    between atoms: C_4  and  C_29
    4  A    between atoms: C_9  and  C_15
    5  A    between atoms: C_11  and  C_12
    6  A    between atoms: C_11  and  C_15
    7  A    between atoms: C_13  and  C_15
    8  A    between atoms: C_13  and  C_21
    9  A    between atoms: C_14  and  C_15
   10  A    between atoms: C_14  and  C_29
   11  A    between atoms: C_18  and  C_33
                            x       y       z     vdW  Elec       q    Type
                         _______ _______ _______ _____ _____    ______ ____

>  <TORSDO>
F 11

$$$$
=
 OpenBabel11052411053D

 34 37  0  0  1  0  0  0  0  0999 V2000
  161.8400  208.0710  150.4120 C   0  0  1  0  0  0  0  0  0  0  0  0
  160.4830  207.8240  153.7790 C   0  0  0  0  0  3  0  0  0  0  0  0
  161.4920  208.7350  151.7390 C   0  0  0  0  0  0  0  0  0  0  0  0
  160.2060  208.4160  152.4430 C   0  0  0  0  0  2  0  0  0  0  0  0
  161.5990  209.8850  154.5830 C   0  0  0  0  0  0  0  0  0  0  0  0
  161.1030  208.4940  154.7500 C   0  0  0  0  0  0  0  0  0  0  0  0
  162.2920  209.6450  152.2190 N   0  0  0  0  0  0  0  0  0  0  0  0
  162.1570  210.3590  153.4610 C   0  0  0  0  0  3  0  0  0  0  0  0
  161.2350  207.8600  156.0170 N   0  0  0  0  0  1  0  0  0  0  0  0
  161.6120  211.4790  156.6950 C   0  0  0  0  0  3  0  0  0  0  0  0
  161.6060  210.7510  155.7330 C   0  0  0  0  0  0  0  0  0  0  0  0
  162.3330  209.1320  149.4050 C   0  0  0  0  0  2  0  0  0  0  0  0
  163.6730  212.9820  148.2650 C   0  0  0  0  0  2  0  0  0  0  0  0
  161.7720  212.8970  146.6990 C   0  0  0  0  0  0  0  0  0  0  0  0
  160.9770  212.0960  147.4910 O   0  0  0  0  0  0  0  0  0  0  0  0
  163.2320  212.6430  146.8560 C   0  0  2  0  0  3  0  0  0  0  0  0
  161.2600  210.1560  149.0350 C   0  0  2  0  0  3  0  0  0  0  0  0
  161.8260  211.2760  148.2490 C   0  0  2  0  0  0  0  0  0  0  0  0
  161.5580  211.4040  149.6220 O   0  0  0  0  0  0  0  0  0  0  0  0
  161.2980  213.7550  145.9090 O   0  0  0  0  0  0  0  0  0  0  0  0
  163.2970  211.5480  147.9310 C   0  0  2  0  0  3  0  0  0  0  0  0
  162.9370  207.0130  150.6420 C   0  0  0  0  0  2  0  0  0  0  0  0
  163.0200  206.2720  152.9110 O   0  0  0  0  0  1  0  0  0  0  0  0
  161.9830  204.8460  151.4500 O   0  0  0  0  0  0  0  0  0  0  0  0
  162.6540  206.0280  151.7340 C   0  0  0  0  0  0  0  0  0  0  0  0
  160.6080  207.3320  149.8370 C   0  0  0  0  0  2  0  0  0  0  0  0
  160.7380  205.1660  148.8870 O   0  0  0  0  0  0  0  0  0  0  0  0
  160.9150  206.3620  148.7280 C   0  0  0  0  0  0  0  0  0  0  0  0
  161.3790  206.8870  147.4080 C   0  0  0  0  0  2  0  0  0  0  0  0
  160.5640  206.2950  146.2690 C   0  0  0  0  0  2  0  0  0  0  0  0
  161.5660  205.1190  145.3120 P   0  0  0  0  0  0  0  0  0  0  0  0
  163.1500  205.1190  145.9020 O   0  0  0  0  0  1  0  0  0  0  0  0
  161.5780  205.5830  143.6840 O   0  0  0  0  0  0  0  0  0  0  0  0
  160.9900  203.7260  145.4280 O   0  0  0  0  0  1  0  0  0  0  0  0
  1 12  1  6  0  0  0
  1 22  1  0  0  0  0
  1  3  1  0  0  0  0
  2  6  2  0  0  0  0
  3  7  2  0  0  0  0
  3  4  1  0  0  0  0
  4  2  1  0  0  0  0
  5  6  1  0  0  0  0
  5 11  1  0  0  0  0
  6  9  1  0  0  0  0
  7  8  1  0  0  0  0
  8  5  2  0  0  0  0
 11 10  3  0  0  0  0
 14 16  1  0  0  0  0
 14 15  1  0  0  0  0
 16 21  1  0  0  0  0
 16 13  1  1  0  0  0
 17 12  1  1  0  0  0
 17 19  1  0  0  0  0
 18 15  1  6  0  0  0
 18 17  1  0  0  0  0
 18 19  1  0  0  0  0
 20 14  2  0  0  0  0
 21 18  1  0  0  0  0
 21 13  1  1  0  0  0
 22 25  1  0  0  0  0
 24 25  2  0  0  0  0
 25 23  1  0  0  0  0
 26  1  1  0  0  0  0
 28 27  2  0  0  0  0
 28 26  1  0  0  0  0
 29 28  1  0  0  0  0
 30 29  1  0  0  0  0
 31 34  1  0  0  0  0
 31 32  1  0  0  0  0
 31 30  1  0  0  0  0
 33 31  2  0  0  0  0
M  END
>  <MODEL>
9

>  <REMARK>
 VINA RESULT:      -4.7      3.023      7.072
  Name = 
  11 active torsions:
  status: ('A' for Active; 'I' for Inactive)
    1  A    between atoms: P_2  and  C_23
    2  A    between atoms: C_4  and  C_23
    3  A    between atoms: C_4  and  C_29
    4  A    between atoms: C_9  and  C_15
    5  A    between atoms: C_11  and  C_12
    6  A    between atoms: C_11  and  C_15
    7  A    between atoms: C_13  and  C_15
    8  A    between atoms: C_13  and  C_21
    9  A    between atoms: C_14  and  C_15
   10  A    between atoms: C_14  and  C_29
   11  A    between atoms: C_18  and  C_33
                            x       y       z     vdW  Elec       q    Type
                         _______ _______ _______ _____ _____    ______ ____

>  <TORSDO>
F 11

$$$$
