=
 OpenBabel11042422163D

 52 56  0  0  1  0  0  0  0  0999 V2000
  161.1450  207.2100  148.0810 O   0  0  0  0  0  0  0  0  0  0  0  0
  161.7880  208.4530  148.2690 C   0  0  0  0  0  2  0  0  0  0  0  0
  161.7920  208.7410  149.7220 C   0  0  0  0  0  0  0  0  0  0  0  0
  160.8720  206.6920  149.3670 C   0  0  2  0  0  3  0  0  0  0  0  0
  161.2600  207.7250  150.3550 C   0  0  0  0  0  0  0  0  0  0  0  0
  160.1920  208.3020  152.4150 O   0  0  0  0  0  0  0  0  0  0  0  0
  161.8550  206.6640  152.5430 N   0  0  0  0  0  2  0  0  0  0  0  0
  161.0490  207.5910  151.8120 C   0  0  0  0  0  0  0  0  0  0  0  0
  161.7420  206.5000  153.9820 C   0  0  0  0  0  2  0  0  0  0  0  0
  160.3190  206.7180  156.4370 O   0  0  0  0  0  0  0  0  0  0  0  0
  161.2900  207.7500  154.5760 N   0  0  0  0  0  2  0  0  0  0  0  0
  160.5570  207.7840  155.8030 C   0  0  0  0  0  0  0  0  0  0  0  0
  159.2530  209.8240  155.3530 C   0  0  0  0  0  2  0  0  0  0  0  0
  160.1180  209.1010  156.3600 C   0  0  2  0  0  3  0  0  0  0  0  0
  161.3170  209.9870  156.6890 C   0  0  0  0  0  2  0  0  0  0  0  0
  160.9060  211.7260  156.3380 S   0  0  0  0  0  0  0  0  0  0  0  0
  159.2390  211.2770  155.7690 C   0  0  1  0  0  3  0  0  0  0  0  0
  157.0710  213.5710  153.6140 C   0  0  0  0  0  3  0  0  0  0  0  0
  159.5950  212.3840  153.5410 C   0  0  0  0  0  3  0  0  0  0  0  0
  158.7680  212.1760  154.6580 C   0  0  0  0  0  0  0  0  0  0  0  0
  159.1690  213.1780  152.4760 C   0  0  0  0  0  3  0  0  0  0  0  0
  157.9040  213.7670  152.5100 C   0  0  0  0  0  3  0  0  0  0  0  0
  157.4930  212.7930  154.7060 C   0  0  0  0  0  0  0  0  0  0  0  0
  155.4230  213.3690  155.7490 F   0  0  0  0  0  0  0  0  0  0  0  0
  156.5640  212.5860  155.8920 C   0  0  0  0  0  0  0  0  0  0  0  0
  157.2260  213.0170  157.0270 F   0  0  0  0  0  0  0  0  0  0  0  0
  155.5450  210.7510  154.9500 C   0  0  0  0  0  1  0  0  0  0  0  0
  156.2270  211.2240  156.0850 O   0  0  0  0  0  0  0  0  0  0  0  0
  162.3370  209.9870  150.3560 C   0  0  0  0  0  2  0  0  0  0  0  0
  162.4300  211.0670  149.3890 N   0  0  0  0  0  2  0  0  0  0  0  0
  161.3510  211.9960  149.6890 C   0  0  0  0  0  2  0  0  0  0  0  0
  161.2340  213.0700  148.6030 C   0  0  2  0  0  3  0  0  0  0  0  0
  160.1890  214.1140  148.9730 C   0  0  0  0  0  2  0  0  0  0  0  0
  158.9520  213.5100  149.1240 F   0  0  0  0  0  0  0  0  0  0  0  0
  160.9190  212.4660  147.2370 C   0  0  0  0  0  2  0  0  0  0  0  0
  160.8920  213.5310  146.1490 C   0  0  0  0  0  2  0  0  0  0  0  0
  161.0760  212.5550  143.8620 O   0  0  0  0  0  0  0  0  0  0  0  0
  161.7000  213.1050  144.9730 C   0  0  0  0  0  0  0  0  0  0  0  0
  162.9500  213.2640  144.9800 O   0  0  0  0  0  1  0  0  0  0  0  0
  161.6560  205.4830  149.5830 N   0  0  0  0  0  2  0  0  0  0  0  0
  161.2010  204.1250  149.4460 C   0  0  0  0  0  0  0  0  0  0  0  0
  160.8710  202.1540  148.0670 C   0  0  0  0  0  0  0  0  0  0  0  0
  161.7300  203.4970  145.7440 O   0  0  0  0  0  0  0  0  0  0  0  0
  160.6790  203.3820  150.5280 C   0  0  0  0  0  0  0  0  0  0  0  0
  161.0270  201.4120  146.7710 C   0  0  0  0  0  2  0  0  0  0  0  0
  161.8580  204.1370  146.9770 C   0  0  0  0  0  0  0  0  0  0  0  0
  160.3800  201.5020  149.1480 N   0  0  0  0  0  0  0  0  0  0  0  0
  161.3070  203.4830  148.1950 C   0  0  0  0  0  0  0  0  0  0  0  0
  160.5290  203.9500  151.8260 N   0  0  0  0  0  1  0  0  0  0  0  0
  162.4640  205.2380  147.0360 O   0  0  0  0  0  0  0  0  0  0  0  0
  160.8720  202.3670  145.5890 C   0  0  0  0  0  2  0  0  0  0  0  0
  160.2840  202.0970  150.3330 N   0  0  0  0  0  0  0  0  0  0  0  0
  1  2  1  0  0  0  0
  1  4  1  0  0  0  0
  2  3  1  0  0  0  0
  3  5  2  0  0  0  0
  3 29  1  0  0  0  0
  4 40  1  1  0  0  0
  4  5  1  0  0  0  0
  5  8  1  0  0  0  0
  7  9  1  0  0  0  0
  8  6  2  0  0  0  0
  8  7  1  0  0  0  0
  9 11  1  0  0  0  0
 11 12  1  0  0  0  0
 12 10  2  0  0  0  0
 13 17  1  0  0  0  0
 13 14  1  0  0  0  0
 14 12  1  6  0  0  0
 14 15  1  0  0  0  0
 16 15  1  0  0  0  0
 17 20  1  6  0  0  0
 17 16  1  0  0  0  0
 18 23  1  0  0  0  0
 19 20  1  0  0  0  0
 20 23  2  0  0  0  0
 21 22  1  0  0  0  0
 21 19  2  0  0  0  0
 22 18  2  0  0  0  0
 23 25  1  0  0  0  0
 24 25  1  0  0  0  0
 25 28  1  0  0  0  0
 25 26  1  0  0  0  0
 27 28  1  0  0  0  0
 30 31  1  0  0  0  0
 30 29  1  0  0  0  0
 32 35  1  6  0  0  0
 32 33  1  0  0  0  0
 32 31  1  0  0  0  0
 33 34  1  0  0  0  0
 36 35  1  0  0  0  0
 37 38  2  0  0  0  0
 38 39  1  0  0  0  0
 38 36  1  0  0  0  0
 41 40  1  0  0  0  0
 41 44  1  0  0  0  0
 42 48  1  0  0  0  0
 42 47  2  0  0  0  0
 43 46  1  0  0  0  0
 44 49  1  0  0  0  0
 45 42  1  0  0  0  0
 46 50  2  0  0  0  0
 46 48  1  0  0  0  0
 47 52  1  0  0  0  0
 48 41  2  0  0  0  0
 51 43  1  0  0  0  0
 51 45  1  0  0  0  0
 52 44  2  0  0  0  0
M  END
>  <MODEL>
1

>  <REMARK>
 VINA RESULT:      -7.8      0.000      0.000
  Name = 
  17 active torsions:
  status: ('A' for Active; 'I' for Inactive)
    1  A    between atoms: C_2  and  N_42
    2  A    between atoms: C_4  and  O_28
    3  A    between atoms: C_4  and  C_48
    4  A    between atoms: C_8  and  C_32
    5  A    between atoms: C_9  and  C_32
    6  A    between atoms: C_9  and  N_39
    7  A    between atoms: C_10  and  N_39
    8  A    between atoms: C_10  and  C_44
    9  A    between atoms: N_12  and  C_33
   10  A    between atoms: C_16  and  C_25
   11  A    between atoms: C_20  and  C_52
   12  A    between atoms: C_23  and  C_31
   13  A    between atoms: C_23  and  C_34
   14  A    between atoms: C_32  and  C_34
   15  A    between atoms: C_33  and  N_37
   16  A    between atoms: N_42  and  C_45
   17  A    between atoms: C_43  and  C_47
                            x       y       z     vdW  Elec       q    Type
                         _______ _______ _______ _____ _____    ______ ____

>  <TORSDO>
F 17

$$$$
=
 OpenBabel11042422163D

 52 56  0  0  1  0  0  0  0  0999 V2000
  160.5470  207.0730  151.3450 O   0  0  0  0  0  0  0  0  0  0  0  0
  161.2900  206.4860  150.2990 C   0  0  0  0  0  2  0  0  0  0  0  0
  161.8860  207.5820  149.5010 C   0  0  0  0  0  0  0  0  0  0  0  0
  160.7700  208.4670  151.2730 C   0  0  2  0  0  3  0  0  0  0  0  0
  161.5820  208.7260  150.0630 C   0  0  0  0  0  0  0  0  0  0  0  0
  162.8450  210.7520  150.1910 O   0  0  0  0  0  0  0  0  0  0  0  0
  161.2670  210.6330  148.4710 N   0  0  0  0  0  2  0  0  0  0  0  0
  161.9550  210.0780  149.5950 C   0  0  0  0  0  0  0  0  0  0  0  0
  161.5420  211.9700  147.9730 C   0  0  0  0  0  2  0  0  0  0  0  0
  158.8810  212.6920  147.2710 O   0  0  0  0  0  0  0  0  0  0  0  0
  161.0420  212.0900  146.6110 N   0  0  0  0  0  2  0  0  0  0  0  0
  159.6840  212.4340  146.3300 C   0  0  0  0  0  0  0  0  0  0  0  0
  160.4200  212.4430  143.9810 C   0  0  0  0  0  2  0  0  0  0  0  0
  159.2310  212.5390  144.9090 C   0  0  2  0  0  3  0  0  0  0  0  0
  158.5260  213.8680  144.6520 C   0  0  0  0  0  2  0  0  0  0  0  0
  158.9140  214.4510  142.9700 S   0  0  0  0  0  0  0  0  0  0  0  0
  159.9700  213.0060  142.6520 C   0  0  1  0  0  3  0  0  0  0  0  0
  162.3370  213.1820  139.6560 C   0  0  0  0  0  3  0  0  0  0  0  0
  162.1900  214.1230  142.2790 C   0  0  0  0  0  3  0  0  0  0  0  0
  161.1340  213.3510  141.7640 C   0  0  0  0  0  0  0  0  0  0  0  0
  163.3030  214.4230  141.4940 C   0  0  0  0  0  3  0  0  0  0  0  0
  163.3790  213.9480  140.1830 C   0  0  0  0  0  3  0  0  0  0  0  0
  161.1970  212.8880  140.4260 C   0  0  0  0  0  0  0  0  0  0  0  0
  159.9580  210.8490  140.5370 F   0  0  0  0  0  0  0  0  0  0  0  0
  160.0810  212.0430  139.8340 C   0  0  0  0  0  0  0  0  0  0  0  0
  160.4340  211.7290  138.5340 F   0  0  0  0  0  0  0  0  0  0  0  0
  157.8690  211.8970  139.2190 C   0  0  0  0  0  1  0  0  0  0  0  0
  158.8460  212.7350  139.7850 O   0  0  0  0  0  0  0  0  0  0  0  0
  162.7170  207.4010  148.2650 C   0  0  0  0  0  2  0  0  0  0  0  0
  161.9740  206.6920  147.2360 N   0  0  0  0  0  2  0  0  0  0  0  0
  162.8540  205.6520  146.7220 C   0  0  0  0  0  2  0  0  0  0  0  0
  162.0890  204.3420  146.5110 C   0  0  2  0  0  3  0  0  0  0  0  0
  161.4410  204.3010  145.1330 C   0  0  0  0  0  2  0  0  0  0  0  0
  160.5680  203.2280  145.0550 F   0  0  0  0  0  0  0  0  0  0  0  0
  161.0410  204.1130  147.5960 C   0  0  0  0  0  2  0  0  0  0  0  0
  161.4890  203.0490  148.5890 C   0  0  0  0  0  2  0  0  0  0  0  0
  159.7210  201.4160  149.2400 O   0  0  0  0  0  1  0  0  0  0  0  0
  160.7430  201.7790  148.3740 C   0  0  0  0  0  0  0  0  0  0  0  0
  161.0270  201.0420  147.3920 O   0  0  0  0  0  0  0  0  0  0  0  0
  161.4950  208.9070  152.4580 N   0  0  0  0  0  2  0  0  0  0  0  0
  160.9360  209.5290  153.6290 C   0  0  0  0  0  0  0  0  0  0  0  0
  160.2540  209.3860  155.9550 C   0  0  0  0  0  0  0  0  0  0  0  0
  160.8010  206.6240  156.0630 O   0  0  0  0  0  0  0  0  0  0  0  0
  160.5540  210.8880  153.6620 C   0  0  0  0  0  0  0  0  0  0  0  0
  160.1440  208.6370  157.2520 C   0  0  0  0  0  2  0  0  0  0  0  0
  161.1730  207.3400  154.9250 C   0  0  0  0  0  0  0  0  0  0  0  0
  159.9090  210.6950  155.9160 N   0  0  0  0  0  0  0  0  0  0  0  0
  160.7920  208.7730  154.8110 C   0  0  0  0  0  0  0  0  0  0  0  0
  160.6590  211.7260  152.5150 N   0  0  0  0  0  1  0  0  0  0  0  0
  161.8510  206.7640  154.0350 O   0  0  0  0  0  0  0  0  0  0  0  0
  159.8580  207.1600  156.9910 C   0  0  0  0  0  2  0  0  0  0  0  0
  160.0510  211.4170  154.8080 N   0  0  0  0  0  0  0  0  0  0  0  0
  2  1  1  0  0  0  0
  3  5  2  0  0  0  0
  3  2  1  0  0  0  0
  4  1  1  0  0  0  0
  4 40  1  1  0  0  0
  5  4  1  0  0  0  0
  7  8  1  0  0  0  0
  8  5  1  0  0  0  0
  8  6  2  0  0  0  0
  9  7  1  0  0  0  0
 11  9  1  0  0  0  0
 12 11  1  0  0  0  0
 12 10  2  0  0  0  0
 13 14  1  0  0  0  0
 14 12  1  1  0  0  0
 15 14  1  0  0  0  0
 16 15  1  0  0  0  0
 17 20  1  6  0  0  0
 17 16  1  0  0  0  0
 17 13  1  0  0  0  0
 18 22  2  0  0  0  0
 18 23  1  0  0  0  0
 20 19  1  0  0  0  0
 21 19  2  0  0  0  0
 22 21  1  0  0  0  0
 23 20  2  0  0  0  0
 25 23  1  0  0  0  0
 25 24  1  0  0  0  0
 26 25  1  0  0  0  0
 27 28  1  0  0  0  0
 28 25  1  0  0  0  0
 29  3  1  0  0  0  0
 30 29  1  0  0  0  0
 31 30  1  0  0  0  0
 32 33  1  6  0  0  0
 32 31  1  0  0  0  0
 32 35  1  0  0  0  0
 34 33  1  0  0  0  0
 35 36  1  0  0  0  0
 38 36  1  0  0  0  0
 38 37  1  0  0  0  0
 39 38  2  0  0  0  0
 40 41  1  0  0  0  0
 41 44  2  0  0  0  0
 41 48  1  0  0  0  0
 42 45  1  0  0  0  0
 43 51  1  0  0  0  0
 44 52  1  0  0  0  0
 46 43  1  0  0  0  0
 47 42  1  0  0  0  0
 48 46  1  0  0  0  0
 48 42  2  0  0  0  0
 49 44  1  0  0  0  0
 50 46  2  0  0  0  0
 51 45  1  0  0  0  0
 52 47  2  0  0  0  0
M  END
>  <MODEL>
2

>  <REMARK>
 VINA RESULT:      -7.1      4.745     10.737
  Name = 
  17 active torsions:
  status: ('A' for Active; 'I' for Inactive)
    1  A    between atoms: C_2  and  N_42
    2  A    between atoms: C_4  and  O_28
    3  A    between atoms: C_4  and  C_48
    4  A    between atoms: C_8  and  C_32
    5  A    between atoms: C_9  and  C_32
    6  A    between atoms: C_9  and  N_39
    7  A    between atoms: C_10  and  N_39
    8  A    between atoms: C_10  and  C_44
    9  A    between atoms: N_12  and  C_33
   10  A    between atoms: C_16  and  C_25
   11  A    between atoms: C_20  and  C_52
   12  A    between atoms: C_23  and  C_31
   13  A    between atoms: C_23  and  C_34
   14  A    between atoms: C_32  and  C_34
   15  A    between atoms: C_33  and  N_37
   16  A    between atoms: N_42  and  C_45
   17  A    between atoms: C_43  and  C_47
                            x       y       z     vdW  Elec       q    Type
                         _______ _______ _______ _____ _____    ______ ____

>  <TORSDO>
F 17

$$$$
=
 OpenBabel11042422163D

 52 56  0  0  1  0  0  0  0  0999 V2000
  157.0180  214.2410  152.4730 O   0  0  0  0  0  0  0  0  0  0  0  0
  157.4340  214.4530  153.8050 C   0  0  0  0  0  2  0  0  0  0  0  0
  158.2960  213.3130  154.1930 C   0  0  0  0  0  0  0  0  0  0  0  0
  157.6890  213.0860  152.0140 C   0  0  2  0  0  3  0  0  0  0  0  0
  158.4400  212.5220  153.1590 C   0  0  0  0  0  0  0  0  0  0  0  0
  158.7130  210.1760  153.5340 O   0  0  0  0  0  0  0  0  0  0  0  0
  160.5340  211.2820  152.5720 N   0  0  0  0  0  2  0  0  0  0  0  0
  159.2060  211.2580  153.1000 C   0  0  0  0  0  0  0  0  0  0  0  0
  161.3700  210.0940  152.5160 C   0  0  0  0  0  2  0  0  0  0  0  0
  161.2150  207.3000  152.0000 O   0  0  0  0  0  0  0  0  0  0  0  0
  161.2700  209.4950  151.1940 N   0  0  0  0  0  2  0  0  0  0  0  0
  161.2190  208.0790  151.0050 C   0  0  0  0  0  0  0  0  0  0  0  0
  160.6870  206.0760  149.6750 C   0  0  0  0  0  2  0  0  0  0  0  0
  161.1190  207.5240  149.6200 C   0  0  2  0  0  3  0  0  0  0  0  0
  162.4620  207.5980  148.8990 C   0  0  0  0  0  2  0  0  0  0  0  0
  162.6610  206.1400  147.8260 S   0  0  0  0  0  0  0  0  0  0  0  0
  161.0490  205.4730  148.3370 C   0  0  1  0  0  3  0  0  0  0  0  0
  161.0950  201.8000  147.2830 C   0  0  0  0  0  3  0  0  0  0  0  0
  160.9330  203.3150  149.6200 C   0  0  0  0  0  3  0  0  0  0  0  0
  161.0570  203.9690  148.3820 C   0  0  0  0  0  0  0  0  0  0  0  0
  160.8940  201.9220  149.6900 C   0  0  0  0  0  3  0  0  0  0  0  0
  160.9700  201.1650  148.5200 C   0  0  0  0  0  3  0  0  0  0  0  0
  161.1580  203.2020  147.1950 C   0  0  0  0  0  0  0  0  0  0  0  0
  160.8650  203.0010  144.8330 F   0  0  0  0  0  0  0  0  0  0  0  0
  161.2840  203.8700  145.8350 C   0  0  0  0  0  0  0  0  0  0  0  0
  162.6240  204.1400  145.6200 F   0  0  0  0  0  0  0  0  0  0  0  0
  160.8750  205.7310  144.5470 C   0  0  0  0  0  1  0  0  0  0  0  0
  160.5850  205.0990  145.7690 O   0  0  0  0  0  0  0  0  0  0  0  0
  158.9140  213.1150  155.5460 C   0  0  0  0  0  2  0  0  0  0  0  0
  160.2220  212.4920  155.4360 N   0  0  0  0  0  2  0  0  0  0  0  0
  160.7480  212.3750  156.7890 C   0  0  0  0  0  2  0  0  0  0  0  0
  161.3720  210.9950  157.0160 C   0  0  2  0  0  3  0  0  0  0  0  0
  162.8590  211.0030  156.6840 C   0  0  0  0  0  2  0  0  0  0  0  0
  163.0400  210.7790  155.3290 F   0  0  0  0  0  0  0  0  0  0  0  0
  160.6580  209.9080  156.2180 C   0  0  0  0  0  2  0  0  0  0  0  0
  160.8860  208.5300  156.8250 C   0  0  0  0  0  2  0  0  0  0  0  0
  161.0630  206.9550  154.9000 O   0  0  0  0  0  0  0  0  0  0  0  0
  160.3150  207.4680  155.9510 C   0  0  0  0  0  0  0  0  0  0  0  0
  159.1600  207.0200  156.1790 O   0  0  0  0  0  1  0  0  0  0  0  0
  158.6140  213.4490  150.9480 N   0  0  0  0  0  2  0  0  0  0  0  0
  158.3060  213.5860  149.5490 C   0  0  0  0  0  0  0  0  0  0  0  0
  159.0440  213.6600  147.2370 C   0  0  0  0  0  0  0  0  0  0  0  0
  161.7580  213.5300  147.9820 O   0  0  0  0  0  0  0  0  0  0  0  0
  156.9860  213.7360  149.0700 C   0  0  0  0  0  0  0  0  0  0  0  0
  160.1170  213.5450  146.1930 C   0  0  0  0  0  2  0  0  0  0  0  0
  160.7830  213.3590  148.9640 C   0  0  0  0  0  0  0  0  0  0  0  0
  157.7550  213.8010  146.8480 N   0  0  0  0  0  0  0  0  0  0  0  0
  159.3500  213.5350  148.6030 C   0  0  0  0  0  0  0  0  0  0  0  0
  155.8690  213.8040  149.9520 N   0  0  0  0  0  1  0  0  0  0  0  0
  161.1340  213.0290  150.1260 O   0  0  0  0  0  0  0  0  0  0  0  0
  161.4340  214.1100  146.7190 C   0  0  0  0  0  2  0  0  0  0  0  0
  156.7630  213.8420  147.7340 N   0  0  0  0  0  0  0  0  0  0  0  0
  1  2  1  0  0  0  0
  2  3  1  0  0  0  0
  3 29  1  0  0  0  0
  4 40  1  6  0  0  0
  4  1  1  0  0  0  0
  4  5  1  0  0  0  0
  5  3  2  0  0  0  0
  7  8  1  0  0  0  0
  8  5  1  0  0  0  0
  8  6  2  0  0  0  0
  9  7  1  0  0  0  0
 11  9  1  0  0  0  0
 12 11  1  0  0  0  0
 12 10  2  0  0  0  0
 14 13  1  0  0  0  0
 14 12  1  1  0  0  0
 15 14  1  0  0  0  0
 16 17  1  0  0  0  0
 16 15  1  0  0  0  0
 17 20  1  1  0  0  0
 17 13  1  0  0  0  0
 18 22  1  0  0  0  0
 19 21  1  0  0  0  0
 20 19  2  0  0  0  0
 22 21  2  0  0  0  0
 23 18  2  0  0  0  0
 23 20  1  0  0  0  0
 24 25  1  0  0  0  0
 25 23  1  0  0  0  0
 26 25  1  0  0  0  0
 27 28  1  0  0  0  0
 28 25  1  0  0  0  0
 30 29  1  0  0  0  0
 30 31  1  0  0  0  0
 31 32  1  0  0  0  0
 32 35  1  6  0  0  0
 33 32  1  0  0  0  0
 34 33  1  0  0  0  0
 35 36  1  0  0  0  0
 37 38  2  0  0  0  0
 38 39  1  0  0  0  0
 38 36  1  0  0  0  0
 41 40  1  0  0  0  0
 42 48  1  0  0  0  0
 43 46  1  0  0  0  0
 44 41  1  0  0  0  0
 44 49  1  0  0  0  0
 45 51  1  0  0  0  0
 45 42  1  0  0  0  0
 46 50  2  0  0  0  0
 47 42  2  0  0  0  0
 47 52  1  0  0  0  0
 48 46  1  0  0  0  0
 48 41  2  0  0  0  0
 51 43  1  0  0  0  0
 52 44  2  0  0  0  0
M  END
>  <MODEL>
3

>  <REMARK>
 VINA RESULT:      -6.7      3.774     10.115
  Name = 
  17 active torsions:
  status: ('A' for Active; 'I' for Inactive)
    1  A    between atoms: C_2  and  N_42
    2  A    between atoms: C_4  and  O_28
    3  A    between atoms: C_4  and  C_48
    4  A    between atoms: C_8  and  C_32
    5  A    between atoms: C_9  and  C_32
    6  A    between atoms: C_9  and  N_39
    7  A    between atoms: C_10  and  N_39
    8  A    between atoms: C_10  and  C_44
    9  A    between atoms: N_12  and  C_33
   10  A    between atoms: C_16  and  C_25
   11  A    between atoms: C_20  and  C_52
   12  A    between atoms: C_23  and  C_31
   13  A    between atoms: C_23  and  C_34
   14  A    between atoms: C_32  and  C_34
   15  A    between atoms: C_33  and  N_37
   16  A    between atoms: N_42  and  C_45
   17  A    between atoms: C_43  and  C_47
                            x       y       z     vdW  Elec       q    Type
                         _______ _______ _______ _____ _____    ______ ____

>  <TORSDO>
F 17

$$$$
=
 OpenBabel11042422163D

 52 56  0  0  1  0  0  0  0  0999 V2000
  157.3380  212.8270  145.3700 O   0  0  0  0  0  0  0  0  0  0  0  0
  156.7780  213.4220  146.5210 C   0  0  0  0  0  2  0  0  0  0  0  0
  157.8790  213.6630  147.4820 C   0  0  0  0  0  0  0  0  0  0  0  0
  158.7390  212.8110  145.5580 C   0  0  2  0  0  3  0  0  0  0  0  0
  159.0110  213.3070  146.9270 C   0  0  0  0  0  0  0  0  0  0  0  0
  160.9940  214.4520  147.6110 O   0  0  0  0  0  0  0  0  0  0  0  0
  160.9540  212.1470  147.9970 N   0  0  0  0  0  2  0  0  0  0  0  0
  160.3590  213.3610  147.5310 C   0  0  0  0  0  0  0  0  0  0  0  0
  162.2910  212.1050  148.5660 C   0  0  0  0  0  2  0  0  0  0  0  0
  162.4070  209.2700  148.3470 O   0  0  0  0  0  0  0  0  0  0  0  0
  162.3070  211.1820  149.6910 N   0  0  0  0  0  2  0  0  0  0  0  0
  162.3420  209.7640  149.5080 C   0  0  0  0  0  0  0  0  0  0  0  0
  162.4000  207.4220  150.2670 C   0  0  0  0  0  2  0  0  0  0  0  0
  162.3550  208.8690  150.7050 C   0  0  2  0  0  3  0  0  0  0  0  0
  161.1070  209.0740  151.5600 C   0  0  0  0  0  2  0  0  0  0  0  0
  160.5860  207.4810  152.2740 S   0  0  0  0  0  0  0  0  0  0  0  0
  161.9500  206.6030  151.4550 C   0  0  1  0  0  3  0  0  0  0  0  0
  160.7090  203.6060  149.4340 C   0  0  0  0  0  3  0  0  0  0  0  0
  161.5860  204.1820  152.0190 C   0  0  0  0  0  3  0  0  0  0  0  0
  161.5560  205.2060  151.0580 C   0  0  0  0  0  0  0  0  0  0  0  0
  161.1860  202.8860  151.6930 C   0  0  0  0  0  3  0  0  0  0  0  0
  160.7420  202.5990  150.4010 C   0  0  0  0  0  3  0  0  0  0  0  0
  161.1300  204.9130  149.7390 C   0  0  0  0  0  0  0  0  0  0  0  0
  162.3180  206.6050  148.5440 F   0  0  0  0  0  0  0  0  0  0  0  0
  161.0740  205.9940  148.6720 C   0  0  0  0  0  0  0  0  0  0  0  0
  160.1770  206.9580  149.0940 F   0  0  0  0  0  0  0  0  0  0  0  0
  161.1320  206.3070  146.3940 C   0  0  0  0  0  1  0  0  0  0  0  0
  160.6170  205.5020  147.4250 O   0  0  0  0  0  0  0  0  0  0  0  0
  157.7160  214.2390  148.8580 C   0  0  0  0  0  2  0  0  0  0  0  0
  157.6880  213.1900  149.8640 N   0  0  0  0  0  2  0  0  0  0  0  0
  157.4210  213.8370  151.1400 C   0  0  0  0  0  2  0  0  0  0  0  0
  158.5130  213.5060  152.1610 C   0  0  2  0  0  3  0  0  0  0  0  0
  159.7430  212.9180  151.4790 C   0  0  0  0  0  2  0  0  0  0  0  0
  160.5060  213.9340  150.9270 F   0  0  0  0  0  0  0  0  0  0  0  0
  158.0100  212.5620  153.2490 C   0  0  0  0  0  2  0  0  0  0  0  0
  158.8040  211.2640  153.2730 C   0  0  0  0  0  2  0  0  0  0  0  0
  160.6750  211.7040  154.8620 O   0  0  0  0  0  0  0  0  0  0  0  0
  159.4670  211.0750  154.5930 C   0  0  0  0  0  0  0  0  0  0  0  0
  158.9200  210.3590  155.4740 O   0  0  0  0  0  1  0  0  0  0  0  0
  159.3730  213.6870  144.5810 N   0  0  0  0  0  2  0  0  0  0  0  0
  160.2050  213.2870  143.4770 C   0  0  0  0  0  0  0  0  0  0  0  0
  160.5130  212.9780  141.0890 C   0  0  0  0  0  0  0  0  0  0  0  0
  157.8350  213.6590  140.5410 O   0  0  0  0  0  0  0  0  0  0  0  0
  161.5390  212.8540  143.6450 C   0  0  0  0  0  0  0  0  0  0  0  0
  160.0320  213.1030  139.6720 C   0  0  0  0  0  2  0  0  0  0  0  0
  158.3170  213.8190  141.8400 C   0  0  0  0  0  0  0  0  0  0  0  0
  161.7830  212.5720  141.3230 N   0  0  0  0  0  0  0  0  0  0  0  0
  159.6950  213.3600  142.1650 C   0  0  0  0  0  0  0  0  0  0  0  0
  162.1360  212.7430  144.9340 N   0  0  0  0  0  1  0  0  0  0  0  0
  157.5880  214.3780  142.7000 O   0  0  0  0  0  0  0  0  0  0  0  0
  158.5290  212.8460  139.5950 C   0  0  0  0  0  2  0  0  0  0  0  0
  162.2760  212.5090  142.5570 N   0  0  0  0  0  0  0  0  0  0  0  0
  1  4  1  0  0  0  0
  1  2  1  0  0  0  0
  2  3  1  0  0  0  0
  3 29  1  0  0  0  0
  4 40  1  6  0  0  0
  4  5  1  0  0  0  0
  5  3  2  0  0  0  0
  5  8  1  0  0  0  0
  7  9  1  0  0  0  0
  8  6  2  0  0  0  0
  8  7  1  0  0  0  0
  9 11  1  0  0  0  0
 10 12  2  0  0  0  0
 12 11  1  0  0  0  0
 13 14  1  0  0  0  0
 13 17  1  0  0  0  0
 14 12  1  6  0  0  0
 14 15  1  0  0  0  0
 15 16  1  0  0  0  0
 17 20  1  6  0  0  0
 17 16  1  0  0  0  0
 18 23  2  0  0  0  0
 18 22  1  0  0  0  0
 20 19  2  0  0  0  0
 21 19  1  0  0  0  0
 22 21  2  0  0  0  0
 23 20  1  0  0  0  0
 24 25  1  0  0  0  0
 25 26  1  0  0  0  0
 25 23  1  0  0  0  0
 27 28  1  0  0  0  0
 28 25  1  0  0  0  0
 29 30  1  0  0  0  0
 30 31  1  0  0  0  0
 32 31  1  6  0  0  0
 32 35  1  0  0  0  0
 33 32  1  0  0  0  0
 34 33  1  0  0  0  0
 35 36  1  0  0  0  0
 36 38  1  0  0  0  0
 38 37  2  0  0  0  0
 38 39  1  0  0  0  0
 41 44  1  0  0  0  0
 41 40  1  0  0  0  0
 42 47  2  0  0  0  0
 42 48  1  0  0  0  0
 43 46  1  0  0  0  0
 44 49  1  0  0  0  0
 45 42  1  0  0  0  0
 46 48  1  0  0  0  0
 46 50  2  0  0  0  0
 47 52  1  0  0  0  0
 48 41  2  0  0  0  0
 51 45  1  0  0  0  0
 51 43  1  0  0  0  0
 52 44  2  0  0  0  0
M  END
>  <MODEL>
4

>  <REMARK>
 VINA RESULT:      -6.1      3.667      9.350
  Name = 
  17 active torsions:
  status: ('A' for Active; 'I' for Inactive)
    1  A    between atoms: C_2  and  N_42
    2  A    between atoms: C_4  and  O_28
    3  A    between atoms: C_4  and  C_48
    4  A    between atoms: C_8  and  C_32
    5  A    between atoms: C_9  and  C_32
    6  A    between atoms: C_9  and  N_39
    7  A    between atoms: C_10  and  N_39
    8  A    between atoms: C_10  and  C_44
    9  A    between atoms: N_12  and  C_33
   10  A    between atoms: C_16  and  C_25
   11  A    between atoms: C_20  and  C_52
   12  A    between atoms: C_23  and  C_31
   13  A    between atoms: C_23  and  C_34
   14  A    between atoms: C_32  and  C_34
   15  A    between atoms: C_33  and  N_37
   16  A    between atoms: N_42  and  C_45
   17  A    between atoms: C_43  and  C_47
                            x       y       z     vdW  Elec       q    Type
                         _______ _______ _______ _____ _____    ______ ____

>  <TORSDO>
F 17

$$$$
=
 OpenBabel11042422163D

 52 56  0  0  1  0  0  0  0  0999 V2000
  160.2160  207.8230  152.5870 O   0  0  0  0  0  0  0  0  0  0  0  0
  160.9390  206.8230  151.9020 C   0  0  0  0  0  2  0  0  0  0  0  0
  161.6320  207.4700  150.7630 C   0  0  0  0  0  0  0  0  0  0  0  0
  160.5420  209.0540  151.9750 C   0  0  2  0  0  3  0  0  0  0  0  0
  161.3990  208.7580  150.8040 C   0  0  0  0  0  0  0  0  0  0  0  0
  162.8160  209.5320  149.0400 O   0  0  0  0  0  0  0  0  0  0  0  0
  161.2910  211.0870  149.8910 N   0  0  0  0  0  2  0  0  0  0  0  0
  161.8800  209.7840  149.8550 C   0  0  0  0  0  0  0  0  0  0  0  0
  161.7330  212.1650  149.0220 C   0  0  0  0  0  2  0  0  0  0  0  0
  159.6750  213.6100  147.6890 O   0  0  0  0  0  0  0  0  0  0  0  0
  161.2780  211.9060  147.6640 N   0  0  0  0  0  2  0  0  0  0  0  0
  160.2200  212.6570  147.0630 C   0  0  0  0  0  0  0  0  0  0  0  0
  160.9890  212.4160  144.7360 C   0  0  0  0  0  2  0  0  0  0  0  0
  159.7970  212.3410  145.6640 C   0  0  2  0  0  3  0  0  0  0  0  0
  158.7420  213.3280  145.1720 C   0  0  0  0  0  2  0  0  0  0  0  0
  158.9900  213.6550  143.3970 S   0  0  0  0  0  0  0  0  0  0  0  0
  160.4310  212.5490  143.3370 C   0  0  1  0  0  3  0  0  0  0  0  0
  162.5710  212.9510  140.1960 C   0  0  0  0  0  3  0  0  0  0  0  0
  162.3950  214.0100  142.7720 C   0  0  0  0  0  3  0  0  0  0  0  0
  161.4680  213.0370  142.3630 C   0  0  0  0  0  0  0  0  0  0  0  0
  163.3950  214.4520  141.9040 C   0  0  0  0  0  3  0  0  0  0  0  0
  163.4860  213.9180  140.6180 C   0  0  0  0  0  3  0  0  0  0  0  0
  161.5430  212.5100  141.0490 C   0  0  0  0  0  0  0  0  0  0  0  0
  159.3560  212.0370  140.2130 F   0  0  0  0  0  0  0  0  0  0  0  0
  160.5660  211.4490  140.5700 C   0  0  0  0  0  0  0  0  0  0  0  0
  160.3170  210.5960  141.6300 F   0  0  0  0  0  0  0  0  0  0  0  0
  161.3830  209.3810  139.9840 C   0  0  0  0  0  1  0  0  0  0  0  0
  161.0880  210.6710  139.5090 O   0  0  0  0  0  0  0  0  0  0  0  0
  162.4750  206.7590  149.7460 C   0  0  0  0  0  2  0  0  0  0  0  0
  161.6610  206.2570  148.6520 N   0  0  0  0  0  2  0  0  0  0  0  0
  162.5340  206.1480  147.4920 C   0  0  0  0  0  2  0  0  0  0  0  0
  161.8060  205.4840  146.3190 C   0  0  2  0  0  3  0  0  0  0  0  0
  160.4010  206.0490  146.1540 C   0  0  0  0  0  2  0  0  0  0  0  0
  160.2870  206.6740  144.9230 F   0  0  0  0  0  0  0  0  0  0  0  0
  161.7520  203.9660  146.4670 C   0  0  0  0  0  2  0  0  0  0  0  0
  160.9830  203.3210  145.3220 C   0  0  0  0  0  2  0  0  0  0  0  0
  159.9180  201.1420  144.7450 O   0  0  0  0  0  0  0  0  0  0  0  0
  160.5710  201.9350  145.6780 C   0  0  0  0  0  0  0  0  0  0  0  0
  160.8340  201.4750  146.8220 O   0  0  0  0  0  1  0  0  0  0  0  0
  161.2700  209.8920  152.9200 N   0  0  0  0  0  2  0  0  0  0  0  0
  160.8790  210.2110  154.2680 C   0  0  0  0  0  0  0  0  0  0  0  0
  159.7290  211.6750  155.8270 C   0  0  0  0  0  0  0  0  0  0  0  0
  159.1240  213.5390  153.8030 O   0  0  0  0  0  0  0  0  0  0  0  0
  161.1980  209.3860  155.3690 C   0  0  0  0  0  0  0  0  0  0  0  0
  158.8620  212.8640  156.1210 C   0  0  0  0  0  2  0  0  0  0  0  0
  159.6920  212.3180  153.4430 C   0  0  0  0  0  0  0  0  0  0  0  0
  160.0690  210.8380  156.8350 N   0  0  0  0  0  0  0  0  0  0  0  0
  160.1160  211.3710  154.5110 C   0  0  0  0  0  0  0  0  0  0  0  0
  161.9690  208.1970  155.2200 N   0  0  0  0  0  1  0  0  0  0  0  0
  159.8030  212.0290  152.2240 O   0  0  0  0  0  0  0  0  0  0  0  0
  159.1730  214.0030  155.1530 C   0  0  0  0  0  2  0  0  0  0  0  0
  160.7810  209.7360  156.6140 N   0  0  0  0  0  0  0  0  0  0  0  0
  2  1  1  0  0  0  0
  3  5  2  0  0  0  0
  3  2  1  0  0  0  0
  4  1  1  0  0  0  0
  4 40  1  1  0  0  0
  5  4  1  0  0  0  0
  6  8  2  0  0  0  0
  8  7  1  0  0  0  0
  8  5  1  0  0  0  0
  9  7  1  0  0  0  0
 11  9  1  0  0  0  0
 12 11  1  0  0  0  0
 12 10  2  0  0  0  0
 13 14  1  0  0  0  0
 14 12  1  1  0  0  0
 15 14  1  0  0  0  0
 16 15  1  0  0  0  0
 17 20  1  6  0  0  0
 17 16  1  0  0  0  0
 17 13  1  0  0  0  0
 18 22  2  0  0  0  0
 18 23  1  0  0  0  0
 20 19  1  0  0  0  0
 21 19  2  0  0  0  0
 22 21  1  0  0  0  0
 23 20  2  0  0  0  0
 24 25  1  0  0  0  0
 25 23  1  0  0  0  0
 25 26  1  0  0  0  0
 28 27  1  0  0  0  0
 28 25  1  0  0  0  0
 29  3  1  0  0  0  0
 30 29  1  0  0  0  0
 31 30  1  0  0  0  0
 32 33  1  1  0  0  0
 32 35  1  0  0  0  0
 32 31  1  0  0  0  0
 34 33  1  0  0  0  0
 36 38  1  0  0  0  0
 36 35  1  0  0  0  0
 37 38  2  0  0  0  0
 38 39  1  0  0  0  0
 40 41  1  0  0  0  0
 41 48  2  0  0  0  0
 41 44  1  0  0  0  0
 42 45  1  0  0  0  0
 42 47  2  0  0  0  0
 43 51  1  0  0  0  0
 44 52  2  0  0  0  0
 46 43  1  0  0  0  0
 46 48  1  0  0  0  0
 48 42  1  0  0  0  0
 49 44  1  0  0  0  0
 50 46  2  0  0  0  0
 51 45  1  0  0  0  0
 52 47  1  0  0  0  0
M  END
>  <MODEL>
5

>  <REMARK>
 VINA RESULT:      -5.9      4.202     10.630
  Name = 
  17 active torsions:
  status: ('A' for Active; 'I' for Inactive)
    1  A    between atoms: C_2  and  N_42
    2  A    between atoms: C_4  and  O_28
    3  A    between atoms: C_4  and  C_48
    4  A    between atoms: C_8  and  C_32
    5  A    between atoms: C_9  and  C_32
    6  A    between atoms: C_9  and  N_39
    7  A    between atoms: C_10  and  N_39
    8  A    between atoms: C_10  and  C_44
    9  A    between atoms: N_12  and  C_33
   10  A    between atoms: C_16  and  C_25
   11  A    between atoms: C_20  and  C_52
   12  A    between atoms: C_23  and  C_31
   13  A    between atoms: C_23  and  C_34
   14  A    between atoms: C_32  and  C_34
   15  A    between atoms: C_33  and  N_37
   16  A    between atoms: N_42  and  C_45
   17  A    between atoms: C_43  and  C_47
                            x       y       z     vdW  Elec       q    Type
                         _______ _______ _______ _____ _____    ______ ____

>  <TORSDO>
F 17

$$$$
=
 OpenBabel11042422163D

 52 56  0  0  1  0  0  0  0  0999 V2000
  157.6830  213.9090  146.2550 O   0  0  0  0  0  0  0  0  0  0  0  0
  157.1950  214.3070  147.5180 C   0  0  0  0  0  2  0  0  0  0  0  0
  158.2210  213.9560  148.5270 C   0  0  0  0  0  0  0  0  0  0  0  0
  159.0020  213.4440  146.4540 C   0  0  2  0  0  3  0  0  0  0  0  0
  159.2630  213.4540  147.9120 C   0  0  0  0  0  0  0  0  0  0  0  0
  161.2260  213.7070  149.2520 O   0  0  0  0  0  0  0  0  0  0  0  0
  160.9200  211.6100  148.2660 N   0  0  0  0  0  2  0  0  0  0  0  0
  160.5110  212.9550  148.5280 C   0  0  0  0  0  0  0  0  0  0  0  0
  162.1520  211.0540  148.7980 C   0  0  0  0  0  2  0  0  0  0  0  0
  163.3500  208.6550  147.8460 O   0  0  0  0  0  0  0  0  0  0  0  0
  161.8920  209.7250  149.3300 N   0  0  0  0  0  2  0  0  0  0  0  0
  162.5120  208.5560  148.7870 C   0  0  0  0  0  0  0  0  0  0  0  0
  162.3450  206.1450  148.3200 C   0  0  0  0  0  2  0  0  0  0  0  0
  162.2010  207.2180  149.3760 C   0  0  2  0  0  3  0  0  0  0  0  0
  160.7740  207.1720  149.9160 C   0  0  0  0  0  2  0  0  0  0  0  0
  160.0680  205.5160  149.6400 S   0  0  0  0  0  0  0  0  0  0  0  0
  161.5920  204.9390  148.8330 C   0  0  1  0  0  3  0  0  0  0  0  0
  160.7910  201.6960  146.9760 C   0  0  0  0  0  3  0  0  0  0  0  0
  161.3710  204.3630  146.3970 C   0  0  0  0  0  3  0  0  0  0  0  0
  161.3020  203.9480  147.7380 C   0  0  0  0  0  0  0  0  0  0  0  0
  161.1500  203.4580  145.3590 C   0  0  0  0  0  3  0  0  0  0  0  0
  160.8650  202.1230  145.6490 C   0  0  0  0  0  3  0  0  0  0  0  0
  160.9900  202.5990  148.0360 C   0  0  0  0  0  0  0  0  0  0  0  0
  161.7280  200.9910  149.6410 F   0  0  0  0  0  0  0  0  0  0  0  0
  160.9140  202.1080  149.4730 C   0  0  0  0  0  0  0  0  0  0  0  0
  159.6110  201.7150  149.7160 F   0  0  0  0  0  0  0  0  0  0  0  0
  161.5360  202.5250  151.6470 C   0  0  0  0  0  1  0  0  0  0  0  0
  161.2370  203.1190  150.4090 O   0  0  0  0  0  0  0  0  0  0  0  0
  158.0870  214.1620  150.0070 C   0  0  0  0  0  2  0  0  0  0  0  0
  157.4250  213.0310  150.6340 N   0  0  0  0  0  2  0  0  0  0  0  0
  158.4200  212.3690  151.4660 C   0  0  0  0  0  2  0  0  0  0  0  0
  158.6910  213.1750  152.7400 C   0  0  2  0  0  3  0  0  0  0  0  0
  160.0950  212.9090  153.2700 C   0  0  0  0  0  2  0  0  0  0  0  0
  160.7460  212.0050  152.4470 F   0  0  0  0  0  0  0  0  0  0  0  0
  157.6540  212.8940  153.8240 C   0  0  0  0  0  2  0  0  0  0  0  0
  157.4220  211.4000  154.0010 C   0  0  0  0  0  2  0  0  0  0  0  0
  155.1940  210.5280  154.7010 O   0  0  0  0  0  0  0  0  0  0  0  0
  156.3890  211.1460  155.0430 C   0  0  0  0  0  0  0  0  0  0  0  0
  156.6090  211.4740  156.2390 O   0  0  0  0  0  1  0  0  0  0  0  0
  159.9400  214.3300  145.7780 N   0  0  0  0  0  2  0  0  0  0  0  0
  161.0160  213.9430  144.9050 C   0  0  0  0  0  0  0  0  0  0  0  0
  161.7880  213.2500  142.7090 C   0  0  0  0  0  0  0  0  0  0  0  0
  159.1580  213.1030  141.7070 O   0  0  0  0  0  0  0  0  0  0  0  0
  162.3640  213.9060  145.3250 C   0  0  0  0  0  0  0  0  0  0  0  0
  161.5400  212.9620  141.2560 C   0  0  0  0  0  2  0  0  0  0  0  0
  159.3650  213.6380  142.9790 C   0  0  0  0  0  0  0  0  0  0  0  0
  163.0570  213.2370  143.1790 N   0  0  0  0  0  0  0  0  0  0  0  0
  160.7340  213.6190  143.5610 C   0  0  0  0  0  0  0  0  0  0  0  0
  162.7420  214.2110  146.6630 N   0  0  0  0  0  1  0  0  0  0  0  0
  158.3940  214.1530  143.5920 O   0  0  0  0  0  0  0  0  0  0  0  0
  160.1670  212.3220  141.0670 C   0  0  0  0  0  2  0  0  0  0  0  0
  163.3330  213.5490  144.4420 N   0  0  0  0  0  0  0  0  0  0  0  0
  1  4  1  0  0  0  0
  1  2  1  0  0  0  0
  2  3  1  0  0  0  0
  3 29  1  0  0  0  0
  4 40  1  6  0  0  0
  4  5  1  0  0  0  0
  5  3  2  0  0  0  0
  5  8  1  0  0  0  0
  7  8  1  0  0  0  0
  7  9  1  0  0  0  0
  8  6  2  0  0  0  0
  9 11  1  0  0  0  0
 10 12  2  0  0  0  0
 12 11  1  0  0  0  0
 13 17  1  0  0  0  0
 13 14  1  0  0  0  0
 14 12  1  6  0  0  0
 14 15  1  0  0  0  0
 16 15  1  0  0  0  0
 17 20  1  6  0  0  0
 17 16  1  0  0  0  0
 18 23  1  0  0  0  0
 19 20  1  0  0  0  0
 20 23  2  0  0  0  0
 21 22  1  0  0  0  0
 21 19  2  0  0  0  0
 22 18  2  0  0  0  0
 23 25  1  0  0  0  0
 25 24  1  0  0  0  0
 25 26  1  0  0  0  0
 25 28  1  0  0  0  0
 28 27  1  0  0  0  0
 29 30  1  0  0  0  0
 30 31  1  0  0  0  0
 32 31  1  6  0  0  0
 32 33  1  0  0  0  0
 32 35  1  0  0  0  0
 34 33  1  0  0  0  0
 35 36  1  0  0  0  0
 36 38  1  0  0  0  0
 37 38  2  0  0  0  0
 38 39  1  0  0  0  0
 41 44  1  0  0  0  0
 41 40  1  0  0  0  0
 42 47  2  0  0  0  0
 42 48  1  0  0  0  0
 43 46  1  0  0  0  0
 44 49  1  0  0  0  0
 45 42  1  0  0  0  0
 46 48  1  0  0  0  0
 46 50  2  0  0  0  0
 47 52  1  0  0  0  0
 48 41  2  0  0  0  0
 51 45  1  0  0  0  0
 51 43  1  0  0  0  0
 52 44  2  0  0  0  0
M  END
>  <MODEL>
6

>  <REMARK>
 VINA RESULT:      -5.0      3.813     10.001
  Name = 
  17 active torsions:
  status: ('A' for Active; 'I' for Inactive)
    1  A    between atoms: C_2  and  N_42
    2  A    between atoms: C_4  and  O_28
    3  A    between atoms: C_4  and  C_48
    4  A    between atoms: C_8  and  C_32
    5  A    between atoms: C_9  and  C_32
    6  A    between atoms: C_9  and  N_39
    7  A    between atoms: C_10  and  N_39
    8  A    between atoms: C_10  and  C_44
    9  A    between atoms: N_12  and  C_33
   10  A    between atoms: C_16  and  C_25
   11  A    between atoms: C_20  and  C_52
   12  A    between atoms: C_23  and  C_31
   13  A    between atoms: C_23  and  C_34
   14  A    between atoms: C_32  and  C_34
   15  A    between atoms: C_33  and  N_37
   16  A    between atoms: N_42  and  C_45
   17  A    between atoms: C_43  and  C_47
                            x       y       z     vdW  Elec       q    Type
                         _______ _______ _______ _____ _____    ______ ____

>  <TORSDO>
F 17

$$$$
=
 OpenBabel11042422163D

 52 56  0  0  1  0  0  0  0  0999 V2000
  157.2440  214.1670  151.5950 O   0  0  0  0  0  0  0  0  0  0  0  0
  157.0380  214.1250  150.1990 C   0  0  0  0  0  2  0  0  0  0  0  0
  158.2780  213.6060  149.5770 C   0  0  0  0  0  0  0  0  0  0  0  0
  158.5090  213.5860  151.8390 C   0  0  2  0  0  3  0  0  0  0  0  0
  159.1290  213.2990  150.5250 C   0  0  0  0  0  0  0  0  0  0  0  0
  161.4230  213.0800  151.1610 O   0  0  0  0  0  0  0  0  0  0  0  0
  160.7690  211.9000  149.2510 N   0  0  0  0  0  2  0  0  0  0  0  0
  160.4970  212.7630  150.3590 C   0  0  0  0  0  0  0  0  0  0  0  0
  162.0940  211.3630  148.9910 C   0  0  0  0  0  2  0  0  0  0  0  0
  162.6180  209.6780  151.2230 O   0  0  0  0  0  0  0  0  0  0  0  0
  162.0300  209.9100  148.9710 N   0  0  0  0  0  2  0  0  0  0  0  0
  162.3300  209.1220  150.1260 C   0  0  0  0  0  0  0  0  0  0  0  0
  162.2650  207.1970  148.5920 C   0  0  0  0  0  2  0  0  0  0  0  0
  162.2490  207.6310  150.0400 C   0  0  2  0  0  3  0  0  0  0  0  0
  160.9670  207.1120  150.6840 C   0  0  0  0  0  2  0  0  0  0  0  0
  160.3530  205.6730  149.7510 S   0  0  0  0  0  0  0  0  0  0  0  0
  161.7260  205.7850  148.5650 C   0  0  1  0  0  3  0  0  0  0  0  0
  160.8390  203.6630  145.5120 C   0  0  0  0  0  3  0  0  0  0  0  0
  161.0620  206.3560  146.2100 C   0  0  0  0  0  3  0  0  0  0  0  0
  161.3040  205.3700  147.1820 C   0  0  0  0  0  0  0  0  0  0  0  0
  160.7090  206.0020  144.9080 C   0  0  0  0  0  3  0  0  0  0  0  0
  160.6040  204.6540  144.5580 C   0  0  0  0  0  3  0  0  0  0  0  0
  161.1730  204.0020  146.8360 C   0  0  0  0  0  0  0  0  0  0  0  0
  162.6950  203.0690  148.4240 F   0  0  0  0  0  0  0  0  0  0  0  0
  161.4350  202.9050  147.8550 C   0  0  0  0  0  0  0  0  0  0  0  0
  161.4360  201.6960  147.1830 F   0  0  0  0  0  0  0  0  0  0  0  0
  160.3210  201.5150  149.3100 C   0  0  0  0  0  1  0  0  0  0  0  0
  160.4310  202.8390  148.8510 O   0  0  0  0  0  0  0  0  0  0  0  0
  158.5070  213.4460  148.1030 C   0  0  0  0  0  2  0  0  0  0  0  0
  157.5020  214.1650  147.3370 N   0  0  0  0  0  2  0  0  0  0  0  0
  158.0010  214.2620  145.9730 C   0  0  0  0  0  2  0  0  0  0  0  0
  159.1840  213.3130  145.7550 C   0  0  2  0  0  3  0  0  0  0  0  0
  160.5110  214.0450  145.9130 C   0  0  0  0  0  2  0  0  0  0  0  0
  160.7080  214.3830  147.2410 F   0  0  0  0  0  0  0  0  0  0  0  0
  159.1180  212.6240  144.3950 C   0  0  0  0  0  2  0  0  0  0  0  0
  160.4830  212.1030  143.9660 C   0  0  0  0  0  2  0  0  0  0  0  0
  161.8330  212.0290  141.8720 O   0  0  0  0  0  1  0  0  0  0  0  0
  160.5870  212.0530  142.4820 C   0  0  0  0  0  0  0  0  0  0  0  0
  159.5410  212.0110  141.7800 O   0  0  0  0  0  0  0  0  0  0  0  0
  158.3420  212.3470  152.5870 N   0  0  0  0  0  2  0  0  0  0  0  0
  158.4510  212.1800  154.0120 C   0  0  0  0  0  0  0  0  0  0  0  0
  159.3010  210.9390  155.9180 C   0  0  0  0  0  0  0  0  0  0  0  0
  160.3930  208.9320  154.2680 O   0  0  0  0  0  0  0  0  0  0  0  0
  157.8760  213.0830  154.9320 C   0  0  0  0  0  0  0  0  0  0  0  0
  160.1330  209.8350  156.5070 C   0  0  0  0  0  2  0  0  0  0  0  0
  159.8670  210.0790  153.6740 C   0  0  0  0  0  0  0  0  0  0  0  0
  158.7240  211.8440  156.7430 N   0  0  0  0  0  0  0  0  0  0  0  0
  159.1900  211.0940  154.5270 C   0  0  0  0  0  0  0  0  0  0  0  0
  157.1080  214.2040  154.5050 N   0  0  0  0  0  1  0  0  0  0  0  0
  160.0040  210.2450  152.4340 O   0  0  0  0  0  0  0  0  0  0  0  0
  160.0770  208.5950  155.6190 C   0  0  0  0  0  2  0  0  0  0  0  0
  158.0330  212.8760  156.2660 N   0  0  0  0  0  0  0  0  0  0  0  0
  1  4  1  0  0  0  0
  2  1  1  0  0  0  0
  3  2  1  0  0  0  0
  3  5  2  0  0  0  0
  4 40  1  1  0  0  0
  5  4  1  0  0  0  0
  7  8  1  0  0  0  0
  8  5  1  0  0  0  0
  8  6  2  0  0  0  0
  9  7  1  0  0  0  0
 11  9  1  0  0  0  0
 11 12  1  0  0  0  0
 12 10  2  0  0  0  0
 13 14  1  0  0  0  0
 14 12  1  6  0  0  0
 14 15  1  0  0  0  0
 16 15  1  0  0  0  0
 17 20  1  6  0  0  0
 17 13  1  0  0  0  0
 17 16  1  0  0  0  0
 18 23  1  0  0  0  0
 19 20  1  0  0  0  0
 21 19  2  0  0  0  0
 22 21  1  0  0  0  0
 22 18  2  0  0  0  0
 23 20  2  0  0  0  0
 23 25  1  0  0  0  0
 25 24  1  0  0  0  0
 25 28  1  0  0  0  0
 26 25  1  0  0  0  0
 28 27  1  0  0  0  0
 29  3  1  0  0  0  0
 30 29  1  0  0  0  0
 31 30  1  0  0  0  0
 32 35  1  6  0  0  0
 32 33  1  0  0  0  0
 32 31  1  0  0  0  0
 33 34  1  0  0  0  0
 36 35  1  0  0  0  0
 37 38  1  0  0  0  0
 38 36  1  0  0  0  0
 39 38  2  0  0  0  0
 40 41  1  0  0  0  0
 41 48  2  0  0  0  0
 41 44  1  0  0  0  0
 42 45  1  0  0  0  0
 42 47  2  0  0  0  0
 43 51  1  0  0  0  0
 44 52  2  0  0  0  0
 46 43  1  0  0  0  0
 46 48  1  0  0  0  0
 48 42  1  0  0  0  0
 49 44  1  0  0  0  0
 50 46  2  0  0  0  0
 51 45  1  0  0  0  0
 52 47  1  0  0  0  0
M  END
>  <MODEL>
7

>  <REMARK>
 VINA RESULT:      -4.8      3.801      9.063
  Name = 
  17 active torsions:
  status: ('A' for Active; 'I' for Inactive)
    1  A    between atoms: C_2  and  N_42
    2  A    between atoms: C_4  and  O_28
    3  A    between atoms: C_4  and  C_48
    4  A    between atoms: C_8  and  C_32
    5  A    between atoms: C_9  and  C_32
    6  A    between atoms: C_9  and  N_39
    7  A    between atoms: C_10  and  N_39
    8  A    between atoms: C_10  and  C_44
    9  A    between atoms: N_12  and  C_33
   10  A    between atoms: C_16  and  C_25
   11  A    between atoms: C_20  and  C_52
   12  A    between atoms: C_23  and  C_31
   13  A    between atoms: C_23  and  C_34
   14  A    between atoms: C_32  and  C_34
   15  A    between atoms: C_33  and  N_37
   16  A    between atoms: N_42  and  C_45
   17  A    between atoms: C_43  and  C_47
                            x       y       z     vdW  Elec       q    Type
                         _______ _______ _______ _____ _____    ______ ____

>  <TORSDO>
F 17

$$$$
