=
 OpenBabel11042421453D

 51 57  0  0  1  0  0  0  0  0999 V2000
  161.8240  213.2340  145.6510 C   0  0  2  0  0  3  0  0  0  0  0  0
  157.7780  214.0430  150.2800 O   0  0  0  0  0  0  0  0  0  0  0  0
  163.5880  214.4530  146.2740 C   0  0  0  0  0  2  0  0  0  0  0  0
  162.9080  213.9890  145.1290 O   0  0  0  0  0  0  0  0  0  0  0  0
  163.7110  213.5260  148.4960 O   0  0  0  0  0  0  0  0  0  0  0  0
  159.7150  213.5300  149.4210 C   0  0  0  0  0  0  0  0  0  0  0  0
  158.4000  213.8210  149.1500 C   0  0  0  0  0  0  0  0  0  0  0  0
  157.7660  213.7890  147.8040 C   0  0  0  0  0  0  0  0  0  0  0  0
  159.8500  211.9620  145.0170 C   0  0  0  0  0  2  0  0  0  0  0  0
  158.6280  213.8590  151.2730 C   0  0  0  0  0  0  0  0  0  0  0  0
  163.3110  213.4610  147.3370 C   0  0  0  0  0  0  0  0  0  0  0  0
  157.8730  213.8210  145.3530 O   0  0  0  0  0  1  0  0  0  0  0  0
  160.0740  211.6380  147.5470 C   0  0  2  0  0  3  0  0  0  0  0  0
  159.8740  213.5070  150.7940 C   0  0  0  0  0  3  0  0  0  0  0  0
  156.6080  214.3020  147.7010 O   0  0  0  0  0  0  0  0  0  0  0  0
  161.4150  211.8110  147.8590 C   0  0  1  0  0  0  0  0  0  0  0  0
  162.3860  212.4550  146.8170 C   0  0  1  0  0  3  0  0  0  0  0  0
  159.4060  212.3610  146.4010 C   0  0  0  0  0  0  0  0  0  0  0  0
  160.4080  212.6820  148.5440 N   0  0  0  0  0  0  0  0  0  0  0  0
  158.3960  213.2850  146.5290 C   0  0  0  0  0  0  0  0  0  0  0  0
  161.2550  212.2960  144.6670 N   0  0  0  0  0  0  0  0  0  0  0  0
  158.4360  212.9320  154.8970 N   0  0  0  0  0  0  0  0  0  0  0  0
  160.0910  212.2910  153.2730 N   0  0  0  0  0  1  0  0  0  0  0  0
  157.2670  213.5290  155.2510 C   0  0  0  0  0  3  0  0  0  0  0  0
  157.0950  214.4500  153.0630 N   0  0  0  0  0  0  0  0  0  0  0  0
  158.9300  213.0380  153.6330 C   0  0  0  0  0  0  0  0  0  0  0  0
  158.2630  213.8520  152.6960 C   0  0  0  0  0  0  0  0  0  0  0  0
  156.5900  214.3160  154.3160 C   0  0  0  0  0  3  0  0  0  0  0  0
  159.7660  213.3820  143.0220 C   0  0  0  0  0  1  0  0  0  0  0  0
  161.1900  212.9380  143.3470 C   0  0  0  0  0  2  0  0  0  0  0  0
  161.9830  210.7500  148.8030 C   0  0  0  0  0  2  0  0  0  0  0  0
  161.7850  209.3600  148.2330 C   0  0  0  0  0  2  0  0  0  0  0  0
  161.6380  208.6170  150.5100 N   0  0  0  0  0  0  0  0  0  0  0  0
  161.2460  208.4570  149.2950 C   0  0  0  0  0  3  0  0  0  0  0  0
  161.1980  207.7020  151.5400 C   0  0  0  0  0  2  0  0  0  0  0  0
  161.6820  206.3140  151.2430 C   0  0  0  0  0  0  0  0  0  0  0  0
  162.8590  205.9960  151.5700 O   0  0  0  0  0  0  0  0  0  0  0  0
  160.8410  205.3480  150.6680 O   0  0  0  0  0  0  0  0  0  0  0  0
  161.3410  204.2530  149.9140 C   0  0  0  0  0  2  0  0  0  0  0  0
  161.0280  204.4650  148.4430 C   0  0  0  0  0  2  0  0  0  0  0  0
  161.8780  205.3550  144.3650 O   0  0  0  0  0  1  0  0  0  0  0  0
  160.5330  203.4960  145.0480 C   0  0  0  0  0  0  0  0  0  0  0  0
  161.8310  203.5660  147.6220 N   0  0  0  0  0  0  0  0  0  0  0  0
  160.8630  202.1920  145.7070 C   0  0  0  0  0  2  0  0  0  0  0  0
  162.3800  204.3320  146.4890 C   0  0  0  0  0  2  0  0  0  0  0  0
  160.9520  202.4460  147.2200 C   0  0  1  0  0  3  0  0  0  0  0  0
  159.5680  203.5800  144.2970 O   0  0  0  0  0  0  0  0  0  0  0  0
  161.2920  204.7210  145.4660 C   0  0  1  0  0  3  0  0  0  0  0  0
  161.6150  200.0190  147.3220 N   0  0  0  0  0  1  0  0  0  0  0  0
  161.1840  201.2270  149.2750 O   0  0  0  0  0  0  0  0  0  0  0  0
  161.2210  201.2060  148.0110 C   0  0  0  0  0  0  0  0  0  0  0  0
  1  4  1  6  0  0  0
  1 17  1  0  0  0  0
  2 10  1  0  0  0  0
  3 11  1  0  0  0  0
  4  3  1  0  0  0  0
  6 14  1  0  0  0  0
  7  6  2  0  0  0  0
  7  2  1  0  0  0  0
  8  7  1  0  0  0  0
  9 18  1  0  0  0  0
 10 27  1  0  0  0  0
 11  5  2  0  0  0  0
 12 20  1  0  0  0  0
 13 18  1  6  0  0  0
 13 16  1  0  0  0  0
 13 19  1  0  0  0  0
 14 10  2  0  0  0  0
 15  8  2  0  0  0  0
 16 19  1  0  0  0  0
 16 31  1  1  0  0  0
 17 11  1  1  0  0  0
 17 16  1  0  0  0  0
 18 20  2  0  0  0  0
 19  6  1  0  0  0  0
 20  8  1  0  0  0  0
 21  9  1  0  0  0  0
 21  1  1  0  0  0  0
 22 24  1  0  0  0  0
 23 26  1  0  0  0  0
 25 28  1  0  0  0  0
 26 22  2  0  0  0  0
 27 25  2  0  0  0  0
 27 26  1  0  0  0  0
 28 24  2  0  0  0  0
 29 30  1  0  0  0  0
 30 21  1  0  0  0  0
 32 31  1  0  0  0  0
 32 34  1  0  0  0  0
 33 35  1  0  0  0  0
 34 33  2  0  0  0  0
 36 35  1  0  0  0  0
 36 37  2  0  0  0  0
 38 36  1  0  0  0  0
 39 38  1  0  0  0  0
 40 39  1  0  0  0  0
 42 48  1  0  0  0  0
 42 44  1  0  0  0  0
 43 40  1  0  0  0  0
 44 46  1  0  0  0  0
 45 43  1  0  0  0  0
 46 43  1  0  0  0  0
 46 51  1  1  0  0  0
 47 42  2  0  0  0  0
 48 41  1  6  0  0  0
 48 45  1  0  0  0  0
 49 51  1  0  0  0  0
 51 50  2  0  0  0  0
M  END
>  <MODEL>
1

>  <REMARK>
 VINA RESULT:      -5.3      0.000      0.000
  Name = 
  12 active torsions:
  status: ('A' for Active; 'I' for Inactive)
    1  A    between atoms: C_3  and  C_7
    2  A    between atoms: C_3  and  C_42
    3  A    between atoms: C_4  and  C_24
    4  A    between atoms: C_4  and  O_33
    5  A    between atoms: C_7  and  C_49
    6  A    between atoms: N_8  and  C_24
    7  A    between atoms: C_14  and  N_15
    8  A    between atoms: C_14  and  C_32
    9  A    between atoms: C_26  and  C_47
   10  A    between atoms: C_29  and  C_38
   11  A    between atoms: C_32  and  O_33
   12  A    between atoms: C_43  and  N_51
                            x       y       z     vdW  Elec       q    Type
                         _______ _______ _______ _____ _____    ______ ____

>  <TORSDO>
F 12

$$$$
=
 OpenBabel11042421453D

 51 57  0  0  1  0  0  0  0  0999 V2000
  160.1130  201.9420  145.6760 C   0  0  2  0  0  3  0  0  0  0  0  0
  160.7950  205.3700  150.7980 O   0  0  0  0  0  0  0  0  0  0  0  0
  158.5780  203.0560  144.4980 C   0  0  0  0  0  2  0  0  0  0  0  0
  159.0690  201.7540  144.7320 O   0  0  0  0  0  0  0  0  0  0  0  0
  159.6770  205.1920  144.6850 O   0  0  0  0  0  0  0  0  0  0  0  0
  160.7330  205.0320  148.6460 C   0  0  0  0  0  0  0  0  0  0  0  0
  160.7400  204.4360  149.8830 C   0  0  0  0  0  0  0  0  0  0  0  0
  160.7820  202.9700  150.1380 C   0  0  0  0  0  0  0  0  0  0  0  0
  161.7490  200.7600  147.0340 C   0  0  0  0  0  2  0  0  0  0  0  0
  160.8720  206.5440  150.1990 C   0  0  0  0  0  0  0  0  0  0  0  0
  159.7140  203.9680  144.7580 C   0  0  0  0  0  0  0  0  0  0  0  0
  160.4670  200.6380  149.4460 O   0  0  0  0  0  1  0  0  0  0  0  0
  162.2740  203.2450  147.3590 C   0  0  2  0  0  3  0  0  0  0  0  0
  160.8610  206.3960  148.8270 C   0  0  0  0  0  3  0  0  0  0  0  0
  160.5550  202.5860  151.3270 O   0  0  0  0  0  0  0  0  0  0  0  0
  161.8180  203.9060  146.2280 C   0  0  1  0  0  0  0  0  0  0  0  0
  160.8520  203.1830  145.2330 C   0  0  1  0  0  3  0  0  0  0  0  0
  161.6170  201.9940  147.8910 C   0  0  0  0  0  0  0  0  0  0  0  0
  161.2910  204.3360  147.5630 N   0  0  0  0  0  0  0  0  0  0  0  0
  160.9820  201.8880  149.1060 C   0  0  0  0  0  0  0  0  0  0  0  0
  161.0520  200.8070  145.7230 N   0  0  0  0  0  0  0  0  0  0  0  0
  162.2220  209.9350  151.0420 N   0  0  0  0  0  0  0  0  0  0  0  0
  162.3100  208.7690  148.9400 N   0  0  0  0  0  1  0  0  0  0  0  0
  161.9290  210.0020  152.3680 C   0  0  0  0  0  3  0  0  0  0  0  0
  160.8260  207.8990  152.2150 N   0  0  0  0  0  0  0  0  0  0  0  0
  161.8710  208.8530  150.2950 C   0  0  0  0  0  0  0  0  0  0  0  0
  161.1170  207.8190  150.8870 C   0  0  0  0  0  0  0  0  0  0  0  0
  161.2030  208.9670  152.9630 C   0  0  0  0  0  3  0  0  0  0  0  0
  161.2470  198.3770  145.3250 C   0  0  0  0  0  1  0  0  0  0  0  0
  160.3090  199.5420  145.6270 C   0  0  0  0  0  2  0  0  0  0  0  0
  162.8030  204.9240  145.6530 C   0  0  0  0  0  2  0  0  0  0  0  0
  162.0970  205.8910  144.7230 C   0  0  0  0  0  2  0  0  0  0  0  0
  161.9160  206.2000  142.3500 N   0  0  0  0  0  0  0  0  0  0  0  0
  162.5760  205.6780  143.3240 C   0  0  0  0  0  3  0  0  0  0  0  0
  162.3110  205.9360  140.9830 C   0  0  0  0  0  2  0  0  0  0  0  0
  162.0140  207.1240  140.1180 C   0  0  0  0  0  0  0  0  0  0  0  0
  161.8340  206.9470  138.8810 O   0  0  0  0  0  0  0  0  0  0  0  0
  161.8710  208.4120  140.6580 O   0  0  0  0  0  0  0  0  0  0  0  0
  161.3980  209.5120  139.8930 C   0  0  0  0  0  2  0  0  0  0  0  0
  162.4830  210.5690  139.8010 C   0  0  0  0  0  2  0  0  0  0  0  0
  163.3290  213.6770  137.0130 O   0  0  0  0  0  1  0  0  0  0  0  0
  164.0240  213.7460  139.3030 C   0  0  0  0  0  0  0  0  0  0  0  0
  161.9040  211.9000  139.9490 N   0  0  0  0  0  0  0  0  0  0  0  0
  163.2760  213.9510  140.5850 C   0  0  0  0  0  2  0  0  0  0  0  0
  161.9330  212.5720  138.6380 C   0  0  0  0  0  2  0  0  0  0  0  0
  162.6830  212.5950  140.9980 C   0  0  1  0  0  3  0  0  0  0  0  0
  165.1970  214.0900  139.2120 O   0  0  0  0  0  0  0  0  0  0  0  0
  163.3660  212.9550  138.2100 C   0  0  1  0  0  3  0  0  0  0  0  0
  160.5250  212.6390  142.2950 N   0  0  0  0  0  1  0  0  0  0  0  0
  162.5850  212.6030  143.3970 O   0  0  0  0  0  0  0  0  0  0  0  0
  161.9530  212.6440  142.3030 C   0  0  0  0  0  0  0  0  0  0  0  0
  1  4  1  6  0  0  0
  1 21  1  0  0  0  0
  3  4  1  0  0  0  0
  3 11  1  0  0  0  0
  5 11  2  0  0  0  0
  6 14  1  0  0  0  0
  6  7  2  0  0  0  0
  7  8  1  0  0  0  0
  7  2  1  0  0  0  0
  8 15  2  0  0  0  0
  9 18  1  0  0  0  0
 10  2  1  0  0  0  0
 10 27  1  0  0  0  0
 13 19  1  0  0  0  0
 13 18  1  6  0  0  0
 14 10  2  0  0  0  0
 16 31  1  6  0  0  0
 16 13  1  0  0  0  0
 16 19  1  0  0  0  0
 17 11  1  1  0  0  0
 17  1  1  0  0  0  0
 17 16  1  0  0  0  0
 18 20  2  0  0  0  0
 19  6  1  0  0  0  0
 20 12  1  0  0  0  0
 20  8  1  0  0  0  0
 21  9  1  0  0  0  0
 22 24  1  0  0  0  0
 23 26  1  0  0  0  0
 24 28  2  0  0  0  0
 25 28  1  0  0  0  0
 26 27  1  0  0  0  0
 26 22  2  0  0  0  0
 27 25  2  0  0  0  0
 29 30  1  0  0  0  0
 30 21  1  0  0  0  0
 32 31  1  0  0  0  0
 33 34  2  0  0  0  0
 34 32  1  0  0  0  0
 35 33  1  0  0  0  0
 36 38  1  0  0  0  0
 36 35  1  0  0  0  0
 37 36  2  0  0  0  0
 39 38  1  0  0  0  0
 40 39  1  0  0  0  0
 40 43  1  0  0  0  0
 42 44  1  0  0  0  0
 43 46  1  0  0  0  0
 44 46  1  0  0  0  0
 45 43  1  0  0  0  0
 46 51  1  1  0  0  0
 47 42  2  0  0  0  0
 48 41  1  6  0  0  0
 48 45  1  0  0  0  0
 48 42  1  0  0  0  0
 49 51  1  0  0  0  0
 51 50  2  0  0  0  0
M  END
>  <MODEL>
2

>  <REMARK>
 VINA RESULT:      -3.9      4.070     10.555
  Name = 
  12 active torsions:
  status: ('A' for Active; 'I' for Inactive)
    1  A    between atoms: C_3  and  C_7
    2  A    between atoms: C_3  and  C_42
    3  A    between atoms: C_4  and  C_24
    4  A    between atoms: C_4  and  O_33
    5  A    between atoms: C_7  and  C_49
    6  A    between atoms: N_8  and  C_24
    7  A    between atoms: C_14  and  N_15
    8  A    between atoms: C_14  and  C_32
    9  A    between atoms: C_26  and  C_47
   10  A    between atoms: C_29  and  C_38
   11  A    between atoms: C_32  and  O_33
   12  A    between atoms: C_43  and  N_51
                            x       y       z     vdW  Elec       q    Type
                         _______ _______ _______ _____ _____    ______ ____

>  <TORSDO>
F 12

$$$$
=
 OpenBabel11042421453D

 51 57  0  0  1  0  0  0  0  0999 V2000
  160.1520  202.0860  145.7560 C   0  0  2  0  0  3  0  0  0  0  0  0
  160.7160  205.4710  150.9210 O   0  0  0  0  0  0  0  0  0  0  0  0
  158.6600  203.2200  144.5430 C   0  0  0  0  0  2  0  0  0  0  0  0
  159.1330  201.9130  144.7820 O   0  0  0  0  0  0  0  0  0  0  0  0
  159.7700  205.3460  144.7780 O   0  0  0  0  0  0  0  0  0  0  0  0
  160.7120  205.1490  148.7660 C   0  0  0  0  0  0  0  0  0  0  0  0
  160.6800  204.5440  149.9980 C   0  0  0  0  0  0  0  0  0  0  0  0
  160.7030  203.0760  150.2430 C   0  0  0  0  0  0  0  0  0  0  0  0
  161.7400  200.8810  147.1510 C   0  0  0  0  0  2  0  0  0  0  0  0
  160.8190  206.6480  150.3330 C   0  0  0  0  0  0  0  0  0  0  0  0
  159.7950  204.1210  144.8430 C   0  0  0  0  0  0  0  0  0  0  0  0
  160.3880  200.7510  149.5250 O   0  0  0  0  0  1  0  0  0  0  0  0
  162.2750  203.3590  147.5100 C   0  0  2  0  0  3  0  0  0  0  0  0
  160.8460  206.5100  148.9600 C   0  0  0  0  0  3  0  0  0  0  0  0
  160.4390  202.6850  151.4230 O   0  0  0  0  0  0  0  0  0  0  0  0
  161.8560  204.0320  146.3710 C   0  0  1  0  0  0  0  0  0  0  0  0
  160.9130  203.3240  145.3440 C   0  0  1  0  0  3  0  0  0  0  0  0
  161.5930  202.1090  148.0140 C   0  0  0  0  0  0  0  0  0  0  0  0
  161.2950  204.4560  147.6940 N   0  0  0  0  0  0  0  0  0  0  0  0
  160.9230  201.9990  149.2090 C   0  0  0  0  0  0  0  0  0  0  0  0
  161.0800  200.9420  145.8220 N   0  0  0  0  0  0  0  0  0  0  0  0
  162.1370  210.0420  151.2150 N   0  0  0  0  0  0  0  0  0  0  0  0
  162.2230  208.9070  149.0960 N   0  0  0  0  0  1  0  0  0  0  0  0
  161.8530  210.0870  152.5440 C   0  0  0  0  0  3  0  0  0  0  0  0
  160.7720  207.9750  152.3680 N   0  0  0  0  0  0  0  0  0  0  0  0
  161.7930  208.9660  150.4550 C   0  0  0  0  0  0  0  0  0  0  0  0
  161.0550  207.9170  151.0370 C   0  0  0  0  0  0  0  0  0  0  0  0
  161.1430  209.0360  153.1290 C   0  0  0  0  0  3  0  0  0  0  0  0
  161.2650  198.5160  145.3960 C   0  0  0  0  0  1  0  0  0  0  0  0
  160.3300  199.6850  145.6950 C   0  0  0  0  0  2  0  0  0  0  0  0
  162.8650  205.0450  145.8320 C   0  0  0  0  0  2  0  0  0  0  0  0
  163.0680  204.8620  144.3400 C   0  0  0  0  0  2  0  0  0  0  0  0
  162.2390  205.8430  142.3130 N   0  0  0  0  0  0  0  0  0  0  0  0
  162.2680  205.8830  143.5990 C   0  0  0  0  0  3  0  0  0  0  0  0
  161.5430  206.8710  141.5710 C   0  0  0  0  0  2  0  0  0  0  0  0
  162.0810  206.9560  140.1730 C   0  0  0  0  0  0  0  0  0  0  0  0
  163.0920  206.2650  139.8660 O   0  0  0  0  0  0  0  0  0  0  0  0
  161.4530  207.7350  139.1890 O   0  0  0  0  0  0  0  0  0  0  0  0
  161.8800  209.0530  138.8710 C   0  0  0  0  0  2  0  0  0  0  0  0
  161.9130  209.8940  140.1350 C   0  0  0  0  0  2  0  0  0  0  0  0
  162.8580  213.2570  142.5720 O   0  0  0  0  0  1  0  0  0  0  0  0
  160.6760  212.2740  142.4830 C   0  0  0  0  0  0  0  0  0  0  0  0
  161.3210  211.2020  139.8840 N   0  0  0  0  0  0  0  0  0  0  0  0
  159.6060  212.2740  141.4350 C   0  0  0  0  0  2  0  0  0  0  0  0
  162.1780  212.2310  140.5000 C   0  0  0  0  0  2  0  0  0  0  0  0
  159.9450  211.1650  140.4270 C   0  0  1  0  0  3  0  0  0  0  0  0
  160.3780  212.1870  143.6690 O   0  0  0  0  0  0  0  0  0  0  0  0
  162.1090  212.2010  142.0420 C   0  0  1  0  0  3  0  0  0  0  0  0
  158.5630  212.1560  138.5700 N   0  0  0  0  0  1  0  0  0  0  0  0
  158.4340  209.8790  139.0750 O   0  0  0  0  0  0  0  0  0  0  0  0
  158.9180  211.0140  139.3500 C   0  0  0  0  0  0  0  0  0  0  0  0
  1  4  1  6  0  0  0
  1 21  1  0  0  0  0
  3  4  1  0  0  0  0
  3 11  1  0  0  0  0
  5 11  2  0  0  0  0
  6 14  1  0  0  0  0
  6  7  2  0  0  0  0
  7  8  1  0  0  0  0
  7  2  1  0  0  0  0
  8 15  2  0  0  0  0
  9 18  1  0  0  0  0
 10  2  1  0  0  0  0
 10 27  1  0  0  0  0
 13 19  1  0  0  0  0
 13 18  1  6  0  0  0
 14 10  2  0  0  0  0
 16 31  1  6  0  0  0
 16 13  1  0  0  0  0
 16 19  1  0  0  0  0
 17 11  1  1  0  0  0
 17  1  1  0  0  0  0
 17 16  1  0  0  0  0
 18 20  2  0  0  0  0
 19  6  1  0  0  0  0
 20 12  1  0  0  0  0
 20  8  1  0  0  0  0
 21  9  1  0  0  0  0
 22 24  1  0  0  0  0
 23 26  1  0  0  0  0
 24 28  2  0  0  0  0
 25 28  1  0  0  0  0
 26 27  1  0  0  0  0
 26 22  2  0  0  0  0
 27 25  2  0  0  0  0
 29 30  1  0  0  0  0
 30 21  1  0  0  0  0
 32 31  1  0  0  0  0
 33 34  2  0  0  0  0
 34 32  1  0  0  0  0
 35 33  1  0  0  0  0
 36 35  1  0  0  0  0
 37 36  2  0  0  0  0
 38 36  1  0  0  0  0
 39 38  1  0  0  0  0
 39 40  1  0  0  0  0
 42 47  2  0  0  0  0
 43 40  1  0  0  0  0
 43 46  1  0  0  0  0
 43 45  1  0  0  0  0
 44 42  1  0  0  0  0
 45 48  1  0  0  0  0
 46 51  1  6  0  0  0
 46 44  1  0  0  0  0
 48 42  1  0  0  0  0
 48 41  1  1  0  0  0
 49 51  1  0  0  0  0
 50 51  2  0  0  0  0
M  END
>  <MODEL>
3

>  <REMARK>
 VINA RESULT:      -3.9      3.909     10.185
  Name = 
  12 active torsions:
  status: ('A' for Active; 'I' for Inactive)
    1  A    between atoms: C_3  and  C_7
    2  A    between atoms: C_3  and  C_42
    3  A    between atoms: C_4  and  C_24
    4  A    between atoms: C_4  and  O_33
    5  A    between atoms: C_7  and  C_49
    6  A    between atoms: N_8  and  C_24
    7  A    between atoms: C_14  and  N_15
    8  A    between atoms: C_14  and  C_32
    9  A    between atoms: C_26  and  C_47
   10  A    between atoms: C_29  and  C_38
   11  A    between atoms: C_32  and  O_33
   12  A    between atoms: C_43  and  N_51
                            x       y       z     vdW  Elec       q    Type
                         _______ _______ _______ _____ _____    ______ ____

>  <TORSDO>
F 12

$$$$
=
 OpenBabel11042421453D

 51 57  0  0  1  0  0  0  0  0999 V2000
  160.1150  202.7730  145.5230 C   0  0  2  0  0  3  0  0  0  0  0  0
  160.5060  204.8550  151.3510 O   0  0  0  0  0  0  0  0  0  0  0  0
  158.7690  204.2500  144.5250 C   0  0  0  0  0  2  0  0  0  0  0  0
  159.1560  202.8940  144.4820 O   0  0  0  0  0  0  0  0  0  0  0  0
  159.9720  206.1890  145.3020 O   0  0  0  0  0  0  0  0  0  0  0  0
  160.6310  205.0310  149.1820 C   0  0  0  0  0  0  0  0  0  0  0  0
  160.4840  204.1650  150.2380 C   0  0  0  0  0  0  0  0  0  0  0  0
  160.4130  202.6820  150.1400 C   0  0  0  0  0  0  0  0  0  0  0  0
  161.5380  201.1800  146.6860 C   0  0  0  0  0  2  0  0  0  0  0  0
  160.7110  206.1250  151.0560 C   0  0  0  0  0  0  0  0  0  0  0  0
  159.9280  204.9820  145.0840 C   0  0  0  0  0  0  0  0  0  0  0  0
  160.0250  200.6060  148.8900 O   0  0  0  0  0  1  0  0  0  0  0  0
  162.1780  203.4710  147.6330 C   0  0  2  0  0  3  0  0  0  0  0  0
  160.8240  206.3000  149.6910 C   0  0  0  0  0  3  0  0  0  0  0  0
  160.0490  202.0530  151.1820 O   0  0  0  0  0  0  0  0  0  0  0  0
  161.8730  204.4110  146.6590 C   0  0  1  0  0  0  0  0  0  0  0  0
  160.9660  204.0190  145.4480 C   0  0  1  0  0  3  0  0  0  0  0  0
  161.3990  202.1880  147.7990 C   0  0  0  0  0  0  0  0  0  0  0  0
  161.2480  204.5610  148.0120 N   0  0  0  0  0  0  0  0  0  0  0  0
  160.6450  201.8560  148.8990 C   0  0  0  0  0  0  0  0  0  0  0  0
  160.9740  201.5850  145.3720 N   0  0  0  0  0  0  0  0  0  0  0  0
  161.1600  207.9260  154.3090 N   0  0  0  0  0  0  0  0  0  0  0  0
  161.1660  205.5560  153.8960 N   0  0  0  0  0  1  0  0  0  0  0  0
  160.9910  209.2150  153.9120 C   0  0  0  0  0  3  0  0  0  0  0  0
  160.8010  208.4780  151.6570 N   0  0  0  0  0  0  0  0  0  0  0  0
  161.1100  206.8990  153.4170 C   0  0  0  0  0  0  0  0  0  0  0  0
  160.9650  207.1820  152.0450 C   0  0  0  0  0  0  0  0  0  0  0  0
  160.8210  209.4970  152.5540 C   0  0  0  0  0  3  0  0  0  0  0  0
  160.8220  199.1200  145.3160 C   0  0  0  0  0  1  0  0  0  0  0  0
  160.1690  200.4420  144.9200 C   0  0  0  0  0  2  0  0  0  0  0  0
  162.9690  205.4510  146.4220 C   0  0  0  0  0  2  0  0  0  0  0  0
  163.1530  206.3280  147.6450 C   0  0  0  0  0  2  0  0  0  0  0  0
  162.4210  208.4850  148.4000 N   0  0  0  0  0  0  0  0  0  0  0  0
  162.3840  207.5960  147.4700 C   0  0  0  0  0  3  0  0  0  0  0  0
  161.6170  209.6820  148.2910 C   0  0  0  0  0  2  0  0  0  0  0  0
  162.3540  210.8570  148.8630 C   0  0  0  0  0  0  0  0  0  0  0  0
  162.3760  211.0110  150.1160 O   0  0  0  0  0  0  0  0  0  0  0  0
  163.0670  211.7480  148.0470 O   0  0  0  0  0  0  0  0  0  0  0  0
  162.4950  212.9470  147.5430 C   0  0  0  0  0  2  0  0  0  0  0  0
  160.9840  212.8060  147.4950 C   0  0  0  0  0  2  0  0  0  0  0  0
  156.9940  214.2250  147.9530 O   0  0  0  0  0  1  0  0  0  0  0  0
  157.7110  212.9090  146.0850 C   0  0  0  0  0  0  0  0  0  0  0  0
  160.4160  213.7830  146.5740 N   0  0  0  0  0  0  0  0  0  0  0  0
  158.5780  213.2140  144.9020 C   0  0  0  0  0  2  0  0  0  0  0  0
  159.2840  214.4530  147.2390 C   0  0  0  0  0  2  0  0  0  0  0  0
  160.0400  213.0490  145.3440 C   0  0  1  0  0  3  0  0  0  0  0  0
  156.8220  212.0690  145.9980 O   0  0  0  0  0  0  0  0  0  0  0  0
  158.0700  213.5150  147.4100 C   0  0  1  0  0  3  0  0  0  0  0  0
  161.1820  212.2510  143.2470 N   0  0  0  0  0  1  0  0  0  0  0  0
  161.6310  214.3690  144.1240 O   0  0  0  0  0  0  0  0  0  0  0  0
  161.0200  213.2690  144.2360 C   0  0  0  0  0  0  0  0  0  0  0  0
  1  4  1  6  0  0  0
  3 11  1  0  0  0  0
  4  3  1  0  0  0  0
  6 14  1  0  0  0  0
  6  7  2  0  0  0  0
  7  2  1  0  0  0  0
  8  7  1  0  0  0  0
  8 15  2  0  0  0  0
  9 18  1  0  0  0  0
 10  2  1  0  0  0  0
 10 27  1  0  0  0  0
 11  5  2  0  0  0  0
 12 20  1  0  0  0  0
 13 18  1  6  0  0  0
 13 19  1  0  0  0  0
 14 10  2  0  0  0  0
 16 31  1  6  0  0  0
 16 13  1  0  0  0  0
 16 19  1  0  0  0  0
 17 11  1  1  0  0  0
 17  1  1  0  0  0  0
 17 16  1  0  0  0  0
 18 20  2  0  0  0  0
 19  6  1  0  0  0  0
 20  8  1  0  0  0  0
 21  1  1  0  0  0  0
 21  9  1  0  0  0  0
 24 22  1  0  0  0  0
 25 27  2  0  0  0  0
 25 28  1  0  0  0  0
 26 23  1  0  0  0  0
 26 22  2  0  0  0  0
 27 26  1  0  0  0  0
 28 24  2  0  0  0  0
 30 29  1  0  0  0  0
 30 21  1  0  0  0  0
 31 32  1  0  0  0  0
 34 32  1  0  0  0  0
 34 33  2  0  0  0  0
 35 33  1  0  0  0  0
 35 36  1  0  0  0  0
 36 37  2  0  0  0  0
 38 36  1  0  0  0  0
 39 38  1  0  0  0  0
 40 39  1  0  0  0  0
 42 48  1  0  0  0  0
 43 45  1  0  0  0  0
 43 40  1  0  0  0  0
 44 46  1  0  0  0  0
 44 42  1  0  0  0  0
 45 48  1  0  0  0  0
 46 51  1  6  0  0  0
 46 43  1  0  0  0  0
 47 42  2  0  0  0  0
 48 41  1  6  0  0  0
 49 51  1  0  0  0  0
 50 51  2  0  0  0  0
M  END
>  <MODEL>
4

>  <REMARK>
 VINA RESULT:      -3.7      2.590      9.467
  Name = 
  12 active torsions:
  status: ('A' for Active; 'I' for Inactive)
    1  A    between atoms: C_3  and  C_7
    2  A    between atoms: C_3  and  C_42
    3  A    between atoms: C_4  and  C_24
    4  A    between atoms: C_4  and  O_33
    5  A    between atoms: C_7  and  C_49
    6  A    between atoms: N_8  and  C_24
    7  A    between atoms: C_14  and  N_15
    8  A    between atoms: C_14  and  C_32
    9  A    between atoms: C_26  and  C_47
   10  A    between atoms: C_29  and  C_38
   11  A    between atoms: C_32  and  O_33
   12  A    between atoms: C_43  and  N_51
                            x       y       z     vdW  Elec       q    Type
                         _______ _______ _______ _____ _____    ______ ____

>  <TORSDO>
F 12

$$$$
=
 OpenBabel11042421453D

 51 57  0  0  1  0  0  0  0  0999 V2000
  160.2280  201.8740  145.7510 C   0  0  2  0  0  3  0  0  0  0  0  0
  160.7750  205.3200  150.8770 O   0  0  0  0  0  0  0  0  0  0  0  0
  158.7520  203.0030  144.5120 C   0  0  0  0  0  2  0  0  0  0  0  0
  159.2150  201.6960  144.7710 O   0  0  0  0  0  0  0  0  0  0  0  0
  159.8750  205.1250  144.7290 O   0  0  0  0  0  0  0  0  0  0  0  0
  160.7850  204.9710  148.7260 C   0  0  0  0  0  0  0  0  0  0  0  0
  160.7400  204.3820  149.9650 C   0  0  0  0  0  0  0  0  0  0  0  0
  160.7510  202.9170  150.2290 C   0  0  0  0  0  0  0  0  0  0  0  0
  161.7970  200.6760  147.1730 C   0  0  0  0  0  2  0  0  0  0  0  0
  160.8910  206.4890  150.2750 C   0  0  0  0  0  0  0  0  0  0  0  0
  159.8920  203.9000  144.8090 C   0  0  0  0  0  0  0  0  0  0  0  0
  160.4270  200.5850  149.5380 O   0  0  0  0  0  1  0  0  0  0  0  0
  162.3460  203.1550  147.5040 C   0  0  2  0  0  3  0  0  0  0  0  0
  160.9270  206.3340  148.9040 C   0  0  0  0  0  3  0  0  0  0  0  0
  160.4750  202.5430  151.4110 O   0  0  0  0  0  0  0  0  0  0  0  0
  161.9400  203.8160  146.3540 C   0  0  1  0  0  0  0  0  0  0  0  0
  161.0000  203.1020  145.3290 C   0  0  1  0  0  3  0  0  0  0  0  0
  161.6510  201.9160  148.0190 C   0  0  0  0  0  0  0  0  0  0  0  0
  161.3720  204.2610  147.6670 N   0  0  0  0  0  0  0  0  0  0  0  0
  160.9720  201.8260  149.2100 C   0  0  0  0  0  0  0  0  0  0  0  0
  161.1480  200.7260  145.8370 N   0  0  0  0  0  0  0  0  0  0  0  0
  162.2280  209.8830  151.1270 N   0  0  0  0  0  0  0  0  0  0  0  0
  162.3280  208.7190  149.0250 N   0  0  0  0  0  1  0  0  0  0  0  0
  161.9290  209.9480  152.4520 C   0  0  0  0  0  3  0  0  0  0  0  0
  160.8320  207.8430  152.2920 N   0  0  0  0  0  0  0  0  0  0  0  0
  161.8830  208.8000  150.3780 C   0  0  0  0  0  0  0  0  0  0  0  0
  161.1290  207.7650  150.9650 C   0  0  0  0  0  0  0  0  0  0  0  0
  161.2030  208.9110  153.0430 C   0  0  0  0  0  3  0  0  0  0  0  0
  161.2900  198.3280  145.2610 C   0  0  0  0  0  1  0  0  0  0  0  0
  160.3900  199.4710  145.7210 C   0  0  0  0  0  2  0  0  0  0  0  0
  162.9600  204.8170  145.8100 C   0  0  0  0  0  2  0  0  0  0  0  0
  162.2800  205.8680  144.9550 C   0  0  0  0  0  2  0  0  0  0  0  0
  161.8200  206.1890  142.6210 N   0  0  0  0  0  0  0  0  0  0  0  0
  162.5040  205.5570  143.5110 C   0  0  0  0  0  3  0  0  0  0  0  0
  161.9570  205.8450  141.2230 C   0  0  0  0  0  2  0  0  0  0  0  0
  162.2650  207.0700  140.4150 C   0  0  0  0  0  0  0  0  0  0  0  0
  163.4530  207.4980  140.3870 O   0  0  0  0  0  0  0  0  0  0  0  0
  161.2830  207.7100  139.6440 O   0  0  0  0  0  0  0  0  0  0  0  0
  161.4160  207.8990  138.2420 C   0  0  0  0  0  2  0  0  0  0  0  0
  160.4910  209.0150  137.7900 C   0  0  0  0  0  2  0  0  0  0  0  0
  156.6870  210.9220  137.6100 O   0  0  0  0  0  1  0  0  0  0  0  0
  158.7390  212.1180  137.9090 C   0  0  0  0  0  0  0  0  0  0  0  0
  159.9340  209.7060  138.9470 N   0  0  0  0  0  0  0  0  0  0  0  0
  159.6840  212.2400  139.0650 C   0  0  0  0  0  2  0  0  0  0  0  0
  158.4730  209.8020  138.7770 C   0  0  0  0  0  2  0  0  0  0  0  0
  160.6150  211.0180  139.0350 C   0  0  1  0  0  3  0  0  0  0  0  0
  158.6290  213.0350  137.1040 O   0  0  0  0  0  0  0  0  0  0  0  0
  158.0780  210.7930  137.6620 C   0  0  1  0  0  3  0  0  0  0  0  0
  163.0250  210.8730  139.7470 N   0  0  0  0  0  1  0  0  0  0  0  0
  161.3380  211.2920  141.3080 O   0  0  0  0  0  0  0  0  0  0  0  0
  161.6540  211.0420  140.1100 C   0  0  0  0  0  0  0  0  0  0  0  0
  1  4  1  6  0  0  0
  1 21  1  0  0  0  0
  3  4  1  0  0  0  0
  3 11  1  0  0  0  0
  5 11  2  0  0  0  0
  6 14  1  0  0  0  0
  6  7  2  0  0  0  0
  7  8  1  0  0  0  0
  7  2  1  0  0  0  0
  8 15  2  0  0  0  0
  9 18  1  0  0  0  0
 10  2  1  0  0  0  0
 10 27  1  0  0  0  0
 13 19  1  0  0  0  0
 13 18  1  6  0  0  0
 14 10  2  0  0  0  0
 16 31  1  6  0  0  0
 16 13  1  0  0  0  0
 16 19  1  0  0  0  0
 17 11  1  1  0  0  0
 17  1  1  0  0  0  0
 17 16  1  0  0  0  0
 18 20  2  0  0  0  0
 19  6  1  0  0  0  0
 20 12  1  0  0  0  0
 20  8  1  0  0  0  0
 21  9  1  0  0  0  0
 22 24  1  0  0  0  0
 23 26  1  0  0  0  0
 24 28  2  0  0  0  0
 25 28  1  0  0  0  0
 26 27  1  0  0  0  0
 26 22  2  0  0  0  0
 27 25  2  0  0  0  0
 29 30  1  0  0  0  0
 30 21  1  0  0  0  0
 32 31  1  0  0  0  0
 33 34  2  0  0  0  0
 34 32  1  0  0  0  0
 35 33  1  0  0  0  0
 36 35  1  0  0  0  0
 37 36  2  0  0  0  0
 38 36  1  0  0  0  0
 39 38  1  0  0  0  0
 40 39  1  0  0  0  0
 40 43  1  0  0  0  0
 42 44  1  0  0  0  0
 43 46  1  0  0  0  0
 45 43  1  0  0  0  0
 46 44  1  0  0  0  0
 46 51  1  1  0  0  0
 47 42  2  0  0  0  0
 48 41  1  1  0  0  0
 48 42  1  0  0  0  0
 48 45  1  0  0  0  0
 49 51  1  0  0  0  0
 51 50  2  0  0  0  0
M  END
>  <MODEL>
5

>  <REMARK>
 VINA RESULT:      -3.7      4.635     10.430
  Name = 
  12 active torsions:
  status: ('A' for Active; 'I' for Inactive)
    1  A    between atoms: C_3  and  C_7
    2  A    between atoms: C_3  and  C_42
    3  A    between atoms: C_4  and  C_24
    4  A    between atoms: C_4  and  O_33
    5  A    between atoms: C_7  and  C_49
    6  A    between atoms: N_8  and  C_24
    7  A    between atoms: C_14  and  N_15
    8  A    between atoms: C_14  and  C_32
    9  A    between atoms: C_26  and  C_47
   10  A    between atoms: C_29  and  C_38
   11  A    between atoms: C_32  and  O_33
   12  A    between atoms: C_43  and  N_51
                            x       y       z     vdW  Elec       q    Type
                         _______ _______ _______ _____ _____    ______ ____

>  <TORSDO>
F 12

$$$$
=
 OpenBabel11042421453D

 51 57  0  0  1  0  0  0  0  0999 V2000
  160.2070  202.4870  145.6180 C   0  0  2  0  0  3  0  0  0  0  0  0
  160.6010  204.7810  151.3650 O   0  0  0  0  0  0  0  0  0  0  0  0
  158.8110  203.8900  144.5850 C   0  0  0  0  0  2  0  0  0  0  0  0
  159.2350  202.5450  144.5840 O   0  0  0  0  0  0  0  0  0  0  0  0
  159.9680  205.8870  145.2800 O   0  0  0  0  0  0  0  0  0  0  0  0
  160.6980  204.8850  149.1900 C   0  0  0  0  0  0  0  0  0  0  0  0
  160.5860  204.0530  150.2770 C   0  0  0  0  0  0  0  0  0  0  0  0
  160.5550  202.5660  150.2310 C   0  0  0  0  0  0  0  0  0  0  0  0
  161.6870  200.9750  146.8190 C   0  0  0  0  0  2  0  0  0  0  0  0
  160.7670  206.0460  151.0240 C   0  0  0  0  0  0  0  0  0  0  0  0
  159.9550  204.6730  145.1050 C   0  0  0  0  0  0  0  0  0  0  0  0
  160.2130  200.4380  149.0590 O   0  0  0  0  0  1  0  0  0  0  0  0
  162.2730  203.3150  147.6790 C   0  0  2  0  0  3  0  0  0  0  0  0
  160.8610  206.1760  149.6530 C   0  0  0  0  0  3  0  0  0  0  0  0
  160.2200  201.9640  151.2990 O   0  0  0  0  0  0  0  0  0  0  0  0
  161.9310  204.2110  146.6770 C   0  0  1  0  0  0  0  0  0  0  0  0
  161.0230  203.7520  145.4900 C   0  0  1  0  0  3  0  0  0  0  0  0
  161.5310  202.0170  147.8980 C   0  0  0  0  0  0  0  0  0  0  0  0
  161.3160  204.3920  148.0310 N   0  0  0  0  0  0  0  0  0  0  0  0
  160.7980  201.7030  149.0180 C   0  0  0  0  0  0  0  0  0  0  0  0
  161.0980  201.3180  145.4990 N   0  0  0  0  0  0  0  0  0  0  0  0
  161.1730  207.9770  154.2070 N   0  0  0  0  0  0  0  0  0  0  0  0
  161.2100  205.5930  153.8870 N   0  0  0  0  0  1  0  0  0  0  0  0
  160.9910  209.2480  153.7590 C   0  0  0  0  0  3  0  0  0  0  0  0
  160.8250  208.4210  151.5340 N   0  0  0  0  0  0  0  0  0  0  0  0
  161.1420  206.9160  153.3560 C   0  0  0  0  0  0  0  0  0  0  0  0
  161.0020  207.1440  151.9720 C   0  0  0  0  0  0  0  0  0  0  0  0
  160.8270  209.4740  152.3900 C   0  0  0  0  0  3  0  0  0  0  0  0
  161.1340  198.8590  145.2710 C   0  0  0  0  0  1  0  0  0  0  0  0
  160.3200  200.1380  145.0960 C   0  0  0  0  0  2  0  0  0  0  0  0
  162.9950  205.2720  146.3920 C   0  0  0  0  0  2  0  0  0  0  0  0
  163.2030  206.1640  147.5990 C   0  0  0  0  0  2  0  0  0  0  0  0
  162.5180  208.3570  148.2930 N   0  0  0  0  0  0  0  0  0  0  0  0
  162.3390  207.3770  147.4780 C   0  0  0  0  0  3  0  0  0  0  0  0
  161.6380  209.5040  148.2510 C   0  0  0  0  0  2  0  0  0  0  0  0
  162.3290  210.7090  148.8170 C   0  0  0  0  0  0  0  0  0  0  0  0
  162.6860  210.6940  150.0290 O   0  0  0  0  0  0  0  0  0  0  0  0
  162.6400  211.8220  148.0210 O   0  0  0  0  0  0  0  0  0  0  0  0
  162.0460  213.0960  148.2250 C   0  0  0  0  0  2  0  0  0  0  0  0
  161.2420  213.4840  146.9970 C   0  0  0  0  0  2  0  0  0  0  0  0
  159.9000  211.8260  143.3100 O   0  0  0  0  0  1  0  0  0  0  0  0
  158.6990  213.5230  144.4980 C   0  0  0  0  0  0  0  0  0  0  0  0
  160.0220  212.6890  146.9220 N   0  0  0  0  0  0  0  0  0  0  0  0
  157.9010  213.5020  145.7660 C   0  0  0  0  0  2  0  0  0  0  0  0
  160.0820  211.8490  145.7130 C   0  0  0  0  0  2  0  0  0  0  0  0
  158.8870  213.6390  146.9370 C   0  0  1  0  0  3  0  0  0  0  0  0
  158.4250  214.3220  143.6100 O   0  0  0  0  0  0  0  0  0  0  0  0
  159.9370  212.6780  144.4180 C   0  0  1  0  0  3  0  0  0  0  0  0
  156.7860  213.6780  148.3240 N   0  0  0  0  0  1  0  0  0  0  0  0
  158.8910  213.6610  149.3370 O   0  0  0  0  0  0  0  0  0  0  0  0
  158.2130  213.6910  148.2710 C   0  0  0  0  0  0  0  0  0  0  0  0
  1  4  1  6  0  0  0
  3 11  1  0  0  0  0
  4  3  1  0  0  0  0
  6 14  1  0  0  0  0
  6  7  2  0  0  0  0
  7  2  1  0  0  0  0
  8  7  1  0  0  0  0
  8 15  2  0  0  0  0
  9 18  1  0  0  0  0
 10  2  1  0  0  0  0
 10 27  1  0  0  0  0
 11  5  2  0  0  0  0
 13 18  1  6  0  0  0
 13 19  1  0  0  0  0
 14 10  2  0  0  0  0
 16 31  1  6  0  0  0
 16 13  1  0  0  0  0
 16 19  1  0  0  0  0
 17 11  1  1  0  0  0
 17  1  1  0  0  0  0
 17 16  1  0  0  0  0
 18 20  2  0  0  0  0
 19  6  1  0  0  0  0
 20 12  1  0  0  0  0
 20  8  1  0  0  0  0
 21  1  1  0  0  0  0
 21  9  1  0  0  0  0
 24 22  1  0  0  0  0
 25 27  2  0  0  0  0
 25 28  1  0  0  0  0
 26 23  1  0  0  0  0
 26 22  2  0  0  0  0
 27 26  1  0  0  0  0
 28 24  2  0  0  0  0
 30 29  1  0  0  0  0
 30 21  1  0  0  0  0
 31 32  1  0  0  0  0
 34 32  1  0  0  0  0
 34 33  2  0  0  0  0
 35 33  1  0  0  0  0
 35 36  1  0  0  0  0
 36 37  2  0  0  0  0
 38 39  1  0  0  0  0
 38 36  1  0  0  0  0
 40 39  1  0  0  0  0
 42 44  1  0  0  0  0
 43 46  1  0  0  0  0
 43 40  1  0  0  0  0
 44 46  1  0  0  0  0
 45 43  1  0  0  0  0
 46 51  1  1  0  0  0
 47 42  2  0  0  0  0
 48 41  1  6  0  0  0
 48 42  1  0  0  0  0
 48 45  1  0  0  0  0
 51 49  1  0  0  0  0
 51 50  2  0  0  0  0
M  END
>  <MODEL>
6

>  <REMARK>
 VINA RESULT:      -3.6      2.466      9.495
  Name = 
  12 active torsions:
  status: ('A' for Active; 'I' for Inactive)
    1  A    between atoms: C_3  and  C_7
    2  A    between atoms: C_3  and  C_42
    3  A    between atoms: C_4  and  C_24
    4  A    between atoms: C_4  and  O_33
    5  A    between atoms: C_7  and  C_49
    6  A    between atoms: N_8  and  C_24
    7  A    between atoms: C_14  and  N_15
    8  A    between atoms: C_14  and  C_32
    9  A    between atoms: C_26  and  C_47
   10  A    between atoms: C_29  and  C_38
   11  A    between atoms: C_32  and  O_33
   12  A    between atoms: C_43  and  N_51
                            x       y       z     vdW  Elec       q    Type
                         _______ _______ _______ _____ _____    ______ ____

>  <TORSDO>
F 12

$$$$
