=
 OpenBabel11042421193D

 39 45  0  0  1  0  0  0  0  0999 V2000
  160.6920  208.5550  152.2530 C   0  0  2  0  0  3  0  0  0  0  0  0
  161.7750  206.4120  152.0300 C   0  0  1  0  0  3  0  0  0  0  0  0
  162.4260  207.3550  151.0310 C   0  0  0  0  0  2  0  0  0  0  0  0
  161.0660  207.3080  153.0280 C   0  0  0  0  0  2  0  0  0  0  0  0
  161.7790  208.7230  151.2050 C   0  0  0  0  0  2  0  0  0  0  0  0
  159.3590  213.2440  152.7860 N   0  0  0  0  0  2  0  0  0  0  0  0
  159.6420  211.8170  154.8790 C   0  0  1  0  0  3  0  0  0  0  0  0
  159.8340  213.1160  155.6400 C   0  0  0  0  0  1  0  0  0  0  0  0
  160.5560  209.7470  153.1570 C   0  0  0  0  0  0  0  0  0  0  0  0
  159.7860  212.0200  153.3860 C   0  0  0  0  0  0  0  0  0  0  0  0
  160.6570  210.7880  155.3860 C   0  0  0  0  0  2  0  0  0  0  0  0
  160.7260  209.5960  154.4770 C   0  0  0  0  0  3  0  0  0  0  0  0
  160.1730  211.0310  152.6270 N   0  0  0  0  0  0  0  0  0  0  0  0
  159.3910  213.4140  151.3950 N   0  0  0  0  0  2  0  0  0  0  0  0
  157.0930  213.7830  151.2420 O   0  0  0  0  0  0  0  0  0  0  0  0
  158.1980  213.6630  150.6530 C   0  0  0  0  0  0  0  0  0  0  0  0
  158.2550  213.7420  149.1690 C   0  0  0  0  0  2  0  0  0  0  0  0
  159.4720  214.3170  148.7850 O   0  0  0  0  0  0  0  0  0  0  0  0
  160.1540  213.3000  148.1160 C   0  0  0  0  0  2  0  0  0  0  0  0
  161.6090  213.2900  148.5580 C   0  0  2  0  0  3  0  0  0  0  0  0
  161.9050  210.8390  148.2580 C   0  0  0  0  0  2  0  0  0  0  0  0
  162.3860  212.2120  147.8250 C   0  0  2  0  0  3  0  0  0  0  0  0
  161.9450  211.9820  149.2540 C   0  0  1  0  0  3  0  0  0  0  0  0
  160.8080  205.5790  151.3290 N   0  0  0  0  0  2  0  0  0  0  0  0
  161.4630  205.0020  150.2290 N   0  0  0  0  0  2  0  0  0  0  0  0
  161.1610  203.2570  148.5080 C   0  0  0  0  0  0  0  0  0  0  0  0
  161.2670  203.9160  144.9250 C   0  0  0  0  0  3  0  0  0  0  0  0
  160.8050  200.9640  149.1420 N   0  0  0  0  0  0  0  0  0  0  0  0
  160.9320  201.9230  148.1900 C   0  0  0  0  0  0  0  0  0  0  0  0
  161.3000  204.0520  147.3590 C   0  0  0  0  0  0  0  0  0  0  0  0
  161.5520  205.4270  147.3050 C   0  0  0  0  0  3  0  0  0  0  0  0
  160.8820  201.3060  150.4600 C   0  0  0  0  0  3  0  0  0  0  0  0
  161.2360  203.6410  149.8570 C   0  0  0  0  0  0  0  0  0  0  0  0
  161.0930  202.6430  150.8390 C   0  0  0  0  0  3  0  0  0  0  0  0
  160.8870  201.6870  146.5200 S   0  0  0  0  0  0  0  0  0  0  0  0
  161.6600  206.0460  146.0490 C   0  0  0  0  0  3  0  0  0  0  0  0
  161.1710  203.3170  146.1800 C   0  0  0  0  0  0  0  0  0  0  0  0
  161.6200  205.9100  143.6630 F   0  0  0  0  0  0  0  0  0  0  0  0
  161.5150  205.2960  144.8650 C   0  0  0  0  0  0  0  0  0  0  0  0
  1  4  1  0  0  0  0
  1  9  1  1  0  0  0
  2 24  1  6  0  0  0
  2  4  1  0  0  0  0
  3  5  1  0  0  0  0
  3  2  1  0  0  0  0
  5  1  1  0  0  0  0
  6 10  1  0  0  0  0
  7 11  1  0  0  0  0
  7  8  1  1  0  0  0
  9 12  2  0  0  0  0
 10  7  1  0  0  0  0
 12 11  1  0  0  0  0
 13  9  1  0  0  0  0
 13 10  2  0  0  0  0
 14  6  1  0  0  0  0
 16 15  2  0  0  0  0
 16 14  1  0  0  0  0
 17 16  1  0  0  0  0
 18 17  1  0  0  0  0
 19 18  1  0  0  0  0
 20 19  1  6  0  0  0
 20 23  1  0  0  0  0
 22 21  1  6  0  0  0
 22 20  1  0  0  0  0
 22 23  1  0  0  0  0
 23 21  1  6  0  0  0
 25 24  1  0  0  0  0
 26 33  1  0  0  0  0
 27 37  1  0  0  0  0
 28 32  2  0  0  0  0
 29 26  2  0  0  0  0
 29 28  1  0  0  0  0
 30 26  1  0  0  0  0
 31 30  1  0  0  0  0
 32 34  1  0  0  0  0
 33 25  1  0  0  0  0
 33 34  2  0  0  0  0
 35 29  1  0  0  0  0
 36 31  2  0  0  0  0
 37 35  1  0  0  0  0
 37 30  2  0  0  0  0
 38 39  1  0  0  0  0
 39 27  2  0  0  0  0
 39 36  1  0  0  0  0
M  END
>  <MODEL>
1

>  <REMARK>
 VINA RESULT:      -9.5      0.000      0.000
  Name = 
  9 active torsions:
  status: ('A' for Active; 'I' for Inactive)
    1  A    between atoms: O_1  and  C_35
    2  A    between atoms: O_1  and  C_37
    3  A    between atoms: N_2  and  N_16
    4  A    between atoms: C_3  and  C_20
    5  A    between atoms: C_5  and  C_35
    6  A    between atoms: N_6  and  C_7
    7  A    between atoms: N_6  and  N_11
    8  A    between atoms: N_11  and  C_28
    9  A    between atoms: C_23  and  C_37
                            x       y       z     vdW  Elec       q    Type
                         _______ _______ _______ _____ _____    ______ ____

>  <TORSDO>
F 9

$$$$
=
 OpenBabel11042421193D

 39 45  0  0  1  0  0  0  0  0999 V2000
  161.6590  207.3700  151.1420 C   0  0  2  0  0  3  0  0  0  0  0  0
  161.4480  207.9760  148.8180 C   0  0  1  0  0  3  0  0  0  0  0  0
  160.4480  206.8650  149.0890 C   0  0  0  0  0  2  0  0  0  0  0  0
  161.8140  208.5320  150.1810 C   0  0  0  0  0  2  0  0  0  0  0  0
  160.5440  206.5150  150.5680 C   0  0  0  0  0  2  0  0  0  0  0  0
  160.2110  211.0100  154.0920 N   0  0  0  0  0  2  0  0  0  0  0  0
  160.2000  208.6300  155.0050 C   0  0  1  0  0  3  0  0  0  0  0  0
  160.2650  209.2480  156.3900 C   0  0  0  0  0  1  0  0  0  0  0  0
  161.3800  207.8440  152.5400 C   0  0  0  0  0  0  0  0  0  0  0  0
  160.5590  209.6340  153.9310 C   0  0  0  0  0  0  0  0  0  0  0  0
  161.1420  207.4230  154.9540 C   0  0  0  0  0  2  0  0  0  0  0  0
  161.3560  206.9580  153.5430 C   0  0  0  0  0  3  0  0  0  0  0  0
  161.0640  209.2260  152.7980 N   0  0  0  0  0  0  0  0  0  0  0  0
  160.4430  211.9380  153.0670 N   0  0  0  0  0  2  0  0  0  0  0  0
  158.1720  212.2750  152.6590 O   0  0  0  0  0  0  0  0  0  0  0  0
  159.3640  212.5340  152.3500 C   0  0  0  0  0  0  0  0  0  0  0  0
  159.6490  213.4400  151.2050 C   0  0  0  0  0  2  0  0  0  0  0  0
  160.6130  212.8480  150.3790 O   0  0  0  0  0  0  0  0  0  0  0  0
  160.6960  213.6870  149.2680 C   0  0  0  0  0  2  0  0  0  0  0  0
  160.6720  212.8510  147.9980 C   0  0  2  0  0  3  0  0  0  0  0  0
  163.1290  212.4660  147.9510 C   0  0  0  0  0  2  0  0  0  0  0  0
  161.7670  211.8000  148.0260 C   0  0  2  0  0  3  0  0  0  0  0  0
  161.9490  213.0570  147.2020 C   0  0  1  0  0  3  0  0  0  0  0  0
  162.6240  207.4050  148.1760 N   0  0  0  0  0  2  0  0  0  0  0  0
  162.4530  206.0130  148.1370 N   0  0  0  0  0  2  0  0  0  0  0  0
  161.5910  204.0320  146.9400 C   0  0  0  0  0  0  0  0  0  0  0  0
  160.4610  200.9960  148.6090 C   0  0  0  0  0  3  0  0  0  0  0  0
  161.4240  204.0330  144.5390 N   0  0  0  0  0  0  0  0  0  0  0  0
  161.2760  203.4100  145.7360 C   0  0  0  0  0  0  0  0  0  0  0  0
  161.3140  203.2090  148.0420 C   0  0  0  0  0  0  0  0  0  0  0  0
  161.4930  203.5150  149.3960 C   0  0  0  0  0  3  0  0  0  0  0  0
  161.9160  205.3040  144.4960 C   0  0  0  0  0  3  0  0  0  0  0  0
  162.1080  205.3380  146.9250 C   0  0  0  0  0  0  0  0  0  0  0  0
  162.2700  205.9740  145.6800 C   0  0  0  0  0  3  0  0  0  0  0  0
  160.6670  201.8570  145.9880 S   0  0  0  0  0  0  0  0  0  0  0  0
  161.1520  202.5510  150.3580 C   0  0  0  0  0  3  0  0  0  0  0  0
  160.7960  201.9670  147.6680 C   0  0  0  0  0  0  0  0  0  0  0  0
  160.3220  200.3780  150.9100 F   0  0  0  0  0  0  0  0  0  0  0  0
  160.6430  201.2970  149.9680 C   0  0  0  0  0  0  0  0  0  0  0  0
  1  9  1  1  0  0  0
  2 24  1  1  0  0  0
  2  3  1  0  0  0  0
  2  4  1  0  0  0  0
  3  5  1  0  0  0  0
  4  1  1  0  0  0  0
  5  1  1  0  0  0  0
  7  8  1  1  0  0  0
  9 13  1  0  0  0  0
  9 12  2  0  0  0  0
 10  6  1  0  0  0  0
 10  7  1  0  0  0  0
 11  7  1  0  0  0  0
 12 11  1  0  0  0  0
 13 10  2  0  0  0  0
 14  6  1  0  0  0  0
 16 15  2  0  0  0  0
 16 14  1  0  0  0  0
 17 16  1  0  0  0  0
 18 17  1  0  0  0  0
 19 18  1  0  0  0  0
 20 22  1  0  0  0  0
 20 19  1  1  0  0  0
 22 21  1  1  0  0  0
 23 21  1  1  0  0  0
 23 20  1  0  0  0  0
 23 22  1  0  0  0  0
 25 24  1  0  0  0  0
 26 30  1  0  0  0  0
 27 39  1  0  0  0  0
 28 29  1  0  0  0  0
 29 35  1  0  0  0  0
 29 26  2  0  0  0  0
 30 31  2  0  0  0  0
 31 36  1  0  0  0  0
 32 28  2  0  0  0  0
 32 34  1  0  0  0  0
 33 26  1  0  0  0  0
 33 25  1  0  0  0  0
 34 33  2  0  0  0  0
 35 37  1  0  0  0  0
 37 30  1  0  0  0  0
 37 27  2  0  0  0  0
 39 36  2  0  0  0  0
 39 38  1  0  0  0  0
M  END
>  <MODEL>
2

>  <REMARK>
 VINA RESULT:      -9.0      2.274      3.642
  Name = 
  9 active torsions:
  status: ('A' for Active; 'I' for Inactive)
    1  A    between atoms: O_1  and  C_35
    2  A    between atoms: O_1  and  C_37
    3  A    between atoms: N_2  and  N_16
    4  A    between atoms: C_3  and  C_20
    5  A    between atoms: C_5  and  C_35
    6  A    between atoms: N_6  and  C_7
    7  A    between atoms: N_6  and  N_11
    8  A    between atoms: N_11  and  C_28
    9  A    between atoms: C_23  and  C_37
                            x       y       z     vdW  Elec       q    Type
                         _______ _______ _______ _____ _____    ______ ____

>  <TORSDO>
F 9

$$$$
=
 OpenBabel11042421193D

 39 45  0  0  1  0  0  0  0  0999 V2000
  161.2470  209.4300  153.0820 C   0  0  2  0  0  3  0  0  0  0  0  0
  160.8380  207.1850  152.3040 C   0  0  1  0  0  3  0  0  0  0  0  0
  160.9850  207.1210  153.8150 C   0  0  0  0  0  2  0  0  0  0  0  0
  160.5580  208.6420  151.9870 C   0  0  0  0  0  2  0  0  0  0  0  0
  161.1920  208.5450  154.3140 C   0  0  0  0  0  2  0  0  0  0  0  0
  159.5900  213.6020  151.1080 N   0  0  0  0  0  2  0  0  0  0  0  0
  158.8150  212.9780  153.4550 C   0  0  1  0  0  3  0  0  0  0  0  0
  158.5150  214.4530  153.6600 C   0  0  0  0  0  1  0  0  0  0  0  0
  160.5980  210.7700  153.2890 C   0  0  0  0  0  0  0  0  0  0  0  0
  159.7050  212.7540  152.2510 C   0  0  0  0  0  0  0  0  0  0  0  0
  159.4690  212.4220  154.7230 C   0  0  0  0  0  2  0  0  0  0  0  0
  160.0630  211.0660  154.4810 C   0  0  0  0  0  3  0  0  0  0  0  0
  160.4810  211.7060  152.2000 N   0  0  0  0  0  0  0  0  0  0  0  0
  160.3330  213.3510  149.9460 N   0  0  0  0  0  2  0  0  0  0  0  0
  158.5410  213.8120  148.5270 O   0  0  0  0  0  0  0  0  0  0  0  0
  159.7390  213.4480  148.6530 C   0  0  0  0  0  0  0  0  0  0  0  0
  160.5300  213.0810  147.4480 C   0  0  0  0  0  2  0  0  0  0  0  0
  159.7320  213.2390  146.3080 O   0  0  0  0  0  0  0  0  0  0  0  0
  160.5520  212.8650  145.2430 C   0  0  0  0  0  2  0  0  0  0  0  0
  161.7270  213.8250  145.1460 C   0  0  2  0  0  3  0  0  0  0  0  0
  162.5850  212.8950  143.0050 C   0  0  0  0  0  2  0  0  0  0  0  0
  162.0490  214.1360  143.6960 C   0  0  2  0  0  3  0  0  0  0  0  0
  162.9080  213.1530  144.4640 C   0  0  1  0  0  3  0  0  0  0  0  0
  162.0930  206.7700  151.6920 N   0  0  0  0  0  2  0  0  0  0  0  0
  161.7800  206.0740  150.5130 N   0  0  0  0  0  2  0  0  0  0  0  0
  161.3220  203.9500  149.3400 C   0  0  0  0  0  0  0  0  0  0  0  0
  161.3220  203.6060  145.7120 C   0  0  0  0  0  3  0  0  0  0  0  0
  160.8740  201.9400  150.5840 N   0  0  0  0  0  0  0  0  0  0  0  0
  161.0130  202.5960  149.4040 C   0  0  0  0  0  0  0  0  0  0  0  0
  161.4570  204.3940  148.0150 C   0  0  0  0  0  0  0  0  0  0  0  0
  161.7770  205.6860  147.5820 C   0  0  0  0  0  3  0  0  0  0  0  0
  161.0190  202.6210  151.7560 C   0  0  0  0  0  3  0  0  0  0  0  0
  161.4690  204.6800  150.5310 C   0  0  0  0  0  0  0  0  0  0  0  0
  161.3130  203.9950  151.7510 C   0  0  0  0  0  3  0  0  0  0  0  0
  160.8910  201.9200  147.8630 S   0  0  0  0  0  0  0  0  0  0  0  0
  161.8680  205.9330  146.2030 C   0  0  0  0  0  3  0  0  0  0  0  0
  161.2440  203.3760  147.0840 C   0  0  0  0  0  0  0  0  0  0  0  0
  161.7280  205.1590  143.9460 F   0  0  0  0  0  0  0  0  0  0  0  0
  161.6380  204.9010  145.2730 C   0  0  0  0  0  0  0  0  0  0  0  0
  1  9  1  1  0  0  0
  1  5  1  0  0  0  0
  2 24  1  6  0  0  0
  2  3  1  0  0  0  0
  3  5  1  0  0  0  0
  4  2  1  0  0  0  0
  4  1  1  0  0  0  0
  6 10  1  0  0  0  0
  7  8  1  1  0  0  0
  7 11  1  0  0  0  0
  9 12  2  0  0  0  0
 10  7  1  0  0  0  0
 12 11  1  0  0  0  0
 13 10  2  0  0  0  0
 13  9  1  0  0  0  0
 14  6  1  0  0  0  0
 15 16  2  0  0  0  0
 16 14  1  0  0  0  0
 17 16  1  0  0  0  0
 18 17  1  0  0  0  0
 19 18  1  0  0  0  0
 20 19  1  6  0  0  0
 22 21  1  6  0  0  0
 22 23  1  0  0  0  0
 22 20  1  0  0  0  0
 23 21  1  6  0  0  0
 23 20  1  0  0  0  0
 25 33  1  0  0  0  0
 25 24  1  0  0  0  0
 26 29  2  0  0  0  0
 26 33  1  0  0  0  0
 27 37  1  0  0  0  0
 28 32  2  0  0  0  0
 29 28  1  0  0  0  0
 30 26  1  0  0  0  0
 31 30  1  0  0  0  0
 33 34  2  0  0  0  0
 34 32  1  0  0  0  0
 35 29  1  0  0  0  0
 36 31  2  0  0  0  0
 37 35  1  0  0  0  0
 37 30  2  0  0  0  0
 38 39  1  0  0  0  0
 39 27  2  0  0  0  0
 39 36  1  0  0  0  0
M  END
>  <MODEL>
3

>  <REMARK>
 VINA RESULT:      -8.9      1.791      2.315
  Name = 
  9 active torsions:
  status: ('A' for Active; 'I' for Inactive)
    1  A    between atoms: O_1  and  C_35
    2  A    between atoms: O_1  and  C_37
    3  A    between atoms: N_2  and  N_16
    4  A    between atoms: C_3  and  C_20
    5  A    between atoms: C_5  and  C_35
    6  A    between atoms: N_6  and  C_7
    7  A    between atoms: N_6  and  N_11
    8  A    between atoms: N_11  and  C_28
    9  A    between atoms: C_23  and  C_37
                            x       y       z     vdW  Elec       q    Type
                         _______ _______ _______ _____ _____    ______ ____

>  <TORSDO>
F 9

$$$$
=
 OpenBabel11042421193D

 39 45  0  0  1  0  0  0  0  0999 V2000
  160.7000  209.7330  154.2180 C   0  0  2  0  0  3  0  0  0  0  0  0
  160.8210  207.3390  154.4720 C   0  0  1  0  0  3  0  0  0  0  0  0
  161.5650  207.9570  155.6440 C   0  0  0  0  0  2  0  0  0  0  0  0
  159.9540  208.4510  153.9120 C   0  0  0  0  0  2  0  0  0  0  0  0
  161.4460  209.4700  155.5140 C   0  0  0  0  0  2  0  0  0  0  0  0
  158.9290  213.8030  152.1330 N   0  0  0  0  0  2  0  0  0  0  0  0
  157.6160  212.7500  154.0480 C   0  0  1  0  0  3  0  0  0  0  0  0
  156.9820  214.1140  154.2550 C   0  0  0  0  0  1  0  0  0  0  0  0
  159.7670  210.9080  154.3040 C   0  0  0  0  0  0  0  0  0  0  0  0
  158.8560  212.8390  153.1850 C   0  0  0  0  0  0  0  0  0  0  0  0
  157.9500  212.1440  155.4140 C   0  0  0  0  0  2  0  0  0  0  0  0
  158.8470  210.9490  155.2760 C   0  0  0  0  0  3  0  0  0  0  0  0
  159.8030  211.9490  153.3090 N   0  0  0  0  0  0  0  0  0  0  0  0
  160.0240  213.8360  151.2590 N   0  0  0  0  0  2  0  0  0  0  0  0
  158.7000  213.5660  149.3580 O   0  0  0  0  0  0  0  0  0  0  0  0
  159.8520  213.6840  149.8510 C   0  0  0  0  0  0  0  0  0  0  0  0
  161.0440  213.6260  148.9640 C   0  0  0  0  0  2  0  0  0  0  0  0
  161.1390  212.3470  148.4030 O   0  0  0  0  0  0  0  0  0  0  0  0
  161.9350  212.5120  147.2690 C   0  0  0  0  0  2  0  0  0  0  0  0
  161.3000  213.5440  146.3490 C   0  0  2  0  0  3  0  0  0  0  0  0
  162.9910  213.2900  144.5440 C   0  0  0  0  0  2  0  0  0  0  0  0
  161.5190  213.1740  144.8940 C   0  0  2  0  0  3  0  0  0  0  0  0
  162.3650  214.2550  145.5320 C   0  0  1  0  0  3  0  0  0  0  0  0
  161.7910  206.9080  153.4740 N   0  0  0  0  0  2  0  0  0  0  0  0
  161.0790  206.5420  152.3210 N   0  0  0  0  0  2  0  0  0  0  0  0
  161.4390  206.2910  149.8910 C   0  0  0  0  0  0  0  0  0  0  0  0
  161.1110  203.1240  148.1180 C   0  0  0  0  0  3  0  0  0  0  0  0
  162.0080  208.1960  148.5370 N   0  0  0  0  0  0  0  0  0  0  0  0
  161.7600  206.8690  148.6670 C   0  0  0  0  0  0  0  0  0  0  0  0
  161.1820  204.9160  149.7690 C   0  0  0  0  0  0  0  0  0  0  0  0
  160.8180  204.0280  150.7870 C   0  0  0  0  0  3  0  0  0  0  0  0
  161.9670  209.0020  149.6360 C   0  0  0  0  0  3  0  0  0  0  0  0
  161.3970  207.0940  151.0420 C   0  0  0  0  0  0  0  0  0  0  0  0
  161.6670  208.4690  150.9010 C   0  0  0  0  0  3  0  0  0  0  0  0
  161.7450  205.7270  147.4250 S   0  0  0  0  0  0  0  0  0  0  0  0
  160.6010  202.6800  150.4620 C   0  0  0  0  0  3  0  0  0  0  0  0
  161.3150  204.4600  148.4560 C   0  0  0  0  0  0  0  0  0  0  0  0
  160.5390  200.9230  148.8420 F   0  0  0  0  0  0  0  0  0  0  0  0
  160.7500  202.2280  149.1360 C   0  0  0  0  0  0  0  0  0  0  0  0
  1  9  1  1  0  0  0
  1  5  1  0  0  0  0
  2 24  1  6  0  0  0
  2  3  1  0  0  0  0
  4  1  1  0  0  0  0
  4  2  1  0  0  0  0
  5  3  1  0  0  0  0
  6 10  1  0  0  0  0
  7  8  1  1  0  0  0
  7 11  1  0  0  0  0
  9 12  2  0  0  0  0
 10 13  2  0  0  0  0
 10  7  1  0  0  0  0
 12 11  1  0  0  0  0
 13  9  1  0  0  0  0
 14  6  1  0  0  0  0
 15 16  2  0  0  0  0
 16 14  1  0  0  0  0
 17 16  1  0  0  0  0
 18 17  1  0  0  0  0
 19 18  1  0  0  0  0
 20 19  1  1  0  0  0
 22 21  1  1  0  0  0
 22 23  1  0  0  0  0
 22 20  1  0  0  0  0
 23 21  1  1  0  0  0
 23 20  1  0  0  0  0
 25 24  1  0  0  0  0
 26 33  1  0  0  0  0
 27 37  2  0  0  0  0
 27 39  1  0  0  0  0
 28 29  1  0  0  0  0
 28 32  2  0  0  0  0
 29 26  2  0  0  0  0
 30 26  1  0  0  0  0
 30 31  2  0  0  0  0
 32 34  1  0  0  0  0
 33 25  1  0  0  0  0
 34 33  2  0  0  0  0
 35 37  1  0  0  0  0
 35 29  1  0  0  0  0
 36 31  1  0  0  0  0
 37 30  1  0  0  0  0
 38 39  1  0  0  0  0
 39 36  2  0  0  0  0
M  END
>  <MODEL>
4

>  <REMARK>
 VINA RESULT:      -8.6      2.324      3.806
  Name = 
  9 active torsions:
  status: ('A' for Active; 'I' for Inactive)
    1  A    between atoms: O_1  and  C_35
    2  A    between atoms: O_1  and  C_37
    3  A    between atoms: N_2  and  N_16
    4  A    between atoms: C_3  and  C_20
    5  A    between atoms: C_5  and  C_35
    6  A    between atoms: N_6  and  C_7
    7  A    between atoms: N_6  and  N_11
    8  A    between atoms: N_11  and  C_28
    9  A    between atoms: C_23  and  C_37
                            x       y       z     vdW  Elec       q    Type
                         _______ _______ _______ _____ _____    ______ ____

>  <TORSDO>
F 9

$$$$
=
 OpenBabel11042421193D

 39 45  0  0  1  0  0  0  0  0999 V2000
  162.0570  209.5390  150.7080 C   0  0  2  0  0  3  0  0  0  0  0  0
  161.0840  207.6670  151.8740 C   0  0  1  0  0  3  0  0  0  0  0  0
  161.6110  208.6300  152.9240 C   0  0  0  0  0  2  0  0  0  0  0  0
  160.9810  208.4790  150.5960 C   0  0  0  0  0  2  0  0  0  0  0  0
  162.1810  209.8380  152.1910 C   0  0  0  0  0  2  0  0  0  0  0  0
  160.1690  214.0620  150.5480 N   0  0  0  0  0  2  0  0  0  0  0  0
  161.6580  213.3000  148.6240 C   0  0  1  0  0  3  0  0  0  0  0  0
  160.9800  214.3670  147.7840 C   0  0  0  0  0  1  0  0  0  0  0  0
  161.7230  210.7530  149.8880 C   0  0  0  0  0  0  0  0  0  0  0  0
  160.8810  213.0120  149.8910 C   0  0  0  0  0  0  0  0  0  0  0  0
  161.8130  212.0290  147.7850 C   0  0  0  0  0  2  0  0  0  0  0  0
  162.1900  210.8530  148.6370 C   0  0  0  0  0  3  0  0  0  0  0  0
  160.9690  211.8410  150.4590 N   0  0  0  0  0  0  0  0  0  0  0  0
  159.5260  213.8410  151.7730 N   0  0  0  0  0  2  0  0  0  0  0  0
  157.3930  214.0960  150.8660 O   0  0  0  0  0  0  0  0  0  0  0  0
  158.1050  213.8960  151.8840 C   0  0  0  0  0  0  0  0  0  0  0  0
  157.4630  213.7520  153.2170 C   0  0  0  0  0  2  0  0  0  0  0  0
  157.2020  212.3980  153.4600 O   0  0  0  0  0  0  0  0  0  0  0  0
  157.9200  212.0970  154.6180 C   0  0  0  0  0  2  0  0  0  0  0  0
  159.0490  211.1360  154.2790 C   0  0  2  0  0  3  0  0  0  0  0  0
  160.4970  211.8300  156.1780 C   0  0  0  0  0  2  0  0  0  0  0  0
  159.7550  210.6700  155.5390 C   0  0  2  0  0  3  0  0  0  0  0  0
  160.3910  211.7330  154.6680 C   0  0  1  0  0  3  0  0  0  0  0  0
  162.0430  206.5850  151.7040 N   0  0  0  0  0  2  0  0  0  0  0  0
  161.7180  205.9110  150.5170 N   0  0  0  0  0  2  0  0  0  0  0  0
  161.2780  203.8020  149.3080 C   0  0  0  0  0  0  0  0  0  0  0  0
  161.3010  203.5150  145.6760 C   0  0  0  0  0  3  0  0  0  0  0  0
  160.8330  201.7710  150.5180 N   0  0  0  0  0  0  0  0  0  0  0  0
  160.9750  202.4460  149.3500 C   0  0  0  0  0  0  0  0  0  0  0  0
  161.4180  204.2680  147.9920 C   0  0  0  0  0  0  0  0  0  0  0  0
  161.7330  205.5670  147.5800 C   0  0  0  0  0  3  0  0  0  0  0  0
  160.9680  202.4340  151.7020 C   0  0  0  0  0  3  0  0  0  0  0  0
  161.4140  204.5140  150.5120 C   0  0  0  0  0  0  0  0  0  0  0  0
  161.2550  203.8100  151.7200 C   0  0  0  0  0  3  0  0  0  0  0  0
  160.8660  201.7930  147.7970 S   0  0  0  0  0  0  0  0  0  0  0  0
  161.8310  205.8370  146.2060 C   0  0  0  0  0  3  0  0  0  0  0  0
  161.2160  203.2630  147.0440 C   0  0  0  0  0  0  0  0  0  0  0  0
  161.7080  205.0970  143.9360 F   0  0  0  0  0  0  0  0  0  0  0  0
  161.6120  204.8180  145.2580 C   0  0  0  0  0  0  0  0  0  0  0  0
  1  9  1  6  0  0  0
  1  5  1  0  0  0  0
  2 24  1  6  0  0  0
  2  3  1  0  0  0  0
  4  1  1  0  0  0  0
  4  2  1  0  0  0  0
  5  3  1  0  0  0  0
  6 14  1  0  0  0  0
  7  8  1  6  0  0  0
  7 10  1  0  0  0  0
  9 13  1  0  0  0  0
 10 13  2  0  0  0  0
 10  6  1  0  0  0  0
 11  7  1  0  0  0  0
 11 12  1  0  0  0  0
 12  9  2  0  0  0  0
 14 16  1  0  0  0  0
 15 16  2  0  0  0  0
 16 17  1  0  0  0  0
 17 18  1  0  0  0  0
 18 19  1  0  0  0  0
 20 19  1  1  0  0  0
 20 23  1  0  0  0  0
 20 22  1  0  0  0  0
 22 21  1  1  0  0  0
 23 22  1  0  0  0  0
 23 21  1  1  0  0  0
 25 24  1  0  0  0  0
 26 29  2  0  0  0  0
 26 33  1  0  0  0  0
 27 37  1  0  0  0  0
 28 32  2  0  0  0  0
 29 28  1  0  0  0  0
 30 26  1  0  0  0  0
 31 30  1  0  0  0  0
 32 34  1  0  0  0  0
 33 25  1  0  0  0  0
 33 34  2  0  0  0  0
 35 29  1  0  0  0  0
 36 31  2  0  0  0  0
 37 35  1  0  0  0  0
 37 30  2  0  0  0  0
 38 39  1  0  0  0  0
 39 27  2  0  0  0  0
 39 36  1  0  0  0  0
M  END
>  <MODEL>
5

>  <REMARK>
 VINA RESULT:      -8.5      1.298      3.922
  Name = 
  9 active torsions:
  status: ('A' for Active; 'I' for Inactive)
    1  A    between atoms: O_1  and  C_35
    2  A    between atoms: O_1  and  C_37
    3  A    between atoms: N_2  and  N_16
    4  A    between atoms: C_3  and  C_20
    5  A    between atoms: C_5  and  C_35
    6  A    between atoms: N_6  and  C_7
    7  A    between atoms: N_6  and  N_11
    8  A    between atoms: N_11  and  C_28
    9  A    between atoms: C_23  and  C_37
                            x       y       z     vdW  Elec       q    Type
                         _______ _______ _______ _____ _____    ______ ____

>  <TORSDO>
F 9

$$$$
=
 OpenBabel11042421193D

 39 45  0  0  1  0  0  0  0  0999 V2000
  160.9140  205.0230  150.4280 C   0  0  2  0  0  3  0  0  0  0  0  0
  162.0510  207.1330  150.6890 C   0  0  1  0  0  3  0  0  0  0  0  0
  162.5170  206.2250  151.8150 C   0  0  0  0  0  2  0  0  0  0  0  0
  161.4450  206.2090  149.6490 C   0  0  0  0  0  2  0  0  0  0  0  0
  161.8390  204.8750  151.6230 C   0  0  0  0  0  2  0  0  0  0  0  0
  161.8270  202.8980  146.1040 N   0  0  0  0  0  2  0  0  0  0  0  0
  161.3910  201.4040  148.1220 C   0  0  1  0  0  3  0  0  0  0  0  0
  161.0110  200.3160  147.1330 C   0  0  0  0  0  1  0  0  0  0  0  0
  160.8500  203.7880  149.5750 C   0  0  0  0  0  0  0  0  0  0  0  0
  161.4190  202.7670  147.4660 C   0  0  0  0  0  0  0  0  0  0  0  0
  160.3980  201.3850  149.2880 C   0  0  0  0  0  2  0  0  0  0  0  0
  160.5290  202.6150  150.1370 C   0  0  0  0  0  3  0  0  0  0  0  0
  161.2020  203.8390  148.1790 N   0  0  0  0  0  0  0  0  0  0  0  0
  161.9560  204.1600  145.5070 N   0  0  0  0  0  2  0  0  0  0  0  0
  159.9820  203.9440  144.2850 O   0  0  0  0  0  0  0  0  0  0  0  0
  160.9970  204.6340  144.5650 C   0  0  0  0  0  0  0  0  0  0  0  0
  161.2160  205.9350  143.8790 C   0  0  0  0  0  2  0  0  0  0  0  0
  162.1500  205.7620  142.8500 O   0  0  0  0  0  0  0  0  0  0  0  0
  161.5470  206.3200  141.7220 C   0  0  0  0  0  2  0  0  0  0  0  0
  162.5990  206.5530  140.6490 C   0  0  2  0  0  3  0  0  0  0  0  0
  161.2230  208.1660  139.3490 C   0  0  0  0  0  2  0  0  0  0  0  0
  162.5180  207.9710  140.1160 C   0  0  2  0  0  3  0  0  0  0  0  0
  161.9390  206.8290  139.3080 C   0  0  1  0  0  3  0  0  0  0  0  0
  161.0350  208.0400  151.2070 N   0  0  0  0  0  2  0  0  0  0  0  0
  161.6510  209.2800  151.4380 N   0  0  0  0  0  2  0  0  0  0  0  0
  160.3530  210.3100  153.2690 C   0  0  0  0  0  0  0  0  0  0  0  0
  159.6150  208.6260  156.4160 C   0  0  0  0  0  3  0  0  0  0  0  0
  159.5200  212.5580  153.0620 N   0  0  0  0  0  0  0  0  0  0  0  0
  159.6510  211.4030  153.7640 C   0  0  0  0  0  0  0  0  0  0  0  0
  160.3890  209.2510  154.1900 C   0  0  0  0  0  0  0  0  0  0  0  0
  161.0170  208.0100  154.0320 C   0  0  0  0  0  3  0  0  0  0  0  0
  160.0730  212.6580  151.8200 C   0  0  0  0  0  3  0  0  0  0  0  0
  160.9270  210.3820  151.9890 C   0  0  0  0  0  0  0  0  0  0  0  0
  160.7780  211.5780  151.2620 C   0  0  0  0  0  3  0  0  0  0  0  0
  159.0570  211.1020  155.3140 S   0  0  0  0  0  0  0  0  0  0  0  0
  160.9400  207.0760  155.0770 C   0  0  0  0  0  3  0  0  0  0  0  0
  159.7090  209.5450  155.3730 C   0  0  0  0  0  0  0  0  0  0  0  0
  160.1740  206.4640  157.2570 F   0  0  0  0  0  0  0  0  0  0  0  0
  160.2400  207.3790  156.2610 C   0  0  0  0  0  0  0  0  0  0  0  0
  1  9  1  6  0  0  0
  1  5  1  0  0  0  0
  2 24  1  1  0  0  0
  2  3  1  0  0  0  0
  4  1  1  0  0  0  0
  4  2  1  0  0  0  0
  5  3  1  0  0  0  0
  6 10  1  0  0  0  0
  7  8  1  6  0  0  0
  7 11  1  0  0  0  0
  9 12  2  0  0  0  0
 10  7  1  0  0  0  0
 10 13  2  0  0  0  0
 11 12  1  0  0  0  0
 13  9  1  0  0  0  0
 14  6  1  0  0  0  0
 15 16  2  0  0  0  0
 16 14  1  0  0  0  0
 17 16  1  0  0  0  0
 18 17  1  0  0  0  0
 19 18  1  0  0  0  0
 20 19  1  1  0  0  0
 22 21  1  1  0  0  0
 22 20  1  0  0  0  0
 23 21  1  1  0  0  0
 23 22  1  0  0  0  0
 23 20  1  0  0  0  0
 24 25  1  0  0  0  0
 25 33  1  0  0  0  0
 26 29  1  0  0  0  0
 26 30  1  0  0  0  0
 28 29  2  0  0  0  0
 29 35  1  0  0  0  0
 30 37  1  0  0  0  0
 31 30  2  0  0  0  0
 31 36  1  0  0  0  0
 32 28  1  0  0  0  0
 33 26  2  0  0  0  0
 34 32  2  0  0  0  0
 34 33  1  0  0  0  0
 35 37  1  0  0  0  0
 36 39  2  0  0  0  0
 37 27  2  0  0  0  0
 39 27  1  0  0  0  0
 39 38  1  0  0  0  0
M  END
>  <MODEL>
6

>  <REMARK>
 VINA RESULT:      -7.3      4.654      9.829
  Name = 
  9 active torsions:
  status: ('A' for Active; 'I' for Inactive)
    1  A    between atoms: O_1  and  C_35
    2  A    between atoms: O_1  and  C_37
    3  A    between atoms: N_2  and  N_16
    4  A    between atoms: C_3  and  C_20
    5  A    between atoms: C_5  and  C_35
    6  A    between atoms: N_6  and  C_7
    7  A    between atoms: N_6  and  N_11
    8  A    between atoms: N_11  and  C_28
    9  A    between atoms: C_23  and  C_37
                            x       y       z     vdW  Elec       q    Type
                         _______ _______ _______ _____ _____    ______ ____

>  <TORSDO>
F 9

$$$$
=
 OpenBabel11042421193D

 39 45  0  0  1  0  0  0  0  0999 V2000
  161.6720  206.8990  150.8860 C   0  0  2  0  0  3  0  0  0  0  0  0
  161.4250  207.8560  148.6870 C   0  0  1  0  0  3  0  0  0  0  0  0
  160.3880  206.7540  148.8200 C   0  0  0  0  0  2  0  0  0  0  0  0
  161.8490  208.1860  150.1070 C   0  0  0  0  0  2  0  0  0  0  0  0
  160.5080  206.1820  150.2270 C   0  0  0  0  0  2  0  0  0  0  0  0
  159.7830  209.8200  154.3430 N   0  0  0  0  0  2  0  0  0  0  0  0
  160.4000  207.4300  154.9780 C   0  0  1  0  0  3  0  0  0  0  0  0
  160.4770  207.9170  156.4140 C   0  0  0  0  0  1  0  0  0  0  0  0
  161.4480  207.1660  152.3480 C   0  0  0  0  0  0  0  0  0  0  0  0
  160.4080  208.5830  153.9980 C   0  0  0  0  0  0  0  0  0  0  0  0
  161.5740  206.4830  154.7100 C   0  0  0  0  0  2  0  0  0  0  0  0
  161.7310  206.2110  153.2430 C   0  0  0  0  0  3  0  0  0  0  0  0
  160.8640  208.4070  152.7870 N   0  0  0  0  0  0  0  0  0  0  0  0
  159.6910  210.8650  153.4140 N   0  0  0  0  0  2  0  0  0  0  0  0
  159.7580  212.5220  155.0540 O   0  0  0  0  0  0  0  0  0  0  0  0
  159.6570  212.2280  153.8350 C   0  0  0  0  0  0  0  0  0  0  0  0
  159.4610  213.3060  152.8290 C   0  0  0  0  0  2  0  0  0  0  0  0
  158.2170  213.1370  152.2090 O   0  0  0  0  0  0  0  0  0  0  0  0
  157.4720  214.2520  152.5930 C   0  0  0  0  0  2  0  0  0  0  0  0
  156.0610  213.8160  152.9570 C   0  0  2  0  0  3  0  0  0  0  0  0
  156.4410  213.8960  155.4140 C   0  0  0  0  0  2  0  0  0  0  0  0
  155.6220  214.4530  154.2630 C   0  0  2  0  0  3  0  0  0  0  0  0
  156.0690  213.0060  154.2430 C   0  0  1  0  0  3  0  0  0  0  0  0
  162.5600  207.3460  147.9310 N   0  0  0  0  0  2  0  0  0  0  0  0
  162.4530  205.9470  147.8960 N   0  0  0  0  0  2  0  0  0  0  0  0
  161.4860  203.9610  146.7920 C   0  0  0  0  0  0  0  0  0  0  0  0
  160.4620  200.9550  148.5790 C   0  0  0  0  0  3  0  0  0  0  0  0
  161.1360  203.9360  144.4110 N   0  0  0  0  0  0  0  0  0  0  0  0
  161.0750  203.3280  145.6230 C   0  0  0  0  0  0  0  0  0  0  0  0
  161.2870  203.1520  147.9220 C   0  0  0  0  0  0  0  0  0  0  0  0
  161.5720  203.4720  149.2540 C   0  0  0  0  0  3  0  0  0  0  0  0
  161.6340  205.2020  144.3150 C   0  0  0  0  0  3  0  0  0  0  0  0
  162.0110  205.2610  146.7220 C   0  0  0  0  0  0  0  0  0  0  0  0
  162.0820  205.8820  145.4610 C   0  0  0  0  0  3  0  0  0  0  0  0
  160.4740  201.7840  145.9390 S   0  0  0  0  0  0  0  0  0  0  0  0
  161.2980  202.5230  150.2510 C   0  0  0  0  0  3  0  0  0  0  0  0
  160.7320  201.9120  147.6030 C   0  0  0  0  0  0  0  0  0  0  0  0
  160.4940  200.3640  150.8910 F   0  0  0  0  0  0  0  0  0  0  0  0
  160.7500  201.2690  149.9160 C   0  0  0  0  0  0  0  0  0  0  0  0
  1  9  1  1  0  0  0
  2 24  1  6  0  0  0
  2  3  1  0  0  0  0
  2  4  1  0  0  0  0
  3  5  1  0  0  0  0
  4  1  1  0  0  0  0
  5  1  1  0  0  0  0
  7  8  1  1  0  0  0
  9 13  1  0  0  0  0
  9 12  2  0  0  0  0
 10  6  1  0  0  0  0
 10  7  1  0  0  0  0
 11  7  1  0  0  0  0
 12 11  1  0  0  0  0
 13 10  2  0  0  0  0
 14 16  1  0  0  0  0
 14  6  1  0  0  0  0
 16 15  2  0  0  0  0
 17 16  1  0  0  0  0
 18 19  1  0  0  0  0
 18 17  1  0  0  0  0
 20 19  1  1  0  0  0
 20 23  1  0  0  0  0
 20 22  1  0  0  0  0
 22 21  1  1  0  0  0
 23 22  1  0  0  0  0
 23 21  1  1  0  0  0
 25 24  1  0  0  0  0
 26 30  1  0  0  0  0
 27 39  1  0  0  0  0
 28 29  1  0  0  0  0
 29 35  1  0  0  0  0
 29 26  2  0  0  0  0
 30 31  2  0  0  0  0
 31 36  1  0  0  0  0
 32 28  2  0  0  0  0
 32 34  1  0  0  0  0
 33 26  1  0  0  0  0
 33 25  1  0  0  0  0
 34 33  2  0  0  0  0
 35 37  1  0  0  0  0
 37 30  1  0  0  0  0
 37 27  2  0  0  0  0
 39 36  2  0  0  0  0
 39 38  1  0  0  0  0
M  END
>  <MODEL>
7

>  <REMARK>
 VINA RESULT:      -7.3      2.773      4.908
  Name = 
  9 active torsions:
  status: ('A' for Active; 'I' for Inactive)
    1  A    between atoms: O_1  and  C_35
    2  A    between atoms: O_1  and  C_37
    3  A    between atoms: N_2  and  N_16
    4  A    between atoms: C_3  and  C_20
    5  A    between atoms: C_5  and  C_35
    6  A    between atoms: N_6  and  C_7
    7  A    between atoms: N_6  and  N_11
    8  A    between atoms: N_11  and  C_28
    9  A    between atoms: C_23  and  C_37
                            x       y       z     vdW  Elec       q    Type
                         _______ _______ _______ _____ _____    ______ ____

>  <TORSDO>
F 9

$$$$
=
 OpenBabel11042421193D

 39 45  0  0  1  0  0  0  0  0999 V2000
  160.8280  205.2970  150.8630 C   0  0  2  0  0  3  0  0  0  0  0  0
  161.8910  207.4500  151.0900 C   0  0  1  0  0  3  0  0  0  0  0  0
  162.3300  206.6010  152.2710 C   0  0  0  0  0  2  0  0  0  0  0  0
  161.3600  206.4680  150.0620 C   0  0  0  0  0  2  0  0  0  0  0  0
  161.7010  205.2240  152.1030 C   0  0  0  0  0  2  0  0  0  0  0  0
  161.7740  203.0850  146.5900 N   0  0  0  0  0  2  0  0  0  0  0  0
  161.5270  201.6410  148.6760 C   0  0  1  0  0  3  0  0  0  0  0  0
  161.2070  200.4880  147.7420 C   0  0  0  0  0  1  0  0  0  0  0  0
  160.8390  204.0280  150.0590 C   0  0  0  0  0  0  0  0  0  0  0  0
  161.4210  202.9760  147.9700 C   0  0  0  0  0  0  0  0  0  0  0  0
  160.5780  201.5870  149.8770 C   0  0  0  0  0  2  0  0  0  0  0  0
  160.6340  202.8570  150.6750 C   0  0  0  0  0  3  0  0  0  0  0  0
  161.1400  204.0530  148.6510 N   0  0  0  0  0  0  0  0  0  0  0  0
  161.7790  204.3290  145.9440 N   0  0  0  0  0  2  0  0  0  0  0  0
  160.1300  203.7040  144.4170 O   0  0  0  0  0  0  0  0  0  0  0  0
  160.9360  204.5820  144.8210 C   0  0  0  0  0  0  0  0  0  0  0  0
  161.0380  205.8790  144.1000 C   0  0  0  0  0  2  0  0  0  0  0  0
  162.1190  205.8290  143.2120 O   0  0  0  0  0  0  0  0  0  0  0  0
  161.5800  206.1730  141.9720 C   0  0  0  0  0  2  0  0  0  0  0  0
  162.7050  206.3730  140.9680 C   0  0  2  0  0  3  0  0  0  0  0  0
  161.4170  207.9230  139.5110 C   0  0  0  0  0  2  0  0  0  0  0  0
  162.6550  207.7690  140.3760 C   0  0  2  0  0  3  0  0  0  0  0  0
  162.1420  206.5920  139.5740 C   0  0  1  0  0  3  0  0  0  0  0  0
  160.8270  208.3450  151.5250 N   0  0  0  0  0  2  0  0  0  0  0  0
  161.4050  209.5970  151.7840 N   0  0  0  0  0  2  0  0  0  0  0  0
  160.5160  211.8670  151.3880 C   0  0  0  0  0  0  0  0  0  0  0  0
  161.2640  213.8390  148.4170 C   0  0  0  0  0  3  0  0  0  0  0  0
  159.0400  212.8960  152.9860 N   0  0  0  0  0  0  0  0  0  0  0  0
  159.7380  212.9350  151.8230 C   0  0  0  0  0  0  0  0  0  0  0  0
  161.1060  212.1220  150.1410 C   0  0  0  0  0  0  0  0  0  0  0  0
  161.9330  211.2690  149.4030 C   0  0  0  0  0  3  0  0  0  0  0  0
  159.1080  211.7880  153.7780 C   0  0  0  0  0  3  0  0  0  0  0  0
  160.6120  210.7160  152.1870 C   0  0  0  0  0  0  0  0  0  0  0  0
  159.8940  210.6860  153.3980 C   0  0  0  0  0  3  0  0  0  0  0  0
  159.7590  214.2030  150.7100 S   0  0  0  0  0  0  0  0  0  0  0  0
  162.4270  211.7090  148.1650 C   0  0  0  0  0  3  0  0  0  0  0  0
  160.7760  213.3830  149.6400 C   0  0  0  0  0  0  0  0  0  0  0  0
  162.5860  213.3970  146.4800 F   0  0  0  0  0  0  0  0  0  0  0  0
  162.0980  212.9880  147.6760 C   0  0  0  0  0  0  0  0  0  0  0  0
  1  9  1  6  0  0  0
  1  5  1  0  0  0  0
  2 24  1  1  0  0  0
  2  3  1  0  0  0  0
  4  1  1  0  0  0  0
  4  2  1  0  0  0  0
  5  3  1  0  0  0  0
  6 10  1  0  0  0  0
  7  8  1  6  0  0  0
  7 11  1  0  0  0  0
  9 12  2  0  0  0  0
 10 13  2  0  0  0  0
 10  7  1  0  0  0  0
 11 12  1  0  0  0  0
 13  9  1  0  0  0  0
 14  6  1  0  0  0  0
 15 16  2  0  0  0  0
 16 14  1  0  0  0  0
 17 16  1  0  0  0  0
 18 17  1  0  0  0  0
 19 18  1  0  0  0  0
 20 19  1  1  0  0  0
 22 21  1  1  0  0  0
 22 20  1  0  0  0  0
 23 21  1  1  0  0  0
 23 22  1  0  0  0  0
 23 20  1  0  0  0  0
 24 25  1  0  0  0  0
 25 33  1  0  0  0  0
 26 29  2  0  0  0  0
 26 33  1  0  0  0  0
 27 37  1  0  0  0  0
 28 32  2  0  0  0  0
 29 28  1  0  0  0  0
 30 26  1  0  0  0  0
 31 30  1  0  0  0  0
 33 34  2  0  0  0  0
 34 32  1  0  0  0  0
 35 29  1  0  0  0  0
 36 31  2  0  0  0  0
 37 30  2  0  0  0  0
 37 35  1  0  0  0  0
 38 39  1  0  0  0  0
 39 36  1  0  0  0  0
 39 27  2  0  0  0  0
M  END
>  <MODEL>
8

>  <REMARK>
 VINA RESULT:      -7.2      4.180      9.311
  Name = 
  9 active torsions:
  status: ('A' for Active; 'I' for Inactive)
    1  A    between atoms: O_1  and  C_35
    2  A    between atoms: O_1  and  C_37
    3  A    between atoms: N_2  and  N_16
    4  A    between atoms: C_3  and  C_20
    5  A    between atoms: C_5  and  C_35
    6  A    between atoms: N_6  and  C_7
    7  A    between atoms: N_6  and  N_11
    8  A    between atoms: N_11  and  C_28
    9  A    between atoms: C_23  and  C_37
                            x       y       z     vdW  Elec       q    Type
                         _______ _______ _______ _____ _____    ______ ____

>  <TORSDO>
F 9

$$$$
=
 OpenBabel11042421193D

 39 45  0  0  1  0  0  0  0  0999 V2000
  161.2280  206.4740  147.4150 C   0  0  2  0  0  3  0  0  0  0  0  0
  162.4860  207.9430  148.8560 C   0  0  1  0  0  3  0  0  0  0  0  0
  161.2220  207.5500  149.6020 C   0  0  0  0  0  2  0  0  0  0  0  0
  162.6380  206.9150  147.7500 C   0  0  0  0  0  2  0  0  0  0  0  0
  160.4500  206.5820  148.7140 C   0  0  0  0  0  2  0  0  0  0  0  0
  161.1820  201.6300  148.1760 N   0  0  0  0  0  2  0  0  0  0  0  0
  160.5020  202.5050  145.8800 C   0  0  1  0  0  3  0  0  0  0  0  0
  160.8520  201.1280  145.3430 C   0  0  0  0  0  1  0  0  0  0  0  0
  161.2060  205.0920  146.8280 C   0  0  0  0  0  0  0  0  0  0  0  0
  161.0770  202.7240  147.2630 C   0  0  0  0  0  0  0  0  0  0  0  0
  161.0200  203.5660  144.9050 C   0  0  0  0  0  2  0  0  0  0  0  0
  160.9810  204.9360  145.5180 C   0  0  0  0  0  3  0  0  0  0  0  0
  161.3510  203.9330  147.6720 N   0  0  0  0  0  0  0  0  0  0  0  0
  161.6170  201.8300  149.4930 N   0  0  0  0  0  2  0  0  0  0  0  0
  159.5700  202.7020  150.1910 O   0  0  0  0  0  0  0  0  0  0  0  0
  160.7590  202.4050  150.4770 C   0  0  0  0  0  0  0  0  0  0  0  0
  161.2850  202.6920  151.8380 C   0  0  0  0  0  2  0  0  0  0  0  0
  161.9480  203.9250  151.8250 O   0  0  0  0  0  0  0  0  0  0  0  0
  161.2010  204.7420  152.6750 C   0  0  0  0  0  2  0  0  0  0  0  0
  161.8540  206.1130  152.7640 C   0  0  2  0  0  3  0  0  0  0  0  0
  160.4250  206.9080  154.6370 C   0  0  0  0  0  2  0  0  0  0  0  0
  161.8480  206.6200  154.1940 C   0  0  2  0  0  3  0  0  0  0  0  0
  160.8410  207.1580  153.2000 C   0  0  1  0  0  3  0  0  0  0  0  0
  162.3020  209.2700  148.2840 N   0  0  0  0  0  2  0  0  0  0  0  0
  162.0270  210.1530  149.3410 N   0  0  0  0  0  2  0  0  0  0  0  0
  160.8860  212.2280  150.0410 C   0  0  0  0  0  0  0  0  0  0  0  0
  159.1550  212.6050  153.2250 C   0  0  0  0  0  3  0  0  0  0  0  0
  160.8960  214.1670  148.6170 N   0  0  0  0  0  0  0  0  0  0  0  0
  160.5230  213.5410  149.7620 C   0  0  0  0  0  0  0  0  0  0  0  0
  160.4230  211.8140  151.2990 C   0  0  0  0  0  0  0  0  0  0  0  0
  160.6160  210.5670  151.9060 C   0  0  0  0  0  3  0  0  0  0  0  0
  161.6330  213.4940  147.6880 C   0  0  0  0  0  3  0  0  0  0  0  0
  161.6380  211.5070  149.0990 C   0  0  0  0  0  0  0  0  0  0  0  0
  162.0120  212.1580  147.9090 C   0  0  0  0  0  3  0  0  0  0  0  0
  159.6340  214.2150  151.0270 S   0  0  0  0  0  0  0  0  0  0  0  0
  160.0720  210.3440  153.1810 C   0  0  0  0  0  3  0  0  0  0  0  0
  159.7090  212.8120  151.9640 C   0  0  0  0  0  0  0  0  0  0  0  0
  158.8220  211.1210  155.0640 F   0  0  0  0  0  0  0  0  0  0  0  0
  159.3420  211.3550  153.8360 C   0  0  0  0  0  0  0  0  0  0  0  0
  1  9  1  1  0  0  0
  1  4  1  0  0  0  0
  1  5  1  0  0  0  0
  2 24  1  6  0  0  0
  2  3  1  0  0  0  0
  4  2  1  0  0  0  0
  5  3  1  0  0  0  0
  6 14  1  0  0  0  0
  7  8  1  6  0  0  0
  7 10  1  0  0  0  0
  9 13  1  0  0  0  0
 10 13  2  0  0  0  0
 10  6  1  0  0  0  0
 11 12  1  0  0  0  0
 11  7  1  0  0  0  0
 12  9  2  0  0  0  0
 14 16  1  0  0  0  0
 15 16  2  0  0  0  0
 16 17  1  0  0  0  0
 18 17  1  0  0  0  0
 18 19  1  0  0  0  0
 20 19  1  1  0  0  0
 20 23  1  0  0  0  0
 20 22  1  0  0  0  0
 22 21  1  1  0  0  0
 23 22  1  0  0  0  0
 23 21  1  1  0  0  0
 24 25  1  0  0  0  0
 26 30  1  0  0  0  0
 27 39  1  0  0  0  0
 28 29  2  0  0  0  0
 29 26  1  0  0  0  0
 29 35  1  0  0  0  0
 30 31  2  0  0  0  0
 30 37  1  0  0  0  0
 31 36  1  0  0  0  0
 32 34  2  0  0  0  0
 32 28  1  0  0  0  0
 33 25  1  0  0  0  0
 33 26  2  0  0  0  0
 34 33  1  0  0  0  0
 35 37  1  0  0  0  0
 36 39  2  0  0  0  0
 37 27  2  0  0  0  0
 39 38  1  0  0  0  0
M  END
>  <MODEL>
9

>  <REMARK>
 VINA RESULT:      -7.1      4.284     10.002
  Name = 
  9 active torsions:
  status: ('A' for Active; 'I' for Inactive)
    1  A    between atoms: O_1  and  C_35
    2  A    between atoms: O_1  and  C_37
    3  A    between atoms: N_2  and  N_16
    4  A    between atoms: C_3  and  C_20
    5  A    between atoms: C_5  and  C_35
    6  A    between atoms: N_6  and  C_7
    7  A    between atoms: N_6  and  N_11
    8  A    between atoms: N_11  and  C_28
    9  A    between atoms: C_23  and  C_37
                            x       y       z     vdW  Elec       q    Type
                         _______ _______ _______ _____ _____    ______ ____

>  <TORSDO>
F 9

$$$$
