=
 OpenBabel11042421043D

 36 39  0  0  0  0  0  0  0  0999 V2000
  160.6960  206.6200  150.9800 C   0  0  0  0  0  3  0  0  0  0  0  0
  161.1970  207.8570  150.9860 C   0  0  0  0  0  0  0  0  0  0  0  0
  161.3000  210.8140  153.3670 C   0  0  0  0  0  3  0  0  0  0  0  0
  161.0480  208.7840  154.6530 C   0  0  0  0  0  3  0  0  0  0  0  0
  161.1870  208.6650  152.2280 C   0  0  0  0  0  0  0  0  0  0  0  0
  161.3100  210.0650  152.1870 C   0  0  0  0  0  3  0  0  0  0  0  0
  161.1680  210.1810  154.6050 C   0  0  0  0  0  0  0  0  0  0  0  0
  161.0580  208.0350  153.4730 C   0  0  0  0  0  3  0  0  0  0  0  0
  161.1580  210.9580  155.7660 O   0  0  0  0  0  0  0  0  0  0  0  0
  163.2680  210.8610  156.8990 C   0  0  0  0  0  1  0  0  0  0  0  0
  161.7890  210.5440  156.9700 C   0  0  0  0  0  2  0  0  0  0  0  0
  161.9500  212.1310  148.3160 C   0  0  0  0  0  3  0  0  0  0  0  0
  162.0600  209.5890  148.8670 C   0  0  0  0  0  0  0  0  0  0  0  0
  162.4330  208.2860  148.5770 C   0  0  0  0  0  2  0  0  0  0  0  0
  162.0070  210.8590  148.5890 C   0  0  0  0  0  0  0  0  0  0  0  0
  161.7520  208.4060  149.7870 N   0  0  0  0  0  0  0  0  0  0  0  0
  160.6940  212.7190  147.7720 C   0  0  0  0  0  2  0  0  0  0  0  0
  156.4750  214.1850  149.7600 O   0  0  0  0  0  0  0  0  0  0  0  0
  159.5440  213.4830  151.3930 C   0  0  0  0  0  3  0  0  0  0  0  0
  158.4940  213.4530  148.7050 C   0  0  0  0  0  0  0  0  0  0  0  0
  160.4860  213.3750  150.2270 C   0  0  0  0  0  2  0  0  0  0  0  0
  158.2470  213.7230  151.2330 C   0  0  0  0  0  3  0  0  0  0  0  0
  157.6730  213.8160  149.8880 C   0  0  0  0  0  0  0  0  0  0  0  0
  159.8090  213.1790  148.8870 C   0  0  0  0  0  0  0  0  0  0  0  0
  157.8300  213.3410  147.3770 C   0  0  0  0  0  0  0  0  0  0  0  0
  157.7800  214.4490  146.4810 N   0  0  0  0  0  1  0  0  0  0  0  0
  157.2610  212.2680  147.0470 O   0  0  0  0  0  0  0  0  0  0  0  0
  161.5590  203.9310  150.8670 O   0  0  0  0  0  0  0  0  0  0  0  0
  161.1520  204.4630  149.7970 C   0  0  0  0  0  0  0  0  0  0  0  0
  160.7040  205.8200  149.7990 N   0  0  0  0  0  2  0  0  0  0  0  0
  160.8060  202.3330  148.5440 C   0  0  0  0  0  3  0  0  0  0  0  0
  161.5010  204.3070  147.3330 C   0  0  0  0  0  3  0  0  0  0  0  0
  161.1580  202.2220  146.1510 C   0  0  0  0  0  3  0  0  0  0  0  0
  161.1520  203.6910  148.5420 C   0  0  0  0  0  0  0  0  0  0  0  0
  161.5040  203.5750  146.1410 C   0  0  0  0  0  3  0  0  0  0  0  0
  160.8100  201.6000  147.3530 C   0  0  0  0  0  3  0  0  0  0  0  0
  1  2  2  0  0  0  0
  2  5  1  0  0  0  0
  3  7  1  0  0  0  0
  5  8  2  0  0  0  0
  6  5  1  0  0  0  0
  6  3  2  0  0  0  0
  7  4  2  0  0  0  0
  7  9  1  0  0  0  0
  8  4  1  0  0  0  0
  9 11  1  0  0  0  0
 10 11  1  0  0  0  0
 12 15  2  0  0  0  0
 13 16  1  0  0  0  0
 14 13  1  0  0  0  0
 14 16  1  0  0  0  0
 15 13  2  0  0  0  0
 16  2  1  0  0  0  0
 17 12  1  0  0  0  0
 17 24  1  0  0  0  0
 18 23  2  0  0  0  0
 20 24  2  0  0  0  0
 20 23  1  0  0  0  0
 21 19  1  0  0  0  0
 22 19  2  0  0  0  0
 23 22  1  0  0  0  0
 24 21  1  0  0  0  0
 25 20  1  0  0  0  0
 26 25  1  0  0  0  0
 27 25  2  0  0  0  0
 29 30  1  0  0  0  0
 29 28  2  0  0  0  0
 30  1  1  0  0  0  0
 32 34  2  0  0  0  0
 33 36  1  0  0  0  0
 34 31  1  0  0  0  0
 34 29  1  0  0  0  0
 35 33  2  0  0  0  0
 35 32  1  0  0  0  0
 36 31  2  0  0  0  0
M  END
>  <MODEL>
1

>  <REMARK>
 VINA RESULT:      -8.4      0.000      0.000
  Name = 
  9 active torsions:
  status: ('A' for Active; 'I' for Inactive)
    1  A    between atoms: C_3  and  C_33
    2  A    between atoms: C_7  and  C_12
    3  A    between atoms: C_13  and  N_30
    4  A    between atoms: C_14  and  O_15
    5  A    between atoms: O_15  and  C_22
    6  A    between atoms: C_16  and  C_31
    7  A    between atoms: C_19  and  C_24
    8  A    between atoms: C_31  and  N_32
    9  A    between atoms: C_33  and  C_34
                            x       y       z     vdW  Elec       q    Type
                         _______ _______ _______ _____ _____    ______ ____

>  <TORSDO>
F 9

$$$$
=
 OpenBabel11042421043D

 36 39  0  0  0  0  0  0  0  0999 V2000
  160.8870  206.5970  151.7400 C   0  0  0  0  0  3  0  0  0  0  0  0
  161.1580  207.8770  151.4780 C   0  0  0  0  0  0  0  0  0  0  0  0
  161.1130  209.5120  154.9060 C   0  0  0  0  0  3  0  0  0  0  0  0
  160.8110  211.2180  153.2220 C   0  0  0  0  0  3  0  0  0  0  0  0
  161.0790  208.8970  152.5500 C   0  0  0  0  0  0  0  0  0  0  0  0
  161.1900  208.5390  153.9050 C   0  0  0  0  0  3  0  0  0  0  0  0
  160.9250  210.8550  154.5720 C   0  0  0  0  0  0  0  0  0  0  0  0
  160.8880  210.2460  152.2220 C   0  0  0  0  0  3  0  0  0  0  0  0
  160.8570  211.8040  155.5950 O   0  0  0  0  0  0  0  0  0  0  0  0
  158.5320  211.9800  156.1520 C   0  0  0  0  0  1  0  0  0  0  0  0
  159.7780  212.7220  155.7180 C   0  0  0  0  0  2  0  0  0  0  0  0
  162.3000  211.8220  148.4630 C   0  0  0  0  0  3  0  0  0  0  0  0
  161.9010  209.3360  149.1210 C   0  0  0  0  0  0  0  0  0  0  0  0
  161.8580  207.9820  148.8290 C   0  0  0  0  0  2  0  0  0  0  0  0
  162.1010  210.5780  148.7890 C   0  0  0  0  0  0  0  0  0  0  0  0
  161.5340  208.2690  150.1540 N   0  0  0  0  0  0  0  0  0  0  0  0
  161.1400  212.7140  148.1870 C   0  0  0  0  0  2  0  0  0  0  0  0
  159.1650  214.3460  144.0230 O   0  0  0  0  0  0  0  0  0  0  0  0
  162.5980  213.9460  144.8150 C   0  0  0  0  0  3  0  0  0  0  0  0
  160.0450  213.5530  146.1020 C   0  0  0  0  0  0  0  0  0  0  0  0
  162.5220  213.1550  146.0910 C   0  0  0  0  0  2  0  0  0  0  0  0
  161.5100  214.3460  144.1660 C   0  0  0  0  0  3  0  0  0  0  0  0
  160.1800  214.0880  144.7230 C   0  0  0  0  0  0  0  0  0  0  0  0
  161.1670  213.1790  146.7660 C   0  0  0  0  0  0  0  0  0  0  0  0
  158.6940  213.5080  146.7260 C   0  0  0  0  0  0  0  0  0  0  0  0
  157.7950  212.4340  146.4620 N   0  0  0  0  0  1  0  0  0  0  0  0
  158.3110  214.4520  147.4660 O   0  0  0  0  0  0  0  0  0  0  0  0
  160.6550  203.8190  152.2020 O   0  0  0  0  0  0  0  0  0  0  0  0
  160.8430  204.2030  151.0150 C   0  0  0  0  0  0  0  0  0  0  0  0
  160.9660  205.5970  150.7250 N   0  0  0  0  0  2  0  0  0  0  0  0
  160.8190  201.8450  150.1970 C   0  0  0  0  0  3  0  0  0  0  0  0
  161.1840  203.6340  148.6110 C   0  0  0  0  0  3  0  0  0  0  0  0
  161.1580  201.3340  147.8540 C   0  0  0  0  0  3  0  0  0  0  0  0
  160.9490  203.2150  149.9270 C   0  0  0  0  0  0  0  0  0  0  0  0
  161.2880  202.6970  147.5780 C   0  0  0  0  0  3  0  0  0  0  0  0
  160.9240  200.9080  149.1640 C   0  0  0  0  0  3  0  0  0  0  0  0
  2  1  2  0  0  0  0
  2  5  1  0  0  0  0
  4  7  2  0  0  0  0
  5  6  1  0  0  0  0
  6  3  2  0  0  0  0
  7  3  1  0  0  0  0
  7  9  1  0  0  0  0
  8  5  2  0  0  0  0
  8  4  1  0  0  0  0
  9 11  1  0  0  0  0
 11 10  1  0  0  0  0
 12 15  2  0  0  0  0
 13 16  1  0  0  0  0
 14 13  1  0  0  0  0
 14 16  1  0  0  0  0
 15 13  2  0  0  0  0
 16  2  1  0  0  0  0
 17 12  1  0  0  0  0
 18 23  2  0  0  0  0
 19 21  1  0  0  0  0
 20 25  1  0  0  0  0
 20 24  2  0  0  0  0
 21 24  1  0  0  0  0
 22 23  1  0  0  0  0
 22 19  2  0  0  0  0
 23 20  1  0  0  0  0
 24 17  1  0  0  0  0
 25 27  2  0  0  0  0
 26 25  1  0  0  0  0
 29 28  2  0  0  0  0
 30 29  1  0  0  0  0
 30  1  1  0  0  0  0
 32 34  2  0  0  0  0
 33 36  1  0  0  0  0
 34 31  1  0  0  0  0
 34 29  1  0  0  0  0
 35 33  2  0  0  0  0
 35 32  1  0  0  0  0
 36 31  2  0  0  0  0
M  END
>  <MODEL>
2

>  <REMARK>
 VINA RESULT:      -8.3      1.852      2.984
  Name = 
  9 active torsions:
  status: ('A' for Active; 'I' for Inactive)
    1  A    between atoms: C_3  and  C_33
    2  A    between atoms: C_7  and  C_12
    3  A    between atoms: C_13  and  N_30
    4  A    between atoms: C_14  and  O_15
    5  A    between atoms: O_15  and  C_22
    6  A    between atoms: C_16  and  C_31
    7  A    between atoms: C_19  and  C_24
    8  A    between atoms: C_31  and  N_32
    9  A    between atoms: C_33  and  C_34
                            x       y       z     vdW  Elec       q    Type
                         _______ _______ _______ _____ _____    ______ ____

>  <TORSDO>
F 9

$$$$
=
 OpenBabel11042421043D

 36 39  0  0  0  0  0  0  0  0999 V2000
  160.3750  213.0120  150.6840 C   0  0  0  0  0  3  0  0  0  0  0  0
  161.0970  212.2500  149.8600 C   0  0  0  0  0  0  0  0  0  0  0  0
  163.0660  212.8840  146.6750 C   0  0  0  0  0  3  0  0  0  0  0  0
  160.9580  214.0580  146.5380 C   0  0  0  0  0  3  0  0  0  0  0  0
  161.4820  212.7480  148.5190 C   0  0  0  0  0  0  0  0  0  0  0  0
  162.7160  212.4060  147.9410 C   0  0  0  0  0  3  0  0  0  0  0  0
  162.1910  213.7100  145.9660 C   0  0  0  0  0  0  0  0  0  0  0  0
  160.6090  213.5800  147.8030 C   0  0  0  0  0  3  0  0  0  0  0  0
  162.5670  214.1680  144.7010 O   0  0  0  0  0  0  0  0  0  0  0  0
  162.2340  212.5200  142.9920 C   0  0  0  0  0  1  0  0  0  0  0  0
  163.2450  213.3470  143.7590 C   0  0  0  0  0  2  0  0  0  0  0  0
  162.3830  207.5810  148.2760 C   0  0  0  0  0  3  0  0  0  0  0  0
  161.9200  209.5020  149.9700 C   0  0  0  0  0  0  0  0  0  0  0  0
  161.8560  210.0150  151.2560 C   0  0  0  0  0  2  0  0  0  0  0  0
  162.1520  208.5400  149.1260 C   0  0  0  0  0  0  0  0  0  0  0  0
  161.5090  210.9440  150.2770 N   0  0  0  0  0  0  0  0  0  0  0  0
  161.2470  206.8210  147.6860 C   0  0  0  0  0  2  0  0  0  0  0  0
  161.3910  201.9480  148.0510 O   0  0  0  0  0  0  0  0  0  0  0  0
  160.6940  204.3200  150.5930 C   0  0  0  0  0  3  0  0  0  0  0  0
  161.3590  204.3260  147.7840 C   0  0  0  0  0  0  0  0  0  0  0  0
  160.5210  205.5780  149.7900 C   0  0  0  0  0  2  0  0  0  0  0  0
  160.9960  203.1560  150.0260 C   0  0  0  0  0  3  0  0  0  0  0  0
  161.2490  203.0790  148.5860 C   0  0  0  0  0  0  0  0  0  0  0  0
  161.0790  205.5090  148.3840 C   0  0  0  0  0  0  0  0  0  0  0  0
  161.8340  204.2340  146.3770 C   0  0  0  0  0  0  0  0  0  0  0  0
  163.1200  204.7170  145.9980 N   0  0  0  0  0  1  0  0  0  0  0  0
  161.0770  203.7640  145.4870 O   0  0  0  0  0  0  0  0  0  0  0  0
  157.7680  213.1930  151.7600 O   0  0  0  0  0  0  0  0  0  0  0  0
  158.6660  212.6740  152.4800 C   0  0  0  0  0  0  0  0  0  0  0  0
  160.0010  212.5560  151.9840 N   0  0  0  0  0  2  0  0  0  0  0  0
  157.1840  212.6470  154.4880 C   0  0  0  0  0  3  0  0  0  0  0  0
  159.1940  211.3000  154.4930 C   0  0  0  0  0  3  0  0  0  0  0  0
  157.7330  211.3010  156.4250 C   0  0  0  0  0  3  0  0  0  0  0  0
  158.3430  212.2000  153.8370 C   0  0  0  0  0  0  0  0  0  0  0  0
  158.8900  210.8520  155.7830 C   0  0  0  0  0  3  0  0  0  0  0  0
  156.8810  212.1990  155.7780 C   0  0  0  0  0  3  0  0  0  0  0  0
  1 30  1  0  0  0  0
  2 16  1  0  0  0  0
  2  1  2  0  0  0  0
  3  6  1  0  0  0  0
  4  8  2  0  0  0  0
  5  2  1  0  0  0  0
  6  5  2  0  0  0  0
  7  4  1  0  0  0  0
  7  3  2  0  0  0  0
  8  5  1  0  0  0  0
  9  7  1  0  0  0  0
 10 11  1  0  0  0  0
 11  9  1  0  0  0  0
 12 15  2  0  0  0  0
 13 16  1  0  0  0  0
 13 14  1  0  0  0  0
 15 13  2  0  0  0  0
 16 14  1  0  0  0  0
 17 12  1  0  0  0  0
 17 24  1  0  0  0  0
 18 23  2  0  0  0  0
 20 24  2  0  0  0  0
 20 23  1  0  0  0  0
 21 19  1  0  0  0  0
 22 19  2  0  0  0  0
 23 22  1  0  0  0  0
 24 21  1  0  0  0  0
 25 20  1  0  0  0  0
 26 25  1  0  0  0  0
 27 25  2  0  0  0  0
 28 29  2  0  0  0  0
 29 34  1  0  0  0  0
 30 29  1  0  0  0  0
 31 36  1  0  0  0  0
 32 35  2  0  0  0  0
 34 31  2  0  0  0  0
 34 32  1  0  0  0  0
 35 33  1  0  0  0  0
 36 33  2  0  0  0  0
M  END
>  <MODEL>
3

>  <REMARK>
 VINA RESULT:      -7.8      2.879      9.433
  Name = 
  9 active torsions:
  status: ('A' for Active; 'I' for Inactive)
    1  A    between atoms: C_3  and  C_33
    2  A    between atoms: C_7  and  C_12
    3  A    between atoms: C_13  and  N_30
    4  A    between atoms: C_14  and  O_15
    5  A    between atoms: O_15  and  C_22
    6  A    between atoms: C_16  and  C_31
    7  A    between atoms: C_19  and  C_24
    8  A    between atoms: C_31  and  N_32
    9  A    between atoms: C_33  and  C_34
                            x       y       z     vdW  Elec       q    Type
                         _______ _______ _______ _____ _____    ______ ____

>  <TORSDO>
F 9

$$$$
=
 OpenBabel11042421043D

 36 39  0  0  0  0  0  0  0  0999 V2000
  161.9920  208.4860  148.5830 C   0  0  0  0  0  3  0  0  0  0  0  0
  161.9580  209.6820  149.1730 C   0  0  0  0  0  0  0  0  0  0  0  0
  161.0370  212.4080  146.6950 C   0  0  0  0  0  3  0  0  0  0  0  0
  163.1400  212.9790  147.7390 C   0  0  0  0  0  3  0  0  0  0  0  0
  162.0030  210.9220  148.3630 C   0  0  0  0  0  0  0  0  0  0  0  0
  160.9800  211.2350  147.4520 C   0  0  0  0  0  3  0  0  0  0  0  0
  162.1130  213.2870  146.8330 C   0  0  0  0  0  0  0  0  0  0  0  0
  163.0830  211.8070  148.4960 C   0  0  0  0  0  3  0  0  0  0  0  0
  162.1390  214.4530  146.0640 O   0  0  0  0  0  0  0  0  0  0  0  0
  162.9280  213.5040  144.0090 C   0  0  0  0  0  1  0  0  0  0  0  0
  161.9370  214.4480  144.6570 C   0  0  0  0  0  2  0  0  0  0  0  0
  159.1150  211.2840  153.0860 C   0  0  0  0  0  3  0  0  0  0  0  0
  161.1420  210.1860  151.8780 C   0  0  0  0  0  0  0  0  0  0  0  0
  162.3670  209.5360  151.8810 C   0  0  0  0  0  2  0  0  0  0  0  0
  160.1300  210.7340  152.4850 C   0  0  0  0  0  0  0  0  0  0  0  0
  161.8710  209.7700  150.5990 N   0  0  0  0  0  0  0  0  0  0  0  0
  159.0230  212.7670  153.1850 C   0  0  0  0  0  2  0  0  0  0  0  0
  154.3840  214.2810  153.4960 O   0  0  0  0  0  0  0  0  0  0  0  0
  156.4560  214.1310  150.6220 C   0  0  0  0  0  3  0  0  0  0  0  0
  156.6590  213.5390  153.4390 C   0  0  0  0  0  0  0  0  0  0  0  0
  157.6180  213.3260  151.1310 C   0  0  0  0  0  2  0  0  0  0  0  0
  155.4260  214.4530  151.3970 C   0  0  0  0  0  3  0  0  0  0  0  0
  155.4290  214.0930  152.8170 C   0  0  0  0  0  0  0  0  0  0  0  0
  157.7140  213.2440  152.6400 C   0  0  0  0  0  0  0  0  0  0  0  0
  156.7090  213.3890  154.9190 C   0  0  0  0  0  0  0  0  0  0  0  0
  157.1850  214.4430  155.7530 N   0  0  0  0  0  1  0  0  0  0  0  0
  156.3690  212.3010  155.4530 O   0  0  0  0  0  0  0  0  0  0  0  0
  160.2230  206.3430  148.0700 O   0  0  0  0  0  0  0  0  0  0  0  0
  161.0230  206.2250  149.0400 C   0  0  0  0  0  0  0  0  0  0  0  0
  161.9400  207.2790  149.3420 N   0  0  0  0  0  2  0  0  0  0  0  0
  161.1100  205.0990  151.2660 C   0  0  0  0  0  3  0  0  0  0  0  0
  160.8820  203.7470  149.2730 C   0  0  0  0  0  3  0  0  0  0  0  0
  160.9730  202.6880  151.4490 C   0  0  0  0  0  3  0  0  0  0  0  0
  161.0040  205.0080  149.8710 C   0  0  0  0  0  0  0  0  0  0  0  0
  160.8670  202.5900  150.0600 C   0  0  0  0  0  3  0  0  0  0  0  0
  161.0950  203.9420  152.0520 C   0  0  0  0  0  3  0  0  0  0  0  0
  1  2  2  0  0  0  0
  1 30  1  0  0  0  0
  2 16  1  0  0  0  0
  3  7  2  0  0  0  0
  3  6  1  0  0  0  0
  4  8  2  0  0  0  0
  5  8  1  0  0  0  0
  5  2  1  0  0  0  0
  6  5  2  0  0  0  0
  7  4  1  0  0  0  0
  9  7  1  0  0  0  0
 10 11  1  0  0  0  0
 11  9  1  0  0  0  0
 12 17  1  0  0  0  0
 13 14  1  0  0  0  0
 13 15  2  0  0  0  0
 15 12  2  0  0  0  0
 16 13  1  0  0  0  0
 16 14  1  0  0  0  0
 19 21  1  0  0  0  0
 19 22  2  0  0  0  0
 20 25  1  0  0  0  0
 21 24  1  0  0  0  0
 22 23  1  0  0  0  0
 23 20  1  0  0  0  0
 23 18  2  0  0  0  0
 24 17  1  0  0  0  0
 24 20  2  0  0  0  0
 25 27  2  0  0  0  0
 25 26  1  0  0  0  0
 28 29  2  0  0  0  0
 29 30  1  0  0  0  0
 29 34  1  0  0  0  0
 31 36  1  0  0  0  0
 32 34  1  0  0  0  0
 32 35  2  0  0  0  0
 33 36  2  0  0  0  0
 34 31  2  0  0  0  0
 35 33  1  0  0  0  0
M  END
>  <MODEL>
4

>  <REMARK>
 VINA RESULT:      -7.5      2.960      5.981
  Name = 
  9 active torsions:
  status: ('A' for Active; 'I' for Inactive)
    1  A    between atoms: C_3  and  C_33
    2  A    between atoms: C_7  and  C_12
    3  A    between atoms: C_13  and  N_30
    4  A    between atoms: C_14  and  O_15
    5  A    between atoms: O_15  and  C_22
    6  A    between atoms: C_16  and  C_31
    7  A    between atoms: C_19  and  C_24
    8  A    between atoms: C_31  and  N_32
    9  A    between atoms: C_33  and  C_34
                            x       y       z     vdW  Elec       q    Type
                         _______ _______ _______ _____ _____    ______ ____

>  <TORSDO>
F 9

$$$$
=
 OpenBabel11042421043D

 36 39  0  0  0  0  0  0  0  0999 V2000
  160.7490  206.2980  151.1490 C   0  0  0  0  0  3  0  0  0  0  0  0
  161.2690  206.1000  149.9360 C   0  0  0  0  0  0  0  0  0  0  0  0
  161.3590  203.3520  147.3160 C   0  0  0  0  0  3  0  0  0  0  0  0
  160.6920  202.3930  149.4310 C   0  0  0  0  0  3  0  0  0  0  0  0
  161.1720  204.7730  149.2840 C   0  0  0  0  0  0  0  0  0  0  0  0
  161.4550  204.6100  147.9170 C   0  0  0  0  0  3  0  0  0  0  0  0
  160.9790  202.2370  148.0670 C   0  0  0  0  0  0  0  0  0  0  0  0
  160.7890  203.6510  150.0320 C   0  0  0  0  0  3  0  0  0  0  0  0
  160.8960  200.9920  147.4380 O   0  0  0  0  0  0  0  0  0  0  0  0
  159.9830  201.1390  145.2260 C   0  0  0  0  0  1  0  0  0  0  0  0
  161.2020  200.8070  146.0620 C   0  0  0  0  0  2  0  0  0  0  0  0
  161.9910  211.1430  149.8470 C   0  0  0  0  0  3  0  0  0  0  0  0
  162.2400  208.6650  149.0900 C   0  0  0  0  0  0  0  0  0  0  0  0
  162.7500  207.6820  148.2560 C   0  0  0  0  0  2  0  0  0  0  0  0
  162.1180  209.9040  149.4660 C   0  0  0  0  0  0  0  0  0  0  0  0
  161.9200  207.1780  149.2560 N   0  0  0  0  0  0  0  0  0  0  0  0
  160.7680  211.9110  149.4850 C   0  0  0  0  0  2  0  0  0  0  0  0
  159.2970  214.4520  145.5760 O   0  0  0  0  0  0  0  0  0  0  0  0
  162.5730  213.3560  146.3750 C   0  0  0  0  0  3  0  0  0  0  0  0
  159.9310  213.2230  147.5290 C   0  0  0  0  0  0  0  0  0  0  0  0
  162.3040  212.4110  147.5120 C   0  0  0  0  0  2  0  0  0  0  0  0
  161.6000  214.0280  145.7700 C   0  0  0  0  0  3  0  0  0  0  0  0
  160.2200  213.9230  146.2500 C   0  0  0  0  0  0  0  0  0  0  0  0
  160.9410  212.5680  148.1520 C   0  0  0  0  0  0  0  0  0  0  0  0
  158.5630  213.3200  148.1070 C   0  0  0  0  0  0  0  0  0  0  0  0
  157.5060  212.4790  147.6490 N   0  0  0  0  0  1  0  0  0  0  0  0
  158.3110  214.1850  148.9860 O   0  0  0  0  0  0  0  0  0  0  0  0
  160.7720  206.6830  153.9480 O   0  0  0  0  0  0  0  0  0  0  0  0
  160.8290  207.7080  153.2140 C   0  0  0  0  0  0  0  0  0  0  0  0
  160.8220  207.5700  151.7920 N   0  0  0  0  0  2  0  0  0  0  0  0
  161.4120  209.2220  155.1100 C   0  0  0  0  0  3  0  0  0  0  0  0
  160.4220  210.1660  153.1160 C   0  0  0  0  0  3  0  0  0  0  0  0
  160.9980  211.6040  154.9770 C   0  0  0  0  0  3  0  0  0  0  0  0
  160.8890  209.0490  153.8210 C   0  0  0  0  0  0  0  0  0  0  0  0
  160.4760  211.4400  153.6920 C   0  0  0  0  0  3  0  0  0  0  0  0
  161.4650  210.4950  155.6870 C   0  0  0  0  0  3  0  0  0  0  0  0
  1 30  1  0  0  0  0
  2  1  2  0  0  0  0
  3  6  2  0  0  0  0
  3  7  1  0  0  0  0
  4  8  1  0  0  0  0
  5  2  1  0  0  0  0
  5  8  2  0  0  0  0
  6  5  1  0  0  0  0
  7  4  2  0  0  0  0
  9  7  1  0  0  0  0
 10 11  1  0  0  0  0
 11  9  1  0  0  0  0
 13 16  1  0  0  0  0
 13 15  2  0  0  0  0
 14 13  1  0  0  0  0
 14 16  1  0  0  0  0
 15 12  2  0  0  0  0
 16  2  1  0  0  0  0
 17 12  1  0  0  0  0
 18 23  2  0  0  0  0
 19 21  1  0  0  0  0
 20 25  1  0  0  0  0
 20 24  2  0  0  0  0
 21 24  1  0  0  0  0
 22 23  1  0  0  0  0
 22 19  2  0  0  0  0
 23 20  1  0  0  0  0
 24 17  1  0  0  0  0
 25 27  2  0  0  0  0
 26 25  1  0  0  0  0
 29 34  1  0  0  0  0
 29 28  2  0  0  0  0
 30 29  1  0  0  0  0
 31 36  1  0  0  0  0
 32 35  2  0  0  0  0
 32 34  1  0  0  0  0
 33 36  2  0  0  0  0
 34 31  2  0  0  0  0
 35 33  1  0  0  0  0
M  END
>  <MODEL>
5

>  <REMARK>
 VINA RESULT:      -7.1      1.805      7.191
  Name = 
  9 active torsions:
  status: ('A' for Active; 'I' for Inactive)
    1  A    between atoms: C_3  and  C_33
    2  A    between atoms: C_7  and  C_12
    3  A    between atoms: C_13  and  N_30
    4  A    between atoms: C_14  and  O_15
    5  A    between atoms: O_15  and  C_22
    6  A    between atoms: C_16  and  C_31
    7  A    between atoms: C_19  and  C_24
    8  A    between atoms: C_31  and  N_32
    9  A    between atoms: C_33  and  C_34
                            x       y       z     vdW  Elec       q    Type
                         _______ _______ _______ _____ _____    ______ ____

>  <TORSDO>
F 9

$$$$
=
 OpenBabel11042421043D

 36 39  0  0  0  0  0  0  0  0999 V2000
  161.3140  206.1230  151.5560 C   0  0  0  0  0  3  0  0  0  0  0  0
  161.2730  207.4350  151.3190 C   0  0  0  0  0  0  0  0  0  0  0  0
  160.8530  208.8800  154.8060 C   0  0  0  0  0  3  0  0  0  0  0  0
  161.1920  210.6930  153.2450 C   0  0  0  0  0  3  0  0  0  0  0  0
  161.1690  208.3980  152.4410 C   0  0  0  0  0  0  0  0  0  0  0  0
  160.9490  207.9600  153.7580 C   0  0  0  0  0  3  0  0  0  0  0  0
  160.9740  210.2490  154.5580 C   0  0  0  0  0  0  0  0  0  0  0  0
  161.2880  209.7730  152.1980 C   0  0  0  0  0  3  0  0  0  0  0  0
  160.8780  211.1430  155.6280 O   0  0  0  0  0  0  0  0  0  0  0  0
  158.5060  211.4630  155.7680 C   0  0  0  0  0  1  0  0  0  0  0  0
  159.8620  212.1340  155.7080 C   0  0  0  0  0  2  0  0  0  0  0  0
  162.3650  211.4500  148.3790 C   0  0  0  0  0  3  0  0  0  0  0  0
  161.6240  209.0230  148.9540 C   0  0  0  0  0  0  0  0  0  0  0  0
  161.1980  207.7530  148.5970 C   0  0  0  0  0  2  0  0  0  0  0  0
  161.9940  210.2360  148.6630 C   0  0  0  0  0  0  0  0  0  0  0  0
  161.3360  207.9190  149.9740 N   0  0  0  0  0  0  0  0  0  0  0  0
  161.4040  212.5770  148.5320 C   0  0  0  0  0  2  0  0  0  0  0  0
  160.6720  213.7870  143.8520 O   0  0  0  0  0  0  0  0  0  0  0  0
  158.4110  212.2290  146.0950 C   0  0  0  0  0  3  0  0  0  0  0  0
  161.1230  213.2140  146.1310 C   0  0  0  0  0  0  0  0  0  0  0  0
  159.1220  212.4030  147.4080 C   0  0  0  0  0  2  0  0  0  0  0  0
  158.9270  212.6590  144.9500 C   0  0  0  0  0  3  0  0  0  0  0  0
  160.2630  213.2580  144.9200 C   0  0  0  0  0  0  0  0  0  0  0  0
  160.5920  212.7420  147.2860 C   0  0  0  0  0  0  0  0  0  0  0  0
  162.5490  213.6270  146.0150 C   0  0  0  0  0  0  0  0  0  0  0  0
  163.4010  213.0670  145.0190 N   0  0  0  0  0  1  0  0  0  0  0  0
  163.0330  214.4520  146.8330 O   0  0  0  0  0  0  0  0  0  0  0  0
  160.1180  203.5630  151.5520 O   0  0  0  0  0  0  0  0  0  0  0  0
  160.7990  203.8940  150.5420 C   0  0  0  0  0  0  0  0  0  0  0  0
  161.4240  205.1780  150.4920 N   0  0  0  0  0  2  0  0  0  0  0  0
  161.0550  201.5750  149.6560 C   0  0  0  0  0  3  0  0  0  0  0  0
  161.0260  203.4290  148.1030 C   0  0  0  0  0  3  0  0  0  0  0  0
  161.2760  201.1650  147.2800 C   0  0  0  0  0  3  0  0  0  0  0  0
  160.9610  202.9540  149.4200 C   0  0  0  0  0  0  0  0  0  0  0  0
  161.1830  202.5370  147.0360 C   0  0  0  0  0  3  0  0  0  0  0  0
  161.2130  200.6840  148.5900 C   0  0  0  0  0  3  0  0  0  0  0  0
  2  1  2  0  0  0  0
  2  5  1  0  0  0  0
  4  7  2  0  0  0  0
  5  6  1  0  0  0  0
  6  3  2  0  0  0  0
  7  3  1  0  0  0  0
  7  9  1  0  0  0  0
  8  5  2  0  0  0  0
  8  4  1  0  0  0  0
  9 11  1  0  0  0  0
 11 10  1  0  0  0  0
 12 17  1  0  0  0  0
 12 15  2  0  0  0  0
 13 16  1  0  0  0  0
 14 13  1  0  0  0  0
 14 16  1  0  0  0  0
 15 13  2  0  0  0  0
 16  2  1  0  0  0  0
 18 23  2  0  0  0  0
 19 21  1  0  0  0  0
 20 24  2  0  0  0  0
 22 19  2  0  0  0  0
 23 22  1  0  0  0  0
 23 20  1  0  0  0  0
 24 21  1  0  0  0  0
 24 17  1  0  0  0  0
 25 20  1  0  0  0  0
 25 27  2  0  0  0  0
 26 25  1  0  0  0  0
 29 28  2  0  0  0  0
 30 29  1  0  0  0  0
 30  1  1  0  0  0  0
 32 34  2  0  0  0  0
 33 36  1  0  0  0  0
 34 31  1  0  0  0  0
 34 29  1  0  0  0  0
 35 33  2  0  0  0  0
 35 32  1  0  0  0  0
 36 31  2  0  0  0  0
M  END
>  <MODEL>
6

>  <REMARK>
 VINA RESULT:      -7.1      2.350      3.166
  Name = 
  9 active torsions:
  status: ('A' for Active; 'I' for Inactive)
    1  A    between atoms: C_3  and  C_33
    2  A    between atoms: C_7  and  C_12
    3  A    between atoms: C_13  and  N_30
    4  A    between atoms: C_14  and  O_15
    5  A    between atoms: O_15  and  C_22
    6  A    between atoms: C_16  and  C_31
    7  A    between atoms: C_19  and  C_24
    8  A    between atoms: C_31  and  N_32
    9  A    between atoms: C_33  and  C_34
                            x       y       z     vdW  Elec       q    Type
                         _______ _______ _______ _____ _____    ______ ____

>  <TORSDO>
F 9

$$$$
=
 OpenBabel11042421043D

 36 39  0  0  0  0  0  0  0  0999 V2000
  160.8610  206.1100  151.3110 C   0  0  0  0  0  3  0  0  0  0  0  0
  161.2450  206.6220  150.1400 C   0  0  0  0  0  0  0  0  0  0  0  0
  161.2970  205.5430  146.4990 C   0  0  0  0  0  3  0  0  0  0  0  0
  161.2910  203.5730  147.8980 C   0  0  0  0  0  3  0  0  0  0  0  0
  161.2660  205.7780  148.9220 C   0  0  0  0  0  0  0  0  0  0  0  0
  161.2770  206.3520  147.6390 C   0  0  0  0  0  3  0  0  0  0  0  0
  161.3050  204.1520  146.6190 C   0  0  0  0  0  0  0  0  0  0  0  0
  161.2720  204.3810  149.0370 C   0  0  0  0  0  3  0  0  0  0  0  0
  161.3290  203.3710  145.4610 O   0  0  0  0  0  0  0  0  0  0  0  0
  160.0820  201.3350  145.2340 C   0  0  0  0  0  1  0  0  0  0  0  0
  160.1530  202.8090  144.8920 C   0  0  0  0  0  2  0  0  0  0  0  0
  160.7800  211.2220  152.2800 C   0  0  0  0  0  3  0  0  0  0  0  0
  161.6020  209.4360  150.5740 C   0  0  0  0  0  0  0  0  0  0  0  0
  162.3320  209.0460  149.4630 C   0  0  0  0  0  2  0  0  0  0  0  0
  161.1930  210.3310  151.4250 C   0  0  0  0  0  0  0  0  0  0  0  0
  161.6340  207.9970  150.0570 N   0  0  0  0  0  0  0  0  0  0  0  0
  159.4140  211.8020  152.1480 C   0  0  0  0  0  2  0  0  0  0  0  0
  156.1880  213.4760  155.4180 O   0  0  0  0  0  0  0  0  0  0  0  0
  158.3990  210.7210  155.7290 C   0  0  0  0  0  3  0  0  0  0  0  0
  157.7280  212.7140  153.7520 C   0  0  0  0  0  0  0  0  0  0  0  0
  159.2940  210.9180  154.5370 C   0  0  0  0  0  2  0  0  0  0  0  0
  157.3860  211.5380  155.9940 C   0  0  0  0  0  3  0  0  0  0  0  0
  157.0570  212.6310  155.0760 C   0  0  0  0  0  0  0  0  0  0  0  0
  158.7390  211.8530  153.4820 C   0  0  0  0  0  0  0  0  0  0  0  0
  157.2230  213.6940  152.7520 C   0  0  0  0  0  0  0  0  0  0  0  0
  158.1190  214.4520  151.9440 N   0  0  0  0  0  1  0  0  0  0  0  0
  155.9850  213.8970  152.6390 O   0  0  0  0  0  0  0  0  0  0  0  0
  161.4380  205.1530  153.9070 O   0  0  0  0  0  0  0  0  0  0  0  0
  161.1230  206.3700  153.7850 C   0  0  0  0  0  0  0  0  0  0  0  0
  160.8240  206.9050  152.4950 N   0  0  0  0  0  2  0  0  0  0  0  0
  161.8790  208.3650  155.0820 C   0  0  0  0  0  3  0  0  0  0  0  0
  160.1590  206.9410  156.0130 C   0  0  0  0  0  3  0  0  0  0  0  0
  160.9190  208.8840  157.2440 C   0  0  0  0  0  3  0  0  0  0  0  0
  161.0520  207.2370  154.9740 C   0  0  0  0  0  0  0  0  0  0  0  0
  160.0920  207.7620  157.1440 C   0  0  0  0  0  3  0  0  0  0  0  0
  161.8130  209.1850  156.2130 C   0  0  0  0  0  3  0  0  0  0  0  0
  1 30  1  0  0  0  0
  2  1  2  0  0  0  0
  3  7  2  0  0  0  0
  3  6  1  0  0  0  0
  4  8  2  0  0  0  0
  5  8  1  0  0  0  0
  5  2  1  0  0  0  0
  6  5  2  0  0  0  0
  7  4  1  0  0  0  0
  9  7  1  0  0  0  0
 11 10  1  0  0  0  0
 11  9  1  0  0  0  0
 13 15  2  0  0  0  0
 14 16  1  0  0  0  0
 14 13  1  0  0  0  0
 15 12  2  0  0  0  0
 16  2  1  0  0  0  0
 16 13  1  0  0  0  0
 17 12  1  0  0  0  0
 17 24  1  0  0  0  0
 19 22  2  0  0  0  0
 20 23  1  0  0  0  0
 21 19  1  0  0  0  0
 23 18  2  0  0  0  0
 23 22  1  0  0  0  0
 24 20  2  0  0  0  0
 24 21  1  0  0  0  0
 25 20  1  0  0  0  0
 26 25  1  0  0  0  0
 27 25  2  0  0  0  0
 29 28  2  0  0  0  0
 29 34  1  0  0  0  0
 30 29  1  0  0  0  0
 31 36  1  0  0  0  0
 32 35  2  0  0  0  0
 34 31  2  0  0  0  0
 34 32  1  0  0  0  0
 35 33  1  0  0  0  0
 36 33  2  0  0  0  0
M  END
>  <MODEL>
7

>  <REMARK>
 VINA RESULT:      -6.9      2.750      7.436
  Name = 
  9 active torsions:
  status: ('A' for Active; 'I' for Inactive)
    1  A    between atoms: C_3  and  C_33
    2  A    between atoms: C_7  and  C_12
    3  A    between atoms: C_13  and  N_30
    4  A    between atoms: C_14  and  O_15
    5  A    between atoms: O_15  and  C_22
    6  A    between atoms: C_16  and  C_31
    7  A    between atoms: C_19  and  C_24
    8  A    between atoms: C_31  and  N_32
    9  A    between atoms: C_33  and  C_34
                            x       y       z     vdW  Elec       q    Type
                         _______ _______ _______ _____ _____    ______ ____

>  <TORSDO>
F 9

$$$$
=
 OpenBabel11042421043D

 36 39  0  0  0  0  0  0  0  0999 V2000
  161.6780  208.1010  148.3270 C   0  0  0  0  0  3  0  0  0  0  0  0
  161.8230  209.2050  149.0640 C   0  0  0  0  0  0  0  0  0  0  0  0
  163.2920  212.5060  147.8930 C   0  0  0  0  0  3  0  0  0  0  0  0
  161.0290  212.3200  147.0660 C   0  0  0  0  0  3  0  0  0  0  0  0
  161.9710  210.5280  148.4130 C   0  0  0  0  0  0  0  0  0  0  0  0
  163.1670  211.2590  148.5120 C   0  0  0  0  0  3  0  0  0  0  0  0
  162.2270  213.0440  147.1670 C   0  0  0  0  0  0  0  0  0  0  0  0
  160.9050  211.0740  147.6850 C   0  0  0  0  0  3  0  0  0  0  0  0
  162.3840  214.2910  146.5570 O   0  0  0  0  0  0  0  0  0  0  0  0
  161.4000  214.3130  144.3700 C   0  0  0  0  0  1  0  0  0  0  0  0
  162.6780  214.4350  145.1740 C   0  0  0  0  0  2  0  0  0  0  0  0
  159.4450  210.6150  153.3430 C   0  0  0  0  0  3  0  0  0  0  0  0
  161.2360  209.4430  151.8630 C   0  0  0  0  0  0  0  0  0  0  0  0
  162.3610  208.6500  151.6940 C   0  0  0  0  0  2  0  0  0  0  0  0
  160.3420  210.0270  152.6060 C   0  0  0  0  0  0  0  0  0  0  0  0
  161.8290  209.1120  150.4920 N   0  0  0  0  0  0  0  0  0  0  0  0
  159.5570  212.0710  153.6320 C   0  0  0  0  0  2  0  0  0  0  0  0
  155.6180  214.4430  151.9700 O   0  0  0  0  0  0  0  0  0  0  0  0
  156.0960  212.9370  155.1450 C   0  0  0  0  0  3  0  0  0  0  0  0
  157.5810  213.2830  152.6940 C   0  0  0  0  0  0  0  0  0  0  0  0
  157.5720  212.6520  155.1220 C   0  0  0  0  0  2  0  0  0  0  0  0
  155.4690  213.4960  154.1150 C   0  0  0  0  0  3  0  0  0  0  0  0
  156.1950  213.7850  152.8760 C   0  0  0  0  0  0  0  0  0  0  0  0
  158.1980  212.6860  153.7440 C   0  0  0  0  0  0  0  0  0  0  0  0
  158.2160  213.3960  151.3520 C   0  0  0  0  0  0  0  0  0  0  0  0
  159.4740  214.0440  151.1820 N   0  0  0  0  0  1  0  0  0  0  0  0
  157.6200  212.9530  150.3350 O   0  0  0  0  0  0  0  0  0  0  0  0
  161.3600  205.6820  146.9020 O   0  0  0  0  0  0  0  0  0  0  0  0
  161.3650  205.6240  148.1630 C   0  0  0  0  0  0  0  0  0  0  0  0
  161.5250  206.8180  148.9320 N   0  0  0  0  0  2  0  0  0  0  0  0
  161.1680  203.1370  148.1060 C   0  0  0  0  0  3  0  0  0  0  0  0
  161.0530  204.2760  150.2370 C   0  0  0  0  0  3  0  0  0  0  0  0
  160.8620  201.8630  150.1430 C   0  0  0  0  0  3  0  0  0  0  0  0
  161.1940  204.3290  148.8440 C   0  0  0  0  0  0  0  0  0  0  0  0
  160.8870  203.0470  150.8840 C   0  0  0  0  0  3  0  0  0  0  0  0
  161.0020  201.9080  148.7530 C   0  0  0  0  0  3  0  0  0  0  0  0
  1 30  1  0  0  0  0
  1  2  2  0  0  0  0
  2 16  1  0  0  0  0
  3  6  1  0  0  0  0
  4  7  1  0  0  0  0
  4  8  2  0  0  0  0
  5  6  2  0  0  0  0
  5  2  1  0  0  0  0
  7  3  2  0  0  0  0
  8  5  1  0  0  0  0
  9  7  1  0  0  0  0
 10 11  1  0  0  0  0
 11  9  1  0  0  0  0
 12 17  1  0  0  0  0
 13 15  2  0  0  0  0
 14 13  1  0  0  0  0
 15 12  2  0  0  0  0
 16 14  1  0  0  0  0
 16 13  1  0  0  0  0
 17 24  1  0  0  0  0
 18 23  2  0  0  0  0
 20 23  1  0  0  0  0
 20 24  2  0  0  0  0
 21 19  1  0  0  0  0
 22 19  2  0  0  0  0
 23 22  1  0  0  0  0
 24 21  1  0  0  0  0
 25 20  1  0  0  0  0
 26 25  1  0  0  0  0
 27 25  2  0  0  0  0
 28 29  2  0  0  0  0
 29 34  1  0  0  0  0
 29 30  1  0  0  0  0
 31 36  2  0  0  0  0
 31 34  1  0  0  0  0
 32 35  1  0  0  0  0
 33 35  2  0  0  0  0
 34 32  2  0  0  0  0
 36 33  1  0  0  0  0
M  END
>  <MODEL>
8

>  <REMARK>
 VINA RESULT:      -6.6      2.543      5.444
  Name = 
  9 active torsions:
  status: ('A' for Active; 'I' for Inactive)
    1  A    between atoms: C_3  and  C_33
    2  A    between atoms: C_7  and  C_12
    3  A    between atoms: C_13  and  N_30
    4  A    between atoms: C_14  and  O_15
    5  A    between atoms: O_15  and  C_22
    6  A    between atoms: C_16  and  C_31
    7  A    between atoms: C_19  and  C_24
    8  A    between atoms: C_31  and  N_32
    9  A    between atoms: C_33  and  C_34
                            x       y       z     vdW  Elec       q    Type
                         _______ _______ _______ _____ _____    ______ ____

>  <TORSDO>
F 9

$$$$
=
 OpenBabel11042421043D

 36 39  0  0  0  0  0  0  0  0999 V2000
  161.9040  208.3310  148.4170 C   0  0  0  0  0  3  0  0  0  0  0  0
  161.9160  209.5150  149.0310 C   0  0  0  0  0  0  0  0  0  0  0  0
  160.8840  212.3200  146.6880 C   0  0  0  0  0  3  0  0  0  0  0  0
  163.0830  212.8040  147.5660 C   0  0  0  0  0  3  0  0  0  0  0  0
  161.9350  210.7700  148.2440 C   0  0  0  0  0  0  0  0  0  0  0  0
  160.8520  211.1340  147.4260 C   0  0  0  0  0  3  0  0  0  0  0  0
  161.9970  213.1620  146.7530 C   0  0  0  0  0  0  0  0  0  0  0  0
  163.0500  211.6180  148.3030 C   0  0  0  0  0  3  0  0  0  0  0  0
  161.9980  214.3430  146.0070 O   0  0  0  0  0  0  0  0  0  0  0  0
  162.8940  213.0800  144.1770 C   0  0  0  0  0  1  0  0  0  0  0  0
  162.2070  214.3610  144.6010 C   0  0  0  0  0  2  0  0  0  0  0  0
  159.3670  211.1950  153.1110 C   0  0  0  0  0  3  0  0  0  0  0  0
  161.2640  210.0060  151.7830 C   0  0  0  0  0  0  0  0  0  0  0  0
  162.4450  209.2850  151.7120 C   0  0  0  0  0  2  0  0  0  0  0  0
  160.3170  210.6000  152.4500 C   0  0  0  0  0  0  0  0  0  0  0  0
  161.9040  209.5760  150.4610 N   0  0  0  0  0  0  0  0  0  0  0  0
  159.3700  212.6780  153.2420 C   0  0  0  0  0  2  0  0  0  0  0  0
  155.5460  214.2900  155.8280 O   0  0  0  0  0  0  0  0  0  0  0  0
  155.8940  214.1130  152.3030 C   0  0  0  0  0  3  0  0  0  0  0  0
  157.4690  213.5000  154.6430 C   0  0  0  0  0  0  0  0  0  0  0  0
  157.1380  213.2800  152.1660 C   0  0  0  0  0  2  0  0  0  0  0  0
  155.3990  214.4530  153.4880 C   0  0  0  0  0  3  0  0  0  0  0  0
  156.1050  214.0840  154.7180 C   0  0  0  0  0  0  0  0  0  0  0  0
  157.9750  213.1870  153.4240 C   0  0  0  0  0  0  0  0  0  0  0  0
  158.2510  213.3400  155.8990 C   0  0  0  0  0  0  0  0  0  0  0  0
  158.9620  214.4350  156.4710 N   0  0  0  0  0  1  0  0  0  0  0  0
  158.3280  212.2120  156.4530 O   0  0  0  0  0  0  0  0  0  0  0  0
  160.5160  206.0030  147.6170 O   0  0  0  0  0  0  0  0  0  0  0  0
  161.1550  205.9610  148.7050 C   0  0  0  0  0  0  0  0  0  0  0  0
  161.8760  207.1100  149.1550 N   0  0  0  0  0  2  0  0  0  0  0  0
  160.8490  203.4940  148.9330 C   0  0  0  0  0  3  0  0  0  0  0  0
  161.4400  204.7900  150.8880 C   0  0  0  0  0  3  0  0  0  0  0  0
  161.1320  202.3950  151.0720 C   0  0  0  0  0  3  0  0  0  0  0  0
  161.1490  204.7330  149.5190 C   0  0  0  0  0  0  0  0  0  0  0  0
  161.4320  203.6250  151.6620 C   0  0  0  0  0  3  0  0  0  0  0  0
  160.8400  202.3300  149.7080 C   0  0  0  0  0  3  0  0  0  0  0  0
  1  2  2  0  0  0  0
  1 30  1  0  0  0  0
  2 16  1  0  0  0  0
  3  7  2  0  0  0  0
  3  6  1  0  0  0  0
  4  8  2  0  0  0  0
  5  8  1  0  0  0  0
  5  2  1  0  0  0  0
  6  5  2  0  0  0  0
  7  4  1  0  0  0  0
  9  7  1  0  0  0  0
 10 11  1  0  0  0  0
 11  9  1  0  0  0  0
 12 17  1  0  0  0  0
 13 15  2  0  0  0  0
 14 13  1  0  0  0  0
 15 12  2  0  0  0  0
 16 14  1  0  0  0  0
 16 13  1  0  0  0  0
 17 24  1  0  0  0  0
 19 22  2  0  0  0  0
 20 23  1  0  0  0  0
 20 25  1  0  0  0  0
 21 19  1  0  0  0  0
 21 24  1  0  0  0  0
 22 23  1  0  0  0  0
 23 18  2  0  0  0  0
 24 20  2  0  0  0  0
 25 27  2  0  0  0  0
 25 26  1  0  0  0  0
 28 29  2  0  0  0  0
 29 30  1  0  0  0  0
 29 34  1  0  0  0  0
 31 34  2  0  0  0  0
 31 36  1  0  0  0  0
 32 35  2  0  0  0  0
 33 35  1  0  0  0  0
 34 32  1  0  0  0  0
 36 33  2  0  0  0  0
M  END
>  <MODEL>
9

>  <REMARK>
 VINA RESULT:      -6.5      3.047      6.169
  Name = 
  9 active torsions:
  status: ('A' for Active; 'I' for Inactive)
    1  A    between atoms: C_3  and  C_33
    2  A    between atoms: C_7  and  C_12
    3  A    between atoms: C_13  and  N_30
    4  A    between atoms: C_14  and  O_15
    5  A    between atoms: O_15  and  C_22
    6  A    between atoms: C_16  and  C_31
    7  A    between atoms: C_19  and  C_24
    8  A    between atoms: C_31  and  N_32
    9  A    between atoms: C_33  and  C_34
                            x       y       z     vdW  Elec       q    Type
                         _______ _______ _______ _____ _____    ______ ____

>  <TORSDO>
F 9

$$$$
