=
 OpenBabel11052409543D

 29 31  0  0  1  0  0  0  0  0999 V2000
  161.3970  210.7150  150.8390 C   0  0  0  0  0  0  0  0  0  0  0  0
  160.3630  209.9280  153.5240 C   0  0  2  0  0  3  0  0  0  0  0  0
  159.5410  212.1760  153.6000 O   0  0  0  0  0  0  0  0  0  0  0  0
  161.9810  211.0890  149.7900 O   0  0  0  0  0  0  0  0  0  0  0  0
  160.7650  211.6810  151.6830 N   0  0  0  0  0  2  0  0  0  0  0  0
  160.1880  211.3150  152.9460 C   0  0  0  0  0  0  0  0  0  0  0  0
  161.3690  209.3070  151.2600 C   0  0  0  0  0  0  0  0  0  0  0  0
  161.0710  207.5960  152.6680 C   0  0  0  0  0  3  0  0  0  0  0  0
  161.6240  207.1030  151.5380 N   0  0  0  0  0  0  0  0  0  0  0  0
  161.8100  208.1230  150.6740 C   0  0  0  0  0  0  0  0  0  0  0  0
  161.3010  209.9870  154.7180 C   0  0  0  0  0  1  0  0  0  0  0  0
  160.8950  208.9580  152.5050 C   0  0  0  0  0  0  0  0  0  0  0  0
  162.0170  205.7150  151.3010 C   0  0  1  0  0  3  0  0  0  0  0  0
  162.9700  205.2280  152.3860 C   0  0  0  0  0  1  0  0  0  0  0  0
  160.8350  203.5590  151.9820 C   0  0  0  0  0  2  0  0  0  0  0  0
  160.8040  204.7960  151.0930 C   0  0  2  0  0  3  0  0  0  0  0  0
  160.4220  202.9470  149.7190 C   0  0  1  0  0  3  0  0  0  0  0  0
  160.9150  202.3920  151.0370 C   0  0  0  0  0  2  0  0  0  0  0  0
  160.7290  204.3710  149.6990 N   0  0  0  0  0  2  0  0  0  0  0  0
  161.8010  201.1510  148.9700 F   0  0  0  0  0  0  0  0  0  0  0  0
  160.0850  201.7980  147.6660 F   0  0  0  0  0  0  0  0  0  0  0  0
  161.0700  202.2410  148.5290 C   0  0  0  0  0  0  0  0  0  0  0  0
  161.9120  203.1060  147.8510 F   0  0  0  0  0  0  0  0  0  0  0  0
  162.3730  207.9310  149.4060 O   0  0  0  0  0  0  0  0  0  0  0  0
  161.6250  207.5920  148.2520 C   0  0  0  0  0  2  0  0  0  0  0  0
  160.5350  206.3910  145.8570 O   0  0  0  0  0  1  0  0  0  0  0  0
  162.3710  206.6320  147.4570 N   0  0  0  0  0  2  0  0  0  0  0  0
  161.8180  206.0550  146.2760 C   0  0  0  0  0  0  0  0  0  0  0  0
  162.4960  205.2340  145.6050 O   0  0  0  0  0  0  0  0  0  0  0  0
  1  7  1  0  0  0  0
  1  5  1  0  0  0  0
  2 11  1  1  0  0  0
  4  1  2  0  0  0  0
  5  6  1  0  0  0  0
  6  2  1  0  0  0  0
  6  3  2  0  0  0  0
  7 12  1  0  0  0  0
  9  8  1  0  0  0  0
 10  7  2  0  0  0  0
 10  9  1  0  0  0  0
 12  8  2  0  0  0  0
 12  2  1  0  0  0  0
 13  9  1  0  0  0  0
 13 14  1  1  0  0  0
 16 13  1  6  0  0  0
 16 15  1  0  0  0  0
 17 22  1  6  0  0  0
 17 18  1  0  0  0  0
 18 15  1  0  0  0  0
 19 17  1  0  0  0  0
 19 16  1  0  0  0  0
 21 22  1  0  0  0  0
 22 20  1  0  0  0  0
 23 22  1  0  0  0  0
 24 10  1  0  0  0  0
 25 24  1  0  0  0  0
 26 28  1  0  0  0  0
 27 25  1  0  0  0  0
 28 27  1  0  0  0  0
 29 28  2  0  0  0  0
M  END
>  <MODEL>
1

>  <REMARK>
 VINA RESULT:      -7.9      0.000      0.000
  Name = 
  6 active torsions:
  status: ('A' for Active; 'I' for Inactive)
    1  A    between atoms: C_8  and  C_12
    2  A    between atoms: N_10  and  C_14
    3  A    between atoms: C_11  and  C_13
    4  A    between atoms: C_13  and  N_25
    5  A    between atoms: C_14  and  O_18
    6  A    between atoms: O_18  and  C_26
                            x       y       z     vdW  Elec       q    Type
                         _______ _______ _______ _____ _____    ______ ____

>  <TORSDO>
F 6

$$$$
=
 OpenBabel11052409543D

 29 31  0  0  1  0  0  0  0  0999 V2000
  160.2960  210.9430  153.3860 C   0  0  0  0  0  0  0  0  0  0  0  0
  160.3400  208.8970  155.5560 C   0  0  2  0  0  3  0  0  0  0  0  0
  159.1950  210.5710  156.8300 O   0  0  0  0  0  0  0  0  0  0  0  0
  160.4330  211.8550  152.5320 O   0  0  0  0  0  0  0  0  0  0  0  0
  159.8050  211.2620  154.6920 N   0  0  0  0  0  2  0  0  0  0  0  0
  159.7410  210.2760  155.7340 C   0  0  0  0  0  0  0  0  0  0  0  0
  160.6590  209.5470  153.1070 C   0  0  0  0  0  0  0  0  0  0  0  0
  161.1440  207.4200  153.5960 C   0  0  0  0  0  3  0  0  0  0  0  0
  161.3830  207.6000  152.2790 N   0  0  0  0  0  0  0  0  0  0  0  0
  161.0940  208.8800  151.9640 C   0  0  0  0  0  0  0  0  0  0  0  0
  161.5860  208.7680  156.4170 C   0  0  0  0  0  1  0  0  0  0  0  0
  160.6820  208.6140  154.1200 C   0  0  0  0  0  0  0  0  0  0  0  0
  161.9230  206.6060  151.3540 C   0  0  1  0  0  3  0  0  0  0  0  0
  162.7250  205.5480  152.1010 C   0  0  0  0  0  1  0  0  0  0  0  0
  160.7820  204.4980  150.4800 C   0  0  0  0  0  2  0  0  0  0  0  0
  160.8390  206.0190  150.4360 C   0  0  2  0  0  3  0  0  0  0  0  0
  160.8600  205.2620  148.2260 C   0  0  1  0  0  3  0  0  0  0  0  0
  161.1240  204.0460  149.0860 C   0  0  0  0  0  2  0  0  0  0  0  0
  161.0660  206.4420  149.0570 N   0  0  0  0  0  2  0  0  0  0  0  0
  161.0150  205.2350  145.8470 F   0  0  0  0  0  0  0  0  0  0  0  0
  162.4890  206.4840  147.0010 F   0  0  0  0  0  0  0  0  0  0  0  0
  161.7740  205.3000  147.0030 C   0  0  0  0  0  0  0  0  0  0  0  0
  162.6590  204.2350  147.0250 F   0  0  0  0  0  0  0  0  0  0  0  0
  161.2440  209.3790  150.6640 O   0  0  0  0  0  0  0  0  0  0  0  0
  162.3100  210.2180  150.2570 C   0  0  0  0  0  2  0  0  0  0  0  0
  161.1910  212.7420  149.3950 O   0  0  0  0  0  1  0  0  0  0  0  0
  162.1510  210.5560  148.8540 N   0  0  0  0  0  2  0  0  0  0  0  0
  161.6020  211.8090  148.4490 C   0  0  0  0  0  0  0  0  0  0  0  0
  161.4880  212.0730  147.2240 O   0  0  0  0  0  0  0  0  0  0  0  0
  1  5  1  0  0  0  0
  2  6  1  0  0  0  0
  2 11  1  1  0  0  0
  4  1  2  0  0  0  0
  5  6  1  0  0  0  0
  6  3  2  0  0  0  0
  7  1  1  0  0  0  0
  7 12  1  0  0  0  0
  8 12  2  0  0  0  0
  9  8  1  0  0  0  0
 10  9  1  0  0  0  0
 10  7  2  0  0  0  0
 12  2  1  0  0  0  0
 13 14  1  1  0  0  0
 13  9  1  0  0  0  0
 16 15  1  0  0  0  0
 16 13  1  1  0  0  0
 17 22  1  6  0  0  0
 17 19  1  0  0  0  0
 17 18  1  0  0  0  0
 18 15  1  0  0  0  0
 19 16  1  0  0  0  0
 20 22  1  0  0  0  0
 21 22  1  0  0  0  0
 22 23  1  0  0  0  0
 24 10  1  0  0  0  0
 25 24  1  0  0  0  0
 27 25  1  0  0  0  0
 28 27  1  0  0  0  0
 28 26  1  0  0  0  0
 29 28  2  0  0  0  0
M  END
>  <MODEL>
2

>  <REMARK>
 VINA RESULT:      -7.6      2.412      3.434
  Name = 
  6 active torsions:
  status: ('A' for Active; 'I' for Inactive)
    1  A    between atoms: C_8  and  C_12
    2  A    between atoms: N_10  and  C_14
    3  A    between atoms: C_11  and  C_13
    4  A    between atoms: C_13  and  N_25
    5  A    between atoms: C_14  and  O_18
    6  A    between atoms: O_18  and  C_26
                            x       y       z     vdW  Elec       q    Type
                         _______ _______ _______ _____ _____    ______ ____

>  <TORSDO>
F 6

$$$$
=
 OpenBabel11052409543D

 29 31  0  0  1  0  0  0  0  0999 V2000
  161.7890  209.5100  153.5230 C   0  0  0  0  0  0  0  0  0  0  0  0
  160.5050  206.8220  153.6730 C   0  0  2  0  0  3  0  0  0  0  0  0
  160.1100  207.4050  155.9630 O   0  0  0  0  0  0  0  0  0  0  0  0
  162.4800  210.5610  153.4980 O   0  0  0  0  0  0  0  0  0  0  0  0
  161.3090  209.0070  154.7720 N   0  0  0  0  0  2  0  0  0  0  0  0
  160.6170  207.7520  154.8630 C   0  0  0  0  0  0  0  0  0  0  0  0
  161.4820  208.7450  152.3060 C   0  0  0  0  0  0  0  0  0  0  0  0
  160.8090  206.9780  151.1130 C   0  0  0  0  0  3  0  0  0  0  0  0
  161.3110  207.8860  150.2480 N   0  0  0  0  0  0  0  0  0  0  0  0
  161.7230  208.9630  150.9510 C   0  0  0  0  0  0  0  0  0  0  0  0
  161.3820  205.6020  153.8970 C   0  0  0  0  0  1  0  0  0  0  0  0
  160.8950  207.5020  152.3910 C   0  0  0  0  0  0  0  0  0  0  0  0
  161.4520  207.7190  148.8030 C   0  0  1  0  0  3  0  0  0  0  0  0
  162.9200  207.7330  148.3950 C   0  0  0  0  0  1  0  0  0  0  0  0
  161.1960  205.1820  148.8550 C   0  0  0  0  0  2  0  0  0  0  0  0
  160.6810  206.4960  148.2830 C   0  0  2  0  0  3  0  0  0  0  0  0
  161.0210  205.0450  146.4850 C   0  0  1  0  0  3  0  0  0  0  0  0
  161.7060  204.4050  147.6720 C   0  0  0  0  0  2  0  0  0  0  0  0
  160.7570  206.4370  146.8270 N   0  0  0  0  0  2  0  0  0  0  0  0
  162.6210  203.7880  145.2410 F   0  0  0  0  0  0  0  0  0  0  0  0
  161.0510  204.9390  144.1110 F   0  0  0  0  0  0  0  0  0  0  0  0
  161.8750  204.9540  145.2220 C   0  0  0  0  0  0  0  0  0  0  0  0
  162.7320  206.0390  145.1360 F   0  0  0  0  0  0  0  0  0  0  0  0
  162.2980  210.0800  150.3330 O   0  0  0  0  0  0  0  0  0  0  0  0
  161.5540  211.1740  149.8280 C   0  0  0  0  0  2  0  0  0  0  0  0
  161.4490  213.8360  148.7010 O   0  0  0  0  0  1  0  0  0  0  0  0
  161.9750  211.4570  148.4670 N   0  0  0  0  0  2  0  0  0  0  0  0
  161.9210  212.7780  147.9310 C   0  0  0  0  0  0  0  0  0  0  0  0
  162.3030  212.9890  146.7510 O   0  0  0  0  0  0  0  0  0  0  0  0
  1  5  1  0  0  0  0
  2 11  1  1  0  0  0
  2  6  1  0  0  0  0
  4  1  2  0  0  0  0
  5  6  1  0  0  0  0
  6  3  2  0  0  0  0
  7 12  1  0  0  0  0
  7  1  1  0  0  0  0
  8 12  2  0  0  0  0
  9 10  1  0  0  0  0
  9  8  1  0  0  0  0
 10  7  2  0  0  0  0
 12  2  1  0  0  0  0
 13 14  1  1  0  0  0
 13  9  1  0  0  0  0
 16 13  1  1  0  0  0
 16 15  1  0  0  0  0
 17 22  1  6  0  0  0
 17 19  1  0  0  0  0
 17 18  1  0  0  0  0
 18 15  1  0  0  0  0
 19 16  1  0  0  0  0
 21 22  1  0  0  0  0
 22 20  1  0  0  0  0
 23 22  1  0  0  0  0
 24 10  1  0  0  0  0
 25 24  1  0  0  0  0
 27 25  1  0  0  0  0
 28 27  1  0  0  0  0
 28 26  1  0  0  0  0
 29 28  2  0  0  0  0
M  END
>  <MODEL>
3

>  <REMARK>
 VINA RESULT:      -7.1      2.859      4.251
  Name = 
  6 active torsions:
  status: ('A' for Active; 'I' for Inactive)
    1  A    between atoms: C_8  and  C_12
    2  A    between atoms: N_10  and  C_14
    3  A    between atoms: C_11  and  C_13
    4  A    between atoms: C_13  and  N_25
    5  A    between atoms: C_14  and  O_18
    6  A    between atoms: O_18  and  C_26
                            x       y       z     vdW  Elec       q    Type
                         _______ _______ _______ _____ _____    ______ ____

>  <TORSDO>
F 6

$$$$
=
 OpenBabel11052409543D

 29 31  0  0  1  0  0  0  0  0999 V2000
  160.3840  210.4230  153.5760 C   0  0  0  0  0  0  0  0  0  0  0  0
  160.5100  208.4060  155.7700 C   0  0  2  0  0  3  0  0  0  0  0  0
  159.5540  210.1510  157.1040 O   0  0  0  0  0  0  0  0  0  0  0  0
  160.4940  211.3150  152.6980 O   0  0  0  0  0  0  0  0  0  0  0  0
  160.0180  210.7820  154.9120 N   0  0  0  0  0  2  0  0  0  0  0  0
  159.9940  209.8140  155.9730 C   0  0  0  0  0  0  0  0  0  0  0  0
  160.6560  209.0070  153.2930 C   0  0  0  0  0  0  0  0  0  0  0  0
  161.0770  206.8650  153.7770 C   0  0  0  0  0  3  0  0  0  0  0  0
  161.2150  207.0150  152.4420 N   0  0  0  0  0  0  0  0  0  0  0  0
  160.9620  208.3040  152.1290 C   0  0  0  0  0  0  0  0  0  0  0  0
  161.8140  208.2270  156.5290 C   0  0  0  0  0  1  0  0  0  0  0  0
  160.7180  208.0870  154.3160 C   0  0  0  0  0  0  0  0  0  0  0  0
  161.6280  205.9840  151.4930 C   0  0  1  0  0  3  0  0  0  0  0  0
  163.0350  205.4890  151.8070 C   0  0  0  0  0  1  0  0  0  0  0  0
  160.9460  203.6350  152.2160 C   0  0  0  0  0  2  0  0  0  0  0  0
  160.5930  204.8550  151.3760 C   0  0  2  0  0  3  0  0  0  0  0  0
  160.4230  202.9850  149.9860 C   0  0  1  0  0  3  0  0  0  0  0  0
  161.1440  202.5160  151.2300 C   0  0  0  0  0  2  0  0  0  0  0  0
  160.4550  204.4430  149.9830 N   0  0  0  0  0  2  0  0  0  0  0  0
  161.8880  203.3870  148.1480 F   0  0  0  0  0  0  0  0  0  0  0  0
  161.8240  201.3190  149.0330 F   0  0  0  0  0  0  0  0  0  0  0  0
  161.0640  202.4310  148.7160 C   0  0  0  0  0  0  0  0  0  0  0  0
  160.0910  202.0680  147.7990 F   0  0  0  0  0  0  0  0  0  0  0  0
  161.0280  208.7780  150.8130 O   0  0  0  0  0  0  0  0  0  0  0  0
  162.2140  209.2560  150.2030 C   0  0  0  0  0  2  0  0  0  0  0  0
  161.4940  210.7700  147.8470 O   0  0  0  0  0  0  0  0  0  0  0  0
  162.1980  210.7080  150.1900 N   0  0  0  0  0  2  0  0  0  0  0  0
  161.8350  211.4370  149.0180 C   0  0  0  0  0  0  0  0  0  0  0  0
  161.8220  212.6950  149.0450 O   0  0  0  0  0  1  0  0  0  0  0  0
  1  5  1  0  0  0  0
  2  6  1  0  0  0  0
  2 11  1  1  0  0  0
  4  1  2  0  0  0  0
  5  6  1  0  0  0  0
  6  3  2  0  0  0  0
  7  1  1  0  0  0  0
  7 12  1  0  0  0  0
  8 12  2  0  0  0  0
  9  8  1  0  0  0  0
 10  9  1  0  0  0  0
 10  7  2  0  0  0  0
 12  2  1  0  0  0  0
 13 14  1  1  0  0  0
 13  9  1  0  0  0  0
 16 13  1  6  0  0  0
 16 15  1  0  0  0  0
 17 22  1  6  0  0  0
 17 18  1  0  0  0  0
 18 15  1  0  0  0  0
 19 17  1  0  0  0  0
 19 16  1  0  0  0  0
 20 22  1  0  0  0  0
 22 21  1  0  0  0  0
 23 22  1  0  0  0  0
 24 10  1  0  0  0  0
 25 24  1  0  0  0  0
 26 28  2  0  0  0  0
 27 25  1  0  0  0  0
 28 29  1  0  0  0  0
 28 27  1  0  0  0  0
M  END
>  <MODEL>
4

>  <REMARK>
 VINA RESULT:      -6.9      2.133      3.039
  Name = 
  6 active torsions:
  status: ('A' for Active; 'I' for Inactive)
    1  A    between atoms: C_8  and  C_12
    2  A    between atoms: N_10  and  C_14
    3  A    between atoms: C_11  and  C_13
    4  A    between atoms: C_13  and  N_25
    5  A    between atoms: C_14  and  O_18
    6  A    between atoms: O_18  and  C_26
                            x       y       z     vdW  Elec       q    Type
                         _______ _______ _______ _____ _____    ______ ____

>  <TORSDO>
F 6

$$$$
=
 OpenBabel11052409543D

 29 31  0  0  1  0  0  0  0  0999 V2000
  161.1610  206.4920  153.7500 C   0  0  0  0  0  0  0  0  0  0  0  0
  161.1520  209.4600  153.4580 C   0  0  2  0  0  3  0  0  0  0  0  0
  161.4360  209.4550  155.8360 O   0  0  0  0  0  0  0  0  0  0  0  0
  160.9910  205.2540  153.8860 O   0  0  0  0  0  0  0  0  0  0  0  0
  161.2060  207.3330  154.9070 N   0  0  0  0  0  2  0  0  0  0  0  0
  161.2820  208.7630  154.7950 C   0  0  0  0  0  0  0  0  0  0  0  0
  161.2800  207.1260  152.4300 C   0  0  0  0  0  0  0  0  0  0  0  0
  161.3000  208.8130  150.9620 C   0  0  0  0  0  3  0  0  0  0  0  0
  161.3540  207.6600  150.2590 N   0  0  0  0  0  0  0  0  0  0  0  0
  161.3450  206.6290  151.1300 C   0  0  0  0  0  0  0  0  0  0  0  0
  159.8190  210.1870  153.3890 C   0  0  0  0  0  1  0  0  0  0  0  0
  161.2680  208.4980  152.3090 C   0  0  0  0  0  0  0  0  0  0  0  0
  161.3570  207.5340  148.8040 C   0  0  1  0  0  3  0  0  0  0  0  0
  162.3310  208.5220  148.1750 C   0  0  0  0  0  1  0  0  0  0  0  0
  162.9620  205.8460  147.7640 C   0  0  0  0  0  2  0  0  0  0  0  0
  161.5760  206.0830  148.3480 C   0  0  2  0  0  3  0  0  0  0  0  0
  161.2870  204.9940  146.3020 C   0  0  1  0  0  3  0  0  0  0  0  0
  162.7280  205.4520  146.3310 C   0  0  0  0  0  2  0  0  0  0  0  0
  160.5760  205.7140  147.3510 N   0  0  0  0  0  2  0  0  0  0  0  0
  160.0700  204.0790  144.4680 F   0  0  0  0  0  0  0  0  0  0  0  0
  159.6490  206.2040  145.0760 F   0  0  0  0  0  0  0  0  0  0  0  0
  160.6390  205.2470  144.9420 C   0  0  0  0  0  0  0  0  0  0  0  0
  161.5810  205.6960  144.0320 F   0  0  0  0  0  0  0  0  0  0  0  0
  161.3880  205.2950  150.7050 O   0  0  0  0  0  0  0  0  0  0  0  0
  160.2800  204.4140  150.7530 C   0  0  0  0  0  2  0  0  0  0  0  0
  160.4500  202.4680  148.6200 O   0  0  0  0  0  0  0  0  0  0  0  0
  160.7500  203.0580  150.9760 N   0  0  0  0  0  2  0  0  0  0  0  0
  160.8320  202.1150  149.9090 C   0  0  0  0  0  0  0  0  0  0  0  0
  161.2540  200.9510  150.1360 O   0  0  0  0  0  1  0  0  0  0  0  0
  1  4  2  0  0  0  0
  1  5  1  0  0  0  0
  2 11  1  1  0  0  0
  2  6  1  0  0  0  0
  6  5  1  0  0  0  0
  6  3  2  0  0  0  0
  7  1  1  0  0  0  0
  8 12  2  0  0  0  0
  9  8  1  0  0  0  0
  9 10  1  0  0  0  0
 10  7  2  0  0  0  0
 12  7  1  0  0  0  0
 12  2  1  0  0  0  0
 13 14  1  6  0  0  0
 13  9  1  0  0  0  0
 15 16  1  0  0  0  0
 16 13  1  6  0  0  0
 17 22  1  6  0  0  0
 17 18  1  0  0  0  0
 17 19  1  0  0  0  0
 18 15  1  0  0  0  0
 19 16  1  0  0  0  0
 20 22  1  0  0  0  0
 22 21  1  0  0  0  0
 23 22  1  0  0  0  0
 24 25  1  0  0  0  0
 24 10  1  0  0  0  0
 25 27  1  0  0  0  0
 26 28  2  0  0  0  0
 28 29  1  0  0  0  0
 28 27  1  0  0  0  0
M  END
>  <MODEL>
5

>  <REMARK>
 VINA RESULT:      -6.8      2.759      4.318
  Name = 
  6 active torsions:
  status: ('A' for Active; 'I' for Inactive)
    1  A    between atoms: C_8  and  C_12
    2  A    between atoms: N_10  and  C_14
    3  A    between atoms: C_11  and  C_13
    4  A    between atoms: C_13  and  N_25
    5  A    between atoms: C_14  and  O_18
    6  A    between atoms: O_18  and  C_26
                            x       y       z     vdW  Elec       q    Type
                         _______ _______ _______ _____ _____    ______ ____

>  <TORSDO>
F 6

$$$$
=
 OpenBabel11052409543D

 29 31  0  0  1  0  0  0  0  0999 V2000
  161.5830  204.2750  150.6800 C   0  0  0  0  0  0  0  0  0  0  0  0
  161.1420  205.7160  148.1070 C   0  0  2  0  0  3  0  0  0  0  0  0
  160.6140  203.5410  147.2550 O   0  0  0  0  0  0  0  0  0  0  0  0
  161.9370  203.6540  151.7150 O   0  0  0  0  0  0  0  0  0  0  0  0
  161.2820  203.5470  149.4860 N   0  0  0  0  0  2  0  0  0  0  0  0
  160.9870  204.2180  148.2500 C   0  0  0  0  0  0  0  0  0  0  0  0
  161.5030  205.7410  150.6350 C   0  0  0  0  0  0  0  0  0  0  0  0
  161.3640  207.7560  149.6750 C   0  0  0  0  0  3  0  0  0  0  0  0
  161.5720  207.9470  150.9960 N   0  0  0  0  0  0  0  0  0  0  0  0
  161.6570  206.7390  151.5940 C   0  0  0  0  0  0  0  0  0  0  0  0
  162.3390  206.0230  147.2220 C   0  0  0  0  0  1  0  0  0  0  0  0
  161.3050  206.3940  149.4380 C   0  0  0  0  0  0  0  0  0  0  0  0
  161.7430  209.2330  151.6680 C   0  0  1  0  0  3  0  0  0  0  0  0
  162.3230  210.2720  150.7150 C   0  0  0  0  0  1  0  0  0  0  0  0
  160.0610  211.1210  152.0080 C   0  0  0  0  0  2  0  0  0  0  0  0
  160.4570  209.6960  152.3700 C   0  0  2  0  0  3  0  0  0  0  0  0
  160.0530  210.8320  154.3710 C   0  0  1  0  0  3  0  0  0  0  0  0
  160.1300  211.8940  153.2960 C   0  0  0  0  0  2  0  0  0  0  0  0
  160.6150  209.6060  153.8180 N   0  0  0  0  0  2  0  0  0  0  0  0
  160.3270  210.5380  156.7210 F   0  0  0  0  0  0  0  0  0  0  0  0
  162.1520  210.9720  155.4770 F   0  0  0  0  0  0  0  0  0  0  0  0
  160.8050  211.2480  155.6330 C   0  0  0  0  0  0  0  0  0  0  0  0
  160.6450  212.6030  155.8690 F   0  0  0  0  0  0  0  0  0  0  0  0
  161.8760  206.6040  152.9710 O   0  0  0  0  0  0  0  0  0  0  0  0
  160.8870  206.1740  153.8890 C   0  0  0  0  0  2  0  0  0  0  0  0
  158.8250  206.9510  155.7620 O   0  0  0  0  0  0  0  0  0  0  0  0
  161.1950  206.6960  155.2090 N   0  0  0  0  0  2  0  0  0  0  0  0
  160.1630  207.0690  156.1210 C   0  0  0  0  0  0  0  0  0  0  0  0
  160.4660  207.5070  157.2610 O   0  0  0  0  0  1  0  0  0  0  0  0
  1  4  2  0  0  0  0
  2 11  1  6  0  0  0
  2  6  1  0  0  0  0
  2 12  1  0  0  0  0
  3  6  2  0  0  0  0
  5  1  1  0  0  0  0
  6  5  1  0  0  0  0
  7  1  1  0  0  0  0
  7 10  2  0  0  0  0
  8  9  1  0  0  0  0
  9 10  1  0  0  0  0
  9 13  1  0  0  0  0
 10 24  1  0  0  0  0
 12  8  2  0  0  0  0
 12  7  1  0  0  0  0
 13 14  1  6  0  0  0
 15 16  1  0  0  0  0
 15 18  1  0  0  0  0
 16 13  1  6  0  0  0
 16 19  1  0  0  0  0
 17 22  1  1  0  0  0
 18 17  1  0  0  0  0
 19 17  1  0  0  0  0
 21 22  1  0  0  0  0
 22 23  1  0  0  0  0
 22 20  1  0  0  0  0
 24 25  1  0  0  0  0
 25 27  1  0  0  0  0
 26 28  2  0  0  0  0
 27 28  1  0  0  0  0
 28 29  1  0  0  0  0
M  END
>  <MODEL>
6

>  <REMARK>
 VINA RESULT:      -6.5      4.522      8.133
  Name = 
  6 active torsions:
  status: ('A' for Active; 'I' for Inactive)
    1  A    between atoms: C_8  and  C_12
    2  A    between atoms: N_10  and  C_14
    3  A    between atoms: C_11  and  C_13
    4  A    between atoms: C_13  and  N_25
    5  A    between atoms: C_14  and  O_18
    6  A    between atoms: O_18  and  C_26
                            x       y       z     vdW  Elec       q    Type
                         _______ _______ _______ _____ _____    ______ ____

>  <TORSDO>
F 6

$$$$
=
 OpenBabel11052409543D

 29 31  0  0  1  0  0  0  0  0999 V2000
  160.5100  208.1060  154.8670 C   0  0  0  0  0  0  0  0  0  0  0  0
  160.2480  210.7620  153.5350 C   0  0  2  0  0  3  0  0  0  0  0  0
  159.5390  211.5080  155.6980 O   0  0  0  0  0  0  0  0  0  0  0  0
  160.4560  206.9580  155.3760 O   0  0  0  0  0  0  0  0  0  0  0  0
  159.9750  209.2240  155.5810 N   0  0  0  0  0  2  0  0  0  0  0  0
  159.9090  210.5320  154.9920 C   0  0  0  0  0  0  0  0  0  0  0  0
  161.0750  208.3460  153.5320 C   0  0  0  0  0  0  0  0  0  0  0  0
  161.4780  209.4900  151.6540 C   0  0  0  0  0  3  0  0  0  0  0  0
  161.9570  208.2390  151.4790 N   0  0  0  0  0  0  0  0  0  0  0  0
  161.7240  207.5320  152.6060 C   0  0  0  0  0  0  0  0  0  0  0  0
  158.9790  211.0720  152.7590 C   0  0  0  0  0  1  0  0  0  0  0  0
  160.9410  209.5750  152.9260 C   0  0  0  0  0  0  0  0  0  0  0  0
  162.5680  207.7080  150.2620 C   0  0  1  0  0  3  0  0  0  0  0  0
  163.2610  206.3790  150.5380 C   0  0  0  0  0  1  0  0  0  0  0  0
  160.4550  206.6410  149.3110 C   0  0  0  0  0  2  0  0  0  0  0  0
  161.5740  207.6500  149.0920 C   0  0  2  0  0  3  0  0  0  0  0  0
  161.4490  206.3290  147.1700 C   0  0  1  0  0  3  0  0  0  0  0  0
  160.6210  205.6200  148.2180 C   0  0  0  0  0  2  0  0  0  0  0  0
  162.2730  207.3170  147.8550 N   0  0  0  0  0  2  0  0  0  0  0  0
  162.5100  205.8250  145.0950 F   0  0  0  0  0  0  0  0  0  0  0  0
  163.5540  205.2390  147.0000 F   0  0  0  0  0  0  0  0  0  0  0  0
  162.3220  205.3540  146.3830 C   0  0  0  0  0  0  0  0  0  0  0  0
  161.7250  204.1060  146.3260 F   0  0  0  0  0  0  0  0  0  0  0  0
  162.1030  206.1900  152.7340 O   0  0  0  0  0  0  0  0  0  0  0  0
  161.2050  205.1420  153.0510 C   0  0  0  0  0  2  0  0  0  0  0  0
  161.9450  202.5470  152.0100 O   0  0  0  0  0  1  0  0  0  0  0  0
  160.6360  204.6060  151.8270 N   0  0  0  0  0  2  0  0  0  0  0  0
  161.0100  203.3220  151.3330 C   0  0  0  0  0  0  0  0  0  0  0  0
  160.4890  202.8840  150.2750 O   0  0  0  0  0  0  0  0  0  0  0  0
  1  4  2  0  0  0  0
  1  5  1  0  0  0  0
  2 11  1  6  0  0  0
  2  6  1  0  0  0  0
  6  5  1  0  0  0  0
  6  3  2  0  0  0  0
  7  1  1  0  0  0  0
  8 12  2  0  0  0  0
  9  8  1  0  0  0  0
  9 10  1  0  0  0  0
 10 24  1  0  0  0  0
 10  7  2  0  0  0  0
 12  7  1  0  0  0  0
 12  2  1  0  0  0  0
 13 14  1  1  0  0  0
 13  9  1  0  0  0  0
 16 15  1  0  0  0  0
 16 13  1  1  0  0  0
 17 22  1  1  0  0  0
 17 19  1  0  0  0  0
 17 18  1  0  0  0  0
 18 15  1  0  0  0  0
 19 16  1  0  0  0  0
 20 22  1  0  0  0  0
 22 21  1  0  0  0  0
 23 22  1  0  0  0  0
 24 25  1  0  0  0  0
 27 25  1  0  0  0  0
 28 27  1  0  0  0  0
 28 26  1  0  0  0  0
 29 28  2  0  0  0  0
M  END
>  <MODEL>
7

>  <REMARK>
 VINA RESULT:      -6.2      2.631      4.135
  Name = 
  6 active torsions:
  status: ('A' for Active; 'I' for Inactive)
    1  A    between atoms: C_8  and  C_12
    2  A    between atoms: N_10  and  C_14
    3  A    between atoms: C_11  and  C_13
    4  A    between atoms: C_13  and  N_25
    5  A    between atoms: C_14  and  O_18
    6  A    between atoms: O_18  and  C_26
                            x       y       z     vdW  Elec       q    Type
                         _______ _______ _______ _____ _____    ______ ____

>  <TORSDO>
F 6

$$$$
=
 OpenBabel11052409543D

 29 31  0  0  1  0  0  0  0  0999 V2000
  161.1100  207.6430  152.3510 C   0  0  0  0  0  0  0  0  0  0  0  0
  162.3920  209.6960  150.6080 C   0  0  2  0  0  3  0  0  0  0  0  0
  163.0860  210.6760  152.6800 O   0  0  0  0  0  0  0  0  0  0  0  0
  160.4270  206.8780  153.0780 O   0  0  0  0  0  0  0  0  0  0  0  0
  161.7490  208.7860  152.9280 N   0  0  0  0  0  2  0  0  0  0  0  0
  162.4410  209.7500  152.1190 C   0  0  0  0  0  0  0  0  0  0  0  0
  161.2520  207.4300  150.9040 C   0  0  0  0  0  0  0  0  0  0  0  0
  161.7560  207.9700  148.7940 C   0  0  0  0  0  3  0  0  0  0  0  0
  161.1480  206.7640  148.7720 N   0  0  0  0  0  0  0  0  0  0  0  0
  160.8370  206.4200  150.0390 C   0  0  0  0  0  0  0  0  0  0  0  0
  161.5470  210.8450  150.0840 C   0  0  0  0  0  1  0  0  0  0  0  0
  161.8400  208.3890  150.1100 C   0  0  0  0  0  0  0  0  0  0  0  0
  160.8190  205.9830  147.5810 C   0  0  1  0  0  3  0  0  0  0  0  0
  160.4570  206.8960  146.4160 C   0  0  0  0  0  1  0  0  0  0  0  0
  162.2800  204.9490  145.7630 C   0  0  0  0  0  2  0  0  0  0  0  0
  161.9100  204.9570  147.2410 C   0  0  2  0  0  3  0  0  0  0  0  0
  161.8410  202.7360  146.5220 C   0  0  1  0  0  3  0  0  0  0  0  0
  161.9100  203.5780  145.2670 C   0  0  0  0  0  2  0  0  0  0  0  0
  161.4770  203.6170  147.6240 N   0  0  0  0  0  2  0  0  0  0  0  0
  159.8610  201.7110  147.3660 F   0  0  0  0  0  0  0  0  0  0  0  0
  160.2230  201.6710  145.1450 F   0  0  0  0  0  0  0  0  0  0  0  0
  160.8310  201.5990  146.3860 C   0  0  0  0  0  0  0  0  0  0  0  0
  161.4620  200.3720  146.5100 F   0  0  0  0  0  0  0  0  0  0  0  0
  160.1900  205.2160  150.3460 O   0  0  0  0  0  0  0  0  0  0  0  0
  160.7960  204.1520  151.0570 C   0  0  0  0  0  2  0  0  0  0  0  0
  162.2370  201.7120  151.6360 O   0  0  0  0  0  1  0  0  0  0  0  0
  160.4870  202.8940  150.4000 N   0  0  0  0  0  2  0  0  0  0  0  0
  161.2060  201.7000  150.7040 C   0  0  0  0  0  0  0  0  0  0  0  0
  160.9030  200.6250  150.1230 O   0  0  0  0  0  0  0  0  0  0  0  0
  1  5  1  0  0  0  0
  1  4  2  0  0  0  0
  2 11  1  1  0  0  0
  2  6  1  0  0  0  0
  6  3  2  0  0  0  0
  6  5  1  0  0  0  0
  7  1  1  0  0  0  0
  8 12  2  0  0  0  0
  9  8  1  0  0  0  0
  9 10  1  0  0  0  0
 10 24  1  0  0  0  0
 10  7  2  0  0  0  0
 12  2  1  0  0  0  0
 12  7  1  0  0  0  0
 13 14  1  6  0  0  0
 13  9  1  0  0  0  0
 15 16  1  0  0  0  0
 16 13  1  6  0  0  0
 16 19  1  0  0  0  0
 17 22  1  6  0  0  0
 17 19  1  0  0  0  0
 18 15  1  0  0  0  0
 18 17  1  0  0  0  0
 21 22  1  0  0  0  0
 22 23  1  0  0  0  0
 22 20  1  0  0  0  0
 24 25  1  0  0  0  0
 27 28  1  0  0  0  0
 27 25  1  0  0  0  0
 28 26  1  0  0  0  0
 29 28  2  0  0  0  0
M  END
>  <MODEL>
8

>  <REMARK>
 VINA RESULT:      -6.0      2.586      4.362
  Name = 
  6 active torsions:
  status: ('A' for Active; 'I' for Inactive)
    1  A    between atoms: C_8  and  C_12
    2  A    between atoms: N_10  and  C_14
    3  A    between atoms: C_11  and  C_13
    4  A    between atoms: C_13  and  N_25
    5  A    between atoms: C_14  and  O_18
    6  A    between atoms: O_18  and  C_26
                            x       y       z     vdW  Elec       q    Type
                         _______ _______ _______ _____ _____    ______ ____

>  <TORSDO>
F 6

$$$$
=
 OpenBabel11052409543D

 29 31  0  0  1  0  0  0  0  0999 V2000
  161.5870  204.5970  151.0270 C   0  0  0  0  0  0  0  0  0  0  0  0
  161.1190  206.2050  148.5580 C   0  0  2  0  0  3  0  0  0  0  0  0
  160.7190  204.0770  147.5360 O   0  0  0  0  0  0  0  0  0  0  0  0
  161.9520  203.9190  152.0200 O   0  0  0  0  0  0  0  0  0  0  0  0
  161.3440  203.9480  149.7750 N   0  0  0  0  0  2  0  0  0  0  0  0
  161.0390  204.6940  148.5870 C   0  0  0  0  0  0  0  0  0  0  0  0
  161.4320  206.0570  151.0880 C   0  0  0  0  0  0  0  0  0  0  0  0
  161.2080  208.1290  150.2790 C   0  0  0  0  0  3  0  0  0  0  0  0
  161.3820  208.2310  151.6150 N   0  0  0  0  0  0  0  0  0  0  0  0
  161.5180  206.9870  152.1220 C   0  0  0  0  0  0  0  0  0  0  0  0
  162.3160  206.6360  147.7260 C   0  0  0  0  0  1  0  0  0  0  0  0
  161.2230  206.7880  149.9400 C   0  0  0  0  0  0  0  0  0  0  0  0
  161.4740  209.4690  152.3840 C   0  0  1  0  0  3  0  0  0  0  0  0
  162.6700  210.3000  151.9350 C   0  0  0  0  0  1  0  0  0  0  0  0
  160.2610  211.6100  151.7090 C   0  0  0  0  0  2  0  0  0  0  0  0
  160.1510  210.2500  152.3870 C   0  0  2  0  0  3  0  0  0  0  0  0
  159.2330  211.8260  153.8460 C   0  0  1  0  0  3  0  0  0  0  0  0
  159.9710  212.6170  152.7880 C   0  0  0  0  0  2  0  0  0  0  0  0
  159.6850  210.4430  153.7560 N   0  0  0  0  0  2  0  0  0  0  0  0
  160.7920  212.1500  155.6200 F   0  0  0  0  0  0  0  0  0  0  0  0
  159.2530  213.7480  155.2440 F   0  0  0  0  0  0  0  0  0  0  0  0
  159.4810  212.3830  155.2460 C   0  0  0  0  0  0  0  0  0  0  0  0
  158.6340  211.7840  156.1640 F   0  0  0  0  0  0  0  0  0  0  0  0
  161.7180  206.7590  153.4900 O   0  0  0  0  0  0  0  0  0  0  0  0
  160.7270  206.2370  154.3570 C   0  0  0  0  0  2  0  0  0  0  0  0
  161.9580  207.7050  156.5240 O   0  0  0  0  0  0  0  0  0  0  0  0
  160.0530  207.3310  155.0340 N   0  0  0  0  0  2  0  0  0  0  0  0
  160.6790  208.0460  156.0970 C   0  0  0  0  0  0  0  0  0  0  0  0
  160.0700  208.9960  156.6540 O   0  0  0  0  0  1  0  0  0  0  0  0
  1  7  1  0  0  0  0
  1  4  2  0  0  0  0
  2 11  1  6  0  0  0
  2  6  1  0  0  0  0
  2 12  1  0  0  0  0
  3  6  2  0  0  0  0
  5  1  1  0  0  0  0
  6  5  1  0  0  0  0
  7 10  2  0  0  0  0
  8  9  1  0  0  0  0
  9 10  1  0  0  0  0
  9 13  1  0  0  0  0
 10 24  1  0  0  0  0
 12  8  2  0  0  0  0
 12  7  1  0  0  0  0
 13 14  1  6  0  0  0
 15 16  1  0  0  0  0
 15 18  1  0  0  0  0
 16 13  1  1  0  0  0
 16 19  1  0  0  0  0
 17 22  1  1  0  0  0
 18 17  1  0  0  0  0
 19 17  1  0  0  0  0
 21 22  1  0  0  0  0
 22 20  1  0  0  0  0
 22 23  1  0  0  0  0
 24 25  1  0  0  0  0
 25 27  1  0  0  0  0
 27 28  1  0  0  0  0
 28 26  2  0  0  0  0
 28 29  1  0  0  0  0
M  END
>  <MODEL>
9

>  <REMARK>
 VINA RESULT:      -6.0      4.709      8.331
  Name = 
  6 active torsions:
  status: ('A' for Active; 'I' for Inactive)
    1  A    between atoms: C_8  and  C_12
    2  A    between atoms: N_10  and  C_14
    3  A    between atoms: C_11  and  C_13
    4  A    between atoms: C_13  and  N_25
    5  A    between atoms: C_14  and  O_18
    6  A    between atoms: O_18  and  C_26
                            x       y       z     vdW  Elec       q    Type
                         _______ _______ _______ _____ _____    ______ ____

>  <TORSDO>
F 6

$$$$
