=
 OpenBabel11042423143D

 35 39  0  0  1  0  0  0  0  0999 V2000
  160.9410  203.2340  149.2620 C   0  0  0  0  0  0  0  0  0  0  0  0
  161.2770  204.0450  148.1810 C   0  0  0  0  0  3  0  0  0  0  0  0
  162.4190  207.8920  149.7540 C   0  0  1  0  0  3  0  0  0  0  0  0
  162.5970  207.6250  148.2420 C   0  0  2  0  0  3  0  0  0  0  0  0
  161.5400  205.3620  148.5750 C   0  0  0  0  0  0  0  0  0  0  0  0
  161.6550  208.7080  148.7320 C   0  0  2  0  0  3  0  0  0  0  0  0
  160.8840  204.1670  150.6660 S   0  0  0  0  0  0  0  0  0  0  0  0
  161.4510  206.9670  150.5170 C   0  0  1  0  0  3  0  0  0  0  0  0
  161.7710  206.4860  147.6230 C   0  0  0  0  0  2  0  0  0  0  0  0
  161.3890  205.5920  149.9250 C   0  0  0  0  0  0  0  0  0  0  0  0
  160.5160  201.8040  149.1670 C   0  0  0  0  0  0  0  0  0  0  0  0
  161.0210  201.2370  148.0120 F   0  0  0  0  0  0  0  0  0  0  0  0
  159.1350  201.7200  149.1420 F   0  0  0  0  0  0  0  0  0  0  0  0
  160.9940  201.1100  150.2620 F   0  0  0  0  0  0  0  0  0  0  0  0
  162.3230  210.0600  148.5760 C   0  0  0  0  0  2  0  0  0  0  0  0
  161.2760  211.1530  148.4360 C   0  0  0  0  0  2  0  0  0  0  0  0
  161.7120  212.1510  147.4710 N   0  0  0  0  0  0  0  0  0  0  0  0
  163.0550  212.5470  147.8570 C   0  0  0  0  0  1  0  0  0  0  0  0
  159.2460  213.1250  147.7160 O   0  0  0  0  0  0  0  0  0  0  0  0
  160.6890  213.5440  147.6370 S   0  0  0  0  0  0  0  0  0  0  0  0
  160.8790  214.4530  146.4560 O   0  0  0  0  0  0  0  0  0  0  0  0
  161.1110  214.4010  149.0770 N   0  0  0  0  0  1  0  0  0  0  0  0
  161.7620  206.9550  152.0180 C   0  0  0  0  0  2  0  0  0  0  0  0
  161.3070  209.1400  152.9920 O   0  0  0  0  0  0  0  0  0  0  0  0
  160.3330  206.0390  154.6540 O   0  0  0  0  0  1  0  0  0  0  0  0
  162.6870  211.6030  156.8690 O   0  0  0  0  0  0  0  0  0  0  0  0
  161.0850  207.2260  157.2600 O   0  0  0  0  0  0  0  0  0  0  0  0
  161.3810  208.2260  156.5550 C   0  0  0  0  0  0  0  0  0  0  0  0
  161.2140  208.2280  155.1010 C   0  0  0  0  0  0  0  0  0  0  0  0
  160.8020  207.8070  152.8510 C   0  0  2  0  0  3  0  0  0  0  0  0
  162.2330  210.5580  156.3360 C   0  0  0  0  0  0  0  0  0  0  0  0
  160.7710  207.3000  154.2700 C   0  0  0  0  0  0  0  0  0  0  0  0
  161.9000  209.4210  157.1570 N   0  0  0  0  0  2  0  0  0  0  0  0
  161.5570  209.3840  154.3300 C   0  0  0  0  0  0  0  0  0  0  0  0
  162.0410  210.5050  154.8660 C   0  0  0  0  0  3  0  0  0  0  0  0
  1  7  1  0  0  0  0
  2  5  1  0  0  0  0
  2  1  2  0  0  0  0
  3  8  1  0  0  0  0
  4  6  1  0  0  0  0
  4  3  1  0  0  0  0
  5 10  2  0  0  0  0
  6  3  1  0  0  0  0
  8 23  1  0  0  0  0
  9  4  1  0  0  0  0
  9  5  1  0  0  0  0
 10  8  1  0  0  0  0
 10  7  1  0  0  0  0
 11  1  1  0  0  0  0
 11 14  1  0  0  0  0
 12 11  1  0  0  0  0
 13 11  1  0  0  0  0
 15  6  1  0  0  0  0
 16 15  1  0  0  0  0
 17 20  1  0  0  0  0
 17 18  1  0  0  0  0
 17 16  1  0  0  0  0
 20 19  2  0  0  0  0
 20 22  1  0  0  0  0
 21 20  2  0  0  0  0
 23 30  1  0  0  0  0
 24 34  1  0  0  0  0
 28 33  1  0  0  0  0
 28 27  2  0  0  0  0
 29 28  1  0  0  0  0
 30 24  1  0  0  0  0
 30 32  1  0  0  0  0
 31 26  2  0  0  0  0
 31 33  1  0  0  0  0
 32 25  1  0  0  0  0
 32 29  2  0  0  0  0
 34 35  2  0  0  0  0
 34 29  1  0  0  0  0
 35 31  1  0  0  0  0
M  END
>  <MODEL>
1

>  <REMARK>
 VINA RESULT:      -8.7      0.000      0.000
  Name = 
  7 active torsions:
  status: ('A' for Active; 'I' for Inactive)
    1  A    between atoms: C_1  and  C_3
    2  A    between atoms: C_2  and  C_24
    3  A    between atoms: C_2  and  N_31
    4  A    between atoms: S_7  and  N_31
    5  A    between atoms: C_14  and  C_27
    6  A    between atoms: C_21  and  C_24
    7  A    between atoms: C_27  and  C_32
                            x       y       z     vdW  Elec       q    Type
                         _______ _______ _______ _____ _____    ______ ____

>  <TORSDO>
F 7

$$$$
=
 OpenBabel11042423143D

 35 39  0  0  1  0  0  0  0  0999 V2000
  161.4820  204.3970  147.0010 C   0  0  0  0  0  0  0  0  0  0  0  0
  161.3810  203.6400  148.1650 C   0  0  0  0  0  3  0  0  0  0  0  0
  160.8470  206.3770  151.4510 C   0  0  1  0  0  3  0  0  0  0  0  0
  160.7360  204.8600  151.7230 C   0  0  2  0  0  3  0  0  0  0  0  0
  161.3350  204.4410  149.3110 C   0  0  0  0  0  0  0  0  0  0  0  0
  161.8220  205.6890  152.3840 C   0  0  2  0  0  3  0  0  0  0  0  0
  161.6040  206.0300  147.4050 S   0  0  0  0  0  0  0  0  0  0  0  0
  161.5700  206.8040  150.1590 C   0  0  1  0  0  3  0  0  0  0  0  0
  161.3850  203.9100  150.7030 C   0  0  0  0  0  2  0  0  0  0  0  0
  161.4240  205.7940  149.0620 C   0  0  0  0  0  0  0  0  0  0  0  0
  161.6440  203.8420  145.6230 C   0  0  0  0  0  0  0  0  0  0  0  0
  162.9490  204.0090  145.1980 F   0  0  0  0  0  0  0  0  0  0  0  0
  160.7980  204.4950  144.7440 F   0  0  0  0  0  0  0  0  0  0  0  0
  161.3380  202.4940  145.6330 F   0  0  0  0  0  0  0  0  0  0  0  0
  161.4250  205.9790  153.8180 C   0  0  0  0  0  2  0  0  0  0  0  0
  161.1920  207.4690  154.0100 C   0  0  0  0  0  2  0  0  0  0  0  0
  161.2820  207.8180  155.4200 N   0  0  0  0  0  0  0  0  0  0  0  0
  160.1780  207.1490  156.0870 C   0  0  0  0  0  1  0  0  0  0  0  0
  159.6510  209.8930  155.0640 O   0  0  0  0  0  0  0  0  0  0  0  0
  161.0210  209.5290  155.5690 S   0  0  0  0  0  0  0  0  0  0  0  0
  162.0570  210.2680  154.7690 O   0  0  0  0  0  0  0  0  0  0  0  0
  161.1580  209.9910  157.2270 N   0  0  0  0  0  1  0  0  0  0  0  0
  161.1520  208.2150  149.7270 C   0  0  0  0  0  2  0  0  0  0  0  0
  161.1080  209.7290  151.6340 O   0  0  0  0  0  0  0  0  0  0  0  0
  162.5580  210.6960  148.4260 O   0  0  0  0  0  1  0  0  0  0  0  0
  159.0280  213.9050  152.7450 O   0  0  0  0  0  0  0  0  0  0  0  0
  161.4230  213.4100  148.7570 O   0  0  0  0  0  0  0  0  0  0  0  0
  160.9830  212.9380  149.8390 C   0  0  0  0  0  0  0  0  0  0  0  0
  161.2400  211.5540  150.2410 C   0  0  0  0  0  0  0  0  0  0  0  0
  161.8720  209.3290  150.4900 C   0  0  2  0  0  3  0  0  0  0  0  0
  159.7100  213.1900  151.9660 C   0  0  0  0  0  0  0  0  0  0  0  0
  161.9080  210.5790  149.6490 C   0  0  0  0  0  0  0  0  0  0  0  0
  160.2040  213.7460  150.7310 N   0  0  0  0  0  2  0  0  0  0  0  0
  160.7290  211.0500  151.4800 C   0  0  0  0  0  0  0  0  0  0  0  0
  160.0030  211.7810  152.3260 C   0  0  0  0  0  3  0  0  0  0  0  0
  1  7  1  0  0  0  0
  1  2  2  0  0  0  0
  2  5  1  0  0  0  0
  3  4  1  0  0  0  0
  3  6  1  0  0  0  0
  4  6  1  0  0  0  0
  5  9  1  0  0  0  0
  6 15  1  0  0  0  0
  7 10  1  0  0  0  0
  8  3  1  0  0  0  0
  9  4  1  0  0  0  0
 10  5  2  0  0  0  0
 10  8  1  0  0  0  0
 11 14  1  0  0  0  0
 11  1  1  0  0  0  0
 12 11  1  0  0  0  0
 13 11  1  0  0  0  0
 15 16  1  0  0  0  0
 16 17  1  0  0  0  0
 17 20  1  0  0  0  0
 17 18  1  0  0  0  0
 19 20  2  0  0  0  0
 20 22  1  0  0  0  0
 21 20  2  0  0  0  0
 23  8  1  0  0  0  0
 23 30  1  0  0  0  0
 25 32  1  0  0  0  0
 27 28  2  0  0  0  0
 28 29  1  0  0  0  0
 28 33  1  0  0  0  0
 29 34  1  0  0  0  0
 30 24  1  0  0  0  0
 31 35  1  0  0  0  0
 31 26  2  0  0  0  0
 32 29  2  0  0  0  0
 32 30  1  0  0  0  0
 33 31  1  0  0  0  0
 34 24  1  0  0  0  0
 34 35  2  0  0  0  0
M  END
>  <MODEL>
2

>  <REMARK>
 VINA RESULT:      -8.6      2.787      6.008
  Name = 
  7 active torsions:
  status: ('A' for Active; 'I' for Inactive)
    1  A    between atoms: C_1  and  C_3
    2  A    between atoms: C_2  and  C_24
    3  A    between atoms: C_2  and  N_31
    4  A    between atoms: S_7  and  N_31
    5  A    between atoms: C_14  and  C_27
    6  A    between atoms: C_21  and  C_24
    7  A    between atoms: C_27  and  C_32
                            x       y       z     vdW  Elec       q    Type
                         _______ _______ _______ _____ _____    ______ ____

>  <TORSDO>
F 7

$$$$
=
 OpenBabel11042423143D

 35 39  0  0  1  0  0  0  0  0999 V2000
  161.1290  203.5450  149.2760 C   0  0  0  0  0  0  0  0  0  0  0  0
  161.4450  204.3670  148.1980 C   0  0  0  0  0  3  0  0  0  0  0  0
  162.4420  208.2510  149.7770 C   0  0  1  0  0  3  0  0  0  0  0  0
  162.6410  207.9900  148.2680 C   0  0  2  0  0  3  0  0  0  0  0  0
  161.6600  205.6920  148.5930 C   0  0  0  0  0  0  0  0  0  0  0  0
  161.6590  209.0400  148.7490 C   0  0  2  0  0  3  0  0  0  0  0  0
  161.0280  204.4760  150.6790 S   0  0  0  0  0  0  0  0  0  0  0  0
  161.5000  207.2930  150.5330 C   0  0  1  0  0  3  0  0  0  0  0  0
  161.8600  206.8230  147.6430 C   0  0  0  0  0  2  0  0  0  0  0  0
  161.4900  205.9170  149.9420 C   0  0  0  0  0  0  0  0  0  0  0  0
  160.7530  202.1020  149.1790 C   0  0  0  0  0  0  0  0  0  0  0  0
  159.3860  201.9780  149.0190 F   0  0  0  0  0  0  0  0  0  0  0  0
  161.1330  201.4320  150.3290 F   0  0  0  0  0  0  0  0  0  0  0  0
  161.3910  201.5350  148.0910 F   0  0  0  0  0  0  0  0  0  0  0  0
  162.2810  210.4140  148.5980 C   0  0  0  0  0  2  0  0  0  0  0  0
  161.3110  211.4870  149.0650 C   0  0  0  0  0  2  0  0  0  0  0  0
  161.7750  212.8030  148.6520 N   0  0  0  0  0  0  0  0  0  0  0  0
  161.1360  213.7670  149.5310 C   0  0  0  0  0  1  0  0  0  0  0  0
  160.5360  214.4510  146.9660 O   0  0  0  0  0  0  0  0  0  0  0  0
  161.1910  213.0990  147.0430 S   0  0  0  0  0  0  0  0  0  0  0  0
  160.1920  212.0410  146.6670 O   0  0  0  0  0  0  0  0  0  0  0  0
  162.5120  213.0420  145.9300 N   0  0  0  0  0  1  0  0  0  0  0  0
  161.7980  207.2920  152.0370 C   0  0  0  0  0  2  0  0  0  0  0  0
  159.9920  208.9020  152.3150 O   0  0  0  0  0  0  0  0  0  0  0  0
  161.8040  207.5140  155.1640 O   0  0  0  0  0  1  0  0  0  0  0  0
  159.5220  213.4000  153.9120 O   0  0  0  0  0  0  0  0  0  0  0  0
  161.7150  210.1640  156.4810 O   0  0  0  0  0  0  0  0  0  0  0  0
  161.1000  210.5030  155.4360 C   0  0  0  0  0  0  0  0  0  0  0  0
  160.8300  209.5550  154.3540 C   0  0  0  0  0  0  0  0  0  0  0  0
  160.6190  207.7540  152.8970 C   0  0  2  0  0  3  0  0  0  0  0  0
  159.9300  212.2190  154.0590 C   0  0  0  0  0  0  0  0  0  0  0  0
  161.1260  208.2740  154.2180 C   0  0  0  0  0  0  0  0  0  0  0  0
  160.6340  211.8480  155.2610 N   0  0  0  0  0  2  0  0  0  0  0  0
  160.1240  209.9720  153.1800 C   0  0  0  0  0  0  0  0  0  0  0  0
  159.6810  211.2160  152.9950 C   0  0  0  0  0  3  0  0  0  0  0  0
  1  7  1  0  0  0  0
  2  5  1  0  0  0  0
  2  1  2  0  0  0  0
  3  8  1  0  0  0  0
  4  6  1  0  0  0  0
  4  3  1  0  0  0  0
  5 10  2  0  0  0  0
  6  3  1  0  0  0  0
  8 23  1  0  0  0  0
  9  4  1  0  0  0  0
  9  5  1  0  0  0  0
 10  8  1  0  0  0  0
 10  7  1  0  0  0  0
 11  1  1  0  0  0  0
 11 13  1  0  0  0  0
 12 11  1  0  0  0  0
 14 11  1  0  0  0  0
 15  6  1  0  0  0  0
 15 16  1  0  0  0  0
 17 16  1  0  0  0  0
 17 18  1  0  0  0  0
 19 20  2  0  0  0  0
 20 17  1  0  0  0  0
 21 20  2  0  0  0  0
 22 20  1  0  0  0  0
 23 30  1  0  0  0  0
 24 30  1  0  0  0  0
 24 34  1  0  0  0  0
 26 31  2  0  0  0  0
 28 27  2  0  0  0  0
 29 28  1  0  0  0  0
 30 32  1  0  0  0  0
 31 33  1  0  0  0  0
 32 29  2  0  0  0  0
 32 25  1  0  0  0  0
 33 28  1  0  0  0  0
 34 29  1  0  0  0  0
 35 34  2  0  0  0  0
 35 31  1  0  0  0  0
M  END
>  <MODEL>
3

>  <REMARK>
 VINA RESULT:      -8.0      1.574      1.984
  Name = 
  7 active torsions:
  status: ('A' for Active; 'I' for Inactive)
    1  A    between atoms: C_1  and  C_3
    2  A    between atoms: C_2  and  C_24
    3  A    between atoms: C_2  and  N_31
    4  A    between atoms: S_7  and  N_31
    5  A    between atoms: C_14  and  C_27
    6  A    between atoms: C_21  and  C_24
    7  A    between atoms: C_27  and  C_32
                            x       y       z     vdW  Elec       q    Type
                         _______ _______ _______ _____ _____    ______ ____

>  <TORSDO>
F 7

$$$$
=
 OpenBabel11042423143D

 35 39  0  0  1  0  0  0  0  0999 V2000
  160.8830  203.5480  149.1860 C   0  0  0  0  0  0  0  0  0  0  0  0
  160.7920  203.2670  150.5470 C   0  0  0  0  0  3  0  0  0  0  0  0
  160.8580  207.0250  152.6560 C   0  0  1  0  0  3  0  0  0  0  0  0
  160.5940  205.7290  153.4550 C   0  0  2  0  0  3  0  0  0  0  0  0
  160.9350  204.4160  151.3310 C   0  0  0  0  0  0  0  0  0  0  0  0
  161.8200  206.5770  153.7370 C   0  0  2  0  0  3  0  0  0  0  0  0
  161.2280  205.1860  148.9750 S   0  0  0  0  0  0  0  0  0  0  0  0
  161.5150  206.8690  151.2700 C   0  0  1  0  0  3  0  0  0  0  0  0
  161.0390  204.4030  152.8190 C   0  0  0  0  0  2  0  0  0  0  0  0
  161.1610  205.5700  150.6130 C   0  0  0  0  0  0  0  0  0  0  0  0
  160.8640  202.5300  148.0920 C   0  0  0  0  0  0  0  0  0  0  0  0
  161.9530  201.6880  148.2120 F   0  0  0  0  0  0  0  0  0  0  0  0
  160.9140  203.1560  146.8590 F   0  0  0  0  0  0  0  0  0  0  0  0
  159.7020  201.7870  148.1780 F   0  0  0  0  0  0  0  0  0  0  0  0
  161.5820  207.4020  154.9860 C   0  0  0  0  0  2  0  0  0  0  0  0
  160.8060  208.6640  154.6450 C   0  0  0  0  0  2  0  0  0  0  0  0
  161.2740  209.7790  155.4550 N   0  0  0  0  0  0  0  0  0  0  0  0
  161.7490  209.2170  156.7070 C   0  0  0  0  0  1  0  0  0  0  0  0
  159.4890  210.5970  157.2540 O   0  0  0  0  0  0  0  0  0  0  0  0
  159.9080  210.7880  155.8210 S   0  0  0  0  0  0  0  0  0  0  0  0
  158.7620  210.4330  154.9170 O   0  0  0  0  0  0  0  0  0  0  0  0
  160.3300  212.4440  155.5680 N   0  0  0  0  0  1  0  0  0  0  0  0
  161.2300  208.0840  150.3800 C   0  0  0  0  0  2  0  0  0  0  0  0
  161.2220  210.0260  151.8490 O   0  0  0  0  0  0  0  0  0  0  0  0
  162.5840  210.1640  148.4650 O   0  0  0  0  0  1  0  0  0  0  0  0
  159.1360  214.3430  151.9380 O   0  0  0  0  0  0  0  0  0  0  0  0
  161.4350  212.8730  148.1390 O   0  0  0  0  0  0  0  0  0  0  0  0
  161.0270  212.6850  149.3140 C   0  0  0  0  0  0  0  0  0  0  0  0
  161.3050  211.4460  150.0430 C   0  0  0  0  0  0  0  0  0  0  0  0
  161.9600  209.3540  150.8220 C   0  0  2  0  0  3  0  0  0  0  0  0
  159.8040  213.4580  151.3450 C   0  0  0  0  0  0  0  0  0  0  0  0
  161.9650  210.3560  149.6950 C   0  0  0  0  0  0  0  0  0  0  0  0
  160.2630  213.6890  149.9970 N   0  0  0  0  0  2  0  0  0  0  0  0
  160.8290  211.2660  151.3810 C   0  0  0  0  0  0  0  0  0  0  0  0
  160.1180  212.1840  152.0360 C   0  0  0  0  0  3  0  0  0  0  0  0
  1  2  2  0  0  0  0
  2  5  1  0  0  0  0
  3  4  1  0  0  0  0
  3  6  1  0  0  0  0
  4  6  1  0  0  0  0
  5  9  1  0  0  0  0
  6 15  1  0  0  0  0
  7  1  1  0  0  0  0
  7 10  1  0  0  0  0
  8  3  1  0  0  0  0
  9  4  1  0  0  0  0
 10  8  1  0  0  0  0
 10  5  2  0  0  0  0
 11 14  1  0  0  0  0
 11 12  1  0  0  0  0
 11  1  1  0  0  0  0
 13 11  1  0  0  0  0
 16 15  1  0  0  0  0
 16 17  1  0  0  0  0
 17 20  1  0  0  0  0
 17 18  1  0  0  0  0
 20 19  2  0  0  0  0
 21 20  2  0  0  0  0
 22 20  1  0  0  0  0
 23 30  1  0  0  0  0
 23  8  1  0  0  0  0
 25 32  1  0  0  0  0
 27 28  2  0  0  0  0
 28 33  1  0  0  0  0
 28 29  1  0  0  0  0
 29 34  1  0  0  0  0
 30 24  1  0  0  0  0
 31 26  2  0  0  0  0
 31 35  1  0  0  0  0
 32 29  2  0  0  0  0
 32 30  1  0  0  0  0
 33 31  1  0  0  0  0
 34 24  1  0  0  0  0
 34 35  2  0  0  0  0
M  END
>  <MODEL>
4

>  <REMARK>
 VINA RESULT:      -7.4      2.663      5.921
  Name = 
  7 active torsions:
  status: ('A' for Active; 'I' for Inactive)
    1  A    between atoms: C_1  and  C_3
    2  A    between atoms: C_2  and  C_24
    3  A    between atoms: C_2  and  N_31
    4  A    between atoms: S_7  and  N_31
    5  A    between atoms: C_14  and  C_27
    6  A    between atoms: C_21  and  C_24
    7  A    between atoms: C_27  and  C_32
                            x       y       z     vdW  Elec       q    Type
                         _______ _______ _______ _____ _____    ______ ____

>  <TORSDO>
F 7

$$$$
=
 OpenBabel11042423143D

 35 39  0  0  1  0  0  0  0  0999 V2000
  160.8500  208.5680  153.9660 C   0  0  0  0  0  0  0  0  0  0  0  0
  160.5540  209.8390  153.4800 C   0  0  0  0  0  3  0  0  0  0  0  0
  161.6560  209.9250  149.3150 C   0  0  1  0  0  3  0  0  0  0  0  0
  160.9150  211.1420  149.9120 C   0  0  2  0  0  3  0  0  0  0  0  0
  160.9950  210.0150  152.1640 C   0  0  0  0  0  0  0  0  0  0  0  0
  162.3210  211.2850  149.3600 C   0  0  2  0  0  3  0  0  0  0  0  0
  161.7270  207.7160  152.8040 S   0  0  0  0  0  0  0  0  0  0  0  0
  162.3450  208.9700  150.3090 C   0  0  1  0  0  3  0  0  0  0  0  0
  160.9580  211.3170  151.4380 C   0  0  0  0  0  2  0  0  0  0  0  0
  161.6460  208.9230  151.6330 C   0  0  0  0  0  0  0  0  0  0  0  0
  160.5960  208.0980  155.3610 C   0  0  0  0  0  0  0  0  0  0  0  0
  159.8800  209.0530  156.0580 F   0  0  0  0  0  0  0  0  0  0  0  0
  161.7960  207.8730  156.0130 F   0  0  0  0  0  0  0  0  0  0  0  0
  159.8720  206.9220  155.3240 F   0  0  0  0  0  0  0  0  0  0  0  0
  162.2560  211.9160  147.9830 C   0  0  0  0  0  2  0  0  0  0  0  0
  160.8120  212.0400  147.5270 C   0  0  0  0  0  2  0  0  0  0  0  0
  160.5770  213.3520  146.9410 N   0  0  0  0  0  0  0  0  0  0  0  0
  159.2920  213.8090  147.4410 C   0  0  0  0  0  1  0  0  0  0  0  0
  159.7620  214.3600  144.6150 O   0  0  0  0  0  0  0  0  0  0  0  0
  160.4270  213.1540  145.2220 S   0  0  0  0  0  0  0  0  0  0  0  0
  159.6050  211.9320  144.9250 O   0  0  0  0  0  0  0  0  0  0  0  0
  161.9950  212.9580  144.5250 N   0  0  0  0  0  1  0  0  0  0  0  0
  162.5510  207.5810  149.6940 C   0  0  0  0  0  2  0  0  0  0  0  0
  160.9700  205.8490  150.3490 O   0  0  0  0  0  0  0  0  0  0  0  0
  161.6760  206.6010  146.8470 O   0  0  0  0  0  1  0  0  0  0  0  0
  160.6500  201.0770  149.9870 O   0  0  0  0  0  0  0  0  0  0  0  0
  161.5570  203.7080  146.2260 O   0  0  0  0  0  0  0  0  0  0  0  0
  161.3230  203.6010  147.4590 C   0  0  0  0  0  0  0  0  0  0  0  0
  161.2570  204.7670  148.3410 C   0  0  0  0  0  0  0  0  0  0  0  0
  161.2440  206.8540  149.3670 C   0  0  2  0  0  3  0  0  0  0  0  0
  160.8390  202.2080  149.4690 C   0  0  0  0  0  0  0  0  0  0  0  0
  161.4090  206.0570  148.0980 C   0  0  0  0  0  0  0  0  0  0  0  0
  161.1080  202.3140  148.0560 N   0  0  0  0  0  2  0  0  0  0  0  0
  160.9840  204.6090  149.7370 C   0  0  0  0  0  0  0  0  0  0  0  0
  160.7800  203.4250  150.3150 C   0  0  0  0  0  3  0  0  0  0  0  0
  1 11  1  0  0  0  0
  2  1  2  0  0  0  0
  3  6  1  0  0  0  0
  3  4  1  0  0  0  0
  3  8  1  0  0  0  0
  4  9  1  0  0  0  0
  5  2  1  0  0  0  0
  6  4  1  0  0  0  0
  7  1  1  0  0  0  0
  8 10  1  0  0  0  0
  9  5  1  0  0  0  0
 10  5  2  0  0  0  0
 10  7  1  0  0  0  0
 11 13  1  0  0  0  0
 11 12  1  0  0  0  0
 14 11  1  0  0  0  0
 15  6  1  0  0  0  0
 16 15  1  0  0  0  0
 17 18  1  0  0  0  0
 17 16  1  0  0  0  0
 19 20  2  0  0  0  0
 20 17  1  0  0  0  0
 21 20  2  0  0  0  0
 22 20  1  0  0  0  0
 23  8  1  0  0  0  0
 25 32  1  0  0  0  0
 27 28  2  0  0  0  0
 28 33  1  0  0  0  0
 28 29  1  0  0  0  0
 29 34  1  0  0  0  0
 30 23  1  0  0  0  0
 30 24  1  0  0  0  0
 31 26  2  0  0  0  0
 31 35  1  0  0  0  0
 32 29  2  0  0  0  0
 32 30  1  0  0  0  0
 33 31  1  0  0  0  0
 34 35  2  0  0  0  0
 34 24  1  0  0  0  0
M  END
>  <MODEL>
5

>  <REMARK>
 VINA RESULT:      -7.2      4.206      6.878
  Name = 
  7 active torsions:
  status: ('A' for Active; 'I' for Inactive)
    1  A    between atoms: C_1  and  C_3
    2  A    between atoms: C_2  and  C_24
    3  A    between atoms: C_2  and  N_31
    4  A    between atoms: S_7  and  N_31
    5  A    between atoms: C_14  and  C_27
    6  A    between atoms: C_21  and  C_24
    7  A    between atoms: C_27  and  C_32
                            x       y       z     vdW  Elec       q    Type
                         _______ _______ _______ _____ _____    ______ ____

>  <TORSDO>
F 7

$$$$
=
 OpenBabel11042423143D

 35 39  0  0  1  0  0  0  0  0999 V2000
  161.1260  209.4870  153.5190 C   0  0  0  0  0  0  0  0  0  0  0  0
  161.0260  208.1910  153.0180 C   0  0  0  0  0  3  0  0  0  0  0  0
  162.3310  208.2860  148.9120 C   0  0  1  0  0  3  0  0  0  0  0  0
  162.0220  206.9190  149.5610 C   0  0  2  0  0  3  0  0  0  0  0  0
  161.3050  208.1360  151.6480 C   0  0  0  0  0  0  0  0  0  0  0  0
  161.2150  207.4140  148.3760 C   0  0  2  0  0  3  0  0  0  0  0  0
  161.4640  210.5510  152.2550 S   0  0  0  0  0  0  0  0  0  0  0  0
  161.7400  209.5340  149.5960 C   0  0  1  0  0  3  0  0  0  0  0  0
  161.1250  206.9160  150.8100 C   0  0  0  0  0  2  0  0  0  0  0  0
  161.5890  209.3570  151.0760 C   0  0  0  0  0  0  0  0  0  0  0  0
  160.8010  209.8960  154.9190 C   0  0  0  0  0  0  0  0  0  0  0  0
  160.8000  208.7890  155.7470 F   0  0  0  0  0  0  0  0  0  0  0  0
  159.5530  210.4910  154.9640 F   0  0  0  0  0  0  0  0  0  0  0  0
  161.7500  210.7970  155.3650 F   0  0  0  0  0  0  0  0  0  0  0  0
  161.6910  206.7140  147.1190 C   0  0  0  0  0  2  0  0  0  0  0  0
  162.1470  205.3010  147.4420 C   0  0  0  0  0  2  0  0  0  0  0  0
  161.0980  204.3450  147.1200 N   0  0  0  0  0  0  0  0  0  0  0  0
  161.3240  203.1790  147.9570 C   0  0  0  0  0  1  0  0  0  0  0  0
  160.8300  202.4360  145.2830 O   0  0  0  0  0  0  0  0  0  0  0  0
  161.3100  203.8500  145.4690 S   0  0  0  0  0  0  0  0  0  0  0  0
  162.7640  203.9330  145.1000 O   0  0  0  0  0  0  0  0  0  0  0  0
  160.4080  204.8970  144.4320 N   0  0  0  0  0  1  0  0  0  0  0  0
  162.5270  210.7970  149.2260 C   0  0  0  0  0  2  0  0  0  0  0  0
  160.5170  211.5600  148.0820 O   0  0  0  0  0  0  0  0  0  0  0  0
  163.5470  213.5900  148.2330 O   0  0  0  0  0  1  0  0  0  0  0  0
  159.2210  212.5770  143.5770 O   0  0  0  0  0  0  0  0  0  0  0  0
  163.0810  214.4530  145.4400 O   0  0  0  0  0  0  0  0  0  0  0  0
  162.0680  213.7120  145.5320 C   0  0  0  0  0  0  0  0  0  0  0  0
  161.7560  212.9730  146.7570 C   0  0  0  0  0  0  0  0  0  0  0  0
  161.6390  211.9890  148.8620 C   0  0  2  0  0  3  0  0  0  0  0  0
  160.0090  212.7060  144.5500 C   0  0  0  0  0  0  0  0  0  0  0  0
  162.3780  212.9060  147.9210 C   0  0  0  0  0  0  0  0  0  0  0  0
  161.1660  213.5590  144.4270 N   0  0  0  0  0  2  0  0  0  0  0  0
  160.5920  212.1420  146.8300 C   0  0  0  0  0  0  0  0  0  0  0  0
  159.7400  211.9840  145.8170 C   0  0  0  0  0  3  0  0  0  0  0  0
  1 11  1  0  0  0  0
  2  1  2  0  0  0  0
  3  4  1  0  0  0  0
  3  8  1  0  0  0  0
  4  9  1  0  0  0  0
  5  2  1  0  0  0  0
  6  3  1  0  0  0  0
  6  4  1  0  0  0  0
  7  1  1  0  0  0  0
  8 10  1  0  0  0  0
  9  5  1  0  0  0  0
 10  5  2  0  0  0  0
 10  7  1  0  0  0  0
 11 13  1  0  0  0  0
 11 14  1  0  0  0  0
 11 12  1  0  0  0  0
 15 16  1  0  0  0  0
 15  6  1  0  0  0  0
 17 16  1  0  0  0  0
 17 18  1  0  0  0  0
 19 20  2  0  0  0  0
 20 17  1  0  0  0  0
 21 20  2  0  0  0  0
 22 20  1  0  0  0  0
 23  8  1  0  0  0  0
 24 30  1  0  0  0  0
 26 31  2  0  0  0  0
 27 28  2  0  0  0  0
 28 29  1  0  0  0  0
 29 34  1  0  0  0  0
 29 32  2  0  0  0  0
 30 23  1  0  0  0  0
 31 35  1  0  0  0  0
 32 25  1  0  0  0  0
 32 30  1  0  0  0  0
 33 31  1  0  0  0  0
 33 28  1  0  0  0  0
 34 24  1  0  0  0  0
 35 34  2  0  0  0  0
M  END
>  <MODEL>
6

>  <REMARK>
 VINA RESULT:      -7.2      4.943      8.751
  Name = 
  7 active torsions:
  status: ('A' for Active; 'I' for Inactive)
    1  A    between atoms: C_1  and  C_3
    2  A    between atoms: C_2  and  C_24
    3  A    between atoms: C_2  and  N_31
    4  A    between atoms: S_7  and  N_31
    5  A    between atoms: C_14  and  C_27
    6  A    between atoms: C_21  and  C_24
    7  A    between atoms: C_27  and  C_32
                            x       y       z     vdW  Elec       q    Type
                         _______ _______ _______ _____ _____    ______ ____

>  <TORSDO>
F 7

$$$$
=
 OpenBabel11042423143D

 35 39  0  0  1  0  0  0  0  0999 V2000
  162.0470  205.6600  147.6660 C   0  0  0  0  0  0  0  0  0  0  0  0
  161.4230  204.9270  148.6720 C   0  0  0  0  0  3  0  0  0  0  0  0
  161.1920  207.4500  152.1600 C   0  0  1  0  0  3  0  0  0  0  0  0
  160.4840  206.0770  152.1880 C   0  0  2  0  0  3  0  0  0  0  0  0
  161.4140  205.6120  149.8920 C   0  0  0  0  0  0  0  0  0  0  0  0
  161.6180  206.3840  153.1480 C   0  0  2  0  0  3  0  0  0  0  0  0
  162.6570  207.0930  148.3140 S   0  0  0  0  0  0  0  0  0  0  0  0
  162.2900  207.6470  151.0960 C   0  0  1  0  0  3  0  0  0  0  0  0
  160.9560  205.0170  151.1800 C   0  0  0  0  0  2  0  0  0  0  0  0
  162.0390  206.8400  149.8590 C   0  0  0  0  0  0  0  0  0  0  0  0
  162.3020  205.1720  146.2770 C   0  0  0  0  0  0  0  0  0  0  0  0
  161.4350  204.1390  145.9720 F   0  0  0  0  0  0  0  0  0  0  0  0
  163.6030  204.7140  146.1650 F   0  0  0  0  0  0  0  0  0  0  0  0
  162.1070  206.2090  145.3840 F   0  0  0  0  0  0  0  0  0  0  0  0
  161.0430  206.7130  154.5120 C   0  0  0  0  0  2  0  0  0  0  0  0
  160.8570  208.2150  154.6570 C   0  0  0  0  0  2  0  0  0  0  0  0
  161.5260  208.6940  155.8580 N   0  0  0  0  0  0  0  0  0  0  0  0
  160.5390  208.6690  156.9240 C   0  0  0  0  0  1  0  0  0  0  0  0
  162.3090  210.5820  154.1520 O   0  0  0  0  0  0  0  0  0  0  0  0
  161.9730  210.3520  155.6000 S   0  0  0  0  0  0  0  0  0  0  0  0
  163.1680  210.6890  156.4460 O   0  0  0  0  0  0  0  0  0  0  0  0
  160.6600  211.3800  156.0500 N   0  0  0  0  0  1  0  0  0  0  0  0
  162.5170  209.1340  150.8000 C   0  0  0  0  0  2  0  0  0  0  0  0
  162.0090  210.1430  148.6430 O   0  0  0  0  0  0  0  0  0  0  0  0
  160.3430  211.1990  151.7150 O   0  0  0  0  0  1  0  0  0  0  0  0
  162.4820  214.4520  146.5910 O   0  0  0  0  0  0  0  0  0  0  0  0
  160.4510  214.0060  150.7810 O   0  0  0  0  0  0  0  0  0  0  0  0
  161.0170  213.4990  149.7780 C   0  0  0  0  0  0  0  0  0  0  0  0
  161.2580  212.0600  149.6680 C   0  0  0  0  0  0  0  0  0  0  0  0
  161.4450  209.7520  149.9010 C   0  0  2  0  0  3  0  0  0  0  0  0
  162.1010  213.7250  147.5440 C   0  0  0  0  0  0  0  0  0  0  0  0
  160.9800  211.0610  150.4880 C   0  0  0  0  0  0  0  0  0  0  0  0
  161.4550  214.3220  148.6870 N   0  0  0  0  0  2  0  0  0  0  0  0
  161.9010  211.5150  148.5110 C   0  0  0  0  0  0  0  0  0  0  0  0
  162.3160  212.2590  147.4850 C   0  0  0  0  0  3  0  0  0  0  0  0
  1  7  1  0  0  0  0
  1  2  2  0  0  0  0
  2  5  1  0  0  0  0
  3  4  1  0  0  0  0
  3  6  1  0  0  0  0
  4  6  1  0  0  0  0
  5  9  1  0  0  0  0
  6 15  1  0  0  0  0
  7 10  1  0  0  0  0
  8  3  1  0  0  0  0
  9  4  1  0  0  0  0
 10  5  2  0  0  0  0
 10  8  1  0  0  0  0
 11  1  1  0  0  0  0
 12 11  1  0  0  0  0
 13 11  1  0  0  0  0
 14 11  1  0  0  0  0
 15 16  1  0  0  0  0
 16 17  1  0  0  0  0
 17 18  1  0  0  0  0
 19 20  2  0  0  0  0
 20 17  1  0  0  0  0
 20 22  1  0  0  0  0
 20 21  2  0  0  0  0
 23  8  1  0  0  0  0
 24 30  1  0  0  0  0
 26 31  2  0  0  0  0
 28 27  2  0  0  0  0
 29 28  1  0  0  0  0
 29 32  2  0  0  0  0
 30 32  1  0  0  0  0
 30 23  1  0  0  0  0
 31 33  1  0  0  0  0
 32 25  1  0  0  0  0
 33 28  1  0  0  0  0
 34 24  1  0  0  0  0
 34 29  1  0  0  0  0
 35 31  1  0  0  0  0
 35 34  2  0  0  0  0
M  END
>  <MODEL>
7

>  <REMARK>
 VINA RESULT:      -6.8      2.630      6.596
  Name = 
  7 active torsions:
  status: ('A' for Active; 'I' for Inactive)
    1  A    between atoms: C_1  and  C_3
    2  A    between atoms: C_2  and  C_24
    3  A    between atoms: C_2  and  N_31
    4  A    between atoms: S_7  and  N_31
    5  A    between atoms: C_14  and  C_27
    6  A    between atoms: C_21  and  C_24
    7  A    between atoms: C_27  and  C_32
                            x       y       z     vdW  Elec       q    Type
                         _______ _______ _______ _____ _____    ______ ____

>  <TORSDO>
F 7

$$$$
=
 OpenBabel11042423143D

 35 39  0  0  1  0  0  0  0  0999 V2000
  160.4740  207.9380  155.1400 C   0  0  0  0  0  0  0  0  0  0  0  0
  160.2470  209.2020  154.6000 C   0  0  0  0  0  3  0  0  0  0  0  0
  161.5460  209.1070  150.4920 C   0  0  1  0  0  3  0  0  0  0  0  0
  160.8230  210.3690  151.0130 C   0  0  2  0  0  3  0  0  0  0  0  0
  160.7550  209.3170  153.3020 C   0  0  0  0  0  0  0  0  0  0  0  0
  162.2570  210.4450  150.5250 C   0  0  2  0  0  3  0  0  0  0  0  0
  161.3730  207.0170  154.0500 S   0  0  0  0  0  0  0  0  0  0  0  0
  162.1530  208.1640  151.5480 C   0  0  1  0  0  3  0  0  0  0  0  0
  160.8000  210.5940  152.5340 C   0  0  0  0  0  2  0  0  0  0  0  0
  161.3910  208.1850  152.8380 C   0  0  0  0  0  0  0  0  0  0  0  0
  160.1380  207.5250  156.5360 C   0  0  0  0  0  0  0  0  0  0  0  0
  159.7010  208.6180  157.2610 F   0  0  0  0  0  0  0  0  0  0  0  0
  161.2550  206.9930  157.1570 F   0  0  0  0  0  0  0  0  0  0  0  0
  159.1380  206.5710  156.5040 F   0  0  0  0  0  0  0  0  0  0  0  0
  162.2800  211.0300  149.1270 C   0  0  0  0  0  2  0  0  0  0  0  0
  161.4990  212.3330  149.0880 C   0  0  0  0  0  2  0  0  0  0  0  0
  161.8220  213.0800  147.8810 N   0  0  0  0  0  0  0  0  0  0  0  0
  162.2220  214.4100  148.3070 C   0  0  0  0  0  1  0  0  0  0  0  0
  159.2220  213.6540  147.8340 O   0  0  0  0  0  0  0  0  0  0  0  0
  160.3670  213.2480  146.9470 S   0  0  0  0  0  0  0  0  0  0  0  0
  160.0410  211.9400  146.2830 O   0  0  0  0  0  0  0  0  0  0  0  0
  160.5980  214.4520  145.7300 N   0  0  0  0  0  1  0  0  0  0  0  0
  162.3360  206.7480  150.9890 C   0  0  0  0  0  2  0  0  0  0  0  0
  160.7840  204.8890  150.7320 O   0  0  0  0  0  0  0  0  0  0  0  0
  161.7710  206.9930  147.9160 O   0  0  0  0  0  1  0  0  0  0  0  0
  160.7200  200.6670  148.4590 O   0  0  0  0  0  0  0  0  0  0  0  0
  161.8430  204.5950  146.1800 O   0  0  0  0  0  0  0  0  0  0  0  0
  161.5030  203.9990  147.2350 C   0  0  0  0  0  0  0  0  0  0  0  0
  161.3030  204.7100  148.4980 C   0  0  0  0  0  0  0  0  0  0  0  0
  161.1000  206.2070  150.2680 C   0  0  2  0  0  3  0  0  0  0  0  0
  160.9030  201.9110  148.4590 C   0  0  0  0  0  0  0  0  0  0  0  0
  161.4160  205.9900  148.8100 C   0  0  0  0  0  0  0  0  0  0  0  0
  161.2940  202.5790  147.2420 N   0  0  0  0  0  2  0  0  0  0  0  0
  160.9110  204.0020  149.6800 C   0  0  0  0  0  0  0  0  0  0  0  0
  160.7110  202.6840  149.7110 C   0  0  0  0  0  3  0  0  0  0  0  0
  1 11  1  0  0  0  0
  2  1  2  0  0  0  0
  3  6  1  0  0  0  0
  3  4  1  0  0  0  0
  3  8  1  0  0  0  0
  4  9  1  0  0  0  0
  5  2  1  0  0  0  0
  6  4  1  0  0  0  0
  7  1  1  0  0  0  0
  8 10  1  0  0  0  0
  9  5  1  0  0  0  0
 10  5  2  0  0  0  0
 10  7  1  0  0  0  0
 11 13  1  0  0  0  0
 11 12  1  0  0  0  0
 14 11  1  0  0  0  0
 15  6  1  0  0  0  0
 16 15  1  0  0  0  0
 17 18  1  0  0  0  0
 17 16  1  0  0  0  0
 20 19  2  0  0  0  0
 20 17  1  0  0  0  0
 21 20  2  0  0  0  0
 22 20  1  0  0  0  0
 23  8  1  0  0  0  0
 25 32  1  0  0  0  0
 26 31  2  0  0  0  0
 27 28  2  0  0  0  0
 28 33  1  0  0  0  0
 28 29  1  0  0  0  0
 29 32  2  0  0  0  0
 29 34  1  0  0  0  0
 30 24  1  0  0  0  0
 30 23  1  0  0  0  0
 31 35  1  0  0  0  0
 32 30  1  0  0  0  0
 33 31  1  0  0  0  0
 34 35  2  0  0  0  0
 34 24  1  0  0  0  0
M  END
>  <MODEL>
8

>  <REMARK>
 VINA RESULT:      -6.8      4.182      7.014
  Name = 
  7 active torsions:
  status: ('A' for Active; 'I' for Inactive)
    1  A    between atoms: C_1  and  C_3
    2  A    between atoms: C_2  and  C_24
    3  A    between atoms: C_2  and  N_31
    4  A    between atoms: S_7  and  N_31
    5  A    between atoms: C_14  and  C_27
    6  A    between atoms: C_21  and  C_24
    7  A    between atoms: C_27  and  C_32
                            x       y       z     vdW  Elec       q    Type
                         _______ _______ _______ _____ _____    ______ ____

>  <TORSDO>
F 7

$$$$
=
 OpenBabel11042423143D

 35 39  0  0  1  0  0  0  0  0999 V2000
  160.8590  209.7090  153.9590 C   0  0  0  0  0  0  0  0  0  0  0  0
  161.1940  210.3280  152.7580 C   0  0  0  0  0  3  0  0  0  0  0  0
  161.3290  207.2770  149.7180 C   0  0  1  0  0  3  0  0  0  0  0  0
  161.4830  208.7540  149.2940 C   0  0  2  0  0  3  0  0  0  0  0  0
  161.3920  209.4040  151.7270 C   0  0  0  0  0  0  0  0  0  0  0  0
  162.6090  207.7630  149.0690 C   0  0  2  0  0  3  0  0  0  0  0  0
  160.9010  208.0340  153.7560 S   0  0  0  0  0  0  0  0  0  0  0  0
  161.5860  206.9450  151.2010 C   0  0  1  0  0  3  0  0  0  0  0  0
  161.9100  209.7590  150.3750 C   0  0  0  0  0  2  0  0  0  0  0  0
  161.2450  208.0880  152.1090 C   0  0  0  0  0  0  0  0  0  0  0  0
  160.6740  210.4070  155.2670 C   0  0  0  0  0  0  0  0  0  0  0  0
  160.7190  211.7760  155.0820 F   0  0  0  0  0  0  0  0  0  0  0  0
  161.6760  210.0400  156.1480 F   0  0  0  0  0  0  0  0  0  0  0  0
  159.4490  210.0600  155.8030 F   0  0  0  0  0  0  0  0  0  0  0  0
  162.6190  207.3400  147.6140 C   0  0  0  0  0  2  0  0  0  0  0  0
  161.3290  206.6160  147.2650 C   0  0  0  0  0  2  0  0  0  0  0  0
  161.6180  205.3900  146.5350 N   0  0  0  0  0  0  0  0  0  0  0  0
  163.0240  205.4400  146.1750 C   0  0  0  0  0  1  0  0  0  0  0  0
  161.4910  206.0790  143.9660 O   0  0  0  0  0  0  0  0  0  0  0  0
  160.7010  205.4140  145.0600 S   0  0  0  0  0  0  0  0  0  0  0  0
  159.4190  206.1670  145.2760 O   0  0  0  0  0  0  0  0  0  0  0  0
  160.3270  203.7950  144.5880 N   0  0  0  0  0  1  0  0  0  0  0  0
  160.8970  205.6370  151.6060 C   0  0  0  0  0  2  0  0  0  0  0  0
  162.0450  204.3620  149.8780 O   0  0  0  0  0  0  0  0  0  0  0  0
  160.2830  202.7400  152.6330 O   0  0  0  0  0  1  0  0  0  0  0  0
  160.8280  201.3130  146.3820 O   0  0  0  0  0  0  0  0  0  0  0  0
  159.3250  200.6550  150.7630 O   0  0  0  0  0  0  0  0  0  0  0  0
  159.9770  201.3200  149.9150 C   0  0  0  0  0  0  0  0  0  0  0  0
  160.7080  202.5340  150.2780 C   0  0  0  0  0  0  0  0  0  0  0  0
  161.7100  204.3850  151.2700 C   0  0  2  0  0  3  0  0  0  0  0  0
  160.7830  201.6800  147.5840 C   0  0  0  0  0  0  0  0  0  0  0  0
  160.8470  203.1600  151.4350 C   0  0  0  0  0  0  0  0  0  0  0  0
  160.0310  200.9080  148.5420 N   0  0  0  0  0  2  0  0  0  0  0  0
  161.4430  203.2650  149.2900 C   0  0  0  0  0  0  0  0  0  0  0  0
  161.5080  202.9020  148.0090 C   0  0  0  0  0  3  0  0  0  0  0  0
  1 11  1  0  0  0  0
  2  1  2  0  0  0  0
  3  8  1  0  0  0  0
  4  3  1  0  0  0  0
  4  9  1  0  0  0  0
  5 10  2  0  0  0  0
  5  2  1  0  0  0  0
  6  4  1  0  0  0  0
  6  3  1  0  0  0  0
  7  1  1  0  0  0  0
  8 23  1  0  0  0  0
  8 10  1  0  0  0  0
  9  5  1  0  0  0  0
 10  7  1  0  0  0  0
 11 14  1  0  0  0  0
 11 13  1  0  0  0  0
 12 11  1  0  0  0  0
 15  6  1  0  0  0  0
 16 15  1  0  0  0  0
 17 16  1  0  0  0  0
 18 17  1  0  0  0  0
 19 20  2  0  0  0  0
 20 21  2  0  0  0  0
 20 17  1  0  0  0  0
 22 20  1  0  0  0  0
 24 30  1  0  0  0  0
 26 31  2  0  0  0  0
 28 29  1  0  0  0  0
 28 27  2  0  0  0  0
 29 32  2  0  0  0  0
 30 32  1  0  0  0  0
 30 23  1  0  0  0  0
 31 35  1  0  0  0  0
 31 33  1  0  0  0  0
 32 25  1  0  0  0  0
 33 28  1  0  0  0  0
 34 24  1  0  0  0  0
 34 29  1  0  0  0  0
 35 34  2  0  0  0  0
M  END
>  <MODEL>
9

>  <REMARK>
 VINA RESULT:      -6.6      5.612      7.971
  Name = 
  7 active torsions:
  status: ('A' for Active; 'I' for Inactive)
    1  A    between atoms: C_1  and  C_3
    2  A    between atoms: C_2  and  C_24
    3  A    between atoms: C_2  and  N_31
    4  A    between atoms: S_7  and  N_31
    5  A    between atoms: C_14  and  C_27
    6  A    between atoms: C_21  and  C_24
    7  A    between atoms: C_27  and  C_32
                            x       y       z     vdW  Elec       q    Type
                         _______ _______ _______ _____ _____    ______ ____

>  <TORSDO>
F 7

$$$$
