=
 OpenBabel11052409363D

 44 49  0  0  1  0  0  0  0  0999 V2000
  160.1230  210.9790  153.6740 C   0  0  2  0  0  3  0  0  0  0  0  0
  161.2340  207.5730  151.4600 C   0  0  0  0  0  0  0  0  0  0  0  0
  160.8600  206.3090  153.5000 C   0  0  0  0  0  3  0  0  0  0  0  0
  161.1910  208.8950  150.7440 C   0  0  0  0  0  2  0  0  0  0  0  0
  160.4710  208.6980  153.4570 O   0  0  0  0  0  0  0  0  0  0  0  0
  161.1860  210.0550  151.7410 C   0  0  0  0  0  2  0  0  0  0  0  0
  161.6380  206.3980  150.7980 C   0  0  0  0  0  0  0  0  0  0  0  0
  160.1360  209.8380  152.7440 N   0  0  0  0  0  0  0  0  0  0  0  0
  160.8420  207.5180  152.8060 C   0  0  0  0  0  0  0  0  0  0  0  0
  161.2580  205.1420  152.8490 C   0  0  0  0  0  3  0  0  0  0  0  0
  161.6470  205.1880  151.5070 C   0  0  0  0  0  3  0  0  0  0  0  0
  159.9840  206.2520  148.3580 O   0  0  0  0  0  0  0  0  0  0  0  0
  161.2370  206.3390  148.2630 C   0  0  0  0  0  0  0  0  0  0  0  0
  162.0640  206.4640  149.4270 N   0  0  0  0  0  2  0  0  0  0  0  0
  161.8700  206.3310  146.9180 C   0  0  0  0  0  2  0  0  0  0  0  0
  162.5050  204.9830  146.6460 C   0  0  0  0  0  2  0  0  0  0  0  0
  162.4000  204.6920  145.2870 O   0  0  0  0  0  0  0  0  0  0  0  0
  161.3430  203.7870  145.2000 C   0  0  0  0  0  2  0  0  0  0  0  0
  160.1840  202.2290  146.5450 O   0  0  0  0  0  0  0  0  0  0  0  0
  161.1450  201.5410  145.9080 O   0  0  0  0  0  0  0  0  0  0  0  0
  161.4150  202.8150  146.3580 C   0  0  0  0  0  3  0  0  0  0  0  0
  162.9860  210.4110  155.2600 C   0  0  0  0  0  2  0  0  0  0  0  0
  160.4600  210.6180  155.1360 C   0  0  2  0  0  3  0  0  0  0  0  0
  160.1830  211.6740  156.1140 N   0  0  0  0  0  2  0  0  0  0  0  0
  161.3270  212.5580  156.3170 C   0  0  0  0  0  2  0  0  0  0  0  0
  162.3260  211.9080  157.2600 C   0  0  0  0  0  2  0  0  0  0  0  0
  161.6540  209.6990  155.4370 C   0  0  0  0  0  2  0  0  0  0  0  0
  163.4340  211.1560  156.5170 C   0  0  0  0  0  2  0  0  0  0  0  0
  157.9270  211.5240  154.6320 N   0  0  0  0  0  0  0  0  0  0  0  0
  158.8250  211.7540  153.6380 C   0  0  0  0  0  0  0  0  0  0  0  0
  158.4830  212.6220  152.5770 C   0  0  0  0  0  0  0  0  0  0  0  0
  156.3710  212.9830  153.6500 N   0  0  0  0  0  0  0  0  0  0  0  0
  156.7140  212.1290  154.6450 C   0  0  0  0  0  3  0  0  0  0  0  0
  157.2160  213.2440  152.6210 C   0  0  0  0  0  0  0  0  0  0  0  0
  156.7960  214.1510  151.6040 N   0  0  0  0  0  1  0  0  0  0  0  0
  159.0880  213.1470  150.3280 N   0  0  0  0  0  0  0  0  0  0  0  0
  159.4270  212.8530  151.5190 N   0  0  0  0  0  0  0  0  0  0  0  0
  162.8770  214.0270  146.2720 O   0  0  0  0  0  1  0  0  0  0  0  0
  161.9460  213.8060  147.2770 C   0  0  0  0  0  0  0  0  0  0  0  0
  160.7080  214.4530  147.2370 C   0  0  0  0  0  3  0  0  0  0  0  0
  159.7710  214.2350  148.2530 C   0  0  0  0  0  3  0  0  0  0  0  0
  162.2490  212.9430  148.3310 C   0  0  0  0  0  3  0  0  0  0  0  0
  161.3120  212.7230  149.3450 C   0  0  0  0  0  3  0  0  0  0  0  0
  160.0660  213.3680  149.3110 C   0  0  0  0  0  0  0  0  0  0  0  0
  1 30  1  1  0  0  0
  2  9  1  0  0  0  0
  4  2  1  0  0  0  0
  4  6  1  0  0  0  0
  6  8  1  0  0  0  0
  7  2  2  0  0  0  0
  7 11  1  0  0  0  0
  8  5  1  0  0  0  0
  8  1  1  0  0  0  0
  9  5  1  0  0  0  0
  9  3  2  0  0  0  0
 10  3  1  0  0  0  0
 11 10  2  0  0  0  0
 13 12  2  0  0  0  0
 13 14  1  0  0  0  0
 14  7  1  0  0  0  0
 15 13  1  0  0  0  0
 16 15  1  0  0  0  0
 17 16  1  0  0  0  0
 18 17  1  0  0  0  0
 18 21  1  0  0  0  0
 20 21  1  0  0  0  0
 20 19  1  0  0  0  0
 21 19  1  0  0  0  0
 22 27  1  0  0  0  0
 22 28  1  0  0  0  0
 23  1  1  6  0  0  0
 23 27  1  0  0  0  0
 23 24  1  0  0  0  0
 24 25  1  0  0  0  0
 25 26  1  0  0  0  0
 28 26  1  0  0  0  0
 29 33  1  0  0  0  0
 30 29  2  0  0  0  0
 31 34  2  0  0  0  0
 31 30  1  0  0  0  0
 32 33  2  0  0  0  0
 34 32  1  0  0  0  0
 35 34  1  0  0  0  0
 36 37  2  0  0  0  0
 37 31  1  0  0  0  0
 38 39  1  0  0  0  0
 39 42  1  0  0  0  0
 40 39  2  0  0  0  0
 40 41  1  0  0  0  0
 41 44  2  0  0  0  0
 42 43  2  0  0  0  0
 44 43  1  0  0  0  0
 44 36  1  0  0  0  0
M  END
>  <MODEL>
1

>  <REMARK>
 VINA RESULT:      -6.2      0.000      0.000
  Name = 
  11 active torsions:
  status: ('A' for Active; 'I' for Inactive)
    1  A    between atoms: C_5  and  C_41
    2  A    between atoms: N_7  and  C_24
    3  A    between atoms: C_9  and  C_41
    4  A    between atoms: O_10  and  C_37
    5  A    between atoms: O_10  and  C_43
    6  A    between atoms: C_11  and  N_27
    7  A    between atoms: C_28  and  N_39
    8  A    between atoms: N_31  and  C_41
    9  A    between atoms: C_32  and  C_37
   10  A    between atoms: C_32  and  C_38
   11  A    between atoms: C_35  and  C_43
                            x       y       z     vdW  Elec       q    Type
                         _______ _______ _______ _____ _____    ______ ____

>  <TORSDO>
F 11

$$$$
=
 OpenBabel11052409363D

 44 49  0  0  1  0  0  0  0  0999 V2000
  159.8630  211.7610  154.7890 C   0  0  2  0  0  3  0  0  0  0  0  0
  161.2420  208.5150  152.4870 C   0  0  0  0  0  0  0  0  0  0  0  0
  160.6830  207.1180  154.3950 C   0  0  0  0  0  3  0  0  0  0  0  0
  161.2510  209.8790  151.8560 C   0  0  0  0  0  2  0  0  0  0  0  0
  160.2650  209.5010  154.4630 O   0  0  0  0  0  0  0  0  0  0  0  0
  161.1280  210.9730  152.9190 C   0  0  0  0  0  2  0  0  0  0  0  0
  161.7270  207.3880  151.7960 C   0  0  0  0  0  0  0  0  0  0  0  0
  159.9860  210.6830  153.7940 N   0  0  0  0  0  0  0  0  0  0  0  0
  160.7170  208.3690  153.7800 C   0  0  0  0  0  0  0  0  0  0  0  0
  161.1620  205.9990  153.7140 C   0  0  0  0  0  3  0  0  0  0  0  0
  161.6820  206.1350  152.4240 C   0  0  0  0  0  3  0  0  0  0  0  0
  160.4770  206.7960  149.1880 O   0  0  0  0  0  0  0  0  0  0  0  0
  161.6700  207.2000  149.2370 C   0  0  0  0  0  0  0  0  0  0  0  0
  162.2880  207.5460  150.4830 N   0  0  0  0  0  2  0  0  0  0  0  0
  162.4450  207.3400  147.9760 C   0  0  0  0  0  2  0  0  0  0  0  0
  161.9860  206.3130  146.9610 C   0  0  0  0  0  2  0  0  0  0  0  0
  162.5420  205.0760  147.2770 O   0  0  0  0  0  0  0  0  0  0  0  0
  161.5650  204.1480  146.9190 C   0  0  0  0  0  2  0  0  0  0  0  0
  160.8140  202.8050  145.1260 O   0  0  0  0  0  0  0  0  0  0  0  0
  160.6570  204.0790  144.7380 O   0  0  0  0  0  0  0  0  0  0  0  0
  161.7670  203.7340  145.4770 C   0  0  0  0  0  3  0  0  0  0  0  0
  159.9750  209.1360  156.8210 C   0  0  0  0  0  2  0  0  0  0  0  0
  160.5990  211.4930  156.1180 C   0  0  2  0  0  3  0  0  0  0  0  0
  162.0590  211.4130  156.0130 N   0  0  0  0  0  2  0  0  0  0  0  0
  162.5240  210.0540  155.7530 C   0  0  0  0  0  2  0  0  0  0  0  0
  162.5460  209.2560  157.0470 C   0  0  0  0  0  2  0  0  0  0  0  0
  159.9390  210.6110  157.1890 C   0  0  0  0  0  2  0  0  0  0  0  0
  161.2650  208.4440  157.2600 C   0  0  0  0  0  2  0  0  0  0  0  0
  158.0100  212.0720  156.3710 N   0  0  0  0  0  0  0  0  0  0  0  0
  158.4270  212.1330  155.0790 C   0  0  0  0  0  0  0  0  0  0  0  0
  157.4990  212.4450  154.0620 C   0  0  0  0  0  0  0  0  0  0  0  0
  155.8190  212.6530  155.7580 N   0  0  0  0  0  0  0  0  0  0  0  0
  156.7240  212.3300  156.7140 C   0  0  0  0  0  3  0  0  0  0  0  0
  156.1670  212.7170  154.4480 C   0  0  0  0  0  0  0  0  0  0  0  0
  155.1690  213.0610  153.4900 N   0  0  0  0  0  1  0  0  0  0  0  0
  158.1740  213.5790  152.0720 N   0  0  0  0  0  0  0  0  0  0  0  0
  157.9370  212.4940  152.6940 N   0  0  0  0  0  0  0  0  0  0  0  0
  159.9500  213.6030  146.7390 O   0  0  0  0  0  1  0  0  0  0  0  0
  159.5050  213.5960  148.0540 C   0  0  0  0  0  0  0  0  0  0  0  0
  160.4270  213.6310  149.1040 C   0  0  0  0  0  3  0  0  0  0  0  0
  159.9790  213.6180  150.4290 C   0  0  0  0  0  3  0  0  0  0  0  0
  158.1370  213.5480  148.3280 C   0  0  0  0  0  3  0  0  0  0  0  0
  157.6900  213.5380  149.6520 C   0  0  0  0  0  3  0  0  0  0  0  0
  158.6090  213.5730  150.7110 C   0  0  0  0  0  0  0  0  0  0  0  0
  1 30  1  1  0  0  0
  2  9  1  0  0  0  0
  4  2  1  0  0  0  0
  4  6  1  0  0  0  0
  6  8  1  0  0  0  0
  7 11  1  0  0  0  0
  7  2  2  0  0  0  0
  8  5  1  0  0  0  0
  8  1  1  0  0  0  0
  9  3  2  0  0  0  0
  9  5  1  0  0  0  0
 10  3  1  0  0  0  0
 11 10  2  0  0  0  0
 12 13  2  0  0  0  0
 13 14  1  0  0  0  0
 14  7  1  0  0  0  0
 15 13  1  0  0  0  0
 16 17  1  0  0  0  0
 16 15  1  0  0  0  0
 18 17  1  0  0  0  0
 19 21  1  0  0  0  0
 20 19  1  0  0  0  0
 20 21  1  0  0  0  0
 21 18  1  0  0  0  0
 22 27  1  0  0  0  0
 22 28  1  0  0  0  0
 23  1  1  6  0  0  0
 23 27  1  0  0  0  0
 24 23  1  0  0  0  0
 25 24  1  0  0  0  0
 25 26  1  0  0  0  0
 26 28  1  0  0  0  0
 29 33  1  0  0  0  0
 30 29  2  0  0  0  0
 31 34  2  0  0  0  0
 31 30  1  0  0  0  0
 32 33  2  0  0  0  0
 34 32  1  0  0  0  0
 35 34  1  0  0  0  0
 36 37  2  0  0  0  0
 37 31  1  0  0  0  0
 38 39  1  0  0  0  0
 39 42  2  0  0  0  0
 39 40  1  0  0  0  0
 40 41  2  0  0  0  0
 41 44  1  0  0  0  0
 42 43  1  0  0  0  0
 43 44  2  0  0  0  0
 44 36  1  0  0  0  0
M  END
>  <MODEL>
2

>  <REMARK>
 VINA RESULT:      -6.1      1.550      2.140
  Name = 
  11 active torsions:
  status: ('A' for Active; 'I' for Inactive)
    1  A    between atoms: C_5  and  C_41
    2  A    between atoms: N_7  and  C_24
    3  A    between atoms: C_9  and  C_41
    4  A    between atoms: O_10  and  C_37
    5  A    between atoms: O_10  and  C_43
    6  A    between atoms: C_11  and  N_27
    7  A    between atoms: C_28  and  N_39
    8  A    between atoms: N_31  and  C_41
    9  A    between atoms: C_32  and  C_37
   10  A    between atoms: C_32  and  C_38
   11  A    between atoms: C_35  and  C_43
                            x       y       z     vdW  Elec       q    Type
                         _______ _______ _______ _____ _____    ______ ____

>  <TORSDO>
F 11

$$$$
=
 OpenBabel11052409363D

 44 49  0  0  1  0  0  0  0  0999 V2000
  160.8460  211.5220  153.8630 C   0  0  2  0  0  3  0  0  0  0  0  0
  161.0480  208.4710  150.9660 C   0  0  0  0  0  0  0  0  0  0  0  0
  162.1750  210.0940  149.5520 C   0  0  0  0  0  3  0  0  0  0  0  0
  160.4310  208.1390  152.2960 C   0  0  0  0  0  2  0  0  0  0  0  0
  161.4900  210.6970  151.7950 O   0  0  0  0  0  0  0  0  0  0  0  0
  160.0580  209.4120  153.0580 C   0  0  0  0  0  2  0  0  0  0  0  0
  161.1120  207.5170  149.9330 C   0  0  0  0  0  0  0  0  0  0  0  0
  161.2130  210.3180  153.0990 N   0  0  0  0  0  0  0  0  0  0  0  0
  161.5860  209.7520  150.7690 C   0  0  0  0  0  0  0  0  0  0  0  0
  162.2410  209.1520  148.5260 C   0  0  0  0  0  3  0  0  0  0  0  0
  161.7110  207.8730  148.7150 C   0  0  0  0  0  3  0  0  0  0  0  0
  162.2800  205.1880  151.3200 O   0  0  0  0  0  0  0  0  0  0  0  0
  161.1530  205.0900  150.7650 C   0  0  0  0  0  0  0  0  0  0  0  0
  160.5360  206.2160  150.1290 N   0  0  0  0  0  2  0  0  0  0  0  0
  160.4400  203.7850  150.7880 C   0  0  0  0  0  2  0  0  0  0  0  0
  160.9260  202.9030  149.6560 C   0  0  0  0  0  2  0  0  0  0  0  0
  161.7320  203.6530  148.8030 O   0  0  0  0  0  0  0  0  0  0  0  0
  161.2350  203.3930  147.5270 C   0  0  0  0  0  2  0  0  0  0  0  0
  162.8160  204.8050  146.4840 O   0  0  0  0  0  0  0  0  0  0  0  0
  162.1290  204.2100  145.4970 O   0  0  0  0  0  0  0  0  0  0  0  0
  161.4650  204.5980  146.6400 C   0  0  0  0  0  3  0  0  0  0  0  0
  159.9630  209.5590  156.3920 C   0  0  0  0  0  2  0  0  0  0  0  0
  161.2490  211.4830  155.3520 C   0  0  2  0  0  3  0  0  0  0  0  0
  162.6410  211.1030  155.6060 N   0  0  0  0  0  2  0  0  0  0  0  0
  162.8050  209.6610  155.7670 C   0  0  0  0  0  2  0  0  0  0  0  0
  162.4060  209.2470  157.1740 C   0  0  0  0  0  2  0  0  0  0  0  0
  160.2180  211.0580  156.4080 C   0  0  0  0  0  2  0  0  0  0  0  0
  160.9500  208.7780  157.2590 C   0  0  0  0  0  2  0  0  0  0  0  0
  158.5610  211.4710  154.7630 N   0  0  0  0  0  0  0  0  0  0  0  0
  159.3780  211.8650  153.7520 C   0  0  0  0  0  0  0  0  0  0  0  0
  158.8240  212.4880  152.6110 C   0  0  0  0  0  0  0  0  0  0  0  0
  156.6690  212.2980  153.6440 N   0  0  0  0  0  0  0  0  0  0  0  0
  157.2230  211.6830  154.7180 C   0  0  0  0  0  3  0  0  0  0  0  0
  157.4280  212.7040  152.5940 C   0  0  0  0  0  0  0  0  0  0  0  0
  156.7860  213.3440  151.4940 N   0  0  0  0  0  1  0  0  0  0  0  0
  159.3390  212.8680  150.3110 N   0  0  0  0  0  0  0  0  0  0  0  0
  159.6860  212.8920  151.5360 N   0  0  0  0  0  0  0  0  0  0  0  0
  162.8470  214.4240  146.2050 O   0  0  0  0  0  1  0  0  0  0  0  0
  161.9840  214.0430  147.2230 C   0  0  0  0  0  0  0  0  0  0  0  0
  160.8620  213.2610  146.9330 C   0  0  0  0  0  3  0  0  0  0  0  0
  159.9890  212.8830  147.9590 C   0  0  0  0  0  3  0  0  0  0  0  0
  162.2330  214.4470  148.5360 C   0  0  0  0  0  3  0  0  0  0  0  0
  161.3620  214.0670  149.5610 C   0  0  0  0  0  3  0  0  0  0  0  0
  160.2340  213.2810  149.2780 C   0  0  0  0  0  0  0  0  0  0  0  0
  1 30  1  1  0  0  0
  2  4  1  0  0  0  0
  3  9  2  0  0  0  0
  4  6  1  0  0  0  0
  5  8  1  0  0  0  0
  6  8  1  0  0  0  0
  7 14  1  0  0  0  0
  7  2  2  0  0  0  0
  8  1  1  0  0  0  0
  9  2  1  0  0  0  0
  9  5  1  0  0  0  0
 10 11  2  0  0  0  0
 10  3  1  0  0  0  0
 11  7  1  0  0  0  0
 13 15  1  0  0  0  0
 13 12  2  0  0  0  0
 14 13  1  0  0  0  0
 16 15  1  0  0  0  0
 17 16  1  0  0  0  0
 18 17  1  0  0  0  0
 19 21  1  0  0  0  0
 20 19  1  0  0  0  0
 20 21  1  0  0  0  0
 21 18  1  0  0  0  0
 22 27  1  0  0  0  0
 22 28  1  0  0  0  0
 23  1  1  6  0  0  0
 23 24  1  0  0  0  0
 23 27  1  0  0  0  0
 24 25  1  0  0  0  0
 25 26  1  0  0  0  0
 26 28  1  0  0  0  0
 30 29  2  0  0  0  0
 31 30  1  0  0  0  0
 32 33  2  0  0  0  0
 33 29  1  0  0  0  0
 34 31  2  0  0  0  0
 34 32  1  0  0  0  0
 35 34  1  0  0  0  0
 36 37  2  0  0  0  0
 37 31  1  0  0  0  0
 38 39  1  0  0  0  0
 39 42  1  0  0  0  0
 40 39  2  0  0  0  0
 40 41  1  0  0  0  0
 41 44  2  0  0  0  0
 42 43  2  0  0  0  0
 44 43  1  0  0  0  0
 44 36  1  0  0  0  0
M  END
>  <MODEL>
3

>  <REMARK>
 VINA RESULT:      -4.5      1.577      2.558
  Name = 
  11 active torsions:
  status: ('A' for Active; 'I' for Inactive)
    1  A    between atoms: C_5  and  C_41
    2  A    between atoms: N_7  and  C_24
    3  A    between atoms: C_9  and  C_41
    4  A    between atoms: O_10  and  C_37
    5  A    between atoms: O_10  and  C_43
    6  A    between atoms: C_11  and  N_27
    7  A    between atoms: C_28  and  N_39
    8  A    between atoms: N_31  and  C_41
    9  A    between atoms: C_32  and  C_37
   10  A    between atoms: C_32  and  C_38
   11  A    between atoms: C_35  and  C_43
                            x       y       z     vdW  Elec       q    Type
                         _______ _______ _______ _____ _____    ______ ____

>  <TORSDO>
F 11

$$$$
=
 OpenBabel11052409363D

 44 49  0  0  1  0  0  0  0  0999 V2000
  160.9060  207.7320  151.7090 C   0  0  2  0  0  3  0  0  0  0  0  0
  160.7490  203.9120  149.9390 C   0  0  0  0  0  0  0  0  0  0  0  0
  161.5610  203.0590  152.0640 C   0  0  0  0  0  3  0  0  0  0  0  0
  160.2920  205.0870  149.1200 C   0  0  0  0  0  2  0  0  0  0  0  0
  161.1450  205.4270  151.7790 O   0  0  0  0  0  0  0  0  0  0  0  0
  160.7910  206.4010  149.7250 C   0  0  0  0  0  2  0  0  0  0  0  0
  160.7660  202.6110  149.4030 C   0  0  0  0  0  0  0  0  0  0  0  0
  160.4490  206.4480  151.1510 N   0  0  0  0  0  0  0  0  0  0  0  0
  161.1410  204.1250  151.2700 C   0  0  0  0  0  0  0  0  0  0  0  0
  161.5800  201.7680  151.5370 C   0  0  0  0  0  3  0  0  0  0  0  0
  161.1870  201.5470  150.2140 C   0  0  0  0  0  3  0  0  0  0  0  0
  161.8180  200.6170  147.4980 O   0  0  0  0  0  0  0  0  0  0  0  0
  160.9570  201.4550  147.1190 C   0  0  0  0  0  0  0  0  0  0  0  0
  160.3880  202.4020  148.0330 N   0  0  0  0  0  2  0  0  0  0  0  0
  160.5070  201.4500  145.7020 C   0  0  0  0  0  2  0  0  0  0  0  0
  160.4620  202.8640  145.1610 C   0  0  0  0  0  2  0  0  0  0  0  0
  161.7230  203.4440  145.2890 O   0  0  0  0  0  0  0  0  0  0  0  0
  161.5980  204.6950  144.6860 C   0  0  0  0  0  2  0  0  0  0  0  0
  161.8060  206.3310  146.3790 O   0  0  0  0  0  0  0  0  0  0  0  0
  162.6390  205.3330  146.7110 O   0  0  0  0  0  0  0  0  0  0  0  0
  162.5060  205.6850  145.3860 C   0  0  0  0  0  3  0  0  0  0  0  0
  161.4300  208.9700  148.6720 C   0  0  0  0  0  2  0  0  0  0  0  0
  162.1520  208.3230  151.0170 C   0  0  2  0  0  3  0  0  0  0  0  0
  162.6170  209.6000  151.5660 N   0  0  0  0  0  2  0  0  0  0  0  0
  161.9980  210.7470  150.9090 C   0  0  0  0  0  2  0  0  0  0  0  0
  162.6970  211.0290  149.5880 C   0  0  0  0  0  2  0  0  0  0  0  0
  162.3600  208.1070  149.5110 C   0  0  0  0  0  2  0  0  0  0  0  0
  161.9970  210.3640  148.3980 C   0  0  0  0  0  2  0  0  0  0  0  0
  161.9960  206.7230  153.6660 N   0  0  0  0  0  0  0  0  0  0  0  0
  161.1440  207.6730  153.2010 C   0  0  0  0  0  0  0  0  0  0  0  0
  160.4540  208.4980  154.1170 C   0  0  0  0  0  0  0  0  0  0  0  0
  161.5880  207.3530  155.8900 N   0  0  0  0  0  0  0  0  0  0  0  0
  162.2220  206.5600  154.9920 C   0  0  0  0  0  3  0  0  0  0  0  0
  160.7140  208.3120  155.4920 C   0  0  0  0  0  0  0  0  0  0  0  0
  160.0780  209.1130  156.4860 N   0  0  0  0  0  1  0  0  0  0  0  0
  159.7150  210.7440  153.7840 N   0  0  0  0  0  0  0  0  0  0  0  0
  159.5420  209.4930  153.6260 N   0  0  0  0  0  0  0  0  0  0  0  0
  155.9670  214.4440  151.8230 O   0  0  0  0  0  1  0  0  0  0  0  0
  156.8960  213.5310  152.3020 C   0  0  0  0  0  0  0  0  0  0  0  0
  156.7270  212.9600  153.5660 C   0  0  0  0  0  3  0  0  0  0  0  0
  157.6670  212.0440  154.0520 C   0  0  0  0  0  3  0  0  0  0  0  0
  158.0040  213.1890  151.5240 C   0  0  0  0  0  3  0  0  0  0  0  0
  158.9410  212.2730  152.0080 C   0  0  0  0  0  3  0  0  0  0  0  0
  158.7780  211.6940  153.2760 C   0  0  0  0  0  0  0  0  0  0  0  0
  1 30  1  1  0  0  0
  2  9  1  0  0  0  0
  4  6  1  0  0  0  0
  4  2  1  0  0  0  0
  6  8  1  0  0  0  0
  7  2  2  0  0  0  0
  7 11  1  0  0  0  0
  8  1  1  0  0  0  0
  8  5  1  0  0  0  0
  9  5  1  0  0  0  0
  9  3  2  0  0  0  0
 10  3  1  0  0  0  0
 11 10  2  0  0  0  0
 13 12  2  0  0  0  0
 13 14  1  0  0  0  0
 14  7  1  0  0  0  0
 15 13  1  0  0  0  0
 16 17  1  0  0  0  0
 16 15  1  0  0  0  0
 18 17  1  0  0  0  0
 18 21  1  0  0  0  0
 19 20  1  0  0  0  0
 21 19  1  0  0  0  0
 21 20  1  0  0  0  0
 22 27  1  0  0  0  0
 23 24  1  0  0  0  0
 23  1  1  6  0  0  0
 25 24  1  0  0  0  0
 26 25  1  0  0  0  0
 27 23  1  0  0  0  0
 28 22  1  0  0  0  0
 28 26  1  0  0  0  0
 29 33  1  0  0  0  0
 30 29  2  0  0  0  0
 30 31  1  0  0  0  0
 31 34  2  0  0  0  0
 33 32  2  0  0  0  0
 34 32  1  0  0  0  0
 34 35  1  0  0  0  0
 37 36  2  0  0  0  0
 37 31  1  0  0  0  0
 38 39  1  0  0  0  0
 39 40  1  0  0  0  0
 40 41  2  0  0  0  0
 42 43  1  0  0  0  0
 42 39  2  0  0  0  0
 43 44  2  0  0  0  0
 44 36  1  0  0  0  0
 44 41  1  0  0  0  0
M  END
>  <MODEL>
4

>  <REMARK>
 VINA RESULT:      -4.2      2.800      5.400
  Name = 
  11 active torsions:
  status: ('A' for Active; 'I' for Inactive)
    1  A    between atoms: C_5  and  C_41
    2  A    between atoms: N_7  and  C_24
    3  A    between atoms: C_9  and  C_41
    4  A    between atoms: O_10  and  C_37
    5  A    between atoms: O_10  and  C_43
    6  A    between atoms: C_11  and  N_27
    7  A    between atoms: C_28  and  N_39
    8  A    between atoms: N_31  and  C_41
    9  A    between atoms: C_32  and  C_37
   10  A    between atoms: C_32  and  C_38
   11  A    between atoms: C_35  and  C_43
                            x       y       z     vdW  Elec       q    Type
                         _______ _______ _______ _____ _____    ______ ____

>  <TORSDO>
F 11

$$$$
=
 OpenBabel11052409363D

 44 49  0  0  1  0  0  0  0  0999 V2000
  159.1300  212.5440  153.5180 C   0  0  2  0  0  3  0  0  0  0  0  0
  161.0270  209.0040  152.2500 C   0  0  0  0  0  0  0  0  0  0  0  0
  160.5020  208.1120  154.4480 C   0  0  0  0  0  3  0  0  0  0  0  0
  160.9230  210.1370  151.2680 C   0  0  0  0  0  2  0  0  0  0  0  0
  159.8100  210.3520  153.8420 O   0  0  0  0  0  0  0  0  0  0  0  0
  160.6030  211.4510  151.9830 C   0  0  0  0  0  2  0  0  0  0  0  0
  161.6840  207.8050  151.9130 C   0  0  0  0  0  0  0  0  0  0  0  0
  159.4440  211.2630  152.8640 N   0  0  0  0  0  0  0  0  0  0  0  0
  160.4350  209.1450  153.5140 C   0  0  0  0  0  0  0  0  0  0  0  0
  161.1510  206.9230  154.1190 C   0  0  0  0  0  3  0  0  0  0  0  0
  161.7400  206.7720  152.8610 C   0  0  0  0  0  3  0  0  0  0  0  0
  160.4630  206.9870  149.3540 O   0  0  0  0  0  0  0  0  0  0  0  0
  161.6980  207.2250  149.4130 C   0  0  0  0  0  0  0  0  0  0  0  0
  162.3120  207.6740  150.6280 N   0  0  0  0  0  2  0  0  0  0  0  0
  162.5340  207.0550  148.1950 C   0  0  0  0  0  2  0  0  0  0  0  0
  161.7980  206.2200  147.1670 C   0  0  0  0  0  2  0  0  0  0  0  0
  162.6910  205.8270  146.1720 O   0  0  0  0  0  0  0  0  0  0  0  0
  162.5960  204.4360  146.1420 C   0  0  0  0  0  2  0  0  0  0  0  0
  161.3680  202.6600  147.0990 O   0  0  0  0  0  0  0  0  0  0  0  0
  161.5770  203.5490  148.0810 O   0  0  0  0  0  0  0  0  0  0  0  0
  161.3080  204.0040  146.8090 C   0  0  0  0  0  3  0  0  0  0  0  0
  157.7710  214.4460  155.8770 C   0  0  0  0  0  2  0  0  0  0  0  0
  159.1890  212.5080  155.0590 C   0  0  2  0  0  3  0  0  0  0  0  0
  158.5280  211.3530  155.6760 N   0  0  0  0  0  2  0  0  0  0  0  0
  157.1210  211.6080  155.9700 C   0  0  0  0  0  2  0  0  0  0  0  0
  156.9960  212.4040  157.2600 C   0  0  0  0  0  2  0  0  0  0  0  0
  159.1570  213.8220  155.8540 C   0  0  0  0  0  2  0  0  0  0  0  0
  156.8970  213.9130  157.0130 C   0  0  0  0  0  2  0  0  0  0  0  0
  156.7960  213.1430  153.9970 N   0  0  0  0  0  0  0  0  0  0  0  0
  157.8010  213.1170  153.0830 C   0  0  0  0  0  0  0  0  0  0  0  0
  157.5470  213.5330  151.7570 C   0  0  0  0  0  0  0  0  0  0  0  0
  155.2920  214.0080  152.4160 N   0  0  0  0  0  0  0  0  0  0  0  0
  155.5550  213.5840  153.6750 C   0  0  0  0  0  3  0  0  0  0  0  0
  156.2470  213.9950  151.4510 C   0  0  0  0  0  0  0  0  0  0  0  0
  155.9060  214.4530  150.1450 N   0  0  0  0  0  1  0  0  0  0  0  0
  158.5460  214.0780  149.6580 N   0  0  0  0  0  0  0  0  0  0  0  0
  158.6050  213.4920  150.7860 N   0  0  0  0  0  0  0  0  0  0  0  0
  162.7470  213.7760  145.9370 O   0  0  0  0  0  1  0  0  0  0  0  0
  161.7130  213.8490  146.8600 C   0  0  0  0  0  0  0  0  0  0  0  0
  160.4350  214.2350  146.4500 C   0  0  0  0  0  3  0  0  0  0  0  0
  159.3950  214.3150  147.3820 C   0  0  0  0  0  3  0  0  0  0  0  0
  161.9540  213.5430  148.2020 C   0  0  0  0  0  3  0  0  0  0  0  0
  160.9130  213.6200  149.1320 C   0  0  0  0  0  3  0  0  0  0  0  0
  159.6270  214.0060  148.7270 C   0  0  0  0  0  0  0  0  0  0  0  0
  1 30  1  1  0  0  0
  2  9  1  0  0  0  0
  4  6  1  0  0  0  0
  4  2  1  0  0  0  0
  6  8  1  0  0  0  0
  7  2  2  0  0  0  0
  7 11  1  0  0  0  0
  8  1  1  0  0  0  0
  8  5  1  0  0  0  0
  9  5  1  0  0  0  0
  9  3  2  0  0  0  0
 10  3  1  0  0  0  0
 11 10  2  0  0  0  0
 12 13  2  0  0  0  0
 13 14  1  0  0  0  0
 14  7  1  0  0  0  0
 15 13  1  0  0  0  0
 16 15  1  0  0  0  0
 17 16  1  0  0  0  0
 18 17  1  0  0  0  0
 18 21  1  0  0  0  0
 19 20  1  0  0  0  0
 21 19  1  0  0  0  0
 21 20  1  0  0  0  0
 22 28  1  0  0  0  0
 23  1  1  6  0  0  0
 23 24  1  0  0  0  0
 23 27  1  0  0  0  0
 24 25  1  0  0  0  0
 25 26  1  0  0  0  0
 27 22  1  0  0  0  0
 28 26  1  0  0  0  0
 30 29  2  0  0  0  0
 31 30  1  0  0  0  0
 32 33  2  0  0  0  0
 33 29  1  0  0  0  0
 34 31  2  0  0  0  0
 34 32  1  0  0  0  0
 35 34  1  0  0  0  0
 36 37  2  0  0  0  0
 37 31  1  0  0  0  0
 38 39  1  0  0  0  0
 39 42  1  0  0  0  0
 40 39  2  0  0  0  0
 40 41  1  0  0  0  0
 41 44  2  0  0  0  0
 42 43  2  0  0  0  0
 44 43  1  0  0  0  0
 44 36  1  0  0  0  0
M  END
>  <MODEL>
5

>  <REMARK>
 VINA RESULT:      -4.1      1.678      2.481
  Name = 
  11 active torsions:
  status: ('A' for Active; 'I' for Inactive)
    1  A    between atoms: C_5  and  C_41
    2  A    between atoms: N_7  and  C_24
    3  A    between atoms: C_9  and  C_41
    4  A    between atoms: O_10  and  C_37
    5  A    between atoms: O_10  and  C_43
    6  A    between atoms: C_11  and  N_27
    7  A    between atoms: C_28  and  N_39
    8  A    between atoms: N_31  and  C_41
    9  A    between atoms: C_32  and  C_37
   10  A    between atoms: C_32  and  C_38
   11  A    between atoms: C_35  and  C_43
                            x       y       z     vdW  Elec       q    Type
                         _______ _______ _______ _____ _____    ______ ____

>  <TORSDO>
F 11

$$$$
=
 OpenBabel11052409363D

 44 49  0  0  1  0  0  0  0  0999 V2000
  161.4790  210.3980  152.4910 C   0  0  2  0  0  3  0  0  0  0  0  0
  161.3010  206.8690  150.1980 C   0  0  0  0  0  0  0  0  0  0  0  0
  162.4680  208.1130  148.4670 C   0  0  0  0  0  3  0  0  0  0  0  0
  160.7330  206.8340  151.5890 C   0  0  0  0  0  2  0  0  0  0  0  0
  161.9490  209.1640  150.5860 O   0  0  0  0  0  0  0  0  0  0  0  0
  160.4960  208.2500  152.1190 C   0  0  0  0  0  2  0  0  0  0  0  0
  161.2390  205.7430  149.3560 C   0  0  0  0  0  0  0  0  0  0  0  0
  161.7150  209.0500  151.9470 N   0  0  0  0  0  0  0  0  0  0  0  0
  161.9210  208.0450  149.7480 C   0  0  0  0  0  0  0  0  0  0  0  0
  162.4100  207.0000  147.6300 C   0  0  0  0  0  3  0  0  0  0  0  0
  161.7970  205.8240  148.0710 C   0  0  0  0  0  3  0  0  0  0  0  0
  162.2420  203.6990  151.2340 O   0  0  0  0  0  0  0  0  0  0  0  0
  161.1180  203.5510  150.6860 C   0  0  0  0  0  0  0  0  0  0  0  0
  160.5800  204.5500  149.8100 N   0  0  0  0  0  2  0  0  0  0  0  0
  160.3240  202.3260  150.9680 C   0  0  0  0  0  2  0  0  0  0  0  0
  160.1660  201.5020  149.7060 C   0  0  0  0  0  2  0  0  0  0  0  0
  161.3530  200.8160  149.4560 O   0  0  0  0  0  0  0  0  0  0  0  0
  161.4350  200.7490  148.0660 C   0  0  0  0  0  2  0  0  0  0  0  0
  161.5040  202.4520  146.4300 O   0  0  0  0  0  0  0  0  0  0  0  0
  160.4350  201.6940  146.1430 O   0  0  0  0  0  0  0  0  0  0  0  0
  160.7420  201.9520  147.4610 C   0  0  0  0  0  3  0  0  0  0  0  0
  161.1390  208.4610  155.1680 C   0  0  0  0  0  2  0  0  0  0  0  0
  160.5280  210.4420  153.7050 C   0  0  2  0  0  3  0  0  0  0  0  0
  160.7330  211.5760  154.6110 N   0  0  0  0  0  2  0  0  0  0  0  0
  161.6910  211.2760  155.6710 C   0  0  0  0  0  2  0  0  0  0  0  0
  161.0120  210.4810  156.7750 C   0  0  0  0  0  2  0  0  0  0  0  0
  160.0490  209.1300  154.3450 C   0  0  0  0  0  2  0  0  0  0  0  0
  161.1940  208.9690  156.6090 C   0  0  0  0  0  2  0  0  0  0  0  0
  161.8400  211.6630  150.4160 N   0  0  0  0  0  0  0  0  0  0  0  0
  161.0000  211.3790  151.4450 C   0  0  0  0  0  0  0  0  0  0  0  0
  159.7690  212.0640  151.5490 C   0  0  0  0  0  0  0  0  0  0  0  0
  160.3330  213.2300  149.5320 N   0  0  0  0  0  0  0  0  0  0  0  0
  161.5170  212.5750  149.4670 C   0  0  0  0  0  3  0  0  0  0  0  0
  159.4540  213.0030  150.5420 C   0  0  0  0  0  0  0  0  0  0  0  0
  158.2250  213.7260  150.5540 N   0  0  0  0  0  1  0  0  0  0  0  0
  157.8910  212.5030  152.9570 N   0  0  0  0  0  0  0  0  0  0  0  0
  158.8870  211.7740  152.6440 N   0  0  0  0  0  0  0  0  0  0  0  0
  154.5180  211.1360  157.2390 O   0  0  0  0  0  1  0  0  0  0  0  0
  155.3520  211.4790  156.1830 C   0  0  0  0  0  0  0  0  0  0  0  0
  155.7670  210.5030  155.2740 C   0  0  0  0  0  3  0  0  0  0  0  0
  156.6120  210.8490  154.2140 C   0  0  0  0  0  3  0  0  0  0  0  0
  155.7810  212.8000  156.0350 C   0  0  0  0  0  3  0  0  0  0  0  0
  156.6230  213.1450  154.9740 C   0  0  0  0  0  3  0  0  0  0  0  0
  157.0430  212.1710  154.0560 C   0  0  0  0  0  0  0  0  0  0  0  0
  1 30  1  6  0  0  0
  2  4  1  0  0  0  0
  3  9  2  0  0  0  0
  4  6  1  0  0  0  0
  5  8  1  0  0  0  0
  7 14  1  0  0  0  0
  7  2  2  0  0  0  0
  8  6  1  0  0  0  0
  8  1  1  0  0  0  0
  9  2  1  0  0  0  0
  9  5  1  0  0  0  0
 10 11  2  0  0  0  0
 10  3  1  0  0  0  0
 11  7  1  0  0  0  0
 13 15  1  0  0  0  0
 13 12  2  0  0  0  0
 14 13  1  0  0  0  0
 16 15  1  0  0  0  0
 17 16  1  0  0  0  0
 18 17  1  0  0  0  0
 19 21  1  0  0  0  0
 20 19  1  0  0  0  0
 20 21  1  0  0  0  0
 21 18  1  0  0  0  0
 22 28  1  0  0  0  0
 23  1  1  1  0  0  0
 23 27  1  0  0  0  0
 23 24  1  0  0  0  0
 24 25  1  0  0  0  0
 25 26  1  0  0  0  0
 27 22  1  0  0  0  0
 28 26  1  0  0  0  0
 29 30  1  0  0  0  0
 30 31  2  0  0  0  0
 31 37  1  0  0  0  0
 32 34  2  0  0  0  0
 33 32  1  0  0  0  0
 33 29  2  0  0  0  0
 34 35  1  0  0  0  0
 34 31  1  0  0  0  0
 36 44  1  0  0  0  0
 37 36  2  0  0  0  0
 39 38  1  0  0  0  0
 40 39  2  0  0  0  0
 41 40  1  0  0  0  0
 42 39  1  0  0  0  0
 43 42  2  0  0  0  0
 44 41  2  0  0  0  0
 44 43  1  0  0  0  0
M  END
>  <MODEL>
6

>  <REMARK>
 VINA RESULT:      -4.0      2.216      5.082
  Name = 
  11 active torsions:
  status: ('A' for Active; 'I' for Inactive)
    1  A    between atoms: C_5  and  C_41
    2  A    between atoms: N_7  and  C_24
    3  A    between atoms: C_9  and  C_41
    4  A    between atoms: O_10  and  C_37
    5  A    between atoms: O_10  and  C_43
    6  A    between atoms: C_11  and  N_27
    7  A    between atoms: C_28  and  N_39
    8  A    between atoms: N_31  and  C_41
    9  A    between atoms: C_32  and  C_37
   10  A    between atoms: C_32  and  C_38
   11  A    between atoms: C_35  and  C_43
                            x       y       z     vdW  Elec       q    Type
                         _______ _______ _______ _____ _____    ______ ____

>  <TORSDO>
F 11

$$$$
=
 OpenBabel11052409363D

 44 49  0  0  1  0  0  0  0  0999 V2000
  160.9600  209.0020  152.5060 C   0  0  2  0  0  3  0  0  0  0  0  0
  161.3570  205.7950  149.8040 C   0  0  0  0  0  0  0  0  0  0  0  0
  161.1350  207.4500  148.0390 C   0  0  0  0  0  3  0  0  0  0  0  0
  161.4470  205.4920  151.2740 C   0  0  0  0  0  2  0  0  0  0  0  0
  161.1070  208.1320  150.3620 O   0  0  0  0  0  0  0  0  0  0  0  0
  160.8800  206.6450  152.1040 C   0  0  0  0  0  2  0  0  0  0  0  0
  161.4370  204.7700  148.8420 C   0  0  0  0  0  0  0  0  0  0  0  0
  161.4920  207.9090  151.6750 N   0  0  0  0  0  0  0  0  0  0  0  0
  161.2120  207.1290  149.3940 C   0  0  0  0  0  0  0  0  0  0  0  0
  161.2150  206.4390  147.0820 C   0  0  0  0  0  3  0  0  0  0  0  0
  161.3620  205.1080  147.4830 C   0  0  0  0  0  3  0  0  0  0  0  0
  159.2880  202.8110  149.3430 O   0  0  0  0  0  0  0  0  0  0  0  0
  160.4890  202.4930  149.5500 C   0  0  0  0  0  0  0  0  0  0  0  0
  161.5590  203.4030  149.2670 N   0  0  0  0  0  2  0  0  0  0  0  0
  160.8050  201.1400  150.0800 C   0  0  0  0  0  2  0  0  0  0  0  0
  161.2940  200.2400  148.9640 C   0  0  0  0  0  2  0  0  0  0  0  0
  161.6670  201.0230  147.8730 O   0  0  0  0  0  0  0  0  0  0  0  0
  160.9200  200.5230  146.8080 C   0  0  0  0  0  2  0  0  0  0  0  0
  160.0990  201.1220  144.6750 O   0  0  0  0  0  0  0  0  0  0  0  0
  159.2450  201.6410  145.5700 O   0  0  0  0  0  0  0  0  0  0  0  0
  160.5950  201.6460  145.8470 C   0  0  0  0  0  3  0  0  0  0  0  0
  161.8290  210.6170  149.7380 C   0  0  0  0  0  2  0  0  0  0  0  0
  161.6150  210.3750  152.2540 C   0  0  2  0  0  3  0  0  0  0  0  0
  160.7880  211.5310  152.6120 N   0  0  0  0  0  2  0  0  0  0  0  0
  159.9580  211.9870  151.5000 C   0  0  0  0  0  2  0  0  0  0  0  0
  160.7850  212.8380  150.5500 C   0  0  0  0  0  2  0  0  0  0  0  0
  162.5700  210.5560  151.0640 C   0  0  0  0  0  2  0  0  0  0  0  0
  161.3590  212.0290  149.3830 C   0  0  0  0  0  2  0  0  0  0  0  0
  161.9440  207.8090  154.4150 N   0  0  0  0  0  0  0  0  0  0  0  0
  161.0040  208.6910  153.9850 C   0  0  0  0  0  0  0  0  0  0  0  0
  160.0610  209.2060  154.9020 C   0  0  0  0  0  0  0  0  0  0  0  0
  161.1370  207.9240  156.6170 N   0  0  0  0  0  0  0  0  0  0  0  0
  162.0170  207.4280  155.7140 C   0  0  0  0  0  3  0  0  0  0  0  0
  160.1650  208.7980  156.2500 C   0  0  0  0  0  0  0  0  0  0  0  0
  159.2690  209.2830  157.2470 N   0  0  0  0  0  1  0  0  0  0  0  0
  158.4770  210.9680  155.2030 N   0  0  0  0  0  0  0  0  0  0  0  0
  159.0580  210.1270  154.4440 N   0  0  0  0  0  0  0  0  0  0  0  0
  154.5300  214.4270  153.1940 O   0  0  0  0  0  1  0  0  0  0  0  0
  155.5090  213.5770  153.6900 C   0  0  0  0  0  0  0  0  0  0  0  0
  155.1500  212.3480  154.2500 C   0  0  0  0  0  3  0  0  0  0  0  0
  156.1380  211.4940  154.7540 C   0  0  0  0  0  3  0  0  0  0  0  0
  156.8530  213.9540  153.6340 C   0  0  0  0  0  3  0  0  0  0  0  0
  157.8390  213.0990  154.1350 C   0  0  0  0  0  3  0  0  0  0  0  0
  157.4860  211.8630  154.6980 C   0  0  0  0  0  0  0  0  0  0  0  0
  1 30  1  1  0  0  0
  2  4  1  0  0  0  0
  3  9  2  0  0  0  0
  4  6  1  0  0  0  0
  5  8  1  0  0  0  0
  7 14  1  0  0  0  0
  7  2  2  0  0  0  0
  8  6  1  0  0  0  0
  8  1  1  0  0  0  0
  9  2  1  0  0  0  0
  9  5  1  0  0  0  0
 10 11  2  0  0  0  0
 10  3  1  0  0  0  0
 11  7  1  0  0  0  0
 12 13  2  0  0  0  0
 13 15  1  0  0  0  0
 14 13  1  0  0  0  0
 16 15  1  0  0  0  0
 17 16  1  0  0  0  0
 18 17  1  0  0  0  0
 19 20  1  0  0  0  0
 19 21  1  0  0  0  0
 20 21  1  0  0  0  0
 21 18  1  0  0  0  0
 22 27  1  0  0  0  0
 23  1  1  6  0  0  0
 23 24  1  0  0  0  0
 25 24  1  0  0  0  0
 26 25  1  0  0  0  0
 27 23  1  0  0  0  0
 28 22  1  0  0  0  0
 28 26  1  0  0  0  0
 29 33  1  0  0  0  0
 30 29  2  0  0  0  0
 30 31  1  0  0  0  0
 31 34  2  0  0  0  0
 33 32  2  0  0  0  0
 34 32  1  0  0  0  0
 34 35  1  0  0  0  0
 37 31  1  0  0  0  0
 37 36  2  0  0  0  0
 38 39  1  0  0  0  0
 39 40  1  0  0  0  0
 40 41  2  0  0  0  0
 42 39  2  0  0  0  0
 42 43  1  0  0  0  0
 43 44  2  0  0  0  0
 44 41  1  0  0  0  0
 44 36  1  0  0  0  0
M  END
>  <MODEL>
7

>  <REMARK>
 VINA RESULT:      -3.3      2.581      5.457
  Name = 
  11 active torsions:
  status: ('A' for Active; 'I' for Inactive)
    1  A    between atoms: C_5  and  C_41
    2  A    between atoms: N_7  and  C_24
    3  A    between atoms: C_9  and  C_41
    4  A    between atoms: O_10  and  C_37
    5  A    between atoms: O_10  and  C_43
    6  A    between atoms: C_11  and  N_27
    7  A    between atoms: C_28  and  N_39
    8  A    between atoms: N_31  and  C_41
    9  A    between atoms: C_32  and  C_37
   10  A    between atoms: C_32  and  C_38
   11  A    between atoms: C_35  and  C_43
                            x       y       z     vdW  Elec       q    Type
                         _______ _______ _______ _____ _____    ______ ____

>  <TORSDO>
F 11

$$$$
