=
 OpenBabel11052410533D

 30 34  0  0  1  0  0  0  0  0999 V2000
  161.0710  208.7910  155.2790 C   0  0  0  0  0  2  0  0  0  0  0  0
  160.9370  209.5870  151.8270 C   0  0  1  0  0  3  0  0  0  0  0  0
  160.0580  206.7560  155.9580 O   0  0  0  0  0  0  0  0  0  0  0  0
  160.5170  209.7130  154.1950 C   0  0  0  0  0  2  0  0  0  0  0  0
  161.5840  208.4160  152.4850 N   0  0  0  0  0  0  0  0  0  0  0  0
  161.1710  206.5360  153.8990 C   0  0  0  0  0  3  0  0  0  0  0  0
  161.5170  209.7830  153.0590 C   0  0  1  0  0  3  0  0  0  0  0  0
  160.7220  207.3400  155.0620 C   0  0  0  0  0  0  0  0  0  0  0  0
  161.6150  207.0160  152.7310 C   0  0  0  0  0  0  0  0  0  0  0  0
  160.6540  205.6480  150.9090 C   0  0  2  0  0  3  0  0  0  0  0  0
  161.9350  206.0750  151.6150 C   0  0  2  0  0  3  0  0  0  0  0  0
  161.3340  204.7100  151.8860 C   0  0  0  0  0  2  0  0  0  0  0  0
  161.0610  205.6830  147.1220 C   0  0  0  0  0  0  0  0  0  0  0  0
  160.8400  206.1140  148.4330 C   0  0  0  0  0  3  0  0  0  0  0  0
  161.2060  203.8620  149.2420 C   0  0  0  0  0  3  0  0  0  0  0  0
  161.3530  204.3340  146.8700 C   0  0  0  0  0  0  0  0  0  0  0  0
  161.5930  203.8550  145.4820 C   0  0  0  0  0  1  0  0  0  0  0  0
  160.9280  205.2100  149.5030 C   0  0  0  0  0  0  0  0  0  0  0  0
  160.9900  206.5780  146.1050 F   0  0  0  0  0  0  0  0  0  0  0  0
  161.4210  203.4260  147.9310 C   0  0  0  0  0  3  0  0  0  0  0  0
  161.8180  210.0920  150.7850 N   0  0  0  0  0  2  0  0  0  0  0  0
  161.9110  212.6910  148.0580 C   0  0  0  0  0  0  0  0  0  0  0  0
  162.5340  212.9540  146.7320 C   0  0  0  0  0  1  0  0  0  0  0  0
  162.9960  210.5750  148.1870 F   0  0  0  0  0  0  0  0  0  0  0  0
  160.4710  213.4280  149.8570 C   0  0  0  0  0  0  0  0  0  0  0  0
  162.1730  211.4990  148.7500 C   0  0  0  0  0  0  0  0  0  0  0  0
  160.7290  212.2460  150.5510 C   0  0  0  0  0  3  0  0  0  0  0  0
  159.5660  214.4500  150.4430 C   0  0  0  0  0  1  0  0  0  0  0  0
  161.0630  213.6510  148.6140 C   0  0  0  0  0  3  0  0  0  0  0  0
  161.5810  211.2770  150.0140 C   0  0  0  0  0  0  0  0  0  0  0  0
  2 21  1  6  0  0  0
  2  5  1  0  0  0  0
  2  7  1  0  0  0  0
  4  1  1  0  0  0  0
  5  9  1  0  0  0  0
  5  7  1  0  0  0  0
  6  8  1  0  0  0  0
  7  4  1  1  0  0  0
  8  1  1  0  0  0  0
  8  3  2  0  0  0  0
  9  6  2  0  0  0  0
 10 18  1  6  0  0  0
 10 11  1  0  0  0  0
 10 12  1  0  0  0  0
 11 12  1  0  0  0  0
 11  9  1  1  0  0  0
 13 14  1  0  0  0  0
 14 18  2  0  0  0  0
 15 18  1  0  0  0  0
 16 13  2  0  0  0  0
 16 20  1  0  0  0  0
 17 16  1  0  0  0  0
 19 13  1  0  0  0  0
 20 15  2  0  0  0  0
 22 29  2  0  0  0  0
 22 26  1  0  0  0  0
 23 22  1  0  0  0  0
 24 26  1  0  0  0  0
 25 28  1  0  0  0  0
 25 27  2  0  0  0  0
 26 30  2  0  0  0  0
 29 25  1  0  0  0  0
 30 27  1  0  0  0  0
 30 21  1  0  0  0  0
M  END
>  <MODEL>
1

>  <REMARK>
 VINA RESULT:      -9.5      0.000      0.000
  Name = 
  4 active torsions:
  status: ('A' for Active; 'I' for Inactive)
    1  A    between atoms: C_3  and  N_23
    2  A    between atoms: C_13  and  C_16
    3  A    between atoms: C_22  and  C_24
    4  A    between atoms: N_23  and  C_30
                            x       y       z     vdW  Elec       q    Type
                         _______ _______ _______ _____ _____    ______ ____

>  <TORSDO>
F 4

$$$$
=
 OpenBabel11052410533D

 30 34  0  0  1  0  0  0  0  0999 V2000
  161.4810  208.5960  153.5110 C   0  0  0  0  0  2  0  0  0  0  0  0
  161.4880  207.6840  150.0840 C   0  0  1  0  0  3  0  0  0  0  0  0
  160.1100  207.3180  154.9650 O   0  0  0  0  0  0  0  0  0  0  0  0
  161.1050  208.9770  152.0800 C   0  0  0  0  0  2  0  0  0  0  0  0
  161.9070  206.8720  151.2620 N   0  0  0  0  0  0  0  0  0  0  0  0
  161.1570  205.9760  153.3450 C   0  0  0  0  0  3  0  0  0  0  0  0
  162.0970  208.3380  151.1300 C   0  0  1  0  0  3  0  0  0  0  0  0
  160.8680  207.2940  153.9600 C   0  0  0  0  0  0  0  0  0  0  0  0
  161.6790  205.7690  152.1300 C   0  0  0  0  0  0  0  0  0  0  0  0
  160.5500  203.9710  150.8610 C   0  0  2  0  0  3  0  0  0  0  0  0
  161.8150  204.3750  151.6080 C   0  0  2  0  0  3  0  0  0  0  0  0
  160.8010  203.4620  152.2670 C   0  0  0  0  0  2  0  0  0  0  0  0
  161.0460  202.1200  147.5700 C   0  0  0  0  0  0  0  0  0  0  0  0
  160.8230  203.1490  148.4880 C   0  0  0  0  0  3  0  0  0  0  0  0
  161.0250  201.5730  150.3140 C   0  0  0  0  0  3  0  0  0  0  0  0
  161.2560  200.8100  148.0260 C   0  0  0  0  0  0  0  0  0  0  0  0
  161.4980  199.7000  147.0660 C   0  0  0  0  0  1  0  0  0  0  0  0
  160.8280  202.8850  149.8670 C   0  0  0  0  0  0  0  0  0  0  0  0
  161.0570  202.4010  146.2430 F   0  0  0  0  0  0  0  0  0  0  0  0
  161.2420  200.5390  149.3980 C   0  0  0  0  0  3  0  0  0  0  0  0
  162.4450  207.4860  149.0060 N   0  0  0  0  0  2  0  0  0  0  0  0
  160.8480  205.9000  145.9840 C   0  0  0  0  0  0  0  0  0  0  0  0
  159.5870  205.9270  145.1940 C   0  0  0  0  0  1  0  0  0  0  0  0
  160.0080  207.5780  147.4490 F   0  0  0  0  0  0  0  0  0  0  0  0
  163.0600  204.9830  146.3300 C   0  0  0  0  0  0  0  0  0  0  0  0
  161.0130  206.7320  147.1010 C   0  0  0  0  0  0  0  0  0  0  0  0
  163.2300  205.8060  147.4430 C   0  0  0  0  0  3  0  0  0  0  0  0
  164.1470  204.0570  145.9190 C   0  0  0  0  0  1  0  0  0  0  0  0
  161.8710  205.0280  145.6030 C   0  0  0  0  0  3  0  0  0  0  0  0
  162.2150  206.6800  147.8440 C   0  0  0  0  0  0  0  0  0  0  0  0
  1  8  1  0  0  0  0
  2 21  1  6  0  0  0
  2  7  1  0  0  0  0
  2  5  1  0  0  0  0
  4  1  1  0  0  0  0
  5  9  1  0  0  0  0
  6  8  1  0  0  0  0
  7  5  1  0  0  0  0
  7  4  1  1  0  0  0
  8  3  2  0  0  0  0
  9  6  2  0  0  0  0
 10 18  1  6  0  0  0
 10 11  1  0  0  0  0
 10 12  1  0  0  0  0
 11  9  1  1  0  0  0
 11 12  1  0  0  0  0
 13 16  2  0  0  0  0
 13 14  1  0  0  0  0
 14 18  2  0  0  0  0
 16 20  1  0  0  0  0
 17 16  1  0  0  0  0
 18 15  1  0  0  0  0
 19 13  1  0  0  0  0
 20 15  2  0  0  0  0
 22 26  1  0  0  0  0
 23 22  1  0  0  0  0
 25 27  2  0  0  0  0
 26 24  1  0  0  0  0
 26 30  2  0  0  0  0
 27 30  1  0  0  0  0
 28 25  1  0  0  0  0
 29 22  2  0  0  0  0
 29 25  1  0  0  0  0
 30 21  1  0  0  0  0
M  END
>  <MODEL>
2

>  <REMARK>
 VINA RESULT:      -9.2      2.981      4.861
  Name = 
  4 active torsions:
  status: ('A' for Active; 'I' for Inactive)
    1  A    between atoms: C_3  and  N_23
    2  A    between atoms: C_13  and  C_16
    3  A    between atoms: C_22  and  C_24
    4  A    between atoms: N_23  and  C_30
                            x       y       z     vdW  Elec       q    Type
                         _______ _______ _______ _____ _____    ______ ____

>  <TORSDO>
F 4

$$$$
=
 OpenBabel11052410533D

 30 34  0  0  1  0  0  0  0  0999 V2000
  161.0990  208.8000  155.2940 C   0  0  0  0  0  2  0  0  0  0  0  0
  160.9550  209.6060  151.8440 C   0  0  1  0  0  3  0  0  0  0  0  0
  160.1230  206.7430  155.9640 O   0  0  0  0  0  0  0  0  0  0  0  0
  160.5290  209.7160  154.2130 C   0  0  0  0  0  2  0  0  0  0  0  0
  161.6230  208.4450  152.5000 N   0  0  0  0  0  0  0  0  0  0  0  0
  161.2430  206.5520  153.9060 C   0  0  0  0  0  3  0  0  0  0  0  0
  161.5290  209.8090  153.0790 C   0  0  1  0  0  3  0  0  0  0  0  0
  160.7770  207.3430  155.0710 C   0  0  0  0  0  0  0  0  0  0  0  0
  161.6800  207.0450  152.7410 C   0  0  0  0  0  0  0  0  0  0  0  0
  160.7430  205.5980  150.9670 C   0  0  2  0  0  3  0  0  0  0  0  0
  162.0190  206.1140  151.6220 C   0  0  2  0  0  3  0  0  0  0  0  0
  161.5180  204.7170  151.9260 C   0  0  0  0  0  2  0  0  0  0  0  0
  161.1460  205.6560  147.1800 C   0  0  0  0  0  0  0  0  0  0  0  0
  160.9490  206.0820  148.4960 C   0  0  0  0  0  3  0  0  0  0  0  0
  161.2060  203.8060  149.2790 C   0  0  0  0  0  3  0  0  0  0  0  0
  161.3710  204.2970  146.9120 C   0  0  0  0  0  0  0  0  0  0  0  0
  161.5860  203.8230  145.5190 C   0  0  0  0  0  1  0  0  0  0  0  0
  160.9940  205.1630  149.5550 C   0  0  0  0  0  0  0  0  0  0  0  0
  161.1170  206.5650  146.1730 F   0  0  0  0  0  0  0  0  0  0  0  0
  161.3970  203.3750  147.9630 C   0  0  0  0  0  3  0  0  0  0  0  0
  161.8280  210.1310  150.8060 N   0  0  0  0  0  2  0  0  0  0  0  0
  160.4220  213.4330  149.6560 C   0  0  0  0  0  0  0  0  0  0  0  0
  159.4070  214.4530  150.0360 C   0  0  0  0  0  1  0  0  0  0  0  0
  159.8870  212.1320  151.5770 F   0  0  0  0  0  0  0  0  0  0  0  0
  162.1280  212.6760  148.1160 C   0  0  0  0  0  0  0  0  0  0  0  0
  160.6230  212.2910  150.4460 C   0  0  0  0  0  0  0  0  0  0  0  0
  162.3310  211.5380  148.8960 C   0  0  0  0  0  3  0  0  0  0  0  0
  162.9280  212.8820  146.8810 C   0  0  0  0  0  1  0  0  0  0  0  0
  161.1740  213.6210  148.4940 C   0  0  0  0  0  3  0  0  0  0  0  0
  161.5830  211.3290  150.0580 C   0  0  0  0  0  0  0  0  0  0  0  0
  2 21  1  6  0  0  0
  2  5  1  0  0  0  0
  2  7  1  0  0  0  0
  4  1  1  0  0  0  0
  5  9  1  0  0  0  0
  5  7  1  0  0  0  0
  6  8  1  0  0  0  0
  7  4  1  1  0  0  0
  8  1  1  0  0  0  0
  8  3  2  0  0  0  0
  9  6  2  0  0  0  0
 10 18  1  6  0  0  0
 10 11  1  0  0  0  0
 10 12  1  0  0  0  0
 11 12  1  0  0  0  0
 11  9  1  1  0  0  0
 13 14  1  0  0  0  0
 14 18  2  0  0  0  0
 15 18  1  0  0  0  0
 16 13  2  0  0  0  0
 16 20  1  0  0  0  0
 17 16  1  0  0  0  0
 19 13  1  0  0  0  0
 20 15  2  0  0  0  0
 22 23  1  0  0  0  0
 22 26  1  0  0  0  0
 25 29  1  0  0  0  0
 25 27  2  0  0  0  0
 26 24  1  0  0  0  0
 27 30  1  0  0  0  0
 28 25  1  0  0  0  0
 29 22  2  0  0  0  0
 30 26  2  0  0  0  0
 30 21  1  0  0  0  0
M  END
>  <MODEL>
3

>  <REMARK>
 VINA RESULT:      -9.2      0.900      1.794
  Name = 
  4 active torsions:
  status: ('A' for Active; 'I' for Inactive)
    1  A    between atoms: C_3  and  N_23
    2  A    between atoms: C_13  and  C_16
    3  A    between atoms: C_22  and  C_24
    4  A    between atoms: N_23  and  C_30
                            x       y       z     vdW  Elec       q    Type
                         _______ _______ _______ _____ _____    ______ ____

>  <TORSDO>
F 4

$$$$
=
 OpenBabel11052410533D

 30 34  0  0  1  0  0  0  0  0999 V2000
  161.2990  208.4930  153.4220 C   0  0  0  0  0  2  0  0  0  0  0  0
  161.2160  207.6650  149.9750 C   0  0  1  0  0  3  0  0  0  0  0  0
  160.1090  207.0720  154.9030 O   0  0  0  0  0  0  0  0  0  0  0  0
  160.8240  208.8750  152.0210 C   0  0  0  0  0  2  0  0  0  0  0  0
  161.7570  206.8630  151.1100 N   0  0  0  0  0  0  0  0  0  0  0  0
  161.1840  205.8600  153.2000 C   0  0  0  0  0  3  0  0  0  0  0  0
  161.8190  208.3430  151.0100 C   0  0  1  0  0  3  0  0  0  0  0  0
  160.8170  207.1340  153.8630 C   0  0  0  0  0  0  0  0  0  0  0  0
  161.6620  205.7260  151.9570 C   0  0  0  0  0  0  0  0  0  0  0  0
  160.5850  203.8090  150.8240 C   0  0  2  0  0  3  0  0  0  0  0  0
  161.8870  204.3600  151.3910 C   0  0  2  0  0  3  0  0  0  0  0  0
  161.0940  203.3290  152.1680 C   0  0  0  0  0  2  0  0  0  0  0  0
  160.9500  202.0880  147.4460 C   0  0  0  0  0  0  0  0  0  0  0  0
  160.7430  203.0770  148.4110 C   0  0  0  0  0  3  0  0  0  0  0  0
  161.1230  201.4530  150.1660 C   0  0  0  0  0  3  0  0  0  0  0  0
  161.2420  200.7750  147.8430 C   0  0  0  0  0  0  0  0  0  0  0  0
  161.4680  199.7080  146.8310 C   0  0  0  0  0  1  0  0  0  0  0  0
  160.8450  202.7690  149.7770 C   0  0  0  0  0  0  0  0  0  0  0  0
  160.8650  202.4120  146.1310 F   0  0  0  0  0  0  0  0  0  0  0  0
  161.3240  200.4600  149.2030 C   0  0  0  0  0  3  0  0  0  0  0  0
  162.1330  207.5730  148.8490 N   0  0  0  0  0  2  0  0  0  0  0  0
  162.7430  205.0580  146.1100 C   0  0  0  0  0  0  0  0  0  0  0  0
  163.8080  204.1650  145.5770 C   0  0  0  0  0  1  0  0  0  0  0  0
  164.1920  205.8060  147.8460 F   0  0  0  0  0  0  0  0  0  0  0  0
  160.4900  205.9240  145.9530 C   0  0  0  0  0  0  0  0  0  0  0  0
  162.9790  205.8620  147.2360 C   0  0  0  0  0  0  0  0  0  0  0  0
  160.7180  206.7270  147.0700 C   0  0  0  0  0  3  0  0  0  0  0  0
  159.1690  205.9550  145.2740 C   0  0  0  0  0  1  0  0  0  0  0  0
  161.5010  205.0920  145.4730 C   0  0  0  0  0  3  0  0  0  0  0  0
  161.9570  206.7120  147.7170 C   0  0  0  0  0  0  0  0  0  0  0  0
  1  8  1  0  0  0  0
  2 21  1  6  0  0  0
  2  7  1  0  0  0  0
  2  5  1  0  0  0  0
  4  1  1  0  0  0  0
  5  9  1  0  0  0  0
  6  8  1  0  0  0  0
  7  5  1  0  0  0  0
  7  4  1  1  0  0  0
  8  3  2  0  0  0  0
  9  6  2  0  0  0  0
 10 18  1  6  0  0  0
 10 11  1  0  0  0  0
 10 12  1  0  0  0  0
 11  9  1  1  0  0  0
 11 12  1  0  0  0  0
 13 16  2  0  0  0  0
 13 14  1  0  0  0  0
 14 18  2  0  0  0  0
 16 20  1  0  0  0  0
 17 16  1  0  0  0  0
 18 15  1  0  0  0  0
 19 13  1  0  0  0  0
 20 15  2  0  0  0  0
 22 26  1  0  0  0  0
 23 22  1  0  0  0  0
 25 27  2  0  0  0  0
 26 30  2  0  0  0  0
 26 24  1  0  0  0  0
 27 30  1  0  0  0  0
 28 25  1  0  0  0  0
 29 25  1  0  0  0  0
 29 22  2  0  0  0  0
 30 21  1  0  0  0  0
M  END
>  <MODEL>
4

>  <REMARK>
 VINA RESULT:      -8.9      3.078      4.732
  Name = 
  4 active torsions:
  status: ('A' for Active; 'I' for Inactive)
    1  A    between atoms: C_3  and  N_23
    2  A    between atoms: C_13  and  C_16
    3  A    between atoms: C_22  and  C_24
    4  A    between atoms: N_23  and  C_30
                            x       y       z     vdW  Elec       q    Type
                         _______ _______ _______ _____ _____    ______ ____

>  <TORSDO>
F 4

$$$$
=
 OpenBabel11052410533D

 30 34  0  0  1  0  0  0  0  0999 V2000
  160.7620  208.6340  156.3340 C   0  0  0  0  0  2  0  0  0  0  0  0
  160.8970  210.1230  153.1190 C   0  0  1  0  0  3  0  0  0  0  0  0
  159.3390  206.7530  156.5940 O   0  0  0  0  0  0  0  0  0  0  0  0
  160.4390  209.8500  155.4680 C   0  0  0  0  0  2  0  0  0  0  0  0
  161.2730  208.7360  153.5160 N   0  0  0  0  0  0  0  0  0  0  0  0
  160.4470  206.7330  154.5210 C   0  0  0  0  0  3  0  0  0  0  0  0
  161.4660  209.9430  154.3590 C   0  0  1  0  0  3  0  0  0  0  0  0
  160.1340  207.3600  155.8280 C   0  0  0  0  0  0  0  0  0  0  0  0
  161.0140  207.3400  153.4710 C   0  0  0  0  0  0  0  0  0  0  0  0
  161.7080  205.1970  152.4470 C   0  0  2  0  0  3  0  0  0  0  0  0
  161.1710  206.5980  152.1820 C   0  0  2  0  0  3  0  0  0  0  0  0
  162.6300  206.2820  151.9270 C   0  0  0  0  0  2  0  0  0  0  0  0
  160.8480  202.0180  150.5340 C   0  0  0  0  0  0  0  0  0  0  0  0
  161.1460  202.8900  151.5840 C   0  0  0  0  0  3  0  0  0  0  0  0
  161.2790  204.7360  150.0220 C   0  0  0  0  0  3  0  0  0  0  0  0
  160.7680  202.5070  149.2210 C   0  0  0  0  0  0  0  0  0  0  0  0
  160.4500  201.5950  148.0900 C   0  0  0  0  0  1  0  0  0  0  0  0
  161.3470  204.2570  151.3380 C   0  0  0  0  0  0  0  0  0  0  0  0
  160.6390  200.7040  150.7980 F   0  0  0  0  0  0  0  0  0  0  0  0
  160.9880  203.8650  148.9690 C   0  0  0  0  0  3  0  0  0  0  0  0
  161.8930  210.6380  152.1920 N   0  0  0  0  0  2  0  0  0  0  0  0
  161.4790  211.2640  148.5000 C   0  0  0  0  0  0  0  0  0  0  0  0
  161.1050  212.3420  147.5440 C   0  0  0  0  0  1  0  0  0  0  0  0
  161.2120  212.7520  150.3390 F   0  0  0  0  0  0  0  0  0  0  0  0
  162.1410  208.9690  148.8830 C   0  0  0  0  0  0  0  0  0  0  0  0
  161.5120  211.5090  149.8810 C   0  0  0  0  0  0  0  0  0  0  0  0
  162.1740  209.2050  150.2560 C   0  0  0  0  0  3  0  0  0  0  0  0
  162.4770  207.6220  148.3530 C   0  0  0  0  0  1  0  0  0  0  0  0
  161.7920  209.9950  148.0060 C   0  0  0  0  0  3  0  0  0  0  0  0
  161.8570  210.4650  150.7700 C   0  0  0  0  0  0  0  0  0  0  0  0
  2 21  1  6  0  0  0
  2  5  1  0  0  0  0
  2  7  1  0  0  0  0
  4  1  1  0  0  0  0
  5  7  1  0  0  0  0
  6  8  1  0  0  0  0
  7  4  1  1  0  0  0
  8  1  1  0  0  0  0
  8  3  2  0  0  0  0
  9  5  1  0  0  0  0
  9  6  2  0  0  0  0
 10 18  1  6  0  0  0
 11 10  1  0  0  0  0
 11  9  1  1  0  0  0
 12 11  1  0  0  0  0
 12 10  1  0  0  0  0
 13 19  1  0  0  0  0
 13 14  1  0  0  0  0
 15 18  1  0  0  0  0
 16 13  2  0  0  0  0
 17 16  1  0  0  0  0
 18 14  2  0  0  0  0
 20 16  1  0  0  0  0
 20 15  2  0  0  0  0
 22 26  1  0  0  0  0
 23 22  1  0  0  0  0
 25 27  2  0  0  0  0
 26 24  1  0  0  0  0
 26 30  2  0  0  0  0
 27 30  1  0  0  0  0
 28 25  1  0  0  0  0
 29 22  2  0  0  0  0
 29 25  1  0  0  0  0
 30 21  1  0  0  0  0
M  END
>  <MODEL>
5

>  <REMARK>
 VINA RESULT:      -8.4      2.166      3.080
  Name = 
  4 active torsions:
  status: ('A' for Active; 'I' for Inactive)
    1  A    between atoms: C_3  and  N_23
    2  A    between atoms: C_13  and  C_16
    3  A    between atoms: C_22  and  C_24
    4  A    between atoms: N_23  and  C_30
                            x       y       z     vdW  Elec       q    Type
                         _______ _______ _______ _____ _____    ______ ____

>  <TORSDO>
F 4

$$$$
=
 OpenBabel11052410533D

 30 34  0  0  1  0  0  0  0  0999 V2000
  161.0860  206.5160  154.6350 C   0  0  0  0  0  2  0  0  0  0  0  0
  161.7290  207.0230  151.1850 C   0  0  1  0  0  3  0  0  0  0  0  0
  161.6610  208.2820  156.1120 O   0  0  0  0  0  0  0  0  0  0  0  0
  161.9030  206.1130  153.4090 C   0  0  0  0  0  2  0  0  0  0  0  0
  160.8260  207.7970  152.0850 N   0  0  0  0  0  0  0  0  0  0  0  0
  160.7590  209.0850  154.0950 C   0  0  0  0  0  3  0  0  0  0  0  0
  161.0590  206.3330  152.1700 C   0  0  1  0  0  3  0  0  0  0  0  0
  161.2080  207.9800  154.9760 C   0  0  0  0  0  0  0  0  0  0  0  0
  160.5330  209.0020  152.7780 C   0  0  0  0  0  0  0  0  0  0  0  0
  161.4510  210.9900  151.6280 C   0  0  2  0  0  3  0  0  0  0  0  0
  160.1840  210.2340  152.0070 C   0  0  2  0  0  3  0  0  0  0  0  0
  160.5900  211.4740  152.7770 C   0  0  0  0  0  2  0  0  0  0  0  0
  161.7590  212.4750  148.1340 C   0  0  0  0  0  0  0  0  0  0  0  0
  161.9470  211.6370  149.2360 C   0  0  0  0  0  3  0  0  0  0  0  0
  160.3480  212.9400  150.5060 C   0  0  0  0  0  3  0  0  0  0  0  0
  160.8630  213.5510  148.2190 C   0  0  0  0  0  0  0  0  0  0  0  0
  160.6470  214.4530  147.0550 C   0  0  0  0  0  1  0  0  0  0  0  0
  161.2300  211.8540  150.4240 C   0  0  0  0  0  0  0  0  0  0  0  0
  162.4480  212.2350  146.9900 F   0  0  0  0  0  0  0  0  0  0  0  0
  160.1630  213.7830  149.4060 C   0  0  0  0  0  3  0  0  0  0  0  0
  161.0650  206.8200  149.9060 N   0  0  0  0  0  2  0  0  0  0  0  0
  162.0280  204.6500  146.9800 C   0  0  0  0  0  0  0  0  0  0  0  0
  162.6550  204.7370  145.6330 C   0  0  0  0  0  1  0  0  0  0  0  0
  162.3270  206.9890  147.3090 F   0  0  0  0  0  0  0  0  0  0  0  0
  160.9870  203.3060  148.7020 C   0  0  0  0  0  0  0  0  0  0  0  0
  161.8780  205.7950  147.7770 C   0  0  0  0  0  0  0  0  0  0  0  0
  160.8330  204.4410  149.4980 C   0  0  0  0  0  3  0  0  0  0  0  0
  160.5170  201.9860  149.1930 C   0  0  0  0  0  1  0  0  0  0  0  0
  161.5810  203.4110  147.4450 C   0  0  0  0  0  3  0  0  0  0  0  0
  161.2670  205.6910  149.0480 C   0  0  0  0  0  0  0  0  0  0  0  0
  1  8  1  0  0  0  0
  2 21  1  6  0  0  0
  2  5  1  0  0  0  0
  2  7  1  0  0  0  0
  4  1  1  0  0  0  0
  5  7  1  0  0  0  0
  5  9  1  0  0  0  0
  6  8  1  0  0  0  0
  7  4  1  1  0  0  0
  8  3  2  0  0  0  0
  9  6  2  0  0  0  0
 10 18  1  6  0  0  0
 10 11  1  0  0  0  0
 10 12  1  0  0  0  0
 11 12  1  0  0  0  0
 11  9  1  1  0  0  0
 13 16  2  0  0  0  0
 13 14  1  0  0  0  0
 14 18  2  0  0  0  0
 16 20  1  0  0  0  0
 17 16  1  0  0  0  0
 18 15  1  0  0  0  0
 19 13  1  0  0  0  0
 20 15  2  0  0  0  0
 22 29  2  0  0  0  0
 22 26  1  0  0  0  0
 23 22  1  0  0  0  0
 24 26  1  0  0  0  0
 25 28  1  0  0  0  0
 25 27  2  0  0  0  0
 26 30  2  0  0  0  0
 29 25  1  0  0  0  0
 30 27  1  0  0  0  0
 30 21  1  0  0  0  0
M  END
>  <MODEL>
6

>  <REMARK>
 VINA RESULT:      -8.4      1.312      6.765
  Name = 
  4 active torsions:
  status: ('A' for Active; 'I' for Inactive)
    1  A    between atoms: C_3  and  N_23
    2  A    between atoms: C_13  and  C_16
    3  A    between atoms: C_22  and  C_24
    4  A    between atoms: N_23  and  C_30
                            x       y       z     vdW  Elec       q    Type
                         _______ _______ _______ _____ _____    ______ ____

>  <TORSDO>
F 4

$$$$
=
 OpenBabel11052410533D

 30 34  0  0  1  0  0  0  0  0999 V2000
  160.6150  209.2600  156.2710 C   0  0  0  0  0  2  0  0  0  0  0  0
  159.5510  211.3560  153.6160 C   0  0  1  0  0  3  0  0  0  0  0  0
  160.0490  206.9600  156.1250 O   0  0  0  0  0  0  0  0  0  0  0  0
  159.7070  210.4040  155.8240 C   0  0  0  0  0  2  0  0  0  0  0  0
  160.4740  210.1860  153.5630 N   0  0  0  0  0  0  0  0  0  0  0  0
  160.6460  207.8500  154.0330 C   0  0  0  0  0  3  0  0  0  0  0  0
  160.3850  211.1470  154.6910 C   0  0  1  0  0  3  0  0  0  0  0  0
  160.3990  207.9890  155.4890 C   0  0  0  0  0  0  0  0  0  0  0  0
  160.7320  208.8510  153.1480 C   0  0  0  0  0  0  0  0  0  0  0  0
  161.9990  207.5300  151.4850 C   0  0  2  0  0  3  0  0  0  0  0  0
  160.8810  208.5440  151.6920 C   0  0  2  0  0  3  0  0  0  0  0  0
  162.2360  208.9980  151.1920 C   0  0  0  0  0  2  0  0  0  0  0  0
  161.1590  204.7690  149.0000 C   0  0  0  0  0  0  0  0  0  0  0  0
  161.2860  205.4760  150.1980 C   0  0  0  0  0  3  0  0  0  0  0  0
  162.2520  207.3450  148.9990 C   0  0  0  0  0  3  0  0  0  0  0  0
  161.5830  205.3510  147.7960 C   0  0  0  0  0  0  0  0  0  0  0  0
  161.4530  204.6160  146.5090 C   0  0  0  0  0  1  0  0  0  0  0  0
  161.8180  206.7750  150.2030 C   0  0  0  0  0  0  0  0  0  0  0  0
  160.6240  203.5220  149.0150 F   0  0  0  0  0  0  0  0  0  0  0  0
  162.1320  206.6370  147.8000 C   0  0  0  0  0  3  0  0  0  0  0  0
  160.0850  212.4200  152.7810 N   0  0  0  0  0  2  0  0  0  0  0  0
  157.5870  213.7560  150.2960 C   0  0  0  0  0  0  0  0  0  0  0  0
  156.1640  214.1820  150.2020 C   0  0  0  0  0  1  0  0  0  0  0  0
  157.3310  213.2910  152.6170 F   0  0  0  0  0  0  0  0  0  0  0  0
  159.7210  213.3970  149.2150 C   0  0  0  0  0  0  0  0  0  0  0  0
  158.1250  213.3130  151.5140 C   0  0  0  0  0  0  0  0  0  0  0  0
  160.2610  212.9540  150.4220 C   0  0  0  0  0  3  0  0  0  0  0  0
  160.5680  213.4440  147.9960 C   0  0  0  0  0  1  0  0  0  0  0  0
  158.3860  213.7950  149.1510 C   0  0  0  0  0  3  0  0  0  0  0  0
  159.4750  212.9010  151.5770 C   0  0  0  0  0  0  0  0  0  0  0  0
  2 21  1  6  0  0  0
  2  7  1  0  0  0  0
  4  1  1  0  0  0  0
  5  2  1  0  0  0  0
  5  7  1  0  0  0  0
  6  8  1  0  0  0  0
  7  4  1  1  0  0  0
  8  3  2  0  0  0  0
  8  1  1  0  0  0  0
  9  5  1  0  0  0  0
  9  6  2  0  0  0  0
 10 18  1  6  0  0  0
 10 11  1  0  0  0  0
 11  9  1  1  0  0  0
 12 10  1  0  0  0  0
 12 11  1  0  0  0  0
 13 19  1  0  0  0  0
 13 14  1  0  0  0  0
 14 18  2  0  0  0  0
 15 18  1  0  0  0  0
 16 20  1  0  0  0  0
 16 13  2  0  0  0  0
 17 16  1  0  0  0  0
 20 15  2  0  0  0  0
 22 26  1  0  0  0  0
 23 22  1  0  0  0  0
 25 27  2  0  0  0  0
 26 30  2  0  0  0  0
 26 24  1  0  0  0  0
 27 30  1  0  0  0  0
 28 25  1  0  0  0  0
 29 25  1  0  0  0  0
 29 22  2  0  0  0  0
 30 21  1  0  0  0  0
M  END
>  <MODEL>
7

>  <REMARK>
 VINA RESULT:      -8.3      2.279      3.299
  Name = 
  4 active torsions:
  status: ('A' for Active; 'I' for Inactive)
    1  A    between atoms: C_3  and  N_23
    2  A    between atoms: C_13  and  C_16
    3  A    between atoms: C_22  and  C_24
    4  A    between atoms: N_23  and  C_30
                            x       y       z     vdW  Elec       q    Type
                         _______ _______ _______ _____ _____    ______ ____

>  <TORSDO>
F 4

$$$$
=
 OpenBabel11052410533D

 30 34  0  0  1  0  0  0  0  0999 V2000
  161.1050  206.6290  154.7670 C   0  0  0  0  0  2  0  0  0  0  0  0
  161.5500  206.9500  151.2640 C   0  0  1  0  0  3  0  0  0  0  0  0
  161.8190  208.4450  156.1170 O   0  0  0  0  0  0  0  0  0  0  0  0
  161.8340  206.1430  153.5160 C   0  0  0  0  0  2  0  0  0  0  0  0
  160.7260  207.7940  152.1770 N   0  0  0  0  0  0  0  0  0  0  0  0
  160.8180  209.1780  154.1210 C   0  0  0  0  0  3  0  0  0  0  0  0
  160.9230  206.3290  152.3200 C   0  0  1  0  0  3  0  0  0  0  0  0
  161.2880  208.1040  155.0270 C   0  0  0  0  0  0  0  0  0  0  0  0
  160.5090  209.0400  152.8250 C   0  0  0  0  0  0  0  0  0  0  0  0
  161.3990  211.0500  151.6910 C   0  0  2  0  0  3  0  0  0  0  0  0
  160.1480  210.2440  152.0160 C   0  0  2  0  0  3  0  0  0  0  0  0
  160.4580  211.5110  152.7860 C   0  0  0  0  0  2  0  0  0  0  0  0
  161.7970  212.4650  148.1780 C   0  0  0  0  0  0  0  0  0  0  0  0
  161.9610  211.6530  149.3030 C   0  0  0  0  0  3  0  0  0  0  0  0
  160.3060  212.9600  150.4940 C   0  0  0  0  0  3  0  0  0  0  0  0
  160.8850  213.5310  148.2120 C   0  0  0  0  0  0  0  0  0  0  0  0
  160.6940  214.4050  147.0230 C   0  0  0  0  0  1  0  0  0  0  0  0
  161.2050  211.8850  150.4630 C   0  0  0  0  0  0  0  0  0  0  0  0
  162.5240  212.2110  147.0610 F   0  0  0  0  0  0  0  0  0  0  0  0
  160.1440  213.7770  149.3720 C   0  0  0  0  0  3  0  0  0  0  0  0
  160.8030  206.7070  150.0390 N   0  0  0  0  0  2  0  0  0  0  0  0
  161.1450  203.3160  148.4340 C   0  0  0  0  0  0  0  0  0  0  0  0
  160.9050  201.8740  148.7150 C   0  0  0  0  0  1  0  0  0  0  0  0
  160.2900  203.9110  150.5740 F   0  0  0  0  0  0  0  0  0  0  0  0
  161.9320  205.0320  146.9210 C   0  0  0  0  0  0  0  0  0  0  0  0
  160.8320  204.2950  149.3890 C   0  0  0  0  0  0  0  0  0  0  0  0
  161.6250  206.0100  147.8670 C   0  0  0  0  0  3  0  0  0  0  0  0
  162.5140  205.4230  145.6110 C   0  0  0  0  0  1  0  0  0  0  0  0
  161.6950  203.6870  147.2050 C   0  0  0  0  0  3  0  0  0  0  0  0
  161.0810  205.6570  149.1050 C   0  0  0  0  0  0  0  0  0  0  0  0
  1  8  1  0  0  0  0
  2 21  1  6  0  0  0
  2  5  1  0  0  0  0
  2  7  1  0  0  0  0
  4  1  1  0  0  0  0
  5  7  1  0  0  0  0
  5  9  1  0  0  0  0
  6  8  1  0  0  0  0
  7  4  1  1  0  0  0
  8  3  2  0  0  0  0
  9  6  2  0  0  0  0
 10 18  1  6  0  0  0
 10 11  1  0  0  0  0
 10 12  1  0  0  0  0
 11 12  1  0  0  0  0
 11  9  1  1  0  0  0
 13 16  2  0  0  0  0
 13 14  1  0  0  0  0
 14 18  2  0  0  0  0
 16 20  1  0  0  0  0
 17 16  1  0  0  0  0
 18 15  1  0  0  0  0
 19 13  1  0  0  0  0
 20 15  2  0  0  0  0
 22 23  1  0  0  0  0
 22 26  1  0  0  0  0
 25 29  1  0  0  0  0
 25 27  2  0  0  0  0
 26 24  1  0  0  0  0
 27 30  1  0  0  0  0
 28 25  1  0  0  0  0
 29 22  2  0  0  0  0
 30 26  2  0  0  0  0
 30 21  1  0  0  0  0
M  END
>  <MODEL>
8

>  <REMARK>
 VINA RESULT:      -8.3      1.609      6.920
  Name = 
  4 active torsions:
  status: ('A' for Active; 'I' for Inactive)
    1  A    between atoms: C_3  and  N_23
    2  A    between atoms: C_13  and  C_16
    3  A    between atoms: C_22  and  C_24
    4  A    between atoms: N_23  and  C_30
                            x       y       z     vdW  Elec       q    Type
                         _______ _______ _______ _____ _____    ______ ____

>  <TORSDO>
F 4

$$$$
=
 OpenBabel11052410533D

 30 34  0  0  1  0  0  0  0  0999 V2000
  161.2340  212.1530  149.2070 C   0  0  0  0  0  2  0  0  0  0  0  0
  161.6060  210.3030  152.2090 C   0  0  1  0  0  3  0  0  0  0  0  0
  162.8580  211.8010  147.5130 O   0  0  0  0  0  0  0  0  0  0  0  0
  161.5380  212.1830  150.7040 C   0  0  0  0  0  2  0  0  0  0  0  0
  161.3910  209.7930  150.8250 N   0  0  0  0  0  0  0  0  0  0  0  0
  162.2890  209.8020  148.6120 C   0  0  0  0  0  3  0  0  0  0  0  0
  160.8000  211.0410  151.3720 C   0  0  1  0  0  3  0  0  0  0  0  0
  162.1730  211.2690  148.4270 C   0  0  0  0  0  0  0  0  0  0  0  0
  161.8900  209.1070  149.6840 C   0  0  0  0  0  0  0  0  0  0  0  0
  160.8860  206.8790  150.0640 C   0  0  2  0  0  3  0  0  0  0  0  0
  162.1710  207.6410  149.7660 C   0  0  2  0  0  3  0  0  0  0  0  0
  161.8990  207.1270  151.1640 C   0  0  0  0  0  2  0  0  0  0  0  0
  161.2700  203.8250  147.8210 C   0  0  0  0  0  0  0  0  0  0  0  0
  161.2270  205.1540  148.2500 C   0  0  0  0  0  3  0  0  0  0  0  0
  160.7350  204.4170  150.5030 C   0  0  0  0  0  3  0  0  0  0  0  0
  161.0410  202.7870  148.7360 C   0  0  0  0  0  0  0  0  0  0  0  0
  161.0840  201.3660  148.3000 C   0  0  0  0  0  1  0  0  0  0  0  0
  160.9760  205.4580  149.5970 C   0  0  0  0  0  0  0  0  0  0  0  0
  161.5330  203.5540  146.5180 F   0  0  0  0  0  0  0  0  0  0  0  0
  160.7710  203.0870  150.0750 C   0  0  0  0  0  3  0  0  0  0  0  0
  160.7820  209.5360  153.1310 N   0  0  0  0  0  2  0  0  0  0  0  0
  161.0300  207.9080  156.5200 C   0  0  0  0  0  0  0  0  0  0  0  0
  160.5670  206.7030  157.2610 C   0  0  0  0  0  1  0  0  0  0  0  0
  159.9170  207.1680  154.5500 F   0  0  0  0  0  0  0  0  0  0  0  0
  162.2610  209.9910  156.5090 C   0  0  0  0  0  0  0  0  0  0  0  0
  160.6780  208.1030  155.1760 C   0  0  0  0  0  0  0  0  0  0  0  0
  161.9130  210.1920  155.1740 C   0  0  0  0  0  3  0  0  0  0  0  0
  163.1020  210.9910  157.2150 C   0  0  0  0  0  1  0  0  0  0  0  0
  161.8190  208.8520  157.1820 C   0  0  0  0  0  3  0  0  0  0  0  0
  161.1180  209.2620  154.4970 C   0  0  0  0  0  0  0  0  0  0  0  0
  1  4  1  0  0  0  0
  2 21  1  1  0  0  0
  3  8  2  0  0  0  0
  5  7  1  0  0  0  0
  5  2  1  0  0  0  0
  6  9  2  0  0  0  0
  7  4  1  6  0  0  0
  7  2  1  0  0  0  0
  8  6  1  0  0  0  0
  8  1  1  0  0  0  0
  9  5  1  0  0  0  0
 10 18  1  6  0  0  0
 10 12  1  0  0  0  0
 11  9  1  1  0  0  0
 11 10  1  0  0  0  0
 11 12  1  0  0  0  0
 13 14  2  0  0  0  0
 13 16  1  0  0  0  0
 14 18  1  0  0  0  0
 16 20  2  0  0  0  0
 17 16  1  0  0  0  0
 18 15  2  0  0  0  0
 19 13  1  0  0  0  0
 20 15  1  0  0  0  0
 21 30  1  0  0  0  0
 22 29  1  0  0  0  0
 22 23  1  0  0  0  0
 24 26  1  0  0  0  0
 25 29  2  0  0  0  0
 25 28  1  0  0  0  0
 26 22  2  0  0  0  0
 27 25  1  0  0  0  0
 30 27  2  0  0  0  0
 30 26  1  0  0  0  0
M  END
>  <MODEL>
9

>  <REMARK>
 VINA RESULT:      -7.9      2.853      5.791
  Name = 
  4 active torsions:
  status: ('A' for Active; 'I' for Inactive)
    1  A    between atoms: C_3  and  N_23
    2  A    between atoms: C_13  and  C_16
    3  A    between atoms: C_22  and  C_24
    4  A    between atoms: N_23  and  C_30
                            x       y       z     vdW  Elec       q    Type
                         _______ _______ _______ _____ _____    ______ ____

>  <TORSDO>
F 4

$$$$
