=
 OpenBabel11042420553D

 64 72  0  0  1  0  0  0  0  0999 V2000
  161.7470  209.9940  149.5730 N   0  0  0  0  0  0  0  0  0  0  0  0
  160.9420  204.8620  149.1880 C   0  0  0  0  0  2  0  0  0  0  0  0
  162.3310  207.7030  150.2980 C   0  0  2  0  0  3  0  0  0  0  0  0
  161.6160  209.6080  152.7180 C   0  0  0  0  0  1  0  0  0  0  0  0
  160.5760  206.1870  151.0830 C   0  0  2  0  0  3  0  0  0  0  0  0
  162.8010  209.1590  150.1370 C   0  0  0  0  0  2  0  0  0  0  0  0
  161.0990  204.9040  151.5570 N   0  0  0  0  0  2  0  0  0  0  0  0
  160.5340  206.1860  149.6150 N   0  0  1  0  0  0  0  0  0  0  0  0
  161.3250  207.5220  153.9980 C   0  0  1  0  0  3  0  0  0  0  0  0
  160.7740  208.2040  148.2820 C   0  0  0  0  0  2  0  0  0  0  0  0
  161.5250  207.1480  149.1070 C   0  0  1  0  0  3  0  0  0  0  0  0
  161.5400  204.1780  150.3850 C   0  0  1  0  0  3  0  0  0  0  0  0
  162.2120  207.2180  152.8060 C   0  0  1  0  0  3  0  0  0  0  0  0
  161.4750  207.3360  151.4870 C   0  0  1  0  0  0  0  0  0  0  0  0
  161.0500  208.2030  152.6740 C   0  0  2  0  0  0  0  0  0  0  0  0
  161.5350  209.5190  148.2140 C   0  0  0  0  0  2  0  0  0  0  0  0
  162.2820  211.3450  149.5030 C   0  0  0  0  0  2  0  0  0  0  0  0
  163.1140  211.5060  148.2430 C   0  0  0  0  0  2  0  0  0  0  0  0
  162.3000  212.0970  147.2000 N   0  0  0  0  0  2  0  0  0  0  0  0
  162.3240  213.5410  147.4020 C   0  0  2  0  0  3  0  0  0  0  0  0
  159.9380  213.7330  148.0920 O   0  0  0  0  0  0  0  0  0  0  0  0
  161.2740  213.9470  148.3860 C   0  0  0  0  0  0  0  0  0  0  0  0
  161.5990  214.4520  149.4930 O   0  0  0  0  0  1  0  0  0  0  0  0
  162.1850  214.3040  146.0800 C   0  0  0  0  0  2  0  0  0  0  0  0
  160.5370  213.9690  144.2480 C   0  0  0  0  0  0  0  0  0  0  0  0
  162.8160  213.3190  142.6370 C   0  0  0  0  0  3  0  0  0  0  0  0
  162.9380  213.2500  143.9710 C   0  0  0  0  0  3  0  0  0  0  0  0
  159.4920  214.0420  144.8730 O   0  0  0  0  0  0  0  0  0  0  0  0
  160.5760  214.4420  142.8230 C   0  0  0  0  0  2  0  0  0  0  0  0
  161.7700  213.4090  144.9160 C   0  0  1  0  0  3  0  0  0  0  0  0
  161.4890  213.5570  141.9680 C   0  0  2  0  0  3  0  0  0  0  0  0
  161.5630  211.1520  141.1300 N   0  0  0  0  0  1  0  0  0  0  0  0
  159.5630  212.1680  141.7330 O   0  0  0  0  0  0  0  0  0  0  0  0
  160.8090  212.2730  141.5880 C   0  0  0  0  0  0  0  0  0  0  0  0
  161.0670  202.7380  150.4430 C   0  0  0  0  0  2  0  0  0  0  0  0
  161.7730  201.9300  149.3690 C   0  0  0  0  0  2  0  0  0  0  0  0
  160.8500  201.5180  148.3190 N   0  0  0  0  0  2  0  0  0  0  0  0
  160.7480  201.2520  146.0170 O   0  0  0  0  0  0  0  0  0  0  0  0
  160.8710  202.0480  146.9880 C   0  0  0  0  0  0  0  0  0  0  0  0
  161.2250  203.4820  146.7120 C   0  0  1  0  0  3  0  0  0  0  0  0
  160.4840  205.2630  145.2930 C   0  0  0  0  0  1  0  0  0  0  0  0
  162.4620  203.5810  145.8010 C   0  0  0  0  0  0  0  0  0  0  0  0
  161.0090  203.8280  145.2900 C   0  0  1  0  0  3  0  0  0  0  0  0
  163.2140  204.6090  146.6670 C   0  0  0  0  0  2  0  0  0  0  0  0
  163.2070  204.7910  145.2030 C   0  0  0  0  0  2  0  0  0  0  0  0
  160.3520  206.3820  154.2460 C   0  0  0  0  0  2  0  0  0  0  0  0
  159.6750  206.5950  155.5840 C   0  0  0  0  0  2  0  0  0  0  0  0
  160.5700  207.4170  156.4970 C   0  0  0  0  0  2  0  0  0  0  0  0
  159.7770  208.5130  157.2010 C   0  0  0  0  0  2  0  0  0  0  0  0
  160.2660  209.9190  156.8620 C   0  0  1  0  0  3  0  0  0  0  0  0
  161.6080  209.8900  156.4810 O   0  0  0  0  0  1  0  0  0  0  0  0
  159.4640  210.4830  155.7770 N   0  0  0  0  0  2  0  0  0  0  0  0
  158.8050  212.3890  156.9490 O   0  0  0  0  0  0  0  0  0  0  0  0
  158.7430  211.7190  155.8810 C   0  0  0  0  0  0  0  0  0  0  0  0
  156.3230  212.1610  155.1550 C   0  0  1  0  0  3  0  0  0  0  0  0
  158.0870  213.6590  154.5170 C   0  0  2  0  0  3  0  0  0  0  0  0
  157.8030  212.1710  154.7780 C   0  0  1  0  0  0  0  0  0  0  0  0
  157.1710  214.4180  155.4750 C   0  0  0  0  0  2  0  0  0  0  0  0
  155.7330  210.7230  156.0410 Cl  0  0  0  0  0  0  0  0  0  0  0  0
  156.0550  213.4660  155.8810 C   0  0  0  0  0  2  0  0  0  0  0  0
  158.0160  211.2910  153.5480 C   0  0  0  0  0  1  0  0  0  0  0  0
  157.7680  214.1030  153.0940 C   0  0  0  0  0  2  0  0  0  0  0  0
  158.9540  213.8410  152.1810 C   0  0  0  0  0  2  0  0  0  0  0  0
  158.7340  214.4520  150.9470 O   0  0  0  0  0  1  0  0  0  0  0  0
  1  6  1  0  0  0  0
  2 12  1  0  0  0  0
  3  6  1  6  0  0  0
  3 14  1  0  0  0  0
  5 14  1  0  0  0  0
  5  7  1  6  0  0  0
  8  2  1  6  0  0  0
  8  5  1  0  0  0  0
  9 46  1  6  0  0  0
 11 10  1  1  0  0  0
 11  8  1  0  0  0  0
 11  3  1  0  0  0  0
 12 35  1  1  0  0  0
 12  7  1  0  0  0  0
 13  9  1  0  0  0  0
 14 15  1  0  0  0  0
 14 13  1  0  0  0  0
 15  4  1  0  0  0  0
 15 13  1  0  0  0  0
 15  9  1  0  0  0  0
 16 10  1  0  0  0  0
 16  1  1  0  0  0  0
 17  1  1  0  0  0  0
 18 17  1  0  0  0  0
 19 20  1  0  0  0  0
 19 18  1  0  0  0  0
 20 22  1  0  0  0  0
 21 22  2  0  0  0  0
 22 23  1  0  0  0  0
 24 20  1  0  0  0  0
 25 28  2  0  0  0  0
 25 30  1  0  0  0  0
 26 27  2  0  0  0  0
 27 30  1  0  0  0  0
 29 25  1  0  0  0  0
 30 24  1  0  0  0  0
 31 26  1  0  0  0  0
 31 29  1  0  0  0  0
 32 34  1  0  0  0  0
 34 33  2  0  0  0  0
 34 31  1  0  0  0  0
 36 35  1  0  0  0  0
 37 36  1  0  0  0  0
 38 39  2  0  0  0  0
 39 37  1  0  0  0  0
 40 39  1  0  0  0  0
 42 44  1  0  0  0  0
 42 40  1  0  0  0  0
 43 41  1  0  0  0  0
 43 42  1  0  0  0  0
 43 40  1  0  0  0  0
 45 42  1  0  0  0  0
 45 44  1  0  0  0  0
 46 47  1  0  0  0  0
 47 48  1  0  0  0  0
 48 49  1  0  0  0  0
 50 49  1  0  0  0  0
 51 50  1  0  0  0  0
 52 54  1  0  0  0  0
 52 50  1  0  0  0  0
 54 53  2  0  0  0  0
 55 60  1  0  0  0  0
 55 59  1  0  0  0  0
 56 57  1  0  0  0  0
 56 58  1  0  0  0  0
 57 55  1  0  0  0  0
 57 54  1  0  0  0  0
 58 60  1  0  0  0  0
 61 57  1  0  0  0  0
 62 56  1  0  0  0  0
 63 62  1  0  0  0  0
 64 63  1  0  0  0  0
M  END
>  <MODEL>
1

>  <REMARK>
 VINA RESULT:      -5.0      0.000      0.000
  Name = 
  21 active torsions:
  status: ('A' for Active; 'I' for Inactive)
    1  A    between atoms: C_1  and  N_27
    2  A    between atoms: C_1  and  C_59
    3  A    between atoms: C_2  and  C_12
    4  A    between atoms: C_2  and  C_22
    5  A    between atoms: C_3  and  N_23
    6  A    between atoms: C_3  and  C_49
    7  A    between atoms: N_4  and  C_49
    8  A    between atoms: C_8  and  C_44
    9  A    between atoms: C_9  and  C_35
   10  A    between atoms: C_9  and  C_54
   11  A    between atoms: N_11  and  C_20
   12  A    between atoms: C_17  and  C_43
   13  A    between atoms: CA_18  and  N_23
   14  A    between atoms: CA_18  and  C_42
   15  A    between atoms: CA_18  and  C_47
   16  A    between atoms: C_20  and  C_21
   17  A    between atoms: C_21  and  C_45
   18  A    between atoms: C_42  and  C_61
   19  A    between atoms: C_51  and  C_54
   20  A    between atoms: C_51  and  C_59
   21  A    between atoms: C_62  and  C_63
                            x       y       z     vdW  Elec       q    Type
                         _______ _______ _______ _____ _____    ______ ____

>  <TORSDO>
F 21

$$$$
=
 OpenBabel11042420553D

 64 72  0  0  1  0  0  0  0  0999 V2000
  161.4660  205.5660  152.2700 N   0  0  0  0  0  0  0  0  0  0  0  0
  160.0540  208.6850  156.1960 C   0  0  0  0  0  2  0  0  0  0  0  0
  161.8830  207.6060  153.6040 C   0  0  2  0  0  3  0  0  0  0  0  0
  161.7090  208.1860  150.4990 C   0  0  0  0  0  1  0  0  0  0  0  0
  160.0900  209.2420  153.9240 C   0  0  2  0  0  3  0  0  0  0  0  0
  162.4860  206.5120  152.7060 C   0  0  0  0  0  2  0  0  0  0  0  0
  160.5260  210.4320  154.6600 N   0  0  0  0  0  2  0  0  0  0  0  0
  159.8560  208.1420  154.8670 N   0  0  1  0  0  0  0  0  0  0  0  0
  161.3600  210.5310  151.1730 C   0  0  1  0  0  3  0  0  0  0  0  0
  160.1390  205.8030  154.2700 C   0  0  0  0  0  2  0  0  0  0  0  0
  160.8700  207.1000  154.6500 C   0  0  1  0  0  3  0  0  0  0  0  0
  160.7260  210.0190  156.0330 C   0  0  1  0  0  3  0  0  0  0  0  0
  162.0430  209.8130  152.3210 C   0  0  1  0  0  3  0  0  0  0  0  0
  161.1560  208.7640  152.9610 C   0  0  1  0  0  0  0  0  0  0  0  0
  160.9900  209.0950  151.4760 C   0  0  2  0  0  0  0  0  0  0  0  0
  161.0240  204.8640  153.4670 C   0  0  0  0  0  2  0  0  0  0  0  0
  162.1320  204.6080  151.4020 C   0  0  0  0  0  2  0  0  0  0  0  0
  161.5590  203.2200  151.6290 C   0  0  0  0  0  2  0  0  0  0  0  0
  160.2150  203.1600  151.0900 N   0  0  0  0  0  2  0  0  0  0  0  0
  160.3370  202.9520  149.6520 C   0  0  2  0  0  3  0  0  0  0  0  0
  160.4280  200.9440  148.1810 O   0  0  0  0  0  0  0  0  0  0  0  0
  160.7990  201.5590  149.3640 C   0  0  0  0  0  0  0  0  0  0  0  0
  161.5510  200.9560  150.1740 O   0  0  0  0  0  1  0  0  0  0  0  0
  161.2500  203.9960  149.0010 C   0  0  0  0  0  2  0  0  0  0  0  0
  161.0580  205.6520  147.1560 C   0  0  0  0  0  0  0  0  0  0  0  0
  162.5530  203.7560  145.6150 C   0  0  0  0  0  3  0  0  0  0  0  0
  161.9190  203.3240  146.7150 C   0  0  0  0  0  3  0  0  0  0  0  0
  160.2670  206.4410  147.6480 O   0  0  0  0  0  0  0  0  0  0  0  0
  162.1040  206.1570  146.2050 C   0  0  0  0  0  2  0  0  0  0  0  0
  160.9710  204.1880  147.5130 C   0  0  1  0  0  3  0  0  0  0  0  0
  162.3650  205.1500  145.0790 C   0  0  2  0  0  3  0  0  0  0  0  0
  161.4920  205.9410  142.8200 N   0  0  0  0  0  1  0  0  0  0  0  0
  160.2280  204.5610  144.1970 O   0  0  0  0  0  0  0  0  0  0  0  0
  161.2930  205.2110  144.0300 C   0  0  0  0  0  0  0  0  0  0  0  0
  160.1090  211.0250  156.9850 C   0  0  0  0  0  2  0  0  0  0  0  0
  160.6620  212.4070  156.6870 C   0  0  0  0  0  2  0  0  0  0  0  0
  160.2300  212.8830  155.3780 N   0  0  0  0  0  2  0  0  0  0  0  0
  158.8100  214.4420  154.4100 O   0  0  0  0  0  0  0  0  0  0  0  0
  158.9200  213.3990  155.1110 C   0  0  0  0  0  0  0  0  0  0  0  0
  157.6990  212.8500  155.7940 C   0  0  1  0  0  3  0  0  0  0  0  0
  155.9050  211.3420  155.3050 C   0  0  0  0  0  1  0  0  0  0  0  0
  156.5440  213.8680  155.7640 C   0  0  0  0  0  0  0  0  0  0  0  0
  156.6000  212.6170  154.8330 C   0  0  1  0  0  3  0  0  0  0  0  0
  156.2000  213.7630  157.2600 C   0  0  0  0  0  2  0  0  0  0  0  0
  155.0950  213.7980  156.2840 C   0  0  0  0  0  2  0  0  0  0  0  0
  160.3090  211.4950  151.6940 C   0  0  0  0  0  2  0  0  0  0  0  0
  160.5780  212.8720  151.1230 C   0  0  0  0  0  2  0  0  0  0  0  0
  160.4840  212.8360  149.6060 C   0  0  0  0  0  2  0  0  0  0  0  0
  160.8490  214.1870  149.0020 C   0  0  0  0  0  2  0  0  0  0  0  0
  161.9640  214.0970  147.9620 C   0  0  1  0  0  3  0  0  0  0  0  0
  162.8620  213.0830  148.2970 O   0  0  0  0  0  1  0  0  0  0  0  0
  161.3990  213.8300  146.6400 N   0  0  0  0  0  2  0  0  0  0  0  0
  160.4810  211.7600  147.2000 O   0  0  0  0  0  0  0  0  0  0  0  0
  160.6750  212.6350  146.3120 C   0  0  0  0  0  0  0  0  0  0  0  0
  158.9110  212.9580  144.4770 C   0  0  1  0  0  3  0  0  0  0  0  0
  161.2530  213.0520  143.9570 C   0  0  2  0  0  3  0  0  0  0  0  0
  160.2510  212.3460  144.8840 C   0  0  1  0  0  0  0  0  0  0  0  0
  160.6840  214.4520  143.7390 C   0  0  0  0  0  2  0  0  0  0  0  0
  157.5740  212.8090  145.6550 Cl  0  0  0  0  0  0  0  0  0  0  0  0
  159.2000  214.3920  144.0720 C   0  0  0  0  0  2  0  0  0  0  0  0
  160.1980  210.8330  144.6750 C   0  0  0  0  0  1  0  0  0  0  0  0
  161.4100  212.3790  142.5980 C   0  0  0  0  0  2  0  0  0  0  0  0
  161.0690  213.3550  141.4830 C   0  0  0  0  0  2  0  0  0  0  0  0
  161.9140  213.1300  140.3970 O   0  0  0  0  0  1  0  0  0  0  0  0
  1  6  1  0  0  0  0
  1 16  1  0  0  0  0
  3  6  1  6  0  0  0
  3 11  1  0  0  0  0
  4 15  1  0  0  0  0
  5  7  1  1  0  0  0
  5  8  1  0  0  0  0
  7 12  1  0  0  0  0
  8  2  1  1  0  0  0
  9 15  1  0  0  0  0
  9 46  1  1  0  0  0
  9 13  1  0  0  0  0
 11 10  1  6  0  0  0
 11  8  1  0  0  0  0
 12  2  1  0  0  0  0
 12 35  1  1  0  0  0
 13 14  1  0  0  0  0
 14  3  1  0  0  0  0
 14  5  1  0  0  0  0
 15 13  1  0  0  0  0
 15 14  1  0  0  0  0
 16 10  1  0  0  0  0
 17 18  1  0  0  0  0
 17  1  1  0  0  0  0
 19 18  1  0  0  0  0
 20 19  1  0  0  0  0
 21 22  2  0  0  0  0
 22 20  1  0  0  0  0
 22 23  1  0  0  0  0
 24 20  1  0  0  0  0
 25 30  1  0  0  0  0
 25 28  2  0  0  0  0
 26 27  2  0  0  0  0
 27 30  1  0  0  0  0
 29 25  1  0  0  0  0
 30 24  1  0  0  0  0
 31 26  1  0  0  0  0
 31 29  1  0  0  0  0
 32 34  1  0  0  0  0
 34 33  2  0  0  0  0
 34 31  1  0  0  0  0
 36 35  1  0  0  0  0
 37 36  1  0  0  0  0
 38 39  2  0  0  0  0
 39 37  1  0  0  0  0
 39 40  1  0  0  0  0
 42 40  1  0  0  0  0
 42 45  1  0  0  0  0
 42 44  1  0  0  0  0
 43 41  1  0  0  0  0
 43 42  1  0  0  0  0
 43 40  1  0  0  0  0
 45 44  1  0  0  0  0
 47 46  1  0  0  0  0
 48 47  1  0  0  0  0
 49 48  1  0  0  0  0
 50 51  1  0  0  0  0
 50 49  1  0  0  0  0
 52 50  1  0  0  0  0
 54 52  1  0  0  0  0
 54 53  2  0  0  0  0
 55 57  1  0  0  0  0
 55 59  1  0  0  0  0
 56 57  1  0  0  0  0
 57 54  1  0  0  0  0
 58 56  1  0  0  0  0
 58 60  1  0  0  0  0
 60 55  1  0  0  0  0
 61 57  1  0  0  0  0
 62 56  1  0  0  0  0
 63 62  1  0  0  0  0
 64 63  1  0  0  0  0
M  END
>  <MODEL>
2

>  <REMARK>
 VINA RESULT:      -3.1      2.457      9.924
  Name = 
  21 active torsions:
  status: ('A' for Active; 'I' for Inactive)
    1  A    between atoms: C_1  and  N_27
    2  A    between atoms: C_1  and  C_59
    3  A    between atoms: C_2  and  C_12
    4  A    between atoms: C_2  and  C_22
    5  A    between atoms: C_3  and  N_23
    6  A    between atoms: C_3  and  C_49
    7  A    between atoms: N_4  and  C_49
    8  A    between atoms: C_8  and  C_44
    9  A    between atoms: C_9  and  C_35
   10  A    between atoms: C_9  and  C_54
   11  A    between atoms: N_11  and  C_20
   12  A    between atoms: C_17  and  C_43
   13  A    between atoms: CA_18  and  N_23
   14  A    between atoms: CA_18  and  C_42
   15  A    between atoms: CA_18  and  C_47
   16  A    between atoms: C_20  and  C_21
   17  A    between atoms: C_21  and  C_45
   18  A    between atoms: C_42  and  C_61
   19  A    between atoms: C_51  and  C_54
   20  A    between atoms: C_51  and  C_59
   21  A    between atoms: C_62  and  C_63
                            x       y       z     vdW  Elec       q    Type
                         _______ _______ _______ _____ _____    ______ ____

>  <TORSDO>
F 21

$$$$
=
 OpenBabel11042420553D

 64 72  0  0  1  0  0  0  0  0999 V2000
  162.2400  208.0620  151.1500 N   0  0  0  0  0  0  0  0  0  0  0  0
  160.5010  203.1630  150.8260 C   0  0  0  0  0  2  0  0  0  0  0  0
  160.6110  206.4550  150.2130 C   0  0  2  0  0  3  0  0  0  0  0  0
  162.0830  208.1490  147.9840 C   0  0  0  0  0  1  0  0  0  0  0  0
  161.4030  204.4350  149.0810 C   0  0  2  0  0  3  0  0  0  0  0  0
  160.9000  207.9170  150.5960 C   0  0  0  0  0  2  0  0  0  0  0  0
  160.3160  203.6370  148.5070 N   0  0  0  0  0  2  0  0  0  0  0  0
  161.4800  204.1880  150.5260 N   0  0  1  0  0  0  0  0  0  0  0  0
  161.3040  206.3950  146.4380 C   0  0  1  0  0  3  0  0  0  0  0  0
  162.2740  205.8500  152.1120 C   0  0  0  0  0  2  0  0  0  0  0  0
  161.0860  205.4110  151.2420 C   0  0  1  0  0  3  0  0  0  0  0  0
  159.6140  203.0330  149.6200 C   0  0  1  0  0  3  0  0  0  0  0  0
  160.4130  206.3640  147.6640 C   0  0  1  0  0  3  0  0  0  0  0  0
  161.1530  205.9180  148.9100 C   0  0  1  0  0  0  0  0  0  0  0  0
  161.9080  206.6550  147.8010 C   0  0  2  0  0  0  0  0  0  0  0  0
  162.2380  207.3390  152.4150 C   0  0  0  0  0  2  0  0  0  0  0  0
  162.4200  209.4770  151.4370 C   0  0  0  0  0  2  0  0  0  0  0  0
  161.6270  209.8580  152.6750 C   0  0  0  0  0  2  0  0  0  0  0  0
  162.4930  210.5500  153.6080 N   0  0  0  0  0  2  0  0  0  0  0  0
  161.6900  210.8730  154.7820 C   0  0  2  0  0  3  0  0  0  0  0  0
  162.0560  208.8450  156.1820 O   0  0  0  0  0  0  0  0  0  0  0  0
  162.2490  210.2030  155.9960 C   0  0  0  0  0  0  0  0  0  0  0  0
  162.9220  210.8600  156.8340 O   0  0  0  0  0  1  0  0  0  0  0  0
  160.2130  210.5240  154.5750 C   0  0  0  0  0  2  0  0  0  0  0  0
  158.3870  212.0010  153.7560 C   0  0  0  0  0  0  0  0  0  0  0  0
  157.1820  211.5330  156.3130 C   0  0  0  0  0  3  0  0  0  0  0  0
  158.4970  211.3080  156.1770 C   0  0  0  0  0  3  0  0  0  0  0  0
  158.8860  212.4180  152.7240 O   0  0  0  0  0  0  0  0  0  0  0  0
  156.8990  211.8210  153.8330 C   0  0  0  0  0  2  0  0  0  0  0  0
  159.2730  211.6720  154.9330 C   0  0  1  0  0  3  0  0  0  0  0  0
  156.3660  212.1780  155.2250 C   0  0  2  0  0  3  0  0  0  0  0  0
  155.4450  214.4520  154.5380 N   0  0  0  0  0  1  0  0  0  0  0  0
  156.8470  214.2120  156.3740 O   0  0  0  0  0  0  0  0  0  0  0  0
  156.2580  213.6650  155.4060 C   0  0  0  0  0  0  0  0  0  0  0  0
  159.3380  201.5680  149.3400 C   0  0  0  0  0  2  0  0  0  0  0  0
  160.3330  200.7120  150.1020 C   0  0  0  0  0  2  0  0  0  0  0  0
  161.6390  200.7060  149.4530 N   0  0  0  0  0  2  0  0  0  0  0  0
  162.7430  201.6100  147.6240 O   0  0  0  0  0  0  0  0  0  0  0  0
  161.8260  200.8490  148.0400 C   0  0  0  0  0  0  0  0  0  0  0  0
  160.8510  200.2780  147.0490 C   0  0  1  0  0  3  0  0  0  0  0  0
  160.8010  198.5670  145.3760 C   0  0  0  0  0  1  0  0  0  0  0  0
  160.7360  201.1770  145.8040 C   0  0  0  0  0  0  0  0  0  0  0  0
  161.5320  199.8340  145.8140 C   0  0  1  0  0  3  0  0  0  0  0  0
  159.1980  201.2190  145.7800 C   0  0  0  0  0  2  0  0  0  0  0  0
  159.9180  201.0380  144.5060 C   0  0  0  0  0  2  0  0  0  0  0  0
  161.6040  204.9860  145.9580 C   0  0  0  0  0  2  0  0  0  0  0  0
  161.3180  204.9000  144.4740 C   0  0  0  0  0  2  0  0  0  0  0  0
  161.9380  206.0850  143.7520 C   0  0  0  0  0  2  0  0  0  0  0  0
  161.4000  206.2050  142.3300 C   0  0  0  0  0  2  0  0  0  0  0  0
  162.4890  206.4950  141.3000 C   0  0  1  0  0  3  0  0  0  0  0  0
  162.3720  205.6310  140.2100 O   0  0  0  0  0  1  0  0  0  0  0  0
  162.3880  207.8790  140.8370 N   0  0  0  0  0  2  0  0  0  0  0  0
  161.0670  207.4000  138.9760 O   0  0  0  0  0  0  0  0  0  0  0  0
  161.6710  208.2720  139.6580 C   0  0  0  0  0  0  0  0  0  0  0  0
  160.4120  210.4600  139.2030 C   0  0  1  0  0  3  0  0  0  0  0  0
  162.6360  210.4910  140.1060 C   0  0  2  0  0  3  0  0  0  0  0  0
  161.7350  209.6990  139.1450 C   0  0  1  0  0  0  0  0  0  0  0  0
  161.7000  211.0260  141.1870 C   0  0  0  0  0  2  0  0  0  0  0  0
  158.9560  209.5770  138.6540 Cl  0  0  0  0  0  0  0  0  0  0  0  0
  160.2900  211.0030  140.6150 C   0  0  0  0  0  2  0  0  0  0  0  0
  162.2490  209.6900  137.7060 C   0  0  0  0  0  1  0  0  0  0  0  0
  163.3400  211.6740  139.4510 C   0  0  0  0  0  2  0  0  0  0  0  0
  162.8710  212.9790  140.0730 C   0  0  0  0  0  2  0  0  0  0  0  0
  162.6870  213.9310  139.0710 O   0  0  0  0  0  1  0  0  0  0  0  0
  1 17  1  0  0  0  0
  1 16  1  0  0  0  0
  3  6  1  1  0  0  0
  3 11  1  0  0  0  0
  5  7  1  1  0  0  0
  5  8  1  0  0  0  0
  6  1  1  0  0  0  0
  7 12  1  0  0  0  0
  8  2  1  6  0  0  0
  8 11  1  0  0  0  0
  9 46  1  1  0  0  0
  9 13  1  0  0  0  0
  9 15  1  0  0  0  0
 10 16  1  0  0  0  0
 11 10  1  6  0  0  0
 12 35  1  6  0  0  0
 12  2  1  0  0  0  0
 13 15  1  0  0  0  0
 13 14  1  0  0  0  0
 14  5  1  0  0  0  0
 14  3  1  0  0  0  0
 15  4  1  0  0  0  0
 15 14  1  0  0  0  0
 17 18  1  0  0  0  0
 18 19  1  0  0  0  0
 19 20  1  0  0  0  0
 20 22  1  0  0  0  0
 22 21  2  0  0  0  0
 22 23  1  0  0  0  0
 24 20  1  0  0  0  0
 24 30  1  0  0  0  0
 25 29  1  0  0  0  0
 25 30  1  0  0  0  0
 27 26  2  0  0  0  0
 28 25  2  0  0  0  0
 29 31  1  0  0  0  0
 30 27  1  0  0  0  0
 31 34  1  0  0  0  0
 31 26  1  0  0  0  0
 32 34  1  0  0  0  0
 34 33  2  0  0  0  0
 35 36  1  0  0  0  0
 37 36  1  0  0  0  0
 38 39  2  0  0  0  0
 39 37  1  0  0  0  0
 40 39  1  0  0  0  0
 41 43  1  0  0  0  0
 42 43  1  0  0  0  0
 42 40  1  0  0  0  0
 43 40  1  0  0  0  0
 44 42  1  0  0  0  0
 45 44  1  0  0  0  0
 45 42  1  0  0  0  0
 47 46  1  0  0  0  0
 48 47  1  0  0  0  0
 49 48  1  0  0  0  0
 50 49  1  0  0  0  0
 51 50  1  0  0  0  0
 52 50  1  0  0  0  0
 53 54  2  0  0  0  0
 54 52  1  0  0  0  0
 55 60  1  0  0  0  0
 56 58  1  0  0  0  0
 57 55  1  0  0  0  0
 57 54  1  0  0  0  0
 57 56  1  0  0  0  0
 59 55  1  0  0  0  0
 60 58  1  0  0  0  0
 61 57  1  0  0  0  0
 62 63  1  0  0  0  0
 62 56  1  0  0  0  0
 64 63  1  0  0  0  0
M  END
>  <MODEL>
3

>  <REMARK>
 VINA RESULT:      -3.1      3.600     10.435
  Name = 
  21 active torsions:
  status: ('A' for Active; 'I' for Inactive)
    1  A    between atoms: C_1  and  N_27
    2  A    between atoms: C_1  and  C_59
    3  A    between atoms: C_2  and  C_12
    4  A    between atoms: C_2  and  C_22
    5  A    between atoms: C_3  and  N_23
    6  A    between atoms: C_3  and  C_49
    7  A    between atoms: N_4  and  C_49
    8  A    between atoms: C_8  and  C_44
    9  A    between atoms: C_9  and  C_35
   10  A    between atoms: C_9  and  C_54
   11  A    between atoms: N_11  and  C_20
   12  A    between atoms: C_17  and  C_43
   13  A    between atoms: CA_18  and  N_23
   14  A    between atoms: CA_18  and  C_42
   15  A    between atoms: CA_18  and  C_47
   16  A    between atoms: C_20  and  C_21
   17  A    between atoms: C_21  and  C_45
   18  A    between atoms: C_42  and  C_61
   19  A    between atoms: C_51  and  C_54
   20  A    between atoms: C_51  and  C_59
   21  A    between atoms: C_62  and  C_63
                            x       y       z     vdW  Elec       q    Type
                         _______ _______ _______ _____ _____    ______ ____

>  <TORSDO>
F 21

$$$$
=
 OpenBabel11042420553D

 64 72  0  0  1  0  0  0  0  0999 V2000
  162.2000  208.1460  151.1800 N   0  0  0  0  0  0  0  0  0  0  0  0
  160.4670  203.2440  150.8730 C   0  0  0  0  0  2  0  0  0  0  0  0
  160.6750  206.5060  150.1330 C   0  0  2  0  0  3  0  0  0  0  0  0
  162.4070  208.0930  148.0160 C   0  0  0  0  0  1  0  0  0  0  0  0
  161.5740  204.4340  149.1890 C   0  0  2  0  0  3  0  0  0  0  0  0
  160.9310  207.9820  150.4820 C   0  0  0  0  0  2  0  0  0  0  0  0
  160.5530  203.6160  148.5290 N   0  0  0  0  0  2  0  0  0  0  0  0
  161.4830  204.2520  150.6430 N   0  0  1  0  0  0  0  0  0  0  0  0
  161.7960  206.2750  146.4690 C   0  0  1  0  0  3  0  0  0  0  0  0
  162.1040  205.9800  152.2350 C   0  0  0  0  0  2  0  0  0  0  0  0
  161.0200  205.5070  151.2550 C   0  0  1  0  0  3  0  0  0  0  0  0
  159.7230  203.0640  149.5800 C   0  0  1  0  0  3  0  0  0  0  0  0
  160.7700  206.3020  147.5850 C   0  0  1  0  0  3  0  0  0  0  0  0
  161.3580  205.9090  148.9250 C   0  0  1  0  0  0  0  0  0  0  0  0
  162.2410  206.5930  147.8800 C   0  0  2  0  0  0  0  0  0  0  0  0
  162.0460  207.4810  152.4660 C   0  0  0  0  0  2  0  0  0  0  0  0
  162.3580  209.5720  151.4230 C   0  0  0  0  0  2  0  0  0  0  0  0
  161.1510  210.1050  152.1760 C   0  0  0  0  0  2  0  0  0  0  0  0
  161.5660  210.5720  153.4840 N   0  0  0  0  0  2  0  0  0  0  0  0
  160.4500  211.3230  154.0460 C   0  0  2  0  0  3  0  0  0  0  0  0
  160.2830  212.8470  156.0090 O   0  0  0  0  0  0  0  0  0  0  0  0
  160.7050  211.6370  155.4850 C   0  0  0  0  0  0  0  0  0  0  0  0
  161.2710  210.7940  156.2310 O   0  0  0  0  0  1  0  0  0  0  0  0
  159.1180  210.5920  153.8550 C   0  0  0  0  0  2  0  0  0  0  0  0
  157.1880  211.9260  154.6800 C   0  0  0  0  0  0  0  0  0  0  0  0
  158.1490  213.9690  152.9170 C   0  0  0  0  0  3  0  0  0  0  0  0
  158.5420  212.7060  152.7020 C   0  0  0  0  0  3  0  0  0  0  0  0
  156.5860  211.0740  155.3140 O   0  0  0  0  0  0  0  0  0  0  0  0
  157.1320  213.3560  155.1310 C   0  0  0  0  0  2  0  0  0  0  0  0
  157.9770  211.5250  153.4570 C   0  0  1  0  0  3  0  0  0  0  0  0
  157.0970  214.3160  153.9360 C   0  0  2  0  0  3  0  0  0  0  0  0
  155.5440  214.3220  151.9170 N   0  0  0  0  0  1  0  0  0  0  0  0
  154.7200  214.4500  154.0850 O   0  0  0  0  0  0  0  0  0  0  0  0
  155.7250  214.3880  153.3300 C   0  0  0  0  0  0  0  0  0  0  0  0
  159.4680  201.5890  149.3340 C   0  0  0  0  0  2  0  0  0  0  0  0
  160.3180  200.7650  150.2840 C   0  0  0  0  0  2  0  0  0  0  0  0
  161.6210  200.4600  149.7050 N   0  0  0  0  0  2  0  0  0  0  0  0
  162.9860  201.0620  147.9280 O   0  0  0  0  0  0  0  0  0  0  0  0
  161.9050  200.5290  148.3020 C   0  0  0  0  0  0  0  0  0  0  0  0
  160.8790  200.1630  147.2680 C   0  0  1  0  0  3  0  0  0  0  0  0
  160.6100  198.5650  145.5050 C   0  0  0  0  0  1  0  0  0  0  0  0
  160.9320  201.1300  146.0700 C   0  0  0  0  0  0  0  0  0  0  0  0
  161.5140  199.6830  146.0220 C   0  0  1  0  0  3  0  0  0  0  0  0
  159.4190  201.4080  146.0230 C   0  0  0  0  0  2  0  0  0  0  0  0
  160.1330  201.1820  144.7530 C   0  0  0  0  0  2  0  0  0  0  0  0
  162.1370  204.8450  146.0890 C   0  0  0  0  0  2  0  0  0  0  0  0
  162.2380  204.7470  144.5810 C   0  0  0  0  0  2  0  0  0  0  0  0
  161.6390  205.9850  143.9350 C   0  0  0  0  0  2  0  0  0  0  0  0
  161.3340  205.7420  142.4610 C   0  0  0  0  0  2  0  0  0  0  0  0
  162.1660  206.6160  141.5250 C   0  0  1  0  0  3  0  0  0  0  0  0
  162.6270  205.8670  140.4410 O   0  0  0  0  0  1  0  0  0  0  0  0
  161.3620  207.7360  141.0360 N   0  0  0  0  0  2  0  0  0  0  0  0
  162.8620  208.3800  139.3690 O   0  0  0  0  0  0  0  0  0  0  0  0
  161.7670  208.5940  139.9590 C   0  0  0  0  0  0  0  0  0  0  0  0
  161.6540  210.7810  138.6230 C   0  0  1  0  0  3  0  0  0  0  0  0
  159.7250  209.3650  138.8220 C   0  0  2  0  0  3  0  0  0  0  0  0
  160.9650  209.8320  139.6020 C   0  0  1  0  0  0  0  0  0  0  0  0
  160.1560  209.3410  137.3580 C   0  0  0  0  0  2  0  0  0  0  0  0
  163.3840  211.1220  138.9240 Cl  0  0  0  0  0  0  0  0  0  0  0  0
  161.3800  210.2370  137.2330 C   0  0  0  0  0  2  0  0  0  0  0  0
  160.6210  210.5910  140.8830 C   0  0  0  0  0  1  0  0  0  0  0  0
  158.5280  210.3000  138.9570 C   0  0  0  0  0  2  0  0  0  0  0  0
  157.7070  210.2940  137.6780 C   0  0  0  0  0  2  0  0  0  0  0  0
  156.5430  209.5530  137.8780 O   0  0  0  0  0  1  0  0  0  0  0  0
  1 17  1  0  0  0  0
  1 16  1  0  0  0  0
  3  6  1  1  0  0  0
  3 11  1  0  0  0  0
  5  7  1  6  0  0  0
  5  8  1  0  0  0  0
  6  1  1  0  0  0  0
  7 12  1  0  0  0  0
  8  2  1  6  0  0  0
  8 11  1  0  0  0  0
  9 46  1  1  0  0  0
  9 13  1  0  0  0  0
  9 15  1  0  0  0  0
 10 16  1  0  0  0  0
 11 10  1  1  0  0  0
 12 35  1  6  0  0  0
 12  2  1  0  0  0  0
 13 15  1  0  0  0  0
 13 14  1  0  0  0  0
 14  5  1  0  0  0  0
 14  3  1  0  0  0  0
 15  4  1  0  0  0  0
 15 14  1  0  0  0  0
 17 18  1  0  0  0  0
 18 19  1  0  0  0  0
 19 20  1  0  0  0  0
 20 22  1  0  0  0  0
 22 21  2  0  0  0  0
 22 23  1  0  0  0  0
 24 20  1  0  0  0  0
 25 29  1  0  0  0  0
 25 28  2  0  0  0  0
 26 31  1  0  0  0  0
 27 26  2  0  0  0  0
 27 30  1  0  0  0  0
 30 24  1  0  0  0  0
 30 25  1  0  0  0  0
 31 29  1  0  0  0  0
 32 34  1  0  0  0  0
 34 31  1  0  0  0  0
 34 33  2  0  0  0  0
 35 36  1  0  0  0  0
 37 36  1  0  0  0  0
 38 39  2  0  0  0  0
 39 37  1  0  0  0  0
 40 39  1  0  0  0  0
 41 43  1  0  0  0  0
 42 40  1  0  0  0  0
 43 42  1  0  0  0  0
 43 40  1  0  0  0  0
 44 42  1  0  0  0  0
 45 44  1  0  0  0  0
 45 42  1  0  0  0  0
 47 46  1  0  0  0  0
 48 47  1  0  0  0  0
 49 48  1  0  0  0  0
 50 49  1  0  0  0  0
 51 50  1  0  0  0  0
 52 50  1  0  0  0  0
 53 54  2  0  0  0  0
 54 52  1  0  0  0  0
 55 59  1  0  0  0  0
 55 57  1  0  0  0  0
 56 62  1  0  0  0  0
 56 57  1  0  0  0  0
 57 54  1  0  0  0  0
 57 61  1  0  0  0  0
 58 56  1  0  0  0  0
 60 58  1  0  0  0  0
 60 55  1  0  0  0  0
 63 64  1  0  0  0  0
 63 62  1  0  0  0  0
M  END
>  <MODEL>
4

>  <REMARK>
 VINA RESULT:      -3.1      4.002     10.370
  Name = 
  21 active torsions:
  status: ('A' for Active; 'I' for Inactive)
    1  A    between atoms: C_1  and  N_27
    2  A    between atoms: C_1  and  C_59
    3  A    between atoms: C_2  and  C_12
    4  A    between atoms: C_2  and  C_22
    5  A    between atoms: C_3  and  N_23
    6  A    between atoms: C_3  and  C_49
    7  A    between atoms: N_4  and  C_49
    8  A    between atoms: C_8  and  C_44
    9  A    between atoms: C_9  and  C_35
   10  A    between atoms: C_9  and  C_54
   11  A    between atoms: N_11  and  C_20
   12  A    between atoms: C_17  and  C_43
   13  A    between atoms: CA_18  and  N_23
   14  A    between atoms: CA_18  and  C_42
   15  A    between atoms: CA_18  and  C_47
   16  A    between atoms: C_20  and  C_21
   17  A    between atoms: C_21  and  C_45
   18  A    between atoms: C_42  and  C_61
   19  A    between atoms: C_51  and  C_54
   20  A    between atoms: C_51  and  C_59
   21  A    between atoms: C_62  and  C_63
                            x       y       z     vdW  Elec       q    Type
                         _______ _______ _______ _____ _____    ______ ____

>  <TORSDO>
F 21

$$$$
