=
 OpenBabel11052410083D

 54 61  0  0  1  0  0  0  0  0999 V2000
  160.6180  207.5860  147.8620 C   0  0  0  0  0  2  0  0  0  0  0  0
  156.2350  213.8180  150.9640 C   0  0  0  0  0  0  0  0  0  0  0  0
  162.6740  210.5330  147.6150 C   0  0  1  0  0  3  0  0  0  0  0  0
  161.8160  207.1860  148.6990 C   0  0  1  0  0  3  0  0  0  0  0  0
  160.6560  212.6420  145.7880 C   0  0  0  0  0  2  0  0  0  0  0  0
  159.9190  212.8620  148.0330 O   0  0  0  0  0  0  0  0  0  0  0  0
  162.5250  213.9880  144.6480 N   0  0  0  0  0  2  0  0  0  0  0  0
  158.5580  213.0470  152.5530 C   0  0  1  0  0  3  0  0  0  0  0  0
  157.5290  212.9430  148.2050 C   0  0  0  0  0  2  0  0  0  0  0  0
  162.5820  208.4770  148.9300 C   0  0  1  0  0  3  0  0  0  0  0  0
  158.8660  214.4520  151.4330 S   0  0  0  0  0  0  0  0  0  0  0  0
  157.1820  213.1800  153.1450 C   0  0  0  0  0  3  0  0  0  0  0  0
  156.1200  213.5210  152.4120 C   0  0  0  0  0  0  0  0  0  0  0  0
  162.8020  212.7930  146.6750 N   0  0  0  0  0  0  0  0  0  0  0  0
  155.0980  213.7250  150.1670 O   0  0  0  0  0  1  0  0  0  0  0  0
  161.8110  209.5970  148.3640 N   0  0  2  0  0  0  0  0  0  0  0  0
  160.5800  208.4510  150.5660 C   0  0  0  0  0  2  0  0  0  0  0  0
  161.8800  207.7920  150.1070 C   0  0  1  0  0  3  0  0  0  0  0  0
  162.0850  211.9580  147.6230 C   0  0  1  0  0  3  0  0  0  0  0  0
  160.9160  208.9850  147.3900 C   0  0  0  0  0  2  0  0  0  0  0  0
  160.6890  208.8240  153.0910 C   0  0  1  0  0  3  0  0  0  0  0  0
  158.7990  212.1350  148.4480 C   0  0  0  0  0  2  0  0  0  0  0  0
  157.4180  214.1320  150.4080 C   0  0  0  0  0  0  0  0  0  0  0  0
  160.4300  210.3110  152.8550 C   0  0  0  0  0  2  0  0  0  0  0  0
  158.9400  210.5790  152.7570 C   0  0  0  0  0  2  0  0  0  0  0  0
  160.6190  212.0110  147.1740 C   0  0  2  0  0  3  0  0  0  0  0  0
  162.0440  213.1500  145.7010 C   0  0  0  0  0  0  0  0  0  0  0  0
  158.7010  211.7300  151.8010 C   0  0  0  0  0  2  0  0  0  0  0  0
  160.1740  207.9360  151.9450 C   0  0  0  0  0  2  0  0  0  0  0  0
  157.5680  214.2890  148.9260 C   0  0  0  0  0  2  0  0  0  0  0  0
  154.7850  213.5650  153.0730 C   0  0  0  0  0  1  0  0  0  0  0  0
  164.0140  210.5850  148.1650 N   0  0  0  0  0  0  0  0  0  0  0  0
  164.9270  211.2790  147.5930 C   0  0  0  0  0  2  0  0  0  0  0  0
  162.1680  208.5820  153.3600 C   0  0  0  0  0  2  0  0  0  0  0  0
  162.3530  207.9990  154.7540 C   0  0  2  0  0  3  0  0  0  0  0  0
  161.9360  206.6660  154.7640 O   0  0  0  0  0  0  0  0  0  0  0  0
  160.7760  206.6860  155.3870 O   0  0  0  0  0  1  0  0  0  0  0  0
  161.5310  208.7850  155.7610 C   0  0  0  0  0  2  0  0  0  0  0  0
  162.4000  210.2510  156.2850 S   0  0  0  0  0  0  0  0  0  0  0  0
  163.4750  209.8580  157.2590 O   0  0  0  0  0  0  0  0  0  0  0  0
  163.0320  210.9160  155.0930 O   0  0  0  0  0  0  0  0  0  0  0  0
  161.2650  211.3700  157.0840 C   0  0  0  0  0  2  0  0  0  0  0  0
  159.9250  211.3810  156.3710 C   0  0  0  0  0  3  0  0  0  0  0  0
  159.0830  212.3040  156.9900 O   0  0  0  0  0  1  0  0  0  0  0  0
  159.3430  210.1160  156.4300 O   0  0  0  0  0  1  0  0  0  0  0  0
  161.6760  214.4490  143.5600 C   0  0  0  0  0  2  0  0  0  0  0  0
  161.4640  214.3990  141.0850 N   0  0  1  0  0  0  0  0  0  0  0  0
  161.5720  212.2970  142.2840 C   0  0  1  0  0  3  0  0  0  0  0  0
  160.6500  213.3730  140.3990 C   0  0  1  0  0  3  0  0  0  0  0  0
  161.5920  211.2220  140.5490 C   0  0  0  0  0  2  0  0  0  0  0  0
  160.6380  212.1300  141.1770 N   0  0  1  0  0  0  0  0  0  0  0  0
  159.9860  214.4320  141.1530 C   0  0  0  0  0  2  0  0  0  0  0  0
  162.6040  211.3810  141.6620 C   0  0  0  0  0  2  0  0  0  0  0  0
  162.0370  213.7360  142.2580 C   0  0  2  0  0  3  0  0  0  0  0  0
  2 13  1  0  0  0  0
  3 19  1  0  0  0  0
  3 32  1  1  0  0  0
  3 16  1  0  0  0  0
  4  1  1  6  0  0  0
  4 10  1  0  0  0  0
  4 18  1  0  0  0  0
  5 26  1  0  0  0  0
  6 22  1  0  0  0  0
  7 27  1  0  0  0  0
  8 28  1  6  0  0  0
  8 12  1  0  0  0  0
  9 22  1  0  0  0  0
  9 30  1  0  0  0  0
 10 18  1  0  0  0  0
 11  8  1  0  0  0  0
 13 31  1  0  0  0  0
 13 12  2  0  0  0  0
 14 19  1  0  0  0  0
 15  2  1  0  0  0  0
 16 10  1  0  0  0  0
 17 29  1  0  0  0  0
 18 17  1  0  0  0  0
 20  1  1  0  0  0  0
 20 16  1  0  0  0  0
 21 34  1  0  0  0  0
 23  2  2  0  0  0  0
 23 11  1  0  0  0  0
 24 21  1  0  0  0  0
 25 24  1  0  0  0  0
 26 19  1  0  0  0  0
 26  6  1  0  0  0  0
 27  5  1  0  0  0  0
 27 14  2  0  0  0  0
 28 25  1  0  0  0  0
 29 21  1  0  0  0  0
 30 23  1  0  0  0  0
 33 32  2  0  0  0  0
 34 35  1  0  0  0  0
 35 36  1  0  0  0  0
 35 38  1  0  0  0  0
 36 37  1  0  0  0  0
 38 39  1  0  0  0  0
 39 42  1  0  0  0  0
 39 40  2  0  0  0  0
 41 39  2  0  0  0  0
 43 45  1  0  0  0  0
 43 44  1  0  0  0  0
 43 42  1  0  0  0  0
 46  7  1  0  0  0  0
 47 52  1  0  0  0  0
 47 54  1  0  0  0  0
 49 47  1  0  0  0  0
 49 52  1  0  0  0  0
 49 51  1  0  0  0  0
 50 51  1  0  0  0  0
 50 53  1  0  0  0  0
 51 48  1  0  0  0  0
 53 48  1  0  0  0  0
 54 48  1  0  0  0  0
 54 46  1  0  0  0  0
M  END
>  <MODEL>
1

>  <REMARK>
 VINA RESULT:       6.0      0.000      0.000
  Name = 
  10 active torsions:
  status: ('A' for Active; 'I' for Inactive)
    1  A    between atoms: C_1  and  C_46
    2  A    between atoms: N_2  and  C_5
    3  A    between atoms: C_9  and  C_34
    4  A    between atoms: C_9  and  C_40
    5  A    between atoms: S_10  and  C_13
    6  A    between atoms: S_10  and  C_46
    7  A    between atoms: C_13  and  C_34
    8  A    between atoms: C_14  and  N_19
    9  A    between atoms: C_14  and  C_53
   10  A    between atoms: C_34  and  O_37
                            x       y       z     vdW  Elec       q    Type
                         _______ _______ _______ _____ _____    ______ ____

>  <TORSDO>
F 10

$$$$
=
 OpenBabel11052410083D

 54 61  0  0  1  0  0  0  0  0999 V2000
  159.3940  206.8440  147.8970 C   0  0  0  0  0  2  0  0  0  0  0  0
  159.4590  210.8240  155.0970 C   0  0  0  0  0  0  0  0  0  0  0  0
  162.5410  208.5870  148.0990 C   0  0  1  0  0  3  0  0  0  0  0  0
  160.3790  205.6960  147.8080 C   0  0  1  0  0  3  0  0  0  0  0  0
  161.5100  211.8360  148.5790 C   0  0  0  0  0  2  0  0  0  0  0  0
  161.4700  210.8440  150.7340 O   0  0  0  0  0  0  0  0  0  0  0  0
  163.5150  212.9900  147.4590 N   0  0  0  0  0  2  0  0  0  0  0  0
  161.3620  208.6200  154.9010 C   0  0  1  0  0  3  0  0  0  0  0  0
  159.5340  211.4840  151.9970 C   0  0  0  0  0  2  0  0  0  0  0  0
  161.7140  206.2910  148.2190 C   0  0  1  0  0  3  0  0  0  0  0  0
  162.0870  210.2530  154.5380 S   0  0  0  0  0  0  0  0  0  0  0  0
  160.3950  208.7530  156.0440 C   0  0  0  0  0  3  0  0  0  0  0  0
  159.5170  209.7550  156.1240 C   0  0  0  0  0  0  0  0  0  0  0  0
  163.5770  210.7940  148.3440 N   0  0  0  0  0  0  0  0  0  0  0  0
  158.2890  211.5650  154.9650 O   0  0  0  0  0  1  0  0  0  0  0  0
  161.5050  207.6850  148.6450 N   0  0  2  0  0  0  0  0  0  0  0  0
  160.3590  205.8490  150.3760 C   0  0  0  0  0  2  0  0  0  0  0  0
  161.0290  205.2680  149.1310 C   0  0  1  0  0  3  0  0  0  0  0  0
  162.7560  209.8050  149.0200 C   0  0  1  0  0  3  0  0  0  0  0  0
  160.2430  208.0820  148.0320 C   0  0  0  0  0  2  0  0  0  0  0  0
  161.1660  204.5570  152.4270 C   0  0  1  0  0  3  0  0  0  0  0  0
  160.2520  210.3750  151.2360 C   0  0  0  0  0  2  0  0  0  0  0  0
  160.4950  211.0550  154.2720 C   0  0  0  0  0  0  0  0  0  0  0  0
  161.6390  205.8750  153.0380 C   0  0  0  0  0  2  0  0  0  0  0  0
  160.4980  206.5600  153.7660 C   0  0  0  0  0  2  0  0  0  0  0  0
  161.4560  210.5370  149.3720 C   0  0  2  0  0  3  0  0  0  0  0  0
  162.9130  211.8680  148.1060 C   0  0  0  0  0  0  0  0  0  0  0  0
  160.6690  208.0620  153.6650 C   0  0  0  0  0  2  0  0  0  0  0  0
  160.0500  204.7450  151.3840 C   0  0  0  0  0  2  0  0  0  0  0  0
  160.3890  212.0300  153.1390 C   0  0  0  0  0  2  0  0  0  0  0  0
  158.5540  209.7680  157.2610 C   0  0  0  0  0  1  0  0  0  0  0  0
  163.8090  207.9060  147.9300 N   0  0  0  0  0  0  0  0  0  0  0  0
  164.1510  206.9580  148.7220 C   0  0  0  0  0  2  0  0  0  0  0  0
  162.3450  203.7910  151.8460 C   0  0  0  0  0  2  0  0  0  0  0  0
  161.8830  202.4310  151.3420 C   0  0  2  0  0  3  0  0  0  0  0  0
  162.4880  201.4210  152.0950 O   0  0  0  0  0  0  0  0  0  0  0  0
  163.7730  201.7060  152.0610 O   0  0  0  0  0  1  0  0  0  0  0  0
  162.2660  202.2580  149.8820 C   0  0  0  0  0  2  0  0  0  0  0  0
  160.9240  201.5390  148.9540 S   0  0  0  0  0  0  0  0  0  0  0  0
  161.3410  200.1790  148.4690 O   0  0  0  0  0  0  0  0  0  0  0  0
  159.7160  201.4010  149.8390 O   0  0  0  0  0  0  0  0  0  0  0  0
  160.5440  202.5710  147.5500 C   0  0  0  0  0  2  0  0  0  0  0  0
  160.9730  201.9020  146.2570 C   0  0  0  0  0  3  0  0  0  0  0  0
  161.2820  202.8820  145.3130 O   0  0  0  0  0  1  0  0  0  0  0  0
  159.9410  201.1030  145.7670 O   0  0  0  0  0  1  0  0  0  0  0  0
  162.8030  214.2370  147.2230 C   0  0  0  0  0  2  0  0  0  0  0  0
  161.0180  214.4460  145.5080 N   0  0  1  0  0  0  0  0  0  0  0  0
  163.0450  213.2520  144.9340 C   0  0  1  0  0  3  0  0  0  0  0  0
  160.7180  213.3480  144.5650 C   0  0  1  0  0  3  0  0  0  0  0  0
  162.4410  213.0040  143.0000 C   0  0  0  0  0  2  0  0  0  0  0  0
  161.9280  212.5660  144.2950 N   0  0  1  0  0  0  0  0  0  0  0  0
  160.3470  213.2110  145.9700 C   0  0  0  0  0  2  0  0  0  0  0  0
  163.6020  213.7510  143.6180 C   0  0  0  0  0  2  0  0  0  0  0  0
  162.4610  214.3900  145.7430 C   0  0  2  0  0  3  0  0  0  0  0  0
  1 20  1  0  0  0  0
  2 13  1  0  0  0  0
  3 32  1  1  0  0  0
  3 16  1  0  0  0  0
  3 19  1  0  0  0  0
  4  1  1  1  0  0  0
  4 10  1  0  0  0  0
  4 18  1  0  0  0  0
  5 26  1  0  0  0  0
  6 22  1  0  0  0  0
  7 27  1  0  0  0  0
  8 28  1  6  0  0  0
  8 12  1  0  0  0  0
  9 30  1  0  0  0  0
 10 16  1  0  0  0  0
 10 18  1  0  0  0  0
 11  8  1  0  0  0  0
 12 13  2  0  0  0  0
 13 31  1  0  0  0  0
 14 19  1  0  0  0  0
 15  2  1  0  0  0  0
 17 29  1  0  0  0  0
 18 17  1  0  0  0  0
 19 26  1  0  0  0  0
 20 16  1  0  0  0  0
 21 24  1  0  0  0  0
 22  9  1  0  0  0  0
 23 11  1  0  0  0  0
 23  2  2  0  0  0  0
 24 25  1  0  0  0  0
 26  6  1  0  0  0  0
 27 14  2  0  0  0  0
 27  5  1  0  0  0  0
 28 25  1  0  0  0  0
 29 21  1  0  0  0  0
 30 23  1  0  0  0  0
 32 33  2  0  0  0  0
 34 21  1  0  0  0  0
 35 34  1  0  0  0  0
 35 36  1  0  0  0  0
 37 36  1  0  0  0  0
 38 35  1  0  0  0  0
 39 41  2  0  0  0  0
 39 38  1  0  0  0  0
 40 39  2  0  0  0  0
 42 39  1  0  0  0  0
 43 42  1  0  0  0  0
 44 43  1  0  0  0  0
 45 43  1  0  0  0  0
 46  7  1  0  0  0  0
 47 54  1  0  0  0  0
 47 52  1  0  0  0  0
 48 54  1  0  0  0  0
 49 47  1  0  0  0  0
 49 52  1  0  0  0  0
 50 53  1  0  0  0  0
 50 51  1  0  0  0  0
 51 49  1  0  0  0  0
 51 48  1  0  0  0  0
 53 48  1  0  0  0  0
 54 46  1  0  0  0  0
M  END
>  <MODEL>
2

>  <REMARK>
 VINA RESULT:       7.4      3.945      6.335
  Name = 
  10 active torsions:
  status: ('A' for Active; 'I' for Inactive)
    1  A    between atoms: C_1  and  C_46
    2  A    between atoms: N_2  and  C_5
    3  A    between atoms: C_9  and  C_34
    4  A    between atoms: C_9  and  C_40
    5  A    between atoms: S_10  and  C_13
    6  A    between atoms: S_10  and  C_46
    7  A    between atoms: C_13  and  C_34
    8  A    between atoms: C_14  and  N_19
    9  A    between atoms: C_14  and  C_53
   10  A    between atoms: C_34  and  O_37
                            x       y       z     vdW  Elec       q    Type
                         _______ _______ _______ _____ _____    ______ ____

>  <TORSDO>
F 10

$$$$
=
 OpenBabel11052410083D

 54 61  0  0  1  0  0  0  0  0999 V2000
  160.6860  207.6520  149.1610 C   0  0  0  0  0  2  0  0  0  0  0  0
  155.9160  213.5960  152.2590 C   0  0  0  0  0  0  0  0  0  0  0  0
  162.4840  210.7480  148.7630 C   0  0  1  0  0  3  0  0  0  0  0  0
  161.9410  207.3740  149.9640 C   0  0  1  0  0  3  0  0  0  0  0  0
  160.2380  212.6330  146.9580 C   0  0  0  0  0  2  0  0  0  0  0  0
  159.5630  212.8570  149.2220 O   0  0  0  0  0  0  0  0  0  0  0  0
  161.9510  214.0920  145.7160 N   0  0  0  0  0  2  0  0  0  0  0  0
  158.3470  213.0610  153.7830 C   0  0  1  0  0  3  0  0  0  0  0  0
  157.1820  212.7490  149.4790 C   0  0  0  0  0  2  0  0  0  0  0  0
  162.6060  208.7290  150.1340 C   0  0  1  0  0  3  0  0  0  0  0  0
  158.5010  214.4530  152.6160 S   0  0  0  0  0  0  0  0  0  0  0  0
  156.9860  213.0990  154.4200 C   0  0  0  0  0  3  0  0  0  0  0  0
  155.8750  213.3320  153.7180 C   0  0  0  0  0  0  0  0  0  0  0  0
  162.3940  212.9830  147.7620 N   0  0  0  0  0  0  0  0  0  0  0  0
  154.7640  213.3870  151.5070 O   0  0  0  0  0  1  0  0  0  0  0  0
  161.7260  209.7670  149.5680 N   0  0  2  0  0  0  0  0  0  0  0  0
  160.6700  208.5880  151.8420 C   0  0  0  0  0  2  0  0  0  0  0  0
  162.0030  208.0240  151.3530 C   0  0  1  0  0  3  0  0  0  0  0  0
  161.7810  212.1200  148.7560 C   0  0  1  0  0  3  0  0  0  0  0  0
  160.8520  209.0570  148.6430 C   0  0  0  0  0  2  0  0  0  0  0  0
  160.8350  209.0410  154.3510 C   0  0  1  0  0  3  0  0  0  0  0  0
  158.5210  212.0540  149.6960 C   0  0  0  0  0  2  0  0  0  0  0  0
  157.0500  213.9880  151.6530 C   0  0  0  0  0  0  0  0  0  0  0  0
  160.4470  210.4950  154.0860 C   0  0  0  0  0  2  0  0  0  0  0  0
  158.9370  210.6390  154.0360 C   0  0  0  0  0  2  0  0  0  0  0  0
  160.3010  212.0410  148.3600 C   0  0  2  0  0  3  0  0  0  0  0  0
  161.5760  213.2480  146.8060 C   0  0  0  0  0  0  0  0  0  0  0  0
  158.5720  211.7390  153.0600 C   0  0  0  0  0  2  0  0  0  0  0  0
  160.3550  208.0820  153.2480 C   0  0  0  0  0  2  0  0  0  0  0  0
  157.1360  214.1130  150.1630 C   0  0  0  0  0  2  0  0  0  0  0  0
  154.5650  213.2870  154.4260 C   0  0  0  0  0  1  0  0  0  0  0  0
  163.8330  210.9240  149.2620 N   0  0  0  0  0  0  0  0  0  0  0  0
  164.8030  211.1510  148.4550 C   0  0  0  0  0  2  0  0  0  0  0  0
  162.3370  208.9280  154.5710 C   0  0  0  0  0  2  0  0  0  0  0  0
  162.6180  208.4310  155.9830 C   0  0  2  0  0  3  0  0  0  0  0  0
  161.6860  207.4490  156.3290 O   0  0  0  0  0  0  0  0  0  0  0  0
  160.7850  208.0840  157.0470 O   0  0  0  0  0  1  0  0  0  0  0  0
  162.5170  209.5810  156.9700 C   0  0  0  0  0  2  0  0  0  0  0  0
  163.3720  211.0210  156.3570 S   0  0  0  0  0  0  0  0  0  0  0  0
  163.6870  210.8160  154.9020 O   0  0  0  0  0  0  0  0  0  0  0  0
  162.4940  212.2320  156.5080 O   0  0  0  0  0  0  0  0  0  0  0  0
  164.8920  211.2460  157.2610 C   0  0  0  0  0  2  0  0  0  0  0  0
  165.8420  212.1540  156.5010 C   0  0  0  0  0  3  0  0  0  0  0  0
  165.7390  213.4510  157.0030 O   0  0  0  0  0  1  0  0  0  0  0  0
  165.5150  212.1600  155.1460 O   0  0  0  0  0  1  0  0  0  0  0  0
  161.0300  214.4520  144.6480 C   0  0  0  0  0  2  0  0  0  0  0  0
  162.0640  212.6540  143.2800 N   0  0  1  0  0  0  0  0  0  0  0  0
  160.0230  213.6880  142.4860 C   0  0  1  0  0  3  0  0  0  0  0  0
  162.0530  212.7030  141.8020 C   0  0  1  0  0  3  0  0  0  0  0  0
  159.8980  212.4050  140.9040 C   0  0  0  0  0  2  0  0  0  0  0  0
  160.8630  213.4150  141.3260 N   0  0  1  0  0  0  0  0  0  0  0  0
  162.9120  213.6190  142.5450 C   0  0  0  0  0  2  0  0  0  0  0  0
  159.0060  212.6350  142.1030 C   0  0  0  0  0  2  0  0  0  0  0  0
  160.8060  213.2670  143.7100 C   0  0  2  0  0  3  0  0  0  0  0  0
  2 13  1  0  0  0  0
  3 32  1  1  0  0  0
  3 16  1  0  0  0  0
  4  1  1  6  0  0  0
  4 10  1  0  0  0  0
  4 18  1  0  0  0  0
  5 26  1  0  0  0  0
  6 22  1  0  0  0  0
  7 27  1  0  0  0  0
  8 28  1  6  0  0  0
  8 12  1  0  0  0  0
  9 22  1  0  0  0  0
  9 30  1  0  0  0  0
 10 18  1  0  0  0  0
 11  8  1  0  0  0  0
 13 12  2  0  0  0  0
 13 31  1  0  0  0  0
 14 19  1  0  0  0  0
 15  2  1  0  0  0  0
 16 10  1  0  0  0  0
 17 29  1  0  0  0  0
 18 17  1  0  0  0  0
 19  3  1  0  0  0  0
 20  1  1  0  0  0  0
 20 16  1  0  0  0  0
 21 34  1  0  0  0  0
 23  2  2  0  0  0  0
 23 11  1  0  0  0  0
 24 21  1  0  0  0  0
 25 24  1  0  0  0  0
 26 19  1  0  0  0  0
 26  6  1  0  0  0  0
 27  5  1  0  0  0  0
 27 14  2  0  0  0  0
 28 25  1  0  0  0  0
 29 21  1  0  0  0  0
 30 23  1  0  0  0  0
 33 32  2  0  0  0  0
 34 35  1  0  0  0  0
 35 36  1  0  0  0  0
 35 38  1  0  0  0  0
 36 37  1  0  0  0  0
 39 41  2  0  0  0  0
 39 38  1  0  0  0  0
 39 42  1  0  0  0  0
 40 39  2  0  0  0  0
 43 44  1  0  0  0  0
 43 42  1  0  0  0  0
 45 43  1  0  0  0  0
 46  7  1  0  0  0  0
 47 54  1  0  0  0  0
 48 54  1  0  0  0  0
 49 52  1  0  0  0  0
 49 47  1  0  0  0  0
 50 51  1  0  0  0  0
 50 53  1  0  0  0  0
 51 49  1  0  0  0  0
 51 48  1  0  0  0  0
 52 47  1  0  0  0  0
 53 48  1  0  0  0  0
 54 46  1  0  0  0  0
M  END
>  <MODEL>
3

>  <REMARK>
 VINA RESULT:       8.4      1.622      2.243
  Name = 
  10 active torsions:
  status: ('A' for Active; 'I' for Inactive)
    1  A    between atoms: C_1  and  C_46
    2  A    between atoms: N_2  and  C_5
    3  A    between atoms: C_9  and  C_34
    4  A    between atoms: C_9  and  C_40
    5  A    between atoms: S_10  and  C_13
    6  A    between atoms: S_10  and  C_46
    7  A    between atoms: C_13  and  C_34
    8  A    between atoms: C_14  and  N_19
    9  A    between atoms: C_14  and  C_53
   10  A    between atoms: C_34  and  O_37
                            x       y       z     vdW  Elec       q    Type
                         _______ _______ _______ _____ _____    ______ ____

>  <TORSDO>
F 10

$$$$
