=
 OpenBabel11042421523D

 47 54  0  0  1  0  0  0  0  0999 V2000
  159.9990  212.8250  149.5830 N   0  0  0  0  0  0  0  0  0  0  0  0
  157.0410  212.8250  149.0680 C   0  0  0  0  0  2  0  0  0  0  0  0
  161.1180  210.9700  150.4660 N   0  0  0  0  0  0  0  0  0  0  0  0
  161.1740  214.4530  148.2360 N   0  0  0  0  0  0  0  0  0  0  0  0
  164.2920  212.7680  147.8570 N   0  0  0  0  0  0  0  0  0  0  0  0
  157.1430  213.5260  145.3770 C   0  0  0  0  0  3  0  0  0  0  0  0
  163.4450  213.8850  147.6830 N   0  0  0  0  0  0  0  0  0  0  0  0
  156.7030  213.2100  146.6610 C   0  0  0  0  0  3  0  0  0  0  0  0
  157.5670  213.3100  147.7590 C   0  0  0  0  0  0  0  0  0  0  0  0
  161.0740  211.9150  149.4070 C   0  0  2  0  0  3  0  0  0  0  0  0
  159.5020  212.5340  150.9020 C   0  0  0  0  0  0  0  0  0  0  0  0
  160.1290  211.4470  151.3850 C   0  0  0  0  0  0  0  0  0  0  0  0
  158.8990  213.7730  147.5770 C   0  0  0  0  0  0  0  0  0  0  0  0
  163.4920  211.7460  148.5750 C   0  0  0  0  0  3  0  0  0  0  0  0
  162.1860  210.0270  150.7630 C   0  0  0  0  0  1  0  0  0  0  0  0
  158.4580  213.9490  145.1700 C   0  0  0  0  0  0  0  0  0  0  0  0
  159.8470  214.0330  148.7430 C   0  0  1  0  0  3  0  0  0  0  0  0
  158.4210  213.3170  151.6360 C   0  0  2  0  0  3  0  0  0  0  0  0
  162.0960  212.2660  148.6240 C   0  0  0  0  0  0  0  0  0  0  0  0
  159.3210  214.0820  146.2680 C   0  0  0  0  0  3  0  0  0  0  0  0
  156.6230  213.9640  149.9840 C   0  0  0  0  0  2  0  0  0  0  0  0
  162.1280  213.5800  148.0750 C   0  0  0  0  0  0  0  0  0  0  0  0
  157.8030  214.4530  150.8210 C   0  0  0  0  0  2  0  0  0  0  0  0
  160.2340  214.1850  143.4650 O   0  0  0  0  0  0  0  0  0  0  0  0
  159.1150  214.4370  141.6550 N   0  0  0  0  0  0  0  0  0  0  0  0
  158.2250  214.3320  142.6600 C   0  0  0  0  0  3  0  0  0  0  0  0
  160.3280  214.3430  142.1850 N   0  0  0  0  0  0  0  0  0  0  0  0
  158.9710  214.1690  143.8100 C   0  0  0  0  0  0  0  0  0  0  0  0
  158.0710  213.3070  154.0290 O   0  0  0  0  0  1  0  0  0  0  0  0
  158.8740  213.8210  153.0060 C   0  0  0  0  0  2  0  0  0  0  0  0
  159.9480  210.8770  152.7570 C   0  0  0  0  0  2  0  0  0  0  0  0
  161.2430  211.0430  153.5480 C   0  0  0  0  0  2  0  0  0  0  0  0
  161.2160  211.3750  156.0380 C   0  0  0  0  0  1  0  0  0  0  0  0
  161.1910  210.3540  154.9100 C   0  0  1  0  0  3  0  0  0  0  0  0
  160.0380  209.5510  155.0200 O   0  0  0  0  0  0  0  0  0  0  0  0
  160.7540  206.4530  154.5820 C   0  0  2  0  0  3  0  0  0  0  0  0
  159.7230  207.2860  155.0650 O   0  0  0  0  0  0  0  0  0  0  0  0
  161.8150  208.0950  155.8650 C   0  0  0  0  0  2  0  0  0  0  0  0
  162.0850  207.1290  154.7640 C   0  0  0  0  0  2  0  0  0  0  0  0
  160.3180  208.3680  155.7530 C   0  0  1  0  0  0  0  0  0  0  0  0
  159.7040  208.4280  157.1490 C   0  0  0  0  0  1  0  0  0  0  0  0
  160.5260  206.0790  153.1180 C   0  0  0  0  0  3  0  0  0  0  0  0
  160.8260  204.3550  151.3050 C   0  0  0  0  0  2  0  0  0  0  0  0
  160.9530  207.2350  152.2010 C   0  0  0  0  0  2  0  0  0  0  0  0
  160.7550  205.5460  150.3310 C   0  0  0  0  0  2  0  0  0  0  0  0
  161.2030  204.7580  152.7310 C   0  0  0  0  0  2  0  0  0  0  0  0
  161.5170  206.7630  150.8560 C   0  0  0  0  0  2  0  0  0  0  0  0
  1 11  1  0  0  0  0
  2 21  1  0  0  0  0
  3 15  1  0  0  0  0
  3 12  1  0  0  0  0
  4 17  1  0  0  0  0
  5 14  1  0  0  0  0
  6  8  1  0  0  0  0
  7  5  2  0  0  0  0
  7 22  1  0  0  0  0
  8  9  2  0  0  0  0
  9  2  1  0  0  0  0
 10 19  1  1  0  0  0
 10  1  1  0  0  0  0
 10  3  1  0  0  0  0
 11 12  2  0  0  0  0
 11 18  1  0  0  0  0
 12 31  1  0  0  0  0
 13  9  1  0  0  0  0
 14 19  2  0  0  0  0
 16  6  2  0  0  0  0
 16 20  1  0  0  0  0
 17 13  1  6  0  0  0
 17  1  1  0  0  0  0
 18 30  1  1  0  0  0
 20 13  2  0  0  0  0
 21 23  1  0  0  0  0
 22  4  2  0  0  0  0
 22 19  1  0  0  0  0
 23 18  1  0  0  0  0
 24 28  1  0  0  0  0
 25 27  2  0  0  0  0
 25 26  1  0  0  0  0
 26 28  2  0  0  0  0
 27 24  1  0  0  0  0
 28 16  1  0  0  0  0
 30 29  1  0  0  0  0
 31 32  1  0  0  0  0
 32 34  1  0  0  0  0
 34 35  1  0  0  0  0
 34 33  1  1  0  0  0
 35 40  1  0  0  0  0
 36 42  1  6  0  0  0
 36 39  1  0  0  0  0
 36 37  1  0  0  0  0
 37 40  1  0  0  0  0
 39 38  1  0  0  0  0
 40 38  1  0  0  0  0
 40 41  1  1  0  0  0
 43 46  1  0  0  0  0
 44 42  1  0  0  0  0
 45 47  1  0  0  0  0
 45 43  1  0  0  0  0
 46 42  1  0  0  0  0
 47 44  1  0  0  0  0
M  END
>  <MODEL>
1

>  <REMARK>
 VINA RESULT:      -3.9      0.000      0.000
  Name = 
  8 active torsions:
  status: ('A' for Active; 'I' for Inactive)
    1  A    between atoms: C_4  and  C_6
    2  A    between atoms: C_15  and  O_36
    3  A    between atoms: C_15  and  C_40
    4  A    between atoms: C_22  and  C_24
    5  A    between atoms: C_24  and  C_40
    6  A    between atoms: C_30  and  O_36
    7  A    between atoms: C_31  and  C_35
    8  A    between atoms: C_33  and  C_37
                            x       y       z     vdW  Elec       q    Type
                         _______ _______ _______ _____ _____    ______ ____

>  <TORSDO>
F 8

$$$$
