=
 OpenBabel11052409543D

 56 61  0  0  1  0  0  0  0  0999 V2000
  159.6450  211.4630  145.9710 O   0  0  0  0  0  1  0  0  0  0  0  0
  160.6910  205.9430  150.4070 C   0  0  0  0  0  3  0  0  0  0  0  0
  162.6290  209.3300  148.8890 O   0  0  0  0  0  0  0  0  0  0  0  0
  161.3010  212.9650  146.8600 C   0  0  1  0  0  3  0  0  0  0  0  0
  161.6900  213.6420  148.1720 C   0  0  0  0  0  2  0  0  0  0  0  0
  161.9950  211.6100  149.5980 C   0  0  1  0  0  3  0  0  0  0  0  0
  160.3750  211.7700  147.1190 C   0  0  2  0  0  3  0  0  0  0  0  0
  161.4580  208.2300  150.7660 C   0  0  0  0  0  0  0  0  0  0  0  0
  162.7490  211.1710  150.7580 N   0  0  0  0  0  2  0  0  0  0  0  0
  161.2600  205.9250  149.1300 C   0  0  0  0  0  0  0  0  0  0  0  0
  162.1200  210.5130  151.8540 C   0  0  0  0  0  0  0  0  0  0  0  0
  161.5750  209.2880  151.8030 C   0  0  0  0  0  3  0  0  0  0  0  0
  162.0100  208.2250  149.4570 C   0  0  0  0  0  0  0  0  0  0  0  0
  162.6870  212.8090  148.9700 C   0  0  0  0  0  2  0  0  0  0  0  0
  161.1700  210.5630  147.5130 C   0  0  0  0  0  3  0  0  0  0  0  0
  160.7980  207.0780  151.2110 C   0  0  0  0  0  3  0  0  0  0  0  0
  161.9070  210.4870  148.6250 C   0  0  0  0  0  0  0  0  0  0  0  0
  161.9190  207.0720  148.6690 C   0  0  0  0  0  3  0  0  0  0  0  0
  161.0800  200.0040  146.5680 C   0  0  0  0  0  3  0  0  0  0  0  0
  160.6600  203.6680  146.1560 C   0  0  0  0  0  3  0  0  0  0  0  0
  161.4550  199.9400  147.9150 C   0  0  0  0  0  3  0  0  0  0  0  0
  160.4590  201.2800  144.6240 O   0  0  0  0  0  1  0  0  0  0  0  0
  161.1500  204.7180  148.2830 C   0  0  0  0  0  0  0  0  0  0  0  0
  160.7710  204.8200  146.9360 C   0  0  0  0  0  3  0  0  0  0  0  0
  161.4040  203.4890  148.8140 N   0  0  0  0  0  0  0  0  0  0  0  0
  160.9290  202.4170  146.7190 C   0  0  0  0  0  0  0  0  0  0  0  0
  161.5690  201.1110  148.6690 C   0  0  0  0  0  3  0  0  0  0  0  0
  161.3100  202.3490  148.0790 C   0  0  0  0  0  0  0  0  0  0  0  0
  160.8180  201.2370  145.9660 C   0  0  0  0  0  0  0  0  0  0  0  0
  160.6650  213.9070  146.0430 O   0  0  0  0  0  0  0  0  0  0  0  0
  162.9110  214.4530  144.5270 O   0  0  0  0  0  1  0  0  0  0  0  0
  161.5280  212.2530  144.2220 O   0  0  0  0  0  0  0  0  0  0  0  0
  161.3770  213.7310  144.5120 P   0  0  1  0  0  0  0  0  0  0  0  0
  160.3600  214.4530  143.3380 O   0  0  0  0  0  0  0  0  0  0  0  0
  159.0660  214.0380  141.4730 F   0  0  0  0  0  0  0  0  0  0  0  0
  161.0580  212.9700  141.7030 F   0  0  0  0  0  0  0  0  0  0  0  0
  159.9660  213.4950  142.3770 C   0  0  0  0  0  0  0  0  0  0  0  0
  159.3350  212.4570  143.0350 F   0  0  0  0  0  0  0  0  0  0  0  0
  162.1200  211.2060  153.1710 C   0  0  0  0  0  2  0  0  0  0  0  0
  162.3650  210.2050  154.2880 C   0  0  0  0  0  2  0  0  0  0  0  0
  163.5580  210.6360  155.1220 C   0  0  0  0  0  2  0  0  0  0  0  0
  163.1240  211.2960  156.2730 O   0  0  0  0  0  0  0  0  0  0  0  0
  161.7830  210.9380  156.3950 C   0  0  0  0  0  2  0  0  0  0  0  0
  160.9500  212.1710  156.7110 C   0  0  0  0  0  2  0  0  0  0  0  0
  157.3720  212.0580  154.1180 C   0  0  0  0  0  2  0  0  0  0  0  0
  158.8870  210.9080  155.7530 C   0  0  0  0  0  0  0  0  0  0  0  0
  157.8460  210.8700  154.9130 C   0  0  0  0  0  3  0  0  0  0  0  0
  158.0870  213.3280  154.4850 C   0  0  0  0  0  0  0  0  0  0  0  0
  159.2840  213.2950  155.3330 C   0  0  0  0  0  3  0  0  0  0  0  0
  157.6800  214.4250  154.0270 O   0  0  0  0  0  0  0  0  0  0  0  0
  159.6720  212.1640  155.9310 C   0  0  0  0  0  0  0  0  0  0  0  0
  159.2560  209.6920  156.4170 N   0  0  0  0  0  2  0  0  0  0  0  0
  159.9060  208.4850  154.5200 O   0  0  0  0  0  0  0  0  0  0  0  0
  159.6190  208.4760  155.7470 C   0  0  0  0  0  0  0  0  0  0  0  0
  160.9470  206.6320  156.6880 C   0  0  0  0  0  1  0  0  0  0  0  0
  159.7030  207.2780  156.4550 O   0  0  0  0  0  0  0  0  0  0  0  0
  2 16  1  0  0  0  0
  3 13  1  0  0  0  0
  4 30  1  6  0  0  0
  4  7  1  0  0  0  0
  4  5  1  0  0  0  0
  5 14  1  0  0  0  0
  6 14  1  6  0  0  0
  6  9  1  0  0  0  0
  7  1  1  6  0  0  0
  7 15  1  0  0  0  0
  8 16  2  0  0  0  0
  8 12  1  0  0  0  0
  9 11  1  0  0  0  0
 10  2  2  0  0  0  0
 11 39  1  0  0  0  0
 12 11  2  0  0  0  0
 13  8  1  0  0  0  0
 15 17  2  0  0  0  0
 17  3  1  0  0  0  0
 17  6  1  0  0  0  0
 18 10  1  0  0  0  0
 18 13  2  0  0  0  0
 19 21  1  0  0  0  0
 20 26  2  0  0  0  0
 20 24  1  0  0  0  0
 21 27  2  0  0  0  0
 22 29  1  0  0  0  0
 23 25  1  0  0  0  0
 23 10  1  0  0  0  0
 24 23  2  0  0  0  0
 26 28  1  0  0  0  0
 28 27  1  0  0  0  0
 28 25  2  0  0  0  0
 29 19  2  0  0  0  0
 29 26  1  0  0  0  0
 33 32  2  6  0  0  0
 33 31  1  0  0  0  0
 33 30  1  0  0  0  0
 34 33  1  0  0  0  0
 35 37  1  0  0  0  0
 36 37  1  0  0  0  0
 37 38  1  0  0  0  0
 37 34  1  0  0  0  0
 39 40  1  0  0  0  0
 40 41  1  0  0  0  0
 41 42  1  0  0  0  0
 42 43  1  0  0  0  0
 43 44  1  0  0  0  0
 45 48  1  0  0  0  0
 45 47  1  0  0  0  0
 46 51  1  0  0  0  0
 46 52  1  0  0  0  0
 47 46  2  0  0  0  0
 48 49  1  0  0  0  0
 49 51  2  0  0  0  0
 50 48  2  0  0  0  0
 51 44  1  0  0  0  0
 53 54  2  0  0  0  0
 54 52  1  0  0  0  0
 54 56  1  0  0  0  0
 56 55  1  0  0  0  0
M  END
>  <MODEL>
1

>  <REMARK>
 VINA RESULT:      -2.6      0.000      0.000
  Name = 
  14 active torsions:
  status: ('A' for Active; 'I' for Inactive)
    1  A    between atoms: O_11  and  C_12
    2  A    between atoms: O_11  and  P_36
    3  A    between atoms: C_13  and  O_24
    4  A    between atoms: C_15  and  C_35
    5  A    between atoms: C_17  and  C_31
    6  A    between atoms: C_17  and  C_56
    7  A    between atoms: O_19  and  C_31
    8  A    between atoms: O_19  and  C_38
    9  A    between atoms: N_21  and  C_25
   10  A    between atoms: O_24  and  P_36
   11  A    between atoms: C_27  and  C_37
   12  A    between atoms: C_27  and  C_55
   13  A    between atoms: C_38  and  C_55
   14  A    between atoms: O_50  and  C_51
                            x       y       z     vdW  Elec       q    Type
                         _______ _______ _______ _____ _____    ______ ____

>  <TORSDO>
F 14

$$$$
=
 OpenBabel11052409543D

 56 61  0  0  1  0  0  0  0  0999 V2000
  163.3420  207.7860  147.7060 O   0  0  0  0  0  1  0  0  0  0  0  0
  161.5810  214.0710  144.7660 C   0  0  0  0  0  3  0  0  0  0  0  0
  160.1290  211.1890  147.4340 O   0  0  0  0  0  0  0  0  0  0  0  0
  161.9370  207.8890  149.6570 C   0  0  1  0  0  3  0  0  0  0  0  0
  161.6720  208.7780  150.8690 C   0  0  0  0  0  2  0  0  0  0  0  0
  161.1000  210.9070  149.6890 C   0  0  1  0  0  3  0  0  0  0  0  0
  162.6840  208.6660  148.5660 C   0  0  2  0  0  3  0  0  0  0  0  0
  161.1600  213.4050  147.0750 C   0  0  0  0  0  0  0  0  0  0  0  0
  160.3100  212.1090  149.8880 N   0  0  0  0  0  2  0  0  0  0  0  0
  160.9930  212.8930  144.2920 C   0  0  0  0  0  0  0  0  0  0  0  0
  160.8550  213.4070  149.6710 C   0  0  0  0  0  0  0  0  0  0  0  0
  161.2150  213.8980  148.4750 C   0  0  0  0  0  3  0  0  0  0  0  0
  160.5910  212.1950  146.5960 C   0  0  0  0  0  0  0  0  0  0  0  0
  160.5790  209.8040  150.5960 C   0  0  0  0  0  2  0  0  0  0  0  0
  161.7290  209.4920  147.7590 C   0  0  0  0  0  3  0  0  0  0  0  0
  161.6530  214.3200  146.1370 C   0  0  0  0  0  3  0  0  0  0  0  0
  161.0070  210.4980  148.2610 C   0  0  0  0  0  0  0  0  0  0  0  0
  160.5000  211.9660  145.2180 C   0  0  0  0  0  3  0  0  0  0  0  0
  161.7070  210.9880  138.1670 C   0  0  0  0  0  3  0  0  0  0  0  0
  159.8070  212.9210  140.7020 C   0  0  0  0  0  3  0  0  0  0  0  0
  162.7270  210.4560  138.9640 C   0  0  0  0  0  3  0  0  0  0  0  0
  159.7340  212.3430  137.9180 O   0  0  0  0  0  1  0  0  0  0  0  0
  160.9120  212.6360  142.8390 C   0  0  0  0  0  0  0  0  0  0  0  0
  159.8740  213.1860  142.0710 C   0  0  0  0  0  3  0  0  0  0  0  0
  161.8430  211.8440  142.2350 N   0  0  0  0  0  0  0  0  0  0  0  0
  160.7740  212.1100  140.1010 C   0  0  0  0  0  0  0  0  0  0  0  0
  162.7770  210.7480  140.3300 C   0  0  0  0  0  3  0  0  0  0  0  0
  161.8070  211.5730  140.9030 C   0  0  0  0  0  0  0  0  0  0  0  0
  160.7310  211.8150  138.7290 C   0  0  0  0  0  0  0  0  0  0  0  0
  162.6890  206.7820  150.0690 O   0  0  0  0  0  0  0  0  0  0  0  0
  160.0200  206.0730  150.1750 O   0  0  0  0  0  1  0  0  0  0  0  0
  161.7680  204.7070  148.7900 O   0  0  0  0  0  0  0  0  0  0  0  0
  161.6040  205.4770  150.0820 P   0  0  1  0  0  0  0  0  0  0  0  0
  161.9680  204.4630  151.4140 O   0  0  0  0  0  0  0  0  0  0  0  0
  160.2560  203.3590  150.3280 F   0  0  0  0  0  0  0  0  0  0  0  0
  161.8840  202.1510  151.3530 F   0  0  0  0  0  0  0  0  0  0  0  0
  161.1390  203.3180  151.3970 C   0  0  0  0  0  0  0  0  0  0  0  0
  160.3970  203.3040  152.5620 F   0  0  0  0  0  0  0  0  0  0  0  0
  160.9780  214.3120  150.8460 C   0  0  0  0  0  2  0  0  0  0  0  0
  159.6410  214.4250  151.5590 C   0  0  0  0  0  2  0  0  0  0  0  0
  159.6890  213.6750  152.8790 C   0  0  0  0  0  2  0  0  0  0  0  0
  160.0540  212.3460  152.6610 O   0  0  0  0  0  0  0  0  0  0  0  0
  159.9270  211.7400  153.9100 C   0  0  0  0  0  2  0  0  0  0  0  0
  161.1050  210.8070  154.1490 C   0  0  0  0  0  2  0  0  0  0  0  0
  159.9830  206.9190  155.9260 C   0  0  0  0  0  2  0  0  0  0  0  0
  159.6320  209.3970  155.7650 C   0  0  0  0  0  0  0  0  0  0  0  0
  159.3520  208.2210  156.3400 C   0  0  0  0  0  3  0  0  0  0  0  0
  160.8390  207.0500  154.6980 C   0  0  0  0  0  0  0  0  0  0  0  0
  161.1950  208.3730  154.1700 C   0  0  0  0  0  3  0  0  0  0  0  0
  161.2910  206.0170  154.1420 O   0  0  0  0  0  0  0  0  0  0  0  0
  160.6380  209.4820  154.6650 C   0  0  0  0  0  0  0  0  0  0  0  0
  158.9880  210.5670  156.2850 N   0  0  0  0  0  2  0  0  0  0  0  0
  156.9740  210.3660  155.1100 O   0  0  0  0  0  0  0  0  0  0  0  0
  157.7310  211.0800  155.8220 C   0  0  0  0  0  0  0  0  0  0  0  0
  157.9290  213.0720  157.2510 C   0  0  0  0  0  1  0  0  0  0  0  0
  157.3100  212.3570  156.1900 O   0  0  0  0  0  0  0  0  0  0  0  0
  2 16  1  0  0  0  0
  3 17  1  0  0  0  0
  4 30  1  1  0  0  0
  4  5  1  0  0  0  0
  6  9  1  0  0  0  0
  6 14  1  1  0  0  0
  7  1  1  6  0  0  0
  7  4  1  0  0  0  0
  8 12  1  0  0  0  0
 10  2  2  0  0  0  0
 10 18  1  0  0  0  0
 11  9  1  0  0  0  0
 11 39  1  0  0  0  0
 12 11  2  0  0  0  0
 13  8  1  0  0  0  0
 13  3  1  0  0  0  0
 14  5  1  0  0  0  0
 15 17  2  0  0  0  0
 15  7  1  0  0  0  0
 16  8  2  0  0  0  0
 17  6  1  0  0  0  0
 18 13  2  0  0  0  0
 19 29  2  0  0  0  0
 19 21  1  0  0  0  0
 20 24  1  0  0  0  0
 21 27  2  0  0  0  0
 22 29  1  0  0  0  0
 23 10  1  0  0  0  0
 24 23  2  0  0  0  0
 25 23  1  0  0  0  0
 26 20  2  0  0  0  0
 26 28  1  0  0  0  0
 27 28  1  0  0  0  0
 28 25  2  0  0  0  0
 29 26  1  0  0  0  0
 30 33  1  0  0  0  0
 33 32  2  6  0  0  0
 33 31  1  0  0  0  0
 33 34  1  0  0  0  0
 35 37  1  0  0  0  0
 36 37  1  0  0  0  0
 37 34  1  0  0  0  0
 37 38  1  0  0  0  0
 39 40  1  0  0  0  0
 40 41  1  0  0  0  0
 42 41  1  0  0  0  0
 42 43  1  0  0  0  0
 43 44  1  0  0  0  0
 44 51  1  0  0  0  0
 45 47  1  0  0  0  0
 46 52  1  0  0  0  0
 46 47  2  0  0  0  0
 48 45  1  0  0  0  0
 49 51  2  0  0  0  0
 49 48  1  0  0  0  0
 50 48  2  0  0  0  0
 51 46  1  0  0  0  0
 53 54  2  0  0  0  0
 54 56  1  0  0  0  0
 54 52  1  0  0  0  0
 56 55  1  0  0  0  0
M  END
>  <MODEL>
2

>  <REMARK>
 VINA RESULT:      -1.6      4.476      8.306
  Name = 
  14 active torsions:
  status: ('A' for Active; 'I' for Inactive)
    1  A    between atoms: O_11  and  C_12
    2  A    between atoms: O_11  and  P_36
    3  A    between atoms: C_13  and  O_24
    4  A    between atoms: C_15  and  C_35
    5  A    between atoms: C_17  and  C_31
    6  A    between atoms: C_17  and  C_56
    7  A    between atoms: O_19  and  C_31
    8  A    between atoms: O_19  and  C_38
    9  A    between atoms: N_21  and  C_25
   10  A    between atoms: O_24  and  P_36
   11  A    between atoms: C_27  and  C_37
   12  A    between atoms: C_27  and  C_55
   13  A    between atoms: C_38  and  C_55
   14  A    between atoms: O_50  and  C_51
                            x       y       z     vdW  Elec       q    Type
                         _______ _______ _______ _____ _____    ______ ____

>  <TORSDO>
F 14

$$$$
=
 OpenBabel11052409543D

 56 61  0  0  1  0  0  0  0  0999 V2000
  162.9560  205.7110  146.1730 O   0  0  0  0  0  1  0  0  0  0  0  0
  162.2770  212.7710  147.1360 C   0  0  0  0  0  3  0  0  0  0  0  0
  160.4970  209.1390  148.2160 O   0  0  0  0  0  0  0  0  0  0  0  0
  161.7710  204.9600  148.1280 C   0  0  1  0  0  3  0  0  0  0  0  0
  161.7980  205.1080  149.6470 C   0  0  0  0  0  2  0  0  0  0  0  0
  161.5760  207.5940  149.8130 C   0  0  1  0  0  3  0  0  0  0  0  0
  162.5670  206.0870  147.4590 C   0  0  2  0  0  3  0  0  0  0  0  0
  161.9250  211.0570  148.8350 C   0  0  0  0  0  0  0  0  0  0  0  0
  161.0680  208.6040  150.7230 N   0  0  0  0  0  2  0  0  0  0  0  0
  161.4240  212.1060  146.2510 C   0  0  0  0  0  0  0  0  0  0  0  0
  161.8480  209.7390  151.0910 C   0  0  0  0  0  0  0  0  0  0  0  0
  162.1990  210.7310  150.2590 C   0  0  0  0  0  3  0  0  0  0  0  0
  161.0820  210.3640  147.9260 C   0  0  0  0  0  0  0  0  0  0  0  0
  160.9190  206.2580  150.1240 C   0  0  0  0  0  2  0  0  0  0  0  0
  161.7370  207.3300  147.3580 C   0  0  0  0  0  3  0  0  0  0  0  0
  162.5150  212.2540  148.4100 C   0  0  0  0  0  3  0  0  0  0  0  0
  161.2810  208.0090  148.4140 C   0  0  0  0  0  0  0  0  0  0  0  0
  160.8310  210.9050  146.6600 C   0  0  0  0  0  3  0  0  0  0  0  0
  161.6450  214.4530  140.2420 C   0  0  0  0  0  3  0  0  0  0  0  0
  159.6370  213.4020  143.1810 C   0  0  0  0  0  3  0  0  0  0  0  0
  162.9390  214.2120  140.7190 C   0  0  0  0  0  3  0  0  0  0  0  0
  159.2600  214.4530  140.5650 O   0  0  0  0  0  1  0  0  0  0  0  0
  161.1690  212.6610  144.9040 C   0  0  0  0  0  0  0  0  0  0  0  0
  159.8580  212.8900  144.4600 C   0  0  0  0  0  3  0  0  0  0  0  0
  162.2140  212.9420  144.0750 N   0  0  0  0  0  0  0  0  0  0  0  0
  160.7220  213.6870  142.3480 C   0  0  0  0  0  0  0  0  0  0  0  0
  163.1310  213.7090  142.0080 C   0  0  0  0  0  3  0  0  0  0  0  0
  162.0310  213.4470  142.8260 C   0  0  0  0  0  0  0  0  0  0  0  0
  160.5350  214.1950  141.0520 C   0  0  0  0  0  0  0  0  0  0  0  0
  162.3140  203.7140  147.7910 O   0  0  0  0  0  0  0  0  0  0  0  0
  161.6920  201.0280  147.9920 O   0  0  0  0  0  0  0  0  0  0  0  0
  160.4170  202.8570  149.3600 O   0  0  0  0  0  1  0  0  0  0  0  0
  161.0530  202.5980  148.0120 P   0  0  1  0  0  0  0  0  0  0  0  0
  159.8940  202.8150  146.7690 O   0  0  0  0  0  0  0  0  0  0  0  0
  159.9790  201.0070  145.3370 F   0  0  0  0  0  0  0  0  0  0  0  0
  160.0050  203.1100  144.4760 F   0  0  0  0  0  0  0  0  0  0  0  0
  160.3910  202.3150  145.5440 C   0  0  0  0  0  0  0  0  0  0  0  0
  161.7710  202.3230  145.6020 F   0  0  0  0  0  0  0  0  0  0  0  0
  162.2520  209.8690  152.5170 C   0  0  0  0  0  2  0  0  0  0  0  0
  161.2960  210.7970  153.2480 C   0  0  0  0  0  2  0  0  0  0  0  0
  161.9070  211.2440  154.5640 C   0  0  0  0  0  2  0  0  0  0  0  0
  162.8890  210.3380  154.9680 O   0  0  0  0  0  0  0  0  0  0  0  0
  163.2150  210.7330  156.2650 C   0  0  0  0  0  2  0  0  0  0  0  0
  162.3200  210.0080  157.2600 C   0  0  0  0  0  2  0  0  0  0  0  0
  159.3390  207.2790  155.4720 C   0  0  0  0  0  2  0  0  0  0  0  0
  159.8630  209.4510  156.6130 C   0  0  0  0  0  0  0  0  0  0  0  0
  158.9670  208.5830  156.1270 C   0  0  0  0  0  3  0  0  0  0  0  0
  160.8210  207.1270  155.2760 C   0  0  0  0  0  0  0  0  0  0  0  0
  161.7600  208.0550  155.9160 C   0  0  0  0  0  3  0  0  0  0  0  0
  161.2620  206.1700  154.5910 O   0  0  0  0  0  0  0  0  0  0  0  0
  161.3230  209.1470  156.5500 C   0  0  0  0  0  0  0  0  0  0  0  0
  159.3700  210.6370  157.2490 N   0  0  0  0  0  2  0  0  0  0  0  0
  157.5920  211.0600  155.7880 O   0  0  0  0  0  0  0  0  0  0  0  0
  158.3320  211.4740  156.7200 C   0  0  0  0  0  0  0  0  0  0  0  0
  158.0890  213.9070  156.4520 C   0  0  0  0  0  1  0  0  0  0  0  0
  158.1010  212.7380  157.2600 O   0  0  0  0  0  0  0  0  0  0  0  0
  2 16  1  0  0  0  0
  3 17  1  0  0  0  0
  4 30  1  1  0  0  0
  4  5  1  0  0  0  0
  5 14  1  0  0  0  0
  6 14  1  1  0  0  0
  6  9  1  0  0  0  0
  7  1  1  6  0  0  0
  7  4  1  0  0  0  0
  8 12  1  0  0  0  0
  9 11  1  0  0  0  0
 10 18  1  0  0  0  0
 10  2  2  0  0  0  0
 11 39  1  0  0  0  0
 12 11  2  0  0  0  0
 13  3  1  0  0  0  0
 13  8  1  0  0  0  0
 15  7  1  0  0  0  0
 15 17  2  0  0  0  0
 16  8  2  0  0  0  0
 17  6  1  0  0  0  0
 18 13  2  0  0  0  0
 19 21  2  0  0  0  0
 19 29  1  0  0  0  0
 20 24  2  0  0  0  0
 21 27  1  0  0  0  0
 22 29  1  0  0  0  0
 23 10  1  0  0  0  0
 24 23  1  0  0  0  0
 25 23  2  0  0  0  0
 26 28  1  0  0  0  0
 26 20  1  0  0  0  0
 27 28  2  0  0  0  0
 28 25  1  0  0  0  0
 29 26  2  0  0  0  0
 30 33  1  0  0  0  0
 33 31  2  6  0  0  0
 33 32  1  0  0  0  0
 34 33  1  0  0  0  0
 35 37  1  0  0  0  0
 36 37  1  0  0  0  0
 37 38  1  0  0  0  0
 37 34  1  0  0  0  0
 39 40  1  0  0  0  0
 40 41  1  0  0  0  0
 41 42  1  0  0  0  0
 42 43  1  0  0  0  0
 43 44  1  0  0  0  0
 45 47  1  0  0  0  0
 46 52  1  0  0  0  0
 47 46  2  0  0  0  0
 48 45  1  0  0  0  0
 48 49  1  0  0  0  0
 49 51  2  0  0  0  0
 50 48  2  0  0  0  0
 51 46  1  0  0  0  0
 51 44  1  0  0  0  0
 53 54  2  0  0  0  0
 54 52  1  0  0  0  0
 54 56  1  0  0  0  0
 55 56  1  0  0  0  0
M  END
>  <MODEL>
3

>  <REMARK>
 VINA RESULT:      -1.5      3.687      8.307
  Name = 
  14 active torsions:
  status: ('A' for Active; 'I' for Inactive)
    1  A    between atoms: O_11  and  C_12
    2  A    between atoms: O_11  and  P_36
    3  A    between atoms: C_13  and  O_24
    4  A    between atoms: C_15  and  C_35
    5  A    between atoms: C_17  and  C_31
    6  A    between atoms: C_17  and  C_56
    7  A    between atoms: O_19  and  C_31
    8  A    between atoms: O_19  and  C_38
    9  A    between atoms: N_21  and  C_25
   10  A    between atoms: O_24  and  P_36
   11  A    between atoms: C_27  and  C_37
   12  A    between atoms: C_27  and  C_55
   13  A    between atoms: C_38  and  C_55
   14  A    between atoms: O_50  and  C_51
                            x       y       z     vdW  Elec       q    Type
                         _______ _______ _______ _____ _____    ______ ____

>  <TORSDO>
F 14

$$$$
=
 OpenBabel11052409543D

 56 61  0  0  1  0  0  0  0  0999 V2000
  163.2980  207.8630  147.9110 O   0  0  0  0  0  1  0  0  0  0  0  0
  161.8280  214.2060  144.9370 C   0  0  0  0  0  3  0  0  0  0  0  0
  160.2030  211.3650  147.5490 O   0  0  0  0  0  0  0  0  0  0  0  0
  161.8350  208.0050  149.8170 C   0  0  1  0  0  3  0  0  0  0  0  0
  161.5600  208.9000  151.0230 C   0  0  0  0  0  2  0  0  0  0  0  0
  161.0920  211.0490  149.8320 C   0  0  1  0  0  3  0  0  0  0  0  0
  162.6410  208.7610  148.7530 C   0  0  2  0  0  3  0  0  0  0  0  0
  161.3140  213.5490  147.2290 C   0  0  0  0  0  0  0  0  0  0  0  0
  160.3340  212.2740  150.0100 N   0  0  0  0  0  2  0  0  0  0  0  0
  161.2200  213.0490  144.4410 C   0  0  0  0  0  0  0  0  0  0  0  0
  160.9270  213.5550  149.8140 C   0  0  0  0  0  0  0  0  0  0  0  0
  161.3400  214.0370  148.6320 C   0  0  0  0  0  3  0  0  0  0  0  0
  160.7230  212.3580  146.7290 C   0  0  0  0  0  0  0  0  0  0  0  0
  160.5090  209.9600  150.7190 C   0  0  0  0  0  2  0  0  0  0  0  0
  161.7380  209.6180  147.9190 C   0  0  0  0  0  3  0  0  0  0  0  0
  161.8650  214.4500  146.3100 C   0  0  0  0  0  3  0  0  0  0  0  0
  161.0330  210.6450  148.4000 C   0  0  0  0  0  0  0  0  0  0  0  0
  160.6690  212.1350  145.3480 C   0  0  0  0  0  3  0  0  0  0  0  0
  162.1810  212.6430  138.0720 C   0  0  0  0  0  3  0  0  0  0  0  0
  160.1410  211.7750  141.0490 C   0  0  0  0  0  3  0  0  0  0  0  0
  163.1820  213.4190  138.6660 C   0  0  0  0  0  3  0  0  0  0  0  0
  160.1670  211.3360  138.2380 O   0  0  0  0  0  1  0  0  0  0  0  0
  161.1780  212.7970  142.9850 C   0  0  0  0  0  0  0  0  0  0  0  0
  160.1580  212.0130  142.4240 C   0  0  0  0  0  3  0  0  0  0  0  0
  162.1430  213.3160  142.1760 N   0  0  0  0  0  0  0  0  0  0  0  0
  161.1390  212.3210  140.2350 C   0  0  0  0  0  0  0  0  0  0  0  0
  163.1670  213.6510  140.0440 C   0  0  0  0  0  3  0  0  0  0  0  0
  162.1510  213.1070  140.8320 C   0  0  0  0  0  0  0  0  0  0  0  0
  161.1580  212.0930  138.8500 C   0  0  0  0  0  0  0  0  0  0  0  0
  162.5400  206.8750  150.2490 O   0  0  0  0  0  0  0  0  0  0  0  0
  160.9080  206.2970  152.4040 O   0  0  0  0  0  1  0  0  0  0  0  0
  160.1530  205.8750  149.9350 O   0  0  0  0  0  0  0  0  0  0  0  0
  161.3600  205.8090  150.8450 P   0  0  1  0  0  0  0  0  0  0  0  0
  161.9990  204.2190  150.8510 O   0  0  0  0  0  0  0  0  0  0  0  0
  160.1250  203.1020  150.0970 F   0  0  0  0  0  0  0  0  0  0  0  0
  161.5190  202.0710  151.5660 F   0  0  0  0  0  0  0  0  0  0  0  0
  160.9850  203.2870  151.1690 C   0  0  0  0  0  0  0  0  0  0  0  0
  160.2490  203.7920  152.2240 F   0  0  0  0  0  0  0  0  0  0  0  0
  161.0400  214.4530  150.9950 C   0  0  0  0  0  2  0  0  0  0  0  0
  159.7530  214.4180  151.8030 C   0  0  0  0  0  2  0  0  0  0  0  0
  160.0630  214.1560  153.2660 C   0  0  0  0  0  2  0  0  0  0  0  0
  158.9450  213.6140  153.9020 O   0  0  0  0  0  0  0  0  0  0  0  0
  158.7260  214.4520  154.9950 C   0  0  0  0  0  2  0  0  0  0  0  0
  159.3960  213.8680  156.2300 C   0  0  0  0  0  2  0  0  0  0  0  0
  159.8850  209.4750  156.2090 C   0  0  0  0  0  2  0  0  0  0  0  0
  158.3730  211.4760  156.2350 C   0  0  0  0  0  0  0  0  0  0  0  0
  158.5410  210.1490  156.2950 C   0  0  0  0  0  3  0  0  0  0  0  0
  160.9980  210.4320  155.8880 C   0  0  0  0  0  0  0  0  0  0  0  0
  160.7760  211.8820  155.9350 C   0  0  0  0  0  3  0  0  0  0  0  0
  162.1420  209.9870  155.6190 O   0  0  0  0  0  0  0  0  0  0  0  0
  159.5490  212.3840  156.1010 C   0  0  0  0  0  0  0  0  0  0  0  0
  157.0400  211.9880  156.3720 N   0  0  0  0  0  2  0  0  0  0  0  0
  156.1920  211.2020  154.3380 O   0  0  0  0  0  0  0  0  0  0  0  0
  156.0420  211.9480  155.3430 C   0  0  0  0  0  0  0  0  0  0  0  0
  154.7860  214.0300  154.9720 C   0  0  0  0  0  1  0  0  0  0  0  0
  154.8740  212.6990  155.4630 O   0  0  0  0  0  0  0  0  0  0  0  0
  2 16  1  0  0  0  0
  3 17  1  0  0  0  0
  4 30  1  1  0  0  0
  4  5  1  0  0  0  0
  6  9  1  0  0  0  0
  6 14  1  1  0  0  0
  7  1  1  6  0  0  0
  7  4  1  0  0  0  0
  8 12  1  0  0  0  0
 10  2  2  0  0  0  0
 10 18  1  0  0  0  0
 11  9  1  0  0  0  0
 11 39  1  0  0  0  0
 12 11  2  0  0  0  0
 13  8  1  0  0  0  0
 13  3  1  0  0  0  0
 14  5  1  0  0  0  0
 15 17  2  0  0  0  0
 15  7  1  0  0  0  0
 16  8  2  0  0  0  0
 17  6  1  0  0  0  0
 18 13  2  0  0  0  0
 19 21  2  0  0  0  0
 19 29  1  0  0  0  0
 20 24  2  0  0  0  0
 21 27  1  0  0  0  0
 22 29  1  0  0  0  0
 23 10  1  0  0  0  0
 24 23  1  0  0  0  0
 25 23  2  0  0  0  0
 26 28  1  0  0  0  0
 26 20  1  0  0  0  0
 27 28  2  0  0  0  0
 28 25  1  0  0  0  0
 29 26  2  0  0  0  0
 30 33  1  0  0  0  0
 33 32  2  6  0  0  0
 33 34  1  0  0  0  0
 33 31  1  0  0  0  0
 34 37  1  0  0  0  0
 35 37  1  0  0  0  0
 37 36  1  0  0  0  0
 37 38  1  0  0  0  0
 39 40  1  0  0  0  0
 40 41  1  0  0  0  0
 41 42  1  0  0  0  0
 42 43  1  0  0  0  0
 43 44  1  0  0  0  0
 45 47  1  0  0  0  0
 46 47  2  0  0  0  0
 46 52  1  0  0  0  0
 48 49  1  0  0  0  0
 48 45  1  0  0  0  0
 49 51  2  0  0  0  0
 50 48  2  0  0  0  0
 51 44  1  0  0  0  0
 51 46  1  0  0  0  0
 53 54  2  0  0  0  0
 54 56  1  0  0  0  0
 54 52  1  0  0  0  0
 55 56  1  0  0  0  0
M  END
>  <MODEL>
4

>  <REMARK>
 VINA RESULT:      -0.9      4.473      8.489
  Name = 
  14 active torsions:
  status: ('A' for Active; 'I' for Inactive)
    1  A    between atoms: O_11  and  C_12
    2  A    between atoms: O_11  and  P_36
    3  A    between atoms: C_13  and  O_24
    4  A    between atoms: C_15  and  C_35
    5  A    between atoms: C_17  and  C_31
    6  A    between atoms: C_17  and  C_56
    7  A    between atoms: O_19  and  C_31
    8  A    between atoms: O_19  and  C_38
    9  A    between atoms: N_21  and  C_25
   10  A    between atoms: O_24  and  P_36
   11  A    between atoms: C_27  and  C_37
   12  A    between atoms: C_27  and  C_55
   13  A    between atoms: C_38  and  C_55
   14  A    between atoms: O_50  and  C_51
                            x       y       z     vdW  Elec       q    Type
                         _______ _______ _______ _____ _____    ______ ____

>  <TORSDO>
F 14

$$$$
=
 OpenBabel11052409543D

 56 61  0  0  1  0  0  0  0  0999 V2000
  163.5450  208.0470  148.2460 O   0  0  0  0  0  1  0  0  0  0  0  0
  161.5320  214.2150  145.2230 C   0  0  0  0  0  3  0  0  0  0  0  0
  160.1110  211.2000  147.7570 O   0  0  0  0  0  0  0  0  0  0  0  0
  161.9960  208.0190  150.0870 C   0  0  1  0  0  3  0  0  0  0  0  0
  161.5750  208.8720  151.2820 C   0  0  0  0  0  2  0  0  0  0  0  0
  160.9300  210.9660  150.0750 C   0  0  1  0  0  3  0  0  0  0  0  0
  162.7600  208.8640  149.0600 C   0  0  2  0  0  3  0  0  0  0  0  0
  160.9930  213.4920  147.4890 C   0  0  0  0  0  0  0  0  0  0  0  0
  160.0390  212.1010  150.2230 N   0  0  0  0  0  2  0  0  0  0  0  0
  161.0730  213.0030  144.6990 C   0  0  0  0  0  0  0  0  0  0  0  0
  160.4980  213.4400  150.0550 C   0  0  0  0  0  0  0  0  0  0  0  0
  160.9070  213.9710  148.8930 C   0  0  0  0  0  3  0  0  0  0  0  0
  160.5550  212.2480  146.9620 C   0  0  0  0  0  0  0  0  0  0  0  0
  160.4300  209.8150  150.9350 C   0  0  0  0  0  2  0  0  0  0  0  0
  161.8070  209.6250  148.1900 C   0  0  0  0  0  3  0  0  0  0  0  0
  161.4830  214.4530  146.5970 C   0  0  0  0  0  3  0  0  0  0  0  0
  160.9760  210.5670  148.6420 C   0  0  0  0  0  0  0  0  0  0  0  0
  160.5850  212.0290  145.5800 C   0  0  0  0  0  3  0  0  0  0  0  0
  162.2900  212.8090  138.3640 C   0  0  0  0  0  3  0  0  0  0  0  0
  160.3340  211.5880  141.2720 C   0  0  0  0  0  3  0  0  0  0  0  0
  163.1250  213.7400  138.9910 C   0  0  0  0  0  3  0  0  0  0  0  0
  160.5230  211.1780  138.4630 O   0  0  0  0  0  1  0  0  0  0  0  0
  161.1200  212.7570  143.2420 C   0  0  0  0  0  0  0  0  0  0  0  0
  160.2660  211.8150  142.6470 C   0  0  0  0  0  3  0  0  0  0  0  0
  162.0090  213.4380  142.4650 N   0  0  0  0  0  0  0  0  0  0  0  0
  161.2500  212.3000  140.4920 C   0  0  0  0  0  0  0  0  0  0  0  0
  163.0280  213.9560  140.3680 C   0  0  0  0  0  3  0  0  0  0  0  0
  162.0940  213.2420  141.1220 C   0  0  0  0  0  0  0  0  0  0  0  0
  161.3510  212.0890  139.1070 C   0  0  0  0  0  0  0  0  0  0  0  0
  162.7980  206.9690  150.5480 O   0  0  0  0  0  0  0  0  0  0  0  0
  161.6670  206.2500  152.9650 O   0  0  0  0  0  1  0  0  0  0  0  0
  160.3570  206.0690  150.7080 O   0  0  0  0  0  0  0  0  0  0  0  0
  161.7340  205.8890  151.3100 P   0  0  1  0  0  0  0  0  0  0  0  0
  162.2800  204.2870  151.0440 O   0  0  0  0  0  0  0  0  0  0  0  0
  160.4830  203.2060  152.0080 F   0  0  0  0  0  0  0  0  0  0  0  0
  160.3260  203.9210  149.8570 F   0  0  0  0  0  0  0  0  0  0  0  0
  161.1800  203.4250  150.8290 C   0  0  0  0  0  0  0  0  0  0  0  0
  161.6630  202.2080  150.3890 F   0  0  0  0  0  0  0  0  0  0  0  0
  160.4630  214.3370  151.2420 C   0  0  0  0  0  2  0  0  0  0  0  0
  159.1840  214.1110  152.0300 C   0  0  0  0  0  2  0  0  0  0  0  0
  159.5090  213.5270  153.3940 C   0  0  0  0  0  2  0  0  0  0  0  0
  158.7710  214.1790  154.3820 O   0  0  0  0  0  0  0  0  0  0  0  0
  159.6990  214.4530  155.3860 C   0  0  0  0  0  2  0  0  0  0  0  0
  159.0400  214.2970  156.7490 C   0  0  0  0  0  2  0  0  0  0  0  0
  155.2570  212.1230  156.0440 C   0  0  0  0  0  2  0  0  0  0  0  0
  157.6920  212.0750  156.6440 C   0  0  0  0  0  0  0  0  0  0  0  0
  156.5540  211.4280  156.3620 C   0  0  0  0  0  3  0  0  0  0  0  0
  155.3320  213.6120  156.2310 C   0  0  0  0  0  0  0  0  0  0  0  0
  156.6240  214.2770  156.4390 C   0  0  0  0  0  3  0  0  0  0  0  0
  154.2820  214.3000  156.1670 O   0  0  0  0  0  0  0  0  0  0  0  0
  157.7390  213.5660  156.6310 C   0  0  0  0  0  0  0  0  0  0  0  0
  158.8660  211.2880  156.8890 N   0  0  0  0  0  2  0  0  0  0  0  0
  159.3780  210.7880  154.6610 O   0  0  0  0  0  0  0  0  0  0  0  0
  159.5810  210.5570  155.8840 C   0  0  0  0  0  0  0  0  0  0  0  0
  160.2020  208.4420  156.9760 C   0  0  0  0  0  1  0  0  0  0  0  0
  160.5410  209.6130  156.2460 O   0  0  0  0  0  0  0  0  0  0  0  0
  2 16  1  0  0  0  0
  3 17  1  0  0  0  0
  4 30  1  1  0  0  0
  4  5  1  0  0  0  0
  6  9  1  0  0  0  0
  6 14  1  1  0  0  0
  7  1  1  6  0  0  0
  7  4  1  0  0  0  0
  8 12  1  0  0  0  0
 10  2  2  0  0  0  0
 10 18  1  0  0  0  0
 11  9  1  0  0  0  0
 11 39  1  0  0  0  0
 12 11  2  0  0  0  0
 13  8  1  0  0  0  0
 13  3  1  0  0  0  0
 14  5  1  0  0  0  0
 15 17  2  0  0  0  0
 15  7  1  0  0  0  0
 16  8  2  0  0  0  0
 17  6  1  0  0  0  0
 18 13  2  0  0  0  0
 19 21  2  0  0  0  0
 19 29  1  0  0  0  0
 20 24  2  0  0  0  0
 21 27  1  0  0  0  0
 22 29  1  0  0  0  0
 23 10  1  0  0  0  0
 24 23  1  0  0  0  0
 25 23  2  0  0  0  0
 26 28  1  0  0  0  0
 26 20  1  0  0  0  0
 27 28  2  0  0  0  0
 28 25  1  0  0  0  0
 29 26  2  0  0  0  0
 30 33  1  0  0  0  0
 33 32  2  6  0  0  0
 33 31  1  0  0  0  0
 34 33  1  0  0  0  0
 36 37  1  0  0  0  0
 37 34  1  0  0  0  0
 37 35  1  0  0  0  0
 38 37  1  0  0  0  0
 39 40  1  0  0  0  0
 40 41  1  0  0  0  0
 41 42  1  0  0  0  0
 42 43  1  0  0  0  0
 43 44  1  0  0  0  0
 45 48  1  0  0  0  0
 45 47  1  0  0  0  0
 46 52  1  0  0  0  0
 47 46  2  0  0  0  0
 48 49  1  0  0  0  0
 49 51  2  0  0  0  0
 50 48  2  0  0  0  0
 51 46  1  0  0  0  0
 51 44  1  0  0  0  0
 53 54  2  0  0  0  0
 54 56  1  0  0  0  0
 54 52  1  0  0  0  0
 56 55  1  0  0  0  0
M  END
>  <MODEL>
5

>  <REMARK>
 VINA RESULT:      -0.9      4.388      8.212
  Name = 
  14 active torsions:
  status: ('A' for Active; 'I' for Inactive)
    1  A    between atoms: O_11  and  C_12
    2  A    between atoms: O_11  and  P_36
    3  A    between atoms: C_13  and  O_24
    4  A    between atoms: C_15  and  C_35
    5  A    between atoms: C_17  and  C_31
    6  A    between atoms: C_17  and  C_56
    7  A    between atoms: O_19  and  C_31
    8  A    between atoms: O_19  and  C_38
    9  A    between atoms: N_21  and  C_25
   10  A    between atoms: O_24  and  P_36
   11  A    between atoms: C_27  and  C_37
   12  A    between atoms: C_27  and  C_55
   13  A    between atoms: C_38  and  C_55
   14  A    between atoms: O_50  and  C_51
                            x       y       z     vdW  Elec       q    Type
                         _______ _______ _______ _____ _____    ______ ____

>  <TORSDO>
F 14

$$$$
=
 OpenBabel11052409543D

 56 61  0  0  1  0  0  0  0  0999 V2000
  158.8390  211.3290  144.8270 O   0  0  0  0  0  1  0  0  0  0  0  0
  160.5750  207.7150  150.7570 C   0  0  0  0  0  3  0  0  0  0  0  0
  162.0380  210.6840  148.1920 O   0  0  0  0  0  0  0  0  0  0  0  0
  160.2440  213.2570  145.1490 C   0  0  1  0  0  3  0  0  0  0  0  0
  160.5050  214.3630  146.1680 C   0  0  0  0  0  2  0  0  0  0  0  0
  161.0690  212.9560  148.1570 C   0  0  1  0  0  3  0  0  0  0  0  0
  159.4940  212.0870  145.7990 C   0  0  2  0  0  3  0  0  0  0  0  0
  160.9990  210.0830  150.3510 C   0  0  0  0  0  0  0  0  0  0  0  0
  161.8540  213.0210  149.3760 N   0  0  0  0  0  2  0  0  0  0  0  0
  161.1670  207.3730  149.5370 C   0  0  0  0  0  0  0  0  0  0  0  0
  161.3030  212.6620  150.6400 C   0  0  0  0  0  0  0  0  0  0  0  0
  160.9410  211.4200  150.9950 C   0  0  0  0  0  3  0  0  0  0  0  0
  161.5730  209.7400  149.0980 C   0  0  0  0  0  0  0  0  0  0  0  0
  161.5940  213.9790  147.1620 C   0  0  0  0  0  2  0  0  0  0  0  0
  160.4460  211.1940  146.5340 C   0  0  0  0  0  3  0  0  0  0  0  0
  160.5020  209.0500  151.1550 C   0  0  0  0  0  3  0  0  0  0  0  0
  161.1630  211.5820  147.5920 C   0  0  0  0  0  0  0  0  0  0  0  0
  161.6640  208.3960  148.7180 C   0  0  0  0  0  3  0  0  0  0  0  0
  161.0530  200.9470  148.9510 C   0  0  0  0  0  3  0  0  0  0  0  0
  161.7060  204.2730  147.4410 C   0  0  0  0  0  3  0  0  0  0  0  0
  160.6610  201.3250  150.2400 C   0  0  0  0  0  3  0  0  0  0  0  0
  161.8090  201.5180  146.7390 O   0  0  0  0  0  1  0  0  0  0  0  0
  161.2490  205.9570  149.1210 C   0  0  0  0  0  0  0  0  0  0  0  0
  161.6470  205.6150  147.8190 C   0  0  0  0  0  3  0  0  0  0  0  0
  160.9230  204.9690  150.0010 N   0  0  0  0  0  0  0  0  0  0  0  0
  161.3710  203.2750  148.3600 C   0  0  0  0  0  0  0  0  0  0  0  0
  160.6220  202.6760  150.5950 C   0  0  0  0  0  3  0  0  0  0  0  0
  160.9760  203.6530  149.6630 C   0  0  0  0  0  0  0  0  0  0  0  0
  161.4100  201.9160  148.0090 C   0  0  0  0  0  0  0  0  0  0  0  0
  159.4960  213.7890  144.0920 O   0  0  0  0  0  0  0  0  0  0  0  0
  161.8760  214.0820  142.7170 O   0  0  0  0  0  1  0  0  0  0  0  0
  160.4980  211.8590  142.6550 O   0  0  0  0  0  0  0  0  0  0  0  0
  160.3400  213.3640  142.6830 P   0  0  1  0  0  0  0  0  0  0  0  0
  159.4420  213.8800  141.3180 O   0  0  0  0  0  0  0  0  0  0  0  0
  159.9870  211.7690  140.5620 F   0  0  0  0  0  0  0  0  0  0  0  0
  158.7710  213.1480  139.2270 F   0  0  0  0  0  0  0  0  0  0  0  0
  159.7630  213.0870  140.1930 C   0  0  0  0  0  0  0  0  0  0  0  0
  160.9280  213.5770  139.6360 F   0  0  0  0  0  0  0  0  0  0  0  0
  161.1770  213.7310  151.6690 C   0  0  0  0  0  2  0  0  0  0  0  0
  159.7320  214.1920  151.7680 C   0  0  0  0  0  2  0  0  0  0  0  0
  159.0530  213.5270  152.9510 C   0  0  0  0  0  2  0  0  0  0  0  0
  158.2460  214.4480  153.6200 O   0  0  0  0  0  0  0  0  0  0  0  0
  158.1260  213.9350  154.9110 C   0  0  0  0  0  2  0  0  0  0  0  0
  159.5090  213.7340  155.5120 C   0  0  0  0  0  2  0  0  0  0  0  0
  160.6580  209.5160  156.1650 C   0  0  0  0  0  2  0  0  0  0  0  0
  159.0290  211.3880  156.5290 C   0  0  0  0  0  0  0  0  0  0  0  0
  159.4250  210.1330  156.7710 C   0  0  0  0  0  3  0  0  0  0  0  0
  161.3070  210.4000  155.1380 C   0  0  0  0  0  0  0  0  0  0  0  0
  160.8950  211.8000  154.9860 C   0  0  0  0  0  3  0  0  0  0  0  0
  162.2420  209.9470  154.4300 O   0  0  0  0  0  0  0  0  0  0  0  0
  159.8290  212.2770  155.6370 C   0  0  0  0  0  0  0  0  0  0  0  0
  157.8570  211.8630  157.2060 N   0  0  0  0  0  2  0  0  0  0  0  0
  156.2840  211.2240  155.5940 O   0  0  0  0  0  0  0  0  0  0  0  0
  156.5400  211.8850  156.6370 C   0  0  0  0  0  0  0  0  0  0  0  0
  155.1750  213.9210  156.8480 C   0  0  0  0  0  1  0  0  0  0  0  0
  155.5170  212.6020  157.2540 O   0  0  0  0  0  0  0  0  0  0  0  0
  2 16  1  0  0  0  0
  3 13  1  0  0  0  0
  4 30  1  6  0  0  0
  4  7  1  0  0  0  0
  4  5  1  0  0  0  0
  5 14  1  0  0  0  0
  6 14  1  6  0  0  0
  6  9  1  0  0  0  0
  7  1  1  6  0  0  0
  7 15  1  0  0  0  0
  8 12  1  0  0  0  0
  8 16  2  0  0  0  0
  9 11  1  0  0  0  0
 10  2  2  0  0  0  0
 11 12  2  0  0  0  0
 11 39  1  0  0  0  0
 13  8  1  0  0  0  0
 15 17  2  0  0  0  0
 17  6  1  0  0  0  0
 17  3  1  0  0  0  0
 18 13  2  0  0  0  0
 18 10  1  0  0  0  0
 19 21  1  0  0  0  0
 20 24  2  0  0  0  0
 20 26  1  0  0  0  0
 21 27  2  0  0  0  0
 22 29  1  0  0  0  0
 23 10  1  0  0  0  0
 23 25  2  0  0  0  0
 24 23  1  0  0  0  0
 26 28  2  0  0  0  0
 28 25  1  0  0  0  0
 28 27  1  0  0  0  0
 29 26  1  0  0  0  0
 29 19  2  0  0  0  0
 33 32  2  6  0  0  0
 33 31  1  0  0  0  0
 33 30  1  0  0  0  0
 34 33  1  0  0  0  0
 36 37  1  0  0  0  0
 37 35  1  0  0  0  0
 37 34  1  0  0  0  0
 38 37  1  0  0  0  0
 39 40  1  0  0  0  0
 40 41  1  0  0  0  0
 41 42  1  0  0  0  0
 42 43  1  0  0  0  0
 43 44  1  0  0  0  0
 44 51  1  0  0  0  0
 45 47  1  0  0  0  0
 46 47  2  0  0  0  0
 46 52  1  0  0  0  0
 48 45  1  0  0  0  0
 49 48  1  0  0  0  0
 49 51  2  0  0  0  0
 50 48  2  0  0  0  0
 51 46  1  0  0  0  0
 53 54  2  0  0  0  0
 54 52  1  0  0  0  0
 54 56  1  0  0  0  0
 55 56  1  0  0  0  0
M  END
>  <MODEL>
6

>  <REMARK>
 VINA RESULT:      -0.8      1.910      3.285
  Name = 
  14 active torsions:
  status: ('A' for Active; 'I' for Inactive)
    1  A    between atoms: O_11  and  C_12
    2  A    between atoms: O_11  and  P_36
    3  A    between atoms: C_13  and  O_24
    4  A    between atoms: C_15  and  C_35
    5  A    between atoms: C_17  and  C_31
    6  A    between atoms: C_17  and  C_56
    7  A    between atoms: O_19  and  C_31
    8  A    between atoms: O_19  and  C_38
    9  A    between atoms: N_21  and  C_25
   10  A    between atoms: O_24  and  P_36
   11  A    between atoms: C_27  and  C_37
   12  A    between atoms: C_27  and  C_55
   13  A    between atoms: C_38  and  C_55
   14  A    between atoms: O_50  and  C_51
                            x       y       z     vdW  Elec       q    Type
                         _______ _______ _______ _____ _____    ______ ____

>  <TORSDO>
F 14

$$$$
=
 OpenBabel11052409543D

 56 61  0  0  1  0  0  0  0  0999 V2000
  162.7550  205.0280  146.1930 O   0  0  0  0  0  1  0  0  0  0  0  0
  162.1690  211.9090  148.0750 C   0  0  0  0  0  3  0  0  0  0  0  0
  160.3880  208.1780  148.7320 O   0  0  0  0  0  0  0  0  0  0  0  0
  161.6210  204.0380  148.0700 C   0  0  1  0  0  3  0  0  0  0  0  0
  161.6920  203.9890  149.5940 C   0  0  0  0  0  2  0  0  0  0  0  0
  161.4980  206.4340  150.0840 C   0  0  1  0  0  3  0  0  0  0  0  0
  162.4070  205.2380  147.5270 C   0  0  2  0  0  3  0  0  0  0  0  0
  161.8510  209.9920  149.5490 C   0  0  0  0  0  0  0  0  0  0  0  0
  161.0260  207.3210  151.1310 N   0  0  0  0  0  2  0  0  0  0  0  0
  161.2850  211.3680  147.1370 C   0  0  0  0  0  0  0  0  0  0  0  0
  161.8270  208.3960  151.6190 C   0  0  0  0  0  0  0  0  0  0  0  0
  162.1620  209.4850  150.9110 C   0  0  0  0  0  3  0  0  0  0  0  0
  160.9760  209.4270  148.5840 C   0  0  0  0  0  0  0  0  0  0  0  0
  160.8380  205.0730  150.2400 C   0  0  0  0  0  2  0  0  0  0  0  0
  161.5860  206.4880  147.6120 C   0  0  0  0  0  3  0  0  0  0  0  0
  162.4390  211.2310  149.2640 C   0  0  0  0  0  3  0  0  0  0  0  0
  161.1670  207.0270  148.7600 C   0  0  0  0  0  0  0  0  0  0  0  0
  160.6930  210.1270  147.4060 C   0  0  0  0  0  3  0  0  0  0  0  0
  161.3520  214.4530  141.4690 C   0  0  0  0  0  3  0  0  0  0  0  0
  159.4220  213.0710  144.3220 C   0  0  0  0  0  3  0  0  0  0  0  0
  162.6560  214.1340  141.8640 C   0  0  0  0  0  3  0  0  0  0  0  0
  158.9800  214.4500  141.8740 O   0  0  0  0  0  1  0  0  0  0  0  0
  160.9970  212.0930  145.8820 C   0  0  0  0  0  0  0  0  0  0  0  0
  159.6760  212.3970  145.5170 C   0  0  0  0  0  3  0  0  0  0  0  0
  162.0180  212.4600  145.0570 N   0  0  0  0  0  0  0  0  0  0  0  0
  160.4850  213.4420  143.4920 C   0  0  0  0  0  0  0  0  0  0  0  0
  162.8810  213.4680  143.0720 C   0  0  0  0  0  3  0  0  0  0  0  0
  161.8030  213.1220  143.8900 C   0  0  0  0  0  0  0  0  0  0  0  0
  160.2650  214.1120  142.2780 C   0  0  0  0  0  0  0  0  0  0  0  0
  162.1420  202.8430  147.5590 O   0  0  0  0  0  0  0  0  0  0  0  0
  160.1850  201.9800  145.8070 O   0  0  0  0  0  0  0  0  0  0  0  0
  161.2740  200.3850  147.5720 O   0  0  0  0  0  1  0  0  0  0  0  0
  160.8070  201.8100  147.3750 P   0  0  1  0  0  0  0  0  0  0  0  0
  159.6310  202.2050  148.5570 O   0  0  0  0  0  0  0  0  0  0  0  0
  158.5600  200.4790  149.6520 F   0  0  0  0  0  0  0  0  0  0  0  0
  160.8300  200.5030  149.5690 F   0  0  0  0  0  0  0  0  0  0  0  0
  159.6870  201.2850  149.6290 C   0  0  0  0  0  0  0  0  0  0  0  0
  159.7240  202.0000  150.8110 F   0  0  0  0  0  0  0  0  0  0  0  0
  162.2730  208.3390  153.0370 C   0  0  0  0  0  2  0  0  0  0  0  0
  162.7830  209.7000  153.4790 C   0  0  0  0  0  2  0  0  0  0  0  0
  161.6270  210.6790  153.5890 C   0  0  0  0  0  2  0  0  0  0  0  0
  161.5440  211.1770  154.8900 O   0  0  0  0  0  0  0  0  0  0  0  0
  160.2330  210.9070  155.2830 C   0  0  0  0  0  2  0  0  0  0  0  0
  159.5400  212.2010  155.6800 C   0  0  0  0  0  2  0  0  0  0  0  0
  157.3070  213.5750  152.1220 C   0  0  0  0  0  2  0  0  0  0  0  0
  157.2980  212.8100  154.5110 C   0  0  0  0  0  0  0  0  0  0  0  0
  156.6330  213.1640  153.4040 C   0  0  0  0  0  3  0  0  0  0  0  0
  158.7980  213.7010  152.2610 C   0  0  0  0  0  0  0  0  0  0  0  0
  159.4830  213.2040  153.4600 C   0  0  0  0  0  3  0  0  0  0  0  0
  159.4700  214.1990  151.3230 O   0  0  0  0  0  0  0  0  0  0  0  0
  158.7890  212.7800  154.5210 C   0  0  0  0  0  0  0  0  0  0  0  0
  156.5300  212.4010  155.6500 N   0  0  0  0  0  2  0  0  0  0  0  0
  155.7350  210.3780  154.7820 O   0  0  0  0  0  0  0  0  0  0  0  0
  155.6620  211.2600  155.6810 C   0  0  0  0  0  0  0  0  0  0  0  0
  154.0120  212.1760  157.2590 C   0  0  0  0  0  1  0  0  0  0  0  0
  154.7570  211.0880  156.7280 O   0  0  0  0  0  0  0  0  0  0  0  0
  2 16  1  0  0  0  0
  3 17  1  0  0  0  0
  4 30  1  6  0  0  0
  4  5  1  0  0  0  0
  5 14  1  0  0  0  0
  6 14  1  1  0  0  0
  6  9  1  0  0  0  0
  7  1  1  6  0  0  0
  7 15  1  0  0  0  0
  7  4  1  0  0  0  0
  8 12  1  0  0  0  0
  9 11  1  0  0  0  0
 10 18  1  0  0  0  0
 10  2  2  0  0  0  0
 11 39  1  0  0  0  0
 12 11  2  0  0  0  0
 13  3  1  0  0  0  0
 13  8  1  0  0  0  0
 15 17  2  0  0  0  0
 16  8  2  0  0  0  0
 17  6  1  0  0  0  0
 18 13  2  0  0  0  0
 19 21  2  0  0  0  0
 19 29  1  0  0  0  0
 20 24  2  0  0  0  0
 21 27  1  0  0  0  0
 22 29  1  0  0  0  0
 23 10  1  0  0  0  0
 24 23  1  0  0  0  0
 25 23  2  0  0  0  0
 26 28  1  0  0  0  0
 26 20  1  0  0  0  0
 27 28  2  0  0  0  0
 28 25  1  0  0  0  0
 29 26  2  0  0  0  0
 33 31  2  6  0  0  0
 33 30  1  0  0  0  0
 33 32  1  0  0  0  0
 33 34  1  0  0  0  0
 34 37  1  0  0  0  0
 36 37  1  0  0  0  0
 37 35  1  0  0  0  0
 37 38  1  0  0  0  0
 39 40  1  0  0  0  0
 40 41  1  0  0  0  0
 41 42  1  0  0  0  0
 42 43  1  0  0  0  0
 43 44  1  0  0  0  0
 45 48  1  0  0  0  0
 45 47  1  0  0  0  0
 46 51  1  0  0  0  0
 46 52  1  0  0  0  0
 47 46  2  0  0  0  0
 48 49  1  0  0  0  0
 49 51  2  0  0  0  0
 50 48  2  0  0  0  0
 51 44  1  0  0  0  0
 52 54  1  0  0  0  0
 53 54  2  0  0  0  0
 54 56  1  0  0  0  0
 56 55  1  0  0  0  0
M  END
>  <MODEL>
7

>  <REMARK>
 VINA RESULT:      -0.6      4.373      8.460
  Name = 
  14 active torsions:
  status: ('A' for Active; 'I' for Inactive)
    1  A    between atoms: O_11  and  C_12
    2  A    between atoms: O_11  and  P_36
    3  A    between atoms: C_13  and  O_24
    4  A    between atoms: C_15  and  C_35
    5  A    between atoms: C_17  and  C_31
    6  A    between atoms: C_17  and  C_56
    7  A    between atoms: O_19  and  C_31
    8  A    between atoms: O_19  and  C_38
    9  A    between atoms: N_21  and  C_25
   10  A    between atoms: O_24  and  P_36
   11  A    between atoms: C_27  and  C_37
   12  A    between atoms: C_27  and  C_55
   13  A    between atoms: C_38  and  C_55
   14  A    between atoms: O_50  and  C_51
                            x       y       z     vdW  Elec       q    Type
                         _______ _______ _______ _____ _____    ______ ____

>  <TORSDO>
F 14

$$$$
=
 OpenBabel11052409543D

 56 61  0  0  1  0  0  0  0  0999 V2000
  159.5600  211.3170  144.8260 O   0  0  0  0  0  1  0  0  0  0  0  0
  160.2140  208.3510  151.3080 C   0  0  0  0  0  3  0  0  0  0  0  0
  162.1630  210.9950  148.7110 O   0  0  0  0  0  0  0  0  0  0  0  0
  160.9600  213.2450  145.1640 C   0  0  1  0  0  3  0  0  0  0  0  0
  161.0930  214.4530  146.0880 C   0  0  0  0  0  2  0  0  0  0  0  0
  161.2880  213.2640  148.2790 C   0  0  1  0  0  3  0  0  0  0  0  0
  160.0780  212.1660  145.8040 C   0  0  2  0  0  3  0  0  0  0  0  0
  160.7760  210.6520  150.7260 C   0  0  0  0  0  0  0  0  0  0  0  0
  161.8720  213.4510  149.5950 N   0  0  0  0  0  2  0  0  0  0  0  0
  160.9800  207.8670  150.2420 C   0  0  0  0  0  0  0  0  0  0  0  0
  161.1160  213.2430  150.7850 C   0  0  0  0  0  0  0  0  0  0  0  0
  160.6620  212.0540  151.2070 C   0  0  0  0  0  3  0  0  0  0  0  0
  161.5290  210.1640  149.6250 C   0  0  0  0  0  0  0  0  0  0  0  0
  161.9980  214.1630  147.2790 C   0  0  0  0  0  2  0  0  0  0  0  0
  160.8710  211.3450  146.7740 C   0  0  0  0  0  3  0  0  0  0  0  0
  160.1230  209.7230  151.5450 C   0  0  0  0  0  3  0  0  0  0  0  0
  161.4240  211.8350  147.8870 C   0  0  0  0  0  0  0  0  0  0  0  0
  161.6340  208.7850  149.4110 C   0  0  0  0  0  3  0  0  0  0  0  0
  161.3870  201.8740  147.8830 C   0  0  0  0  0  3  0  0  0  0  0  0
  161.3150  204.1450  150.8170 C   0  0  0  0  0  3  0  0  0  0  0  0
  161.2550  202.7990  146.8410 C   0  0  0  0  0  3  0  0  0  0  0  0
  161.5210  201.3690  150.2320 O   0  0  0  0  0  1  0  0  0  0  0  0
  161.0790  206.4130  149.9980 C   0  0  0  0  0  0  0  0  0  0  0  0
  161.2100  205.5140  151.0680 C   0  0  0  0  0  3  0  0  0  0  0  0
  161.0590  205.9340  148.7220 N   0  0  0  0  0  0  0  0  0  0  0  0
  161.2890  203.6740  149.5010 C   0  0  0  0  0  0  0  0  0  0  0  0
  161.1400  204.1630  147.1220 C   0  0  0  0  0  3  0  0  0  0  0  0
  161.1540  204.6060  148.4460 C   0  0  0  0  0  0  0  0  0  0  0  0
  161.4020  202.3050  149.2120 C   0  0  0  0  0  0  0  0  0  0  0  0
  160.4060  213.6690  143.9490 O   0  0  0  0  0  0  0  0  0  0  0  0
  163.0980  213.8930  143.3610 O   0  0  0  0  0  1  0  0  0  0  0  0
  161.6580  211.8690  142.5400 O   0  0  0  0  0  0  0  0  0  0  0  0
  161.5970  213.3620  142.7790 P   0  0  1  0  0  0  0  0  0  0  0  0
  161.1720  214.1670  141.3280 O   0  0  0  0  0  0  0  0  0  0  0  0
  160.0500  213.9430  139.3230 F   0  0  0  0  0  0  0  0  0  0  0  0
  161.3010  212.2110  140.0970 F   0  0  0  0  0  0  0  0  0  0  0  0
  160.4970  213.2810  140.4570 C   0  0  0  0  0  0  0  0  0  0  0  0
  159.3940  212.7790  141.1200 F   0  0  0  0  0  0  0  0  0  0  0  0
  160.8650  214.4200  151.6600 C   0  0  0  0  0  2  0  0  0  0  0  0
  159.6150  214.1930  152.4940 C   0  0  0  0  0  2  0  0  0  0  0  0
  159.9910  213.9670  153.9470 C   0  0  0  0  0  2  0  0  0  0  0  0
  158.9460  214.3670  154.7810 O   0  0  0  0  0  0  0  0  0  0  0  0
  159.5220  214.4470  156.0480 C   0  0  0  0  0  2  0  0  0  0  0  0
  158.6610  213.6920  157.0500 C   0  0  0  0  0  2  0  0  0  0  0  0
  155.5200  211.6310  154.7210 C   0  0  0  0  0  2  0  0  0  0  0  0
  157.4530  211.5090  156.3150 C   0  0  0  0  0  0  0  0  0  0  0  0
  156.5390  210.8970  155.5520 C   0  0  0  0  0  3  0  0  0  0  0  0
  155.5320  213.1140  154.9610 C   0  0  0  0  0  0  0  0  0  0  0  0
  156.6170  213.7410  155.7250 C   0  0  0  0  0  3  0  0  0  0  0  0
  154.6260  213.8310  154.4660 O   0  0  0  0  0  0  0  0  0  0  0  0
  157.5270  212.9980  156.3610 C   0  0  0  0  0  0  0  0  0  0  0  0
  158.3910  210.6880  157.0230 N   0  0  0  0  0  2  0  0  0  0  0  0
  160.0990  210.7120  155.4240 O   0  0  0  0  0  0  0  0  0  0  0  0
  159.6270  210.2070  156.4780 C   0  0  0  0  0  0  0  0  0  0  0  0
  161.0460  208.1980  156.4140 C   0  0  0  0  0  1  0  0  0  0  0  0
  160.3450  209.2060  157.1310 O   0  0  0  0  0  0  0  0  0  0  0  0
  2 16  1  0  0  0  0
  3 13  1  0  0  0  0
  4 30  1  6  0  0  0
  4  7  1  0  0  0  0
  4  5  1  0  0  0  0
  5 14  1  0  0  0  0
  6 14  1  6  0  0  0
  6  9  1  0  0  0  0
  7  1  1  6  0  0  0
  7 15  1  0  0  0  0
  8 12  1  0  0  0  0
  8 16  2  0  0  0  0
  9 11  1  0  0  0  0
 10  2  2  0  0  0  0
 11 12  2  0  0  0  0
 11 39  1  0  0  0  0
 13  8  1  0  0  0  0
 15 17  2  0  0  0  0
 17  6  1  0  0  0  0
 17  3  1  0  0  0  0
 18 13  2  0  0  0  0
 18 10  1  0  0  0  0
 19 29  1  0  0  0  0
 20 24  2  0  0  0  0
 21 27  1  0  0  0  0
 21 19  2  0  0  0  0
 23 10  1  0  0  0  0
 23 24  1  0  0  0  0
 25 23  2  0  0  0  0
 26 20  1  0  0  0  0
 27 28  2  0  0  0  0
 28 25  1  0  0  0  0
 28 26  1  0  0  0  0
 29 26  2  0  0  0  0
 29 22  1  0  0  0  0
 33 32  2  6  0  0  0
 33 31  1  0  0  0  0
 33 30  1  0  0  0  0
 34 33  1  0  0  0  0
 35 37  1  0  0  0  0
 36 37  1  0  0  0  0
 37 38  1  0  0  0  0
 37 34  1  0  0  0  0
 39 40  1  0  0  0  0
 40 41  1  0  0  0  0
 41 42  1  0  0  0  0
 42 43  1  0  0  0  0
 43 44  1  0  0  0  0
 45 48  1  0  0  0  0
 45 47  1  0  0  0  0
 46 51  1  0  0  0  0
 46 52  1  0  0  0  0
 47 46  2  0  0  0  0
 48 49  1  0  0  0  0
 49 51  2  0  0  0  0
 50 48  2  0  0  0  0
 51 44  1  0  0  0  0
 53 54  2  0  0  0  0
 54 52  1  0  0  0  0
 54 56  1  0  0  0  0
 55 56  1  0  0  0  0
M  END
>  <MODEL>
8

>  <REMARK>
 VINA RESULT:      -0.3      1.914      2.794
  Name = 
  14 active torsions:
  status: ('A' for Active; 'I' for Inactive)
    1  A    between atoms: O_11  and  C_12
    2  A    between atoms: O_11  and  P_36
    3  A    between atoms: C_13  and  O_24
    4  A    between atoms: C_15  and  C_35
    5  A    between atoms: C_17  and  C_31
    6  A    between atoms: C_17  and  C_56
    7  A    between atoms: O_19  and  C_31
    8  A    between atoms: O_19  and  C_38
    9  A    between atoms: N_21  and  C_25
   10  A    between atoms: O_24  and  P_36
   11  A    between atoms: C_27  and  C_37
   12  A    between atoms: C_27  and  C_55
   13  A    between atoms: C_38  and  C_55
   14  A    between atoms: O_50  and  C_51
                            x       y       z     vdW  Elec       q    Type
                         _______ _______ _______ _____ _____    ______ ____

>  <TORSDO>
F 14

$$$$
=
 OpenBabel11052409543D

 56 61  0  0  1  0  0  0  0  0999 V2000
  158.8680  211.5220  145.0080 O   0  0  0  0  0  1  0  0  0  0  0  0
  160.4860  207.5730  150.7550 C   0  0  0  0  0  3  0  0  0  0  0  0
  162.0230  210.6460  148.3620 O   0  0  0  0  0  0  0  0  0  0  0  0
  160.3010  213.4050  145.4430 C   0  0  1  0  0  3  0  0  0  0  0  0
  160.5710  214.4520  146.5200 C   0  0  0  0  0  2  0  0  0  0  0  0
  161.0920  212.9330  148.4370 C   0  0  1  0  0  3  0  0  0  0  0  0
  159.5250  212.2160  146.0230 C   0  0  2  0  0  3  0  0  0  0  0  0
  160.9530  209.9510  150.4770 C   0  0  0  0  0  0  0  0  0  0  0  0
  161.8660  212.9210  149.6650 N   0  0  0  0  0  2  0  0  0  0  0  0
  161.0840  207.2850  149.5240 C   0  0  0  0  0  0  0  0  0  0  0  0
  161.2980  212.5060  150.9040 C   0  0  0  0  0  0  0  0  0  0  0  0
  160.9120  211.2540  151.1900 C   0  0  0  0  0  3  0  0  0  0  0  0
  161.5330  209.6640  149.2130 C   0  0  0  0  0  0  0  0  0  0  0  0
  161.6440  213.9980  147.5020 C   0  0  0  0  0  2  0  0  0  0  0  0
  160.4550  211.2700  146.7200 C   0  0  0  0  0  3  0  0  0  0  0  0
  160.4310  208.8860  151.2220 C   0  0  0  0  0  3  0  0  0  0  0  0
  161.1680  211.5890  147.8030 C   0  0  0  0  0  0  0  0  0  0  0  0
  161.6050  208.3400  148.7640 C   0  0  0  0  0  3  0  0  0  0  0  0
  161.0810  200.8890  148.6640 C   0  0  0  0  0  3  0  0  0  0  0  0
  161.3980  204.2970  147.2290 C   0  0  0  0  0  3  0  0  0  0  0  0
  160.8760  201.1980  150.0130 C   0  0  0  0  0  3  0  0  0  0  0  0
  161.4780  201.5790  146.3930 O   0  0  0  0  0  1  0  0  0  0  0  0
  161.1460  205.8920  149.0350 C   0  0  0  0  0  0  0  0  0  0  0  0
  161.3540  205.6190  147.6740 C   0  0  0  0  0  3  0  0  0  0  0  0
  160.9860  204.8560  149.9070 N   0  0  0  0  0  0  0  0  0  0  0  0
  161.2350  203.2490  148.1410 C   0  0  0  0  0  0  0  0  0  0  0  0
  160.8480  202.5310  150.4320 C   0  0  0  0  0  3  0  0  0  0  0  0
  161.0290  203.5590  149.5040 C   0  0  0  0  0  0  0  0  0  0  0  0
  161.2630  201.9080  147.7250 C   0  0  0  0  0  0  0  0  0  0  0  0
  159.5720  214.0040  144.4090 O   0  0  0  0  0  0  0  0  0  0  0  0
  161.9490  214.3620  143.0440 O   0  0  0  0  0  1  0  0  0  0  0  0
  160.5890  212.1320  142.9070 O   0  0  0  0  0  0  0  0  0  0  0  0
  160.4200  213.6340  142.9850 P   0  0  1  0  0  0  0  0  0  0  0  0
  159.5170  214.1890  141.6390 O   0  0  0  0  0  0  0  0  0  0  0  0
  158.6620  212.0520  141.8090 F   0  0  0  0  0  0  0  0  0  0  0  0
  157.8160  213.4670  140.2450 F   0  0  0  0  0  0  0  0  0  0  0  0
  158.9540  213.0950  140.9430 C   0  0  0  0  0  0  0  0  0  0  0  0
  159.8840  212.6410  140.0270 F   0  0  0  0  0  0  0  0  0  0  0  0
  161.1800  213.5220  151.9860 C   0  0  0  0  0  2  0  0  0  0  0  0
  159.7320  213.6450  152.4300 C   0  0  0  0  0  2  0  0  0  0  0  0
  159.3680  212.4900  153.3470 C   0  0  0  0  0  2  0  0  0  0  0  0
  159.2190  212.9480  154.6570 O   0  0  0  0  0  0  0  0  0  0  0  0
  158.7650  211.8360  155.3650 C   0  0  0  0  0  2  0  0  0  0  0  0
  159.8750  211.3150  156.2660 C   0  0  0  0  0  2  0  0  0  0  0  0
  160.6870  207.1570  155.0060 C   0  0  0  0  0  2  0  0  0  0  0  0
  161.5170  209.4900  155.4050 C   0  0  0  0  0  0  0  0  0  0  0  0
  161.7280  208.2430  154.9640 C   0  0  0  0  0  3  0  0  0  0  0  0
  159.4410  207.5700  155.7380 C   0  0  0  0  0  0  0  0  0  0  0  0
  159.2210  208.9730  156.1090 C   0  0  0  0  0  3  0  0  0  0  0  0
  158.5590  206.7130  155.9980 O   0  0  0  0  0  0  0  0  0  0  0  0
  160.1870  209.8840  155.9540 C   0  0  0  0  0  0  0  0  0  0  0  0
  162.5830  210.4380  155.2670 N   0  0  0  0  0  2  0  0  0  0  0  0
  163.7290  209.9090  157.2380 O   0  0  0  0  0  0  0  0  0  0  0  0
  163.5730  210.7030  156.2710 C   0  0  0  0  0  0  0  0  0  0  0  0
  165.5540  211.8180  155.3310 C   0  0  0  0  0  1  0  0  0  0  0  0
  164.4040  211.8170  156.1670 O   0  0  0  0  0  0  0  0  0  0  0  0
  2 16  1  0  0  0  0
  3 13  1  0  0  0  0
  4 30  1  6  0  0  0
  4  7  1  0  0  0  0
  4  5  1  0  0  0  0
  5 14  1  0  0  0  0
  6 14  1  6  0  0  0
  6  9  1  0  0  0  0
  7  1  1  6  0  0  0
  7 15  1  0  0  0  0
  8 12  1  0  0  0  0
  8 16  2  0  0  0  0
  9 11  1  0  0  0  0
 10  2  2  0  0  0  0
 11 12  2  0  0  0  0
 11 39  1  0  0  0  0
 13  8  1  0  0  0  0
 15 17  2  0  0  0  0
 17  3  1  0  0  0  0
 17  6  1  0  0  0  0
 18 13  2  0  0  0  0
 18 10  1  0  0  0  0
 19 21  1  0  0  0  0
 20 24  2  0  0  0  0
 20 26  1  0  0  0  0
 21 27  2  0  0  0  0
 22 29  1  0  0  0  0
 23 10  1  0  0  0  0
 23 25  2  0  0  0  0
 24 23  1  0  0  0  0
 26 28  2  0  0  0  0
 28 25  1  0  0  0  0
 28 27  1  0  0  0  0
 29 26  1  0  0  0  0
 29 19  2  0  0  0  0
 33 32  2  6  0  0  0
 33 31  1  0  0  0  0
 33 30  1  0  0  0  0
 34 33  1  0  0  0  0
 36 37  1  0  0  0  0
 37 34  1  0  0  0  0
 37 35  1  0  0  0  0
 38 37  1  0  0  0  0
 39 40  1  0  0  0  0
 40 41  1  0  0  0  0
 41 42  1  0  0  0  0
 42 43  1  0  0  0  0
 43 44  1  0  0  0  0
 45 48  1  0  0  0  0
 46 51  1  0  0  0  0
 47 45  1  0  0  0  0
 47 46  2  0  0  0  0
 48 50  2  0  0  0  0
 48 49  1  0  0  0  0
 51 49  2  0  0  0  0
 51 44  1  0  0  0  0
 52 46  1  0  0  0  0
 52 54  1  0  0  0  0
 54 53  2  0  0  0  0
 55 56  1  0  0  0  0
 56 54  1  0  0  0  0
M  END
>  <MODEL>
9

>  <REMARK>
 VINA RESULT:      -0.2      1.629      3.203
  Name = 
  14 active torsions:
  status: ('A' for Active; 'I' for Inactive)
    1  A    between atoms: O_11  and  C_12
    2  A    between atoms: O_11  and  P_36
    3  A    between atoms: C_13  and  O_24
    4  A    between atoms: C_15  and  C_35
    5  A    between atoms: C_17  and  C_31
    6  A    between atoms: C_17  and  C_56
    7  A    between atoms: O_19  and  C_31
    8  A    between atoms: O_19  and  C_38
    9  A    between atoms: N_21  and  C_25
   10  A    between atoms: O_24  and  P_36
   11  A    between atoms: C_27  and  C_37
   12  A    between atoms: C_27  and  C_55
   13  A    between atoms: C_38  and  C_55
   14  A    between atoms: O_50  and  C_51
                            x       y       z     vdW  Elec       q    Type
                         _______ _______ _______ _____ _____    ______ ____

>  <TORSDO>
F 14

$$$$
