=
 OpenBabel11042422553D

 62 66  0  0  1  0  0  0  0  0999 V2000
  161.4780  203.4370  149.4760 C   0  0  0  0  0  0  0  0  0  0  0  0
  161.9970  204.9290  148.8880 S   0  0  0  0  0  0  0  0  0  0  0  0
  161.7180  205.7700  150.3220 C   0  0  0  0  0  0  0  0  0  0  0  0
  161.7870  207.5410  151.9970 N   0  0  0  0  0  0  0  0  0  0  0  0
  160.7020  205.4060  152.5820 C   0  0  0  0  0  2  0  0  0  0  0  0
  160.4470  202.6250  151.5110 F   0  0  0  0  0  0  0  0  0  0  0  0
  161.0220  203.6060  150.7830 C   0  0  0  0  0  0  0  0  0  0  0  0
  161.1740  204.9090  151.2550 C   0  0  0  0  0  0  0  0  0  0  0  0
  161.7850  207.2480  150.5600 C   0  0  1  0  0  3  0  0  0  0  0  0
  161.3010  206.7520  152.9200 C   0  0  0  0  0  0  0  0  0  0  0  0
  161.3730  202.2100  148.6380 C   0  0  0  0  0  2  0  0  0  0  0  0
  159.3340  201.5450  147.8350 N   0  0  0  0  0  1  0  0  0  0  0  0
  160.4200  202.3820  147.5460 N   0  0  0  0  0  0  0  0  0  0  0  0
  161.0280  201.8860  146.3080 C   0  0  0  0  0  3  0  0  0  0  0  0
  160.8530  202.8150  145.2710 O   0  0  0  0  0  0  0  0  0  0  0  0
  162.0400  203.5590  145.2420 C   0  0  0  0  0  1  0  0  0  0  0  0
  160.4320  200.6720  145.9440 O   0  0  0  0  0  0  0  0  0  0  0  0
  160.2440  200.7660  144.5610 C   0  0  0  0  0  1  0  0  0  0  0  0
  163.0180  207.8620  149.9160 C   0  0  0  0  0  2  0  0  0  0  0  0
  162.5510  208.7560  148.4230 S   0  0  0  0  0  0  0  0  0  0  0  0
  160.3560  209.5670  149.5050 F   0  0  0  0  0  0  0  0  0  0  0  0
  161.5580  209.9090  148.9570 C   0  0  2  0  0  3  0  0  0  0  0  0
  161.9080  211.3440  148.7330 C   0  0  0  0  0  2  0  0  0  0  0  0
  160.7020  212.2150  148.8840 C   0  0  0  0  0  0  0  0  0  0  0  0
  159.9240  212.6000  147.7350 N   0  0  0  0  0  0  0  0  0  0  0  0
  160.3450  212.5680  150.0430 O   0  0  0  0  0  0  0  0  0  0  0  0
  158.5340  213.0180  147.9260 C   0  0  1  0  0  3  0  0  0  0  0  0
  158.4650  214.4390  148.4500 C   0  0  0  0  0  1  0  0  0  0  0  0
  157.7130  212.8850  146.6470 C   0  0  0  0  0  2  0  0  0  0  0  0
  157.3200  214.2480  146.1030 C   0  0  0  0  0  2  0  0  0  0  0  0
  156.5500  214.0950  144.9530 O   0  0  0  0  0  1  0  0  0  0  0  0
  160.5170  212.4940  146.3980 C   0  0  0  0  0  2  0  0  0  0  0  0
  161.9770  213.6980  143.7240 C   0  0  1  0  0  3  0  0  0  0  0  0
  161.0600  214.2960  144.7770 C   0  0  0  0  0  2  0  0  0  0  0  0
  162.8790  213.1920  145.9420 C   0  0  0  0  0  2  0  0  0  0  0  0
  161.4440  213.6700  146.1010 C   0  0  2  0  0  3  0  0  0  0  0  0
  163.2060  213.2060  144.4600 C   0  0  0  0  0  2  0  0  0  0  0  0
  161.3240  212.5670  143.0790 N   0  0  0  0  0  2  0  0  0  0  0  0
  161.0920  212.5010  141.6670 C   0  0  0  0  0  0  0  0  0  0  0  0
  161.3840  213.4730  140.9220 O   0  0  0  0  0  0  0  0  0  0  0  0
  160.5370  211.2560  141.0720 C   0  0  0  0  0  2  0  0  0  0  0  0
  161.6400  210.4410  140.4110 C   0  0  0  0  0  2  0  0  0  0  0  0
  161.5430  210.5510  138.9590 N   0  0  0  0  0  1  0  0  0  0  0  0
  161.3270  207.1410  154.2590 O   0  0  0  0  0  0  0  0  0  0  0  0
  159.2990  209.2120  155.6800 C   0  0  1  0  0  3  0  0  0  0  0  0
  160.1620  207.1740  155.0730 C   0  0  1  0  0  3  0  0  0  0  0  0
  160.5440  207.4430  156.4700 C   0  0  0  0  0  0  0  0  0  0  0  0
  159.3310  208.2350  154.6500 O   0  0  0  0  0  0  0  0  0  0  0  0
  161.1760  206.5790  157.2610 C   0  0  0  0  0  2  0  0  0  0  0  0
  160.0260  208.7270  156.9220 C   0  0  0  0  0  2  0  0  0  0  0  0
  159.8560  210.5580  155.1920 C   0  0  1  0  0  3  0  0  0  0  0  0
  156.7630  213.4630  154.4820 C   0  0  0  0  0  3  0  0  0  0  0  0
  156.4590  212.2510  155.1130 C   0  0  0  0  0  3  0  0  0  0  0  0
  158.0690  213.7290  154.0620 C   0  0  0  0  0  3  0  0  0  0  0  0
  159.0730  212.7820  154.2720 C   0  0  0  0  0  3  0  0  0  0  0  0
  158.7740  211.5600  154.8970 C   0  0  0  0  0  0  0  0  0  0  0  0
  157.4640  211.3040  155.3230 C   0  0  0  0  0  3  0  0  0  0  0  0
  160.7620  211.0650  156.1290 O   0  0  0  0  0  0  0  0  0  0  0  0
  162.0140  210.9180  155.5270 C   0  0  0  0  0  2  0  0  0  0  0  0
  163.1070  209.8010  157.2610 C   0  0  0  0  0  1  0  0  0  0  0  0
  164.3180  211.1780  155.8240 C   0  0  0  0  0  1  0  0  0  0  0  0
  163.0570  211.0580  156.5330 N   0  0  0  0  0  0  0  0  0  0  0  0
  1  7  2  0  0  0  0
  2  1  1  0  0  0  0
  2  3  1  0  0  0  0
  3  9  1  0  0  0  0
  3  8  2  0  0  0  0
  4 10  2  0  0  0  0
  5 10  1  0  0  0  0
  7  8  1  0  0  0  0
  7  6  1  0  0  0  0
  8  5  1  0  0  0  0
  9 19  1  1  0  0  0
  9  4  1  0  0  0  0
 10 44  1  0  0  0  0
 11  1  1  0  0  0  0
 13 12  1  0  0  0  0
 13 11  1  0  0  0  0
 14 13  1  0  0  0  0
 15 14  1  0  0  0  0
 16 15  1  0  0  0  0
 17 14  1  0  0  0  0
 18 17  1  0  0  0  0
 20 22  1  0  0  0  0
 20 19  1  0  0  0  0
 22 21  1  6  0  0  0
 23 24  1  0  0  0  0
 23 22  1  0  0  0  0
 24 26  2  0  0  0  0
 25 27  1  0  0  0  0
 25 24  1  0  0  0  0
 27 28  1  6  0  0  0
 29 27  1  0  0  0  0
 30 29  1  0  0  0  0
 31 30  1  0  0  0  0
 32 25  1  0  0  0  0
 33 38  1  1  0  0  0
 33 37  1  0  0  0  0
 33 34  1  0  0  0  0
 34 36  1  0  0  0  0
 35 36  1  0  0  0  0
 36 32  1  6  0  0  0
 37 35  1  0  0  0  0
 39 38  1  0  0  0  0
 40 39  2  0  0  0  0
 41 39  1  0  0  0  0
 42 41  1  0  0  0  0
 43 42  1  0  0  0  0
 45 51  1  6  0  0  0
 45 50  1  0  0  0  0
 46 44  1  6  0  0  0
 46 47  1  0  0  0  0
 47 50  1  0  0  0  0
 47 49  2  0  0  0  0
 48 46  1  0  0  0  0
 48 45  1  0  0  0  0
 51 58  1  1  0  0  0
 52 53  1  0  0  0  0
 53 57  2  0  0  0  0
 54 55  1  0  0  0  0
 54 52  2  0  0  0  0
 55 56  2  0  0  0  0
 56 51  1  0  0  0  0
 56 57  1  0  0  0  0
 59 58  1  0  0  0  0
 59 62  1  0  0  0  0
 61 62  1  0  0  0  0
 62 60  1  0  0  0  0
M  END
>  <MODEL>
1

>  <REMARK>
 VINA RESULT:      -2.3      0.000      0.000
  Name = 
  24 active torsions:
  status: ('A' for Active; 'I' for Inactive)
    1  A    between atoms: C_1  and  C_24
    2  A    between atoms: C_2  and  N_8
    3  A    between atoms: C_3  and  C_11
    4  A    between atoms: O_6  and  C_10
    5  A    between atoms: C_7  and  C_57
    6  A    between atoms: C_10  and  O_20
    7  A    between atoms: C_10  and  N_59
    8  A    between atoms: C_11  and  C_55
    9  A    between atoms: N_12  and  C_19
   10  A    between atoms: N_12  and  C_61
   11  A    between atoms: C_16  and  C_44
   12  A    between atoms: C_19  and  C_35
   13  A    between atoms: C_24  and  N_59
   14  A    between atoms: C_25  and  C_47
   15  A    between atoms: O_27  and  C_28
   16  A    between atoms: O_27  and  C_47
   17  A    between atoms: C_28  and  N_42
   18  A    between atoms: C_30  and  O_48
   19  A    between atoms: C_36  and  C_47
   20  A    between atoms: C_37  and  S_45
   21  A    between atoms: C_37  and  C_58
   22  A    between atoms: C_44  and  C_49
   23  A    between atoms: O_48  and  C_60
   24  A    between atoms: C_57  and  C_61
                            x       y       z     vdW  Elec       q    Type
                         _______ _______ _______ _____ _____    ______ ____

>  <TORSDO>
F 24

$$$$
=
 OpenBabel11042422553D

 62 66  0  0  1  0  0  0  0  0999 V2000
  161.3820  203.5840  149.8570 C   0  0  0  0  0  0  0  0  0  0  0  0
  161.6780  205.0430  149.0660 S   0  0  0  0  0  0  0  0  0  0  0  0
  161.4630  206.0090  150.4300 C   0  0  0  0  0  0  0  0  0  0  0  0
  161.5210  207.9540  151.9000 N   0  0  0  0  0  0  0  0  0  0  0  0
  160.7300  205.8060  152.8170 C   0  0  0  0  0  2  0  0  0  0  0  0
  160.6590  202.9110  152.0670 F   0  0  0  0  0  0  0  0  0  0  0  0
  161.0490  203.8540  151.1830 C   0  0  0  0  0  0  0  0  0  0  0  0
  161.1120  205.2110  151.5010 C   0  0  0  0  0  0  0  0  0  0  0  0
  161.4000  207.5040  150.5090 C   0  0  1  0  0  3  0  0  0  0  0  0
  161.2170  207.2310  152.9470 C   0  0  0  0  0  0  0  0  0  0  0  0
  161.3200  202.2670  149.1630 C   0  0  0  0  0  2  0  0  0  0  0  0
  159.3260  201.4260  148.4110 N   0  0  0  0  0  1  0  0  0  0  0  0
  160.3730  202.2860  148.0530 N   0  0  0  0  0  0  0  0  0  0  0  0
  161.0210  201.7070  146.8720 C   0  0  0  0  0  3  0  0  0  0  0  0
  160.6790  202.4310  145.7210 O   0  0  0  0  0  0  0  0  0  0  0  0
  161.4970  203.5680  145.7470 C   0  0  0  0  0  1  0  0  0  0  0  0
  160.6130  200.3760  146.7160 O   0  0  0  0  0  0  0  0  0  0  0  0
  161.7720  199.6200  146.9190 C   0  0  0  0  0  1  0  0  0  0  0  0
  162.4890  208.1550  149.6710 C   0  0  0  0  0  2  0  0  0  0  0  0
  161.7470  209.0990  148.3270 S   0  0  0  0  0  0  0  0  0  0  0  0
  160.8220  210.8560  149.9710 F   0  0  0  0  0  0  0  0  0  0  0  0
  161.6470  210.5970  148.9150 C   0  0  2  0  0  3  0  0  0  0  0  0
  162.3620  211.7090  148.2210 C   0  0  0  0  0  2  0  0  0  0  0  0
  161.6430  213.0060  148.4170 C   0  0  0  0  0  0  0  0  0  0  0  0
  160.6030  213.4160  147.5090 N   0  0  0  0  0  0  0  0  0  0  0  0
  161.9280  213.7160  149.4220 O   0  0  0  0  0  0  0  0  0  0  0  0
  159.6120  214.3940  147.9600 C   0  0  1  0  0  3  0  0  0  0  0  0
  158.2740  214.1600  147.2860 C   0  0  0  0  0  1  0  0  0  0  0  0
  159.4480  214.3900  149.4770 C   0  0  0  0  0  2  0  0  0  0  0  0
  157.9950  214.1860  149.8720 C   0  0  0  0  0  2  0  0  0  0  0  0
  157.8590  214.2980  151.2520 O   0  0  0  0  0  1  0  0  0  0  0  0
  160.5180  212.7910  146.1860 C   0  0  0  0  0  2  0  0  0  0  0  0
  159.4000  212.6070  143.1120 C   0  0  1  0  0  3  0  0  0  0  0  0
  158.8920  212.0870  144.4450 C   0  0  0  0  0  2  0  0  0  0  0  0
  159.3530  214.4530  144.7180 C   0  0  0  0  0  2  0  0  0  0  0  0
  159.2120  213.1440  145.4800 C   0  0  2  0  0  3  0  0  0  0  0  0
  159.4760  214.1140  143.2440 C   0  0  0  0  0  2  0  0  0  0  0  0
  160.7350  212.0850  142.8500 N   0  0  0  0  0  2  0  0  0  0  0  0
  161.2170  211.8030  141.5310 C   0  0  0  0  0  0  0  0  0  0  0  0
  160.4630  211.9280  140.5310 O   0  0  0  0  0  0  0  0  0  0  0  0
  162.6350  211.3950  141.3400 C   0  0  0  0  0  2  0  0  0  0  0  0
  162.7860  210.5590  140.0780 C   0  0  0  0  0  2  0  0  0  0  0  0
  161.8330  209.4550  140.0910 N   0  0  0  0  0  1  0  0  0  0  0  0
  161.3410  207.7670  154.2290 O   0  0  0  0  0  0  0  0  0  0  0  0
  159.1350  209.1590  156.1300 C   0  0  1  0  0  3  0  0  0  0  0  0
  160.4310  207.4670  155.2790 C   0  0  1  0  0  3  0  0  0  0  0  0
  161.0080  207.8920  156.5670 C   0  0  0  0  0  0  0  0  0  0  0  0
  159.2410  208.2030  155.0850 O   0  0  0  0  0  0  0  0  0  0  0  0
  162.0330  207.2950  157.1690 C   0  0  0  0  0  2  0  0  0  0  0  0
  160.2300  208.9680  157.1650 C   0  0  0  0  0  2  0  0  0  0  0  0
  159.1260  210.5920  155.5780 C   0  0  1  0  0  3  0  0  0  0  0  0
  155.4810  212.6220  156.6300 C   0  0  0  0  0  3  0  0  0  0  0  0
  155.4390  211.4550  155.8580 C   0  0  0  0  0  3  0  0  0  0  0  0
  156.7080  213.1440  157.0490 C   0  0  0  0  0  3  0  0  0  0  0  0
  157.8950  212.5010  156.6940 C   0  0  0  0  0  3  0  0  0  0  0  0
  157.8620  211.3350  155.9120 C   0  0  0  0  0  0  0  0  0  0  0  0
  156.6280  210.8120  155.5030 C   0  0  0  0  0  3  0  0  0  0  0  0
  160.2480  211.2860  156.0420 O   0  0  0  0  0  0  0  0  0  0  0  0
  160.7200  211.9850  154.9270 C   0  0  0  0  0  2  0  0  0  0  0  0
  159.9100  212.1570  152.7460 C   0  0  0  0  0  1  0  0  0  0  0  0
  161.7160  210.7610  153.2030 C   0  0  0  0  0  1  0  0  0  0  0  0
  160.4400  211.2200  153.7210 N   0  0  0  0  0  0  0  0  0  0  0  0
  1  7  2  0  0  0  0
  2  1  1  0  0  0  0
  2  3  1  0  0  0  0
  3  9  1  0  0  0  0
  3  8  2  0  0  0  0
  4 10  2  0  0  0  0
  5 10  1  0  0  0  0
  7  8  1  0  0  0  0
  7  6  1  0  0  0  0
  8  5  1  0  0  0  0
  9 19  1  6  0  0  0
  9  4  1  0  0  0  0
 10 44  1  0  0  0  0
 11  1  1  0  0  0  0
 13 12  1  0  0  0  0
 13 11  1  0  0  0  0
 14 13  1  0  0  0  0
 15 16  1  0  0  0  0
 15 14  1  0  0  0  0
 17 14  1  0  0  0  0
 17 18  1  0  0  0  0
 20 22  1  0  0  0  0
 20 19  1  0  0  0  0
 22 21  1  6  0  0  0
 23 24  1  0  0  0  0
 23 22  1  0  0  0  0
 24 26  2  0  0  0  0
 25 27  1  0  0  0  0
 25 24  1  0  0  0  0
 27 28  1  6  0  0  0
 27 29  1  0  0  0  0
 29 30  1  0  0  0  0
 30 31  1  0  0  0  0
 32 25  1  0  0  0  0
 33 38  1  1  0  0  0
 33 37  1  0  0  0  0
 33 34  1  0  0  0  0
 34 36  1  0  0  0  0
 35 36  1  0  0  0  0
 36 32  1  6  0  0  0
 37 35  1  0  0  0  0
 39 38  1  0  0  0  0
 40 39  2  0  0  0  0
 41 39  1  0  0  0  0
 42 43  1  0  0  0  0
 42 41  1  0  0  0  0
 45 51  1  6  0  0  0
 45 50  1  0  0  0  0
 46 44  1  6  0  0  0
 46 47  1  0  0  0  0
 47 50  1  0  0  0  0
 47 49  2  0  0  0  0
 48 46  1  0  0  0  0
 48 45  1  0  0  0  0
 51 56  1  0  0  0  0
 51 58  1  1  0  0  0
 52 54  1  0  0  0  0
 53 52  2  0  0  0  0
 55 54  2  0  0  0  0
 56 55  1  0  0  0  0
 57 53  1  0  0  0  0
 57 56  2  0  0  0  0
 59 58  1  0  0  0  0
 60 62  1  0  0  0  0
 61 62  1  0  0  0  0
 62 59  1  0  0  0  0
M  END
>  <MODEL>
2

>  <REMARK>
 VINA RESULT:      -2.2      1.670      2.089
  Name = 
  24 active torsions:
  status: ('A' for Active; 'I' for Inactive)
    1  A    between atoms: C_1  and  C_24
    2  A    between atoms: C_2  and  N_8
    3  A    between atoms: C_3  and  C_11
    4  A    between atoms: O_6  and  C_10
    5  A    between atoms: C_7  and  C_57
    6  A    between atoms: C_10  and  O_20
    7  A    between atoms: C_10  and  N_59
    8  A    between atoms: C_11  and  C_55
    9  A    between atoms: N_12  and  C_19
   10  A    between atoms: N_12  and  C_61
   11  A    between atoms: C_16  and  C_44
   12  A    between atoms: C_19  and  C_35
   13  A    between atoms: C_24  and  N_59
   14  A    between atoms: C_25  and  C_47
   15  A    between atoms: O_27  and  C_28
   16  A    between atoms: O_27  and  C_47
   17  A    between atoms: C_28  and  N_42
   18  A    between atoms: C_30  and  O_48
   19  A    between atoms: C_36  and  C_47
   20  A    between atoms: C_37  and  S_45
   21  A    between atoms: C_37  and  C_58
   22  A    between atoms: C_44  and  C_49
   23  A    between atoms: O_48  and  C_60
   24  A    between atoms: C_57  and  C_61
                            x       y       z     vdW  Elec       q    Type
                         _______ _______ _______ _____ _____    ______ ____

>  <TORSDO>
F 24

$$$$
=
 OpenBabel11042422553D

 62 66  0  0  1  0  0  0  0  0999 V2000
  160.9410  210.1990  153.6290 C   0  0  0  0  0  0  0  0  0  0  0  0
  161.1040  208.7650  152.7590 S   0  0  0  0  0  0  0  0  0  0  0  0
  161.4080  209.5120  151.2780 C   0  0  0  0  0  0  0  0  0  0  0  0
  162.0870  209.8180  148.9570 N   0  0  0  0  0  0  0  0  0  0  0  0
  161.4350  211.8030  150.2660 C   0  0  0  0  0  2  0  0  0  0  0  0
  160.8820  212.5630  153.1060 F   0  0  0  0  0  0  0  0  0  0  0  0
  161.0600  211.2730  152.7480 C   0  0  0  0  0  0  0  0  0  0  0  0
  161.3370  210.8820  151.4380 C   0  0  0  0  0  0  0  0  0  0  0  0
  161.5030  208.8820  149.9230 C   0  0  1  0  0  3  0  0  0  0  0  0
  162.0620  211.1210  149.0710 C   0  0  0  0  0  0  0  0  0  0  0  0
  160.5520  210.2530  155.0660 C   0  0  0  0  0  2  0  0  0  0  0  0
  162.0540  211.3020  156.4410 N   0  0  0  0  0  1  0  0  0  0  0  0
  160.9050  211.5320  155.6740 N   0  0  0  0  0  0  0  0  0  0  0  0
  159.8400  211.9230  156.6010 C   0  0  0  0  0  3  0  0  0  0  0  0
  158.7320  211.0740  156.4600 O   0  0  0  0  0  0  0  0  0  0  0  0
  157.6890  211.9020  156.0230 C   0  0  0  0  0  1  0  0  0  0  0  0
  159.4470  213.2410  156.3390 O   0  0  0  0  0  0  0  0  0  0  0  0
  160.2400  214.0260  157.1830 C   0  0  0  0  0  1  0  0  0  0  0  0
  162.3310  207.6070  149.9550 C   0  0  0  0  0  2  0  0  0  0  0  0
  161.5180  206.3220  148.9890 S   0  0  0  0  0  0  0  0  0  0  0  0
  162.1640  207.4720  146.7750 F   0  0  0  0  0  0  0  0  0  0  0  0
  162.2760  206.3670  147.5670 C   0  0  2  0  0  3  0  0  0  0  0  0
  162.9930  205.1520  147.0760 C   0  0  0  0  0  2  0  0  0  0  0  0
  162.3330  204.6060  145.8500 C   0  0  0  0  0  0  0  0  0  0  0  0
  161.7340  203.2970  145.8580 N   0  0  0  0  0  0  0  0  0  0  0  0
  162.2650  205.3320  144.8180 O   0  0  0  0  0  0  0  0  0  0  0  0
  160.7080  202.9790  144.8630 C   0  0  1  0  0  3  0  0  0  0  0  0
  160.3150  201.5170  144.9390 C   0  0  0  0  0  1  0  0  0  0  0  0
  159.4750  203.8670  145.0060 C   0  0  0  0  0  2  0  0  0  0  0  0
  158.2110  203.1160  144.6230 C   0  0  0  0  0  2  0  0  0  0  0  0
  157.3790  203.9410  143.8720 O   0  0  0  0  0  1  0  0  0  0  0  0
  162.1120  202.3410  146.9040 C   0  0  0  0  0  2  0  0  0  0  0  0
  160.1680  202.0700  149.5270 C   0  0  1  0  0  3  0  0  0  0  0  0
  159.9070  202.2710  148.0450 C   0  0  0  0  0  2  0  0  0  0  0  0
  161.3920  200.3660  148.2660 C   0  0  0  0  0  2  0  0  0  0  0  0
  160.9380  201.4500  147.3000 C   0  0  2  0  0  3  0  0  0  0  0  0
  160.9150  200.7580  149.6530 C   0  0  0  0  0  2  0  0  0  0  0  0
  161.0080  203.1460  150.0350 N   0  0  0  0  0  2  0  0  0  0  0  0
  161.0040  203.5570  151.4070 C   0  0  0  0  0  0  0  0  0  0  0  0
  160.2020  203.0430  152.2300 O   0  0  0  0  0  0  0  0  0  0  0  0
  161.9850  204.5760  151.8700 C   0  0  0  0  0  2  0  0  0  0  0  0
  161.4700  205.2870  153.1140 C   0  0  0  0  0  2  0  0  0  0  0  0
  162.5460  206.0520  153.7350 N   0  0  0  0  0  1  0  0  0  0  0  0
  162.6230  211.9240  148.0780 O   0  0  0  0  0  0  0  0  0  0  0  0
  160.4410  214.3000  148.1830 C   0  0  1  0  0  3  0  0  0  0  0  0
  162.5240  213.3420  148.0890 C   0  0  1  0  0  3  0  0  0  0  0  0
  162.1710  213.8210  146.7400 C   0  0  0  0  0  0  0  0  0  0  0  0
  161.4820  213.7270  148.9610 O   0  0  0  0  0  0  0  0  0  0  0  0
  162.9900  213.8000  145.6920 C   0  0  0  0  0  2  0  0  0  0  0  0
  160.8550  214.4440  146.7290 C   0  0  0  0  0  2  0  0  0  0  0  0
  159.1360  213.5010  148.3210 C   0  0  1  0  0  3  0  0  0  0  0  0
  156.8570  214.4200  151.8520 C   0  0  0  0  0  3  0  0  0  0  0  0
  156.2470  214.4520  150.5930 C   0  0  0  0  0  3  0  0  0  0  0  0
  158.2140  214.1070  151.9690 C   0  0  0  0  0  3  0  0  0  0  0  0
  158.9640  213.8270  150.8250 C   0  0  0  0  0  3  0  0  0  0  0  0
  158.3610  213.8660  149.5570 C   0  0  0  0  0  0  0  0  0  0  0  0
  156.9970  214.1720  149.4490 C   0  0  0  0  0  3  0  0  0  0  0  0
  158.3530  213.6710  147.1750 O   0  0  0  0  0  0  0  0  0  0  0  0
  158.0140  212.3740  146.7820 C   0  0  0  0  0  2  0  0  0  0  0  0
  156.2940  213.3720  145.5600 C   0  0  0  0  0  1  0  0  0  0  0  0
  158.3520  212.9680  144.5470 C   0  0  0  0  0  1  0  0  0  0  0  0
  157.3810  212.4120  145.4710 N   0  0  0  0  0  0  0  0  0  0  0  0
  1 11  1  0  0  0  0
  2  1  1  0  0  0  0
  3  8  2  0  0  0  0
  3  2  1  0  0  0  0
  4 10  2  0  0  0  0
  4  9  1  0  0  0  0
  5  8  1  0  0  0  0
  7  6  1  0  0  0  0
  7  1  2  0  0  0  0
  8  7  1  0  0  0  0
  9 19  1  1  0  0  0
  9  3  1  0  0  0  0
 10  5  1  0  0  0  0
 11 13  1  0  0  0  0
 13 12  1  0  0  0  0
 13 14  1  0  0  0  0
 15 14  1  0  0  0  0
 16 15  1  0  0  0  0
 17 14  1  0  0  0  0
 17 18  1  0  0  0  0
 20 19  1  0  0  0  0
 22 21  1  6  0  0  0
 22 20  1  0  0  0  0
 23 22  1  0  0  0  0
 24 25  1  0  0  0  0
 24 23  1  0  0  0  0
 25 32  1  0  0  0  0
 26 24  2  0  0  0  0
 27 28  1  1  0  0  0
 27 29  1  0  0  0  0
 27 25  1  0  0  0  0
 30 29  1  0  0  0  0
 31 30  1  0  0  0  0
 33 37  1  0  0  0  0
 33 38  1  6  0  0  0
 34 33  1  0  0  0  0
 35 37  1  0  0  0  0
 36 32  1  1  0  0  0
 36 34  1  0  0  0  0
 36 35  1  0  0  0  0
 38 39  1  0  0  0  0
 39 41  1  0  0  0  0
 39 40  2  0  0  0  0
 41 42  1  0  0  0  0
 42 43  1  0  0  0  0
 44 10  1  0  0  0  0
 45 51  1  6  0  0  0
 45 48  1  0  0  0  0
 46 44  1  6  0  0  0
 46 48  1  0  0  0  0
 47 46  1  0  0  0  0
 49 47  2  0  0  0  0
 50 47  1  0  0  0  0
 50 45  1  0  0  0  0
 51 58  1  6  0  0  0
 51 56  1  0  0  0  0
 52 54  1  0  0  0  0
 53 52  2  0  0  0  0
 55 54  2  0  0  0  0
 56 55  1  0  0  0  0
 57 56  2  0  0  0  0
 57 53  1  0  0  0  0
 59 58  1  0  0  0  0
 61 62  1  0  0  0  0
 62 60  1  0  0  0  0
 62 59  1  0  0  0  0
M  END
>  <MODEL>
3

>  <REMARK>
 VINA RESULT:      -1.6      2.944     10.429
  Name = 
  24 active torsions:
  status: ('A' for Active; 'I' for Inactive)
    1  A    between atoms: C_1  and  C_24
    2  A    between atoms: C_2  and  N_8
    3  A    between atoms: C_3  and  C_11
    4  A    between atoms: O_6  and  C_10
    5  A    between atoms: C_7  and  C_57
    6  A    between atoms: C_10  and  O_20
    7  A    between atoms: C_10  and  N_59
    8  A    between atoms: C_11  and  C_55
    9  A    between atoms: N_12  and  C_19
   10  A    between atoms: N_12  and  C_61
   11  A    between atoms: C_16  and  C_44
   12  A    between atoms: C_19  and  C_35
   13  A    between atoms: C_24  and  N_59
   14  A    between atoms: C_25  and  C_47
   15  A    between atoms: O_27  and  C_28
   16  A    between atoms: O_27  and  C_47
   17  A    between atoms: C_28  and  N_42
   18  A    between atoms: C_30  and  O_48
   19  A    between atoms: C_36  and  C_47
   20  A    between atoms: C_37  and  S_45
   21  A    between atoms: C_37  and  C_58
   22  A    between atoms: C_44  and  C_49
   23  A    between atoms: O_48  and  C_60
   24  A    between atoms: C_57  and  C_61
                            x       y       z     vdW  Elec       q    Type
                         _______ _______ _______ _____ _____    ______ ____

>  <TORSDO>
F 24

$$$$
=
 OpenBabel11042422553D

 62 66  0  0  1  0  0  0  0  0999 V2000
  161.7030  212.8310  148.1310 C   0  0  0  0  0  0  0  0  0  0  0  0
  162.1120  211.2310  147.7930 S   0  0  0  0  0  0  0  0  0  0  0  0
  161.7160  210.6400  149.3210 C   0  0  0  0  0  0  0  0  0  0  0  0
  161.1940  209.0690  151.1120 N   0  0  0  0  0  0  0  0  0  0  0  0
  161.0190  211.4850  151.5730 C   0  0  0  0  0  2  0  0  0  0  0  0
  161.0170  214.0820  150.0880 F   0  0  0  0  0  0  0  0  0  0  0  0
  161.3150  212.9200  149.4670 C   0  0  0  0  0  0  0  0  0  0  0  0
  161.3090  211.6880  150.1220 C   0  0  0  0  0  0  0  0  0  0  0  0
  161.9650  209.2730  149.8810 C   0  0  1  0  0  3  0  0  0  0  0  0
  160.7720  210.0290  151.8950 C   0  0  0  0  0  0  0  0  0  0  0  0
  161.9150  213.9560  147.1790 C   0  0  0  0  0  2  0  0  0  0  0  0
  162.4210  214.4530  145.0000 N   0  0  0  0  0  1  0  0  0  0  0  0
  161.7200  213.5360  145.7950 N   0  0  0  0  0  0  0  0  0  0  0  0
  160.3000  213.6710  145.4580 C   0  0  0  0  0  3  0  0  0  0  0  0
  159.5880  214.2050  146.5420 O   0  0  0  0  0  0  0  0  0  0  0  0
  158.3060  213.6490  146.4490 C   0  0  0  0  0  1  0  0  0  0  0  0
  159.7710  212.4150  145.1340 O   0  0  0  0  0  0  0  0  0  0  0  0
  160.1090  212.2200  143.7900 C   0  0  0  0  0  1  0  0  0  0  0  0
  161.6130  208.1850  148.8790 C   0  0  0  0  0  2  0  0  0  0  0  0
  162.5200  206.6770  149.2650 S   0  0  0  0  0  0  0  0  0  0  0  0
  160.9060  205.2530  147.8470 F   0  0  0  0  0  0  0  0  0  0  0  0
  162.1840  205.6960  148.0310 C   0  0  2  0  0  3  0  0  0  0  0  0
  163.2950  205.1820  147.1740 C   0  0  0  0  0  2  0  0  0  0  0  0
  162.7670  204.2800  146.1040 C   0  0  0  0  0  0  0  0  0  0  0  0
  161.6040  203.4630  146.3370 N   0  0  0  0  0  0  0  0  0  0  0  0
  163.3270  204.2830  144.9720 O   0  0  0  0  0  0  0  0  0  0  0  0
  160.8340  202.9800  145.1900 C   0  0  1  0  0  3  0  0  0  0  0  0
  160.3070  201.5810  145.4430 C   0  0  0  0  0  1  0  0  0  0  0  0
  159.6870  203.9210  144.8310 C   0  0  0  0  0  2  0  0  0  0  0  0
  160.1190  205.3740  144.9270 C   0  0  0  0  0  2  0  0  0  0  0  0
  161.1540  205.6210  144.0300 O   0  0  0  0  0  1  0  0  0  0  0  0
  161.1790  203.1960  147.7150 C   0  0  0  0  0  2  0  0  0  0  0  0
  160.4800  201.1490  150.1750 C   0  0  1  0  0  3  0  0  0  0  0  0
  159.6460  201.8080  149.0910 C   0  0  0  0  0  2  0  0  0  0  0  0
  161.5290  200.7330  148.0030 C   0  0  0  0  0  2  0  0  0  0  0  0
  160.4960  201.8370  147.8380 C   0  0  2  0  0  3  0  0  0  0  0  0
  161.5200  200.3100  149.4610 C   0  0  0  0  0  2  0  0  0  0  0  0
  161.1530  202.1650  150.9720 N   0  0  0  0  0  2  0  0  0  0  0  0
  160.5020  203.3570  151.4280 C   0  0  0  0  0  0  0  0  0  0  0  0
  159.3180  203.6130  151.0870 O   0  0  0  0  0  0  0  0  0  0  0  0
  161.2230  204.2810  152.3460 C   0  0  0  0  0  2  0  0  0  0  0  0
  161.5420  205.5920  151.6430 C   0  0  0  0  0  2  0  0  0  0  0  0
  162.5580  206.3270  152.3880 N   0  0  0  0  0  1  0  0  0  0  0  0
  160.0700  209.7240  153.0610 O   0  0  0  0  0  0  0  0  0  0  0  0
  159.9820  210.5440  156.1820 C   0  0  1  0  0  3  0  0  0  0  0  0
  160.7160  209.4570  154.2990 C   0  0  1  0  0  3  0  0  0  0  0  0
  161.6620  210.5440  154.6060 C   0  0  0  0  0  0  0  0  0  0  0  0
  159.7500  209.4310  155.3300 O   0  0  0  0  0  0  0  0  0  0  0  0
  162.8030  210.7590  153.9580 C   0  0  0  0  0  2  0  0  0  0  0  0
  161.2540  211.2780  155.7960 C   0  0  0  0  0  2  0  0  0  0  0  0
  158.7720  211.4890  156.2090 C   0  0  1  0  0  3  0  0  0  0  0  0
  158.6270  213.9140  152.6580 C   0  0  0  0  0  3  0  0  0  0  0  0
  159.1080  214.4510  153.8570 C   0  0  0  0  0  3  0  0  0  0  0  0
  158.1740  212.5920  152.6100 C   0  0  0  0  0  3  0  0  0  0  0  0
  158.2000  211.8060  153.7640 C   0  0  0  0  0  3  0  0  0  0  0  0
  158.6740  212.3410  154.9740 C   0  0  0  0  0  0  0  0  0  0  0  0
  159.1340  213.6640  155.0110 C   0  0  0  0  0  3  0  0  0  0  0  0
  157.5990  210.7530  156.4000 O   0  0  0  0  0  0  0  0  0  0  0  0
  156.6530  211.6940  156.8140 C   0  0  0  0  0  2  0  0  0  0  0  0
  154.3610  211.7520  157.2490 C   0  0  0  0  0  1  0  0  0  0  0  0
  155.1430  212.1920  155.1000 C   0  0  0  0  0  1  0  0  0  0  0  0
  155.3500  211.3500  156.2640 N   0  0  0  0  0  0  0  0  0  0  0  0
  1  7  2  0  0  0  0
  2  1  1  0  0  0  0
  2  3  1  0  0  0  0
  3  9  1  0  0  0  0
  3  8  2  0  0  0  0
  4 10  2  0  0  0  0
  5 10  1  0  0  0  0
  7  6  1  0  0  0  0
  7  8  1  0  0  0  0
  8  5  1  0  0  0  0
  9 19  1  6  0  0  0
  9  4  1  0  0  0  0
 10 44  1  0  0  0  0
 11  1  1  0  0  0  0
 12 13  1  0  0  0  0
 13 11  1  0  0  0  0
 14 13  1  0  0  0  0
 14 15  1  0  0  0  0
 16 15  1  0  0  0  0
 17 14  1  0  0  0  0
 18 17  1  0  0  0  0
 19 20  1  0  0  0  0
 22 21  1  1  0  0  0
 22 20  1  0  0  0  0
 23 22  1  0  0  0  0
 24 25  1  0  0  0  0
 24 23  1  0  0  0  0
 25 32  1  0  0  0  0
 26 24  2  0  0  0  0
 27 28  1  1  0  0  0
 27 25  1  0  0  0  0
 29 30  1  0  0  0  0
 29 27  1  0  0  0  0
 31 30  1  0  0  0  0
 33 38  1  6  0  0  0
 34 33  1  0  0  0  0
 35 37  1  0  0  0  0
 36 32  1  1  0  0  0
 36 35  1  0  0  0  0
 36 34  1  0  0  0  0
 37 33  1  0  0  0  0
 38 39  1  0  0  0  0
 39 41  1  0  0  0  0
 40 39  2  0  0  0  0
 42 41  1  0  0  0  0
 42 43  1  0  0  0  0
 45 51  1  6  0  0  0
 46 44  1  6  0  0  0
 46 47  1  0  0  0  0
 46 48  1  0  0  0  0
 47 50  1  0  0  0  0
 48 45  1  0  0  0  0
 49 47  2  0  0  0  0
 50 45  1  0  0  0  0
 51 58  1  6  0  0  0
 52 53  1  0  0  0  0
 53 57  2  0  0  0  0
 54 52  2  0  0  0  0
 54 55  1  0  0  0  0
 55 56  2  0  0  0  0
 56 57  1  0  0  0  0
 56 51  1  0  0  0  0
 58 59  1  0  0  0  0
 61 62  1  0  0  0  0
 62 59  1  0  0  0  0
 62 60  1  0  0  0  0
M  END
>  <MODEL>
4

>  <REMARK>
 VINA RESULT:      -0.0      2.619      8.928
  Name = 
  24 active torsions:
  status: ('A' for Active; 'I' for Inactive)
    1  A    between atoms: C_1  and  C_24
    2  A    between atoms: C_2  and  N_8
    3  A    between atoms: C_3  and  C_11
    4  A    between atoms: O_6  and  C_10
    5  A    between atoms: C_7  and  C_57
    6  A    between atoms: C_10  and  O_20
    7  A    between atoms: C_10  and  N_59
    8  A    between atoms: C_11  and  C_55
    9  A    between atoms: N_12  and  C_19
   10  A    between atoms: N_12  and  C_61
   11  A    between atoms: C_16  and  C_44
   12  A    between atoms: C_19  and  C_35
   13  A    between atoms: C_24  and  N_59
   14  A    between atoms: C_25  and  C_47
   15  A    between atoms: O_27  and  C_28
   16  A    between atoms: O_27  and  C_47
   17  A    between atoms: C_28  and  N_42
   18  A    between atoms: C_30  and  O_48
   19  A    between atoms: C_36  and  C_47
   20  A    between atoms: C_37  and  S_45
   21  A    between atoms: C_37  and  C_58
   22  A    between atoms: C_44  and  C_49
   23  A    between atoms: O_48  and  C_60
   24  A    between atoms: C_57  and  C_61
                            x       y       z     vdW  Elec       q    Type
                         _______ _______ _______ _____ _____    ______ ____

>  <TORSDO>
F 24

$$$$
=
 OpenBabel11042422553D

 62 66  0  0  1  0  0  0  0  0999 V2000
  160.7950  209.9490  153.7460 C   0  0  0  0  0  0  0  0  0  0  0  0
  160.8390  208.5330  152.8340 S   0  0  0  0  0  0  0  0  0  0  0  0
  161.0720  209.3050  151.3540 C   0  0  0  0  0  0  0  0  0  0  0  0
  161.6050  209.6430  148.9990 N   0  0  0  0  0  0  0  0  0  0  0  0
  161.1270  211.6180  150.3950 C   0  0  0  0  0  2  0  0  0  0  0  0
  160.7990  212.3260  153.2830 F   0  0  0  0  0  0  0  0  0  0  0  0
  160.8980  211.0390  152.8840 C   0  0  0  0  0  0  0  0  0  0  0  0
  161.0700  210.6710  151.5500 C   0  0  0  0  0  0  0  0  0  0  0  0
  161.0490  208.7060  149.9810 C   0  0  1  0  0  3  0  0  0  0  0  0
  161.6420  210.9430  149.1450 C   0  0  0  0  0  0  0  0  0  0  0  0
  160.5060  209.9810  155.2080 C   0  0  0  0  0  2  0  0  0  0  0  0
  160.5100  211.6070  156.8220 N   0  0  0  0  0  1  0  0  0  0  0  0
  159.9030  211.2480  155.6110 N   0  0  0  0  0  0  0  0  0  0  0  0
  158.4820  211.0240  155.8920 C   0  0  0  0  0  3  0  0  0  0  0  0
  157.6870  211.6200  154.9020 O   0  0  0  0  0  0  0  0  0  0  0  0
  158.4460  212.6950  154.4210 C   0  0  0  0  0  1  0  0  0  0  0  0
  158.1560  211.5750  157.1380 O   0  0  0  0  0  0  0  0  0  0  0  0
  156.7750  211.3900  157.2610 C   0  0  0  0  0  1  0  0  0  0  0  0
  161.8240  207.3990  149.9270 C   0  0  0  0  0  2  0  0  0  0  0  0
  161.0030  206.2450  148.8120 S   0  0  0  0  0  0  0  0  0  0  0  0
  162.0580  207.3720  146.7480 F   0  0  0  0  0  0  0  0  0  0  0  0
  161.9410  206.2400  147.5010 C   0  0  2  0  0  3  0  0  0  0  0  0
  162.5740  204.9640  147.0530 C   0  0  0  0  0  2  0  0  0  0  0  0
  161.7880  204.3420  145.9430 C   0  0  0  0  0  0  0  0  0  0  0  0
  161.2730  203.0030  146.0660 N   0  0  0  0  0  0  0  0  0  0  0  0
  161.5380  205.0290  144.9130 O   0  0  0  0  0  0  0  0  0  0  0  0
  160.1430  202.5970  145.2300 C   0  0  1  0  0  3  0  0  0  0  0  0
  159.7920  203.6820  144.2300 C   0  0  0  0  0  1  0  0  0  0  0  0
  160.4060  201.2780  144.5090 C   0  0  0  0  0  2  0  0  0  0  0  0
  159.4640  200.1890  144.9940 C   0  0  0  0  0  2  0  0  0  0  0  0
  160.0960  198.9510  144.9260 O   0  0  0  0  0  1  0  0  0  0  0  0
  161.8440  202.1040  147.0740 C   0  0  0  0  0  2  0  0  0  0  0  0
  160.3500  202.0340  149.9890 C   0  0  1  0  0  3  0  0  0  0  0  0
  159.8520  202.1060  148.5570 C   0  0  0  0  0  2  0  0  0  0  0  0
  161.3990  200.2440  148.6920 C   0  0  0  0  0  2  0  0  0  0  0  0
  160.7710  201.2360  147.7260 C   0  0  2  0  0  3  0  0  0  0  0  0
  161.1400  200.7470  150.1000 C   0  0  0  0  0  2  0  0  0  0  0  0
  161.2330  203.1600  150.2660 N   0  0  0  0  0  2  0  0  0  0  0  0
  161.3630  203.7480  151.5650 C   0  0  0  0  0  0  0  0  0  0  0  0
  160.6470  203.3540  152.5230 O   0  0  0  0  0  0  0  0  0  0  0  0
  162.3820  204.8080  151.7920 C   0  0  0  0  0  2  0  0  0  0  0  0
  161.7890  205.9570  152.5950 C   0  0  0  0  0  2  0  0  0  0  0  0
  161.8060  205.6350  154.0180 N   0  0  0  0  0  1  0  0  0  0  0  0
  162.1680  211.7470  148.1340 O   0  0  0  0  0  0  0  0  0  0  0  0
  160.7450  214.2960  146.7560 C   0  0  1  0  0  3  0  0  0  0  0  0
  162.1380  213.1680  148.1890 C   0  0  1  0  0  3  0  0  0  0  0  0
  162.9500  213.7200  147.0900 C   0  0  0  0  0  0  0  0  0  0  0  0
  160.8110  213.6110  147.9990 O   0  0  0  0  0  0  0  0  0  0  0  0
  164.2780  213.6640  147.0290 C   0  0  0  0  0  2  0  0  0  0  0  0
  162.1240  214.4530  146.1400 C   0  0  0  0  0  2  0  0  0  0  0  0
  159.7710  213.6080  145.7890 C   0  0  1  0  0  3  0  0  0  0  0  0
  155.6250  214.4520  146.5710 C   0  0  0  0  0  3  0  0  0  0  0  0
  156.0820  214.3290  145.2540 C   0  0  0  0  0  3  0  0  0  0  0  0
  156.5160  214.3190  147.6400 C   0  0  0  0  0  3  0  0  0  0  0  0
  157.8660  214.0650  147.3920 C   0  0  0  0  0  3  0  0  0  0  0  0
  158.3340  213.9490  146.0730 C   0  0  0  0  0  0  0  0  0  0  0  0
  157.4330  214.0740  145.0060 C   0  0  0  0  0  3  0  0  0  0  0  0
  160.1070  213.9290  144.4690 O   0  0  0  0  0  0  0  0  0  0  0  0
  159.9170  212.7430  143.7570 C   0  0  0  0  0  2  0  0  0  0  0  0
  160.4320  214.2720  142.0710 C   0  0  0  0  0  1  0  0  0  0  0  0
  161.9240  212.5570  142.5740 C   0  0  0  0  0  1  0  0  0  0  0  0
  160.5130  212.8680  142.4350 N   0  0  0  0  0  0  0  0  0  0  0  0
  1 11  1  0  0  0  0
  2  1  1  0  0  0  0
  3  8  2  0  0  0  0
  3  2  1  0  0  0  0
  4 10  2  0  0  0  0
  4  9  1  0  0  0  0
  5  8  1  0  0  0  0
  7  6  1  0  0  0  0
  7  1  2  0  0  0  0
  8  7  1  0  0  0  0
  9 19  1  1  0  0  0
  9  3  1  0  0  0  0
 10  5  1  0  0  0  0
 11 13  1  0  0  0  0
 13 14  1  0  0  0  0
 13 12  1  0  0  0  0
 14 17  1  0  0  0  0
 15 14  1  0  0  0  0
 16 15  1  0  0  0  0
 17 18  1  0  0  0  0
 20 19  1  0  0  0  0
 22 21  1  6  0  0  0
 22 20  1  0  0  0  0
 23 22  1  0  0  0  0
 24 25  1  0  0  0  0
 24 23  1  0  0  0  0
 25 32  1  0  0  0  0
 26 24  2  0  0  0  0
 27 28  1  6  0  0  0
 27 25  1  0  0  0  0
 29 30  1  0  0  0  0
 29 27  1  0  0  0  0
 31 30  1  0  0  0  0
 33 37  1  0  0  0  0
 33 38  1  6  0  0  0
 34 33  1  0  0  0  0
 35 37  1  0  0  0  0
 36 32  1  1  0  0  0
 36 34  1  0  0  0  0
 36 35  1  0  0  0  0
 38 39  1  0  0  0  0
 39 41  1  0  0  0  0
 39 40  2  0  0  0  0
 41 42  1  0  0  0  0
 42 43  1  0  0  0  0
 44 10  1  0  0  0  0
 45 51  1  6  0  0  0
 45 48  1  0  0  0  0
 46 44  1  6  0  0  0
 47 46  1  0  0  0  0
 48 46  1  0  0  0  0
 49 47  2  0  0  0  0
 50 45  1  0  0  0  0
 50 47  1  0  0  0  0
 51 58  1  6  0  0  0
 51 56  1  0  0  0  0
 52 54  1  0  0  0  0
 53 52  2  0  0  0  0
 55 54  2  0  0  0  0
 56 55  1  0  0  0  0
 57 53  1  0  0  0  0
 57 56  2  0  0  0  0
 59 58  1  0  0  0  0
 60 62  1  0  0  0  0
 62 61  1  0  0  0  0
 62 59  1  0  0  0  0
M  END
>  <MODEL>
5

>  <REMARK>
 VINA RESULT:       0.1      2.414     10.976
  Name = 
  24 active torsions:
  status: ('A' for Active; 'I' for Inactive)
    1  A    between atoms: C_1  and  C_24
    2  A    between atoms: C_2  and  N_8
    3  A    between atoms: C_3  and  C_11
    4  A    between atoms: O_6  and  C_10
    5  A    between atoms: C_7  and  C_57
    6  A    between atoms: C_10  and  O_20
    7  A    between atoms: C_10  and  N_59
    8  A    between atoms: C_11  and  C_55
    9  A    between atoms: N_12  and  C_19
   10  A    between atoms: N_12  and  C_61
   11  A    between atoms: C_16  and  C_44
   12  A    between atoms: C_19  and  C_35
   13  A    between atoms: C_24  and  N_59
   14  A    between atoms: C_25  and  C_47
   15  A    between atoms: O_27  and  C_28
   16  A    between atoms: O_27  and  C_47
   17  A    between atoms: C_28  and  N_42
   18  A    between atoms: C_30  and  O_48
   19  A    between atoms: C_36  and  C_47
   20  A    between atoms: C_37  and  S_45
   21  A    between atoms: C_37  and  C_58
   22  A    between atoms: C_44  and  C_49
   23  A    between atoms: O_48  and  C_60
   24  A    between atoms: C_57  and  C_61
                            x       y       z     vdW  Elec       q    Type
                         _______ _______ _______ _____ _____    ______ ____

>  <TORSDO>
F 24

$$$$
