=
 OpenBabel11052410143D

 25 28  0  0  1  0  0  0  0  0999 V2000
  162.1630  203.7550  146.4400 N   0  0  0  0  0  1  0  0  0  0  0  0
  161.0540  202.7330  151.1230 C   0  0  0  0  0  3  0  0  0  0  0  0
  161.1120  201.9380  148.7310 C   0  0  0  0  0  1  0  0  0  0  0  0
  161.9280  207.0020  147.8810 C   0  0  1  0  0  3  0  0  0  0  0  0
  160.6900  206.4800  149.9640 C   0  0  0  0  0  0  0  0  0  0  0  0
  160.8960  203.0130  149.7360 C   0  0  0  0  0  0  0  0  0  0  0  0
  160.6990  205.0690  151.6440 C   0  0  0  0  0  0  0  0  0  0  0  0
  161.8710  204.9500  147.1540 C   0  0  0  0  0  0  0  0  0  0  0  0
  162.5950  208.2020  148.2610 N   0  0  0  0  0  1  0  0  0  0  0  0
  161.0910  206.3100  152.1340 C   0  0  0  0  0  0  0  0  0  0  0  0
  160.4210  205.2740  150.3390 C   0  0  0  0  0  0  0  0  0  0  0  0
  162.4750  206.0780  146.9300 N   0  0  0  0  0  0  0  0  0  0  0  0
  161.0120  206.3950  148.6210 C   0  0  2  0  0  3  0  0  0  0  0  0
  160.8870  205.0850  148.2200 C   0  0  2  0  0  3  0  0  0  0  0  0
  161.1740  207.2080  151.0460 C   0  0  0  0  0  3  0  0  0  0  0  0
  160.5880  204.3320  149.3580 C   0  0  0  0  0  0  0  0  0  0  0  0
  161.0000  203.7740  152.0910 C   0  0  0  0  0  2  0  0  0  0  0  0
  161.6870  206.5530  153.4830 C   0  0  0  0  0  2  0  0  0  0  0  0
  160.7780  207.4340  154.3290 C   0  0  1  0  0  3  0  0  0  0  0  0
  160.7170  206.9000  155.7480 C   0  0  0  0  0  1  0  0  0  0  0  0
  160.5290  209.8990  154.8430 C   0  0  0  0  0  0  0  0  0  0  0  0
  161.2930  208.7950  154.3540 N   0  0  0  0  0  2  0  0  0  0  0  0
  159.3660  209.7200  155.2990 O   0  0  0  0  0  0  0  0  0  0  0  0
  160.3930  212.2740  155.2700 O   0  0  0  0  0  1  0  0  0  0  0  0
  161.0920  211.2080  154.8140 N   0  0  0  0  0  2  0  0  0  0  0  0
  1  8  1  0  0  0  0
  2 17  1  0  0  0  0
  3  6  1  0  0  0  0
  4  9  1  1  0  0  0
  4 13  1  0  0  0  0
  5 11  1  0  0  0  0
  5 15  2  0  0  0  0
  6  2  2  0  0  0  0
  7 17  1  0  0  0  0
  7 10  2  0  0  0  0
 10 18  1  0  0  0  0
 11  7  1  0  0  0  0
 12  8  2  0  0  0  0
 12  4  1  0  0  0  0
 13  5  1  1  0  0  0
 14  8  1  1  0  0  0
 14 13  1  0  0  0  0
 14 16  1  0  0  0  0
 15 10  1  0  0  0  0
 16  6  1  0  0  0  0
 16 11  2  0  0  0  0
 18 19  1  0  0  0  0
 19 22  1  0  0  0  0
 19 20  1  1  0  0  0
 21 23  2  0  0  0  0
 22 21  1  0  0  0  0
 25 21  1  0  0  0  0
 25 24  1  0  0  0  0
M  END
>  <MODEL>
1

>  <REMARK>
 VINA RESULT:     -10.0      0.000      0.000
  Name = 
  3 active torsions:
  status: ('A' for Active; 'I' for Inactive)
    1  A    between atoms: C_4  and  C_6
    2  A    between atoms: C_4  and  C_13
    3  A    between atoms: C_6  and  N_16
                            x       y       z     vdW  Elec       q    Type
                         _______ _______ _______ _____ _____    ______ ____

>  <TORSDO>
F 3

$$$$
=
 OpenBabel11052410143D

 25 28  0  0  1  0  0  0  0  0999 V2000
  161.6510  201.7620  148.6310 N   0  0  0  0  0  1  0  0  0  0  0  0
  161.4070  204.8590  152.4470 C   0  0  0  0  0  3  0  0  0  0  0  0
  161.0820  202.5080  151.5940 C   0  0  0  0  0  1  0  0  0  0  0  0
  161.5440  204.9340  147.0180 C   0  0  1  0  0  3  0  0  0  0  0  0
  160.7060  206.3520  148.8700 C   0  0  0  0  0  0  0  0  0  0  0  0
  161.0010  203.9810  151.4020 C   0  0  0  0  0  0  0  0  0  0  0  0
  161.0580  206.7630  150.9970 C   0  0  0  0  0  0  0  0  0  0  0  0
  161.4410  203.0950  148.1790 C   0  0  0  0  0  0  0  0  0  0  0  0
  162.2200  205.9050  146.2250 N   0  0  0  0  0  1  0  0  0  0  0  0
  161.4810  207.8750  150.2760 C   0  0  0  0  0  0  0  0  0  0  0  0
  160.5510  205.9160  150.0760 C   0  0  0  0  0  0  0  0  0  0  0  0
  161.9540  203.5610  147.0800 N   0  0  0  0  0  0  0  0  0  0  0  0
  160.7940  205.2260  148.0700 C   0  0  2  0  0  3  0  0  0  0  0  0
  160.6520  204.1110  148.8610 C   0  0  2  0  0  3  0  0  0  0  0  0
  161.3410  207.5890  148.9000 C   0  0  0  0  0  3  0  0  0  0  0  0
  160.5820  204.5510  150.1850 C   0  0  0  0  0  0  0  0  0  0  0  0
  161.4810  206.2640  152.2370 C   0  0  0  0  0  2  0  0  0  0  0  0
  162.2910  209.0020  150.8310 C   0  0  0  0  0  2  0  0  0  0  0  0
  161.5240  210.3150  150.7520 C   0  0  1  0  0  3  0  0  0  0  0  0
  161.2050  210.8120  152.1490 C   0  0  0  0  0  1  0  0  0  0  0  0
  162.1450  211.6260  148.6780 C   0  0  0  0  0  0  0  0  0  0  0  0
  162.3260  211.3140  150.0610 N   0  0  0  0  0  2  0  0  0  0  0  0
  161.2500  211.0460  148.0040 O   0  0  0  0  0  0  0  0  0  0  0  0
  162.8380  212.9170  146.7560 O   0  0  0  0  0  1  0  0  0  0  0  0
  162.9840  212.6000  148.0640 N   0  0  0  0  0  2  0  0  0  0  0  0
  4  9  1  1  0  0  0
  4 12  1  0  0  0  0
  4 13  1  0  0  0  0
  5 15  2  0  0  0  0
  5 11  1  0  0  0  0
  6  3  1  0  0  0  0
  6  2  2  0  0  0  0
  7 17  1  0  0  0  0
  8  1  1  0  0  0  0
 10 18  1  0  0  0  0
 10  7  2  0  0  0  0
 11 16  2  0  0  0  0
 11  7  1  0  0  0  0
 12  8  2  0  0  0  0
 13 14  1  0  0  0  0
 13  5  1  1  0  0  0
 14  8  1  1  0  0  0
 14 16  1  0  0  0  0
 15 10  1  0  0  0  0
 16  6  1  0  0  0  0
 17  2  1  0  0  0  0
 19 18  1  0  0  0  0
 19 20  1  1  0  0  0
 21 22  1  0  0  0  0
 22 19  1  0  0  0  0
 23 21  2  0  0  0  0
 24 25  1  0  0  0  0
 25 21  1  0  0  0  0
M  END
>  <MODEL>
2

>  <REMARK>
 VINA RESULT:      -9.5      3.033      4.007
  Name = 
  3 active torsions:
  status: ('A' for Active; 'I' for Inactive)
    1  A    between atoms: C_4  and  C_6
    2  A    between atoms: C_4  and  C_13
    3  A    between atoms: C_6  and  N_16
                            x       y       z     vdW  Elec       q    Type
                         _______ _______ _______ _____ _____    ______ ____

>  <TORSDO>
F 3

$$$$
=
 OpenBabel11052410143D

 25 28  0  0  1  0  0  0  0  0999 V2000
  160.1070  201.7300  144.9550 N   0  0  0  0  0  1  0  0  0  0  0  0
  160.8570  206.4460  146.1400 C   0  0  0  0  0  3  0  0  0  0  0  0
  160.8420  204.6850  144.3350 C   0  0  0  0  0  1  0  0  0  0  0  0
  160.5990  201.5490  148.4760 C   0  0  1  0  0  3  0  0  0  0  0  0
  161.6650  203.7480  148.8940 C   0  0  0  0  0  0  0  0  0  0  0  0
  161.1160  205.1060  145.7360 C   0  0  0  0  0  0  0  0  0  0  0  0
  161.4230  205.8770  148.4220 C   0  0  0  0  0  0  0  0  0  0  0  0
  160.4820  201.8460  146.3220 C   0  0  0  0  0  0  0  0  0  0  0  0
  160.0400  201.2770  149.7570 N   0  0  0  0  0  1  0  0  0  0  0  0
  161.1350  205.7090  149.7730 C   0  0  0  0  0  0  0  0  0  0  0  0
  161.7890  204.6550  147.9820 C   0  0  0  0  0  0  0  0  0  0  0  0
  160.0100  201.0770  147.2560 N   0  0  0  0  0  0  0  0  0  0  0  0
  161.4070  202.5670  148.2190 C   0  0  2  0  0  3  0  0  0  0  0  0
  161.4170  202.8210  146.8680 C   0  0  2  0  0  3  0  0  0  0  0  0
  161.2030  204.3290  150.0700 C   0  0  0  0  0  3  0  0  0  0  0  0
  161.5770  204.1990  146.7080 C   0  0  0  0  0  0  0  0  0  0  0  0
  160.9670  206.8350  147.5040 C   0  0  0  0  0  2  0  0  0  0  0  0
  160.4980  206.7360  150.6510 C   0  0  0  0  0  2  0  0  0  0  0  0
  161.5460  207.4840  151.4640 C   0  0  1  0  0  3  0  0  0  0  0  0
  162.0390  208.6900  150.6850 C   0  0  0  0  0  1  0  0  0  0  0  0
  160.9170  207.1060  153.8850 C   0  0  0  0  0  0  0  0  0  0  0  0
  160.9670  207.9330  152.7210 N   0  0  0  0  0  2  0  0  0  0  0  0
  161.4030  205.9420  153.8630 O   0  0  0  0  0  0  0  0  0  0  0  0
  160.2500  206.8460  156.1940 O   0  0  0  0  0  1  0  0  0  0  0  0
  160.3130  207.6060  155.0750 N   0  0  0  0  0  2  0  0  0  0  0  0
  1  8  1  0  0  0  0
  2 17  1  0  0  0  0
  3  6  1  0  0  0  0
  4  9  1  1  0  0  0
  5 15  2  0  0  0  0
  6  2  2  0  0  0  0
  6 16  1  0  0  0  0
  7 10  2  0  0  0  0
  8 12  2  0  0  0  0
 10 15  1  0  0  0  0
 10 18  1  0  0  0  0
 11  7  1  0  0  0  0
 11  5  1  0  0  0  0
 12  4  1  0  0  0  0
 13  4  1  0  0  0  0
 13  5  1  1  0  0  0
 14  8  1  1  0  0  0
 14 13  1  0  0  0  0
 16 14  1  0  0  0  0
 16 11  2  0  0  0  0
 17  7  1  0  0  0  0
 18 19  1  0  0  0  0
 19 20  1  6  0  0  0
 19 22  1  0  0  0  0
 21 25  1  0  0  0  0
 22 21  1  0  0  0  0
 23 21  2  0  0  0  0
 25 24  1  0  0  0  0
M  END
>  <MODEL>
3

>  <REMARK>
 VINA RESULT:      -9.5      2.482      4.285
  Name = 
  3 active torsions:
  status: ('A' for Active; 'I' for Inactive)
    1  A    between atoms: C_4  and  C_6
    2  A    between atoms: C_4  and  C_13
    3  A    between atoms: C_6  and  N_16
                            x       y       z     vdW  Elec       q    Type
                         _______ _______ _______ _____ _____    ______ ____

>  <TORSDO>
F 3

$$$$
=
 OpenBabel11052410143D

 25 28  0  0  1  0  0  0  0  0999 V2000
  161.4560  201.4610  147.0730 N   0  0  0  0  0  1  0  0  0  0  0  0
  161.3060  202.8910  151.7790 C   0  0  0  0  0  3  0  0  0  0  0  0
  160.8570  201.0660  150.0970 C   0  0  0  0  0  1  0  0  0  0  0  0
  161.5910  205.0060  146.7840 C   0  0  1  0  0  3  0  0  0  0  0  0
  160.7940  205.6710  149.0360 C   0  0  0  0  0  0  0  0  0  0  0  0
  160.8730  202.5040  150.4780 C   0  0  0  0  0  0  0  0  0  0  0  0
  161.1150  205.2220  151.1590 C   0  0  0  0  0  0  0  0  0  0  0  0
  161.3420  202.8760  147.1600 C   0  0  0  0  0  0  0  0  0  0  0  0
  162.3470  206.1570  146.4190 N   0  0  0  0  0  1  0  0  0  0  0  0
  161.6260  206.4920  150.9150 C   0  0  0  0  0  0  0  0  0  0  0  0
  160.5810  204.8220  149.9860 C   0  0  0  0  0  0  0  0  0  0  0  0
  161.9120  203.6870  146.3210 N   0  0  0  0  0  0  0  0  0  0  0  0
  160.8320  204.9290  147.8680 C   0  0  2  0  0  3  0  0  0  0  0  0
  160.6000  203.6090  148.1770 C   0  0  2  0  0  3  0  0  0  0  0  0
  161.5040  206.7590  149.5330 C   0  0  0  0  0  3  0  0  0  0  0  0
  160.5240  203.5180  149.5690 C   0  0  0  0  0  0  0  0  0  0  0  0
  161.4730  204.2620  152.1180 C   0  0  0  0  0  2  0  0  0  0  0  0
  162.4890  207.2670  151.8560 C   0  0  0  0  0  2  0  0  0  0  0  0
  161.6550  208.2140  152.7080 C   0  0  1  0  0  3  0  0  0  0  0  0
  160.7260  209.0220  151.8210 C   0  0  0  0  0  1  0  0  0  0  0  0
  160.8310  207.7570  155.0560 C   0  0  0  0  0  0  0  0  0  0  0  0
  160.8620  207.4520  153.6610 N   0  0  0  0  0  2  0  0  0  0  0  0
  161.4890  208.7330  155.5120 O   0  0  0  0  0  0  0  0  0  0  0  0
  160.0000  207.2160  157.2600 O   0  0  0  0  0  1  0  0  0  0  0  0
  160.0490  206.9510  155.9330 N   0  0  0  0  0  2  0  0  0  0  0  0
  1  8  1  0  0  0  0
  2 17  1  0  0  0  0
  3  6  1  0  0  0  0
  4  9  1  1  0  0  0
  4 13  1  0  0  0  0
  5 15  2  0  0  0  0
  5 11  1  0  0  0  0
  6  2  2  0  0  0  0
  7 17  1  0  0  0  0
 10  7  2  0  0  0  0
 10 18  1  0  0  0  0
 11  7  1  0  0  0  0
 12  4  1  0  0  0  0
 12  8  2  0  0  0  0
 13 14  1  0  0  0  0
 13  5  1  1  0  0  0
 14  8  1  1  0  0  0
 14 16  1  0  0  0  0
 15 10  1  0  0  0  0
 16 11  2  0  0  0  0
 16  6  1  0  0  0  0
 18 19  1  0  0  0  0
 19 20  1  6  0  0  0
 19 22  1  0  0  0  0
 21 23  2  0  0  0  0
 21 25  1  0  0  0  0
 22 21  1  0  0  0  0
 25 24  1  0  0  0  0
M  END
>  <MODEL>
4

>  <REMARK>
 VINA RESULT:      -9.4      1.653      2.346
  Name = 
  3 active torsions:
  status: ('A' for Active; 'I' for Inactive)
    1  A    between atoms: C_4  and  C_6
    2  A    between atoms: C_4  and  C_13
    3  A    between atoms: C_6  and  N_16
                            x       y       z     vdW  Elec       q    Type
                         _______ _______ _______ _____ _____    ______ ____

>  <TORSDO>
F 3

$$$$
=
 OpenBabel11052410143D

 25 28  0  0  1  0  0  0  0  0999 V2000
  161.6600  202.0030  148.6400 N   0  0  0  0  0  1  0  0  0  0  0  0
  161.4030  204.8420  152.6490 C   0  0  0  0  0  3  0  0  0  0  0  0
  161.0980  202.5490  151.6460 C   0  0  0  0  0  1  0  0  0  0  0  0
  161.5140  205.2710  147.2360 C   0  0  1  0  0  3  0  0  0  0  0  0
  160.6700  206.5570  149.1800 C   0  0  0  0  0  0  0  0  0  0  0  0
  161.0010  204.0300  151.5510 C   0  0  0  0  0  0  0  0  0  0  0  0
  161.0280  206.8330  151.3270 C   0  0  0  0  0  0  0  0  0  0  0  0
  161.4350  203.3590  148.2760 C   0  0  0  0  0  0  0  0  0  0  0  0
  162.1770  206.2980  146.5050 N   0  0  0  0  0  1  0  0  0  0  0  0
  161.4370  207.9940  150.6780 C   0  0  0  0  0  0  0  0  0  0  0  0
  160.5260  206.0420  150.3550 C   0  0  0  0  0  0  0  0  0  0  0  0
  161.9380  203.9010  147.2070 N   0  0  0  0  0  0  0  0  0  0  0  0
  160.7660  205.4870  148.3070 C   0  0  2  0  0  3  0  0  0  0  0  0
  160.6390  204.3210  149.0250 C   0  0  2  0  0  3  0  0  0  0  0  0
  161.2930  207.7960  149.2860 C   0  0  0  0  0  3  0  0  0  0  0  0
  160.5710  204.6730  150.3760 C   0  0  0  0  0  0  0  0  0  0  0  0
  161.4620  206.2590  152.5310 C   0  0  0  0  0  2  0  0  0  0  0  0
  162.2380  209.0910  151.3020 C   0  0  0  0  0  2  0  0  0  0  0  0
  161.4050  209.8680  152.3120 C   0  0  1  0  0  3  0  0  0  0  0  0
  162.2160  210.1100  153.5720 C   0  0  0  0  0  1  0  0  0  0  0  0
  159.7820  211.7960  152.0860 C   0  0  0  0  0  0  0  0  0  0  0  0
  161.0100  211.1490  151.7450 N   0  0  0  0  0  2  0  0  0  0  0  0
  158.9960  211.2740  152.9240 O   0  0  0  0  0  0  0  0  0  0  0  0
  158.2960  213.6760  151.7740 O   0  0  0  0  0  1  0  0  0  0  0  0
  159.4510  213.0390  151.4720 N   0  0  0  0  0  2  0  0  0  0  0  0
  4  9  1  1  0  0  0
  4 13  1  0  0  0  0
  5 15  2  0  0  0  0
  5 11  1  0  0  0  0
  6  3  1  0  0  0  0
  6  2  2  0  0  0  0
  7 17  1  0  0  0  0
  8  1  1  0  0  0  0
 10 18  1  0  0  0  0
 10  7  2  0  0  0  0
 11 16  2  0  0  0  0
 11  7  1  0  0  0  0
 12  4  1  0  0  0  0
 12  8  2  0  0  0  0
 13 14  1  0  0  0  0
 13  5  1  1  0  0  0
 14  8  1  1  0  0  0
 14 16  1  0  0  0  0
 15 10  1  0  0  0  0
 16  6  1  0  0  0  0
 17  2  1  0  0  0  0
 18 19  1  0  0  0  0
 19 20  1  1  0  0  0
 21 23  2  0  0  0  0
 22 21  1  0  0  0  0
 22 19  1  0  0  0  0
 25 24  1  0  0  0  0
 25 21  1  0  0  0  0
M  END
>  <MODEL>
5

>  <REMARK>
 VINA RESULT:      -9.4      2.009      2.670
  Name = 
  3 active torsions:
  status: ('A' for Active; 'I' for Inactive)
    1  A    between atoms: C_4  and  C_6
    2  A    between atoms: C_4  and  C_13
    3  A    between atoms: C_6  and  N_16
                            x       y       z     vdW  Elec       q    Type
                         _______ _______ _______ _____ _____    ______ ____

>  <TORSDO>
F 3

$$$$
=
 OpenBabel11052410143D

 25 28  0  0  1  0  0  0  0  0999 V2000
  161.0680  207.5370  154.1300 N   0  0  0  0  0  1  0  0  0  0  0  0
  160.5660  204.0610  150.6840 C   0  0  0  0  0  3  0  0  0  0  0  0
  160.9000  204.6010  153.1240 C   0  0  0  0  0  1  0  0  0  0  0  0
  161.8660  209.3140  151.1500 C   0  0  1  0  0  3  0  0  0  0  0  0
  162.3070  207.4250  149.6050 C   0  0  0  0  0  0  0  0  0  0  0  0
  161.1550  204.8830  151.6850 C   0  0  0  0  0  0  0  0  0  0  0  0
  161.4450  205.5130  148.9600 C   0  0  0  0  0  0  0  0  0  0  0  0
  161.5020  208.0220  152.8650 C   0  0  0  0  0  0  0  0  0  0  0  0
  161.5080  210.3360  150.2250 N   0  0  0  0  0  1  0  0  0  0  0  0
  161.3230  206.4090  147.9040 C   0  0  0  0  0  0  0  0  0  0  0  0
  162.1010  206.1910  149.9260 C   0  0  2  0  0  3  0  0  0  0  0  0
  161.3380  209.2530  152.4820 N   0  0  0  0  0  0  0  0  0  0  0  0
  162.3360  208.1260  150.7990 C   0  0  2  0  0  3  0  0  0  0  0  0
  162.1690  207.2370  151.8350 C   0  0  2  0  0  3  0  0  0  0  0  0
  161.7950  207.6690  148.3350 C   0  0  0  0  0  3  0  0  0  0  0  0
  161.9260  205.9840  151.2690 C   0  0  0  0  0  0  0  0  0  0  0  0
  160.6700  204.3960  149.3050 C   0  0  0  0  0  3  0  0  0  0  0  0
  160.4960  206.1870  146.6790 C   0  0  0  0  0  2  0  0  0  0  0  0
  161.2810  205.4230  145.6220 C   0  0  1  0  0  3  0  0  0  0  0  0
  162.7100  205.9300  145.5740 C   0  0  0  0  0  1  0  0  0  0  0  0
  160.5570  203.0380  145.1830 C   0  0  0  0  0  0  0  0  0  0  0  0
  161.2880  204.0030  145.9420 N   0  0  0  0  0  2  0  0  0  0  0  0
  159.8840  203.3930  144.1760 O   0  0  0  0  0  0  0  0  0  0  0  0
  159.9110  200.7300  144.8720 O   0  0  0  0  0  1  0  0  0  0  0  0
  160.5930  201.6680  145.5710 N   0  0  0  0  0  2  0  0  0  0  0  0
  2  6  1  0  0  0  0
  4  9  1  6  0  0  0
  4 12  1  0  0  0  0
  5 11  1  0  0  0  0
  6  3  1  0  0  0  0
  7 17  1  0  0  0  0
  8  1  1  0  0  0  0
 10 15  1  0  0  0  0
 10  7  2  0  0  0  0
 11  7  1  6  0  0  0
 11 16  1  0  0  0  0
 12  8  2  0  0  0  0
 13  5  1  6  0  0  0
 13  4  1  0  0  0  0
 13 14  1  0  0  0  0
 14 16  1  6  0  0  0
 14  8  1  0  0  0  0
 15  5  2  0  0  0  0
 16  6  2  0  0  0  0
 17  2  2  0  0  0  0
 18 10  1  0  0  0  0
 19 20  1  1  0  0  0
 19 22  1  0  0  0  0
 19 18  1  0  0  0  0
 21 25  1  0  0  0  0
 21 22  1  0  0  0  0
 23 21  2  0  0  0  0
 24 25  1  0  0  0  0
M  END
>  <MODEL>
6

>  <REMARK>
 VINA RESULT:      -8.7      4.211      7.376
  Name = 
  3 active torsions:
  status: ('A' for Active; 'I' for Inactive)
    1  A    between atoms: C_4  and  C_6
    2  A    between atoms: C_4  and  C_13
    3  A    between atoms: C_6  and  N_16
                            x       y       z     vdW  Elec       q    Type
                         _______ _______ _______ _____ _____    ______ ____

>  <TORSDO>
F 3

$$$$
=
 OpenBabel11052410143D

 25 28  0  0  1  0  0  0  0  0999 V2000
  161.1390  209.7450  153.3740 N   0  0  0  0  0  1  0  0  0  0  0  0
  160.6350  204.8520  153.4630 C   0  0  0  0  0  3  0  0  0  0  0  0
  160.9760  206.9770  154.7760 C   0  0  0  0  0  1  0  0  0  0  0  0
  161.9230  208.8500  150.0190 C   0  0  1  0  0  3  0  0  0  0  0  0
  162.3640  206.4260  150.2930 C   0  0  0  0  0  0  0  0  0  0  0  0
  161.2250  206.1430  153.5700 C   0  0  0  0  0  0  0  0  0  0  0  0
  161.5060  204.6300  151.2160 C   0  0  0  0  0  0  0  0  0  0  0  0
  161.5680  209.1780  152.1430 C   0  0  0  0  0  0  0  0  0  0  0  0
  161.5590  208.9000  148.6430 N   0  0  0  0  0  1  0  0  0  0  0  0
  161.3780  204.4980  149.8380 C   0  0  0  0  0  0  0  0  0  0  0  0
  162.1630  205.7950  151.4020 C   0  0  2  0  0  3  0  0  0  0  0  0
  161.3990  209.7620  150.9940 N   0  0  0  0  0  0  0  0  0  0  0  0
  162.3950  207.7700  150.6240 C   0  0  2  0  0  3  0  0  0  0  0  0
  162.2340  207.8920  151.9830 C   0  0  2  0  0  3  0  0  0  0  0  0
  161.8480  205.6860  149.2340 C   0  0  0  0  0  3  0  0  0  0  0  0
  161.9920  206.6120  152.4880 C   0  0  0  0  0  0  0  0  0  0  0  0
  160.7350  204.0980  152.2600 C   0  0  0  0  0  3  0  0  0  0  0  0
  160.5480  203.4650  149.1460 C   0  0  0  0  0  2  0  0  0  0  0  0
  161.3610  202.7300  148.0890 C   0  0  1  0  0  3  0  0  0  0  0  0
  161.2530  201.2320  148.3040 C   0  0  0  0  0  1  0  0  0  0  0  0
  161.4850  204.0320  145.9230 C   0  0  0  0  0  0  0  0  0  0  0  0
  160.8600  203.0590  146.7630 N   0  0  0  0  0  2  0  0  0  0  0  0
  162.5260  204.6330  146.3050 O   0  0  0  0  0  0  0  0  0  0  0  0
  161.4910  205.2340  143.8260 O   0  0  0  0  0  1  0  0  0  0  0  0
  160.9230  204.3180  144.6450 N   0  0  0  0  0  2  0  0  0  0  0  0
  2  6  1  0  0  0  0
  4  9  1  6  0  0  0
  4 13  1  0  0  0  0
  4 12  1  0  0  0  0
  6  3  1  0  0  0  0
  7 11  1  0  0  0  0
  7 17  1  0  0  0  0
  8  1  1  0  0  0  0
 10  7  2  0  0  0  0
 11  5  1  6  0  0  0
 11 16  1  0  0  0  0
 12  8  2  0  0  0  0
 13  5  1  6  0  0  0
 13 14  1  0  0  0  0
 14  8  1  6  0  0  0
 14 16  1  0  0  0  0
 15 10  1  0  0  0  0
 15  5  2  0  0  0  0
 16  6  2  0  0  0  0
 17  2  2  0  0  0  0
 18 10  1  0  0  0  0
 19 20  1  1  0  0  0
 19 18  1  0  0  0  0
 21 23  2  0  0  0  0
 21 22  1  0  0  0  0
 22 19  1  0  0  0  0
 24 25  1  0  0  0  0
 25 21  1  0  0  0  0
M  END
>  <MODEL>
7

>  <REMARK>
 VINA RESULT:      -8.6      3.620      6.845
  Name = 
  3 active torsions:
  status: ('A' for Active; 'I' for Inactive)
    1  A    between atoms: C_4  and  C_6
    2  A    between atoms: C_4  and  C_13
    3  A    between atoms: C_6  and  N_16
                            x       y       z     vdW  Elec       q    Type
                         _______ _______ _______ _____ _____    ______ ____

>  <TORSDO>
F 3

$$$$
=
 OpenBabel11052410143D

 25 28  0  0  1  0  0  0  0  0999 V2000
  160.0800  201.5390  144.9570 N   0  0  0  0  0  1  0  0  0  0  0  0
  160.8390  206.2970  145.9540 C   0  0  0  0  0  3  0  0  0  0  0  0
  160.8250  204.4650  144.2210 C   0  0  0  0  0  1  0  0  0  0  0  0
  160.5620  201.4990  148.4840 C   0  0  1  0  0  3  0  0  0  0  0  0
  161.6330  203.7100  148.8160 C   0  0  0  0  0  0  0  0  0  0  0  0
  161.0950  204.9410  145.6040 C   0  0  0  0  0  0  0  0  0  0  0  0
  161.3980  205.8190  148.2590 C   0  0  0  0  0  0  0  0  0  0  0  0
  160.4520  201.7090  146.3190 C   0  0  0  0  0  0  0  0  0  0  0  0
  159.9990  201.2800  149.7740 N   0  0  0  0  0  1  0  0  0  0  0  0
  161.1060  205.7060  149.6140 C   0  0  0  0  0  0  0  0  0  0  0  0
  161.7610  204.5790  147.8690 C   0  0  0  0  0  0  0  0  0  0  0  0
  159.9750  200.9790  147.2830 N   0  0  0  0  0  0  0  0  0  0  0  0
  161.3740  202.5040  148.1890 C   0  0  2  0  0  3  0  0  0  0  0  0
  161.3880  202.7030  146.8290 C   0  0  2  0  0  3  0  0  0  0  0  0
  161.1690  204.3390  149.9660 C   0  0  0  0  0  3  0  0  0  0  0  0
  161.5520  204.0730  146.6130 C   0  0  0  0  0  0  0  0  0  0  0  0
  160.9460  206.7400  147.3010 C   0  0  0  0  0  2  0  0  0  0  0  0
  160.4690  206.7700  150.4480 C   0  0  0  0  0  2  0  0  0  0  0  0
  161.5030  207.7760  150.9310 C   0  0  1  0  0  3  0  0  0  0  0  0
  162.7140  207.0480  151.4850 C   0  0  0  0  0  1  0  0  0  0  0  0
  161.9330  210.0500  149.9080 C   0  0  0  0  0  0  0  0  0  0  0  0
  161.9220  208.6240  149.8250 N   0  0  0  0  0  2  0  0  0  0  0  0
  161.5920  210.6310  150.9750 O   0  0  0  0  0  0  0  0  0  0  0  0
  162.3540  212.1680  148.8220 O   0  0  0  0  0  1  0  0  0  0  0  0
  162.3330  210.8150  148.7740 N   0  0  0  0  0  2  0  0  0  0  0  0
  1  8  1  0  0  0  0
  2 17  1  0  0  0  0
  3  6  1  0  0  0  0
  4  9  1  1  0  0  0
  5 15  2  0  0  0  0
  6  2  2  0  0  0  0
  6 16  1  0  0  0  0
  7 10  2  0  0  0  0
  8 12  2  0  0  0  0
 10 15  1  0  0  0  0
 10 18  1  0  0  0  0
 11  7  1  0  0  0  0
 11  5  1  0  0  0  0
 12  4  1  0  0  0  0
 13  4  1  0  0  0  0
 13  5  1  1  0  0  0
 14  8  1  1  0  0  0
 14 13  1  0  0  0  0
 16 14  1  0  0  0  0
 16 11  2  0  0  0  0
 17  7  1  0  0  0  0
 18 19  1  0  0  0  0
 19 20  1  6  0  0  0
 21 23  2  0  0  0  0
 22 21  1  0  0  0  0
 22 19  1  0  0  0  0
 25 24  1  0  0  0  0
 25 21  1  0  0  0  0
M  END
>  <MODEL>
8

>  <REMARK>
 VINA RESULT:      -8.5      2.929      4.667
  Name = 
  3 active torsions:
  status: ('A' for Active; 'I' for Inactive)
    1  A    between atoms: C_4  and  C_6
    2  A    between atoms: C_4  and  C_13
    3  A    between atoms: C_6  and  N_16
                            x       y       z     vdW  Elec       q    Type
                         _______ _______ _______ _____ _____    ______ ____

>  <TORSDO>
F 3

$$$$
=
 OpenBabel11052410143D

 25 28  0  0  1  0  0  0  0  0999 V2000
  161.8810  207.3610  154.1080 N   0  0  0  0  0  1  0  0  0  0  0  0
  162.2000  209.1690  149.5430 C   0  0  0  0  0  3  0  0  0  0  0  0
  161.9140  209.6460  152.0030 C   0  0  0  0  0  1  0  0  0  0  0  0
  161.1290  204.5070  152.1170 C   0  0  1  0  0  3  0  0  0  0  0  0
  160.5920  205.5970  149.9560 C   0  0  0  0  0  0  0  0  0  0  0  0
  161.6570  208.8000  150.8070 C   0  0  0  0  0  0  0  0  0  0  0  0
  161.3650  207.1150  148.5740 C   0  0  0  0  0  0  0  0  0  0  0  0
  161.4550  206.3920  153.1580 C   0  0  0  0  0  0  0  0  0  0  0  0
  161.5200  203.2120  151.6720 N   0  0  0  0  0  1  0  0  0  0  0  0
  161.5140  205.8750  147.9640 C   0  0  0  0  0  0  0  0  0  0  0  0
  160.7480  206.8620  149.7480 C   0  0  2  0  0  3  0  0  0  0  0  0
  161.6670  205.1180  153.2980 N   0  0  0  0  0  0  0  0  0  0  0  0
  160.6050  205.4360  151.3310 C   0  0  2  0  0  3  0  0  0  0  0  0
  160.7450  206.6720  151.9170 C   0  0  2  0  0  3  0  0  0  0  0  0
  161.1010  204.8800  148.8780 C   0  0  0  0  0  3  0  0  0  0  0  0
  160.9290  207.5980  150.8880 C   0  0  0  0  0  0  0  0  0  0  0  0
  162.0960  208.3030  148.4200 C   0  0  0  0  0  3  0  0  0  0  0  0
  162.3180  205.6130  146.7310 C   0  0  0  0  0  2  0  0  0  0  0  0
  161.4590  204.9870  145.6420 C   0  0  1  0  0  3  0  0  0  0  0  0
  161.9740  205.4010  144.2760 C   0  0  0  0  0  1  0  0  0  0  0  0
  160.5390  202.6870  145.1250 C   0  0  0  0  0  0  0  0  0  0  0  0
  161.5040  203.5360  145.7500 N   0  0  0  0  0  2  0  0  0  0  0  0
  159.6100  203.1800  144.4280 O   0  0  0  0  0  0  0  0  0  0  0  0
  159.7360  200.4450  144.7160 O   0  0  0  0  0  1  0  0  0  0  0  0
  160.6350  201.2750  145.2950 N   0  0  0  0  0  2  0  0  0  0  0  0
  2  6  1  0  0  0  0
  4  9  1  6  0  0  0
  4 12  1  0  0  0  0
  6 16  2  0  0  0  0
  6  3  1  0  0  0  0
  8 12  2  0  0  0  0
  8  1  1  0  0  0  0
 10  7  2  0  0  0  0
 10 15  1  0  0  0  0
 11  7  1  6  0  0  0
 11  5  1  0  0  0  0
 11 16  1  0  0  0  0
 13  5  1  6  0  0  0
 13 14  1  0  0  0  0
 13  4  1  0  0  0  0
 14 16  1  6  0  0  0
 14  8  1  0  0  0  0
 15  5  2  0  0  0  0
 17  7  1  0  0  0  0
 17  2  2  0  0  0  0
 18 10  1  0  0  0  0
 19 20  1  6  0  0  0
 19 22  1  0  0  0  0
 19 18  1  0  0  0  0
 21 25  1  0  0  0  0
 21 22  1  0  0  0  0
 23 21  2  0  0  0  0
 24 25  1  0  0  0  0
M  END
>  <MODEL>
9

>  <REMARK>
 VINA RESULT:      -8.5      4.301      7.998
  Name = 
  3 active torsions:
  status: ('A' for Active; 'I' for Inactive)
    1  A    between atoms: C_4  and  C_6
    2  A    between atoms: C_4  and  C_13
    3  A    between atoms: C_6  and  N_16
                            x       y       z     vdW  Elec       q    Type
                         _______ _______ _______ _____ _____    ______ ____

>  <TORSDO>
F 3

$$$$
