=
 OpenBabel11052411153D

 26 30  0  0  1  0  0  0  0  0999 V2000
  161.0970  207.8530  151.6330 C   0  0  2  0  0  3  0  0  0  0  0  0
  162.2890  209.9310  148.7750 N   0  0  0  0  0  2  0  0  0  0  0  0
  160.1440  209.2190  155.6290 C   0  0  0  0  0  0  0  0  0  0  0  0
  160.4920  208.7550  154.3250 N   0  0  0  0  0  2  0  0  0  0  0  0
  162.4170  205.8790  151.1090 C   0  0  2  0  0  3  0  0  0  0  0  0
  159.9800  210.6920  155.8900 C   0  0  1  0  0  3  0  0  0  0  0  0
  162.4500  207.3370  151.2970 N   0  0  1  0  0  0  0  0  0  0  0  0
  161.5100  205.4180  149.9710 C   0  0  1  0  0  3  0  0  0  0  0  0
  161.0090  211.1060  153.6960 C   0  0  0  0  0  3  0  0  0  0  0  0
  161.6070  207.9550  150.2660 C   0  0  2  0  0  0  0  0  0  0  0  0
  161.0040  204.0810  151.9100 C   0  0  0  0  0  2  0  0  0  0  0  0
  160.8840  209.6900  153.3210 C   0  0  0  0  0  0  0  0  0  0  0  0
  161.5950  210.1500  151.0470 N   0  0  0  0  0  0  0  0  0  0  0  0
  161.1800  209.2750  152.0860 C   0  0  0  0  0  0  0  0  0  0  0  0
  160.6270  211.5250  154.8670 N   0  0  0  0  0  0  0  0  0  0  0  0
  159.9350  208.3890  156.5510 O   0  0  0  0  0  0  0  0  0  0  0  0
  161.8220  209.4080  150.0180 C   0  0  0  0  0  0  0  0  0  0  0  0
  160.4140  204.5950  150.6140 C   0  0  0  0  0  2  0  0  0  0  0  0
  161.9740  205.1500  152.3700 C   0  0  0  0  0  2  0  0  0  0  0  0
  160.7990  206.8370  149.1020 S   0  0  0  0  0  0  0  0  0  0  0  0
  158.5550  211.0280  155.9620 C   0  0  0  0  0  0  0  0  0  0  0  0
  157.4300  211.2940  156.0190 N   0  0  0  0  0  0  0  0  0  0  0  0
  162.5110  211.3520  148.5710 C   0  0  0  0  0  2  0  0  0  0  0  0
  161.3310  211.9470  147.8320 C   0  0  0  0  0  2  0  0  0  0  0  0
  160.2900  213.8830  149.2570 N   0  0  0  0  0  0  0  0  0  0  0  0
  160.7500  213.0280  148.6270 C   0  0  0  0  0  0  0  0  0  0  0  0
  1 14  1  1  0  0  0
  2 17  1  0  0  0  0
  3  6  1  0  0  0  0
  3 16  2  0  0  0  0
  4  3  1  0  0  0  0
  5  7  1  0  0  0  0
  5 19  1  1  0  0  0
  6 21  1  6  0  0  0
  7  1  1  0  0  0  0
  8 18  1  0  0  0  0
  8  5  1  0  0  0  0
  9 15  2  0  0  0  0
 10  7  1  0  0  0  0
 10  1  1  0  0  0  0
 11 19  1  0  0  0  0
 12  9  1  0  0  0  0
 12  4  1  0  0  0  0
 13 14  1  0  0  0  0
 14 12  2  0  0  0  0
 15  6  1  0  0  0  0
 17 10  1  0  0  0  0
 17 13  2  0  0  0  0
 18 11  1  0  0  0  0
 20  8  1  0  0  0  0
 20 10  1  0  0  0  0
 21 22  3  0  0  0  0
 23  2  1  0  0  0  0
 24 23  1  0  0  0  0
 24 26  1  0  0  0  0
 26 25  3  0  0  0  0
M  END
>  <MODEL>
1

>  <REMARK>
 VINA RESULT:      -6.8      0.000      0.000
  Name = 
  4 active torsions:
  status: ('A' for Active; 'I' for Inactive)
    1  A    between atoms: N_2  and  C_4
    2  A    between atoms: C_4  and  C_15
    3  A    between atoms: C_7  and  C_9
    4  A    between atoms: C_15  and  C_26
                            x       y       z     vdW  Elec       q    Type
                         _______ _______ _______ _____ _____    ______ ____

>  <TORSDO>
F 4

$$$$
=
 OpenBabel11052411153D

 26 30  0  0  1  0  0  0  0  0999 V2000
  160.0550  210.0370  154.1280 C   0  0  2  0  0  3  0  0  0  0  0  0
  162.1220  209.7480  151.0380 N   0  0  0  0  0  2  0  0  0  0  0  0
  157.4080  213.2910  155.1980 C   0  0  0  0  0  0  0  0  0  0  0  0
  158.3070  212.2320  154.8700 N   0  0  0  0  0  2  0  0  0  0  0  0
  161.6540  208.9860  155.6300 C   0  0  2  0  0  3  0  0  0  0  0  0
  157.0120  214.3000  154.1530 C   0  0  1  0  0  3  0  0  0  0  0  0
  161.4680  210.0090  154.5900 N   0  0  1  0  0  0  0  0  0  0  0  0
  161.3470  207.5640  155.1650 C   0  0  1  0  0  3  0  0  0  0  0  0
  158.8130  213.4090  152.7380 C   0  0  0  0  0  3  0  0  0  0  0  0
  161.0740  209.3380  153.3450 C   0  0  2  0  0  0  0  0  0  0  0  0
  160.2130  207.9200  157.2600 C   0  0  0  0  0  2  0  0  0  0  0  0
  158.9890  212.2440  153.6170 C   0  0  0  0  0  0  0  0  0  0  0  0
  160.5320  211.2040  152.0600 N   0  0  0  0  0  0  0  0  0  0  0  0
  159.8080  211.2430  153.2810 C   0  0  0  0  0  0  0  0  0  0  0  0
  157.9430  214.3340  153.0170 N   0  0  0  0  0  0  0  0  0  0  0  0
  156.9140  213.3550  156.3540 O   0  0  0  0  0  0  0  0  0  0  0  0
  161.2330  210.1230  152.0900 C   0  0  0  0  0  0  0  0  0  0  0  0
  160.1670  207.0970  155.9900 C   0  0  0  0  0  2  0  0  0  0  0  0
  160.7990  209.2580  156.8590 C   0  0  0  0  0  2  0  0  0  0  0  0
  160.9300  207.5390  153.4050 S   0  0  0  0  0  0  0  0  0  0  0  0
  155.6600  214.0070  153.6670 C   0  0  0  0  0  0  0  0  0  0  0  0
  154.5930  213.7750  153.2830 N   0  0  0  0  0  0  0  0  0  0  0  0
  162.2730  210.5480  149.8350 C   0  0  0  0  0  2  0  0  0  0  0  0
  161.9720  209.6950  148.6200 C   0  0  0  0  0  2  0  0  0  0  0  0
  161.9780  207.1650  149.3010 N   0  0  0  0  0  0  0  0  0  0  0  0
  161.9760  208.2830  149.0000 C   0  0  0  0  0  0  0  0  0  0  0  0
  1 14  1  6  0  0  0
  1  7  1  0  0  0  0
  2 17  1  0  0  0  0
  3 16  2  0  0  0  0
  4  3  1  0  0  0  0
  5 19  1  1  0  0  0
  6 21  1  6  0  0  0
  6  3  1  0  0  0  0
  7  5  1  0  0  0  0
  8  5  1  0  0  0  0
  8 18  1  0  0  0  0
  9 15  2  0  0  0  0
  9 12  1  0  0  0  0
 10 20  1  0  0  0  0
 10  1  1  0  0  0  0
 10  7  1  0  0  0  0
 12  4  1  0  0  0  0
 13 17  2  0  0  0  0
 13 14  1  0  0  0  0
 14 12  2  0  0  0  0
 15  6  1  0  0  0  0
 17 10  1  0  0  0  0
 18 11  1  0  0  0  0
 19 11  1  0  0  0  0
 20  8  1  0  0  0  0
 22 21  3  0  0  0  0
 23  2  1  0  0  0  0
 24 26  1  0  0  0  0
 24 23  1  0  0  0  0
 26 25  3  0  0  0  0
M  END
>  <MODEL>
2

>  <REMARK>
 VINA RESULT:      -5.3      2.796      4.502
  Name = 
  4 active torsions:
  status: ('A' for Active; 'I' for Inactive)
    1  A    between atoms: N_2  and  C_4
    2  A    between atoms: C_4  and  C_15
    3  A    between atoms: C_7  and  C_9
    4  A    between atoms: C_15  and  C_26
                            x       y       z     vdW  Elec       q    Type
                         _______ _______ _______ _____ _____    ______ ____

>  <TORSDO>
F 4

$$$$
=
 OpenBabel11052411153D

 26 30  0  0  1  0  0  0  0  0999 V2000
  159.9300  210.2650  152.6930 C   0  0  2  0  0  3  0  0  0  0  0  0
  160.0120  209.7590  156.3850 N   0  0  0  0  0  2  0  0  0  0  0  0
  161.7240  207.7340  149.6740 C   0  0  0  0  0  0  0  0  0  0  0  0
  161.1620  208.5930  150.6640 N   0  0  0  0  0  2  0  0  0  0  0  0
  160.0700  212.6930  152.7430 C   0  0  2  0  0  3  0  0  0  0  0  0
  162.1990  206.3550  150.0480 C   0  0  1  0  0  3  0  0  0  0  0  0
  160.6560  211.4400  153.2430 N   0  0  1  0  0  0  0  0  0  0  0  0
  158.6080  212.8960  153.1320 C   0  0  1  0  0  3  0  0  0  0  0  0
  161.9790  207.0150  152.4050 C   0  0  0  0  0  3  0  0  0  0  0  0
  159.6410  210.7430  154.0440 C   0  0  2  0  0  0  0  0  0  0  0  0
  158.8140  213.3270  150.7710 C   0  0  0  0  0  2  0  0  0  0  0  0
  161.2350  208.2300  152.0430 C   0  0  0  0  0  0  0  0  0  0  0  0
  160.7370  208.7140  154.3670 N   0  0  0  0  0  0  0  0  0  0  0  0
  160.6830  209.0070  152.9790 C   0  0  0  0  0  0  0  0  0  0  0  0
  162.4290  206.2070  151.4920 N   0  0  0  0  0  0  0  0  0  0  0  0
  161.7860  208.1170  148.4770 O   0  0  0  0  0  0  0  0  0  0  0  0
  160.1370  209.6840  154.9660 C   0  0  0  0  0  0  0  0  0  0  0  0
  157.8250  212.9030  151.8360 C   0  0  0  0  0  2  0  0  0  0  0  0
  160.1580  212.7990  151.2270 C   0  0  0  0  0  2  0  0  0  0  0  0
  158.0360  211.5540  154.2020 S   0  0  0  0  0  0  0  0  0  0  0  0
  161.2200  205.3560  149.6060 C   0  0  0  0  0  0  0  0  0  0  0  0
  160.4480  204.5680  149.2580 N   0  0  0  0  0  0  0  0  0  0  0  0
  160.5280  208.7200  157.2600 C   0  0  0  0  0  2  0  0  0  0  0  0
  162.0150  208.5560  157.0290 C   0  0  0  0  0  2  0  0  0  0  0  0
  163.1960  210.8850  157.2450 N   0  0  0  0  0  0  0  0  0  0  0  0
  162.6750  209.8560  157.1490 C   0  0  0  0  0  0  0  0  0  0  0  0
  1 14  1  1  0  0  0
  1  7  1  0  0  0  0
  1 10  1  0  0  0  0
  2 23  1  0  0  0  0
  3  6  1  0  0  0  0
  3  4  1  0  0  0  0
  4 12  1  0  0  0  0
  5 19  1  6  0  0  0
  5  8  1  0  0  0  0
  5  7  1  0  0  0  0
  6 21  1  1  0  0  0
  6 15  1  0  0  0  0
  7 10  1  0  0  0  0
  8 20  1  0  0  0  0
 10 20  1  0  0  0  0
 10 17  1  0  0  0  0
 11 19  1  0  0  0  0
 11 18  1  0  0  0  0
 12  9  1  0  0  0  0
 12 14  2  0  0  0  0
 13 17  2  0  0  0  0
 14 13  1  0  0  0  0
 15  9  2  0  0  0  0
 16  3  2  0  0  0  0
 17  2  1  0  0  0  0
 18  8  1  0  0  0  0
 22 21  3  0  0  0  0
 24 26  1  0  0  0  0
 24 23  1  0  0  0  0
 26 25  3  0  0  0  0
M  END
>  <MODEL>
3

>  <REMARK>
 VINA RESULT:      -4.8      3.031      7.225
  Name = 
  4 active torsions:
  status: ('A' for Active; 'I' for Inactive)
    1  A    between atoms: N_2  and  C_4
    2  A    between atoms: C_4  and  C_15
    3  A    between atoms: C_7  and  C_9
    4  A    between atoms: C_15  and  C_26
                            x       y       z     vdW  Elec       q    Type
                         _______ _______ _______ _____ _____    ______ ____

>  <TORSDO>
F 4

$$$$
=
 OpenBabel11052411153D

 26 30  0  0  1  0  0  0  0  0999 V2000
  159.4960  211.7010  151.6540 C   0  0  2  0  0  3  0  0  0  0  0  0
  157.7710  212.7130  154.8000 N   0  0  0  0  0  2  0  0  0  0  0  0
  162.0000  208.2200  151.0590 C   0  0  0  0  0  0  0  0  0  0  0  0
  161.2070  209.3890  151.2570 N   0  0  0  0  0  2  0  0  0  0  0  0
  160.0260  213.9490  150.8930 C   0  0  2  0  0  3  0  0  0  0  0  0
  161.9950  207.1170  152.0840 C   0  0  1  0  0  3  0  0  0  0  0  0
  160.0810  213.0150  152.0280 N   0  0  1  0  0  0  0  0  0  0  0  0
  158.6120  214.2540  150.4050 C   0  0  1  0  0  3  0  0  0  0  0  0
  160.8310  208.6590  153.6050 C   0  0  0  0  0  3  0  0  0  0  0  0
  158.7050  212.6710  152.4100 C   0  0  2  0  0  0  0  0  0  0  0  0
  159.9590  213.7110  148.4830 C   0  0  0  0  0  2  0  0  0  0  0  0
  160.5680  209.6080  152.5140 C   0  0  0  0  0  0  0  0  0  0  0  0
  159.1480  210.9680  153.9350 N   0  0  0  0  0  0  0  0  0  0  0  0
  159.7950  210.6810  152.7040 C   0  0  0  0  0  0  0  0  0  0  0  0
  161.5010  207.5640  153.3940 N   0  0  0  0  0  0  0  0  0  0  0  0
  162.6750  208.0950  150.0040 O   0  0  0  0  0  0  0  0  0  0  0  0
  158.5220  212.0810  153.7650 C   0  0  0  0  0  0  0  0  0  0  0  0
  158.5320  213.7230  148.9890 C   0  0  0  0  0  2  0  0  0  0  0  0
  160.8220  213.4430  149.6980 C   0  0  0  0  0  2  0  0  0  0  0  0
  157.3820  213.4370  151.4500 S   0  0  0  0  0  0  0  0  0  0  0  0
  161.1710  206.0010  151.6080 C   0  0  0  0  0  0  0  0  0  0  0  0
  160.5200  205.1210  151.2320 N   0  0  0  0  0  0  0  0  0  0  0  0
  157.6300  212.1230  156.1200 C   0  0  0  0  0  2  0  0  0  0  0  0
  156.1610  211.9350  156.4350 C   0  0  0  0  0  2  0  0  0  0  0  0
  155.2060  209.9540  155.0110 N   0  0  0  0  0  0  0  0  0  0  0  0
  155.6280  210.8290  155.6400 C   0  0  0  0  0  0  0  0  0  0  0  0
  1  7  1  0  0  0  0
  1 10  1  0  0  0  0
  1 14  1  1  0  0  0
  2 23  1  0  0  0  0
  3  4  1  0  0  0  0
  3  6  1  0  0  0  0
  4 12  1  0  0  0  0
  5 19  1  6  0  0  0
  5  7  1  0  0  0  0
  6 21  1  6  0  0  0
  6 15  1  0  0  0  0
  7 10  1  0  0  0  0
  8  5  1  0  0  0  0
  8 20  1  0  0  0  0
 10 17  1  0  0  0  0
 11 18  1  0  0  0  0
 11 19  1  0  0  0  0
 12 14  2  0  0  0  0
 12  9  1  0  0  0  0
 14 13  1  0  0  0  0
 15  9  2  0  0  0  0
 16  3  2  0  0  0  0
 17 13  2  0  0  0  0
 17  2  1  0  0  0  0
 18  8  1  0  0  0  0
 20 10  1  0  0  0  0
 22 21  3  0  0  0  0
 23 24  1  0  0  0  0
 25 26  3  0  0  0  0
 26 24  1  0  0  0  0
M  END
>  <MODEL>
4

>  <REMARK>
 VINA RESULT:      -4.5      2.903      7.068
  Name = 
  4 active torsions:
  status: ('A' for Active; 'I' for Inactive)
    1  A    between atoms: N_2  and  C_4
    2  A    between atoms: C_4  and  C_15
    3  A    between atoms: C_7  and  C_9
    4  A    between atoms: C_15  and  C_26
                            x       y       z     vdW  Elec       q    Type
                         _______ _______ _______ _____ _____    ______ ____

>  <TORSDO>
F 4

$$$$
=
 OpenBabel11052411153D

 26 30  0  0  1  0  0  0  0  0999 V2000
  159.5490  211.2220  152.1070 C   0  0  2  0  0  3  0  0  0  0  0  0
  159.1570  211.6290  155.7920 N   0  0  0  0  0  2  0  0  0  0  0  0
  161.6920  208.0760  150.0460 C   0  0  0  0  0  0  0  0  0  0  0  0
  161.0160  209.1370  150.7180 N   0  0  0  0  0  2  0  0  0  0  0  0
  159.7020  213.5920  151.5810 C   0  0  2  0  0  3  0  0  0  0  0  0
  162.1030  206.8400  150.8000 C   0  0  1  0  0  3  0  0  0  0  0  0
  160.2080  212.5120  152.4410 N   0  0  1  0  0  0  0  0  0  0  0  0
  158.2030  213.8490  151.7220 C   0  0  1  0  0  3  0  0  0  0  0  0
  161.5910  208.0480  152.8800 C   0  0  0  0  0  3  0  0  0  0  0  0
  159.0940  212.0070  153.2540 C   0  0  2  0  0  0  0  0  0  0  0  0
  158.7110  213.6990  149.3730 C   0  0  0  0  0  2  0  0  0  0  0  0
  160.9090  209.1200  152.1410 C   0  0  0  0  0  0  0  0  0  0  0  0
  160.1240  210.1420  154.1970 N   0  0  0  0  0  0  0  0  0  0  0  0
  160.2490  210.0890  152.7830 C   0  0  0  0  0  0  0  0  0  0  0  0
  162.1470  207.0530  152.2540 N   0  0  0  0  0  0  0  0  0  0  0  0
  161.9080  208.1580  148.8090 O   0  0  0  0  0  0  0  0  0  0  0  0
  159.4610  211.2150  154.4610 C   0  0  0  0  0  0  0  0  0  0  0  0
  157.5920  213.5240  150.3770 C   0  0  0  0  0  2  0  0  0  0  0  0
  159.9820  213.3290  150.1080 C   0  0  0  0  0  2  0  0  0  0  0  0
  157.4890  212.7940  153.0070 S   0  0  0  0  0  0  0  0  0  0  0  0
  161.1800  205.7420  150.4970 C   0  0  0  0  0  0  0  0  0  0  0  0
  160.4520  204.8750  150.2560 N   0  0  0  0  0  0  0  0  0  0  0  0
  159.5480  210.8460  156.9510 C   0  0  0  0  0  2  0  0  0  0  0  0
  161.0090  211.0960  157.2600 C   0  0  0  0  0  2  0  0  0  0  0  0
  162.3290  208.8350  157.1470 N   0  0  0  0  0  0  0  0  0  0  0  0
  161.7460  209.8340  157.1970 C   0  0  0  0  0  0  0  0  0  0  0  0
  1  7  1  0  0  0  0
  1 14  1  1  0  0  0
  1 10  1  0  0  0  0
  2 23  1  0  0  0  0
  3  4  1  0  0  0  0
  3  6  1  0  0  0  0
  4 12  1  0  0  0  0
  5 19  1  6  0  0  0
  5  8  1  0  0  0  0
  5  7  1  0  0  0  0
  6 21  1  1  0  0  0
  6 15  1  0  0  0  0
  7 10  1  0  0  0  0
  8 20  1  0  0  0  0
 10 17  1  0  0  0  0
 11 19  1  0  0  0  0
 11 18  1  0  0  0  0
 12 14  2  0  0  0  0
 12  9  1  0  0  0  0
 13 17  2  0  0  0  0
 14 13  1  0  0  0  0
 15  9  2  0  0  0  0
 16  3  2  0  0  0  0
 17  2  1  0  0  0  0
 18  8  1  0  0  0  0
 20 10  1  0  0  0  0
 22 21  3  0  0  0  0
 23 24  1  0  0  0  0
 25 26  3  0  0  0  0
 26 24  1  0  0  0  0
M  END
>  <MODEL>
5

>  <REMARK>
 VINA RESULT:      -4.5      3.020      7.226
  Name = 
  4 active torsions:
  status: ('A' for Active; 'I' for Inactive)
    1  A    between atoms: N_2  and  C_4
    2  A    between atoms: C_4  and  C_15
    3  A    between atoms: C_7  and  C_9
    4  A    between atoms: C_15  and  C_26
                            x       y       z     vdW  Elec       q    Type
                         _______ _______ _______ _____ _____    ______ ____

>  <TORSDO>
F 4

$$$$
=
 OpenBabel11052411153D

 26 30  0  0  1  0  0  0  0  0999 V2000
  160.5620  210.1730  153.1080 C   0  0  2  0  0  3  0  0  0  0  0  0
  161.8940  206.6920  153.0180 N   0  0  0  0  0  2  0  0  0  0  0  0
  160.8340  213.1500  149.9760 C   0  0  0  0  0  0  0  0  0  0  0  0
  160.7730  212.1870  151.0280 N   0  0  0  0  0  2  0  0  0  0  0  0
  161.0080  210.5790  155.4640 C   0  0  2  0  0  3  0  0  0  0  0  0
  161.2370  212.7310  148.5870 C   0  0  1  0  0  3  0  0  0  0  0  0
  161.5750  210.1020  154.1930 N   0  0  1  0  0  0  0  0  0  0  0  0
  159.8180  209.7620  155.9610 C   0  0  1  0  0  3  0  0  0  0  0  0
  161.9560  210.5820  149.5400 C   0  0  0  0  0  3  0  0  0  0  0  0
  160.8350  208.9030  153.7790 C   0  0  2  0  0  0  0  0  0  0  0  0
  159.2190  212.0930  156.0780 C   0  0  0  0  0  2  0  0  0  0  0  0
  161.2870  210.8720  150.8160 C   0  0  0  0  0  0  0  0  0  0  0  0
  161.7160  208.6310  151.6400 N   0  0  0  0  0  0  0  0  0  0  0  0
  161.2070  209.9490  151.7780 C   0  0  0  0  0  0  0  0  0  0  0  0
  161.9470  211.4450  148.5670 N   0  0  0  0  0  0  0  0  0  0  0  0
  160.5110  214.3440  150.2050 O   0  0  0  0  0  0  0  0  0  0  0  0
  161.4940  208.0370  152.7610 C   0  0  0  0  0  0  0  0  0  0  0  0
  158.6320  210.7030  155.9560 C   0  0  0  0  0  2  0  0  0  0  0  0
  160.5610  212.0320  155.3800 C   0  0  0  0  0  2  0  0  0  0  0  0
  159.5050  208.3540  154.8690 S   0  0  0  0  0  0  0  0  0  0  0  0
  160.0500  212.6460  147.7310 C   0  0  0  0  0  0  0  0  0  0  0  0
  159.1130  212.5780  147.0550 N   0  0  0  0  0  0  0  0  0  0  0  0
  162.5560  205.8800  152.0110 C   0  0  0  0  0  2  0  0  0  0  0  0
  161.5830  204.8530  151.4710 C   0  0  0  0  0  2  0  0  0  0  0  0
  160.4560  205.7740  149.2920 N   0  0  0  0  0  0  0  0  0  0  0  0
  160.9540  205.3670  150.2540 C   0  0  0  0  0  0  0  0  0  0  0  0
  1 14  1  6  0  0  0
  1 10  1  0  0  0  0
  1  7  1  0  0  0  0
  3 16  2  0  0  0  0
  3  4  1  0  0  0  0
  5 19  1  6  0  0  0
  5  8  1  0  0  0  0
  6 21  1  6  0  0  0
  6  3  1  0  0  0  0
  7  5  1  0  0  0  0
  9 12  1  0  0  0  0
 10  7  1  0  0  0  0
 10 20  1  0  0  0  0
 12  4  1  0  0  0  0
 12 14  2  0  0  0  0
 13 14  1  0  0  0  0
 13 17  2  0  0  0  0
 15  6  1  0  0  0  0
 15  9  2  0  0  0  0
 17  2  1  0  0  0  0
 17 10  1  0  0  0  0
 18  8  1  0  0  0  0
 18 11  1  0  0  0  0
 19 11  1  0  0  0  0
 20  8  1  0  0  0  0
 22 21  3  0  0  0  0
 23  2  1  0  0  0  0
 24 23  1  0  0  0  0
 25 26  3  0  0  0  0
 26 24  1  0  0  0  0
M  END
>  <MODEL>
6

>  <REMARK>
 VINA RESULT:      -4.3      2.604      6.485
  Name = 
  4 active torsions:
  status: ('A' for Active; 'I' for Inactive)
    1  A    between atoms: N_2  and  C_4
    2  A    between atoms: C_4  and  C_15
    3  A    between atoms: C_7  and  C_9
    4  A    between atoms: C_15  and  C_26
                            x       y       z     vdW  Elec       q    Type
                         _______ _______ _______ _____ _____    ______ ____

>  <TORSDO>
F 4

$$$$
=
 OpenBabel11052411153D

 26 30  0  0  1  0  0  0  0  0999 V2000
  160.2000  210.1110  152.9280 C   0  0  2  0  0  3  0  0  0  0  0  0
  162.2290  210.7440  149.8650 N   0  0  0  0  0  2  0  0  0  0  0  0
  157.4400  212.8450  154.8380 C   0  0  0  0  0  0  0  0  0  0  0  0
  158.3760  211.9520  154.2360 N   0  0  0  0  0  2  0  0  0  0  0  0
  161.8630  208.7680  154.0880 C   0  0  2  0  0  3  0  0  0  0  0  0
  156.9870  214.0780  154.1020 C   0  0  1  0  0  3  0  0  0  0  0  0
  161.6200  210.0230  153.3610 N   0  0  1  0  0  0  0  0  0  0  0  0
  161.6070  207.5100  153.2630 C   0  0  1  0  0  3  0  0  0  0  0  0
  158.8010  213.6750  152.4920 C   0  0  0  0  0  3  0  0  0  0  0  0
  161.2340  209.6900  151.9830 C   0  0  2  0  0  0  0  0  0  0  0  0
  160.4920  207.2460  155.3810 C   0  0  0  0  0  2  0  0  0  0  0  0
  159.0380  212.3260  153.0280 C   0  0  0  0  0  0  0  0  0  0  0  0
  160.5970  211.8060  151.2440 N   0  0  0  0  0  0  0  0  0  0  0  0
  159.8910  211.4880  152.4340 C   0  0  0  0  0  0  0  0  0  0  0  0
  157.8990  214.4530  153.0110 N   0  0  0  0  0  0  0  0  0  0  0  0
  156.9620  212.5780  155.9710 O   0  0  0  0  0  0  0  0  0  0  0  0
  161.3420  210.7880  150.9820 C   0  0  0  0  0  0  0  0  0  0  0  0
  160.4600  206.7900  153.9380 C   0  0  0  0  0  2  0  0  0  0  0  0
  161.0170  208.6660  155.3500 C   0  0  0  0  0  2  0  0  0  0  0  0
  161.1640  207.9360  151.5620 S   0  0  0  0  0  0  0  0  0  0  0  0
  155.6410  213.8670  153.5600 C   0  0  0  0  0  0  0  0  0  0  0  0
  154.5790  213.7000  153.1320 N   0  0  0  0  0  0  0  0  0  0  0  0
  162.3290  211.8420  148.9170 C   0  0  0  0  0  2  0  0  0  0  0  0
  161.2970  211.6610  147.8240 C   0  0  0  0  0  2  0  0  0  0  0  0
  161.0420  213.8960  146.4810 N   0  0  0  0  0  0  0  0  0  0  0  0
  161.1540  212.9090  147.0740 C   0  0  0  0  0  0  0  0  0  0  0  0
  1 14  1  6  0  0  0
  1  7  1  0  0  0  0
  2 17  1  0  0  0  0
  3 16  2  0  0  0  0
  4  3  1  0  0  0  0
  5 19  1  1  0  0  0
  6 21  1  6  0  0  0
  6  3  1  0  0  0  0
  7  5  1  0  0  0  0
  8 18  1  0  0  0  0
  8  5  1  0  0  0  0
  9 15  2  0  0  0  0
  9 12  1  0  0  0  0
 10  1  1  0  0  0  0
 10  7  1  0  0  0  0
 12  4  1  0  0  0  0
 13 14  1  0  0  0  0
 14 12  2  0  0  0  0
 15  6  1  0  0  0  0
 17 13  2  0  0  0  0
 17 10  1  0  0  0  0
 18 11  1  0  0  0  0
 19 11  1  0  0  0  0
 20 10  1  0  0  0  0
 20  8  1  0  0  0  0
 22 21  3  0  0  0  0
 23  2  1  0  0  0  0
 24 23  1  0  0  0  0
 25 26  3  0  0  0  0
 26 24  1  0  0  0  0
M  END
>  <MODEL>
7

>  <REMARK>
 VINA RESULT:      -4.3      2.678      3.544
  Name = 
  4 active torsions:
  status: ('A' for Active; 'I' for Inactive)
    1  A    between atoms: N_2  and  C_4
    2  A    between atoms: C_4  and  C_15
    3  A    between atoms: C_7  and  C_9
    4  A    between atoms: C_15  and  C_26
                            x       y       z     vdW  Elec       q    Type
                         _______ _______ _______ _____ _____    ______ ____

>  <TORSDO>
F 4

$$$$
=
 OpenBabel11052411153D

 26 30  0  0  1  0  0  0  0  0999 V2000
  160.8880  212.6590  140.6020 C   0  0  2  0  0  3  0  0  0  0  0  0
  157.5250  212.1000  139.0940 N   0  0  0  0  0  2  0  0  0  0  0  0
  161.7500  214.1310  144.5800 C   0  0  0  0  0  0  0  0  0  0  0  0
  161.4740  213.6810  143.2550 N   0  0  0  0  0  2  0  0  0  0  0  0
  161.9830  213.4150  138.5650 C   0  0  2  0  0  3  0  0  0  0  0  0
  160.6520  214.1760  145.6090 C   0  0  1  0  0  3  0  0  0  0  0  0
  160.8120  213.5810  139.4390 N   0  0  1  0  0  0  0  0  0  0  0  0
  162.1210  212.0160  137.9700 C   0  0  1  0  0  3  0  0  0  0  0  0
  159.0470  213.8140  143.7820 C   0  0  0  0  0  3  0  0  0  0  0  0
  160.0580  212.3210  139.4460 C   0  0  2  0  0  0  0  0  0  0  0  0
  164.2590  212.6470  138.8830 C   0  0  0  0  0  2  0  0  0  0  0  0
  160.1240  213.4670  142.8440 C   0  0  0  0  0  0  0  0  0  0  0  0
  158.5320  212.7990  141.1400 N   0  0  0  0  0  0  0  0  0  0  0  0
  159.8520  213.0130  141.6180 C   0  0  0  0  0  0  0  0  0  0  0  0
  159.3110  214.1610  145.0080 N   0  0  0  0  0  0  0  0  0  0  0  0
  162.9240  214.4530  144.8990 O   0  0  0  0  0  0  0  0  0  0  0  0
  158.6480  212.3950  139.9230 C   0  0  0  0  0  0  0  0  0  0  0  0
  163.4080  211.4470  138.5270 C   0  0  0  0  0  2  0  0  0  0  0  0
  163.2840  213.7330  139.2880 C   0  0  0  0  0  2  0  0  0  0  0  0
  160.7190  210.9750  138.4420 S   0  0  0  0  0  0  0  0  0  0  0  0
  160.7860  213.0420  146.5290 C   0  0  0  0  0  0  0  0  0  0  0  0
  160.8920  212.1470  147.2550 N   0  0  0  0  0  0  0  0  0  0  0  0
  156.1600  212.2050  139.5810 C   0  0  0  0  0  2  0  0  0  0  0  0
  155.2510  211.3470  138.7250 C   0  0  0  0  0  2  0  0  0  0  0  0
  155.2540  208.8890  139.6310 N   0  0  0  0  0  0  0  0  0  0  0  0
  155.2530  209.9750  139.2310 C   0  0  0  0  0  0  0  0  0  0  0  0
  1 14  1  1  0  0  0
  2 23  1  0  0  0  0
  2 17  1  0  0  0  0
  3 16  2  0  0  0  0
  3  6  1  0  0  0  0
  4  3  1  0  0  0  0
  5 19  1  1  0  0  0
  5  7  1  0  0  0  0
  6 21  1  1  0  0  0
  7 10  1  0  0  0  0
  7  1  1  0  0  0  0
  8 20  1  0  0  0  0
  8 18  1  0  0  0  0
  8  5  1  0  0  0  0
  9 15  2  0  0  0  0
 10 17  1  0  0  0  0
 10  1  1  0  0  0  0
 11 19  1  0  0  0  0
 12  4  1  0  0  0  0
 12  9  1  0  0  0  0
 13 14  1  0  0  0  0
 14 12  2  0  0  0  0
 15  6  1  0  0  0  0
 17 13  2  0  0  0  0
 18 11  1  0  0  0  0
 20 10  1  0  0  0  0
 21 22  3  0  0  0  0
 24 26  1  0  0  0  0
 24 23  1  0  0  0  0
 26 25  3  0  0  0  0
M  END
>  <MODEL>
8

>  <REMARK>
 VINA RESULT:      -3.9      8.521     12.120
  Name = 
  4 active torsions:
  status: ('A' for Active; 'I' for Inactive)
    1  A    between atoms: N_2  and  C_4
    2  A    between atoms: C_4  and  C_15
    3  A    between atoms: C_7  and  C_9
    4  A    between atoms: C_15  and  C_26
                            x       y       z     vdW  Elec       q    Type
                         _______ _______ _______ _____ _____    ______ ____

>  <TORSDO>
F 4

$$$$
=
 OpenBabel11052411153D

 26 30  0  0  1  0  0  0  0  0999 V2000
  161.4510  207.3470  150.2330 C   0  0  2  0  0  3  0  0  0  0  0  0
  162.2610  205.4570  147.1240 N   0  0  0  0  0  2  0  0  0  0  0  0
  161.2460  211.6470  150.6910 C   0  0  0  0  0  0  0  0  0  0  0  0
  161.3490  210.2310  150.5570 N   0  0  0  0  0  2  0  0  0  0  0  0
  162.5600  205.8300  151.7770 C   0  0  2  0  0  3  0  0  0  0  0  0
  161.2060  212.5230  149.4670 C   0  0  1  0  0  3  0  0  0  0  0  0
  162.7010  206.6000  150.5320 N   0  0  1  0  0  0  0  0  0  0  0  0
  161.4540  204.7790  151.7380 C   0  0  1  0  0  3  0  0  0  0  0  0
  161.8780  210.5590  148.1490 C   0  0  0  0  0  3  0  0  0  0  0  0
  161.7320  206.0820  149.5570 C   0  0  2  0  0  0  0  0  0  0  0  0
  161.2060  206.0400  153.7750 C   0  0  0  0  0  2  0  0  0  0  0  0
  161.6180  209.6560  149.2790 C   0  0  0  0  0  0  0  0  0  0  0  0
  161.9660  207.6950  147.8930 N   0  0  0  0  0  0  0  0  0  0  0  0
  161.6830  208.3300  149.1310 C   0  0  0  0  0  0  0  0  0  0  0  0
  161.7180  211.8440  148.2680 N   0  0  0  0  0  0  0  0  0  0  0  0
  161.1490  212.1610  151.8350 O   0  0  0  0  0  0  0  0  0  0  0  0
  161.9800  206.4290  148.1290 C   0  0  0  0  0  0  0  0  0  0  0  0
  160.4380  205.1990  152.7780 C   0  0  0  0  0  2  0  0  0  0  0  0
  162.2930  206.7290  152.9770 C   0  0  0  0  0  2  0  0  0  0  0  0
  160.6850  204.7160  150.1020 S   0  0  0  0  0  0  0  0  0  0  0  0
  159.8320  212.9730  149.2230 C   0  0  0  0  0  0  0  0  0  0  0  0
  158.7480  213.3280  149.0300 N   0  0  0  0  0  0  0  0  0  0  0  0
  162.5220  205.8280  145.7440 C   0  0  0  0  0  2  0  0  0  0  0  0
  161.3490  205.4150  144.8800 C   0  0  0  0  0  2  0  0  0  0  0  0
  160.8310  202.8750  145.2610 N   0  0  0  0  0  0  0  0  0  0  0  0
  161.0600  203.9970  145.0920 C   0  0  0  0  0  0  0  0  0  0  0  0
  1 14  1  6  0  0  0
  1  7  1  0  0  0  0
  2 17  1  0  0  0  0
  3 16  2  0  0  0  0
  4  3  1  0  0  0  0
  5 19  1  1  0  0  0
  6 21  1  6  0  0  0
  6  3  1  0  0  0  0
  7  5  1  0  0  0  0
  8  5  1  0  0  0  0
  8 18  1  0  0  0  0
  9 15  2  0  0  0  0
  9 12  1  0  0  0  0
 10 20  1  0  0  0  0
 10  1  1  0  0  0  0
 10  7  1  0  0  0  0
 12  4  1  0  0  0  0
 13 17  2  0  0  0  0
 13 14  1  0  0  0  0
 14 12  2  0  0  0  0
 15  6  1  0  0  0  0
 17 10  1  0  0  0  0
 18 11  1  0  0  0  0
 19 11  1  0  0  0  0
 20  8  1  0  0  0  0
 22 21  3  0  0  0  0
 23  2  1  0  0  0  0
 24 26  1  0  0  0  0
 24 23  1  0  0  0  0
 26 25  3  0  0  0  0
M  END
>  <MODEL>
9

>  <REMARK>
 VINA RESULT:      -3.8      3.128      5.360
  Name = 
  4 active torsions:
  status: ('A' for Active; 'I' for Inactive)
    1  A    between atoms: N_2  and  C_4
    2  A    between atoms: C_4  and  C_15
    3  A    between atoms: C_7  and  C_9
    4  A    between atoms: C_15  and  C_26
                            x       y       z     vdW  Elec       q    Type
                         _______ _______ _______ _____ _____    ______ ____

>  <TORSDO>
F 4

$$$$
