=
 OpenBabel11052410253D

 36 40  0  0  0  0  0  0  0  0999 V2000
  161.5000  209.9470  151.1280 C   0  0  0  0  0  2  0  0  0  0  0  0
  161.3160  206.8560  152.9500 C   0  0  0  0  0  0  0  0  0  0  0  0
  161.1890  206.5480  151.6020 C   0  0  0  0  0  0  0  0  0  0  0  0
  161.7480  209.3480  149.7580 C   0  0  0  0  0  0  0  0  0  0  0  0
  161.4840  208.0800  149.6890 N   0  0  0  0  0  0  0  0  0  0  0  0
  161.1910  208.2400  153.0780 C   0  0  0  0  0  0  0  0  0  0  0  0
  161.6710  205.9590  153.9500 O   0  0  0  0  0  1  0  0  0  0  0  0
  161.0140  208.7080  151.7910 C   0  0  0  0  0  0  0  0  0  0  0  0
  160.9940  207.6990  150.9340 N   0  0  0  0  0  0  0  0  0  0  0  0
  162.2740  210.0750  148.6480 N   0  0  0  0  0  2  0  0  0  0  0  0
  161.0360  210.5210  156.2130 C   0  0  0  0  0  0  0  0  0  0  0  0
  159.0390  211.0520  155.6580 C   0  0  0  0  0  0  0  0  0  0  0  0
  159.9140  211.3030  156.5840 N   0  0  0  0  0  0  0  0  0  0  0  0
  161.5830  209.0460  154.1950 N   0  0  0  0  0  2  0  0  0  0  0  0
  162.2340  210.6780  156.7050 C   0  0  0  0  0  0  0  0  0  0  0  0
  163.3710  210.8250  157.1720 O   0  0  0  0  0  0  0  0  0  0  0  0
  159.4950  210.1620  154.6290 N   0  0  0  0  0  0  0  0  0  0  0  0
  160.6950  209.8470  154.9820 C   0  0  0  0  0  0  0  0  0  0  0  0
  155.7610  212.2130  154.9720 N   0  0  0  0  0  2  0  0  0  0  0  0
  156.8420  211.5400  154.6240 N   0  0  0  0  0  0  0  0  0  0  0  0
  155.9830  212.7290  156.1970 C   0  0  0  0  0  3  0  0  0  0  0  0
  157.7050  211.6590  155.6450 C   0  0  0  0  0  0  0  0  0  0  0  0
  157.2080  212.3970  156.6550 N   0  0  0  0  0  0  0  0  0  0  0  0
  162.5590  211.3950  148.7430 O   0  0  0  0  0  0  0  0  0  0  0  0
  161.5900  212.0310  147.9640 C   0  0  0  0  0  1  0  0  0  0  0  0
  161.5950  205.2610  150.9680 C   0  0  0  0  0  2  0  0  0  0  0  0
  160.7490  204.1850  151.4530 N   0  0  0  0  0  2  0  0  0  0  0  0
  160.7930  203.1340  150.4510 C   0  0  0  0  0  2  0  0  0  0  0  0
  160.5970  203.7280  149.0640 C   0  0  0  0  0  2  0  0  0  0  0  0
  161.4320  202.9920  148.0230 C   0  0  0  0  0  2  0  0  0  0  0  0
  162.2290  205.1790  146.9570 C   0  0  0  0  0  3  0  0  0  0  0  0
  161.5370  204.6950  144.6260 C   0  0  0  0  0  2  0  0  0  0  0  0
  161.6850  203.8410  146.8680 N   0  0  0  0  0  0  0  0  0  0  0  0
  162.2290  205.7290  145.5230 C   0  0  0  0  0  3  0  0  0  0  0  0
  161.2610  203.5800  145.5490 C   0  0  0  0  0  0  0  0  0  0  0  0
  160.6910  202.5110  145.2060 O   0  0  0  0  0  0  0  0  0  0  0  0
  1  8  1  0  0  0  0
  2  6  1  0  0  0  0
  2  7  1  0  0  0  0
  3  2  2  0  0  0  0
  4  1  1  0  0  0  0
  5  4  2  0  0  0  0
  5  9  1  0  0  0  0
  6 14  1  0  0  0  0
  8  6  2  0  0  0  0
  9  3  1  0  0  0  0
  9  8  1  0  0  0  0
 10 24  1  0  0  0  0
 10  4  1  0  0  0  0
 11 13  1  0  0  0  0
 11 15  2  0  0  0  0
 12 13  2  0  0  0  0
 14 18  1  0  0  0  0
 15 16  2  0  0  0  0
 17 18  2  0  0  0  0
 17 12  1  0  0  0  0
 18 11  1  0  0  0  0
 19 21  1  0  0  0  0
 20 19  1  0  0  0  0
 20 22  2  0  0  0  0
 21 23  2  0  0  0  0
 22 12  1  0  0  0  0
 22 23  1  0  0  0  0
 25 24  1  0  0  0  0
 26 27  1  0  0  0  0
 26  3  1  0  0  0  0
 28 27  1  0  0  0  0
 29 28  1  0  0  0  0
 30 29  1  0  0  0  0
 32 34  1  0  0  0  0
 32 35  1  0  0  0  0
 33 31  1  0  0  0  0
 33 30  1  0  0  0  0
 34 31  2  0  0  0  0
 35 33  1  0  0  0  0
 36 35  2  0  0  0  0
M  END
>  <MODEL>
1

>  <REMARK>
 VINA RESULT:      -7.9      0.000      0.000
  Name = 
  9 active torsions:
  status: ('A' for Active; 'I' for Inactive)
    1  A    between atoms: O_3  and  N_33
    2  A    between atoms: C_6  and  N_13
    3  A    between atoms: C_6  and  C_34
    4  A    between atoms: C_9  and  C_32
    5  A    between atoms: C_10  and  C_19
    6  A    between atoms: C_17  and  N_20
    7  A    between atoms: C_21  and  N_28
    8  A    between atoms: C_21  and  C_34
    9  A    between atoms: N_28  and  C_32
                            x       y       z     vdW  Elec       q    Type
                         _______ _______ _______ _____ _____    ______ ____

>  <TORSDO>
F 9

$$$$
=
 OpenBabel11052410253D

 36 40  0  0  0  0  0  0  0  0999 V2000
  161.9300  211.5060  150.0270 C   0  0  0  0  0  2  0  0  0  0  0  0
  162.0940  208.0310  150.9210 C   0  0  0  0  0  0  0  0  0  0  0  0
  162.0100  208.0960  149.5380 C   0  0  0  0  0  0  0  0  0  0  0  0
  162.2510  211.3420  148.5560 C   0  0  0  0  0  0  0  0  0  0  0  0
  162.1350  210.1220  148.1310 N   0  0  0  0  0  0  0  0  0  0  0  0
  161.8110  209.3030  151.4200 C   0  0  0  0  0  0  0  0  0  0  0  0
  162.5460  206.9360  151.6480 O   0  0  0  0  0  1  0  0  0  0  0  0
  161.5870  210.0870  150.3060 C   0  0  0  0  0  0  0  0  0  0  0  0
  161.6860  209.3590  149.2050 N   0  0  0  0  0  0  0  0  0  0  0  0
  162.6940  212.4010  147.7070 N   0  0  0  0  0  2  0  0  0  0  0  0
  161.3780  210.6380  155.0380 C   0  0  0  0  0  0  0  0  0  0  0  0
  159.3580  211.1490  154.5470 C   0  0  0  0  0  0  0  0  0  0  0  0
  160.1830  211.2050  155.5480 N   0  0  0  0  0  0  0  0  0  0  0  0
  162.1030  209.8060  152.7290 N   0  0  0  0  0  2  0  0  0  0  0  0
  162.5440  210.7460  155.6120 C   0  0  0  0  0  0  0  0  0  0  0  0
  163.6520  210.8470  156.1570 O   0  0  0  0  0  0  0  0  0  0  0  0
  159.9160  210.6050  153.3420 N   0  0  0  0  0  0  0  0  0  0  0  0
  161.1290  210.2970  153.6570 C   0  0  0  0  0  0  0  0  0  0  0  0
  155.8980  211.6970  155.0890 N   0  0  0  0  0  0  0  0  0  0  0  0
  156.9790  210.9480  155.2050 N   0  0  0  0  0  0  0  0  0  0  0  0
  156.2570  212.8270  154.4480 C   0  0  0  0  0  3  0  0  0  0  0  0
  157.9790  211.6350  154.6310 C   0  0  0  0  0  0  0  0  0  0  0  0
  157.5710  212.8210  154.1410 N   0  0  0  0  0  2  0  0  0  0  0  0
  162.8250  213.6660  148.1720 O   0  0  0  0  0  0  0  0  0  0  0  0
  161.7570  214.3690  147.6090 C   0  0  0  0  0  1  0  0  0  0  0  0
  162.5640  207.0880  148.5890 C   0  0  0  0  0  2  0  0  0  0  0  0
  161.5390  206.6880  147.6420 N   0  0  0  0  0  2  0  0  0  0  0  0
  162.2250  206.0670  146.5220 C   0  0  0  0  0  2  0  0  0  0  0  0
  162.6190  204.6420  146.8760 C   0  0  0  0  0  2  0  0  0  0  0  0
  161.4540  203.6790  146.6800 C   0  0  0  0  0  2  0  0  0  0  0  0
  161.0190  203.6980  149.2030 C   0  0  0  0  0  3  0  0  0  0  0  0
  160.8160  201.2500  149.5330 C   0  0  0  0  0  2  0  0  0  0  0  0
  161.1150  203.0160  147.9300 N   0  0  0  0  0  0  0  0  0  0  0  0
  160.7420  202.6060  150.2460 C   0  0  0  0  0  3  0  0  0  0  0  0
  161.0330  201.6210  148.1230 C   0  0  0  0  0  0  0  0  0  0  0  0
  161.1510  200.7860  147.1890 O   0  0  0  0  0  0  0  0  0  0  0  0
  1  8  1  0  0  0  0
  2  6  1  0  0  0  0
  2  7  1  0  0  0  0
  3  2  2  0  0  0  0
  4  1  1  0  0  0  0
  5  4  2  0  0  0  0
  5  9  1  0  0  0  0
  6 14  1  0  0  0  0
  8  6  2  0  0  0  0
  9  3  1  0  0  0  0
  9  8  1  0  0  0  0
 10 24  1  0  0  0  0
 10  4  1  0  0  0  0
 11 13  1  0  0  0  0
 11 15  2  0  0  0  0
 12 22  1  0  0  0  0
 12 13  2  0  0  0  0
 14 18  1  0  0  0  0
 15 16  2  0  0  0  0
 17 18  2  0  0  0  0
 17 12  1  0  0  0  0
 18 11  1  0  0  0  0
 19 20  1  0  0  0  0
 21 19  2  0  0  0  0
 22 20  2  0  0  0  0
 23 21  1  0  0  0  0
 23 22  1  0  0  0  0
 25 24  1  0  0  0  0
 26  3  1  0  0  0  0
 27 26  1  0  0  0  0
 28 29  1  0  0  0  0
 28 27  1  0  0  0  0
 30 29  1  0  0  0  0
 30 33  1  0  0  0  0
 31 34  2  0  0  0  0
 32 34  1  0  0  0  0
 33 35  1  0  0  0  0
 33 31  1  0  0  0  0
 35 32  1  0  0  0  0
 36 35  2  0  0  0  0
M  END
>  <MODEL>
2

>  <REMARK>
 VINA RESULT:      -7.7      1.671      2.706
  Name = 
  9 active torsions:
  status: ('A' for Active; 'I' for Inactive)
    1  A    between atoms: O_3  and  N_33
    2  A    between atoms: C_6  and  N_13
    3  A    between atoms: C_6  and  C_34
    4  A    between atoms: C_9  and  C_32
    5  A    between atoms: C_10  and  C_19
    6  A    between atoms: C_17  and  N_20
    7  A    between atoms: C_21  and  N_28
    8  A    between atoms: C_21  and  C_34
    9  A    between atoms: N_28  and  C_32
                            x       y       z     vdW  Elec       q    Type
                         _______ _______ _______ _____ _____    ______ ____

>  <TORSDO>
F 9

$$$$
=
 OpenBabel11052410253D

 36 40  0  0  0  0  0  0  0  0999 V2000
  160.7090  211.3570  154.6100 C   0  0  0  0  0  2  0  0  0  0  0  0
  161.2450  208.8480  152.0960 C   0  0  0  0  0  0  0  0  0  0  0  0
  161.1970  208.1990  153.3220 C   0  0  0  0  0  0  0  0  0  0  0  0
  160.2970  210.4230  155.7300 C   0  0  0  0  0  0  0  0  0  0  0  0
  160.5920  209.1800  155.5050 N   0  0  0  0  0  0  0  0  0  0  0  0
  161.3390  210.2180  152.3490 C   0  0  0  0  0  0  0  0  0  0  0  0
  161.0610  208.2440  150.8580 O   0  0  0  0  0  1  0  0  0  0  0  0
  161.3220  210.3330  153.7240 C   0  0  0  0  0  0  0  0  0  0  0  0
  161.2600  209.1360  154.2860 N   0  0  0  0  0  0  0  0  0  0  0  0
  159.6000  210.8370  156.9050 N   0  0  0  0  0  2  0  0  0  0  0  0
  159.8670  213.4450  150.7780 C   0  0  0  0  0  0  0  0  0  0  0  0
  158.2150  213.2820  152.1290 C   0  0  0  0  0  0  0  0  0  0  0  0
  158.6490  214.0510  151.1750 N   0  0  0  0  0  0  0  0  0  0  0  0
  161.0760  211.2880  151.4350 N   0  0  0  0  0  2  0  0  0  0  0  0
  160.4970  213.7250  149.6700 C   0  0  0  0  0  0  0  0  0  0  0  0
  161.0960  213.9900  148.6200 O   0  0  0  0  0  0  0  0  0  0  0  0
  159.0440  212.1440  152.4030 N   0  0  0  0  0  0  0  0  0  0  0  0
  160.0360  212.2610  151.5870 C   0  0  0  0  0  0  0  0  0  0  0  0
  155.5520  213.6750  154.4350 N   0  0  0  0  0  0  0  0  0  0  0  0
  156.7990  213.3380  154.1590 N   0  0  0  0  0  0  0  0  0  0  0  0
  154.9780  214.0730  153.2830 C   0  0  0  0  0  3  0  0  0  0  0  0
  156.9610  213.5370  152.8420 C   0  0  0  0  0  0  0  0  0  0  0  0
  155.8430  213.9990  152.2510 N   0  0  0  0  0  2  0  0  0  0  0  0
  159.2860  212.1370  157.1150 O   0  0  0  0  0  0  0  0  0  0  0  0
  157.8970  212.1530  157.2610 C   0  0  0  0  0  1  0  0  0  0  0  0
  160.7530  206.7920  153.5380 C   0  0  0  0  0  2  0  0  0  0  0  0
  161.8330  205.8790  153.2130 N   0  0  0  0  0  2  0  0  0  0  0  0
  161.2160  204.6530  152.7380 C   0  0  0  0  0  2  0  0  0  0  0  0
  161.6980  204.3370  151.3310 C   0  0  0  0  0  2  0  0  0  0  0  0
  160.5470  204.3610  150.3320 C   0  0  0  0  0  2  0  0  0  0  0  0
  161.4620  204.2070  147.9450 C   0  0  0  0  0  3  0  0  0  0  0  0
  160.8890  201.8340  147.5120 C   0  0  0  0  0  2  0  0  0  0  0  0
  160.8870  203.6100  149.1320 N   0  0  0  0  0  0  0  0  0  0  0  0
  161.5570  203.0760  146.9110 C   0  0  0  0  0  3  0  0  0  0  0  0
  160.5310  202.2700  148.8740 C   0  0  0  0  0  0  0  0  0  0  0  0
  159.9520  201.5350  149.7160 O   0  0  0  0  0  0  0  0  0  0  0  0
  1  4  1  0  0  0  0
  2  6  1  0  0  0  0
  2  3  2  0  0  0  0
  3 26  1  0  0  0  0
  3  9  1  0  0  0  0
  4 10  1  0  0  0  0
  5  4  2  0  0  0  0
  6  8  2  0  0  0  0
  7  2  1  0  0  0  0
  8  9  1  0  0  0  0
  8  1  1  0  0  0  0
  9  5  1  0  0  0  0
 10 24  1  0  0  0  0
 11 13  1  0  0  0  0
 11 18  1  0  0  0  0
 12 17  1  0  0  0  0
 12 22  1  0  0  0  0
 13 12  2  0  0  0  0
 14 18  1  0  0  0  0
 14  6  1  0  0  0  0
 15 11  2  0  0  0  0
 16 15  2  0  0  0  0
 18 17  2  0  0  0  0
 20 19  1  0  0  0  0
 21 19  2  0  0  0  0
 22 20  2  0  0  0  0
 23 22  1  0  0  0  0
 23 21  1  0  0  0  0
 24 25  1  0  0  0  0
 27 26  1  0  0  0  0
 28 27  1  0  0  0  0
 29 28  1  0  0  0  0
 30 29  1  0  0  0  0
 31 33  1  0  0  0  0
 32 35  1  0  0  0  0
 33 30  1  0  0  0  0
 34 32  1  0  0  0  0
 34 31  2  0  0  0  0
 35 33  1  0  0  0  0
 35 36  2  0  0  0  0
M  END
>  <MODEL>
3

>  <REMARK>
 VINA RESULT:      -6.4      2.514      4.844
  Name = 
  9 active torsions:
  status: ('A' for Active; 'I' for Inactive)
    1  A    between atoms: O_3  and  N_33
    2  A    between atoms: C_6  and  N_13
    3  A    between atoms: C_6  and  C_34
    4  A    between atoms: C_9  and  C_32
    5  A    between atoms: C_10  and  C_19
    6  A    between atoms: C_17  and  N_20
    7  A    between atoms: C_21  and  N_28
    8  A    between atoms: C_21  and  C_34
    9  A    between atoms: N_28  and  C_32
                            x       y       z     vdW  Elec       q    Type
                         _______ _______ _______ _____ _____    ______ ____

>  <TORSDO>
F 9

$$$$
=
 OpenBabel11052410253D

 36 40  0  0  0  0  0  0  0  0999 V2000
  161.7660  210.6650  152.4760 C   0  0  0  0  0  2  0  0  0  0  0  0
  161.9160  208.5430  149.5810 C   0  0  0  0  0  0  0  0  0  0  0  0
  161.7480  207.7210  150.6860 C   0  0  0  0  0  0  0  0  0  0  0  0
  161.1940  209.6420  153.4360 C   0  0  0  0  0  0  0  0  0  0  0  0
  161.2860  208.4210  153.0080 N   0  0  0  0  0  0  0  0  0  0  0  0
  162.2290  209.8200  150.0510 C   0  0  0  0  0  0  0  0  0  0  0  0
  161.6500  208.1860  148.2650 O   0  0  0  0  0  1  0  0  0  0  0  0
  162.2150  209.7120  151.4270 C   0  0  0  0  0  0  0  0  0  0  0  0
  161.9520  208.4660  151.7880 N   0  0  0  0  0  0  0  0  0  0  0  0
  160.5610  209.9670  154.6730 N   0  0  0  0  0  2  0  0  0  0  0  0
  161.3230  213.4570  149.0460 C   0  0  0  0  0  0  0  0  0  0  0  0
  159.6510  213.3480  150.3780 C   0  0  0  0  0  0  0  0  0  0  0  0
  160.2150  214.1800  149.5550 N   0  0  0  0  0  0  0  0  0  0  0  0
  162.1540  211.0530  149.3260 N   0  0  0  0  0  2  0  0  0  0  0  0
  162.0020  213.8060  147.9880 C   0  0  0  0  0  0  0  0  0  0  0  0
  162.6480  214.1360  146.9850 O   0  0  0  0  0  0  0  0  0  0  0  0
  160.2800  212.0610  150.4510 N   0  0  0  0  0  0  0  0  0  0  0  0
  161.2870  212.1450  149.6490 C   0  0  0  0  0  0  0  0  0  0  0  0
  156.4570  214.3110  151.5770 N   0  0  0  0  0  2  0  0  0  0  0  0
  157.3040  214.1100  150.5830 N   0  0  0  0  0  0  0  0  0  0  0  0
  157.0990  214.0050  152.7220 C   0  0  0  0  0  3  0  0  0  0  0  0
  158.4480  213.6860  151.1430 C   0  0  0  0  0  0  0  0  0  0  0  0
  158.3640  213.6050  152.4840 N   0  0  0  0  0  0  0  0  0  0  0  0
  160.4610  211.2500  155.0950 O   0  0  0  0  0  0  0  0  0  0  0  0
  160.6940  211.1950  156.4710 C   0  0  0  0  0  1  0  0  0  0  0  0
  161.0770  206.3890  150.6780 C   0  0  0  0  0  2  0  0  0  0  0  0
  161.7130  205.5120  151.6450 N   0  0  0  0  0  2  0  0  0  0  0  0
  161.4490  204.1510  151.2120 C   0  0  0  0  0  2  0  0  0  0  0  0
  160.6880  204.1600  149.8960 C   0  0  0  0  0  2  0  0  0  0  0  0
  161.1380  203.0230  148.9870 C   0  0  0  0  0  2  0  0  0  0  0  0
  161.8460  204.8730  147.3640 C   0  0  0  0  0  3  0  0  0  0  0  0
  161.4360  203.6460  145.2490 C   0  0  0  0  0  2  0  0  0  0  0  0
  161.4320  203.5160  147.6490 N   0  0  0  0  0  0  0  0  0  0  0  0
  161.9430  204.9700  145.8340 C   0  0  0  0  0  3  0  0  0  0  0  0
  161.1670  202.8300  146.4460 C   0  0  0  0  0  0  0  0  0  0  0  0
  160.7290  201.6500  146.4050 O   0  0  0  0  0  0  0  0  0  0  0  0
  1  4  1  0  0  0  0
  2  6  1  0  0  0  0
  2  3  2  0  0  0  0
  3  9  1  0  0  0  0
  4 10  1  0  0  0  0
  5  4  2  0  0  0  0
  6  8  2  0  0  0  0
  7  2  1  0  0  0  0
  8  9  1  0  0  0  0
  8  1  1  0  0  0  0
  9  5  1  0  0  0  0
 10 24  1  0  0  0  0
 11 13  1  0  0  0  0
 11 18  1  0  0  0  0
 12 17  1  0  0  0  0
 12 22  1  0  0  0  0
 13 12  2  0  0  0  0
 14 18  1  0  0  0  0
 14  6  1  0  0  0  0
 15 11  2  0  0  0  0
 16 15  2  0  0  0  0
 18 17  2  0  0  0  0
 19 21  1  0  0  0  0
 20 22  2  0  0  0  0
 20 19  1  0  0  0  0
 22 23  1  0  0  0  0
 23 21  2  0  0  0  0
 24 25  1  0  0  0  0
 26  3  1  0  0  0  0
 26 27  1  0  0  0  0
 28 27  1  0  0  0  0
 29 28  1  0  0  0  0
 30 29  1  0  0  0  0
 31 33  1  0  0  0  0
 32 34  1  0  0  0  0
 32 35  1  0  0  0  0
 33 30  1  0  0  0  0
 34 31  2  0  0  0  0
 35 33  1  0  0  0  0
 36 35  2  0  0  0  0
M  END
>  <MODEL>
4

>  <REMARK>
 VINA RESULT:      -6.3      2.388      4.739
  Name = 
  9 active torsions:
  status: ('A' for Active; 'I' for Inactive)
    1  A    between atoms: O_3  and  N_33
    2  A    between atoms: C_6  and  N_13
    3  A    between atoms: C_6  and  C_34
    4  A    between atoms: C_9  and  C_32
    5  A    between atoms: C_10  and  C_19
    6  A    between atoms: C_17  and  N_20
    7  A    between atoms: C_21  and  N_28
    8  A    between atoms: C_21  and  C_34
    9  A    between atoms: N_28  and  C_32
                            x       y       z     vdW  Elec       q    Type
                         _______ _______ _______ _____ _____    ______ ____

>  <TORSDO>
F 9

$$$$
=
 OpenBabel11052410253D

 36 40  0  0  0  0  0  0  0  0999 V2000
  161.3920  208.2120  153.6350 C   0  0  0  0  0  2  0  0  0  0  0  0
  161.3560  206.8510  150.3110 C   0  0  0  0  0  0  0  0  0  0  0  0
  161.3060  205.7820  151.1950 C   0  0  0  0  0  0  0  0  0  0  0  0
  160.9320  206.9640  154.3600 C   0  0  0  0  0  0  0  0  0  0  0  0
  161.0220  205.8850  153.6450 N   0  0  0  0  0  0  0  0  0  0  0  0
  161.6710  207.9920  151.0510 C   0  0  0  0  0  0  0  0  0  0  0  0
  160.9900  206.8050  148.9720 O   0  0  0  0  0  1  0  0  0  0  0  0
  161.7770  207.5590  152.3570 C   0  0  0  0  0  0  0  0  0  0  0  0
  161.5810  206.2520  152.4250 N   0  0  0  0  0  0  0  0  0  0  0  0
  160.3970  206.9540  155.6830 N   0  0  0  0  0  2  0  0  0  0  0  0
  160.8060  211.7740  151.1260 C   0  0  0  0  0  0  0  0  0  0  0  0
  159.5400  211.3920  152.8090 C   0  0  0  0  0  0  0  0  0  0  0  0
  159.9280  212.3800  152.0590 N   0  0  0  0  0  0  0  0  0  0  0  0
  161.5010  209.3570  150.6520 N   0  0  0  0  0  2  0  0  0  0  0  0
  161.2090  212.3420  150.0230 C   0  0  0  0  0  0  0  0  0  0  0  0
  161.5920  212.8800  148.9760 O   0  0  0  0  0  0  0  0  0  0  0  0
  160.0680  210.1120  152.4330 N   0  0  0  0  0  0  0  0  0  0  0  0
  160.8330  210.3610  151.4240 C   0  0  0  0  0  0  0  0  0  0  0  0
  157.5790  211.1970  155.7550 N   0  0  0  0  0  0  0  0  0  0  0  0
  158.5150  210.7140  154.9590 N   0  0  0  0  0  0  0  0  0  0  0  0
  157.1200  212.3340  155.1950 C   0  0  0  0  0  3  0  0  0  0  0  0
  158.6080  211.5670  153.9260 C   0  0  0  0  0  0  0  0  0  0  0  0
  157.7510  212.5990  154.0330 N   0  0  0  0  0  2  0  0  0  0  0  0
  160.2970  208.0930  156.4090 O   0  0  0  0  0  0  0  0  0  0  0  0
  161.4050  208.0780  157.2590 C   0  0  0  0  0  1  0  0  0  0  0  0
  160.6740  204.4590  150.9160 C   0  0  0  0  0  2  0  0  0  0  0  0
  161.5820  203.3910  151.2950 N   0  0  0  0  0  2  0  0  0  0  0  0
  161.1170  202.1900  150.6230 C   0  0  0  0  0  2  0  0  0  0  0  0
  160.4550  202.5540  149.3030 C   0  0  0  0  0  2  0  0  0  0  0  0
  161.1630  201.8930  148.1270 C   0  0  0  0  0  2  0  0  0  0  0  0
  161.9550  204.1640  147.2480 C   0  0  0  0  0  3  0  0  0  0  0  0
  161.1560  203.9240  144.9140 C   0  0  0  0  0  2  0  0  0  0  0  0
  161.3830  202.8490  147.0520 N   0  0  0  0  0  0  0  0  0  0  0  0
  161.9050  204.8530  145.8770 C   0  0  0  0  0  3  0  0  0  0  0  0
  160.8990  202.7260  145.7330 C   0  0  0  0  0  0  0  0  0  0  0  0
  160.2960  201.7050  145.3110 O   0  0  0  0  0  0  0  0  0  0  0  0
  1  4  1  0  0  0  0
  2  6  1  0  0  0  0
  2  3  2  0  0  0  0
  3  9  1  0  0  0  0
  4 10  1  0  0  0  0
  5  4  2  0  0  0  0
  6  8  2  0  0  0  0
  7  2  1  0  0  0  0
  8  9  1  0  0  0  0
  8  1  1  0  0  0  0
  9  5  1  0  0  0  0
 10 24  1  0  0  0  0
 11 18  1  0  0  0  0
 11 13  1  0  0  0  0
 12 22  1  0  0  0  0
 13 12  2  0  0  0  0
 14  6  1  0  0  0  0
 14 18  1  0  0  0  0
 15 11  2  0  0  0  0
 16 15  2  0  0  0  0
 17 12  1  0  0  0  0
 18 17  2  0  0  0  0
 20 19  1  0  0  0  0
 21 19  2  0  0  0  0
 22 23  1  0  0  0  0
 22 20  2  0  0  0  0
 23 21  1  0  0  0  0
 24 25  1  0  0  0  0
 26  3  1  0  0  0  0
 26 27  1  0  0  0  0
 28 27  1  0  0  0  0
 29 28  1  0  0  0  0
 30 29  1  0  0  0  0
 32 35  1  0  0  0  0
 32 34  1  0  0  0  0
 33 31  1  0  0  0  0
 33 30  1  0  0  0  0
 34 31  2  0  0  0  0
 35 33  1  0  0  0  0
 36 35  2  0  0  0  0
M  END
>  <MODEL>
5

>  <REMARK>
 VINA RESULT:      -6.3      1.924      4.041
  Name = 
  9 active torsions:
  status: ('A' for Active; 'I' for Inactive)
    1  A    between atoms: O_3  and  N_33
    2  A    between atoms: C_6  and  N_13
    3  A    between atoms: C_6  and  C_34
    4  A    between atoms: C_9  and  C_32
    5  A    between atoms: C_10  and  C_19
    6  A    between atoms: C_17  and  N_20
    7  A    between atoms: C_21  and  N_28
    8  A    between atoms: C_21  and  C_34
    9  A    between atoms: N_28  and  C_32
                            x       y       z     vdW  Elec       q    Type
                         _______ _______ _______ _____ _____    ______ ____

>  <TORSDO>
F 9

$$$$
=
 OpenBabel11052410253D

 36 40  0  0  0  0  0  0  0  0999 V2000
  162.1660  210.2790  148.2560 C   0  0  0  0  0  2  0  0  0  0  0  0
  161.5360  207.3290  150.2070 C   0  0  0  0  0  0  0  0  0  0  0  0
  161.5650  208.4040  151.0840 C   0  0  0  0  0  0  0  0  0  0  0  0
  161.7570  211.2940  149.3040 C   0  0  0  0  0  0  0  0  0  0  0  0
  161.6730  210.8010  150.5010 N   0  0  0  0  0  0  0  0  0  0  0  0
  162.0260  207.7760  148.9780 C   0  0  0  0  0  0  0  0  0  0  0  0
  160.9630  206.0910  150.4710 O   0  0  0  0  0  1  0  0  0  0  0  0
  162.3100  209.1130  149.1670 C   0  0  0  0  0  0  0  0  0  0  0  0
  162.0550  209.4660  150.4170 N   0  0  0  0  0  0  0  0  0  0  0  0
  161.4350  212.6550  149.0210 N   0  0  0  0  0  2  0  0  0  0  0  0
  161.1740  205.1670  146.2360 C   0  0  0  0  0  0  0  0  0  0  0  0
  161.2110  203.6510  147.7460 C   0  0  0  0  0  0  0  0  0  0  0  0
  161.0120  203.7780  146.4680 N   0  0  0  0  0  0  0  0  0  0  0  0
  161.8710  207.1440  147.7020 N   0  0  0  0  0  2  0  0  0  0  0  0
  161.3330  205.6980  145.0550 C   0  0  0  0  0  0  0  0  0  0  0  0
  161.4850  206.2040  143.9350 O   0  0  0  0  0  0  0  0  0  0  0  0
  161.5410  204.8710  148.4240 N   0  0  0  0  0  0  0  0  0  0  0  0
  161.5080  205.7740  147.5030 C   0  0  0  0  0  0  0  0  0  0  0  0
  161.2060  200.2530  148.7550 N   0  0  0  0  0  2  0  0  0  0  0  0
  161.3570  201.1800  147.8270 N   0  0  0  0  0  0  0  0  0  0  0  0
  160.9010  200.8810  149.9070 C   0  0  0  0  0  3  0  0  0  0  0  0
  161.1400  202.3590  148.4320 C   0  0  0  0  0  0  0  0  0  0  0  0
  160.8500  202.2190  149.7390 N   0  0  0  0  0  0  0  0  0  0  0  0
  161.5120  213.1490  147.7620 O   0  0  0  0  0  0  0  0  0  0  0  0
  160.2080  213.0810  147.2670 C   0  0  0  0  0  1  0  0  0  0  0  0
  160.8260  208.4850  152.3770 C   0  0  0  0  0  2  0  0  0  0  0  0
  161.6190  207.8860  153.4350 N   0  0  0  0  0  2  0  0  0  0  0  0
  160.8310  206.7960  153.9820 C   0  0  0  0  0  2  0  0  0  0  0  0
  160.3660  207.1410  155.3880 C   0  0  0  0  0  2  0  0  0  0  0  0
  161.3090  208.1350  156.0550 C   0  0  0  0  0  2  0  0  0  0  0  0
  159.3350  209.7620  155.9420 C   0  0  0  0  0  3  0  0  0  0  0  0
  160.6330  211.8600  155.7090 C   0  0  0  0  0  2  0  0  0  0  0  0
  160.7520  209.4800  156.0200 N   0  0  0  0  0  0  0  0  0  0  0  0
  159.2160  211.2890  155.8270 C   0  0  0  0  0  3  0  0  0  0  0  0
  161.4900  210.6700  155.8540 C   0  0  0  0  0  0  0  0  0  0  0  0
  162.7480  210.7030  155.8160 O   0  0  0  0  0  0  0  0  0  0  0  0
  1  8  1  0  0  0  0
  1  4  1  0  0  0  0
  2  7  1  0  0  0  0
  2  3  2  0  0  0  0
  3 26  1  0  0  0  0
  4  5  2  0  0  0  0
  6  8  2  0  0  0  0
  6  2  1  0  0  0  0
  8  9  1  0  0  0  0
  9  5  1  0  0  0  0
  9  3  1  0  0  0  0
 10  4  1  0  0  0  0
 11 13  1  0  0  0  0
 11 18  1  0  0  0  0
 12 17  1  0  0  0  0
 12 22  1  0  0  0  0
 13 12  2  0  0  0  0
 14  6  1  0  0  0  0
 15 11  2  0  0  0  0
 16 15  2  0  0  0  0
 18 14  1  0  0  0  0
 18 17  2  0  0  0  0
 19 21  1  0  0  0  0
 20 22  2  0  0  0  0
 20 19  1  0  0  0  0
 22 23  1  0  0  0  0
 23 21  2  0  0  0  0
 24 10  1  0  0  0  0
 25 24  1  0  0  0  0
 26 27  1  0  0  0  0
 27 28  1  0  0  0  0
 28 29  1  0  0  0  0
 29 30  1  0  0  0  0
 31 33  1  0  0  0  0
 32 34  1  0  0  0  0
 32 35  1  0  0  0  0
 33 30  1  0  0  0  0
 34 31  2  0  0  0  0
 35 33  1  0  0  0  0
 36 35  2  0  0  0  0
M  END
>  <MODEL>
6

>  <REMARK>
 VINA RESULT:      -6.3      2.292      9.199
  Name = 
  9 active torsions:
  status: ('A' for Active; 'I' for Inactive)
    1  A    between atoms: O_3  and  N_33
    2  A    between atoms: C_6  and  N_13
    3  A    between atoms: C_6  and  C_34
    4  A    between atoms: C_9  and  C_32
    5  A    between atoms: C_10  and  C_19
    6  A    between atoms: C_17  and  N_20
    7  A    between atoms: C_21  and  N_28
    8  A    between atoms: C_21  and  C_34
    9  A    between atoms: N_28  and  C_32
                            x       y       z     vdW  Elec       q    Type
                         _______ _______ _______ _____ _____    ______ ____

>  <TORSDO>
F 9

$$$$
=
 OpenBabel11052410253D

 36 40  0  0  0  0  0  0  0  0999 V2000
  162.3260  210.3010  148.2560 C   0  0  0  0  0  2  0  0  0  0  0  0
  161.3740  207.4600  150.2390 C   0  0  0  0  0  0  0  0  0  0  0  0
  161.4240  208.5570  151.0880 C   0  0  0  0  0  0  0  0  0  0  0  0
  161.9240  211.3720  149.2500 C   0  0  0  0  0  0  0  0  0  0  0  0
  161.7330  210.9220  150.4510 N   0  0  0  0  0  0  0  0  0  0  0  0
  161.9680  207.8360  149.0330 C   0  0  0  0  0  0  0  0  0  0  0  0
  160.7020  206.2720  150.4980 O   0  0  0  0  0  1  0  0  0  0  0  0
  162.3320  209.1560  149.2050 C   0  0  0  0  0  0  0  0  0  0  0  0
  162.0250  209.5620  150.4260 N   0  0  0  0  0  0  0  0  0  0  0  0
  161.7150  212.7430  148.9120 N   0  0  0  0  0  2  0  0  0  0  0  0
  161.2060  205.1650  146.3230 C   0  0  0  0  0  0  0  0  0  0  0  0
  161.2250  203.6790  147.8630 C   0  0  0  0  0  0  0  0  0  0  0  0
  161.0530  203.7800  146.5790 N   0  0  0  0  0  0  0  0  0  0  0  0
  161.8490  207.1780  147.7660 N   0  0  0  0  0  2  0  0  0  0  0  0
  161.3870  205.6760  145.1360 C   0  0  0  0  0  0  0  0  0  0  0  0
  161.5590  206.1610  144.0100 O   0  0  0  0  0  0  0  0  0  0  0  0
  161.5270  204.9160  148.5250 N   0  0  0  0  0  0  0  0  0  0  0  0
  161.5050  205.8000  147.5850 C   0  0  0  0  0  0  0  0  0  0  0  0
  161.2050  200.3000  148.9320 N   0  0  0  0  0  2  0  0  0  0  0  0
  161.3530  201.2090  147.9870 N   0  0  0  0  0  0  0  0  0  0  0  0
  160.9170  200.9510  150.0760 C   0  0  0  0  0  3  0  0  0  0  0  0
  161.1510  202.4000  148.5730 C   0  0  0  0  0  0  0  0  0  0  0  0
  160.8740  202.2850  149.8850 N   0  0  0  0  0  0  0  0  0  0  0  0
  161.9040  213.1920  147.6480 O   0  0  0  0  0  0  0  0  0  0  0  0
  162.6420  214.3690  147.7900 C   0  0  0  0  0  1  0  0  0  0  0  0
  160.6140  208.7270  152.3290 C   0  0  0  0  0  2  0  0  0  0  0  0
  161.1590  207.8990  153.3900 N   0  0  0  0  0  2  0  0  0  0  0  0
  161.0200  208.6550  154.6220 C   0  0  0  0  0  2  0  0  0  0  0  0
  161.7530  209.9820  154.5070 C   0  0  0  0  0  2  0  0  0  0  0  0
  161.0080  211.0920  155.2400 C   0  0  0  0  0  2  0  0  0  0  0  0
  159.7770  212.2070  153.2910 C   0  0  0  0  0  3  0  0  0  0  0  0
  157.4640  211.9100  154.1330 C   0  0  0  0  0  2  0  0  0  0  0  0
  159.7910  211.4550  154.5280 N   0  0  0  0  0  0  0  0  0  0  0  0
  158.2960  212.4440  152.9610 C   0  0  0  0  0  3  0  0  0  0  0  0
  158.4780  211.3170  155.0230 C   0  0  0  0  0  0  0  0  0  0  0  0
  158.2090  210.7590  156.1190 O   0  0  0  0  0  0  0  0  0  0  0  0
  1  8  1  0  0  0  0
  1  4  1  0  0  0  0
  2  7  1  0  0  0  0
  2  3  2  0  0  0  0
  3 26  1  0  0  0  0
  4  5  2  0  0  0  0
  6  8  2  0  0  0  0
  6  2  1  0  0  0  0
  8  9  1  0  0  0  0
  9  5  1  0  0  0  0
  9  3  1  0  0  0  0
 10  4  1  0  0  0  0
 11 13  1  0  0  0  0
 11 18  1  0  0  0  0
 12 17  1  0  0  0  0
 12 22  1  0  0  0  0
 13 12  2  0  0  0  0
 14  6  1  0  0  0  0
 15 11  2  0  0  0  0
 16 15  2  0  0  0  0
 18 14  1  0  0  0  0
 18 17  2  0  0  0  0
 19 21  1  0  0  0  0
 20 22  2  0  0  0  0
 20 19  1  0  0  0  0
 22 23  1  0  0  0  0
 23 21  2  0  0  0  0
 24 25  1  0  0  0  0
 24 10  1  0  0  0  0
 26 27  1  0  0  0  0
 27 28  1  0  0  0  0
 29 28  1  0  0  0  0
 29 30  1  0  0  0  0
 31 33  1  0  0  0  0
 32 35  1  0  0  0  0
 33 35  1  0  0  0  0
 33 30  1  0  0  0  0
 34 31  2  0  0  0  0
 34 32  1  0  0  0  0
 35 36  2  0  0  0  0
M  END
>  <MODEL>
7

>  <REMARK>
 VINA RESULT:      -6.2      2.192      9.194
  Name = 
  9 active torsions:
  status: ('A' for Active; 'I' for Inactive)
    1  A    between atoms: O_3  and  N_33
    2  A    between atoms: C_6  and  N_13
    3  A    between atoms: C_6  and  C_34
    4  A    between atoms: C_9  and  C_32
    5  A    between atoms: C_10  and  C_19
    6  A    between atoms: C_17  and  N_20
    7  A    between atoms: C_21  and  N_28
    8  A    between atoms: C_21  and  C_34
    9  A    between atoms: N_28  and  C_32
                            x       y       z     vdW  Elec       q    Type
                         _______ _______ _______ _____ _____    ______ ____

>  <TORSDO>
F 9

$$$$
=
 OpenBabel11052410253D

 36 40  0  0  0  0  0  0  0  0999 V2000
  161.4830  209.0700  152.9040 C   0  0  0  0  0  2  0  0  0  0  0  0
  161.9290  208.9100  149.3430 C   0  0  0  0  0  0  0  0  0  0  0  0
  162.1920  207.6450  149.8480 C   0  0  0  0  0  0  0  0  0  0  0  0
  161.4150  207.5770  153.1570 C   0  0  0  0  0  0  0  0  0  0  0  0
  161.8440  206.8620  152.1630 N   0  0  0  0  0  0  0  0  0  0  0  0
  161.8650  209.7900  150.4250 C   0  0  0  0  0  0  0  0  0  0  0  0
  161.6200  209.2000  148.0190 O   0  0  0  0  0  1  0  0  0  0  0  0
  162.0740  209.0050  151.5410 C   0  0  0  0  0  0  0  0  0  0  0  0
  162.2860  207.7470  151.1860 N   0  0  0  0  0  0  0  0  0  0  0  0
  160.8830  206.9870  154.3420 N   0  0  0  0  0  2  0  0  0  0  0  0
  160.4680  213.2180  149.2650 C   0  0  0  0  0  0  0  0  0  0  0  0
  161.5310  212.9640  147.4240 C   0  0  0  0  0  0  0  0  0  0  0  0
  160.7480  213.8190  148.0120 N   0  0  0  0  0  0  0  0  0  0  0  0
  161.2930  211.1020  150.4440 N   0  0  0  0  0  2  0  0  0  0  0  0
  159.9480  213.8510  150.2810 C   0  0  0  0  0  0  0  0  0  0  0  0
  159.4540  214.4490  151.2450 O   0  0  0  0  0  0  0  0  0  0  0  0
  161.8490  211.8070  148.2100 N   0  0  0  0  0  0  0  0  0  0  0  0
  161.1970  211.9720  149.3110 C   0  0  0  0  0  0  0  0  0  0  0  0
  163.4690  213.2840  144.4740 N   0  0  0  0  0  2  0  0  0  0  0  0
  163.3610  212.9890  145.7560 N   0  0  0  0  0  0  0  0  0  0  0  0
  162.2470  213.6510  144.0400 C   0  0  0  0  0  3  0  0  0  0  0  0
  162.0730  213.1820  146.0810 C   0  0  0  0  0  0  0  0  0  0  0  0
  161.3370  213.5980  145.0340 N   0  0  0  0  0  0  0  0  0  0  0  0
  160.4250  207.7500  155.3630 O   0  0  0  0  0  0  0  0  0  0  0  0
  160.1040  206.8430  156.3760 C   0  0  0  0  0  1  0  0  0  0  0  0
  162.0010  206.3630  149.1100 C   0  0  0  0  0  2  0  0  0  0  0  0
  161.1570  206.5840  147.9490 N   0  0  0  0  0  2  0  0  0  0  0  0
  161.8200  205.9500  146.8230 C   0  0  0  0  0  2  0  0  0  0  0  0
  162.3060  204.5640  147.2160 C   0  0  0  0  0  2  0  0  0  0  0  0
  161.2210  203.5150  147.0020 C   0  0  0  0  0  2  0  0  0  0  0  0
  160.8200  203.3440  149.5250 C   0  0  0  0  0  3  0  0  0  0  0  0
  160.9760  200.8780  149.7290 C   0  0  0  0  0  2  0  0  0  0  0  0
  160.9970  202.7470  148.2180 N   0  0  0  0  0  0  0  0  0  0  0  0
  160.7170  202.1720  150.5110 C   0  0  0  0  0  3  0  0  0  0  0  0
  161.1180  201.3480  148.3400 C   0  0  0  0  0  0  0  0  0  0  0  0
  161.3440  200.5870  147.3620 O   0  0  0  0  0  0  0  0  0  0  0  0
  1  4  1  0  0  0  0
  2  3  2  0  0  0  0
  2  6  1  0  0  0  0
  3  9  1  0  0  0  0
  4 10  1  0  0  0  0
  5  4  2  0  0  0  0
  6 14  1  0  0  0  0
  6  8  2  0  0  0  0
  7  2  1  0  0  0  0
  8  1  1  0  0  0  0
  9  8  1  0  0  0  0
  9  5  1  0  0  0  0
 10 24  1  0  0  0  0
 11 18  1  0  0  0  0
 11 15  2  0  0  0  0
 12 13  2  0  0  0  0
 12 17  1  0  0  0  0
 13 11  1  0  0  0  0
 15 16  2  0  0  0  0
 17 18  2  0  0  0  0
 18 14  1  0  0  0  0
 19 20  1  0  0  0  0
 20 22  2  0  0  0  0
 21 19  1  0  0  0  0
 21 23  2  0  0  0  0
 22 12  1  0  0  0  0
 23 22  1  0  0  0  0
 24 25  1  0  0  0  0
 26  3  1  0  0  0  0
 27 26  1  0  0  0  0
 28 29  1  0  0  0  0
 28 27  1  0  0  0  0
 30 29  1  0  0  0  0
 30 33  1  0  0  0  0
 31 34  2  0  0  0  0
 32 34  1  0  0  0  0
 33 35  1  0  0  0  0
 33 31  1  0  0  0  0
 35 32  1  0  0  0  0
 36 35  2  0  0  0  0
M  END
>  <MODEL>
8

>  <REMARK>
 VINA RESULT:      -6.1      3.347      6.815
  Name = 
  9 active torsions:
  status: ('A' for Active; 'I' for Inactive)
    1  A    between atoms: O_3  and  N_33
    2  A    between atoms: C_6  and  N_13
    3  A    between atoms: C_6  and  C_34
    4  A    between atoms: C_9  and  C_32
    5  A    between atoms: C_10  and  C_19
    6  A    between atoms: C_17  and  N_20
    7  A    between atoms: C_21  and  N_28
    8  A    between atoms: C_21  and  C_34
    9  A    between atoms: N_28  and  C_32
                            x       y       z     vdW  Elec       q    Type
                         _______ _______ _______ _____ _____    ______ ____

>  <TORSDO>
F 9

$$$$
=
 OpenBabel11052410253D

 36 40  0  0  0  0  0  0  0  0999 V2000
  161.5720  205.4820  151.2270 C   0  0  0  0  0  2  0  0  0  0  0  0
  161.8810  209.0610  151.2200 C   0  0  0  0  0  0  0  0  0  0  0  0
  162.0220  208.6330  149.9080 C   0  0  0  0  0  0  0  0  0  0  0  0
  161.3500  205.3050  149.7390 C   0  0  0  0  0  0  0  0  0  0  0  0
  161.6660  206.3500  149.0380 N   0  0  0  0  0  0  0  0  0  0  0  0
  161.9490  207.9330  152.0400 C   0  0  0  0  0  0  0  0  0  0  0  0
  161.5630  210.3550  151.6150 O   0  0  0  0  0  1  0  0  0  0  0  0
  162.1080  206.8680  151.1760 C   0  0  0  0  0  0  0  0  0  0  0  0
  162.1700  207.2960  149.9250 N   0  0  0  0  0  0  0  0  0  0  0  0
  160.7960  204.1320  149.1430 N   0  0  0  0  0  2  0  0  0  0  0  0
  160.0950  208.5840  155.3850 C   0  0  0  0  0  0  0  0  0  0  0  0
  159.6410  210.5550  154.6840 C   0  0  0  0  0  0  0  0  0  0  0  0
  159.4500  209.8000  155.7240 N   0  0  0  0  0  0  0  0  0  0  0  0
  161.5230  207.8250  153.4030 N   0  0  0  0  0  2  0  0  0  0  0  0
  160.3880  207.6460  156.2430 C   0  0  0  0  0  0  0  0  0  0  0  0
  160.6670  206.7550  157.0570 O   0  0  0  0  0  0  0  0  0  0  0  0
  160.4200  209.9510  153.6420 N   0  0  0  0  0  0  0  0  0  0  0  0
  160.6790  208.7640  154.0760 C   0  0  0  0  0  0  0  0  0  0  0  0
  158.9560  214.0240  154.9340 N   0  0  0  0  0  0  0  0  0  0  0  0
  159.6760  212.9650  155.2540 N   0  0  0  0  0  0  0  0  0  0  0  0
  157.9890  213.6140  154.0900 C   0  0  0  0  0  3  0  0  0  0  0  0
  159.1330  211.9270  154.5990 C   0  0  0  0  0  0  0  0  0  0  0  0
  158.0710  212.2880  153.8550 N   0  0  0  0  0  2  0  0  0  0  0  0
  160.4570  203.0560  149.8930 O   0  0  0  0  0  0  0  0  0  0  0  0
  160.4720  201.9790  149.0050 C   0  0  0  0  0  1  0  0  0  0  0  0
  161.6690  209.4290  148.6970 C   0  0  0  0  0  2  0  0  0  0  0  0
  162.4920  210.6240  148.6370 N   0  0  0  0  0  2  0  0  0  0  0  0
  161.6180  211.7140  148.2380 C   0  0  0  0  0  2  0  0  0  0  0  0
  162.4140  212.7770  147.4980 C   0  0  0  0  0  2  0  0  0  0  0  0
  161.5240  213.5830  146.5600 C   0  0  0  0  0  2  0  0  0  0  0  0
  162.7370  213.2140  144.3360 C   0  0  0  0  0  3  0  0  0  0  0  0
  160.8530  212.2030  143.0810 C   0  0  0  0  0  2  0  0  0  0  0  0
  161.5900  213.0570  145.2040 N   0  0  0  0  0  0  0  0  0  0  0  0
  162.3310  212.6000  142.9880 C   0  0  0  0  0  3  0  0  0  0  0  0
  160.5090  212.5130  144.4800 C   0  0  0  0  0  0  0  0  0  0  0  0
  159.3670  212.3310  144.9780 O   0  0  0  0  0  0  0  0  0  0  0  0
  2  7  1  0  0  0  0
  2  6  1  0  0  0  0
  3  9  1  0  0  0  0
  3  2  2  0  0  0  0
  4  1  1  0  0  0  0
  5  4  2  0  0  0  0
  5  9  1  0  0  0  0
  6 14  1  0  0  0  0
  8  1  1  0  0  0  0
  8  6  2  0  0  0  0
  9  8  1  0  0  0  0
 10  4  1  0  0  0  0
 10 24  1  0  0  0  0
 11 13  1  0  0  0  0
 11 15  2  0  0  0  0
 12 13  2  0  0  0  0
 14 18  1  0  0  0  0
 15 16  2  0  0  0  0
 17 18  2  0  0  0  0
 17 12  1  0  0  0  0
 18 11  1  0  0  0  0
 19 20  1  0  0  0  0
 21 19  2  0  0  0  0
 22 12  1  0  0  0  0
 22 20  2  0  0  0  0
 23 21  1  0  0  0  0
 23 22  1  0  0  0  0
 25 24  1  0  0  0  0
 26  3  1  0  0  0  0
 27 26  1  0  0  0  0
 28 27  1  0  0  0  0
 29 28  1  0  0  0  0
 30 29  1  0  0  0  0
 31 33  1  0  0  0  0
 32 35  1  0  0  0  0
 33 30  1  0  0  0  0
 34 32  1  0  0  0  0
 34 31  2  0  0  0  0
 35 36  2  0  0  0  0
 35 33  1  0  0  0  0
M  END
>  <MODEL>
9

>  <REMARK>
 VINA RESULT:      -6.0      2.567      5.803
  Name = 
  9 active torsions:
  status: ('A' for Active; 'I' for Inactive)
    1  A    between atoms: O_3  and  N_33
    2  A    between atoms: C_6  and  N_13
    3  A    between atoms: C_6  and  C_34
    4  A    between atoms: C_9  and  C_32
    5  A    between atoms: C_10  and  C_19
    6  A    between atoms: C_17  and  N_20
    7  A    between atoms: C_21  and  N_28
    8  A    between atoms: C_21  and  C_34
    9  A    between atoms: N_28  and  C_32
                            x       y       z     vdW  Elec       q    Type
                         _______ _______ _______ _____ _____    ______ ____

>  <TORSDO>
F 9

$$$$
