=
 OpenBabel11042423093D

 29 33  0  0  1  0  0  0  0  0999 V2000
  161.0400  204.4560  152.7680 C   0  0  0  0  0  3  0  0  0  0  0  0
  160.7520  206.5920  146.3160 C   0  0  0  0  0  2  0  0  0  0  0  0
  161.1460  208.4940  153.4500 C   0  0  0  0  0  0  0  0  0  0  0  0
  162.6100  207.6170  149.0740 C   0  0  0  0  0  3  0  0  0  0  0  0
  161.2300  202.4810  151.3120 N   0  0  0  0  0  0  0  0  0  0  0  0
  161.0440  204.6010  150.2620 C   0  0  0  0  0  3  0  0  0  0  0  0
  159.9520  206.7480  148.5520 O   0  0  0  0  0  1  0  0  0  0  0  0
  162.0080  208.8810  151.1110 C   0  0  2  0  0  3  0  0  0  0  0  0
  161.3560  200.5310  150.0050 F   0  0  0  0  0  0  0  0  0  0  0  0
  161.1450  210.7100  152.5200 C   0  0  0  0  0  3  0  0  0  0  0  0
  160.9380  205.3150  145.5060 C   0  0  2  0  0  3  0  0  0  0  0  0
  161.1720  202.6270  148.9560 N   0  0  0  0  0  0  0  0  0  0  0  0
  161.5130  207.9720  152.2020 C   0  0  0  0  0  0  0  0  0  0  0  0
  161.0670  203.9820  149.0160 C   0  0  0  0  0  0  0  0  0  0  0  0
  161.2560  201.8790  150.0920 C   0  0  0  0  0  0  0  0  0  0  0  0
  160.8820  204.1650  146.4980 C   0  0  0  0  0  2  0  0  0  0  0  0
  161.5030  206.6310  152.0200 N   0  0  0  0  0  0  0  0  0  0  0  0
  160.8690  206.2860  154.2790 C   0  0  0  0  0  3  0  0  0  0  0  0
  160.9860  206.2270  147.7700 C   0  0  1  0  0  0  0  0  0  0  0  0
  160.9650  204.7680  147.8140 N   0  0  0  0  0  0  0  0  0  0  0  0
  162.3080  206.7120  148.1880 N   0  0  0  0  0  0  0  0  0  0  0  0
  161.5600  210.3000  151.3150 C   0  0  0  0  0  3  0  0  0  0  0  0
  161.1510  205.7700  153.0090 C   0  0  0  0  0  0  0  0  0  0  0  0
  161.1390  203.8330  151.4250 C   0  0  0  0  0  0  0  0  0  0  0  0
  161.0050  209.7790  153.6120 N   0  0  0  0  0  0  0  0  0  0  0  0
  161.6360  208.3650  149.8020 N   0  0  0  0  0  2  0  0  0  0  0  0
  160.8680  207.6360  154.4700 N   0  0  0  0  0  0  0  0  0  0  0  0
  163.2400  204.0870  145.8310 C   0  0  0  0  0  1  0  0  0  0  0  0
  162.5710  205.3470  144.7090 S   0  0  0  0  0  0  0  0  0  0  0  0
  1 23  2  0  0  0  0
  2 19  1  0  0  0  0
  3 25  2  0  0  0  0
  3 27  1  0  0  0  0
  4 26  1  0  0  0  0
  5 24  1  0  0  0  0
  6 24  2  0  0  0  0
  8 22  1  1  0  0  0
  8 13  1  0  0  0  0
  9 15  1  0  0  0  0
 10 25  1  0  0  0  0
 11 29  1  1  0  0  0
 11  2  1  0  0  0  0
 11 16  1  0  0  0  0
 12 14  2  0  0  0  0
 12 15  1  0  0  0  0
 13  3  1  0  0  0  0
 14  6  1  0  0  0  0
 15  5  2  0  0  0  0
 16 20  1  0  0  0  0
 17 13  2  0  0  0  0
 17 23  1  0  0  0  0
 18 27  2  0  0  0  0
 19 20  1  0  0  0  0
 19 21  1  0  0  0  0
 19  7  1  1  0  0  0
 20 14  1  0  0  0  0
 21  4  2  0  0  0  0
 22 10  2  0  0  0  0
 23 18  1  0  0  0  0
 24  1  1  0  0  0  0
 26  8  1  0  0  0  0
 29 28  1  0  0  0  0
M  END
>  <MODEL>
1

>  <REMARK>
 VINA RESULT:      -9.2      0.000      0.000
  Name = 
  1 active torsions:
  status: ('A' for Active; 'I' for Inactive)
    1  A    between atoms: C_11  and  S_24
                            x       y       z     vdW  Elec       q    Type
                         _______ _______ _______ _____ _____    ______ ____

>  <TORSDO>
F 1

$$$$
=
 OpenBabel11042423093D

 29 33  0  0  1  0  0  0  0  0999 V2000
  161.7500  207.5760  147.9770 C   0  0  0  0  0  3  0  0  0  0  0  0
  160.6080  208.6100  154.6030 C   0  0  0  0  0  2  0  0  0  0  0  0
  161.1370  203.6870  149.1120 C   0  0  0  0  0  0  0  0  0  0  0  0
  162.4290  206.2150  152.8540 C   0  0  0  0  0  3  0  0  0  0  0  0
  162.2080  209.9450  148.4580 N   0  0  0  0  0  0  0  0  0  0  0  0
  161.5490  208.5670  150.2750 C   0  0  0  0  0  3  0  0  0  0  0  0
  159.9520  207.5840  152.5570 O   0  0  0  0  0  1  0  0  0  0  0  0
  161.7430  204.2710  151.4900 C   0  0  2  0  0  3  0  0  0  0  0  0
  162.6070  212.2360  148.8080 F   0  0  0  0  0  0  0  0  0  0  0  0
  160.6510  202.1450  150.8890 C   0  0  0  0  0  3  0  0  0  0  0  0
  160.9750  210.0750  154.8060 C   0  0  2  0  0  3  0  0  0  0  0  0
  161.9570  210.8770  150.6130 N   0  0  0  0  0  0  0  0  0  0  0  0
  161.5070  204.6550  150.0560 C   0  0  0  0  0  0  0  0  0  0  0  0
  161.6010  209.6670  151.1240 C   0  0  0  0  0  0  0  0  0  0  0  0
  162.2610  211.0190  149.2930 C   0  0  0  0  0  0  0  0  0  0  0  0
  161.2070  210.6560  153.4210 C   0  0  0  0  0  2  0  0  0  0  0  0
  161.7390  205.9230  149.6430 N   0  0  0  0  0  0  0  0  0  0  0  0
  161.3430  205.3070  147.3870 C   0  0  0  0  0  3  0  0  0  0  0  0
  161.0090  208.2510  153.1850 C   0  0  1  0  0  0  0  0  0  0  0  0
  161.2680  209.5240  152.5180 N   0  0  0  0  0  0  0  0  0  0  0  0
  162.2410  207.4520  153.2140 N   0  0  0  0  0  0  0  0  0  0  0  0
  161.0500  202.9870  151.8490 C   0  0  0  0  0  3  0  0  0  0  0  0
  161.6270  206.2910  148.3400 C   0  0  0  0  0  0  0  0  0  0  0  0
  161.8700  208.7130  148.9230 C   0  0  0  0  0  0  0  0  0  0  0  0
  160.7670  202.4990  149.4960 N   0  0  0  0  0  0  0  0  0  0  0  0
  161.3840  205.3630  152.3830 N   0  0  0  0  0  2  0  0  0  0  0  0
  161.1000  204.0290  147.7940 N   0  0  0  0  0  0  0  0  0  0  0  0
  162.0340  208.7900  156.8400 C   0  0  0  0  0  1  0  0  0  0  0  0
  162.5110  210.1770  155.7710 S   0  0  0  0  0  0  0  0  0  0  0  0
  1 23  2  0  0  0  0
  1 24  1  0  0  0  0
  2 11  1  0  0  0  0
  3 25  2  0  0  0  0
  3 13  1  0  0  0  0
  4 21  2  0  0  0  0
  5 24  1  0  0  0  0
  5 15  2  0  0  0  0
  6 14  1  0  0  0  0
  8 22  1  1  0  0  0
  8 26  1  0  0  0  0
  9 15  1  0  0  0  0
 10 22  2  0  0  0  0
 11 29  1  1  0  0  0
 12 14  2  0  0  0  0
 13  8  1  0  0  0  0
 14 20  1  0  0  0  0
 15 12  1  0  0  0  0
 16 11  1  0  0  0  0
 17 13  2  0  0  0  0
 18 27  2  0  0  0  0
 18 23  1  0  0  0  0
 19  7  1  6  0  0  0
 19 21  1  0  0  0  0
 19  2  1  0  0  0  0
 20 19  1  0  0  0  0
 20 16  1  0  0  0  0
 23 17  1  0  0  0  0
 24  6  2  0  0  0  0
 25 10  1  0  0  0  0
 26  4  1  0  0  0  0
 27  3  1  0  0  0  0
 29 28  1  0  0  0  0
M  END
>  <MODEL>
2

>  <REMARK>
 VINA RESULT:      -7.5      3.524      7.446
  Name = 
  1 active torsions:
  status: ('A' for Active; 'I' for Inactive)
    1  A    between atoms: C_11  and  S_24
                            x       y       z     vdW  Elec       q    Type
                         _______ _______ _______ _____ _____    ______ ____

>  <TORSDO>
F 1

$$$$
=
 OpenBabel11042423093D

 29 33  0  0  1  0  0  0  0  0999 V2000
  161.0730  203.5870  151.9640 C   0  0  0  0  0  3  0  0  0  0  0  0
  162.7000  209.2640  148.5890 C   0  0  0  0  0  2  0  0  0  0  0  0
  161.0970  202.0590  148.1630 C   0  0  0  0  0  0  0  0  0  0  0  0
  160.4260  206.7040  147.9690 C   0  0  0  0  0  3  0  0  0  0  0  0
  161.0330  205.4520  153.5690 N   0  0  0  0  0  0  0  0  0  0  0  0
  161.5480  205.9620  151.3080 C   0  0  0  0  0  3  0  0  0  0  0  0
  163.0750  206.9460  148.9790 O   0  0  0  0  0  1  0  0  0  0  0  0
  160.7150  204.3670  147.2180 C   0  0  2  0  0  3  0  0  0  0  0  0
  161.0320  207.1590  155.1850 F   0  0  0  0  0  0  0  0  0  0  0  0
  161.4130  202.4640  145.8160 C   0  0  0  0  0  3  0  0  0  0  0  0
  162.5880  210.3550  149.6470 C   0  0  2  0  0  3  0  0  0  0  0  0
  161.5410  207.6740  152.9480 N   0  0  0  0  0  0  0  0  0  0  0  0
  160.9380  203.4350  148.3770 C   0  0  0  0  0  0  0  0  0  0  0  0
  161.7190  207.2990  151.6520 C   0  0  0  0  0  0  0  0  0  0  0  0
  161.1990  206.7620  153.9010 C   0  0  0  0  0  0  0  0  0  0  0  0
  162.3850  209.6460  150.9760 C   0  0  0  0  0  2  0  0  0  0  0  0
  160.8970  203.9040  149.6460 N   0  0  0  0  0  0  0  0  0  0  0  0
  161.0730  201.7030  150.5120 C   0  0  0  0  0  3  0  0  0  0  0  0
  162.1750  207.9880  149.2190 C   0  0  1  0  0  0  0  0  0  0  0  0
  162.0940  208.2640  150.6510 N   0  0  0  0  0  0  0  0  0  0  0  0
  160.8310  207.7030  148.6980 N   0  0  0  0  0  0  0  0  0  0  0  0
  161.2060  203.7810  145.9240 C   0  0  0  0  0  3  0  0  0  0  0  0
  161.0020  203.0840  150.7230 C   0  0  0  0  0  0  0  0  0  0  0  0
  161.1880  205.0310  152.2850 C   0  0  0  0  0  0  0  0  0  0  0  0
  161.2860  201.5960  146.9600 N   0  0  0  0  0  0  0  0  0  0  0  0
  161.2930  205.6750  147.4890 N   0  0  0  0  0  2  0  0  0  0  0  0
  161.1240  201.2210  149.2370 N   0  0  0  0  0  0  0  0  0  0  0  0
  161.9620  212.2040  147.8860 C   0  0  0  0  0  1  0  0  0  0  0  0
  161.1390  211.3910  149.2850 S   0  0  0  0  0  0  0  0  0  0  0  0
  1 24  1  0  0  0  0
  2 19  1  0  0  0  0
  2 11  1  0  0  0  0
  3 13  1  0  0  0  0
  3 27  1  0  0  0  0
  4 21  2  0  0  0  0
  5 15  2  0  0  0  0
  6 14  1  0  0  0  0
  6 24  2  0  0  0  0
  8 22  1  6  0  0  0
  8 26  1  0  0  0  0
  8 13  1  0  0  0  0
 10 22  2  0  0  0  0
 10 25  1  0  0  0  0
 11 29  1  6  0  0  0
 11 16  1  0  0  0  0
 12 15  1  0  0  0  0
 13 17  2  0  0  0  0
 14 12  2  0  0  0  0
 15  9  1  0  0  0  0
 17 23  1  0  0  0  0
 18 23  1  0  0  0  0
 19  7  1  6  0  0  0
 19 20  1  0  0  0  0
 20 16  1  0  0  0  0
 20 14  1  0  0  0  0
 21 19  1  0  0  0  0
 23  1  2  0  0  0  0
 24  5  1  0  0  0  0
 25  3  2  0  0  0  0
 26  4  1  0  0  0  0
 27 18  2  0  0  0  0
 28 29  1  0  0  0  0
M  END
>  <MODEL>
3

>  <REMARK>
 VINA RESULT:      -7.2      2.625      6.057
  Name = 
  1 active torsions:
  status: ('A' for Active; 'I' for Inactive)
    1  A    between atoms: C_11  and  S_24
                            x       y       z     vdW  Elec       q    Type
                         _______ _______ _______ _____ _____    ______ ____

>  <TORSDO>
F 1

$$$$
=
 OpenBabel11042423093D

 29 33  0  0  1  0  0  0  0  0999 V2000
  160.9920  206.5790  153.1750 C   0  0  0  0  0  3  0  0  0  0  0  0
  160.9470  205.8350  146.4140 C   0  0  0  0  0  2  0  0  0  0  0  0
  161.0710  210.5360  152.1190 C   0  0  0  0  0  0  0  0  0  0  0  0
  162.7000  207.9430  148.5580 C   0  0  0  0  0  3  0  0  0  0  0  0
  161.2380  204.1810  152.6810 N   0  0  0  0  0  0  0  0  0  0  0  0
  161.0910  205.6690  150.8380 C   0  0  0  0  0  3  0  0  0  0  0  0
  160.0630  206.8930  148.3540 O   0  0  0  0  0  1  0  0  0  0  0  0
  162.0210  209.9290  149.8620 C   0  0  2  0  0  3  0  0  0  0  0  0
  161.4130  201.8660  152.3090 F   0  0  0  0  0  0  0  0  0  0  0  0
  161.1050  212.1650  150.3520 C   0  0  0  0  0  3  0  0  0  0  0  0
  161.1640  204.3400  146.2160 C   0  0  2  0  0  3  0  0  0  0  0  0
  161.2690  203.3330  150.4770 N   0  0  0  0  0  0  0  0  0  0  0  0
  161.4850  209.5490  151.2140 C   0  0  0  0  0  0  0  0  0  0  0  0
  161.1610  204.5890  149.9640 C   0  0  0  0  0  0  0  0  0  0  0  0
  161.3110  203.1260  151.8230 C   0  0  0  0  0  0  0  0  0  0  0  0
  161.0710  203.7050  147.5940 C   0  0  0  0  0  2  0  0  0  0  0  0
  161.4830  208.2540  151.6060 N   0  0  0  0  0  0  0  0  0  0  0  0
  160.7640  208.8680  153.7810 C   0  0  0  0  0  3  0  0  0  0  0  0
  161.1270  206.1110  147.8950 C   0  0  1  0  0  0  0  0  0  0  0  0
  161.1050  204.8020  148.5410 N   0  0  0  0  0  0  0  0  0  0  0  0
  162.4320  206.7470  148.1180 N   0  0  0  0  0  0  0  0  0  0  0  0
  161.5650  211.2980  149.4410 C   0  0  0  0  0  3  0  0  0  0  0  0
  161.0940  207.8760  152.8520 C   0  0  0  0  0  0  0  0  0  0  0  0
  161.1420  205.4550  152.2180 C   0  0  0  0  0  0  0  0  0  0  0  0
  160.9240  211.7700  151.7260 N   0  0  0  0  0  0  0  0  0  0  0  0
  161.6980  208.9100  148.8740 N   0  0  0  0  0  2  0  0  0  0  0  0
  160.7550  210.1750  153.3940 N   0  0  0  0  0  0  0  0  0  0  0  0
  162.8000  205.6250  144.6070 C   0  0  0  0  0  1  0  0  0  0  0  0
  162.8260  204.0630  145.5330 S   0  0  0  0  0  0  0  0  0  0  0  0
  2 19  1  0  0  0  0
  3 27  1  0  0  0  0
  4 26  1  0  0  0  0
  6 24  2  0  0  0  0
  8 22  1  6  0  0  0
  8 13  1  0  0  0  0
 10 25  1  0  0  0  0
 11 29  1  1  0  0  0
 11  2  1  0  0  0  0
 11 16  1  0  0  0  0
 12 15  1  0  0  0  0
 13 17  2  0  0  0  0
 13  3  1  0  0  0  0
 14 12  2  0  0  0  0
 14  6  1  0  0  0  0
 15  9  1  0  0  0  0
 15  5  2  0  0  0  0
 16 20  1  0  0  0  0
 17 23  1  0  0  0  0
 19 21  1  0  0  0  0
 19  7  1  1  0  0  0
 19 20  1  0  0  0  0
 20 14  1  0  0  0  0
 21  4  2  0  0  0  0
 22 10  2  0  0  0  0
 23  1  2  0  0  0  0
 23 18  1  0  0  0  0
 24  5  1  0  0  0  0
 24  1  1  0  0  0  0
 25  3  2  0  0  0  0
 26  8  1  0  0  0  0
 27 18  2  0  0  0  0
 28 29  1  0  0  0  0
M  END
>  <MODEL>
4

>  <REMARK>
 VINA RESULT:      -7.1      1.337      1.809
  Name = 
  1 active torsions:
  status: ('A' for Active; 'I' for Inactive)
    1  A    between atoms: C_11  and  S_24
                            x       y       z     vdW  Elec       q    Type
                         _______ _______ _______ _____ _____    ______ ____

>  <TORSDO>
F 1

$$$$
