=
 OpenBabel11052410473D

 37 41  0  0  1  0  0  0  0  0999 V2000
  161.5420  202.7830  151.6110 C   0  0  0  0  0  3  0  0  0  0  0  0
  160.5540  206.9210  153.4830 C   0  0  0  0  0  3  0  0  0  0  0  0
  161.3100  210.7260  152.9610 C   0  0  1  0  0  3  0  0  0  0  0  0
  161.8030  208.9530  148.9420 C   0  0  1  0  0  3  0  0  0  0  0  0
  161.5280  204.1570  151.3780 C   0  0  0  0  0  0  0  0  0  0  0  0
  161.2330  210.8900  151.5750 O   0  0  0  0  0  0  0  0  0  0  0  0
  161.1810  201.9140  150.6330 N   0  0  0  0  0  0  0  0  0  0  0  0
  160.7860  203.6870  149.1340 N   0  0  0  0  0  0  0  0  0  0  0  0
  161.1170  204.6060  150.0790 C   0  0  0  0  0  0  0  0  0  0  0  0
  160.7680  211.8550  153.5770 O   0  0  0  0  0  1  0  0  0  0  0  0
  162.2890  207.6550  148.3180 C   0  0  0  0  0  2  0  0  0  0  0  0
  162.3810  210.2590  151.0890 C   0  0  0  0  0  2  0  0  0  0  0  0
  160.9460  205.6230  153.3780 C   0  0  0  0  0  3  0  0  0  0  0  0
  161.1080  208.1650  152.7460 C   0  0  1  0  0  3  0  0  0  0  0  0
  161.0030  206.0460  149.7480 C   0  0  1  0  0  3  0  0  0  0  0  0
  160.8120  202.3560  149.4030 C   0  0  0  0  0  3  0  0  0  0  0  0
  160.7600  206.7990  150.7930 C   0  0  0  0  0  2  0  0  0  0  0  0
  160.8510  208.2110  151.1950 C   0  0  2  0  0  3  0  0  0  0  0  0
  161.2070  206.5860  148.3660 C   0  0  0  0  0  2  0  0  0  0  0  0
  160.5690  209.4560  153.4190 C   0  0  1  0  0  3  0  0  0  0  0  0
  162.0310  208.9020  150.4690 C   0  0  1  0  0  3  0  0  0  0  0  0
  162.0430  205.0770  152.4820 C   0  0  0  0  0  2  0  0  0  0  0  0
  162.5090  210.1040  148.2260 C   0  0  0  0  0  2  0  0  0  0  0  0
  161.5480  211.2430  147.8780 C   0  0  0  0  0  2  0  0  0  0  0  0
  162.1960  212.6320  147.8800 C   0  0  1  0  0  3  0  0  0  0  0  0
  162.9120  213.0290  145.6330 O   0  0  0  0  0  1  0  0  0  0  0  0
  161.9560  213.3890  146.5830 C   0  0  0  0  0  2  0  0  0  0  0  0
  161.7300  213.4180  149.0110 N   0  0  0  0  0  2  0  0  0  0  0  0
  160.2810  213.3410  149.0180 C   0  0  0  0  0  2  0  0  0  0  0  0
  159.7530  213.8850  150.3280 C   0  0  0  0  0  1  0  0  0  0  0  0
  160.6640  209.3680  154.9440 C   0  0  0  0  0  2  0  0  0  0  0  0
  157.9860  212.3820  156.3220 N   0  0  0  0  0  2  0  0  0  0  0  0
  158.2600  210.3410  154.9910 C   0  0  0  0  0  2  0  0  0  0  0  0
  159.6460  210.2520  155.5880 C   0  0  0  0  0  0  0  0  0  0  0  0
  159.0320  211.9750  157.2590 C   0  0  0  0  0  2  0  0  0  0  0  0
  157.3110  211.1720  155.8580 C   0  0  0  0  0  2  0  0  0  0  0  0
  160.0220  211.0610  156.5910 C   0  0  0  0  0  3  0  0  0  0  0  0
  3 20  1  0  0  0  0
  3 10  1  1  0  0  0
  4 23  1  6  0  0  0
  4 21  1  0  0  0  0
  5  1  1  0  0  0  0
  5 22  1  0  0  0  0
  6  3  1  0  0  0  0
  7  1  2  0  0  0  0
  8 16  2  0  0  0  0
  8  9  1  0  0  0  0
  9  5  2  0  0  0  0
 11 19  1  0  0  0  0
 11  4  1  0  0  0  0
 12  6  1  0  0  0  0
 13  2  2  0  0  0  0
 14 20  1  0  0  0  0
 14  2  1  1  0  0  0
 15 19  1  1  0  0  0
 15  9  1  0  0  0  0
 15 17  1  0  0  0  0
 16  7  1  0  0  0  0
 18 17  1  6  0  0  0
 18 14  1  0  0  0  0
 20 31  1  1  0  0  0
 21 12  1  1  0  0  0
 21 18  1  0  0  0  0
 22 13  1  0  0  0  0
 24 25  1  0  0  0  0
 24 23  1  0  0  0  0
 25 27  1  6  0  0  0
 25 28  1  0  0  0  0
 26 27  1  0  0  0  0
 28 29  1  0  0  0  0
 29 30  1  0  0  0  0
 31 34  1  0  0  0  0
 32 35  1  0  0  0  0
 33 34  1  0  0  0  0
 33 36  1  0  0  0  0
 34 37  2  0  0  0  0
 36 32  1  0  0  0  0
 37 35  1  0  0  0  0
M  END
>  <MODEL>
1

>  <REMARK>
 VINA RESULT:      -7.6      0.000      0.000
  Name = 
  8 active torsions:
  status: ('A' for Active; 'I' for Inactive)
    1  A    between atoms: N_3  and  C_9
    2  A    between atoms: N_3  and  CA_14
    3  A    between atoms: C_5  and  C_20
    4  A    between atoms: C_6  and  CA_14
    5  A    between atoms: C_6  and  C_20
    6  A    between atoms: CA_14  and  C_30
    7  A    between atoms: C_22  and  C_29
    8  A    between atoms: C_29  and  C_34
                            x       y       z     vdW  Elec       q    Type
                         _______ _______ _______ _____ _____    ______ ____

>  <TORSDO>
F 8

$$$$
=
 OpenBabel11052410473D

 37 41  0  0  1  0  0  0  0  0999 V2000
  161.0410  208.9220  156.8280 C   0  0  0  0  0  3  0  0  0  0  0  0
  159.5790  211.9330  153.6010 C   0  0  0  0  0  3  0  0  0  0  0  0
  160.3520  213.0220  149.9220 C   0  0  1  0  0  3  0  0  0  0  0  0
  161.7550  208.8360  150.1380 C   0  0  1  0  0  3  0  0  0  0  0  0
  161.0510  209.2150  155.4650 C   0  0  0  0  0  0  0  0  0  0  0  0
  160.5790  211.8120  149.2610 O   0  0  0  0  0  0  0  0  0  0  0  0
  160.9220  207.6410  157.2560 N   0  0  0  0  0  0  0  0  0  0  0  0
  160.8300  206.8530  155.0390 N   0  0  0  0  0  0  0  0  0  0  0  0
  160.9270  208.1180  154.5500 C   0  0  0  0  0  0  0  0  0  0  0  0
  159.6640  213.8810  149.0620 O   0  0  0  0  0  1  0  0  0  0  0  0
  162.3940  207.8960  151.1480 C   0  0  0  0  0  2  0  0  0  0  0  0
  161.8180  211.3840  149.7410 C   0  0  0  0  0  2  0  0  0  0  0  0
  160.0110  211.4420  154.7940 C   0  0  0  0  0  3  0  0  0  0  0  0
  160.2560  211.8410  152.2110 C   0  0  1  0  0  3  0  0  0  0  0  0
  160.8580  208.3240  153.0840 C   0  0  1  0  0  3  0  0  0  0  0  0
  160.8240  206.6130  156.3750 C   0  0  0  0  0  3  0  0  0  0  0  0
  160.3750  209.4960  152.7490 C   0  0  0  0  0  2  0  0  0  0  0  0
  160.3460  210.4000  151.5890 C   0  0  2  0  0  3  0  0  0  0  0  0
  161.3500  207.3160  152.0910 C   0  0  0  0  0  2  0  0  0  0  0  0
  159.5550  212.8120  151.2220 C   0  0  1  0  0  3  0  0  0  0  0  0
  161.6420  210.2480  150.7560 C   0  0  1  0  0  3  0  0  0  0  0  0
  161.2900  210.6630  155.0430 C   0  0  0  0  0  2  0  0  0  0  0  0
  162.5780  208.7620  148.8520 C   0  0  0  0  0  2  0  0  0  0  0  0
  162.5940  207.3510  148.2590 C   0  0  0  0  0  2  0  0  0  0  0  0
  161.2360  206.8820  147.7240 C   0  0  1  0  0  3  0  0  0  0  0  0
  160.1660  206.3200  145.6590 O   0  0  0  0  0  1  0  0  0  0  0  0
  161.3510  206.1770  146.3800 C   0  0  0  0  0  2  0  0  0  0  0  0
  160.5710  206.0180  148.6850 N   0  0  0  0  0  2  0  0  0  0  0  0
  161.3870  204.8260  148.8270 C   0  0  0  0  0  2  0  0  0  0  0  0
  160.9950  204.0940  150.0920 C   0  0  0  0  0  1  0  0  0  0  0  0
  159.3140  214.1790  151.8650 C   0  0  0  0  0  2  0  0  0  0  0  0
  155.2900  213.7850  153.2120 N   0  0  0  0  0  2  0  0  0  0  0  0
  157.6310  214.1610  153.8390 C   0  0  0  0  0  2  0  0  0  0  0  0
  157.9070  214.2890  152.3590 C   0  0  0  0  0  0  0  0  0  0  0  0
  155.4740  214.4490  151.9220 C   0  0  0  0  0  2  0  0  0  0  0  0
  156.1650  214.4450  154.1790 C   0  0  0  0  0  2  0  0  0  0  0  0
  156.9040  214.3500  151.4680 C   0  0  0  0  0  3  0  0  0  0  0  0
  1  7  1  0  0  0  0
  2 13  2  0  0  0  0
  3 10  1  6  0  0  0
  3 20  1  0  0  0  0
  4 23  1  6  0  0  0
  4 21  1  0  0  0  0
  4 11  1  0  0  0  0
  5  1  2  0  0  0  0
  6 12  1  0  0  0  0
  6  3  1  0  0  0  0
  8 16  1  0  0  0  0
  9  8  2  0  0  0  0
  9  5  1  0  0  0  0
 11 19  1  0  0  0  0
 13 22  1  0  0  0  0
 14  2  1  1  0  0  0
 15 19  1  1  0  0  0
 15  9  1  0  0  0  0
 16  7  2  0  0  0  0
 17 15  1  0  0  0  0
 18 14  1  0  0  0  0
 18 17  1  1  0  0  0
 20 31  1  1  0  0  0
 20 14  1  0  0  0  0
 21 12  1  6  0  0  0
 21 18  1  0  0  0  0
 22  5  1  0  0  0  0
 24 23  1  0  0  0  0
 25 27  1  6  0  0  0
 25 24  1  0  0  0  0
 25 28  1  0  0  0  0
 26 27  1  0  0  0  0
 28 29  1  0  0  0  0
 29 30  1  0  0  0  0
 31 34  1  0  0  0  0
 32 36  1  0  0  0  0
 33 36  1  0  0  0  0
 34 33  1  0  0  0  0
 35 32  1  0  0  0  0
 37 35  1  0  0  0  0
 37 34  2  0  0  0  0
M  END
>  <MODEL>
2

>  <REMARK>
 VINA RESULT:      -6.2      2.803      5.610
  Name = 
  8 active torsions:
  status: ('A' for Active; 'I' for Inactive)
    1  A    between atoms: N_3  and  C_9
    2  A    between atoms: N_3  and  CA_14
    3  A    between atoms: C_5  and  C_20
    4  A    between atoms: C_6  and  CA_14
    5  A    between atoms: C_6  and  C_20
    6  A    between atoms: CA_14  and  C_30
    7  A    between atoms: C_22  and  C_29
    8  A    between atoms: C_29  and  C_34
                            x       y       z     vdW  Elec       q    Type
                         _______ _______ _______ _____ _____    ______ ____

>  <TORSDO>
F 8

$$$$
=
 OpenBabel11052410473D

 37 41  0  0  1  0  0  0  0  0999 V2000
  161.9090  212.9450  148.1960 C   0  0  0  0  0  3  0  0  0  0  0  0
  161.6450  208.9320  150.5280 C   0  0  0  0  0  3  0  0  0  0  0  0
  161.3340  207.5860  154.1890 C   0  0  1  0  0  3  0  0  0  0  0  0
  159.5450  211.6240  154.3550 C   0  0  1  0  0  3  0  0  0  0  0  0
  161.5470  212.3620  149.4090 C   0  0  0  0  0  0  0  0  0  0  0  0
  160.4060  208.4480  154.7800 O   0  0  0  0  0  0  0  0  0  0  0  0
  161.1660  213.9480  147.6650 N   0  0  0  0  0  0  0  0  0  0  0  0
  159.6750  213.8780  149.4860 N   0  0  0  0  0  0  0  0  0  0  0  0
  160.3680  212.8580  150.0590 C   0  0  0  0  0  0  0  0  0  0  0  0
  161.1140  206.2930  154.6690 O   0  0  0  0  0  1  0  0  0  0  0  0
  159.7440  212.9890  153.7140 C   0  0  0  0  0  2  0  0  0  0  0  0
  161.1020  209.6500  154.9320 C   0  0  0  0  0  2  0  0  0  0  0  0
  162.0850  209.8850  149.6620 C   0  0  0  0  0  3  0  0  0  0  0  0
  161.4380  209.0320  152.0590 C   0  0  1  0  0  3  0  0  0  0  0  0
  159.8570  212.2640  151.3160 C   0  0  1  0  0  3  0  0  0  0  0  0
  160.0630  214.4180  148.3020 C   0  0  0  0  0  3  0  0  0  0  0  0
  160.1880  211.0040  151.4640 C   0  0  0  0  0  2  0  0  0  0  0  0
  160.2880  209.9960  152.5300 C   0  0  2  0  0  3  0  0  0  0  0  0
  159.0940  213.0460  152.3400 C   0  0  0  0  0  2  0  0  0  0  0  0
  161.2300  207.6130  152.6530 C   0  0  1  0  0  3  0  0  0  0  0  0
  160.6600  210.6680  153.8740 C   0  0  1  0  0  3  0  0  0  0  0  0
  162.4790  211.3090  150.0060 C   0  0  0  0  0  2  0  0  0  0  0  0
  159.4850  211.8290  155.8690 C   0  0  0  0  0  2  0  0  0  0  0  0
  158.1640  211.3340  156.4640 C   0  0  0  0  0  2  0  0  0  0  0  0
  156.9170  211.8930  155.7700 C   0  0  1  0  0  3  0  0  0  0  0  0
  155.0000  210.4870  156.0390 O   0  0  0  0  0  1  0  0  0  0  0  0
  156.0440  210.8010  155.1700 C   0  0  0  0  0  2  0  0  0  0  0  0
  156.1360  212.7080  156.6870 N   0  0  0  0  0  2  0  0  0  0  0  0
  156.4880  214.0930  156.4330 C   0  0  0  0  0  2  0  0  0  0  0  0
  156.4530  214.3570  154.9430 C   0  0  0  0  0  1  0  0  0  0  0  0
  162.2450  206.6190  152.0840 C   0  0  0  0  0  2  0  0  0  0  0  0
  160.9350  203.3680  149.6610 N   0  0  0  0  0  2  0  0  0  0  0  0
  161.2320  204.2360  151.9350 C   0  0  0  0  0  2  0  0  0  0  0  0
  161.5550  205.5610  151.2850 C   0  0  0  0  0  0  0  0  0  0  0  0
  160.6930  204.7070  149.1250 C   0  0  0  0  0  2  0  0  0  0  0  0
  160.4010  203.3320  151.0210 C   0  0  0  0  0  2  0  0  0  0  0  0
  161.3710  205.7510  149.9690 C   0  0  0  0  0  3  0  0  0  0  0  0
  1  5  1  0  0  0  0
  3 10  1  1  0  0  0
  3  6  1  0  0  0  0
  4 23  1  1  0  0  0
  5 22  1  0  0  0  0
  5  9  2  0  0  0  0
  6 12  1  0  0  0  0
  7  1  2  0  0  0  0
  7 16  1  0  0  0  0
  8  9  1  0  0  0  0
  9 15  1  0  0  0  0
 11  4  1  0  0  0  0
 13 22  1  0  0  0  0
 13  2  2  0  0  0  0
 14  2  1  6  0  0  0
 14 18  1  0  0  0  0
 14 20  1  0  0  0  0
 15 17  1  1  0  0  0
 15 19  1  0  0  0  0
 16  8  2  0  0  0  0
 18 17  1  6  0  0  0
 18 21  1  0  0  0  0
 19 11  1  0  0  0  0
 20 31  1  6  0  0  0
 20  3  1  0  0  0  0
 21  4  1  0  0  0  0
 21 12  1  1  0  0  0
 23 24  1  0  0  0  0
 25 27  1  1  0  0  0
 25 24  1  0  0  0  0
 25 28  1  0  0  0  0
 27 26  1  0  0  0  0
 29 28  1  0  0  0  0
 30 29  1  0  0  0  0
 32 36  1  0  0  0  0
 34 33  1  0  0  0  0
 34 31  1  0  0  0  0
 35 32  1  0  0  0  0
 35 37  1  0  0  0  0
 36 33  1  0  0  0  0
 37 34  2  0  0  0  0
M  END
>  <MODEL>
3

>  <REMARK>
 VINA RESULT:      -6.2      2.366      7.989
  Name = 
  8 active torsions:
  status: ('A' for Active; 'I' for Inactive)
    1  A    between atoms: N_3  and  C_9
    2  A    between atoms: N_3  and  CA_14
    3  A    between atoms: C_5  and  C_20
    4  A    between atoms: C_6  and  CA_14
    5  A    between atoms: C_6  and  C_20
    6  A    between atoms: CA_14  and  C_30
    7  A    between atoms: C_22  and  C_29
    8  A    between atoms: C_29  and  C_34
                            x       y       z     vdW  Elec       q    Type
                         _______ _______ _______ _____ _____    ______ ____

>  <TORSDO>
F 8

$$$$
=
 OpenBabel11052410473D

 37 41  0  0  1  0  0  0  0  0999 V2000
  160.4380  213.2570  149.8290 C   0  0  0  0  0  3  0  0  0  0  0  0
  160.8590  211.4540  154.0930 C   0  0  0  0  0  3  0  0  0  0  0  0
  160.6490  208.0140  155.9470 C   0  0  1  0  0  3  0  0  0  0  0  0
  161.7180  206.9510  151.7920 C   0  0  1  0  0  3  0  0  0  0  0  0
  160.6410  212.0790  150.5450 C   0  0  0  0  0  0  0  0  0  0  0  0
  161.2960  207.1310  155.0780 O   0  0  0  0  0  0  0  0  0  0  0  0
  161.1060  213.4830  148.6700 N   0  0  0  0  0  0  0  0  0  0  0  0
  162.2000  211.4040  148.8360 N   0  0  0  0  0  0  0  0  0  0  0  0
  161.5760  211.1310  150.0120 C   0  0  0  0  0  0  0  0  0  0  0  0
  160.9690  207.6660  157.2610 O   0  0  0  0  0  1  0  0  0  0  0  0
  161.4400  207.4410  150.3800 C   0  0  0  0  0  2  0  0  0  0  0  0
  160.4060  206.9820  154.0120 C   0  0  0  0  0  2  0  0  0  0  0  0
  160.4560  212.2660  153.0790 C   0  0  0  0  0  3  0  0  0  0  0  0
  160.7430  209.9140  154.2080 C   0  0  1  0  0  3  0  0  0  0  0  0
  161.9160  209.8780  150.7280 C   0  0  1  0  0  3  0  0  0  0  0  0
  161.9740  212.5660  148.1710 C   0  0  0  0  0  3  0  0  0  0  0  0
  161.7630  209.9670  152.0270 C   0  0  0  0  0  2  0  0  0  0  0  0
  161.6130  209.0850  153.1940 C   0  0  2  0  0  3  0  0  0  0  0  0
  162.3310  208.6220  150.0260 C   0  0  0  0  0  2  0  0  0  0  0  0
  161.0480  209.4740  155.6660 C   0  0  1  0  0  3  0  0  0  0  0  0
  160.8840  207.7800  152.7930 C   0  0  1  0  0  3  0  0  0  0  0  0
  159.7850  211.8370  151.7870 C   0  0  0  0  0  2  0  0  0  0  0  0
  161.4470  205.4470  151.8220 C   0  0  0  0  0  2  0  0  0  0  0  0
  160.5960  204.9920  150.6340 C   0  0  0  0  0  2  0  0  0  0  0  0
  161.2070  203.8350  149.8330 C   0  0  1  0  0  3  0  0  0  0  0  0
  160.6810  201.5640  149.2940 O   0  0  0  0  0  1  0  0  0  0  0  0
  160.7650  202.4730  150.3490 C   0  0  0  0  0  2  0  0  0  0  0  0
  160.8920  203.9600  148.4200 N   0  0  0  0  0  2  0  0  0  0  0  0
  161.8510  204.8880  147.8480 C   0  0  0  0  0  2  0  0  0  0  0  0
  161.1290  205.8700  146.9510 C   0  0  0  0  0  1  0  0  0  0  0  0
  160.3330  210.3710  156.6780 C   0  0  0  0  0  2  0  0  0  0  0  0
  156.4410  211.7890  155.6730 N   0  0  0  0  0  2  0  0  0  0  0  0
  158.7510  212.3820  156.2460 C   0  0  0  0  0  2  0  0  0  0  0  0
  159.0640  210.9110  156.0990 C   0  0  0  0  0  0  0  0  0  0  0  0
  156.8660  210.5560  155.0130 C   0  0  0  0  0  2  0  0  0  0  0  0
  157.4930  212.7840  155.4720 C   0  0  0  0  0  2  0  0  0  0  0  0
  158.1600  210.0560  155.5940 C   0  0  0  0  0  3  0  0  0  0  0  0
  1  5  1  0  0  0  0
  3 10  1  1  0  0  0
  4 23  1  6  0  0  0
  4 21  1  0  0  0  0
  5 22  1  0  0  0  0
  6  3  1  0  0  0  0
  7  1  2  0  0  0  0
  8  9  1  0  0  0  0
  9  5  2  0  0  0  0
  9 15  1  0  0  0  0
 11  4  1  0  0  0  0
 12  6  1  0  0  0  0
 13  2  2  0  0  0  0
 14  2  1  1  0  0  0
 14 20  1  0  0  0  0
 15 19  1  6  0  0  0
 15 17  1  0  0  0  0
 16  7  1  0  0  0  0
 16  8  2  0  0  0  0
 18 17  1  6  0  0  0
 18 14  1  0  0  0  0
 19 11  1  0  0  0  0
 20  3  1  0  0  0  0
 20 31  1  1  0  0  0
 21 18  1  0  0  0  0
 21 12  1  1  0  0  0
 22 13  1  0  0  0  0
 24 23  1  0  0  0  0
 25 27  1  1  0  0  0
 25 24  1  0  0  0  0
 26 27  1  0  0  0  0
 28 25  1  0  0  0  0
 29 28  1  0  0  0  0
 30 29  1  0  0  0  0
 34 33  1  0  0  0  0
 34 31  1  0  0  0  0
 35 37  1  0  0  0  0
 35 32  1  0  0  0  0
 36 32  1  0  0  0  0
 36 33  1  0  0  0  0
 37 34  2  0  0  0  0
M  END
>  <MODEL>
4

>  <REMARK>
 VINA RESULT:      -5.9      2.518      6.468
  Name = 
  8 active torsions:
  status: ('A' for Active; 'I' for Inactive)
    1  A    between atoms: N_3  and  C_9
    2  A    between atoms: N_3  and  CA_14
    3  A    between atoms: C_5  and  C_20
    4  A    between atoms: C_6  and  CA_14
    5  A    between atoms: C_6  and  C_20
    6  A    between atoms: CA_14  and  C_30
    7  A    between atoms: C_22  and  C_29
    8  A    between atoms: C_29  and  C_34
                            x       y       z     vdW  Elec       q    Type
                         _______ _______ _______ _____ _____    ______ ____

>  <TORSDO>
F 8

$$$$
=
 OpenBabel11052410473D

 37 41  0  0  1  0  0  0  0  0999 V2000
  161.6300  201.9130  150.1140 C   0  0  0  0  0  3  0  0  0  0  0  0
  160.9200  205.5780  152.8830 C   0  0  0  0  0  3  0  0  0  0  0  0
  161.6610  209.4170  153.0550 C   0  0  1  0  0  3  0  0  0  0  0  0
  161.6660  208.4970  148.7320 C   0  0  1  0  0  3  0  0  0  0  0  0
  161.6080  203.3050  150.1660 C   0  0  0  0  0  0  0  0  0  0  0  0
  161.4280  209.8560  151.7490 O   0  0  0  0  0  0  0  0  0  0  0  0
  161.1470  201.2560  149.0290 N   0  0  0  0  0  0  0  0  0  0  0  0
  160.6070  203.2900  147.9740 N   0  0  0  0  0  0  0  0  0  0  0  0
  161.0570  204.0030  149.0400 C   0  0  0  0  0  0  0  0  0  0  0  0
  161.2090  210.3930  153.9450 O   0  0  0  0  0  1  0  0  0  0  0  0
  162.0600  207.3560  147.8070 C   0  0  0  0  0  2  0  0  0  0  0  0
  162.5040  209.3490  151.0180 C   0  0  0  0  0  2  0  0  0  0  0  0
  161.2790  204.3320  152.4740 C   0  0  0  0  0  3  0  0  0  0  0  0
  161.4020  206.9510  152.3530 C   0  0  1  0  0  3  0  0  0  0  0  0
  160.9250  205.4790  149.0220 C   0  0  1  0  0  3  0  0  0  0  0  0
  160.6460  201.9330  147.9650 C   0  0  0  0  0  3  0  0  0  0  0  0
  160.8130  206.0030  150.2180 C   0  0  0  0  0  2  0  0  0  0  0  0
  160.9690  207.3050  150.8830 C   0  0  2  0  0  3  0  0  0  0  0  0
  160.9770  206.2890  147.7640 C   0  0  0  0  0  2  0  0  0  0  0  0
  160.9610  208.0740  153.3310 C   0  0  1  0  0  3  0  0  0  0  0  0
  162.0670  208.1400  150.1810 C   0  0  1  0  0  3  0  0  0  0  0  0
  162.2590  203.9890  151.3670 C   0  0  0  0  0  2  0  0  0  0  0  0
  162.3010  209.7750  148.1860 C   0  0  0  0  0  2  0  0  0  0  0  0
  161.2620  210.8680  147.9250 C   0  0  0  0  0  2  0  0  0  0  0  0
  161.7780  212.2920  148.1630 C   0  0  1  0  0  3  0  0  0  0  0  0
  162.7740  213.5970  146.4230 O   0  0  0  0  0  1  0  0  0  0  0  0
  161.5510  213.2030  146.9660 C   0  0  0  0  0  2  0  0  0  0  0  0
  161.1730  212.8700  149.3520 N   0  0  0  0  0  2  0  0  0  0  0  0
  159.9070  213.4550  148.9470 C   0  0  0  0  0  2  0  0  0  0  0  0
  159.2350  214.0820  150.1480 C   0  0  0  0  0  1  0  0  0  0  0  0
  161.2290  207.6810  154.7850 C   0  0  0  0  0  2  0  0  0  0  0  0
  159.8760  211.1390  156.8750 N   0  0  0  0  0  2  0  0  0  0  0  0
  159.2600  209.0090  155.8260 C   0  0  0  0  0  2  0  0  0  0  0  0
  160.7440  208.7430  155.7170 C   0  0  0  0  0  0  0  0  0  0  0  0
  161.1910  210.6290  157.2600 C   0  0  0  0  0  2  0  0  0  0  0  0
  158.9350  210.0210  156.9280 C   0  0  0  0  0  2  0  0  0  0  0  0
  161.6380  209.5390  156.3240 C   0  0  0  0  0  3  0  0  0  0  0  0
  1  5  1  0  0  0  0
  3 20  1  0  0  0  0
  3 10  1  1  0  0  0
  4 23  1  6  0  0  0
  4 21  1  0  0  0  0
  5 22  1  0  0  0  0
  6  3  1  0  0  0  0
  7  1  2  0  0  0  0
  8  9  1  0  0  0  0
  9  5  2  0  0  0  0
 11  4  1  0  0  0  0
 12  6  1  0  0  0  0
 13  2  2  0  0  0  0
 14  2  1  1  0  0  0
 14 20  1  0  0  0  0
 15 19  1  1  0  0  0
 15  9  1  0  0  0  0
 15 17  1  0  0  0  0
 16  8  2  0  0  0  0
 16  7  1  0  0  0  0
 18 17  1  6  0  0  0
 18 14  1  0  0  0  0
 19 11  1  0  0  0  0
 20 31  1  1  0  0  0
 21 18  1  0  0  0  0
 21 12  1  1  0  0  0
 22 13  1  0  0  0  0
 24 25  1  0  0  0  0
 24 23  1  0  0  0  0
 25 27  1  6  0  0  0
 25 28  1  0  0  0  0
 26 27  1  0  0  0  0
 29 28  1  0  0  0  0
 29 30  1  0  0  0  0
 31 34  1  0  0  0  0
 32 36  1  0  0  0  0
 32 35  1  0  0  0  0
 33 36  1  0  0  0  0
 34 33  1  0  0  0  0
 34 37  2  0  0  0  0
 37 35  1  0  0  0  0
M  END
>  <MODEL>
5

>  <REMARK>
 VINA RESULT:      -5.5      1.164      1.385
  Name = 
  8 active torsions:
  status: ('A' for Active; 'I' for Inactive)
    1  A    between atoms: N_3  and  C_9
    2  A    between atoms: N_3  and  CA_14
    3  A    between atoms: C_5  and  C_20
    4  A    between atoms: C_6  and  CA_14
    5  A    between atoms: C_6  and  C_20
    6  A    between atoms: CA_14  and  C_30
    7  A    between atoms: C_22  and  C_29
    8  A    between atoms: C_29  and  C_34
                            x       y       z     vdW  Elec       q    Type
                         _______ _______ _______ _____ _____    ______ ____

>  <TORSDO>
F 8

$$$$
=
 OpenBabel11052410473D

 37 41  0  0  1  0  0  0  0  0999 V2000
  159.7920  213.9260  148.0470 C   0  0  0  0  0  3  0  0  0  0  0  0
  160.1390  213.0660  152.6030 C   0  0  0  0  0  3  0  0  0  0  0  0
  160.2960  210.0580  155.1010 C   0  0  1  0  0  3  0  0  0  0  0  0
  161.8360  208.4040  151.3020 C   0  0  1  0  0  3  0  0  0  0  0  0
  160.1100  212.9550  148.9950 C   0  0  0  0  0  0  0  0  0  0  0  0
  161.1340  209.1410  154.4600 O   0  0  0  0  0  0  0  0  0  0  0  0
  160.5090  214.0290  146.9000 N   0  0  0  0  0  0  0  0  0  0  0  0
  161.8830  212.2260  147.5340 N   0  0  0  0  0  0  0  0  0  0  0  0
  161.2150  212.0860  148.7100 C   0  0  0  0  0  0  0  0  0  0  0  0
  160.5590  210.0250  156.4720 O   0  0  0  0  0  1  0  0  0  0  0  0
  161.6000  208.5620  149.8080 C   0  0  0  0  0  2  0  0  0  0  0  0
  160.3620  208.6490  153.4050 C   0  0  0  0  0  2  0  0  0  0  0  0
  159.7010  213.5930  151.4270 C   0  0  0  0  0  3  0  0  0  0  0  0
  160.2430  211.5790  153.0210 C   0  0  1  0  0  3  0  0  0  0  0  0
  161.6800  211.0650  149.6790 C   0  0  1  0  0  3  0  0  0  0  0  0
  161.5400  213.1860  146.6380 C   0  0  0  0  0  3  0  0  0  0  0  0
  161.4130  211.3760  150.9250 C   0  0  0  0  0  2  0  0  0  0  0  0
  161.3040  210.7220  152.2380 C   0  0  2  0  0  3  0  0  0  0  0  0
  162.3310  209.7820  149.2670 C   0  0  0  0  0  2  0  0  0  0  0  0
  160.4950  211.4820  154.5500 C   0  0  1  0  0  3  0  0  0  0  0  0
  160.8110  209.2650  152.0740 C   0  0  1  0  0  3  0  0  0  0  0  0
  159.2050  212.8210  150.2180 C   0  0  0  0  0  2  0  0  0  0  0  0
  161.7900  206.9100  151.6220 C   0  0  0  0  0  2  0  0  0  0  0  0
  161.0460  206.1140  150.5470 C   0  0  0  0  0  2  0  0  0  0  0  0
  161.5490  204.6760  150.3720 C   0  0  1  0  0  3  0  0  0  0  0  0
  160.8280  202.5580  151.2200 O   0  0  0  0  0  1  0  0  0  0  0  0
  161.2950  203.8160  151.6010 C   0  0  0  0  0  2  0  0  0  0  0  0
  160.9540  204.0580  149.1990 N   0  0  0  0  0  2  0  0  0  0  0  0
  161.2040  204.9440  148.0760 C   0  0  0  0  0  2  0  0  0  0  0  0
  161.9070  204.1770  146.9770 C   0  0  0  0  0  1  0  0  0  0  0  0
  159.5760  212.4300  155.3240 C   0  0  0  0  0  2  0  0  0  0  0  0
  155.3530  212.0040  154.9420 N   0  0  0  0  0  2  0  0  0  0  0  0
  157.3430  213.3030  154.3350 C   0  0  0  0  0  2  0  0  0  0  0  0
  158.1460  212.1880  154.9640 C   0  0  0  0  0  0  0  0  0  0  0  0
  156.1200  210.7620  155.0110 C   0  0  0  0  0  2  0  0  0  0  0  0
  155.9510  212.8370  153.9010 C   0  0  0  0  0  2  0  0  0  0  0  0
  157.5610  211.0400  155.3420 C   0  0  0  0  0  3  0  0  0  0  0  0
  1  5  1  0  0  0  0
  3 10  1  1  0  0  0
  4 23  1  1  0  0  0
  4 21  1  0  0  0  0
  5 22  1  0  0  0  0
  6  3  1  0  0  0  0
  7  1  2  0  0  0  0
  8  9  1  0  0  0  0
  9  5  2  0  0  0  0
  9 15  1  0  0  0  0
 11  4  1  0  0  0  0
 12  6  1  0  0  0  0
 13  2  2  0  0  0  0
 14  2  1  6  0  0  0
 14 20  1  0  0  0  0
 15 19  1  6  0  0  0
 15 17  1  0  0  0  0
 16  7  1  0  0  0  0
 16  8  2  0  0  0  0
 18 17  1  6  0  0  0
 18 14  1  0  0  0  0
 19 11  1  0  0  0  0
 20  3  1  0  0  0  0
 20 31  1  1  0  0  0
 21 18  1  0  0  0  0
 21 12  1  1  0  0  0
 22 13  1  0  0  0  0
 24 23  1  0  0  0  0
 25 24  1  1  0  0  0
 25 27  1  0  0  0  0
 26 27  1  0  0  0  0
 28 25  1  0  0  0  0
 29 28  1  0  0  0  0
 30 29  1  0  0  0  0
 32 35  1  0  0  0  0
 33 34  1  0  0  0  0
 34 31  1  0  0  0  0
 34 37  2  0  0  0  0
 35 37  1  0  0  0  0
 36 33  1  0  0  0  0
 36 32  1  0  0  0  0
M  END
>  <MODEL>
6

>  <REMARK>
 VINA RESULT:      -5.5      2.247      6.764
  Name = 
  8 active torsions:
  status: ('A' for Active; 'I' for Inactive)
    1  A    between atoms: N_3  and  C_9
    2  A    between atoms: N_3  and  CA_14
    3  A    between atoms: C_5  and  C_20
    4  A    between atoms: C_6  and  CA_14
    5  A    between atoms: C_6  and  C_20
    6  A    between atoms: CA_14  and  C_30
    7  A    between atoms: C_22  and  C_29
    8  A    between atoms: C_29  and  C_34
                            x       y       z     vdW  Elec       q    Type
                         _______ _______ _______ _____ _____    ______ ____

>  <TORSDO>
F 8

$$$$
=
 OpenBabel11052410473D

 37 41  0  0  1  0  0  0  0  0999 V2000
  161.7600  210.8640  156.0650 C   0  0  0  0  0  3  0  0  0  0  0  0
  161.6660  210.6950  151.4210 C   0  0  0  0  0  3  0  0  0  0  0  0
  162.2600  208.1800  148.4820 C   0  0  1  0  0  3  0  0  0  0  0  0
  161.1380  205.6160  151.9020 C   0  0  1  0  0  3  0  0  0  0  0  0
  161.6930  210.0120  154.9650 C   0  0  0  0  0  0  0  0  0  0  0  0
  161.6650  206.9990  148.9330 O   0  0  0  0  0  0  0  0  0  0  0  0
  161.0310  210.6080  157.1810 N   0  0  0  0  0  0  0  0  0  0  0  0
  160.1390  208.6560  156.2110 N   0  0  0  0  0  0  0  0  0  0  0  0
  160.8290  208.8710  155.0600 C   0  0  0  0  0  0  0  0  0  0  0  0
  162.0230  208.3070  147.1120 O   0  0  0  0  0  1  0  0  0  0  0  0
  161.3170  205.5820  153.4120 C   0  0  0  0  0  2  0  0  0  0  0  0
  162.5240  206.5410  149.9340 C   0  0  0  0  0  2  0  0  0  0  0  0
  161.9550  211.1140  152.6830 C   0  0  0  0  0  3  0  0  0  0  0  0
  161.9270  209.3140  150.7730 C   0  0  1  0  0  3  0  0  0  0  0  0
  160.6330  207.9400  153.9240 C   0  0  1  0  0  3  0  0  0  0  0  0
  160.2330  209.5130  157.2600 C   0  0  0  0  0  3  0  0  0  0  0  0
  160.8260  208.5020  152.7550 C   0  0  0  0  0  2  0  0  0  0  0  0
  161.1000  208.1140  151.3630 C   0  0  2  0  0  3  0  0  0  0  0  0
  160.3090  206.4890  154.1020 C   0  0  0  0  0  2  0  0  0  0  0  0
  161.7190  209.4080  149.2360 C   0  0  1  0  0  3  0  0  0  0  0  0
  161.9300  206.8090  151.3210 C   0  0  1  0  0  3  0  0  0  0  0  0
  162.6130  210.2970  153.7790 C   0  0  0  0  0  2  0  0  0  0  0  0
  161.5470  204.2480  151.3570 C   0  0  0  0  0  2  0  0  0  0  0  0
  160.5360  203.7060  150.3440 C   0  0  0  0  0  2  0  0  0  0  0  0
  161.1030  202.6350  149.4050 C   0  0  1  0  0  3  0  0  0  0  0  0
  159.6410  200.7480  149.2570 O   0  0  0  0  0  1  0  0  0  0  0  0
  160.7960  201.2220  149.8780 C   0  0  0  0  0  2  0  0  0  0  0  0
  160.6150  202.8250  148.0490 N   0  0  0  0  0  2  0  0  0  0  0  0
  161.6160  203.6000  147.3380 C   0  0  0  0  0  2  0  0  0  0  0  0
  161.4700  203.3680  145.8500 C   0  0  0  0  0  1  0  0  0  0  0  0
  162.3860  210.6590  148.6620 C   0  0  0  0  0  2  0  0  0  0  0  0
  159.9720  213.7300  146.9590 N   0  0  0  0  0  2  0  0  0  0  0  0
  160.5400  211.3450  146.9740 C   0  0  0  0  0  2  0  0  0  0  0  0
  161.3580  211.6450  148.2090 C   0  0  0  0  0  0  0  0  0  0  0  0
  160.2710  213.8640  148.3840 C   0  0  0  0  0  2  0  0  0  0  0  0
  159.4420  212.3860  146.7420 C   0  0  0  0  0  2  0  0  0  0  0  0
  161.2830  212.8390  148.8170 C   0  0  0  0  0  3  0  0  0  0  0  0
  1  7  1  0  0  0  0
  2 13  2  0  0  0  0
  3 10  1  6  0  0  0
  3  6  1  0  0  0  0
  3 20  1  0  0  0  0
  4 23  1  6  0  0  0
  4 11  1  0  0  0  0
  5  9  1  0  0  0  0
  5  1  2  0  0  0  0
  6 12  1  0  0  0  0
  7 16  2  0  0  0  0
  8 16  1  0  0  0  0
  9  8  2  0  0  0  0
 11 19  1  0  0  0  0
 13 22  1  0  0  0  0
 14 18  1  0  0  0  0
 14  2  1  1  0  0  0
 15 17  1  1  0  0  0
 15 19  1  0  0  0  0
 15  9  1  0  0  0  0
 18 17  1  1  0  0  0
 20 31  1  6  0  0  0
 20 14  1  0  0  0  0
 21 12  1  6  0  0  0
 21 18  1  0  0  0  0
 21  4  1  0  0  0  0
 22  5  1  0  0  0  0
 24 23  1  0  0  0  0
 25 27  1  1  0  0  0
 25 24  1  0  0  0  0
 26 27  1  0  0  0  0
 28 25  1  0  0  0  0
 29 28  1  0  0  0  0
 30 29  1  0  0  0  0
 32 35  1  0  0  0  0
 33 34  1  0  0  0  0
 34 31  1  0  0  0  0
 34 37  2  0  0  0  0
 35 37  1  0  0  0  0
 36 32  1  0  0  0  0
 36 33  1  0  0  0  0
M  END
>  <MODEL>
7

>  <REMARK>
 VINA RESULT:      -5.3      2.626      7.759
  Name = 
  8 active torsions:
  status: ('A' for Active; 'I' for Inactive)
    1  A    between atoms: N_3  and  C_9
    2  A    between atoms: N_3  and  CA_14
    3  A    between atoms: C_5  and  C_20
    4  A    between atoms: C_6  and  CA_14
    5  A    between atoms: C_6  and  C_20
    6  A    between atoms: CA_14  and  C_30
    7  A    between atoms: C_22  and  C_29
    8  A    between atoms: C_29  and  C_34
                            x       y       z     vdW  Elec       q    Type
                         _______ _______ _______ _____ _____    ______ ____

>  <TORSDO>
F 8

$$$$
=
 OpenBabel11052410473D

 37 41  0  0  1  0  0  0  0  0999 V2000
  161.2550  205.4280  150.8020 C   0  0  0  0  0  3  0  0  0  0  0  0
  162.3700  209.5510  148.9670 C   0  0  0  0  0  3  0  0  0  0  0  0
  161.3050  213.3130  149.1340 C   0  0  1  0  0  3  0  0  0  0  0  0
  160.0910  211.6610  153.0500 C   0  0  1  0  0  3  0  0  0  0  0  0
  161.1410  206.8070  150.9640 C   0  0  0  0  0  0  0  0  0  0  0  0
  161.0830  213.5330  150.4960 O   0  0  0  0  0  0  0  0  0  0  0  0
  161.4550  204.6220  151.8750 N   0  0  0  0  0  0  0  0  0  0  0  0
  161.4270  206.4710  153.3330 N   0  0  0  0  0  0  0  0  0  0  0  0
  161.2460  207.3300  152.2950 C   0  0  0  0  0  0  0  0  0  0  0  0
  161.8970  214.4530  148.5870 O   0  0  0  0  0  1  0  0  0  0  0  0
  159.5610  210.3570  153.6250 C   0  0  0  0  0  2  0  0  0  0  0  0
  159.8970  212.8460  150.7670 C   0  0  0  0  0  2  0  0  0  0  0  0
  162.0400  208.2340  149.0550 C   0  0  0  0  0  3  0  0  0  0  0  0
  161.6050  210.7820  149.5130 C   0  0  1  0  0  3  0  0  0  0  0  0
  161.2070  208.7860  152.5710 C   0  0  1  0  0  3  0  0  0  0  0  0
  161.5340  205.1330  153.1300 C   0  0  0  0  0  3  0  0  0  0  0  0
  161.6180  209.5140  151.5610 C   0  0  0  0  0  2  0  0  0  0  0  0
  161.5310  210.9010  151.0790 C   0  0  2  0  0  3  0  0  0  0  0  0
  160.6900  209.3620  153.8520 C   0  0  0  0  0  2  0  0  0  0  0  0
  162.1970  212.0810  148.9010 C   0  0  1  0  0  3  0  0  0  0  0  0
  160.1890  211.5390  151.5130 C   0  0  1  0  0  3  0  0  0  0  0  0
  160.8140  207.6500  149.7320 C   0  0  0  0  0  2  0  0  0  0  0  0
  159.1860  212.7880  153.5480 C   0  0  0  0  0  2  0  0  0  0  0  0
  158.3050  212.3440  154.7180 C   0  0  0  0  0  2  0  0  0  0  0  0
  157.0370  213.1870  154.9010 C   0  0  1  0  0  3  0  0  0  0  0  0
  155.0420  213.7620  153.7120 O   0  0  0  0  0  1  0  0  0  0  0  0
  156.4220  213.6100  153.5750 C   0  0  0  0  0  2  0  0  0  0  0  0
  156.0550  212.4760  155.7030 N   0  0  0  0  0  2  0  0  0  0  0  0
  156.3870  211.0640  155.6340 C   0  0  0  0  0  2  0  0  0  0  0  0
  155.2050  210.2950  155.0830 C   0  0  0  0  0  1  0  0  0  0  0  0
  162.4250  211.9300  147.3960 C   0  0  0  0  0  2  0  0  0  0  0  0
  159.2860  213.0810  144.7530 N   0  0  0  0  0  2  0  0  0  0  0  0
  159.8840  212.0240  146.8840 C   0  0  0  0  0  2  0  0  0  0  0  0
  161.2870  212.5220  146.6280 C   0  0  0  0  0  0  0  0  0  0  0  0
  160.4340  213.9840  144.8190 C   0  0  0  0  0  2  0  0  0  0  0  0
  158.8350  212.8380  146.1220 C   0  0  0  0  0  2  0  0  0  0  0  0
  161.5490  213.3740  145.6240 C   0  0  0  0  0  3  0  0  0  0  0  0
  1  5  2  0  0  0  0
  1  7  1  0  0  0  0
  2 13  2  0  0  0  0
  3 10  1  1  0  0  0
  3  6  1  0  0  0  0
  4 23  1  6  0  0  0
  4 11  1  0  0  0  0
  5  9  1  0  0  0  0
  6 12  1  0  0  0  0
  7 16  2  0  0  0  0
  9 15  1  0  0  0  0
  9  8  2  0  0  0  0
 11 19  1  0  0  0  0
 13 22  1  0  0  0  0
 14  2  1  1  0  0  0
 14 18  1  0  0  0  0
 15 17  1  6  0  0  0
 15 19  1  0  0  0  0
 16  8  1  0  0  0  0
 18 21  1  0  0  0  0
 18 17  1  1  0  0  0
 20 31  1  6  0  0  0
 20  3  1  0  0  0  0
 20 14  1  0  0  0  0
 21 12  1  6  0  0  0
 21  4  1  0  0  0  0
 22  5  1  0  0  0  0
 23 24  1  0  0  0  0
 24 25  1  0  0  0  0
 25 27  1  6  0  0  0
 25 28  1  0  0  0  0
 27 26  1  0  0  0  0
 29 28  1  0  0  0  0
 30 29  1  0  0  0  0
 32 35  1  0  0  0  0
 32 36  1  0  0  0  0
 34 33  1  0  0  0  0
 34 31  1  0  0  0  0
 35 37  1  0  0  0  0
 36 33  1  0  0  0  0
 37 34  2  0  0  0  0
M  END
>  <MODEL>
8

>  <REMARK>
 VINA RESULT:      -5.0      2.343      6.915
  Name = 
  8 active torsions:
  status: ('A' for Active; 'I' for Inactive)
    1  A    between atoms: N_3  and  C_9
    2  A    between atoms: N_3  and  CA_14
    3  A    between atoms: C_5  and  C_20
    4  A    between atoms: C_6  and  CA_14
    5  A    between atoms: C_6  and  C_20
    6  A    between atoms: CA_14  and  C_30
    7  A    between atoms: C_22  and  C_29
    8  A    between atoms: C_29  and  C_34
                            x       y       z     vdW  Elec       q    Type
                         _______ _______ _______ _____ _____    ______ ____

>  <TORSDO>
F 8

$$$$
=
 OpenBabel11052410473D

 37 41  0  0  1  0  0  0  0  0999 V2000
  161.5540  208.6800  156.4500 C   0  0  0  0  0  3  0  0  0  0  0  0
  161.1540  210.8260  152.3460 C   0  0  0  0  0  3  0  0  0  0  0  0
  162.0070  210.2870  148.5650 C   0  0  1  0  0  3  0  0  0  0  0  0
  161.6570  206.1950  150.1990 C   0  0  1  0  0  3  0  0  0  0  0  0
  161.5730  208.4940  155.0690 C   0  0  0  0  0  0  0  0  0  0  0  0
  161.6860  208.9450  148.3420 O   0  0  0  0  0  0  0  0  0  0  0  0
  160.9730  207.7600  157.2610 N   0  0  0  0  0  0  0  0  0  0  0  0
  160.4070  206.4140  155.4140 N   0  0  0  0  0  0  0  0  0  0  0  0
  160.9560  207.3080  154.5500 C   0  0  0  0  0  0  0  0  0  0  0  0
  161.6490  211.0260  147.4350 O   0  0  0  0  0  1  0  0  0  0  0  0
  161.9500  205.4530  151.4940 C   0  0  0  0  0  2  0  0  0  0  0  0
  162.6900  208.2360  149.0080 C   0  0  0  0  0  2  0  0  0  0  0  0
  161.4480  210.6110  153.6560 C   0  0  0  0  0  3  0  0  0  0  0  0
  161.6300  210.0360  151.1020 C   0  0  1  0  0  3  0  0  0  0  0  0
  160.8610  207.0470  153.0940 C   0  0  1  0  0  3  0  0  0  0  0  0
  160.4100  206.6340  156.7530 C   0  0  0  0  0  3  0  0  0  0  0  0
  160.8550  208.1410  152.3720 C   0  0  0  0  0  2  0  0  0  0  0  0
  161.0960  208.5620  150.9830 C   0  0  2  0  0  3  0  0  0  0  0  0
  160.8380  205.6690  152.5100 C   0  0  0  0  0  2  0  0  0  0  0  0
  161.2940  210.8360  149.8140 C   0  0  1  0  0  3  0  0  0  0  0  0
  162.1580  207.6510  150.3210 C   0  0  1  0  0  3  0  0  0  0  0  0
  162.3310  209.5120  154.2180 C   0  0  0  0  0  2  0  0  0  0  0  0
  162.2830  205.3950  149.0560 C   0  0  0  0  0  2  0  0  0  0  0  0
  161.2330  204.8980  148.0590 C   0  0  0  0  0  2  0  0  0  0  0  0
  161.8120  204.1000  146.8860 C   0  0  1  0  0  3  0  0  0  0  0  0
  160.7400  202.1500  147.7630 O   0  0  0  0  0  1  0  0  0  0  0  0
  161.0100  202.8430  146.5830 C   0  0  0  0  0  2  0  0  0  0  0  0
  161.9110  204.9280  145.6950 N   0  0  0  0  0  2  0  0  0  0  0  0
  160.8050  204.5630  144.8270 C   0  0  0  0  0  2  0  0  0  0  0  0
  160.8940  205.3530  143.5390 C   0  0  0  0  0  1  0  0  0  0  0  0
  161.6630  212.3130  149.9670 C   0  0  0  0  0  2  0  0  0  0  0  0
  157.8340  214.1530  149.6180 N   0  0  0  0  0  2  0  0  0  0  0  0
  159.6290  213.4320  151.1260 C   0  0  0  0  0  2  0  0  0  0  0  0
  160.4430  213.1730  149.8790 C   0  0  0  0  0  0  0  0  0  0  0  0
  158.7800  214.4280  148.5380 C   0  0  0  0  0  2  0  0  0  0  0  0
  158.5070  214.4450  150.8820 C   0  0  0  0  0  2  0  0  0  0  0  0
  160.0110  213.5730  148.6720 C   0  0  0  0  0  3  0  0  0  0  0  0
  1  7  1  0  0  0  0
  2 13  2  0  0  0  0
  3 10  1  6  0  0  0
  3 20  1  0  0  0  0
  4 23  1  6  0  0  0
  4 21  1  0  0  0  0
  4 11  1  0  0  0  0
  5  1  2  0  0  0  0
  6  3  1  0  0  0  0
  6 12  1  0  0  0  0
  8 16  1  0  0  0  0
  9  5  1  0  0  0  0
  9  8  2  0  0  0  0
 11 19  1  0  0  0  0
 13 22  1  0  0  0  0
 14  2  1  1  0  0  0
 15 17  1  6  0  0  0
 15  9  1  0  0  0  0
 16  7  2  0  0  0  0
 18 14  1  0  0  0  0
 18 17  1  1  0  0  0
 19 15  1  0  0  0  0
 20 31  1  1  0  0  0
 20 14  1  0  0  0  0
 21 12  1  6  0  0  0
 21 18  1  0  0  0  0
 22  5  1  0  0  0  0
 24 23  1  0  0  0  0
 25 27  1  6  0  0  0
 25 24  1  0  0  0  0
 27 26  1  0  0  0  0
 28 25  1  0  0  0  0
 29 28  1  0  0  0  0
 30 29  1  0  0  0  0
 32 36  1  0  0  0  0
 34 31  1  0  0  0  0
 34 33  1  0  0  0  0
 35 37  1  0  0  0  0
 35 32  1  0  0  0  0
 36 33  1  0  0  0  0
 37 34  2  0  0  0  0
M  END
>  <MODEL>
9

>  <REMARK>
 VINA RESULT:      -4.7      2.968      6.492
  Name = 
  8 active torsions:
  status: ('A' for Active; 'I' for Inactive)
    1  A    between atoms: N_3  and  C_9
    2  A    between atoms: N_3  and  CA_14
    3  A    between atoms: C_5  and  C_20
    4  A    between atoms: C_6  and  CA_14
    5  A    between atoms: C_6  and  C_20
    6  A    between atoms: CA_14  and  C_30
    7  A    between atoms: C_22  and  C_29
    8  A    between atoms: C_29  and  C_34
                            x       y       z     vdW  Elec       q    Type
                         _______ _______ _______ _____ _____    ______ ____

>  <TORSDO>
F 8

$$$$
