=
 OpenBabel11052411043D

 67 76  0  0  1  0  0  0  0  0999 V2000
  160.8120  205.7790  153.5210 C   0  0  2  0  0  3  0  0  0  0  0  0
  161.6260  204.8080  152.6800 C   0  0  2  0  0  3  0  0  0  0  0  0
  160.1400  206.5760  152.4360 C   0  0  2  0  0  3  0  0  0  0  0  0
  162.6960  208.3420  155.7860 C   0  0  0  0  0  3  0  0  0  0  0  0
  162.1760  209.7270  156.1400 C   0  0  0  0  0  3  0  0  0  0  0  0
  161.6310  207.7280  154.9390 C   0  0  0  0  0  0  0  0  0  0  0  0
  160.8570  209.8400  155.4460 C   0  0  0  0  0  0  0  0  0  0  0  0
  160.3210  208.8920  153.3030 N   0  0  0  0  0  2  0  0  0  0  0  0
  161.0530  206.4900  151.2380 C   0  0  2  0  0  3  0  0  0  0  0  0
  160.4530  208.6100  154.7210 C   0  0  1  0  0  3  0  0  0  0  0  0
  160.1570  210.9350  155.3720 N   0  0  0  0  0  0  0  0  0  0  0  0
  161.8040  206.5280  154.3740 C   0  0  0  0  0  3  0  0  0  0  0  0
  159.4200  207.8920  152.7540 C   0  0  0  0  0  2  0  0  0  0  0  0
  161.7810  205.2890  151.3540 O   0  0  0  0  0  0  0  0  0  0  0  0
  160.4590  212.1730  156.0360 C   0  0  0  0  0  0  0  0  0  0  0  0
  161.3400  212.2160  156.9350 O   0  0  0  0  0  0  0  0  0  0  0  0
  159.7380  213.3700  155.7220 N   0  0  0  0  0  2  0  0  0  0  0  0
  157.5410  214.4530  151.7020 C   0  0  0  0  0  3  0  0  0  0  0  0
  156.8810  211.5500  156.1350 C   0  0  0  0  0  2  0  0  0  0  0  0
  158.9320  213.6110  154.5620 C   0  0  0  0  0  0  0  0  0  0  0  0
  157.6220  213.4440  154.6600 C   0  0  0  0  0  0  0  0  0  0  0  0
  155.5780  213.2330  154.7510 C   0  0  2  0  0  3  0  0  0  0  0  0
  156.6080  210.6660  155.0820 O   0  0  0  0  0  0  0  0  0  0  0  0
  156.6500  213.0140  155.7180 C   0  0  1  0  0  3  0  0  0  0  0  0
  155.2190  210.6990  154.9410 C   0  0  0  0  0  2  0  0  0  0  0  0
  154.8040  211.9940  154.2480 C   0  0  0  0  0  2  0  0  0  0  0  0
  159.5360  214.1000  153.3040 C   0  0  0  0  0  3  0  0  0  0  0  0
  156.4470  214.1160  152.3870 C   0  0  0  0  0  3  0  0  0  0  0  0
  156.5100  213.6600  153.7260 N   0  0  0  0  0  0  0  0  0  0  0  0
  158.9610  214.4400  152.1380 C   0  0  0  0  0  3  0  0  0  0  0  0
  161.0040  203.4900  152.6570 N   0  0  0  0  0  2  0  0  0  0  0  0
  161.1770  202.9200  151.3290 C   0  0  0  0  0  2  0  0  0  0  0  0
  160.1870  201.9590  151.0810 O   0  0  0  0  0  0  0  0  0  0  0  0
  160.6710  201.2000  150.0160 C   0  0  0  0  0  2  0  0  0  0  0  0
  161.5960  202.0470  149.1500 C   0  0  0  0  0  2  0  0  0  0  0  0
  161.0440  204.2540  146.2000 P   0  0  2  0  0  0  0  0  0  0  0  0
  161.2990  202.7450  145.5080 O   0  0  0  0  0  0  0  0  0  0  0  0
  161.5900  201.9520  146.6200 C   0  0  1  0  0  3  0  0  0  0  0  0
  160.9060  202.5220  147.8760 C   0  0  2  0  0  3  0  0  0  0  0  0
  160.8540  203.9210  147.8350 O   0  0  0  0  0  0  0  0  0  0  0  0
  159.7850  204.8810  145.6470 O   0  0  0  0  0  0  0  0  0  0  0  0
  161.1380  200.5500  146.3750 C   0  0  0  0  0  0  0  0  0  0  0  0
  160.1930  200.2800  145.3940 O   0  0  0  0  0  0  0  0  0  0  0  0
  161.5900  199.6080  147.0840 O   0  0  0  0  0  1  0  0  0  0  0  0
  163.4500  204.6170  145.2140 O   0  0  0  0  0  1  0  0  0  0  0  0
  162.4840  205.3260  145.9290 C   0  0  0  0  0  0  0  0  0  0  0  0
  162.0870  206.4430  145.1900 O   0  0  0  0  0  1  0  0  0  0  0  0
  163.0450  205.7620  147.2780 C   0  0  0  0  0  2  0  0  0  0  0  0
  162.5530  207.1480  147.6720 C   0  0  0  0  0  1  0  0  0  0  0  0
  162.0300  207.6540  151.1580 C   0  0  0  0  0  2  0  0  0  0  0  0
  161.4830  208.6630  150.3590 O   0  0  0  0  0  0  0  0  0  0  0  0
  161.5790  210.9310  151.1130 C   0  0  0  0  0  3  0  0  0  0  0  0
  162.7680  210.1900  149.2200 O   0  0  0  0  0  0  0  0  0  0  0  0
  162.2870  211.4420  148.9250 C   0  0  0  0  0  0  0  0  0  0  0  0
  162.5190  212.0100  147.7770 N   0  0  0  0  0  0  0  0  0  0  0  0
  162.3490  209.7530  150.5010 C   0  0  2  0  0  3  0  0  0  0  0  0
  161.4910  212.0120  150.0370 C   0  0  0  0  0  3  0  0  0  0  0  0
  163.0940  214.4530  147.4170 C   0  0  0  0  0  2  0  0  0  0  0  0
  161.8550  214.4190  148.3120 C   0  0  0  0  0  2  0  0  0  0  0  0
  162.0880  213.3280  147.2890 C   0  0  0  0  0  0  0  0  0  0  0  0
  159.8430  213.6060  146.2180 C   0  0  0  0  0  3  0  0  0  0  0  0
  161.2140  213.3470  146.0760 C   0  0  0  0  0  0  0  0  0  0  0  0
  163.0940  212.9770  144.6250 F   0  0  0  0  0  0  0  0  0  0  0  0
  159.5640  213.5050  143.8160 C   0  0  0  0  0  3  0  0  0  0  0  0
  159.0200  213.6780  145.0900 C   0  0  0  0  0  3  0  0  0  0  0  0
  161.7620  213.1930  144.7880 C   0  0  0  0  0  0  0  0  0  0  0  0
  160.9350  213.2660  143.6640 C   0  0  0  0  0  3  0  0  0  0  0  0
  1 12  1  6  0  0  0
  2 31  1  6  0  0  0
  2  1  1  0  0  0  0
  3 13  1  1  0  0  0
  3  1  1  0  0  0  0
  4  5  2  0  0  0  0
  6  4  1  0  0  0  0
  7  5  1  0  0  0  0
  9 50  1  1  0  0  0
  9 14  1  0  0  0  0
  9  3  1  0  0  0  0
 10  8  1  6  0  0  0
 10  6  1  0  0  0  0
 10  7  1  0  0  0  0
 11  7  2  0  0  0  0
 11 15  1  0  0  0  0
 12  6  2  0  0  0  0
 13  8  1  0  0  0  0
 14  2  1  0  0  0  0
 15 16  2  0  0  0  0
 17 15  1  0  0  0  0
 18 30  1  0  0  0  0
 18 28  2  0  0  0  0
 20 21  2  0  0  0  0
 20 17  1  0  0  0  0
 21 24  1  0  0  0  0
 22 26  1  6  0  0  0
 22 24  1  0  0  0  0
 23 19  1  0  0  0  0
 24 19  1  6  0  0  0
 25 23  1  0  0  0  0
 26 25  1  0  0  0  0
 27 20  1  0  0  0  0
 28 29  1  0  0  0  0
 29 21  1  0  0  0  0
 29 22  1  0  0  0  0
 30 27  2  0  0  0  0
 32 31  1  0  0  0  0
 33 32  1  0  0  0  0
 34 33  1  0  0  0  0
 35 34  1  0  0  0  0
 36 41  2  6  0  0  0
 36 40  1  0  0  0  0
 37 36  1  0  0  0  0
 37 38  1  0  0  0  0
 38 42  1  6  0  0  0
 38 39  1  0  0  0  0
 39 35  1  1  0  0  0
 40 39  1  0  0  0  0
 42 44  1  0  0  0  0
 43 42  2  0  0  0  0
 45 46  1  0  0  0  0
 46 36  1  0  0  0  0
 46 48  1  0  0  0  0
 47 46  1  0  0  0  0
 48 49  1  0  0  0  0
 51 50  1  0  0  0  0
 53 56  1  0  0  0  0
 54 53  1  0  0  0  0
 54 57  1  0  0  0  0
 55 54  2  0  0  0  0
 56 51  1  6  0  0  0
 56 52  1  0  0  0  0
 57 52  2  0  0  0  0
 58 59  1  0  0  0  0
 60 58  1  0  0  0  0
 60 55  1  0  0  0  0
 60 59  1  0  0  0  0
 62 61  1  0  0  0  0
 62 60  1  0  0  0  0
 63 66  1  0  0  0  0
 64 65  1  0  0  0  0
 65 61  2  0  0  0  0
 66 62  2  0  0  0  0
 67 64  2  0  0  0  0
 67 66  1  0  0  0  0
M  END
>  <MODEL>
1

>  <REMARK>
 VINA RESULT:      -0.0      0.000      0.000
  Name = 
  16 active torsions:
  status: ('A' for Active; 'I' for Inactive)
    1  A    between atoms: C_3  and  C_31
    2  A    between atoms: C_5  and  N_32
    3  A    between atoms: C_6  and  N_43
    4  A    between atoms: C_7  and  N_32
    5  A    between atoms: C_7  and  O_41
    6  A    between atoms: C_13  and  N_33
    7  A    between atoms: P_16  and  C_62
    8  A    between atoms: C_19  and  C_66
    9  A    between atoms: O_36  and  C_45
   10  A    between atoms: O_36  and  C_57
   11  A    between atoms: C_38  and  C_45
   12  A    between atoms: O_41  and  C_61
   13  A    between atoms: C_44  and  C_67
   14  A    between atoms: N_53  and  C_66
   15  A    between atoms: C_54  and  C_62
   16  A    between atoms: C_61  and  C_67
                            x       y       z     vdW  Elec       q    Type
                         _______ _______ _______ _____ _____    ______ ____

>  <TORSDO>
F 16

$$$$
=
 OpenBabel11052411043D

 67 76  0  0  1  0  0  0  0  0999 V2000
  161.0130  204.5450  146.3430 C   0  0  2  0  0  3  0  0  0  0  0  0
  161.5580  203.4750  145.4110 C   0  0  2  0  0  3  0  0  0  0  0  0
  160.2270  205.3760  145.3670 C   0  0  2  0  0  3  0  0  0  0  0  0
  163.5240  206.9630  148.1020 C   0  0  0  0  0  3  0  0  0  0  0  0
  163.2140  208.4020  148.4840 C   0  0  0  0  0  3  0  0  0  0  0  0
  162.2660  206.4380  147.4970 C   0  0  0  0  0  0  0  0  0  0  0  0
  161.8050  208.6300  148.0410 C   0  0  0  0  0  0  0  0  0  0  0  0
  160.7870  207.6850  146.0800 N   0  0  0  0  0  2  0  0  0  0  0  0
  160.8850  205.1660  144.0260 C   0  0  2  0  0  3  0  0  0  0  0  0
  161.1560  207.4280  147.4610 C   0  0  1  0  0  3  0  0  0  0  0  0
  161.2100  209.7880  148.0490 N   0  0  0  0  0  0  0  0  0  0  0  0
  162.2150  205.2120  146.9630 C   0  0  0  0  0  3  0  0  0  0  0  0
  159.7080  206.7670  145.7540 C   0  0  0  0  0  2  0  0  0  0  0  0
  161.5060  203.9020  144.0590 O   0  0  0  0  0  0  0  0  0  0  0  0
  161.7480  211.0060  148.5900 C   0  0  0  0  0  0  0  0  0  0  0  0
  162.8780  211.0130  149.1450 O   0  0  0  0  0  0  0  0  0  0  0  0
  160.9950  212.2240  148.5460 N   0  0  0  0  0  2  0  0  0  0  0  0
  156.9370  213.0640  146.3120 C   0  0  0  0  0  3  0  0  0  0  0  0
  162.2150  213.1980  145.5120 C   0  0  0  0  0  2  0  0  0  0  0  0
  159.8570  212.5050  147.7220 C   0  0  0  0  0  0  0  0  0  0  0  0
  159.9980  212.4300  146.4080 C   0  0  0  0  0  0  0  0  0  0  0  0
  160.1380  212.3010  144.3600 C   0  0  2  0  0  3  0  0  0  0  0  0
  161.7540  214.4500  145.0840 O   0  0  0  0  0  0  0  0  0  0  0  0
  161.1050  212.1330  145.4410 C   0  0  1  0  0  3  0  0  0  0  0  0
  161.5850  214.3160  143.7050 C   0  0  0  0  0  2  0  0  0  0  0  0
  160.3200  213.5120  143.4190 C   0  0  0  0  0  2  0  0  0  0  0  0
  158.5390  212.8060  148.3220 C   0  0  0  0  0  3  0  0  0  0  0  0
  157.6740  212.8630  145.2190 C   0  0  0  0  0  3  0  0  0  0  0  0
  159.0590  212.5780  145.2880 N   0  0  0  0  0  0  0  0  0  0  0  0
  157.3500  213.0350  147.7390 C   0  0  0  0  0  3  0  0  0  0  0  0
  160.8210  202.2260  145.5630 N   0  0  0  0  0  2  0  0  0  0  0  0
  160.9970  201.7490  146.9270 C   0  0  0  0  0  2  0  0  0  0  0  0
  159.8420  202.0000  147.6810 O   0  0  0  0  0  0  0  0  0  0  0  0
  160.2860  202.1550  148.9940 C   0  0  0  0  0  2  0  0  0  0  0  0
  160.2180  203.6240  149.3960 C   0  0  0  0  0  2  0  0  0  0  0  0
  162.2400  205.9090  151.5340 P   0  0  2  0  0  0  0  0  0  0  0  0
  161.8180  204.6710  152.5880 O   0  0  0  0  0  0  0  0  0  0  0  0
  160.9910  203.8730  151.7940 C   0  0  1  0  0  3  0  0  0  0  0  0
  161.3740  204.0170  150.3100 C   0  0  2  0  0  3  0  0  0  0  0  0
  161.8110  205.3170  150.0220 O   0  0  0  0  0  0  0  0  0  0  0  0
  163.7290  206.1630  151.5890 O   0  0  0  0  0  0  0  0  0  0  0  0
  161.1020  202.4470  152.2220 C   0  0  0  0  0  0  0  0  0  0  0  0
  162.3440  201.8280  152.2840 O   0  0  0  0  0  0  0  0  0  0  0  0
  160.0600  201.7870  152.4950 O   0  0  0  0  0  1  0  0  0  0  0  0
  162.1620  208.5130  151.8620 O   0  0  0  0  0  1  0  0  0  0  0  0
  161.3030  207.4150  151.9200 C   0  0  0  0  0  0  0  0  0  0  0  0
  160.2850  207.5730  150.9760 O   0  0  0  0  0  1  0  0  0  0  0  0
  160.7060  207.2900  153.3170 C   0  0  0  0  0  2  0  0  0  0  0  0
  160.7990  208.5980  154.0890 C   0  0  0  0  0  1  0  0  0  0  0  0
  161.9360  206.2230  143.7140 C   0  0  0  0  0  2  0  0  0  0  0  0
  162.5750  205.9000  142.5130 O   0  0  0  0  0  0  0  0  0  0  0  0
  162.2460  205.8380  140.1450 C   0  0  0  0  0  3  0  0  0  0  0  0
  161.2980  207.5170  141.4970 O   0  0  0  0  0  0  0  0  0  0  0  0
  161.7140  208.1250  140.3370 C   0  0  0  0  0  0  0  0  0  0  0  0
  161.5520  209.4010  140.1390 N   0  0  0  0  0  0  0  0  0  0  0  0
  161.6240  206.1390  141.5150 C   0  0  2  0  0  3  0  0  0  0  0  0
  162.3580  207.1700  139.4060 C   0  0  0  0  0  3  0  0  0  0  0  0
  160.9470  210.2430  137.8250 C   0  0  0  0  0  2  0  0  0  0  0  0
  162.2730  209.4940  137.6890 C   0  0  0  0  0  2  0  0  0  0  0  0
  161.9320  210.2160  138.9750 C   0  0  0  0  0  0  0  0  0  0  0  0
  163.9290  211.6900  138.6620 C   0  0  0  0  0  3  0  0  0  0  0  0
  162.6750  211.4840  139.2510 C   0  0  0  0  0  0  0  0  0  0  0  0
  160.8630  212.3420  140.5770 F   0  0  0  0  0  0  0  0  0  0  0  0
  164.0440  213.8960  139.6530 C   0  0  0  0  0  3  0  0  0  0  0  0
  164.6150  212.8920  138.8680 C   0  0  0  0  0  3  0  0  0  0  0  0
  162.0940  212.5060  140.0260 C   0  0  0  0  0  0  0  0  0  0  0  0
  162.7830  213.7050  140.2290 C   0  0  0  0  0  3  0  0  0  0  0  0
  1 12  1  6  0  0  0
  2 31  1  6  0  0  0
  2  1  1  0  0  0  0
  3 13  1  1  0  0  0
  3  1  1  0  0  0  0
  4  5  2  0  0  0  0
  6  4  1  0  0  0  0
  7 11  2  0  0  0  0
  7  5  1  0  0  0  0
  9 50  1  1  0  0  0
  9 14  1  0  0  0  0
  9  3  1  0  0  0  0
 10  8  1  6  0  0  0
 10  6  1  0  0  0  0
 10  7  1  0  0  0  0
 11 15  1  0  0  0  0
 12  6  2  0  0  0  0
 13  8  1  0  0  0  0
 14  2  1  0  0  0  0
 15 16  2  0  0  0  0
 17 15  1  0  0  0  0
 18 30  1  0  0  0  0
 20 27  1  0  0  0  0
 20 17  1  0  0  0  0
 21 20  2  0  0  0  0
 22 26  1  6  0  0  0
 22 29  1  0  0  0  0
 22 24  1  0  0  0  0
 23 19  1  0  0  0  0
 24 19  1  6  0  0  0
 24 21  1  0  0  0  0
 25 23  1  0  0  0  0
 26 25  1  0  0  0  0
 28 29  1  0  0  0  0
 28 18  2  0  0  0  0
 29 21  1  0  0  0  0
 30 27  2  0  0  0  0
 31 32  1  0  0  0  0
 32 33  1  0  0  0  0
 33 34  1  0  0  0  0
 34 35  1  0  0  0  0
 36 41  2  1  0  0  0
 36 46  1  0  0  0  0
 36 37  1  0  0  0  0
 38 42  1  1  0  0  0
 38 37  1  0  0  0  0
 39 35  1  6  0  0  0
 39 38  1  0  0  0  0
 40 39  1  0  0  0  0
 40 36  1  0  0  0  0
 42 43  2  0  0  0  0
 42 44  1  0  0  0  0
 45 46  1  0  0  0  0
 46 48  1  0  0  0  0
 47 46  1  0  0  0  0
 48 49  1  0  0  0  0
 51 50  1  0  0  0  0
 52 56  1  0  0  0  0
 53 56  1  0  0  0  0
 54 53  1  0  0  0  0
 55 54  2  0  0  0  0
 56 51  1  1  0  0  0
 57 52  2  0  0  0  0
 57 54  1  0  0  0  0
 58 60  1  0  0  0  0
 59 58  1  0  0  0  0
 59 60  1  0  0  0  0
 60 62  1  0  0  0  0
 60 55  1  0  0  0  0
 61 65  2  0  0  0  0
 61 62  1  0  0  0  0
 62 66  2  0  0  0  0
 64 67  2  0  0  0  0
 65 64  1  0  0  0  0
 66 67  1  0  0  0  0
 66 63  1  0  0  0  0
M  END
>  <MODEL>
2

>  <REMARK>
 VINA RESULT:       2.1      3.607      7.877
  Name = 
  16 active torsions:
  status: ('A' for Active; 'I' for Inactive)
    1  A    between atoms: C_3  and  C_31
    2  A    between atoms: C_5  and  N_32
    3  A    between atoms: C_6  and  N_43
    4  A    between atoms: C_7  and  N_32
    5  A    between atoms: C_7  and  O_41
    6  A    between atoms: C_13  and  N_33
    7  A    between atoms: P_16  and  C_62
    8  A    between atoms: C_19  and  C_66
    9  A    between atoms: O_36  and  C_45
   10  A    between atoms: O_36  and  C_57
   11  A    between atoms: C_38  and  C_45
   12  A    between atoms: O_41  and  C_61
   13  A    between atoms: C_44  and  C_67
   14  A    between atoms: N_53  and  C_66
   15  A    between atoms: C_54  and  C_62
   16  A    between atoms: C_61  and  C_67
                            x       y       z     vdW  Elec       q    Type
                         _______ _______ _______ _____ _____    ______ ____

>  <TORSDO>
F 16

$$$$
