=
 OpenBabel11052411023D

 37 44  0  0  1  0  0  0  0  0999 V2000
  160.7570  208.6810  152.1550 N   0  0  2  0  0  0  0  0  0  0  0  0
  161.3500  210.7730  152.0500 C   0  0  2  0  0  3  0  0  0  0  0  0
  159.2810  210.4870  153.1150 C   0  0  2  0  0  3  0  0  0  0  0  0
  159.2120  210.9170  154.6040 C   0  0  1  0  0  0  0  0  0  0  0  0
  159.7970  209.8630  155.5330 C   0  0  0  0  0  1  0  0  0  0  0  0
  158.1490  213.9010  150.5730 C   0  0  0  0  0  0  0  0  0  0  0  0
  161.9850  211.0850  149.6930 S   0  0  0  0  0  0  0  0  0  0  0  0
  157.0650  213.4090  148.0400 C   0  0  0  0  0  0  0  0  0  0  0  0
  162.3920  207.5730  150.8820 C   0  0  0  0  0  2  0  0  0  0  0  0
  161.7620  206.5710  151.8730 C   0  0  1  0  0  3  0  0  0  0  0  0
  160.6080  209.8780  152.7560 C   0  0  1  0  0  3  0  0  0  0  0  0
  159.1840  213.3390  154.0820 C   0  0  2  0  0  3  0  0  0  0  0  0
  156.5390  213.1830  146.8130 F   0  0  0  0  0  0  0  0  0  0  0  0
  160.7670  213.9180  149.6550 S   0  0  0  0  0  0  0  0  0  0  0  0
  158.7170  214.0050  151.8820 N   0  0  0  0  0  2  0  0  0  0  0  0
  156.2240  213.5270  149.1500 C   0  0  0  0  0  3  0  0  0  0  0  0
  158.9940  213.7620  149.4620 C   0  0  0  0  0  0  0  0  0  0  0  0
  159.2510  211.7320  152.1670 C   0  0  1  0  0  3  0  0  0  0  0  0
  157.8750  212.3610  157.0240 O   0  0  0  0  0  1  0  0  0  0  0  0
  156.7650  213.7600  150.4170 C   0  0  0  0  0  3  0  0  0  0  0  0
  157.4090  212.4260  155.7090 C   0  0  2  0  0  3  0  0  0  0  0  0
  158.6260  212.9260  152.7760 N   0  0  1  0  0  0  0  0  0  0  0  0
  160.6760  211.9160  151.6830 C   0  0  2  0  0  3  0  0  0  0  0  0
  160.7690  207.3640  152.7430 C   0  0  0  0  0  2  0  0  0  0  0  0
  160.0000  212.2260  154.7570 C   0  0  0  0  0  2  0  0  0  0  0  0
  158.4500  213.5210  148.1970 C   0  0  0  0  0  3  0  0  0  0  0  0
  157.7230  211.1040  154.9810 C   0  0  0  0  0  2  0  0  0  0  0  0
  162.0720  210.1240  151.0740 C   0  0  2  0  0  3  0  0  0  0  0  0
  161.6420  208.8110  151.1680 C   0  0  2  0  0  3  0  0  0  0  0  0
  161.0030  212.2890  150.3760 C   0  0  2  0  0  3  0  0  0  0  0  0
  158.0050  213.6650  155.0070 C   0  0  0  0  0  2  0  0  0  0  0  0
  161.0140  205.4900  151.1150 C   0  0  0  0  0  2  0  0  0  0  0  0
  161.9030  204.7630  150.3210 O   0  0  0  0  0  0  0  0  0  0  0  0
  161.1820  204.6810  148.7890 P   0  0  0  0  0  0  0  0  0  0  0  0
  160.4010  203.3920  148.6570 O   0  0  0  0  0  1  0  0  0  0  0  0
  160.1450  206.0000  148.5650 O   0  0  0  0  0  1  0  0  0  0  0  0
  162.3920  204.7200  147.6090 O   0  0  0  0  0  0  0  0  0  0  0  0
  1 24  1  1  0  0  0
  1 11  1  0  0  0  0
  2 11  1  0  0  0  0
  3  4  1  0  0  0  0
  4 25  1  0  0  0  0
  4 27  1  0  0  0  0
  4  5  1  0  0  0  0
  6 15  1  0  0  0  0
  7 30  1  0  0  0  0
  7 28  1  0  0  0  0
  8 26  2  0  0  0  0
  8 16  1  0  0  0  0
  9 29  1  0  0  0  0
  9 10  1  0  0  0  0
 10 24  1  0  0  0  0
 11  3  1  0  0  0  0
 12 25  1  0  0  0  0
 12 31  1  0  0  0  0
 13  8  1  0  0  0  0
 14 30  1  0  0  0  0
 15 22  1  0  0  0  0
 16 20  2  0  0  0  0
 17 14  1  0  0  0  0
 17  6  2  0  0  0  0
 18 22  1  0  0  0  0
 18  3  1  0  0  0  0
 20  6  1  0  0  0  0
 21 19  1  0  0  0  0
 22 12  1  0  0  0  0
 23  2  1  0  0  0  0
 23 18  1  0  0  0  0
 26 17  1  0  0  0  0
 27 21  1  0  0  0  0
 28 29  1  0  0  0  0
 28  2  1  0  0  0  0
 29  1  1  0  0  0  0
 30 23  1  0  0  0  0
 31 21  1  0  0  0  0
 32 10  1  0  0  0  0
 33 32  1  0  0  0  0
 34 33  1  0  0  0  0
 35 34  1  0  0  0  0
 36 34  1  0  0  0  0
 37 34  2  0  0  0  0
M  END
>  <MODEL>
1

>  <REMARK>
 VINA RESULT:      -7.0      0.000      0.000
  Name = 
  3 active torsions:
  status: ('A' for Active; 'I' for Inactive)
    1  A    between atoms: P_3  and  O_19
    2  A    between atoms: C_11  and  C_33
    3  A    between atoms: O_19  and  C_33
                            x       y       z     vdW  Elec       q    Type
                         _______ _______ _______ _____ _____    ______ ____

>  <TORSDO>
F 3

$$$$
=
 OpenBabel11052411023D

 37 44  0  0  1  0  0  0  0  0999 V2000
  161.1810  208.0930  150.6650 N   0  0  2  0  0  0  0  0  0  0  0  0
  161.9070  210.1160  151.0090 C   0  0  2  0  0  3  0  0  0  0  0  0
  160.2130  209.5110  152.5120 C   0  0  2  0  0  3  0  0  0  0  0  0
  160.6110  209.4600  154.0100 C   0  0  1  0  0  0  0  0  0  0  0  0
  161.3390  208.1710  154.3650 C   0  0  0  0  0  1  0  0  0  0  0  0
  158.7190  213.5430  151.5560 C   0  0  0  0  0  0  0  0  0  0  0  0
  161.8670  211.1430  148.7730 S   0  0  0  0  0  0  0  0  0  0  0  0
  156.9150  213.8580  149.4380 C   0  0  0  0  0  0  0  0  0  0  0  0
  162.2740  207.4350  148.6920 C   0  0  0  0  0  2  0  0  0  0  0  0
  161.8650  206.1760  149.4840 C   0  0  1  0  0  3  0  0  0  0  0  0
  161.3200  209.0450  151.6090 C   0  0  1  0  0  3  0  0  0  0  0  0
  160.6580  211.9240  154.2610 C   0  0  2  0  0  3  0  0  0  0  0  0
  156.0420  214.0210  148.4160 F   0  0  0  0  0  0  0  0  0  0  0  0
  160.9550  213.8470  149.9420 S   0  0  0  0  0  0  0  0  0  0  0  0
  159.6440  213.2380  152.6030 N   0  0  0  0  0  2  0  0  0  0  0  0
  156.4410  213.6250  150.7320 C   0  0  0  0  0  3  0  0  0  0  0  0
  159.1940  213.7560  150.2530 C   0  0  0  0  0  0  0  0  0  0  0  0
  160.0260  210.9890  152.0290 C   0  0  1  0  0  3  0  0  0  0  0  0
  160.1600  210.0820  157.0330 O   0  0  0  0  0  1  0  0  0  0  0  0
  157.3410  213.4550  151.7880 C   0  0  0  0  0  3  0  0  0  0  0  0
  159.3470  210.5500  156.0000 C   0  0  2  0  0  3  0  0  0  0  0  0
  159.7140  211.9350  153.1230 N   0  0  1  0  0  0  0  0  0  0  0  0
  161.2640  211.3150  151.2170 C   0  0  2  0  0  3  0  0  0  0  0  0
  161.2390  206.6580  150.8060 C   0  0  0  0  0  2  0  0  0  0  0  0
  161.5270  210.6580  154.2990 C   0  0  0  0  0  2  0  0  0  0  0  0
  158.2910  213.9170  149.1980 C   0  0  0  0  0  3  0  0  0  0  0  0
  159.3160  209.5180  154.8550 C   0  0  0  0  0  2  0  0  0  0  0  0
  162.2580  209.8020  149.7160 C   0  0  2  0  0  3  0  0  0  0  0  0
  161.7540  208.5240  149.5430 C   0  0  2  0  0  3  0  0  0  0  0  0
  161.2370  212.0750  150.0430 C   0  0  2  0  0  3  0  0  0  0  0  0
  159.8280  211.9460  155.5510 C   0  0  0  0  0  2  0  0  0  0  0  0
  160.8350  205.3810  148.7010 C   0  0  0  0  0  2  0  0  0  0  0  0
  161.4070  204.1990  148.2260 O   0  0  0  0  0  0  0  0  0  0  0  0
  161.7240  204.4760  146.5840 P   0  0  0  0  0  0  0  0  0  0  0  0
  163.1880  204.8080  146.3920 O   0  0  0  0  0  1  0  0  0  0  0  0
  161.3290  203.1030  145.6770 O   0  0  0  0  0  0  0  0  0  0  0  0
  160.7860  205.7790  146.0550 O   0  0  0  0  0  1  0  0  0  0  0  0
  1 24  1  1  0  0  0
  1 11  1  0  0  0  0
  2 23  1  0  0  0  0
  2 11  1  0  0  0  0
  3  4  1  0  0  0  0
  4 25  1  0  0  0  0
  4  5  1  0  0  0  0
  4 27  1  0  0  0  0
  6 20  1  0  0  0  0
  6 15  1  0  0  0  0
  7 28  1  0  0  0  0
  7 30  1  0  0  0  0
  8 16  1  0  0  0  0
  9 10  1  0  0  0  0
  9 29  1  0  0  0  0
 10 24  1  0  0  0  0
 11  3  1  0  0  0  0
 12 25  1  0  0  0  0
 12 31  1  0  0  0  0
 13  8  1  0  0  0  0
 14 30  1  0  0  0  0
 14 17  1  0  0  0  0
 15 22  1  0  0  0  0
 16 20  2  0  0  0  0
 17  6  2  0  0  0  0
 18  3  1  0  0  0  0
 18 22  1  0  0  0  0
 21 19  1  0  0  0  0
 22 12  1  0  0  0  0
 23 18  1  0  0  0  0
 26  8  2  0  0  0  0
 26 17  1  0  0  0  0
 27 21  1  0  0  0  0
 28  2  1  0  0  0  0
 29 28  1  0  0  0  0
 29  1  1  0  0  0  0
 30 23  1  0  0  0  0
 31 21  1  0  0  0  0
 32 10  1  0  0  0  0
 33 32  1  0  0  0  0
 34 33  1  0  0  0  0
 35 34  1  0  0  0  0
 36 34  2  0  0  0  0
 37 34  1  0  0  0  0
M  END
>  <MODEL>
2

>  <REMARK>
 VINA RESULT:      -6.9      1.522      2.049
  Name = 
  3 active torsions:
  status: ('A' for Active; 'I' for Inactive)
    1  A    between atoms: P_3  and  O_19
    2  A    between atoms: C_11  and  C_33
    3  A    between atoms: O_19  and  C_33
                            x       y       z     vdW  Elec       q    Type
                         _______ _______ _______ _____ _____    ______ ____

>  <TORSDO>
F 3

$$$$
=
 OpenBabel11052411023D

 37 44  0  0  1  0  0  0  0  0999 V2000
  159.5940  213.3470  142.4660 N   0  0  2  0  0  0  0  0  0  0  0  0
  160.2550  213.8540  140.4550 C   0  0  2  0  0  3  0  0  0  0  0  0
  158.2100  212.7100  140.4570 C   0  0  2  0  0  3  0  0  0  0  0  0
  156.9880  213.4890  139.9030 C   0  0  1  0  0  0  0  0  0  0  0  0
  156.4100  214.4530  140.9290 C   0  0  0  0  0  1  0  0  0  0  0  0
  160.1100  210.4820  137.1670 C   0  0  0  0  0  0  0  0  0  0  0  0
  162.5950  213.0920  140.3960 S   0  0  0  0  0  0  0  0  0  0  0  0
  161.5630  208.1620  137.7570 C   0  0  0  0  0  0  0  0  0  0  0  0
  161.4090  213.9670  143.8240 C   0  0  0  0  0  2  0  0  0  0  0  0
  160.1240  213.9550  144.6770 C   0  0  1  0  0  3  0  0  0  0  0  0
  159.1580  213.5960  141.2160 C   0  0  1  0  0  3  0  0  0  0  0  0
  157.6960  213.2620  137.5390 C   0  0  2  0  0  3  0  0  0  0  0  0
  162.2670  207.0390  138.0310 F   0  0  0  0  0  0  0  0  0  0  0  0
  162.3020  212.1560  137.4730 S   0  0  0  0  0  0  0  0  0  0  0  0
  159.3460  211.6810  137.0120 N   0  0  0  0  0  2  0  0  0  0  0  0
  160.1970  208.0790  137.4700 C   0  0  0  0  0  3  0  0  0  0  0  0
  161.4770  210.5670  137.4750 C   0  0  0  0  0  0  0  0  0  0  0  0
  159.1290  212.2040  139.2950 C   0  0  1  0  0  3  0  0  0  0  0  0
  154.4240  213.7620  138.1480 O   0  0  0  0  0  1  0  0  0  0  0  0
  159.4680  209.2380  137.1880 C   0  0  0  0  0  3  0  0  0  0  0  0
  155.2690  212.6510  138.1450 C   0  0  2  0  0  3  0  0  0  0  0  0
  158.4250  212.0620  138.0020 N   0  0  1  0  0  0  0  0  0  0  0  0
  160.3290  213.1300  139.2870 C   0  0  2  0  0  3  0  0  0  0  0  0
  158.9550  213.6350  143.7270 C   0  0  0  0  0  2  0  0  0  0  0  0
  157.4480  214.2750  138.6670 C   0  0  0  0  0  2  0  0  0  0  0  0
  162.2010  209.4070  137.7650 C   0  0  0  0  0  3  0  0  0  0  0  0
  155.8860  212.4640  139.5460 C   0  0  0  0  0  2  0  0  0  0  0  0
  161.3810  213.8950  141.2460 C   0  0  2  0  0  3  0  0  0  0  0  0
  160.9110  213.5430  142.5000 C   0  0  2  0  0  3  0  0  0  0  0  0
  161.6370  212.6940  139.0540 C   0  0  2  0  0  3  0  0  0  0  0  0
  156.3250  212.8030  137.0290 C   0  0  0  0  0  2  0  0  0  0  0  0
  160.2160  212.8750  145.7400 C   0  0  0  0  0  2  0  0  0  0  0  0
  161.5550  212.5760  146.0000 O   0  0  0  0  0  0  0  0  0  0  0  0
  161.7550  212.8050  147.6680 P   0  0  0  0  0  0  0  0  0  0  0  0
  162.8730  213.7940  147.9200 O   0  0  0  0  0  0  0  0  0  0  0  0
  160.3190  213.3850  148.3500 O   0  0  0  0  0  1  0  0  0  0  0  0
  162.1510  211.3260  148.3830 O   0  0  0  0  0  1  0  0  0  0  0  0
  1 29  1  0  0  0  0
  1 24  1  1  0  0  0
  2 11  1  0  0  0  0
  2 28  1  0  0  0  0
  3 11  1  0  0  0  0
  4  3  1  0  0  0  0
  4  5  1  0  0  0  0
  6 20  2  0  0  0  0
  6 17  1  0  0  0  0
  7 28  1  0  0  0  0
  8 26  1  0  0  0  0
  8 13  1  0  0  0  0
  9 10  1  0  0  0  0
 10 32  1  0  0  0  0
 11  1  1  0  0  0  0
 12 22  1  0  0  0  0
 12 25  1  0  0  0  0
 14 17  1  0  0  0  0
 14 30  1  0  0  0  0
 15  6  1  0  0  0  0
 15 22  1  0  0  0  0
 16  8  2  0  0  0  0
 17 26  2  0  0  0  0
 18  3  1  0  0  0  0
 20 16  1  0  0  0  0
 21 19  1  0  0  0  0
 21 27  1  0  0  0  0
 22 18  1  0  0  0  0
 23 18  1  0  0  0  0
 23  2  1  0  0  0  0
 24 10  1  0  0  0  0
 25  4  1  0  0  0  0
 27  4  1  0  0  0  0
 28 29  1  0  0  0  0
 29  9  1  0  0  0  0
 30 23  1  0  0  0  0
 30  7  1  0  0  0  0
 31 12  1  0  0  0  0
 31 21  1  0  0  0  0
 32 33  1  0  0  0  0
 33 34  1  0  0  0  0
 34 35  2  0  0  0  0
 34 36  1  0  0  0  0
 34 37  1  0  0  0  0
M  END
>  <MODEL>
3

>  <REMARK>
 VINA RESULT:      -5.3      9.636     12.893
  Name = 
  3 active torsions:
  status: ('A' for Active; 'I' for Inactive)
    1  A    between atoms: P_3  and  O_19
    2  A    between atoms: C_11  and  C_33
    3  A    between atoms: O_19  and  C_33
                            x       y       z     vdW  Elec       q    Type
                         _______ _______ _______ _____ _____    ______ ____

>  <TORSDO>
F 3

$$$$
=
 OpenBabel11052411023D

 37 44  0  0  1  0  0  0  0  0999 V2000
  160.2470  209.2940  152.8010 N   0  0  2  0  0  0  0  0  0  0  0  0
  160.7690  211.3900  152.5340 C   0  0  2  0  0  3  0  0  0  0  0  0
  158.5590  211.1090  153.2600 C   0  0  2  0  0  3  0  0  0  0  0  0
  158.2120  211.7070  154.6490 C   0  0  1  0  0  0  0  0  0  0  0  0
  158.6650  210.8070  155.7890 C   0  0  0  0  0  1  0  0  0  0  0  0
  157.7620  214.1270  150.1520 C   0  0  0  0  0  0  0  0  0  0  0  0
  161.7960  211.4590  150.2980 S   0  0  0  0  0  0  0  0  0  0  0  0
  157.1590  213.2770  147.5540 C   0  0  0  0  0  0  0  0  0  0  0  0
  162.1200  208.1410  151.9740 C   0  0  0  0  0  2  0  0  0  0  0  0
  161.3650  207.2280  152.9620 C   0  0  1  0  0  3  0  0  0  0  0  0
  159.9490  210.5420  153.2110 C   0  0  1  0  0  3  0  0  0  0  0  0
  158.1850  214.0450  153.8280 C   0  0  2  0  0  3  0  0  0  0  0  0
  156.8660  212.8770  146.2940 F   0  0  0  0  0  0  0  0  0  0  0  0
  160.4980  214.1900  149.6970 S   0  0  0  0  0  0  0  0  0  0  0  0
  158.0870  214.4180  151.5140 N   0  0  0  0  0  2  0  0  0  0  0  0
  156.1320  213.4750  148.4810 C   0  0  0  0  0  3  0  0  0  0  0  0
  158.7940  213.9080  149.2270 C   0  0  0  0  0  0  0  0  0  0  0  0
  158.6480  212.2300  152.1710 C   0  0  1  0  0  3  0  0  0  0  0  0
  156.4180  213.3450  156.6050 O   0  0  0  0  0  1  0  0  0  0  0  0
  156.4330  213.8870  149.7830 C   0  0  0  0  0  3  0  0  0  0  0  0
  156.1880  213.2270  155.2330 C   0  0  2  0  0  3  0  0  0  0  0  0
  157.8810  213.4490  152.5100 N   0  0  1  0  0  0  0  0  0  0  0  0
  160.1280  212.4390  151.9160 C   0  0  2  0  0  3  0  0  0  0  0  0
  160.2050  208.0580  153.5440 C   0  0  0  0  0  2  0  0  0  0  0  0
  158.9110  213.0690  154.7660 C   0  0  0  0  0  2  0  0  0  0  0  0
  158.4900  213.4880  147.9290 C   0  0  0  0  0  3  0  0  0  0  0  0
  156.6740  211.8490  154.7410 C   0  0  0  0  0  2  0  0  0  0  0  0
  161.6760  210.6740  151.7850 C   0  0  2  0  0  3  0  0  0  0  0  0
  161.2860  209.3590  151.9700 C   0  0  2  0  0  3  0  0  0  0  0  0
  160.6660  212.6740  150.6470 C   0  0  2  0  0  3  0  0  0  0  0  0
  156.8510  214.4080  154.4910 C   0  0  0  0  0  2  0  0  0  0  0  0
  160.8030  206.0230  152.2310 C   0  0  0  0  0  2  0  0  0  0  0  0
  161.7350  205.5510  151.3040 O   0  0  0  0  0  0  0  0  0  0  0  0
  160.8220  204.8930  150.0360 P   0  0  0  0  0  0  0  0  0  0  0  0
  161.7040  204.0250  149.1650 O   0  0  0  0  0  1  0  0  0  0  0  0
  159.5490  203.9680  150.6580 O   0  0  0  0  0  1  0  0  0  0  0  0
  160.1890  206.1530  149.1030 O   0  0  0  0  0  0  0  0  0  0  0  0
  1 11  1  0  0  0  0
  1 24  1  1  0  0  0
  2 11  1  0  0  0  0
  3  4  1  0  0  0  0
  4 27  1  0  0  0  0
  4 25  1  0  0  0  0
  4  5  1  0  0  0  0
  6 15  1  0  0  0  0
  7 30  1  0  0  0  0
  7 28  1  0  0  0  0
  8 26  2  0  0  0  0
  8 16  1  0  0  0  0
  9 10  1  0  0  0  0
 10 24  1  0  0  0  0
 11  3  1  0  0  0  0
 12 31  1  0  0  0  0
 12 25  1  0  0  0  0
 13  8  1  0  0  0  0
 14 30  1  0  0  0  0
 15 22  1  0  0  0  0
 16 20  2  0  0  0  0
 17 14  1  0  0  0  0
 17  6  2  0  0  0  0
 18 22  1  0  0  0  0
 18  3  1  0  0  0  0
 20  6  1  0  0  0  0
 21 19  1  0  0  0  0
 22 12  1  0  0  0  0
 23 18  1  0  0  0  0
 23  2  1  0  0  0  0
 26 17  1  0  0  0  0
 27 21  1  0  0  0  0
 28 29  1  0  0  0  0
 28  2  1  0  0  0  0
 29  9  1  0  0  0  0
 29  1  1  0  0  0  0
 30 23  1  0  0  0  0
 31 21  1  0  0  0  0
 32 10  1  0  0  0  0
 33 32  1  0  0  0  0
 34 36  1  0  0  0  0
 34 33  1  0  0  0  0
 35 34  1  0  0  0  0
 37 34  2  0  0  0  0
M  END
>  <MODEL>
4

>  <REMARK>
 VINA RESULT:      -5.0      1.040      1.264
  Name = 
  3 active torsions:
  status: ('A' for Active; 'I' for Inactive)
    1  A    between atoms: P_3  and  O_19
    2  A    between atoms: C_11  and  C_33
    3  A    between atoms: O_19  and  C_33
                            x       y       z     vdW  Elec       q    Type
                         _______ _______ _______ _____ _____    ______ ____

>  <TORSDO>
F 3

$$$$
