=
 OpenBabel11052409503D

 26 29  0  0  1  0  0  0  0  0999 V2000
  160.1710  210.4920  152.8130 C   0  0  2  0  0  3  0  0  0  0  0  0
  162.3350  208.9150  150.4630 C   0  0  0  0  0  2  0  0  0  0  0  0
  161.1200  209.4680  152.2910 C   0  0  0  0  0  0  0  0  0  0  0  0
  161.6650  206.5940  150.6530 N   0  0  0  0  0  0  0  0  0  0  0  0
  160.3130  211.5030  151.6850 C   0  0  0  0  0  0  0  0  0  0  0  0
  160.9280  206.0630  153.6570 C   0  0  0  0  0  3  0  0  0  0  0  0
  160.8660  207.3930  153.6000 C   0  0  0  0  0  3  0  0  0  0  0  0
  159.6590  212.5780  151.6370 O   0  0  0  0  0  0  0  0  0  0  0  0
  161.7040  209.8850  151.0950 C   0  0  0  0  0  0  0  0  0  0  0  0
  161.3420  208.1860  152.4720 C   0  0  2  0  0  3  0  0  0  0  0  0
  161.2880  205.4640  151.1690 C   0  0  0  0  0  0  0  0  0  0  0  0
  160.8580  204.4270  150.2940 N   0  0  0  0  0  1  0  0  0  0  0  0
  162.2590  207.7060  151.3780 C   0  0  2  0  0  3  0  0  0  0  0  0
  161.3200  205.1970  152.5800 N   0  0  0  0  0  2  0  0  0  0  0  0
  161.2350  211.1370  150.6420 N   0  0  0  0  0  2  0  0  0  0  0  0
  162.0800  210.6090  156.1680 C   0  0  0  0  0  2  0  0  0  0  0  0
  159.5120  210.9830  155.2510 C   0  0  2  0  0  3  0  0  0  0  0  0
  161.0470  209.6160  156.7230 C   0  0  1  0  0  3  0  0  0  0  0  0
  161.9900  210.7180  154.6460 C   0  0  0  0  0  2  0  0  0  0  0  0
  160.5890  211.1470  154.1530 C   0  0  1  0  0  3  0  0  0  0  0  0
  159.6950  209.6660  155.9970 C   0  0  0  0  0  2  0  0  0  0  0  0
  160.1400  207.2070  157.2610 C   0  0  0  0  0  1  0  0  0  0  0  0
  161.6980  207.9210  156.6650 S   0  0  0  0  0  0  0  0  0  0  0  0
  158.1610  211.0830  154.7230 N   0  0  0  0  0  2  0  0  0  0  0  0
  156.1950  211.4990  156.3040 N   0  0  0  0  0  0  0  0  0  0  0  0
  157.0850  211.3110  155.5890 C   0  0  0  0  0  0  0  0  0  0  0  0
  1  5  1  6  0  0  0
  1 20  1  0  0  0  0
  2  9  1  0  0  0  0
  3 10  1  0  0  0  0
  3  1  1  0  0  0  0
  4 11  2  0  0  0  0
  4 13  1  0  0  0  0
  7  6  2  0  0  0  0
  8  5  2  0  0  0  0
  9  3  2  0  0  0  0
 10  7  1  1  0  0  0
 11 14  1  0  0  0  0
 12 11  1  0  0  0  0
 13  2  1  6  0  0  0
 13 10  1  0  0  0  0
 14  6  1  0  0  0  0
 15  9  1  0  0  0  0
 15  5  1  0  0  0  0
 16 18  1  0  0  0  0
 17 24  1  6  0  0  0
 17 21  1  0  0  0  0
 18 23  1  6  0  0  0
 19 16  1  0  0  0  0
 20 19  1  1  0  0  0
 20 17  1  0  0  0  0
 21 18  1  0  0  0  0
 23 22  1  0  0  0  0
 24 26  1  0  0  0  0
 26 25  3  0  0  0  0
M  END
>  <MODEL>
1

>  <REMARK>
 VINA RESULT:      -6.3      0.000      0.000
  Name = 
  4 active torsions:
  status: ('A' for Active; 'I' for Inactive)
    1  A    between atoms: C_2  and  C_15
    2  A    between atoms: C_4  and  N_12
    3  A    between atoms: S_6  and  C_8
    4  A    between atoms: C_10  and  N_12
                            x       y       z     vdW  Elec       q    Type
                         _______ _______ _______ _____ _____    ______ ____

>  <TORSDO>
F 4

$$$$
=
 OpenBabel11052409503D

 26 29  0  0  1  0  0  0  0  0999 V2000
  160.1530  208.9430  154.3360 C   0  0  2  0  0  3  0  0  0  0  0  0
  159.0060  211.5120  156.5230 C   0  0  0  0  0  2  0  0  0  0  0  0
  159.7370  210.3150  154.7470 C   0  0  0  0  0  0  0  0  0  0  0  0
  157.3270  212.6080  155.1620 N   0  0  0  0  0  0  0  0  0  0  0  0
  160.2020  208.3170  155.7230 C   0  0  0  0  0  0  0  0  0  0  0  0
  158.3290  212.5430  152.1870 C   0  0  0  0  0  3  0  0  0  0  0  0
  159.0790  211.5910  152.7410 C   0  0  0  0  0  3  0  0  0  0  0  0
  160.4800  207.1050  155.9210 O   0  0  0  0  0  0  0  0  0  0  0  0
  159.6220  210.4130  156.1330 C   0  0  0  0  0  0  0  0  0  0  0  0
  159.1750  211.3570  154.1770 C   0  0  2  0  0  3  0  0  0  0  0  0
  156.7260  213.1200  154.1310 C   0  0  0  0  0  0  0  0  0  0  0  0
  155.3540  213.4790  154.2530 N   0  0  0  0  0  1  0  0  0  0  0  0
  158.7480  212.3130  155.2590 C   0  0  2  0  0  3  0  0  0  0  0  0
  157.3900  213.3790  152.8840 N   0  0  0  0  0  2  0  0  0  0  0  0
  159.8760  209.2020  156.8100 N   0  0  0  0  0  2  0  0  0  0  0  0
  163.0020  210.2210  152.0640 C   0  0  0  0  0  2  0  0  0  0  0  0
  161.5670  207.9040  152.4560 C   0  0  2  0  0  3  0  0  0  0  0  0
  162.1620  209.7720  150.8580 C   0  0  1  0  0  3  0  0  0  0  0  0
  162.1740  210.2300  153.3500 C   0  0  0  0  0  2  0  0  0  0  0  0
  161.5510  208.8540  153.6770 C   0  0  1  0  0  3  0  0  0  0  0  0
  161.1680  208.6480  151.1860 C   0  0  0  0  0  2  0  0  0  0  0  0
  162.1780  211.0930  148.5840 C   0  0  0  0  0  1  0  0  0  0  0  0
  161.2630  211.1820  150.1490 S   0  0  0  0  0  0  0  0  0  0  0  0
  160.7200  206.7390  152.6470 N   0  0  0  0  0  2  0  0  0  0  0  0
  161.5600  204.4200  151.9720 N   0  0  0  0  0  0  0  0  0  0  0  0
  161.1790  205.4700  152.2780 C   0  0  0  0  0  0  0  0  0  0  0  0
  1  3  1  1  0  0  0
  1  5  1  0  0  0  0
  3  9  2  0  0  0  0
  4 13  1  0  0  0  0
  5  8  2  0  0  0  0
  5 15  1  0  0  0  0
  6  7  2  0  0  0  0
  6 14  1  0  0  0  0
  9  2  1  0  0  0  0
  9 15  1  0  0  0  0
 10  7  1  6  0  0  0
 10  3  1  0  0  0  0
 10 13  1  0  0  0  0
 11 12  1  0  0  0  0
 11  4  2  0  0  0  0
 13  2  1  1  0  0  0
 14 11  1  0  0  0  0
 16 19  1  0  0  0  0
 17 24  1  1  0  0  0
 17 20  1  0  0  0  0
 18 23  1  1  0  0  0
 18 21  1  0  0  0  0
 18 16  1  0  0  0  0
 20 19  1  6  0  0  0
 20  1  1  0  0  0  0
 21 17  1  0  0  0  0
 22 23  1  0  0  0  0
 25 26  3  0  0  0  0
 26 24  1  0  0  0  0
M  END
>  <MODEL>
2

>  <REMARK>
 VINA RESULT:      -4.1      2.648      6.727
  Name = 
  4 active torsions:
  status: ('A' for Active; 'I' for Inactive)
    1  A    between atoms: C_2  and  C_15
    2  A    between atoms: C_4  and  N_12
    3  A    between atoms: S_6  and  C_8
    4  A    between atoms: C_10  and  N_12
                            x       y       z     vdW  Elec       q    Type
                         _______ _______ _______ _____ _____    ______ ____

>  <TORSDO>
F 4

$$$$
=
 OpenBabel11052409503D

 26 29  0  0  1  0  0  0  0  0999 V2000
  160.8350  208.2610  152.4250 C   0  0  2  0  0  3  0  0  0  0  0  0
  159.9750  209.4160  155.6840 C   0  0  0  0  0  2  0  0  0  0  0  0
  160.4540  209.2440  153.4790 C   0  0  0  0  0  0  0  0  0  0  0  0
  158.0800  210.8520  155.2170 N   0  0  0  0  0  0  0  0  0  0  0  0
  161.1130  207.0750  153.3390 C   0  0  0  0  0  0  0  0  0  0  0  0
  158.6120  212.2560  152.4600 C   0  0  0  0  0  3  0  0  0  0  0  0
  159.4620  211.2320  152.4040 C   0  0  0  0  0  3  0  0  0  0  0  0
  161.4480  205.9400  152.9090 O   0  0  0  0  0  0  0  0  0  0  0  0
  160.5510  208.6830  154.7520 C   0  0  0  0  0  0  0  0  0  0  0  0
  159.7850  210.3740  153.5390 C   0  0  2  0  0  3  0  0  0  0  0  0
  157.3140  211.7220  154.6300 C   0  0  0  0  0  0  0  0  0  0  0  0
  155.9690  211.8530  155.0750 N   0  0  0  0  0  1  0  0  0  0  0  0
  159.5060  210.6800  154.9870 C   0  0  2  0  0  3  0  0  0  0  0  0
  157.7710  212.5860  153.5780 N   0  0  0  0  0  2  0  0  0  0  0  0
  160.9370  207.3260  154.7440 N   0  0  0  0  0  2  0  0  0  0  0  0
  163.1730  210.6680  150.5130 C   0  0  0  0  0  2  0  0  0  0  0  0
  162.0290  208.1900  150.1490 C   0  0  2  0  0  3  0  0  0  0  0  0
  162.2000  210.5750  149.3260 C   0  0  1  0  0  3  0  0  0  0  0  0
  162.5560  210.0910  151.7870 C   0  0  0  0  0  2  0  0  0  0  0  0
  162.1170  208.6170  151.6330 C   0  0  1  0  0  3  0  0  0  0  0  0
  161.3730  209.2810  149.3090 C   0  0  0  0  0  2  0  0  0  0  0  0
  161.2550  212.2350  147.5190 C   0  0  0  0  0  1  0  0  0  0  0  0
  161.0780  212.0050  149.3100 S   0  0  0  0  0  0  0  0  0  0  0  0
  161.3300  206.9280  149.9740 N   0  0  0  0  0  2  0  0  0  0  0  0
  160.5030  206.2310  147.6560 N   0  0  0  0  0  0  0  0  0  0  0  0
  160.8770  206.5470  148.7050 C   0  0  0  0  0  0  0  0  0  0  0  0
  1  5  1  1  0  0  0
  1  3  1  0  0  0  0
  3 10  1  0  0  0  0
  3  9  2  0  0  0  0
  5 15  1  0  0  0  0
  6 14  1  0  0  0  0
  7  6  2  0  0  0  0
  8  5  2  0  0  0  0
  9  2  1  0  0  0  0
 10  7  1  1  0  0  0
 10 13  1  0  0  0  0
 11 12  1  0  0  0  0
 11  4  2  0  0  0  0
 13  4  1  0  0  0  0
 13  2  1  1  0  0  0
 14 11  1  0  0  0  0
 15  9  1  0  0  0  0
 16 19  1  0  0  0  0
 17 24  1  1  0  0  0
 17 20  1  0  0  0  0
 18 23  1  1  0  0  0
 18 16  1  0  0  0  0
 20 19  1  6  0  0  0
 20  1  1  0  0  0  0
 21 18  1  0  0  0  0
 21 17  1  0  0  0  0
 22 23  1  0  0  0  0
 25 26  3  0  0  0  0
 26 24  1  0  0  0  0
M  END
>  <MODEL>
3

>  <REMARK>
 VINA RESULT:      -4.0      2.755      6.793
  Name = 
  4 active torsions:
  status: ('A' for Active; 'I' for Inactive)
    1  A    between atoms: C_2  and  C_15
    2  A    between atoms: C_4  and  N_12
    3  A    between atoms: S_6  and  C_8
    4  A    between atoms: C_10  and  N_12
                            x       y       z     vdW  Elec       q    Type
                         _______ _______ _______ _____ _____    ______ ____

>  <TORSDO>
F 4

$$$$
=
 OpenBabel11052409503D

 26 29  0  0  1  0  0  0  0  0999 V2000
  160.9910  203.8980  148.5840 C   0  0  2  0  0  3  0  0  0  0  0  0
  161.6610  204.7700  151.9730 C   0  0  0  0  0  2  0  0  0  0  0  0
  161.5150  204.7150  149.7150 C   0  0  0  0  0  0  0  0  0  0  0  0
  161.0560  207.1160  152.0100 N   0  0  0  0  0  0  0  0  0  0  0  0
  160.6160  202.6560  149.3810 C   0  0  0  0  0  0  0  0  0  0  0  0
  161.8450  208.3430  149.2300 C   0  0  0  0  0  3  0  0  0  0  0  0
  161.8290  207.0400  148.9500 C   0  0  0  0  0  3  0  0  0  0  0  0
  160.0750  201.6450  148.8640 O   0  0  0  0  0  0  0  0  0  0  0  0
  161.4640  204.0080  150.9150 C   0  0  0  0  0  0  0  0  0  0  0  0
  161.7350  205.9880  149.9560 C   0  0  2  0  0  3  0  0  0  0  0  0
  160.9210  208.3550  151.6440 C   0  0  0  0  0  0  0  0  0  0  0  0
  160.0710  209.2020  152.4090 N   0  0  0  0  0  1  0  0  0  0  0  0
  161.9800  206.1530  151.4330 C   0  0  2  0  0  3  0  0  0  0  0  0
  161.6220  208.9230  150.5260 N   0  0  0  0  0  2  0  0  0  0  0  0
  160.8960  202.7220  150.7910 N   0  0  0  0  0  2  0  0  0  0  0  0
  163.3070  204.6640  145.5910 C   0  0  0  0  0  2  0  0  0  0  0  0
  161.4060  202.8020  146.2940 C   0  0  2  0  0  3  0  0  0  0  0  0
  162.0580  204.6500  144.6950 C   0  0  1  0  0  3  0  0  0  0  0  0
  162.9330  204.7100  147.0720 C   0  0  0  0  0  2  0  0  0  0  0  0
  162.0390  203.5260  147.5060 C   0  0  1  0  0  3  0  0  0  0  0  0
  160.9060  203.8080  145.2630 C   0  0  0  0  0  2  0  0  0  0  0  0
  160.0220  206.1280  145.4610 C   0  0  0  0  0  1  0  0  0  0  0  0
  161.4730  206.3430  144.3920 S   0  0  0  0  0  0  0  0  0  0  0  0
  160.3340  201.9010  146.6830 N   0  0  0  0  0  2  0  0  0  0  0  0
  159.3460  200.2730  144.9760 N   0  0  0  0  0  0  0  0  0  0  0  0
  159.7930  201.0100  145.7490 C   0  0  0  0  0  0  0  0  0  0  0  0
  1  5  1  1  0  0  0
  1  3  1  0  0  0  0
  3 10  1  0  0  0  0
  3  9  2  0  0  0  0
  5 15  1  0  0  0  0
  6 14  1  0  0  0  0
  7  6  2  0  0  0  0
  8  5  2  0  0  0  0
  9  2  1  0  0  0  0
 10  7  1  6  0  0  0
 10 13  1  0  0  0  0
 11  4  2  0  0  0  0
 11 12  1  0  0  0  0
 13  2  1  1  0  0  0
 13  4  1  0  0  0  0
 14 11  1  0  0  0  0
 15  9  1  0  0  0  0
 16 19  1  0  0  0  0
 17 24  1  1  0  0  0
 17 20  1  0  0  0  0
 18 23  1  1  0  0  0
 18 21  1  0  0  0  0
 18 16  1  0  0  0  0
 20 19  1  6  0  0  0
 20  1  1  0  0  0  0
 21 17  1  0  0  0  0
 23 22  1  0  0  0  0
 25 26  3  0  0  0  0
 26 24  1  0  0  0  0
M  END
>  <MODEL>
4

>  <REMARK>
 VINA RESULT:      -4.0      5.105      9.382
  Name = 
  4 active torsions:
  status: ('A' for Active; 'I' for Inactive)
    1  A    between atoms: C_2  and  C_15
    2  A    between atoms: C_4  and  N_12
    3  A    between atoms: S_6  and  C_8
    4  A    between atoms: C_10  and  N_12
                            x       y       z     vdW  Elec       q    Type
                         _______ _______ _______ _____ _____    ______ ____

>  <TORSDO>
F 4

$$$$
=
 OpenBabel11052409503D

 26 29  0  0  1  0  0  0  0  0999 V2000
  160.8490  206.5240  151.9750 C   0  0  2  0  0  3  0  0  0  0  0  0
  161.1330  207.6660  155.3380 C   0  0  0  0  0  2  0  0  0  0  0  0
  161.0220  207.5060  153.0830 C   0  0  0  0  0  0  0  0  0  0  0  0
  159.6800  209.6050  155.3270 N   0  0  0  0  0  0  0  0  0  0  0  0
  160.9740  205.2520  152.8030 C   0  0  0  0  0  0  0  0  0  0  0  0
  159.9480  210.9740  152.5150 C   0  0  0  0  0  3  0  0  0  0  0  0
  160.4290  209.7560  152.2640 C   0  0  0  0  0  3  0  0  0  0  0  0
  160.8590  204.0990  152.3120 O   0  0  0  0  0  0  0  0  0  0  0  0
  161.2420  206.8610  154.2990 C   0  0  0  0  0  0  0  0  0  0  0  0
  160.7410  208.7720  153.2940 C   0  0  2  0  0  3  0  0  0  0  0  0
  159.0860  210.6910  154.9340 C   0  0  0  0  0  0  0  0  0  0  0  0
  157.9760  211.1680  155.6870 N   0  0  0  0  0  1  0  0  0  0  0  0
  160.9030  209.0530  154.7650 C   0  0  2  0  0  3  0  0  0  0  0  0
  159.5190  211.4560  153.7980 N   0  0  0  0  0  2  0  0  0  0  0  0
  161.2060  205.4530  154.2080 N   0  0  0  0  0  2  0  0  0  0  0  0
  163.1650  208.2760  149.4290 C   0  0  0  0  0  2  0  0  0  0  0  0
  161.4420  206.1300  149.5030 C   0  0  2  0  0  3  0  0  0  0  0  0
  161.9500  208.3920  148.4930 C   0  0  1  0  0  3  0  0  0  0  0  0
  162.7440  207.8850  150.8450 C   0  0  0  0  0  2  0  0  0  0  0  0
  161.9620  206.5530  150.8970 C   0  0  1  0  0  3  0  0  0  0  0  0
  160.8730  207.3280  148.7510 C   0  0  0  0  0  2  0  0  0  0  0  0
  162.8230  210.8680  148.6360 C   0  0  0  0  0  1  0  0  0  0  0  0
  161.2060  210.0440  148.6190 S   0  0  0  0  0  0  0  0  0  0  0  0
  160.4560  205.0650  149.5770 N   0  0  0  0  0  2  0  0  0  0  0  0
  160.9950  202.7520  148.6260 N   0  0  0  0  0  0  0  0  0  0  0  0
  160.7510  203.7990  149.0570 C   0  0  0  0  0  0  0  0  0  0  0  0
  1  5  1  1  0  0  0
  1  3  1  0  0  0  0
  3 10  1  0  0  0  0
  3  9  2  0  0  0  0
  5 15  1  0  0  0  0
  6 14  1  0  0  0  0
  7  6  2  0  0  0  0
  8  5  2  0  0  0  0
  9  2  1  0  0  0  0
 10  7  1  6  0  0  0
 10 13  1  0  0  0  0
 11  4  2  0  0  0  0
 11 12  1  0  0  0  0
 13  4  1  0  0  0  0
 13  2  1  1  0  0  0
 14 11  1  0  0  0  0
 15  9  1  0  0  0  0
 16 19  1  0  0  0  0
 17 24  1  1  0  0  0
 17 20  1  0  0  0  0
 18 23  1  1  0  0  0
 18 21  1  0  0  0  0
 18 16  1  0  0  0  0
 20 19  1  6  0  0  0
 20  1  1  0  0  0  0
 21 17  1  0  0  0  0
 23 22  1  0  0  0  0
 25 26  3  0  0  0  0
 26 24  1  0  0  0  0
M  END
>  <MODEL>
5

>  <REMARK>
 VINA RESULT:      -3.7      2.845      7.037
  Name = 
  4 active torsions:
  status: ('A' for Active; 'I' for Inactive)
    1  A    between atoms: C_2  and  C_15
    2  A    between atoms: C_4  and  N_12
    3  A    between atoms: S_6  and  C_8
    4  A    between atoms: C_10  and  N_12
                            x       y       z     vdW  Elec       q    Type
                         _______ _______ _______ _____ _____    ______ ____

>  <TORSDO>
F 4

$$$$
