=
 OpenBabel11052411133D

 60 63  0  0  1  0  0  0  0  0999 V2000
  160.6320  210.5120  150.6450 N   0  0  0  0  0  2  0  0  0  0  0  0
  161.6370  211.1440  149.8230 C   0  0  0  0  0  0  0  0  0  0  0  0
  162.7360  210.5470  149.4560 N   0  0  0  0  0  0  0  0  0  0  0  0
  161.4520  212.5000  149.4200 N   0  0  0  0  0  2  0  0  0  0  0  0
  161.8640  208.3840  147.9300 O   0  0  0  0  0  0  0  0  0  0  0  0
  162.9260  206.8420  149.2400 O   0  0  0  0  0  1  0  0  0  0  0  0
  162.5790  208.1480  148.9370 C   0  0  0  0  0  0  0  0  0  0  0  0
  163.0420  209.2150  149.7610 N   0  0  0  0  0  2  0  0  0  0  0  0
  160.6830  209.1490  151.1400 C   0  0  0  0  0  2  0  0  0  0  0  0
  160.7650  209.1300  152.6440 C   0  0  0  0  0  2  0  0  0  0  0  0
  160.4640  210.5110  153.2050 C   0  0  0  0  0  2  0  0  0  0  0  0
  162.6620  210.6800  154.1230 F   0  0  0  0  0  0  0  0  0  0  0  0
  161.3220  210.8090  154.4350 C   0  0  0  0  0  0  0  0  0  0  0  0
  161.0780  212.1040  154.8520 F   0  0  0  0  0  0  0  0  0  0  0  0
  159.4640  209.8200  155.8320 C   0  0  0  0  0  1  0  0  0  0  0  0
  160.9710  209.8440  155.5720 C   0  0  1  0  0  3  0  0  0  0  0  0
  161.4330  208.5490  155.2870 O   0  0  0  0  0  0  0  0  0  0  0  0
  160.3680  207.6950  155.5990 C   0  0  0  0  0  2  0  0  0  0  0  0
  160.4770  206.4470  154.7350 C   0  0  0  0  0  2  0  0  0  0  0  0
  161.7250  206.4160  154.0530 O   0  0  0  0  0  0  0  0  0  0  0  0
  161.8320  205.9220  152.7560 C   0  0  0  0  0  0  0  0  0  0  0  0
  162.8910  206.0860  152.0790 O   0  0  0  0  0  0  0  0  0  0  0  0
  160.6570  205.2230  152.1590 C   0  0  0  0  0  2  0  0  0  0  0  0
  162.0480  202.8400  148.7720 O   0  0  0  0  0  1  0  0  0  0  0  0
  161.3920  201.7360  151.4650 C   0  0  0  0  0  2  0  0  0  0  0  0
  161.0760  203.9880  151.3670 C   0  0  1  0  0  3  0  0  0  0  0  0
  160.8080  202.8320  152.1260 O   0  0  0  0  0  0  0  0  0  0  0  0
  161.2250  200.3630  149.5190 O   0  0  0  0  0  1  0  0  0  0  0  0
  160.7400  202.6930  149.2560 C   0  0  2  0  0  3  0  0  0  0  0  0
  160.3170  203.9430  150.0300 C   0  0  2  0  0  3  0  0  0  0  0  0
  160.6480  201.4580  150.1580 C   0  0  2  0  0  3  0  0  0  0  0  0
  160.5790  205.0950  149.2760 O   0  0  0  0  0  0  0  0  0  0  0  0
  160.8510  204.6260  147.9880 C   0  0  0  0  0  2  0  0  0  0  0  0
  160.6640  205.7350  146.9650 C   0  0  0  0  0  2  0  0  0  0  0  0
  160.7300  205.5830  144.3190 C   0  0  0  0  0  1  0  0  0  0  0  0
  161.4280  205.4820  145.6680 C   0  0  1  0  0  0  0  0  0  0  0  0
  162.8900  205.7160  145.6890 C   0  0  0  0  0  2  0  0  0  0  0  0
  162.3410  204.4150  145.7310 O   0  0  0  0  0  0  0  0  0  0  0  0
  160.2590  213.2760  149.7320 C   0  0  1  0  0  3  0  0  0  0  0  0
  158.6590  214.4530  148.4240 O   0  0  0  0  0  0  0  0  0  0  0  0
  159.4850  213.5000  148.4760 C   0  0  0  0  0  0  0  0  0  0  0  0
  159.7090  212.6650  147.3310 N   0  0  0  0  0  2  0  0  0  0  0  0
  158.8820  214.3180  145.9060 O   0  0  0  0  0  1  0  0  0  0  0  0
  159.1840  212.9530  145.9970 C   0  0  1  0  0  0  0  0  0  0  0  0
  159.9750  212.0070  141.3880 C   0  0  0  0  0  1  0  0  0  0  0  0
  161.5020  213.4580  145.0770 C   0  0  0  0  0  2  0  0  0  0  0  0
  160.6140  212.0900  142.7650 C   0  0  2  0  0  3  0  0  0  0  0  0
  159.7120  212.7100  143.6470 O   0  0  0  0  0  0  0  0  0  0  0  0
  161.8970  212.9130  142.6660 C   0  0  0  0  0  2  0  0  0  0  0  0
  162.5340  213.0010  144.0470 C   0  0  0  0  0  2  0  0  0  0  0  0
  160.2440  212.5840  144.9480 C   0  0  2  0  0  3  0  0  0  0  0  0
  157.0380  212.2860  146.4980 O   0  0  0  0  0  0  0  0  0  0  0  0
  157.9860  212.1700  145.7820 N   0  0  0  0  0  0  0  0  0  0  0  0
  159.4520  212.5680  150.7230 N   0  0  0  0  0  2  0  0  0  0  0  0
  158.4900  213.2510  152.8580 C   0  0  0  0  0  3  0  0  0  0  0  0
  157.4800  213.8810  153.5870 C   0  0  0  0  0  3  0  0  0  0  0  0
  158.3900  213.1820  151.4620 C   0  0  0  0  0  0  0  0  0  0  0  0
  157.2960  213.7670  150.8210 C   0  0  0  0  0  3  0  0  0  0  0  0
  156.3090  214.3910  151.5850 C   0  0  0  0  0  3  0  0  0  0  0  0
  156.4220  214.4330  152.9390 N   0  0  0  0  0  0  0  0  0  0  0  0
  1  9  1  0  0  0  0
  2  1  1  0  0  0  0
  3  8  1  0  0  0  0
  3  2  2  0  0  0  0
  4 39  1  0  0  0  0
  4  2  1  0  0  0  0
  5  7  2  0  0  0  0
  7  6  1  0  0  0  0
  7  8  1  0  0  0  0
  9 10  1  0  0  0  0
 10 11  1  0  0  0  0
 11 13  1  0  0  0  0
 12 13  1  0  0  0  0
 13 14  1  0  0  0  0
 13 16  1  0  0  0  0
 16 15  1  6  0  0  0
 17 16  1  0  0  0  0
 17 18  1  0  0  0  0
 19 18  1  0  0  0  0
 20 19  1  0  0  0  0
 21 20  1  0  0  0  0
 22 21  2  0  0  0  0
 23 21  1  0  0  0  0
 25 27  1  0  0  0  0
 26 27  1  0  0  0  0
 26 23  1  1  0  0  0
 29 24  1  1  0  0  0
 29 30  1  0  0  0  0
 29 31  1  0  0  0  0
 30 32  1  6  0  0  0
 30 26  1  0  0  0  0
 31 28  1  6  0  0  0
 31 25  1  0  0  0  0
 33 32  1  0  0  0  0
 34 33  1  0  0  0  0
 36 35  1  6  0  0  0
 36 37  1  0  0  0  0
 36 38  1  0  0  0  0
 36 34  1  0  0  0  0
 37 38  1  0  0  0  0
 39 41  1  6  0  0  0
 39 54  1  0  0  0  0
 40 41  2  0  0  0  0
 42 41  1  0  0  0  0
 44 43  1  6  0  0  0
 44 42  1  0  0  0  0
 47 45  1  6  0  0  0
 47 48  1  0  0  0  0
 48 51  1  0  0  0  0
 49 47  1  0  0  0  0
 49 50  1  0  0  0  0
 50 46  1  0  0  0  0
 51 46  1  0  0  0  0
 51 44  1  1  0  0  0
 53 44  1  0  0  0  0
 53 52  2  0  0  0  0
 54 57  1  0  0  0  0
 55 56  1  0  0  0  0
 57 55  2  0  0  0  0
 58 57  1  0  0  0  0
 58 59  2  0  0  0  0
 59 60  1  0  0  0  0
 60 56  2  0  0  0  0
M  END
>  <MODEL>
1

>  <REMARK>
 VINA RESULT:      -3.8      0.000      0.000
  Name = 
  24 active torsions:
  status: ('A' for Active; 'I' for Inactive)
    1  A    between atoms: O_3  and  C_5
    2  A    between atoms: O_3  and  C_51
    3  A    between atoms: C_5  and  C_55
    4  A    between atoms: N_7  and  C_12
    5  A    between atoms: C_10  and  C_34
    6  A    between atoms: C_10  and  C_50
    7  A    between atoms: C_11  and  C_55
    8  A    between atoms: C_12  and  C_50
    9  A    between atoms: C_15  and  O_45
   10  A    between atoms: C_15  and  C_51
   11  A    between atoms: C_16  and  C_31
   12  A    between atoms: N_17  and  C_27
   13  A    between atoms: C_19  and  C_36
   14  A    between atoms: N_22  and  C_27
   15  A    between atoms: C_26  and  C_34
   16  A    between atoms: C_26  and  O_45
   17  A    between atoms: C_27  and  C_52
   18  A    between atoms: C_31  and  C_38
   19  A    between atoms: C_33  and  N_56
   20  A    between atoms: N_35  and  N_59
   21  A    between atoms: C_36  and  N_56
   22  A    between atoms: C_36  and  N_58
   23  A    between atoms: C_38  and  O_48
   24  A    between atoms: O_48  and  C_49
                            x       y       z     vdW  Elec       q    Type
                         _______ _______ _______ _____ _____    ______ ____

>  <TORSDO>
F 24

$$$$
=
 OpenBabel11052411133D

 60 63  0  0  1  0  0  0  0  0999 V2000
  160.4160  212.6280  151.2220 N   0  0  0  0  0  2  0  0  0  0  0  0
  159.8290  212.7580  149.9090 C   0  0  0  0  0  0  0  0  0  0  0  0
  158.6090  213.1730  149.7110 N   0  0  0  0  0  0  0  0  0  0  0  0
  160.5930  212.3770  148.7660 N   0  0  0  0  0  2  0  0  0  0  0  0
  155.9190  213.7790  149.3070 O   0  0  0  0  0  0  0  0  0  0  0  0
  155.5440  214.2620  151.5080 O   0  0  0  0  0  1  0  0  0  0  0  0
  156.3800  213.8810  150.4720 C   0  0  0  0  0  0  0  0  0  0  0  0
  157.7520  213.5960  150.7340 N   0  0  0  0  0  2  0  0  0  0  0  0
  159.7640  212.9630  152.4730 C   0  0  0  0  0  2  0  0  0  0  0  0
  159.8670  211.8220  153.4510 C   0  0  0  0  0  2  0  0  0  0  0  0
  159.7650  212.3400  154.8770 C   0  0  0  0  0  2  0  0  0  0  0  0
  160.7720  211.7590  156.9630 F   0  0  0  0  0  0  0  0  0  0  0  0
  160.0700  211.2380  155.8910 C   0  0  0  0  0  0  0  0  0  0  0  0
  158.8810  210.7030  156.3470 F   0  0  0  0  0  0  0  0  0  0  0  0
  162.1290  209.7870  156.0760 C   0  0  0  0  0  1  0  0  0  0  0  0
  160.8990  210.1290  155.2350 C   0  0  1  0  0  3  0  0  0  0  0  0
  160.1190  208.9800  155.0280 O   0  0  0  0  0  0  0  0  0  0  0  0
  160.8940  208.1440  154.2150 C   0  0  0  0  0  2  0  0  0  0  0  0
  160.4580  206.7040  154.4440 C   0  0  0  0  0  2  0  0  0  0  0  0
  161.4150  205.7980  153.9090 O   0  0  0  0  0  0  0  0  0  0  0  0
  161.9250  205.9550  152.6240 C   0  0  0  0  0  0  0  0  0  0  0  0
  163.0510  206.5040  152.4300 O   0  0  0  0  0  0  0  0  0  0  0  0
  161.1010  205.4960  151.4680 C   0  0  0  0  0  2  0  0  0  0  0  0
  161.9580  201.6070  149.6720 O   0  0  0  0  0  1  0  0  0  0  0  0
  160.5760  201.9980  152.2880 C   0  0  0  0  0  2  0  0  0  0  0  0
  161.1350  203.9790  151.3140 C   0  0  1  0  0  3  0  0  0  0  0  0
  160.3570  203.3870  152.3280 O   0  0  0  0  0  0  0  0  0  0  0  0
  160.1800  200.0340  150.9900 O   0  0  0  0  0  1  0  0  0  0  0  0
  160.6360  202.0580  149.7950 C   0  0  2  0  0  3  0  0  0  0  0  0
  160.6050  203.5820  149.9260 C   0  0  2  0  0  3  0  0  0  0  0  0
  159.9690  201.4110  151.0130 C   0  0  2  0  0  3  0  0  0  0  0  0
  161.3760  204.1740  148.9170 O   0  0  0  0  0  0  0  0  0  0  0  0
  161.6450  203.1380  148.0180 C   0  0  0  0  0  2  0  0  0  0  0  0
  160.4520  202.9010  147.1050 C   0  0  0  0  0  2  0  0  0  0  0  0
  161.3240  200.4300  146.6950 C   0  0  0  0  0  1  0  0  0  0  0  0
  160.6340  201.6900  146.1920 C   0  0  1  0  0  0  0  0  0  0  0  0
  159.6680  201.5320  145.0820 C   0  0  0  0  0  2  0  0  0  0  0  0
  160.9800  202.0100  144.8680 O   0  0  0  0  0  0  0  0  0  0  0  0
  161.9760  211.9260  148.8380 C   0  0  1  0  0  3  0  0  0  0  0  0
  161.8980  210.1400  150.4060 O   0  0  0  0  0  0  0  0  0  0  0  0
  161.9950  210.4770  149.1940 C   0  0  0  0  0  0  0  0  0  0  0  0
  162.0820  209.4820  148.1640 N   0  0  0  0  0  2  0  0  0  0  0  0
  160.7130  207.8800  149.1680 O   0  0  0  0  0  1  0  0  0  0  0  0
  161.8660  208.0540  148.3900 C   0  0  1  0  0  0  0  0  0  0  0  0
  163.5820  204.7030  145.4600 C   0  0  0  0  0  1  0  0  0  0  0  0
  160.2270  206.9400  146.7930 C   0  0  0  0  0  2  0  0  0  0  0  0
  162.5300  205.7870  145.6220 C   0  0  2  0  0  3  0  0  0  0  0  0
  162.5180  206.2100  146.9630 O   0  0  0  0  0  0  0  0  0  0  0  0
  161.1670  205.2150  145.2410 C   0  0  0  0  0  2  0  0  0  0  0  0
  160.1120  206.3020  145.4100 C   0  0  0  0  0  2  0  0  0  0  0  0
  161.6890  207.3490  147.0360 C   0  0  2  0  0  3  0  0  0  0  0  0
  163.2150  207.7570  150.2320 O   0  0  0  0  0  0  0  0  0  0  0  0
  163.0130  207.5060  149.0830 N   0  0  0  0  0  0  0  0  0  0  0  0
  162.6410  212.1580  147.5580 N   0  0  0  0  0  2  0  0  0  0  0  0
  160.7310  212.3380  146.0510 C   0  0  0  0  0  3  0  0  0  0  0  0
  160.0830  212.9620  144.9840 C   0  0  0  0  0  3  0  0  0  0  0  0
  162.0040  212.7800  146.4360 C   0  0  0  0  0  0  0  0  0  0  0  0
  162.5920  213.8530  145.7640 C   0  0  0  0  0  3  0  0  0  0  0  0
  161.9100  214.4520  144.7050 C   0  0  0  0  0  3  0  0  0  0  0  0
  160.6820  213.9970  144.3420 N   0  0  0  0  0  0  0  0  0  0  0  0
  1  9  1  0  0  0  0
  2  1  1  0  0  0  0
  3  2  2  0  0  0  0
  3  8  1  0  0  0  0
  4 39  1  0  0  0  0
  4  2  1  0  0  0  0
  5  7  2  0  0  0  0
  7  8  1  0  0  0  0
  7  6  1  0  0  0  0
  9 10  1  0  0  0  0
 10 11  1  0  0  0  0
 11 13  1  0  0  0  0
 13 14  1  0  0  0  0
 13 12  1  0  0  0  0
 16 13  1  0  0  0  0
 16 15  1  1  0  0  0
 17 16  1  0  0  0  0
 18 19  1  0  0  0  0
 18 17  1  0  0  0  0
 20 19  1  0  0  0  0
 21 20  1  0  0  0  0
 22 21  2  0  0  0  0
 23 21  1  0  0  0  0
 25 27  1  0  0  0  0
 26 23  1  1  0  0  0
 26 27  1  0  0  0  0
 29 24  1  1  0  0  0
 29 30  1  0  0  0  0
 29 31  1  0  0  0  0
 30 32  1  6  0  0  0
 30 26  1  0  0  0  0
 31 28  1  6  0  0  0
 31 25  1  0  0  0  0
 33 32  1  0  0  0  0
 34 33  1  0  0  0  0
 36 35  1  1  0  0  0
 36 34  1  0  0  0  0
 37 36  1  0  0  0  0
 38 37  1  0  0  0  0
 38 36  1  0  0  0  0
 39 54  1  6  0  0  0
 39 41  1  0  0  0  0
 41 40  2  0  0  0  0
 42 44  1  0  0  0  0
 42 41  1  0  0  0  0
 44 53  1  0  0  0  0
 44 43  1  1  0  0  0
 46 51  1  0  0  0  0
 47 45  1  1  0  0  0
 47 48  1  0  0  0  0
 48 51  1  0  0  0  0
 49 50  1  0  0  0  0
 49 47  1  0  0  0  0
 50 46  1  0  0  0  0
 51 44  1  1  0  0  0
 53 52  2  0  0  0  0
 55 57  1  0  0  0  0
 56 55  2  0  0  0  0
 57 54  1  0  0  0  0
 58 57  2  0  0  0  0
 59 58  1  0  0  0  0
 60 59  2  0  0  0  0
 60 56  1  0  0  0  0
M  END
>  <MODEL>
2

>  <REMARK>
 VINA RESULT:      -3.0      2.012      5.202
  Name = 
  24 active torsions:
  status: ('A' for Active; 'I' for Inactive)
    1  A    between atoms: O_3  and  C_5
    2  A    between atoms: O_3  and  C_51
    3  A    between atoms: C_5  and  C_55
    4  A    between atoms: N_7  and  C_12
    5  A    between atoms: C_10  and  C_34
    6  A    between atoms: C_10  and  C_50
    7  A    between atoms: C_11  and  C_55
    8  A    between atoms: C_12  and  C_50
    9  A    between atoms: C_15  and  O_45
   10  A    between atoms: C_15  and  C_51
   11  A    between atoms: C_16  and  C_31
   12  A    between atoms: N_17  and  C_27
   13  A    between atoms: C_19  and  C_36
   14  A    between atoms: N_22  and  C_27
   15  A    between atoms: C_26  and  C_34
   16  A    between atoms: C_26  and  O_45
   17  A    between atoms: C_27  and  C_52
   18  A    between atoms: C_31  and  C_38
   19  A    between atoms: C_33  and  N_56
   20  A    between atoms: N_35  and  N_59
   21  A    between atoms: C_36  and  N_56
   22  A    between atoms: C_36  and  N_58
   23  A    between atoms: C_38  and  O_48
   24  A    between atoms: O_48  and  C_49
                            x       y       z     vdW  Elec       q    Type
                         _______ _______ _______ _____ _____    ______ ____

>  <TORSDO>
F 24

$$$$
=
 OpenBabel11052411133D

 60 63  0  0  1  0  0  0  0  0999 V2000
  159.6080  210.7110  152.3110 N   0  0  0  0  0  2  0  0  0  0  0  0
  159.9780  212.0760  152.0180 C   0  0  0  0  0  0  0  0  0  0  0  0
  161.0570  212.3970  151.3620 N   0  0  0  0  0  0  0  0  0  0  0  0
  159.1550  213.1370  152.5010 N   0  0  0  0  0  2  0  0  0  0  0  0
  161.7970  212.3770  148.6750 O   0  0  0  0  0  0  0  0  0  0  0  0
  163.2080  210.5980  148.9240 O   0  0  0  0  0  1  0  0  0  0  0  0
  162.2980  211.5100  149.4340 C   0  0  0  0  0  0  0  0  0  0  0  0
  161.9460  211.4640  150.8140 N   0  0  0  0  0  2  0  0  0  0  0  0
  160.3460  209.5320  151.8980 C   0  0  0  0  0  2  0  0  0  0  0  0
  161.0400  208.8980  153.0750 C   0  0  0  0  0  2  0  0  0  0  0  0
  160.3950  207.5630  153.4110 C   0  0  0  0  0  2  0  0  0  0  0  0
  162.6920  206.9390  153.2120 F   0  0  0  0  0  0  0  0  0  0  0  0
  161.4170  206.4270  153.3710 C   0  0  0  0  0  0  0  0  0  0  0  0
  161.3570  205.7240  154.5580 F   0  0  0  0  0  0  0  0  0  0  0  0
  162.3910  204.9310  151.5840 C   0  0  0  0  0  1  0  0  0  0  0  0
  161.1070  205.4760  152.2100 C   0  0  1  0  0  3  0  0  0  0  0  0
  160.2910  204.4160  152.6380 O   0  0  0  0  0  0  0  0  0  0  0  0
  160.9110  203.2520  152.1670 C   0  0  0  0  0  2  0  0  0  0  0  0
  161.3520  203.4860  150.7300 C   0  0  0  0  0  2  0  0  0  0  0  0
  160.5020  202.7920  149.8250 O   0  0  0  0  0  0  0  0  0  0  0  0
  160.6840  201.4400  149.5490 C   0  0  0  0  0  0  0  0  0  0  0  0
  160.0060  200.5530  150.1490 O   0  0  0  0  0  0  0  0  0  0  0  0
  161.7250  201.0470  148.5550 C   0  0  0  0  0  2  0  0  0  0  0  0
  161.6600  203.5380  144.9680 O   0  0  0  0  0  1  0  0  0  0  0  0
  160.1880  200.9600  145.2660 C   0  0  0  0  0  2  0  0  0  0  0  0
  161.3590  201.4960  147.1440 C   0  0  1  0  0  3  0  0  0  0  0  0
  160.3530  200.6550  146.6300 O   0  0  0  0  0  0  0  0  0  0  0  0
  159.4000  202.6370  143.7610 O   0  0  0  0  0  1  0  0  0  0  0  0
  160.5050  203.3870  145.7490 C   0  0  2  0  0  3  0  0  0  0  0  0
  160.8780  202.9570  147.1690 C   0  0  2  0  0  3  0  0  0  0  0  0
  159.5710  202.3510  145.1140 C   0  0  2  0  0  3  0  0  0  0  0  0
  161.8760  203.7950  147.6850 O   0  0  0  0  0  0  0  0  0  0  0  0
  161.4090  205.0920  147.4550 C   0  0  0  0  0  2  0  0  0  0  0  0
  162.5550  206.0890  147.5080 C   0  0  0  0  0  2  0  0  0  0  0  0
  163.1790  207.8600  149.3800 C   0  0  0  0  0  1  0  0  0  0  0  0
  162.2200  207.3380  148.3190 C   0  0  1  0  0  0  0  0  0  0  0  0
  161.3030  208.3200  147.6990 C   0  0  0  0  0  2  0  0  0  0  0  0
  160.8730  207.4320  148.7090 O   0  0  0  0  0  0  0  0  0  0  0  0
  157.9070  212.9220  153.2210 C   0  0  1  0  0  3  0  0  0  0  0  0
  157.3730  213.5800  155.4430 O   0  0  0  0  0  0  0  0  0  0  0  0
  158.1790  212.9720  154.6880 C   0  0  0  0  0  0  0  0  0  0  0  0
  159.3250  212.3010  155.2320 N   0  0  0  0  0  2  0  0  0  0  0  0
  158.3380  211.6890  157.2560 O   0  0  0  0  0  1  0  0  0  0  0  0
  159.5420  212.0900  156.6630 C   0  0  1  0  0  0  0  0  0  0  0  0
  160.3000  207.4180  157.2610 C   0  0  0  0  0  1  0  0  0  0  0  0
  161.7660  211.1490  155.8590 C   0  0  0  0  0  2  0  0  0  0  0  0
  160.9650  208.7820  157.1850 C   0  0  2  0  0  3  0  0  0  0  0  0
  160.0260  209.7190  156.7170 O   0  0  0  0  0  0  0  0  0  0  0  0
  162.1490  208.7030  156.2230 C   0  0  0  0  0  2  0  0  0  0  0  0
  162.8110  210.0730  156.1430 C   0  0  0  0  0  2  0  0  0  0  0  0
  160.6060  210.9980  156.8550 C   0  0  2  0  0  3  0  0  0  0  0  0
  160.2080  214.2920  156.5880 O   0  0  0  0  0  0  0  0  0  0  0  0
  159.9950  213.3280  157.2590 N   0  0  0  0  0  0  0  0  0  0  0  0
  156.9310  213.9380  152.8370 N   0  0  0  0  0  2  0  0  0  0  0  0
  157.2050  213.9930  150.4140 C   0  0  0  0  0  3  0  0  0  0  0  0
  156.6550  214.0410  149.1310 C   0  0  0  0  0  3  0  0  0  0  0  0
  156.3560  214.0290  151.5280 C   0  0  0  0  0  0  0  0  0  0  0  0
  154.9740  214.0870  151.3380 C   0  0  0  0  0  3  0  0  0  0  0  0
  154.4640  214.1310  150.0410 C   0  0  0  0  0  3  0  0  0  0  0  0
  155.3080  214.1080  148.9760 N   0  0  0  0  0  0  0  0  0  0  0  0
  2  1  1  0  0  0  0
  2  4  1  0  0  0  0
  3  2  2  0  0  0  0
  5  7  2  0  0  0  0
  6  7  1  0  0  0  0
  7  8  1  0  0  0  0
  8  3  1  0  0  0  0
  9  1  1  0  0  0  0
  9 10  1  0  0  0  0
 10 11  1  0  0  0  0
 12 13  1  0  0  0  0
 13 11  1  0  0  0  0
 13 14  1  0  0  0  0
 16 15  1  1  0  0  0
 16 17  1  0  0  0  0
 16 13  1  0  0  0  0
 18 17  1  0  0  0  0
 19 18  1  0  0  0  0
 20 19  1  0  0  0  0
 21 20  1  0  0  0  0
 21 22  2  0  0  0  0
 23 21  1  0  0  0  0
 25 27  1  0  0  0  0
 26 30  1  0  0  0  0
 26 23  1  1  0  0  0
 27 26  1  0  0  0  0
 29 24  1  6  0  0  0
 29 30  1  0  0  0  0
 30 32  1  6  0  0  0
 31 28  1  6  0  0  0
 31 25  1  0  0  0  0
 31 29  1  0  0  0  0
 33 34  1  0  0  0  0
 33 32  1  0  0  0  0
 34 36  1  0  0  0  0
 36 38  1  0  0  0  0
 36 35  1  1  0  0  0
 37 36  1  0  0  0  0
 37 38  1  0  0  0  0
 39  4  1  6  0  0  0
 39 41  1  0  0  0  0
 41 42  1  0  0  0  0
 41 40  2  0  0  0  0
 42 44  1  0  0  0  0
 44 43  1  1  0  0  0
 44 53  1  0  0  0  0
 46 50  1  0  0  0  0
 46 51  1  0  0  0  0
 47 45  1  6  0  0  0
 48 51  1  0  0  0  0
 48 47  1  0  0  0  0
 49 47  1  0  0  0  0
 50 49  1  0  0  0  0
 51 44  1  6  0  0  0
 52 53  2  0  0  0  0
 54 39  1  0  0  0  0
 55 57  1  0  0  0  0
 56 55  2  0  0  0  0
 57 54  1  0  0  0  0
 58 57  2  0  0  0  0
 59 58  1  0  0  0  0
 60 56  1  0  0  0  0
 60 59  2  0  0  0  0
M  END
>  <MODEL>
3

>  <REMARK>
 VINA RESULT:      -2.5      3.016      6.855
  Name = 
  24 active torsions:
  status: ('A' for Active; 'I' for Inactive)
    1  A    between atoms: O_3  and  C_5
    2  A    between atoms: O_3  and  C_51
    3  A    between atoms: C_5  and  C_55
    4  A    between atoms: N_7  and  C_12
    5  A    between atoms: C_10  and  C_34
    6  A    between atoms: C_10  and  C_50
    7  A    between atoms: C_11  and  C_55
    8  A    between atoms: C_12  and  C_50
    9  A    between atoms: C_15  and  O_45
   10  A    between atoms: C_15  and  C_51
   11  A    between atoms: C_16  and  C_31
   12  A    between atoms: N_17  and  C_27
   13  A    between atoms: C_19  and  C_36
   14  A    between atoms: N_22  and  C_27
   15  A    between atoms: C_26  and  C_34
   16  A    between atoms: C_26  and  O_45
   17  A    between atoms: C_27  and  C_52
   18  A    between atoms: C_31  and  C_38
   19  A    between atoms: C_33  and  N_56
   20  A    between atoms: N_35  and  N_59
   21  A    between atoms: C_36  and  N_56
   22  A    between atoms: C_36  and  N_58
   23  A    between atoms: C_38  and  O_48
   24  A    between atoms: O_48  and  C_49
                            x       y       z     vdW  Elec       q    Type
                         _______ _______ _______ _____ _____    ______ ____

>  <TORSDO>
F 24

$$$$
=
 OpenBabel11052411133D

 60 63  0  0  1  0  0  0  0  0999 V2000
  159.7970  212.3430  143.9330 N   0  0  0  0  0  2  0  0  0  0  0  0
  160.2470  213.7150  143.8830 C   0  0  0  0  0  0  0  0  0  0  0  0
  160.4430  214.4390  144.9490 N   0  0  0  0  0  0  0  0  0  0  0  0
  160.4510  214.3330  142.6140 N   0  0  0  0  0  2  0  0  0  0  0  0
  158.0200  214.4340  146.3260 O   0  0  0  0  0  0  0  0  0  0  0  0
  158.9110  213.4580  148.1890 O   0  0  0  0  0  1  0  0  0  0  0  0
  159.0330  213.9710  146.9080 C   0  0  0  0  0  0  0  0  0  0  0  0
  160.3010  213.9610  146.2570 N   0  0  0  0  0  2  0  0  0  0  0  0
  159.5390  211.5850  145.1420 C   0  0  0  0  0  2  0  0  0  0  0  0
  160.7830  211.4840  145.9850 C   0  0  0  0  0  2  0  0  0  0  0  0
  160.4170  211.4340  147.4600 C   0  0  0  0  0  2  0  0  0  0  0  0
  162.8000  211.3060  147.5520 F   0  0  0  0  0  0  0  0  0  0  0  0
  161.6610  211.2830  148.3360 C   0  0  0  0  0  0  0  0  0  0  0  0
  161.7100  212.3300  149.2350 F   0  0  0  0  0  0  0  0  0  0  0  0
  162.3630  208.8570  148.3710 C   0  0  0  0  0  1  0  0  0  0  0  0
  161.6070  209.9620  149.1100 C   0  0  1  0  0  3  0  0  0  0  0  0
  162.1260  210.1200  150.4050 O   0  0  0  0  0  0  0  0  0  0  0  0
  161.1500  209.6040  151.2660 C   0  0  0  0  0  2  0  0  0  0  0  0
  161.8430  208.9880  152.4720 C   0  0  0  0  0  2  0  0  0  0  0  0
  161.3790  207.6620  152.6960 O   0  0  0  0  0  0  0  0  0  0  0  0
  162.0180  206.5630  152.1300 C   0  0  0  0  0  0  0  0  0  0  0  0
  162.8540  205.8790  152.7940 O   0  0  0  0  0  0  0  0  0  0  0  0
  161.7300  206.2240  150.7060 C   0  0  0  0  0  2  0  0  0  0  0  0
  161.9190  202.4500  148.5140 O   0  0  0  0  0  1  0  0  0  0  0  0
  161.6450  202.6760  151.4760 C   0  0  0  0  0  2  0  0  0  0  0  0
  161.7380  204.7160  150.4710 C   0  0  1  0  0  3  0  0  0  0  0  0
  161.4250  204.0520  151.6720 O   0  0  0  0  0  0  0  0  0  0  0  0
  160.8250  200.7510  150.3280 O   0  0  0  0  0  1  0  0  0  0  0  0
  160.7360  202.8390  149.1590 C   0  0  2  0  0  3  0  0  0  0  0  0
  160.7220  204.3540  149.3740 C   0  0  2  0  0  3  0  0  0  0  0  0
  160.6060  202.1160  150.5040 C   0  0  2  0  0  3  0  0  0  0  0  0
  161.0300  205.0180  148.1790 O   0  0  0  0  0  0  0  0  0  0  0  0
  162.0780  204.2810  147.6200 C   0  0  0  0  0  2  0  0  0  0  0  0
  161.9530  204.2410  146.1050 C   0  0  0  0  0  2  0  0  0  0  0  0
  160.9980  206.6980  146.3860 C   0  0  0  0  0  1  0  0  0  0  0  0
  161.2270  205.4560  145.5360 C   0  0  1  0  0  0  0  0  0  0  0  0
  161.2740  205.6450  144.0680 C   0  0  0  0  0  2  0  0  0  0  0  0
  160.1250  205.1440  144.7200 O   0  0  0  0  0  0  0  0  0  0  0  0
  160.2990  213.6330  141.3460 C   0  0  1  0  0  3  0  0  0  0  0  0
  161.9830  212.1570  142.1470 O   0  0  0  0  0  0  0  0  0  0  0  0
  161.4720  212.7320  141.1470 C   0  0  0  0  0  0  0  0  0  0  0  0
  161.9850  212.4940  139.8280 N   0  0  0  0  0  2  0  0  0  0  0  0
  163.4890  210.9370  140.6990 O   0  0  0  0  0  1  0  0  0  0  0  0
  162.9620  211.4550  139.5090 C   0  0  1  0  0  0  0  0  0  0  0  0
  161.7550  206.8390  139.4870 C   0  0  0  0  0  1  0  0  0  0  0  0
  160.9030  210.7860  138.1700 C   0  0  0  0  0  2  0  0  0  0  0  0
  161.7310  208.1300  138.6870 C   0  0  2  0  0  3  0  0  0  0  0  0
  162.0960  209.1940  139.5310 O   0  0  0  0  0  0  0  0  0  0  0  0
  160.3200  208.3520  138.1460 C   0  0  0  0  0  2  0  0  0  0  0  0
  160.2960  209.6500  137.3490 C   0  0  0  0  0  2  0  0  0  0  0  0
  162.2670  210.3350  138.7190 C   0  0  2  0  0  3  0  0  0  0  0  0
  163.7780  212.7370  137.7790 O   0  0  0  0  0  0  0  0  0  0  0  0
  164.0220  212.0330  138.7120 N   0  0  0  0  0  0  0  0  0  0  0  0
  159.0520  212.8730  141.3440 N   0  0  0  0  0  2  0  0  0  0  0  0
  157.4090  211.6810  139.9890 C   0  0  0  0  0  3  0  0  0  0  0  0
  156.4890  211.6600  138.9400 C   0  0  0  0  0  3  0  0  0  0  0  0
  158.1400  212.8510  140.2390 C   0  0  0  0  0  0  0  0  0  0  0  0
  157.9180  213.9820  139.4510 C   0  0  0  0  0  3  0  0  0  0  0  0
  156.9880  213.9210  138.4140 C   0  0  0  0  0  3  0  0  0  0  0  0
  156.3010  212.7710  138.1830 N   0  0  0  0  0  0  0  0  0  0  0  0
  1  9  1  0  0  0  0
  2  1  1  0  0  0  0
  2  3  2  0  0  0  0
  3  8  1  0  0  0  0
  4  2  1  0  0  0  0
  5  7  2  0  0  0  0
  7  6  1  0  0  0  0
  8  7  1  0  0  0  0
  9 10  1  0  0  0  0
 10 11  1  0  0  0  0
 11 13  1  0  0  0  0
 12 13  1  0  0  0  0
 13 16  1  0  0  0  0
 13 14  1  0  0  0  0
 16 15  1  6  0  0  0
 16 17  1  0  0  0  0
 17 18  1  0  0  0  0
 18 19  1  0  0  0  0
 19 20  1  0  0  0  0
 21 20  1  0  0  0  0
 21 22  2  0  0  0  0
 23 21  1  0  0  0  0
 25 27  1  0  0  0  0
 26 23  1  1  0  0  0
 26 27  1  0  0  0  0
 29 24  1  1  0  0  0
 29 30  1  0  0  0  0
 29 31  1  0  0  0  0
 30 32  1  6  0  0  0
 30 26  1  0  0  0  0
 31 28  1  6  0  0  0
 31 25  1  0  0  0  0
 33 32  1  0  0  0  0
 34 33  1  0  0  0  0
 36 34  1  0  0  0  0
 36 35  1  1  0  0  0
 37 38  1  0  0  0  0
 37 36  1  0  0  0  0
 38 36  1  0  0  0  0
 39 41  1  1  0  0  0
 39  4  1  0  0  0  0
 41 40  2  0  0  0  0
 42 41  1  0  0  0  0
 44 42  1  0  0  0  0
 44 43  1  1  0  0  0
 46 51  1  0  0  0  0
 47 45  1  1  0  0  0
 47 48  1  0  0  0  0
 49 47  1  0  0  0  0
 50 49  1  0  0  0  0
 50 46  1  0  0  0  0
 51 44  1  1  0  0  0
 51 48  1  0  0  0  0
 52 53  2  0  0  0  0
 53 44  1  0  0  0  0
 54 39  1  0  0  0  0
 55 57  1  0  0  0  0
 56 55  2  0  0  0  0
 57 54  1  0  0  0  0
 58 57  2  0  0  0  0
 59 58  1  0  0  0  0
 60 59  2  0  0  0  0
 60 56  1  0  0  0  0
M  END
>  <MODEL>
4

>  <REMARK>
 VINA RESULT:      -2.2      3.470      6.898
  Name = 
  24 active torsions:
  status: ('A' for Active; 'I' for Inactive)
    1  A    between atoms: O_3  and  C_5
    2  A    between atoms: O_3  and  C_51
    3  A    between atoms: C_5  and  C_55
    4  A    between atoms: N_7  and  C_12
    5  A    between atoms: C_10  and  C_34
    6  A    between atoms: C_10  and  C_50
    7  A    between atoms: C_11  and  C_55
    8  A    between atoms: C_12  and  C_50
    9  A    between atoms: C_15  and  O_45
   10  A    between atoms: C_15  and  C_51
   11  A    between atoms: C_16  and  C_31
   12  A    between atoms: N_17  and  C_27
   13  A    between atoms: C_19  and  C_36
   14  A    between atoms: N_22  and  C_27
   15  A    between atoms: C_26  and  C_34
   16  A    between atoms: C_26  and  O_45
   17  A    between atoms: C_27  and  C_52
   18  A    between atoms: C_31  and  C_38
   19  A    between atoms: C_33  and  N_56
   20  A    between atoms: N_35  and  N_59
   21  A    between atoms: C_36  and  N_56
   22  A    between atoms: C_36  and  N_58
   23  A    between atoms: C_38  and  O_48
   24  A    between atoms: O_48  and  C_49
                            x       y       z     vdW  Elec       q    Type
                         _______ _______ _______ _____ _____    ______ ____

>  <TORSDO>
F 24

$$$$
=
 OpenBabel11052411133D

 60 63  0  0  1  0  0  0  0  0999 V2000
  162.0680  204.1020  146.6490 N   0  0  0  0  0  2  0  0  0  0  0  0
  161.2620  203.5210  145.6000 C   0  0  0  0  0  0  0  0  0  0  0  0
  160.7060  202.3460  145.6960 N   0  0  0  0  0  0  0  0  0  0  0  0
  161.0920  204.2370  144.3780 N   0  0  0  0  0  2  0  0  0  0  0  0
  161.5220  199.6820  145.6510 O   0  0  0  0  0  0  0  0  0  0  0  0
  161.3010  199.4220  147.9110 O   0  0  0  0  0  1  0  0  0  0  0  0
  161.2090  200.1870  146.7590 C   0  0  0  0  0  0  0  0  0  0  0  0
  160.7720  201.5420  146.8400 N   0  0  0  0  0  2  0  0  0  0  0  0
  162.3390  203.4940  147.9370 C   0  0  0  0  0  2  0  0  0  0  0  0
  161.2740  203.8640  148.9370 C   0  0  0  0  0  2  0  0  0  0  0  0
  161.6960  203.4450  150.3360 C   0  0  0  0  0  2  0  0  0  0  0  0
  159.9600  205.0160  150.8070 F   0  0  0  0  0  0  0  0  0  0  0  0
  160.8770  204.1700  151.4030 C   0  0  0  0  0  0  0  0  0  0  0  0
  160.2020  203.2360  152.1650 F   0  0  0  0  0  0  0  0  0  0  0  0
  162.1830  206.3160  151.6660 C   0  0  0  0  0  1  0  0  0  0  0  0
  161.7990  204.9860  152.3150 C   0  0  1  0  0  3  0  0  0  0  0  0
  161.1940  205.2140  153.5620 O   0  0  0  0  0  0  0  0  0  0  0  0
  160.8520  206.5720  153.5690 C   0  0  0  0  0  2  0  0  0  0  0  0
  160.7160  207.0300  155.0130 C   0  0  0  0  0  2  0  0  0  0  0  0
  160.0970  208.3100  155.0780 O   0  0  0  0  0  0  0  0  0  0  0  0
  160.7970  209.4710  154.7660 C   0  0  0  0  0  0  0  0  0  0  0  0
  161.9620  209.6760  155.2220 O   0  0  0  0  0  0  0  0  0  0  0  0
  160.1340  210.4960  153.9090 C   0  0  0  0  0  2  0  0  0  0  0  0
  156.1990  212.3570  154.2830 O   0  0  0  0  0  1  0  0  0  0  0  0
  157.9150  211.5430  156.5850 C   0  0  0  0  0  2  0  0  0  0  0  0
  158.9000  211.0880  154.5850 C   0  0  1  0  0  3  0  0  0  0  0  0
  159.1310  211.1960  155.9700 O   0  0  0  0  0  0  0  0  0  0  0  0
  156.3240  213.3070  156.8240 O   0  0  0  0  0  1  0  0  0  0  0  0
  157.3540  213.0490  154.6770 C   0  0  2  0  0  3  0  0  0  0  0  0
  158.5850  212.4670  153.9810 C   0  0  2  0  0  3  0  0  0  0  0  0
  157.5220  212.9700  156.1980 C   0  0  2  0  0  3  0  0  0  0  0  0
  158.3600  212.3610  152.6020 O   0  0  0  0  0  0  0  0  0  0  0  0
  159.0150  213.4630  152.0460 C   0  0  0  0  0  2  0  0  0  0  0  0
  160.0840  213.0090  151.0650 C   0  0  0  0  0  2  0  0  0  0  0  0
  158.5760  214.2360  149.2610 C   0  0  0  0  0  1  0  0  0  0  0  0
  159.8960  213.5950  149.6670 C   0  0  1  0  0  0  0  0  0  0  0  0
  161.1120  214.0500  148.9570 C   0  0  0  0  0  2  0  0  0  0  0  0
  160.4720  212.8330  148.6360 O   0  0  0  0  0  0  0  0  0  0  0  0
  161.6310  205.5710  144.1460 C   0  0  1  0  0  3  0  0  0  0  0  0
  160.9990  205.0600  141.9110 O   0  0  0  0  0  0  0  0  0  0  0  0
  161.6020  205.8570  142.6810 C   0  0  0  0  0  0  0  0  0  0  0  0
  162.2210  207.0440  142.1650 N   0  0  0  0  0  2  0  0  0  0  0  0
  160.7900  207.1090  140.3230 O   0  0  0  0  0  1  0  0  0  0  0  0
  162.0390  207.5280  140.7980 C   0  0  1  0  0  0  0  0  0  0  0  0
  164.1560  211.3530  138.8860 C   0  0  0  0  0  1  0  0  0  0  0  0
  160.7090  209.6970  140.7330 C   0  0  0  0  0  2  0  0  0  0  0  0
  163.1450  210.8820  139.9180 C   0  0  2  0  0  3  0  0  0  0  0  0
  162.8800  209.5170  139.7030 O   0  0  0  0  0  0  0  0  0  0  0  0
  161.8610  211.6940  139.7610 C   0  0  0  0  0  2  0  0  0  0  0  0
  160.8460  211.2160  140.7920 C   0  0  0  0  0  2  0  0  0  0  0  0
  162.1080  209.0630  140.7940 C   0  0  2  0  0  3  0  0  0  0  0  0
  162.8390  206.2380  139.0680 O   0  0  0  0  0  0  0  0  0  0  0  0
  163.0900  206.9870  139.9620 N   0  0  0  0  0  0  0  0  0  0  0  0
  160.8490  206.5580  144.8860 N   0  0  0  0  0  2  0  0  0  0  0  0
  162.0740  207.4340  146.8050 C   0  0  0  0  0  3  0  0  0  0  0  0
  162.1710  207.6660  148.1780 C   0  0  0  0  0  3  0  0  0  0  0  0
  160.9570  206.7540  146.3010 C   0  0  0  0  0  0  0  0  0  0  0  0
  159.9480  206.3440  147.1750 C   0  0  0  0  0  3  0  0  0  0  0  0
  160.0820  206.5970  148.5400 C   0  0  0  0  0  3  0  0  0  0  0  0
  161.1810  207.2470  149.0070 N   0  0  0  0  0  0  0  0  0  0  0  0
  1  9  1  0  0  0  0
  2  3  2  0  0  0  0
  2  1  1  0  0  0  0
  3  8  1  0  0  0  0
  4  2  1  0  0  0  0
  5  7  2  0  0  0  0
  7  8  1  0  0  0  0
  7  6  1  0  0  0  0
  9 10  1  0  0  0  0
 10 11  1  0  0  0  0
 11 13  1  0  0  0  0
 12 13  1  0  0  0  0
 13 14  1  0  0  0  0
 13 16  1  0  0  0  0
 16 15  1  6  0  0  0
 16 17  1  0  0  0  0
 17 18  1  0  0  0  0
 18 19  1  0  0  0  0
 19 20  1  0  0  0  0
 21 20  1  0  0  0  0
 21 22  2  0  0  0  0
 23 21  1  0  0  0  0
 26 23  1  6  0  0  0
 26 27  1  0  0  0  0
 27 25  1  0  0  0  0
 29 24  1  1  0  0  0
 29 31  1  0  0  0  0
 30 32  1  6  0  0  0
 30 26  1  0  0  0  0
 30 29  1  0  0  0  0
 31 25  1  0  0  0  0
 31 28  1  1  0  0  0
 33 32  1  0  0  0  0
 34 33  1  0  0  0  0
 36 35  1  6  0  0  0
 36 34  1  0  0  0  0
 37 36  1  0  0  0  0
 38 37  1  0  0  0  0
 38 36  1  0  0  0  0
 39 41  1  6  0  0  0
 39  4  1  0  0  0  0
 39 54  1  0  0  0  0
 40 41  2  0  0  0  0
 42 41  1  0  0  0  0
 44 43  1  6  0  0  0
 44 42  1  0  0  0  0
 46 50  1  0  0  0  0
 46 51  1  0  0  0  0
 47 45  1  6  0  0  0
 48 47  1  0  0  0  0
 48 51  1  0  0  0  0
 49 47  1  0  0  0  0
 49 50  1  0  0  0  0
 51 44  1  6  0  0  0
 52 53  2  0  0  0  0
 53 44  1  0  0  0  0
 54 57  1  0  0  0  0
 55 56  1  0  0  0  0
 56 60  2  0  0  0  0
 57 55  2  0  0  0  0
 57 58  1  0  0  0  0
 58 59  2  0  0  0  0
 59 60  1  0  0  0  0
M  END
>  <MODEL>
5

>  <REMARK>
 VINA RESULT:      -1.7      4.067      8.461
  Name = 
  24 active torsions:
  status: ('A' for Active; 'I' for Inactive)
    1  A    between atoms: O_3  and  C_5
    2  A    between atoms: O_3  and  C_51
    3  A    between atoms: C_5  and  C_55
    4  A    between atoms: N_7  and  C_12
    5  A    between atoms: C_10  and  C_34
    6  A    between atoms: C_10  and  C_50
    7  A    between atoms: C_11  and  C_55
    8  A    between atoms: C_12  and  C_50
    9  A    between atoms: C_15  and  O_45
   10  A    between atoms: C_15  and  C_51
   11  A    between atoms: C_16  and  C_31
   12  A    between atoms: N_17  and  C_27
   13  A    between atoms: C_19  and  C_36
   14  A    between atoms: N_22  and  C_27
   15  A    between atoms: C_26  and  C_34
   16  A    between atoms: C_26  and  O_45
   17  A    between atoms: C_27  and  C_52
   18  A    between atoms: C_31  and  C_38
   19  A    between atoms: C_33  and  N_56
   20  A    between atoms: N_35  and  N_59
   21  A    between atoms: C_36  and  N_56
   22  A    between atoms: C_36  and  N_58
   23  A    between atoms: C_38  and  O_48
   24  A    between atoms: O_48  and  C_49
                            x       y       z     vdW  Elec       q    Type
                         _______ _______ _______ _____ _____    ______ ____

>  <TORSDO>
F 24

$$$$
=
 OpenBabel11052411133D

 60 63  0  0  1  0  0  0  0  0999 V2000
  160.8040  211.7090  150.0690 N   0  0  0  0  0  2  0  0  0  0  0  0
  160.6140  213.1410  150.0550 C   0  0  0  0  0  0  0  0  0  0  0  0
  161.4500  213.9660  149.4910 N   0  0  0  0  0  0  0  0  0  0  0  0
  159.4830  213.6970  150.7230 N   0  0  0  0  0  2  0  0  0  0  0  0
  161.6360  214.0320  146.7110 O   0  0  0  0  0  1  0  0  0  0  0  0
  163.7860  213.2590  146.6890 O   0  0  0  0  0  0  0  0  0  0  0  0
  162.6340  213.6290  147.3620 C   0  0  0  0  0  0  0  0  0  0  0  0
  162.5900  213.5620  148.7850 N   0  0  0  0  0  2  0  0  0  0  0  0
  161.9050  211.0000  149.4450 C   0  0  0  0  0  2  0  0  0  0  0  0
  162.3030  209.8030  150.2680 C   0  0  0  0  0  2  0  0  0  0  0  0
  162.5020  210.2050  151.7210 C   0  0  0  0  0  2  0  0  0  0  0  0
  162.4310  209.2150  153.8930 F   0  0  0  0  0  0  0  0  0  0  0  0
  161.7930  209.2360  152.6670 C   0  0  0  0  0  0  0  0  0  0  0  0
  160.4870  209.6520  152.8440 F   0  0  0  0  0  0  0  0  0  0  0  0
  163.1580  207.1560  152.2300 C   0  0  0  0  0  1  0  0  0  0  0  0
  161.7900  207.8230  152.0740 C   0  0  1  0  0  3  0  0  0  0  0  0
  160.7960  207.0320  152.6720 O   0  0  0  0  0  0  0  0  0  0  0  0
  160.0280  206.5330  151.6130 C   0  0  0  0  0  2  0  0  0  0  0  0
  160.9080  206.4460  150.3750 C   0  0  0  0  0  2  0  0  0  0  0  0
  160.6120  207.5060  149.4730 O   0  0  0  0  0  0  0  0  0  0  0  0
  160.9180  207.4140  148.1190 C   0  0  0  0  0  0  0  0  0  0  0  0
  161.8210  208.1370  147.6010 O   0  0  0  0  0  0  0  0  0  0  0  0
  160.1340  206.4680  147.2720 C   0  0  0  0  0  2  0  0  0  0  0  0
  161.8600  202.7060  145.8770 O   0  0  0  0  0  1  0  0  0  0  0  0
  162.6930  205.4080  144.9240 C   0  0  0  0  0  2  0  0  0  0  0  0
  161.0410  205.5260  146.4860 C   0  0  1  0  0  3  0  0  0  0  0  0
  162.0120  206.2770  145.7950 O   0  0  0  0  0  0  0  0  0  0  0  0
  164.2210  203.5750  144.8550 O   0  0  0  0  0  1  0  0  0  0  0  0
  162.6250  203.5990  146.6410 C   0  0  2  0  0  3  0  0  0  0  0  0
  161.7120  204.5280  147.4440 C   0  0  2  0  0  3  0  0  0  0  0  0
  163.5410  204.4220  145.7280 C   0  0  2  0  0  3  0  0  0  0  0  0
  160.7470  203.7830  148.1350 O   0  0  0  0  0  0  0  0  0  0  0  0
  161.1360  203.8490  149.4750 C   0  0  0  0  0  2  0  0  0  0  0  0
  161.5640  202.4780  149.9750 C   0  0  0  0  0  2  0  0  0  0  0  0
  161.3650  200.5440  148.1720 C   0  0  0  0  0  1  0  0  0  0  0  0
  160.7790  201.3380  149.3300 C   0  0  1  0  0  0  0  0  0  0  0  0
  159.7650  200.6590  150.1680 C   0  0  0  0  0  2  0  0  0  0  0  0
  159.4050  201.5960  149.1750 O   0  0  0  0  0  0  0  0  0  0  0  0
  158.4540  212.8920  151.3680 C   0  0  1  0  0  3  0  0  0  0  0  0
  157.8970  214.3080  153.1960 O   0  0  0  0  0  0  0  0  0  0  0  0
  158.4220  213.2230  152.8230 C   0  0  0  0  0  0  0  0  0  0  0  0
  158.9470  212.2980  153.7860 N   0  0  0  0  0  2  0  0  0  0  0  0
  157.4390  212.0240  155.5460 O   0  0  0  0  0  1  0  0  0  0  0  0
  158.7450  212.4210  155.2280 C   0  0  1  0  0  0  0  0  0  0  0  0
  159.7080  207.9710  156.6560 C   0  0  0  0  0  1  0  0  0  0  0  0
  161.1930  211.7730  155.4830 C   0  0  0  0  0  2  0  0  0  0  0  0
  160.1910  209.4120  156.6760 C   0  0  2  0  0  3  0  0  0  0  0  0
  159.4250  210.1600  155.7640 O   0  0  0  0  0  0  0  0  0  0  0  0
  161.6640  209.4450  156.2720 C   0  0  0  0  0  2  0  0  0  0  0  0
  162.1450  210.8900  156.2860 C   0  0  0  0  0  2  0  0  0  0  0  0
  159.7530  211.5190  155.9570 C   0  0  2  0  0  3  0  0  0  0  0  0
  158.4540  214.2370  156.6120 O   0  0  0  0  0  0  0  0  0  0  0  0
  158.9480  213.8000  155.6180 N   0  0  0  0  0  0  0  0  0  0  0  0
  157.1580  213.1510  150.7450 N   0  0  0  0  0  2  0  0  0  0  0  0
  156.0580  214.2620  148.8730 C   0  0  0  0  0  3  0  0  0  0  0  0
  155.8990  214.4520  147.4990 C   0  0  0  0  0  3  0  0  0  0  0  0
  156.9760  213.3090  149.3330 C   0  0  0  0  0  0  0  0  0  0  0  0
  157.7360  212.5840  148.4130 C   0  0  0  0  0  3  0  0  0  0  0  0
  157.5500  212.8060  147.0480 C   0  0  0  0  0  3  0  0  0  0  0  0
  156.6440  213.7270  146.6260 N   0  0  0  0  0  0  0  0  0  0  0  0
  2  1  1  0  0  0  0
  2  4  1  0  0  0  0
  3  2  2  0  0  0  0
  5  7  1  0  0  0  0
  6  7  2  0  0  0  0
  7  8  1  0  0  0  0
  8  3  1  0  0  0  0
  9  1  1  0  0  0  0
  9 10  1  0  0  0  0
 10 11  1  0  0  0  0
 11 13  1  0  0  0  0
 13 14  1  0  0  0  0
 13 12  1  0  0  0  0
 16 15  1  1  0  0  0
 16 13  1  0  0  0  0
 16 17  1  0  0  0  0
 18 17  1  0  0  0  0
 19 18  1  0  0  0  0
 20 19  1  0  0  0  0
 21 20  1  0  0  0  0
 22 21  2  0  0  0  0
 23 21  1  0  0  0  0
 25 31  1  0  0  0  0
 25 27  1  0  0  0  0
 26 23  1  1  0  0  0
 26 30  1  0  0  0  0
 27 26  1  0  0  0  0
 29 24  1  6  0  0  0
 29 30  1  0  0  0  0
 30 32  1  6  0  0  0
 31 28  1  6  0  0  0
 31 29  1  0  0  0  0
 32 33  1  0  0  0  0
 33 34  1  0  0  0  0
 36 35  1  6  0  0  0
 36 34  1  0  0  0  0
 36 37  1  0  0  0  0
 38 36  1  0  0  0  0
 38 37  1  0  0  0  0
 39  4  1  6  0  0  0
 39 41  1  0  0  0  0
 41 40  2  0  0  0  0
 41 42  1  0  0  0  0
 42 44  1  0  0  0  0
 44 43  1  1  0  0  0
 44 53  1  0  0  0  0
 46 51  1  0  0  0  0
 46 50  1  0  0  0  0
 47 45  1  6  0  0  0
 48 51  1  0  0  0  0
 48 47  1  0  0  0  0
 49 50  1  0  0  0  0
 49 47  1  0  0  0  0
 51 44  1  6  0  0  0
 53 52  2  0  0  0  0
 54 39  1  0  0  0  0
 55 57  1  0  0  0  0
 56 55  2  0  0  0  0
 57 54  1  0  0  0  0
 58 57  2  0  0  0  0
 59 58  1  0  0  0  0
 60 59  2  0  0  0  0
 60 56  1  0  0  0  0
M  END
>  <MODEL>
6

>  <REMARK>
 VINA RESULT:      -1.7      2.409      6.643
  Name = 
  24 active torsions:
  status: ('A' for Active; 'I' for Inactive)
    1  A    between atoms: O_3  and  C_5
    2  A    between atoms: O_3  and  C_51
    3  A    between atoms: C_5  and  C_55
    4  A    between atoms: N_7  and  C_12
    5  A    between atoms: C_10  and  C_34
    6  A    between atoms: C_10  and  C_50
    7  A    between atoms: C_11  and  C_55
    8  A    between atoms: C_12  and  C_50
    9  A    between atoms: C_15  and  O_45
   10  A    between atoms: C_15  and  C_51
   11  A    between atoms: C_16  and  C_31
   12  A    between atoms: N_17  and  C_27
   13  A    between atoms: C_19  and  C_36
   14  A    between atoms: N_22  and  C_27
   15  A    between atoms: C_26  and  C_34
   16  A    between atoms: C_26  and  O_45
   17  A    between atoms: C_27  and  C_52
   18  A    between atoms: C_31  and  C_38
   19  A    between atoms: C_33  and  N_56
   20  A    between atoms: N_35  and  N_59
   21  A    between atoms: C_36  and  N_56
   22  A    between atoms: C_36  and  N_58
   23  A    between atoms: C_38  and  O_48
   24  A    between atoms: O_48  and  C_49
                            x       y       z     vdW  Elec       q    Type
                         _______ _______ _______ _____ _____    ______ ____

>  <TORSDO>
F 24

$$$$
=
 OpenBabel11052411133D

 60 63  0  0  1  0  0  0  0  0999 V2000
  160.2040  209.5030  152.1650 N   0  0  0  0  0  2  0  0  0  0  0  0
  160.6730  210.4130  153.1840 C   0  0  0  0  0  0  0  0  0  0  0  0
  161.3790  210.0310  154.2110 N   0  0  0  0  0  0  0  0  0  0  0  0
  160.3190  211.7920  153.0990 N   0  0  0  0  0  2  0  0  0  0  0  0
  160.7730  208.5500  156.4930 O   0  0  0  0  0  1  0  0  0  0  0  0
  161.8760  206.6890  155.7580 O   0  0  0  0  0  0  0  0  0  0  0  0
  161.4630  208.0020  155.5970 C   0  0  0  0  0  0  0  0  0  0  0  0
  161.8150  208.7160  154.4150 N   0  0  0  0  0  2  0  0  0  0  0  0
  160.4720  208.0780  152.1210 C   0  0  0  0  0  2  0  0  0  0  0  0
  161.3330  207.7340  150.9340 C   0  0  0  0  0  2  0  0  0  0  0  0
  160.4910  207.0980  149.8390 C   0  0  0  0  0  2  0  0  0  0  0  0
  162.3940  205.7020  149.4740 F   0  0  0  0  0  0  0  0  0  0  0  0
  161.3650  206.3600  148.8250 C   0  0  0  0  0  0  0  0  0  0  0  0
  160.5910  205.4350  148.1520 F   0  0  0  0  0  0  0  0  0  0  0  0
  162.8270  208.3940  148.5090 C   0  0  0  0  0  1  0  0  0  0  0  0
  161.9550  207.3490  147.8150 C   0  0  1  0  0  3  0  0  0  0  0  0
  162.6980  206.6740  146.8320 O   0  0  0  0  0  0  0  0  0  0  0  0
  161.8130  206.4750  145.7650 C   0  0  0  0  0  2  0  0  0  0  0  0
  162.1830  205.1760  145.0650 C   0  0  0  0  0  2  0  0  0  0  0  0
  161.1100  204.7200  144.2510 O   0  0  0  0  0  0  0  0  0  0  0  0
  160.0480  203.9980  144.7870 C   0  0  0  0  0  0  0  0  0  0  0  0
  159.0010  203.7720  144.1090 O   0  0  0  0  0  0  0  0  0  0  0  0
  160.1460  203.5230  146.1980 C   0  0  0  0  0  2  0  0  0  0  0  0
  160.7700  199.5780  147.9660 O   0  0  0  0  0  1  0  0  0  0  0  0
  160.1070  200.0630  145.0980 C   0  0  0  0  0  2  0  0  0  0  0  0
  160.2610  202.0040  146.2770 C   0  0  1  0  0  3  0  0  0  0  0  0
  160.2100  201.4610  144.9790 O   0  0  0  0  0  0  0  0  0  0  0  0
  161.3050  198.1040  145.7490 O   0  0  0  0  0  1  0  0  0  0  0  0
  161.6820  200.0900  147.0320 C   0  0  2  0  0  3  0  0  0  0  0  0
  161.5780  201.6160  146.9720 C   0  0  2  0  0  3  0  0  0  0  0  0
  161.4130  199.4890  145.6490 C   0  0  2  0  0  3  0  0  0  0  0  0
  161.6320  202.1590  148.2620 O   0  0  0  0  0  0  0  0  0  0  0  0
  160.9430  201.2460  149.0640 C   0  0  0  0  0  2  0  0  0  0  0  0
  160.1660  201.9700  150.1520 C   0  0  0  0  0  2  0  0  0  0  0  0
  162.2490  201.6690  151.7650 C   0  0  0  0  0  1  0  0  0  0  0  0
  161.0590  202.4840  151.2790 C   0  0  1  0  0  0  0  0  0  0  0  0
  161.1210  203.9500  151.4760 C   0  0  0  0  0  2  0  0  0  0  0  0
  160.3650  203.1130  152.3270 O   0  0  0  0  0  0  0  0  0  0  0  0
  159.5610  212.3600  151.9920 C   0  0  1  0  0  3  0  0  0  0  0  0
  158.2980  214.3690  152.1530 O   0  0  0  0  0  0  0  0  0  0  0  0
  158.4400  213.1770  152.5420 C   0  0  0  0  0  0  0  0  0  0  0  0
  157.5140  212.5990  153.4730 N   0  0  0  0  0  2  0  0  0  0  0  0
  155.5170  213.5530  152.7320 O   0  0  0  0  0  1  0  0  0  0  0  0
  156.2600  213.2330  153.8760 C   0  0  1  0  0  0  0  0  0  0  0  0
  155.4820  208.6480  154.9420 C   0  0  0  0  0  1  0  0  0  0  0  0
  155.4630  212.6950  156.2320 C   0  0  0  0  0  2  0  0  0  0  0  0
  155.0590  210.0790  155.2350 C   0  0  2  0  0  3  0  0  0  0  0  0
  155.9900  210.9550  154.6500 O   0  0  0  0  0  0  0  0  0  0  0  0
  155.0260  210.2850  156.7480 C   0  0  0  0  0  2  0  0  0  0  0  0
  154.6070  211.7210  157.0390 C   0  0  0  0  0  2  0  0  0  0  0  0
  155.4630  212.2600  154.7580 C   0  0  2  0  0  3  0  0  0  0  0  0
  157.1410  214.3900  155.6610 O   0  0  0  0  0  0  0  0  0  0  0  0
  156.5590  214.4380  154.6200 N   0  0  0  0  0  0  0  0  0  0  0  0
  160.4390  213.1750  151.1560 N   0  0  0  0  0  2  0  0  0  0  0  0
  161.6580  212.1530  149.3070 C   0  0  0  0  0  3  0  0  0  0  0  0
  161.8090  211.9110  147.9400 C   0  0  0  0  0  3  0  0  0  0  0  0
  160.6080  212.9690  149.7490 C   0  0  0  0  0  0  0  0  0  0  0  0
  159.7150  213.5060  148.8190 C   0  0  0  0  0  3  0  0  0  0  0  0
  159.8990  213.2390  147.4620 C   0  0  0  0  0  3  0  0  0  0  0  0
  160.9330  212.4550  147.0570 N   0  0  0  0  0  0  0  0  0  0  0  0
  1  2  1  0  0  0  0
  2  3  2  0  0  0  0
  3  8  1  0  0  0  0
  4  2  1  0  0  0  0
  7  6  2  0  0  0  0
  7  5  1  0  0  0  0
  8  7  1  0  0  0  0
  9  1  1  0  0  0  0
 10  9  1  0  0  0  0
 11 10  1  0  0  0  0
 13 12  1  0  0  0  0
 13 11  1  0  0  0  0
 14 13  1  0  0  0  0
 16 15  1  1  0  0  0
 16 13  1  0  0  0  0
 17 16  1  0  0  0  0
 18 17  1  0  0  0  0
 19 18  1  0  0  0  0
 20 21  1  0  0  0  0
 20 19  1  0  0  0  0
 21 23  1  0  0  0  0
 22 21  2  0  0  0  0
 25 31  1  0  0  0  0
 26 23  1  6  0  0  0
 26 30  1  0  0  0  0
 27 25  1  0  0  0  0
 27 26  1  0  0  0  0
 29 24  1  1  0  0  0
 30 29  1  0  0  0  0
 30 32  1  1  0  0  0
 31 28  1  1  0  0  0
 31 29  1  0  0  0  0
 32 33  1  0  0  0  0
 33 34  1  0  0  0  0
 34 36  1  0  0  0  0
 36 37  1  0  0  0  0
 36 35  1  1  0  0  0
 36 38  1  0  0  0  0
 37 38  1  0  0  0  0
 39 54  1  1  0  0  0
 39 41  1  0  0  0  0
 39  4  1  0  0  0  0
 40 41  2  0  0  0  0
 41 42  1  0  0  0  0
 42 44  1  0  0  0  0
 44 43  1  6  0  0  0
 44 53  1  0  0  0  0
 46 50  1  0  0  0  0
 47 45  1  1  0  0  0
 47 49  1  0  0  0  0
 48 51  1  0  0  0  0
 48 47  1  0  0  0  0
 49 50  1  0  0  0  0
 51 44  1  6  0  0  0
 51 46  1  0  0  0  0
 53 52  2  0  0  0  0
 55 57  1  0  0  0  0
 56 55  2  0  0  0  0
 57 54  1  0  0  0  0
 58 57  2  0  0  0  0
 59 58  1  0  0  0  0
 60 59  2  0  0  0  0
 60 56  1  0  0  0  0
M  END
>  <MODEL>
7

>  <REMARK>
 VINA RESULT:      -1.5      3.134      7.648
  Name = 
  24 active torsions:
  status: ('A' for Active; 'I' for Inactive)
    1  A    between atoms: O_3  and  C_5
    2  A    between atoms: O_3  and  C_51
    3  A    between atoms: C_5  and  C_55
    4  A    between atoms: N_7  and  C_12
    5  A    between atoms: C_10  and  C_34
    6  A    between atoms: C_10  and  C_50
    7  A    between atoms: C_11  and  C_55
    8  A    between atoms: C_12  and  C_50
    9  A    between atoms: C_15  and  O_45
   10  A    between atoms: C_15  and  C_51
   11  A    between atoms: C_16  and  C_31
   12  A    between atoms: N_17  and  C_27
   13  A    between atoms: C_19  and  C_36
   14  A    between atoms: N_22  and  C_27
   15  A    between atoms: C_26  and  C_34
   16  A    between atoms: C_26  and  O_45
   17  A    between atoms: C_27  and  C_52
   18  A    between atoms: C_31  and  C_38
   19  A    between atoms: C_33  and  N_56
   20  A    between atoms: N_35  and  N_59
   21  A    between atoms: C_36  and  N_56
   22  A    between atoms: C_36  and  N_58
   23  A    between atoms: C_38  and  O_48
   24  A    between atoms: O_48  and  C_49
                            x       y       z     vdW  Elec       q    Type
                         _______ _______ _______ _____ _____    ______ ____

>  <TORSDO>
F 24

$$$$
=
 OpenBabel11052411133D

 60 63  0  0  1  0  0  0  0  0999 V2000
  160.0090  209.7400  152.6410 N   0  0  0  0  0  2  0  0  0  0  0  0
  160.5540  210.7210  153.5510 C   0  0  0  0  0  0  0  0  0  0  0  0
  161.3950  210.4220  154.5010 N   0  0  0  0  0  0  0  0  0  0  0  0
  160.1310  212.0790  153.4420 N   0  0  0  0  0  2  0  0  0  0  0  0
  160.4010  208.6700  156.4270 O   0  0  0  0  0  1  0  0  0  0  0  0
  161.8570  207.0000  155.8720 O   0  0  0  0  0  0  0  0  0  0  0  0
  161.3540  208.2790  155.7060 C   0  0  0  0  0  0  0  0  0  0  0  0
  161.9100  209.1380  154.7140 N   0  0  0  0  0  2  0  0  0  0  0  0
  160.3340  208.3270  152.6340 C   0  0  0  0  0  2  0  0  0  0  0  0
  160.4980  207.8250  151.2230 C   0  0  0  0  0  2  0  0  0  0  0  0
  160.2230  206.3310  151.1600 C   0  0  0  0  0  2  0  0  0  0  0  0
  161.5380  204.6140  152.1730 F   0  0  0  0  0  0  0  0  0  0  0  0
  161.5230  205.5270  151.1350 C   0  0  0  0  0  0  0  0  0  0  0  0
  161.6120  204.8500  149.9350 F   0  0  0  0  0  0  0  0  0  0  0  0
  163.7680  205.8930  152.2340 C   0  0  0  0  0  1  0  0  0  0  0  0
  162.7280  206.4650  151.2700 C   0  0  1  0  0  3  0  0  0  0  0  0
  163.3130  206.7080  150.0170 O   0  0  0  0  0  0  0  0  0  0  0  0
  162.5140  207.6890  149.4150 C   0  0  0  0  0  2  0  0  0  0  0  0
  162.5370  207.4760  147.9090 C   0  0  0  0  0  2  0  0  0  0  0  0
  161.2440  207.1240  147.4310 O   0  0  0  0  0  0  0  0  0  0  0  0
  161.0780  206.3600  146.2800 C   0  0  0  0  0  0  0  0  0  0  0  0
  160.2890  206.7290  145.3590 O   0  0  0  0  0  0  0  0  0  0  0  0
  161.8210  205.0720  146.1640 C   0  0  0  0  0  2  0  0  0  0  0  0
  159.4030  201.5460  147.0600 O   0  0  0  0  0  1  0  0  0  0  0  0
  159.6320  202.8020  144.3630 C   0  0  0  0  0  2  0  0  0  0  0  0
  160.8800  203.8950  145.9220 C   0  0  1  0  0  3  0  0  0  0  0  0
  160.6570  203.7500  144.5390 O   0  0  0  0  0  0  0  0  0  0  0  0
  159.1130  200.4830  144.5780 O   0  0  0  0  0  1  0  0  0  0  0  0
  160.5400  201.4400  146.2450 C   0  0  2  0  0  3  0  0  0  0  0  0
  161.4910  202.6100  146.5070 C   0  0  2  0  0  3  0  0  0  0  0  0
  160.1300  201.4140  144.7690 C   0  0  2  0  0  3  0  0  0  0  0  0
  161.7170  202.7550  147.8820 O   0  0  0  0  0  0  0  0  0  0  0  0
  161.7000  201.4520  148.3870 C   0  0  0  0  0  2  0  0  0  0  0  0
  161.7290  201.4680  149.9070 C   0  0  0  0  0  2  0  0  0  0  0  0
  159.2160  200.6780  150.2070 C   0  0  0  0  0  1  0  0  0  0  0  0
  160.3460  201.6470  150.5270 C   0  0  1  0  0  0  0  0  0  0  0  0
  160.2730  202.3620  151.8210 C   0  0  0  0  0  2  0  0  0  0  0  0
  159.9130  202.9820  150.6040 O   0  0  0  0  0  0  0  0  0  0  0  0
  159.2220  212.5580  152.4090 C   0  0  1  0  0  3  0  0  0  0  0  0
  157.6810  214.3700  152.4130 O   0  0  0  0  0  0  0  0  0  0  0  0
  158.1590  213.3890  153.0470 C   0  0  0  0  0  0  0  0  0  0  0  0
  157.6620  213.0500  154.3500 N   0  0  0  0  0  2  0  0  0  0  0  0
  155.8310  214.4520  153.9950 O   0  0  0  0  0  1  0  0  0  0  0  0
  156.4700  213.6480  154.9480 C   0  0  1  0  0  0  0  0  0  0  0  0
  155.6740  208.9440  154.9720 C   0  0  0  0  0  1  0  0  0  0  0  0
  155.1100  212.6970  156.8780 C   0  0  0  0  0  2  0  0  0  0  0  0
  155.1170  210.2980  155.3790 C   0  0  2  0  0  3  0  0  0  0  0  0
  156.1230  211.2680  155.2220 O   0  0  0  0  0  0  0  0  0  0  0  0
  154.6770  210.2320  156.8400 C   0  0  0  0  0  2  0  0  0  0  0  0
  154.1240  211.5920  157.2490 C   0  0  0  0  0  2  0  0  0  0  0  0
  155.5200  212.5300  155.4060 C   0  0  2  0  0  3  0  0  0  0  0  0
  157.9860  214.4310  156.4930 O   0  0  0  0  0  0  0  0  0  0  0  0
  156.8650  214.4530  156.0840 N   0  0  0  0  0  0  0  0  0  0  0  0
  159.9620  213.3310  151.4160 N   0  0  0  0  0  2  0  0  0  0  0  0
  160.5660  213.4130  149.0530 C   0  0  0  0  0  3  0  0  0  0  0  0
  160.1960  213.4720  147.7090 C   0  0  0  0  0  3  0  0  0  0  0  0
  159.5720  213.4330  150.0410 C   0  0  0  0  0  0  0  0  0  0  0  0
  158.2280  213.4870  149.6650 C   0  0  0  0  0  3  0  0  0  0  0  0
  157.9000  213.5420  148.3100 C   0  0  0  0  0  3  0  0  0  0  0  0
  158.8830  213.5340  147.3710 N   0  0  0  0  0  0  0  0  0  0  0  0
  1  2  1  0  0  0  0
  2  3  2  0  0  0  0
  3  8  1  0  0  0  0
  4  2  1  0  0  0  0
  7  6  2  0  0  0  0
  7  5  1  0  0  0  0
  8  7  1  0  0  0  0
  9  1  1  0  0  0  0
 10  9  1  0  0  0  0
 11 10  1  0  0  0  0
 13 11  1  0  0  0  0
 13 16  1  0  0  0  0
 13 12  1  0  0  0  0
 14 13  1  0  0  0  0
 16 15  1  1  0  0  0
 17 16  1  0  0  0  0
 18 17  1  0  0  0  0
 19 18  1  0  0  0  0
 20 19  1  0  0  0  0
 21 20  1  0  0  0  0
 22 21  2  0  0  0  0
 23 21  1  0  0  0  0
 25 27  1  0  0  0  0
 25 31  1  0  0  0  0
 26 23  1  6  0  0  0
 26 30  1  0  0  0  0
 27 26  1  0  0  0  0
 29 30  1  0  0  0  0
 29 24  1  1  0  0  0
 30 32  1  1  0  0  0
 31 28  1  1  0  0  0
 31 29  1  0  0  0  0
 32 33  1  0  0  0  0
 33 34  1  0  0  0  0
 34 36  1  0  0  0  0
 36 35  1  6  0  0  0
 36 38  1  0  0  0  0
 36 37  1  0  0  0  0
 38 37  1  0  0  0  0
 39 54  1  6  0  0  0
 39 41  1  0  0  0  0
 39  4  1  0  0  0  0
 40 41  2  0  0  0  0
 41 42  1  0  0  0  0
 42 44  1  0  0  0  0
 44 43  1  6  0  0  0
 44 53  1  0  0  0  0
 46 50  1  0  0  0  0
 47 45  1  1  0  0  0
 47 49  1  0  0  0  0
 48 47  1  0  0  0  0
 48 51  1  0  0  0  0
 49 50  1  0  0  0  0
 51 44  1  1  0  0  0
 51 46  1  0  0  0  0
 53 52  2  0  0  0  0
 55 57  1  0  0  0  0
 56 55  2  0  0  0  0
 57 54  1  0  0  0  0
 58 57  2  0  0  0  0
 59 58  1  0  0  0  0
 60 56  1  0  0  0  0
 60 59  2  0  0  0  0
M  END
>  <MODEL>
8

>  <REMARK>
 VINA RESULT:      -0.9      3.078      7.395
  Name = 
  24 active torsions:
  status: ('A' for Active; 'I' for Inactive)
    1  A    between atoms: O_3  and  C_5
    2  A    between atoms: O_3  and  C_51
    3  A    between atoms: C_5  and  C_55
    4  A    between atoms: N_7  and  C_12
    5  A    between atoms: C_10  and  C_34
    6  A    between atoms: C_10  and  C_50
    7  A    between atoms: C_11  and  C_55
    8  A    between atoms: C_12  and  C_50
    9  A    between atoms: C_15  and  O_45
   10  A    between atoms: C_15  and  C_51
   11  A    between atoms: C_16  and  C_31
   12  A    between atoms: N_17  and  C_27
   13  A    between atoms: C_19  and  C_36
   14  A    between atoms: N_22  and  C_27
   15  A    between atoms: C_26  and  C_34
   16  A    between atoms: C_26  and  O_45
   17  A    between atoms: C_27  and  C_52
   18  A    between atoms: C_31  and  C_38
   19  A    between atoms: C_33  and  N_56
   20  A    between atoms: N_35  and  N_59
   21  A    between atoms: C_36  and  N_56
   22  A    between atoms: C_36  and  N_58
   23  A    between atoms: C_38  and  O_48
   24  A    between atoms: O_48  and  C_49
                            x       y       z     vdW  Elec       q    Type
                         _______ _______ _______ _____ _____    ______ ____

>  <TORSDO>
F 24

$$$$
