=
 OpenBabel11052412063D

 50 56  0  0  1  0  0  0  0  0999 V2000
  160.9270  201.4290  145.5990 C   0  0  0  0  0  3  0  0  0  0  0  0
  161.5980  207.0610  153.3600 C   0  0  1  0  0  3  0  0  0  0  0  0
  160.2590  206.2410  149.4040 C   0  0  2  0  0  3  0  0  0  0  0  0
  158.7870  206.1100  149.7550 C   0  0  0  0  0  1  0  0  0  0  0  0
  162.1330  204.4910  152.8350 S   0  0  0  0  0  0  0  0  0  0  0  0
  161.2840  205.6650  153.8520 C   0  0  2  0  0  3  0  0  0  0  0  0
  160.4760  205.7320  148.0460 N   0  0  1  0  0  0  0  0  0  0  0  0
  160.7980  206.8130  147.1200 C   0  0  2  0  0  3  0  0  0  0  0  0
  161.2650  201.2480  146.9380 C   0  0  0  0  0  0  0  0  0  0  0  0
  160.8130  202.7150  145.0730 C   0  0  0  0  0  3  0  0  0  0  0  0
  161.1650  205.3850  151.5790 C   0  0  0  0  0  0  0  0  0  0  0  0
  161.0250  203.8590  145.8630 C   0  0  0  0  0  0  0  0  0  0  0  0
  160.7740  206.3590  145.7270 N   0  0  0  0  0  0  0  0  0  0  0  0
  160.8870  205.1820  145.1570 C   0  0  0  0  0  0  0  0  0  0  0  0
  161.6240  204.8280  148.1150 C   0  0  2  0  0  3  0  0  0  0  0  0
  161.0810  205.3490  150.2540 C   0  0  0  0  0  0  0  0  0  0  0  0
  161.3710  203.6670  147.2250 C   0  0  0  0  0  0  0  0  0  0  0  0
  161.8050  204.4810  149.4760 O   0  0  0  0  0  0  0  0  0  0  0  0
  161.4910  202.3680  147.7430 C   0  0  0  0  0  3  0  0  0  0  0  0
  160.5420  206.2150  152.6830 C   0  0  2  0  0  3  0  0  0  0  0  0
  161.6710  198.7640  146.6370 C   0  0  0  0  0  1  0  0  0  0  0  0
  161.3690  199.9220  147.4630 N   0  0  0  0  0  2  0  0  0  0  0  0
  160.8430  205.1310  143.7580 O   0  0  0  0  0  0  0  0  0  0  0  0
  161.7200  205.8870  142.9350 C   0  0  0  0  0  1  0  0  0  0  0  0
  162.1110  207.5450  147.4470 C   0  0  0  0  0  2  0  0  0  0  0  0
  162.0040  209.8420  148.5150 C   0  0  0  0  0  0  0  0  0  0  0  0
  161.9370  208.9880  147.3680 N   0  0  0  0  0  2  0  0  0  0  0  0
  162.1300  209.3390  149.7020 N   0  0  0  0  0  2  0  0  0  0  0  0
  162.4370  213.5020  148.5830 C   0  0  0  0  0  2  0  0  0  0  0  0
  160.0120  213.9730  148.2680 C   0  0  0  0  0  1  0  0  0  0  0  0
  161.0310  211.8680  147.6120 N   0  0  0  0  0  0  0  0  0  0  0  0
  161.2310  213.3090  147.6590 C   0  0  2  0  0  3  0  0  0  0  0  0
  161.9240  211.2960  148.3400 C   0  0  0  0  0  0  0  0  0  0  0  0
  162.7930  212.1810  148.9460 O   0  0  0  0  0  0  0  0  0  0  0  0
  160.9340  208.0710  154.2750 C   0  0  0  0  0  2  0  0  0  0  0  0
  161.5650  208.0140  155.6580 C   0  0  0  0  0  2  0  0  0  0  0  0
  161.3490  209.2700  156.3560 N   0  0  0  0  0  2  0  0  0  0  0  0
  159.9120  209.5010  156.4000 C   0  0  0  0  0  2  0  0  0  0  0  0
  159.6300  210.9410  156.7990 C   0  0  2  0  0  3  0  0  0  0  0  0
  157.8290  213.2500  151.2240 C   0  0  0  0  0  1  0  0  0  0  0  0
  157.4450  211.9660  156.1570 C   0  0  0  0  0  3  0  0  0  0  0  0
  158.3100  212.4160  153.5470 C   0  0  0  0  0  0  0  0  0  0  0  0
  159.1770  211.8180  154.4750 C   0  0  0  0  0  3  0  0  0  0  0  0
  157.0520  212.7680  153.9420 N   0  0  0  0  0  0  0  0  0  0  0  0
  158.7420  211.5970  155.7890 C   0  0  0  0  0  0  0  0  0  0  0  0
  158.7370  212.6570  152.1930 N   0  0  0  0  0  0  0  0  0  0  0  0
  156.6070  212.5570  155.2100 C   0  0  0  0  0  3  0  0  0  0  0  0
  160.0810  212.3160  151.7470 C   0  0  0  0  0  1  0  0  0  0  0  0
  160.8750  211.6810  156.9360 N   0  0  0  0  0  2  0  0  0  0  0  0
  160.5320  213.0200  157.1550 N   0  0  0  0  0  1  0  0  0  0  0  0
  1  9  1  0  0  0  0
  2  6  1  0  0  0  0
  2 35  1  1  0  0  0
  3  4  1  1  0  0  0
  3 16  1  0  0  0  0
  6  5  1  6  0  0  0
  7 15  1  0  0  0  0
  7  3  1  0  0  0  0
  8 25  1  0  0  0  0
  8  7  1  0  0  0  0
  9 22  1  0  0  0  0
  9 19  2  0  0  0  0
 10  1  2  0  0  0  0
 10 12  1  0  0  0  0
 11 20  1  0  0  0  0
 11  5  1  0  0  0  0
 12 17  2  0  0  0  0
 13  8  1  0  0  0  0
 14 13  2  0  0  0  0
 14 12  1  0  0  0  0
 15 18  1  0  0  0  0
 16 11  2  0  0  0  0
 17 19  1  0  0  0  0
 17 15  1  0  0  0  0
 18 16  1  0  0  0  0
 20  2  1  0  0  0  0
 20  6  1  0  0  0  0
 21 22  1  0  0  0  0
 23 14  1  0  0  0  0
 24 23  1  0  0  0  0
 26 28  2  0  0  0  0
 27 25  1  0  0  0  0
 27 26  1  0  0  0  0
 29 34  1  0  0  0  0
 31 32  1  0  0  0  0
 31 33  2  0  0  0  0
 32 30  1  0  0  0  0
 32 29  1  0  0  0  0
 33 26  1  0  0  0  0
 33 34  1  0  0  0  0
 35 36  1  0  0  0  0
 36 37  1  0  0  0  0
 37 38  1  0  0  0  0
 38 39  1  0  0  0  0
 39 49  1  0  0  0  0
 40 46  1  0  0  0  0
 42 44  2  0  0  0  0
 42 43  1  0  0  0  0
 43 45  2  0  0  0  0
 44 47  1  0  0  0  0
 45 41  1  0  0  0  0
 45 39  1  0  0  0  0
 46 42  1  0  0  0  0
 47 41  2  0  0  0  0
 48 46  1  0  0  0  0
 49 50  1  0  0  0  0
M  END
>  <MODEL>
1

>  <REMARK>
 VINA RESULT:      -1.1      0.000      0.000
  Name = 
  12 active torsions:
  status: ('A' for Active; 'I' for Inactive)
    1  A    between atoms: C_2  and  C_42
    2  A    between atoms: N_6  and  C_16
    3  A    between atoms: C_8  and  C_44
    4  A    between atoms: N_9  and  C_25
    5  A    between atoms: C_10  and  N_19
    6  A    between atoms: C_10  and  C_29
    7  A    between atoms: O_14  and  C_31
    8  A    between atoms: C_15  and  C_25
    9  A    between atoms: N_19  and  C_20
   10  A    between atoms: C_20  and  C_42
   11  A    between atoms: N_23  and  C_29
   12  A    between atoms: C_29  and  C_37
                            x       y       z     vdW  Elec       q    Type
                         _______ _______ _______ _____ _____    ______ ____

>  <TORSDO>
F 12

$$$$
=
 OpenBabel11052412063D

 50 56  0  0  1  0  0  0  0  0999 V2000
  160.7210  201.6520  145.2420 C   0  0  0  0  0  3  0  0  0  0  0  0
  161.5360  206.4980  153.5050 C   0  0  1  0  0  3  0  0  0  0  0  0
  160.2660  206.1360  149.4590 C   0  0  2  0  0  3  0  0  0  0  0  0
  158.7780  206.0770  149.7600 C   0  0  0  0  0  1  0  0  0  0  0  0
  161.9110  203.9540  152.7580 S   0  0  0  0  0  0  0  0  0  0  0  0
  161.1130  205.0890  153.8580 C   0  0  2  0  0  3  0  0  0  0  0  0
  160.4890  205.7370  148.0650 N   0  0  1  0  0  0  0  0  0  0  0  0
  160.9120  206.8730  147.2510 C   0  0  2  0  0  3  0  0  0  0  0  0
  161.0060  201.3280  146.5670 C   0  0  0  0  0  0  0  0  0  0  0  0
  160.7110  202.9860  144.8350 C   0  0  0  0  0  3  0  0  0  0  0  0
  161.0450  205.0250  151.5660 C   0  0  0  0  0  0  0  0  0  0  0  0
  160.9760  204.0350  145.7320 C   0  0  0  0  0  0  0  0  0  0  0  0
  160.9000  206.5500  145.8220 N   0  0  0  0  0  0  0  0  0  0  0  0
  160.9500  205.4230  145.1480 C   0  0  0  0  0  0  0  0  0  0  0  0
  161.5710  204.7530  148.0780 C   0  0  2  0  0  3  0  0  0  0  0  0
  160.9990  205.1140  150.2430 C   0  0  0  0  0  0  0  0  0  0  0  0
  161.2660  203.6970  147.0780 C   0  0  0  0  0  0  0  0  0  0  0  0
  161.6860  204.2720  149.4050 O   0  0  0  0  0  0  0  0  0  0  0  0
  161.2820  202.3510  147.4770 C   0  0  0  0  0  3  0  0  0  0  0  0
  160.4460  205.7940  152.7270 C   0  0  2  0  0  3  0  0  0  0  0  0
  161.8250  198.9410  146.3300 C   0  0  0  0  0  1  0  0  0  0  0  0
  161.0030  199.9560  146.9700 N   0  0  0  0  0  2  0  0  0  0  0  0
  160.9460  205.5030  143.7500 O   0  0  0  0  0  0  0  0  0  0  0  0
  162.1030  205.8350  142.9970 C   0  0  0  0  0  1  0  0  0  0  0  0
  162.2610  207.4770  147.6760 C   0  0  0  0  0  2  0  0  0  0  0  0
  162.0960  209.7720  148.7410 C   0  0  0  0  0  0  0  0  0  0  0  0
  162.2300  208.9300  147.5910 N   0  0  0  0  0  2  0  0  0  0  0  0
  161.8960  209.2570  149.9120 N   0  0  0  0  0  2  0  0  0  0  0  0
  161.6560  213.4310  148.8320 C   0  0  0  0  0  2  0  0  0  0  0  0
  162.5490  213.7740  146.5330 C   0  0  0  0  0  1  0  0  0  0  0  0
  163.0710  211.8070  147.8590 N   0  0  0  0  0  0  0  0  0  0  0  0
  162.8700  213.2470  147.9180 C   0  0  2  0  0  3  0  0  0  0  0  0
  162.1800  211.2290  148.5850 C   0  0  0  0  0  0  0  0  0  0  0  0
  161.3100  212.1080  149.1960 O   0  0  0  0  0  0  0  0  0  0  0  0
  160.9150  207.4650  154.4930 C   0  0  0  0  0  2  0  0  0  0  0  0
  161.8170  208.6760  154.6740 C   0  0  0  0  0  2  0  0  0  0  0  0
  161.3110  209.7950  153.8960 N   0  0  0  0  0  2  0  0  0  0  0  0
  161.6300  211.0120  154.6290 C   0  0  0  0  0  2  0  0  0  0  0  0
  161.1460  210.8940  156.0660 C   0  0  2  0  0  3  0  0  0  0  0  0
  155.2640  213.1400  156.0970 C   0  0  0  0  0  1  0  0  0  0  0  0
  160.2940  213.0500  156.9960 C   0  0  0  0  0  3  0  0  0  0  0  0
  157.6880  212.4810  156.1930 C   0  0  0  0  0  0  0  0  0  0  0  0
  158.7160  211.5660  155.9200 C   0  0  0  0  0  3  0  0  0  0  0  0
  157.9840  213.6390  156.8510 N   0  0  0  0  0  0  0  0  0  0  0  0
  160.0290  211.8560  156.3190 C   0  0  0  0  0  0  0  0  0  0  0  0
  156.3340  212.2060  155.7870 N   0  0  0  0  0  0  0  0  0  0  0  0
  159.2490  213.9370  157.2540 C   0  0  0  0  0  3  0  0  0  0  0  0
  155.9890  210.9910  155.0620 C   0  0  0  0  0  1  0  0  0  0  0  0
  162.2430  211.1370  156.9900 N   0  0  0  0  0  2  0  0  0  0  0  0
  162.8390  209.8970  157.2490 N   0  0  0  0  0  1  0  0  0  0  0  0
  1  9  1  0  0  0  0
  2  6  1  0  0  0  0
  2 35  1  1  0  0  0
  3  4  1  1  0  0  0
  3 16  1  0  0  0  0
  6  5  1  6  0  0  0
  7 15  1  0  0  0  0
  7  3  1  0  0  0  0
  8 25  1  0  0  0  0
  8  7  1  0  0  0  0
  9 22  1  0  0  0  0
  9 19  2  0  0  0  0
 10  1  2  0  0  0  0
 10 12  1  0  0  0  0
 11 20  1  0  0  0  0
 11  5  1  0  0  0  0
 12 17  2  0  0  0  0
 13  8  1  0  0  0  0
 14 12  1  0  0  0  0
 14 13  2  0  0  0  0
 15 18  1  0  0  0  0
 16 11  2  0  0  0  0
 17 19  1  0  0  0  0
 17 15  1  0  0  0  0
 18 16  1  0  0  0  0
 20  2  1  0  0  0  0
 20  6  1  0  0  0  0
 21 22  1  0  0  0  0
 23 14  1  0  0  0  0
 24 23  1  0  0  0  0
 26 28  2  0  0  0  0
 27 25  1  0  0  0  0
 27 26  1  0  0  0  0
 29 34  1  0  0  0  0
 30 32  1  0  0  0  0
 31 32  1  0  0  0  0
 31 33  2  0  0  0  0
 32 29  1  0  0  0  0
 33 26  1  0  0  0  0
 33 34  1  0  0  0  0
 35 36  1  0  0  0  0
 37 38  1  0  0  0  0
 37 36  1  0  0  0  0
 38 39  1  0  0  0  0
 39 45  1  0  0  0  0
 39 49  1  0  0  0  0
 41 47  1  0  0  0  0
 42 44  1  0  0  0  0
 43 42  2  0  0  0  0
 43 45  1  0  0  0  0
 44 47  2  0  0  0  0
 45 41  2  0  0  0  0
 46 40  1  0  0  0  0
 46 42  1  0  0  0  0
 48 46  1  0  0  0  0
 49 50  1  0  0  0  0
M  END
>  <MODEL>
2

>  <REMARK>
 VINA RESULT:      -0.7      1.418      1.916
  Name = 
  12 active torsions:
  status: ('A' for Active; 'I' for Inactive)
    1  A    between atoms: C_2  and  C_42
    2  A    between atoms: N_6  and  C_16
    3  A    between atoms: C_8  and  C_44
    4  A    between atoms: N_9  and  C_25
    5  A    between atoms: C_10  and  N_19
    6  A    between atoms: C_10  and  C_29
    7  A    between atoms: O_14  and  C_31
    8  A    between atoms: C_15  and  C_25
    9  A    between atoms: N_19  and  C_20
   10  A    between atoms: C_20  and  C_42
   11  A    between atoms: N_23  and  C_29
   12  A    between atoms: C_29  and  C_37
                            x       y       z     vdW  Elec       q    Type
                         _______ _______ _______ _____ _____    ______ ____

>  <TORSDO>
F 12

$$$$
=
 OpenBabel11052412063D

 50 56  0  0  1  0  0  0  0  0999 V2000
  161.4930  203.4750  145.9240 C   0  0  0  0  0  3  0  0  0  0  0  0
  160.8310  212.6460  148.7300 C   0  0  1  0  0  3  0  0  0  0  0  0
  162.1960  208.6450  149.2210 C   0  0  2  0  0  3  0  0  0  0  0  0
  163.6630  208.9400  148.9570 C   0  0  0  0  0  1  0  0  0  0  0  0
  160.2630  211.3090  146.4800 S   0  0  0  0  0  0  0  0  0  0  0  0
  161.1200  212.6570  147.2440 C   0  0  2  0  0  3  0  0  0  0  0  0
  161.9850  207.1940  149.1860 N   0  0  1  0  0  0  0  0  0  0  0  0
  161.6880  206.6700  150.5160 C   0  0  2  0  0  3  0  0  0  0  0  0
  161.1390  204.6810  145.3230 C   0  0  0  0  0  0  0  0  0  0  0  0
  161.6320  203.3980  147.3100 C   0  0  0  0  0  3  0  0  0  0  0  0
  161.2570  210.4170  147.7190 C   0  0  0  0  0  0  0  0  0  0  0  0
  161.4290  204.5170  148.1370 C   0  0  0  0  0  0  0  0  0  0  0  0
  161.7190  205.2050  150.5400 N   0  0  0  0  0  0  0  0  0  0  0  0
  161.5940  204.2820  149.6150 C   0  0  0  0  0  0  0  0  0  0  0  0
  160.8220  206.9600  148.3290 C   0  0  2  0  0  3  0  0  0  0  0  0
  161.3530  209.1540  148.1150 C   0  0  0  0  0  0  0  0  0  0  0  0
  161.0670  205.7400  147.5170 C   0  0  0  0  0  0  0  0  0  0  0  0
  160.6230  208.1320  147.5610 O   0  0  0  0  0  0  0  0  0  0  0  0
  160.9230  205.8060  146.1220 C   0  0  0  0  0  3  0  0  0  0  0  0
  161.8810  211.7340  148.1330 C   0  0  2  0  0  3  0  0  0  0  0  0
  161.6130  205.7960  143.0960 C   0  0  0  0  0  1  0  0  0  0  0  0
  161.0100  204.7450  143.9000 N   0  0  0  0  0  2  0  0  0  0  0  0
  161.6500  202.9430  150.0230 O   0  0  0  0  0  0  0  0  0  0  0  0
  161.0130  202.4720  151.2010 C   0  0  0  0  0  1  0  0  0  0  0  0
  160.3830  207.2120  151.1230 C   0  0  0  0  0  2  0  0  0  0  0  0
  160.7340  209.0980  152.7810 C   0  0  0  0  0  0  0  0  0  0  0  0
  160.6030  207.7050  152.4750 N   0  0  0  0  0  2  0  0  0  0  0  0
  160.7570  209.9790  151.8330 N   0  0  0  0  0  2  0  0  0  0  0  0
  160.4210  210.6750  156.0990 C   0  0  0  0  0  2  0  0  0  0  0  0
  162.8340  210.4080  156.6500 C   0  0  0  0  0  1  0  0  0  0  0  0
  161.7100  209.0280  154.9970 N   0  0  0  0  0  0  0  0  0  0  0  0
  161.5590  209.6700  156.2950 C   0  0  2  0  0  3  0  0  0  0  0  0
  160.8480  209.5230  154.1810 C   0  0  0  0  0  0  0  0  0  0  0  0
  160.0470  210.4940  154.7450 O   0  0  0  0  0  0  0  0  0  0  0  0
  161.5020  213.8440  149.3750 C   0  0  0  0  0  2  0  0  0  0  0  0
  160.7050  214.2940  150.5890 C   0  0  0  0  0  2  0  0  0  0  0  0
  159.3440  213.7910  150.5050 N   0  0  0  0  0  2  0  0  0  0  0  0
  158.7050  214.4530  149.3760 C   0  0  0  0  0  2  0  0  0  0  0  0
  157.2320  214.0820  149.3220 C   0  0  2  0  0  3  0  0  0  0  0  0
  157.0100  214.0410  155.6150 C   0  0  0  0  0  1  0  0  0  0  0  0
  155.2590  214.3760  150.8250 C   0  0  0  0  0  3  0  0  0  0  0  0
  156.8280  214.0770  153.1080 C   0  0  0  0  0  0  0  0  0  0  0  0
  157.4220  213.9960  151.8390 C   0  0  0  0  0  3  0  0  0  0  0  0
  155.4850  214.3030  153.2010 N   0  0  0  0  0  0  0  0  0  0  0  0
  156.6300  214.1400  150.6900 C   0  0  0  0  0  0  0  0  0  0  0  0
  157.6210  213.9270  154.3000 N   0  0  0  0  0  0  0  0  0  0  0  0
  154.6990  214.4530  152.1000 C   0  0  0  0  0  3  0  0  0  0  0  0
  159.0510  213.6610  154.2340 C   0  0  0  0  0  1  0  0  0  0  0  0
  157.0650  212.7540  148.7510 N   0  0  0  0  0  2  0  0  0  0  0  0
  157.5060  212.8230  147.4240 N   0  0  0  0  0  1  0  0  0  0  0  0
  1 10  1  0  0  0  0
  2 35  1  1  0  0  0
  3  4  1  6  0  0  0
  5 11  1  0  0  0  0
  6  5  1  6  0  0  0
  6 20  1  0  0  0  0
  6  2  1  0  0  0  0
  7  3  1  0  0  0  0
  7  8  1  0  0  0  0
  8 13  1  0  0  0  0
  8 25  1  0  0  0  0
  9  1  2  0  0  0  0
  9 19  1  0  0  0  0
 10 12  2  0  0  0  0
 11 16  2  0  0  0  0
 11 20  1  0  0  0  0
 12 14  1  0  0  0  0
 14 23  1  0  0  0  0
 14 13  2  0  0  0  0
 15  7  1  0  0  0  0
 16  3  1  0  0  0  0
 17 12  1  0  0  0  0
 17 15  1  0  0  0  0
 18 16  1  0  0  0  0
 18 15  1  0  0  0  0
 19 17  2  0  0  0  0
 20  2  1  0  0  0  0
 21 22  1  0  0  0  0
 22  9  1  0  0  0  0
 23 24  1  0  0  0  0
 25 27  1  0  0  0  0
 26 33  1  0  0  0  0
 27 26  1  0  0  0  0
 28 26  2  0  0  0  0
 29 32  1  0  0  0  0
 31 32  1  0  0  0  0
 32 30  1  0  0  0  0
 33 34  1  0  0  0  0
 33 31  2  0  0  0  0
 34 29  1  0  0  0  0
 35 36  1  0  0  0  0
 37 36  1  0  0  0  0
 38 37  1  0  0  0  0
 39 38  1  0  0  0  0
 39 45  1  0  0  0  0
 41 47  1  0  0  0  0
 42 44  1  0  0  0  0
 42 46  1  0  0  0  0
 43 42  2  0  0  0  0
 45 41  2  0  0  0  0
 45 43  1  0  0  0  0
 46 40  1  0  0  0  0
 47 44  2  0  0  0  0
 48 46  1  0  0  0  0
 49 39  1  0  0  0  0
 50 49  1  0  0  0  0
M  END
>  <MODEL>
3

>  <REMARK>
 VINA RESULT:      -0.7      2.680      6.147
  Name = 
  12 active torsions:
  status: ('A' for Active; 'I' for Inactive)
    1  A    between atoms: C_2  and  C_42
    2  A    between atoms: N_6  and  C_16
    3  A    between atoms: C_8  and  C_44
    4  A    between atoms: N_9  and  C_25
    5  A    between atoms: C_10  and  N_19
    6  A    between atoms: C_10  and  C_29
    7  A    between atoms: O_14  and  C_31
    8  A    between atoms: C_15  and  C_25
    9  A    between atoms: N_19  and  C_20
   10  A    between atoms: C_20  and  C_42
   11  A    between atoms: N_23  and  C_29
   12  A    between atoms: C_29  and  C_37
                            x       y       z     vdW  Elec       q    Type
                         _______ _______ _______ _____ _____    ______ ____

>  <TORSDO>
F 12

$$$$
=
 OpenBabel11052412063D

 50 56  0  0  1  0  0  0  0  0999 V2000
  161.7310  203.1490  146.3420 C   0  0  0  0  0  3  0  0  0  0  0  0
  160.9400  212.2890  149.2130 C   0  0  1  0  0  3  0  0  0  0  0  0
  162.1400  208.2480  149.7950 C   0  0  2  0  0  3  0  0  0  0  0  0
  163.6340  208.5090  149.7200 C   0  0  0  0  0  1  0  0  0  0  0  0
  160.6230  211.0020  146.8860 S   0  0  0  0  0  0  0  0  0  0  0  0
  161.4100  212.3160  147.7750 C   0  0  2  0  0  3  0  0  0  0  0  0
  161.9010  206.8030  149.7070 N   0  0  1  0  0  0  0  0  0  0  0  0
  161.4290  206.2670  150.9800 C   0  0  2  0  0  3  0  0  0  0  0  0
  161.4820  204.3730  145.7230 C   0  0  0  0  0  0  0  0  0  0  0  0
  161.6940  203.0470  147.7320 C   0  0  0  0  0  3  0  0  0  0  0  0
  161.4350  210.0660  148.2210 C   0  0  0  0  0  0  0  0  0  0  0  0
  161.4170  204.1580  148.5480 C   0  0  0  0  0  0  0  0  0  0  0  0
  161.4220  204.8010  150.9810 N   0  0  0  0  0  0  0  0  0  0  0  0
  161.3920  203.8950  150.0310 C   0  0  0  0  0  0  0  0  0  0  0  0
  160.8480  206.6120  148.7090 C   0  0  2  0  0  3  0  0  0  0  0  0
  161.4520  208.7950  148.6020 C   0  0  0  0  0  0  0  0  0  0  0  0
  161.1630  205.3990  147.9120 C   0  0  0  0  0  0  0  0  0  0  0  0
  160.7730  207.8000  147.9440 O   0  0  0  0  0  0  0  0  0  0  0  0
  161.1940  205.4900  146.5110 C   0  0  0  0  0  3  0  0  0  0  0  0
  162.0340  211.3600  148.7340 C   0  0  2  0  0  3  0  0  0  0  0  0
  161.0110  205.5980  143.5550 C   0  0  0  0  0  1  0  0  0  0  0  0
  161.5320  204.4610  144.2970 N   0  0  0  0  0  2  0  0  0  0  0  0
  161.3660  202.5500  150.4170 O   0  0  0  0  0  0  0  0  0  0  0  0
  160.3190  201.6640  150.0460 C   0  0  0  0  0  1  0  0  0  0  0  0
  160.0710  206.8320  151.4320 C   0  0  0  0  0  2  0  0  0  0  0  0
  160.7690  207.2050  153.8400 C   0  0  0  0  0  0  0  0  0  0  0  0
  160.2250  207.6800  152.6040 N   0  0  0  0  0  2  0  0  0  0  0  0
  161.0600  205.9530  153.9920 N   0  0  0  0  0  2  0  0  0  0  0  0
  160.6340  209.2650  156.8950 C   0  0  0  0  0  2  0  0  0  0  0  0
  161.7740  211.2140  155.8450 C   0  0  0  0  0  1  0  0  0  0  0  0
  161.9950  208.9520  154.9880 N   0  0  0  0  0  0  0  0  0  0  0  0
  161.9120  209.7470  156.2040 C   0  0  2  0  0  3  0  0  0  0  0  0
  160.9910  208.1480  154.9430 C   0  0  0  0  0  0  0  0  0  0  0  0
  160.1430  208.2630  156.0240 O   0  0  0  0  0  0  0  0  0  0  0  0
  161.5520  213.4590  149.9580 C   0  0  0  0  0  2  0  0  0  0  0  0
  160.4690  214.4530  150.3460 C   0  0  0  0  0  2  0  0  0  0  0  0
  160.0510  214.2230  151.7190 N   0  0  0  0  0  2  0  0  0  0  0  0
  158.8080  213.4660  151.6730 C   0  0  0  0  0  2  0  0  0  0  0  0
  158.8610  212.3190  152.6690 C   0  0  2  0  0  3  0  0  0  0  0  0
  154.3540  214.4400  156.5200 C   0  0  0  0  0  1  0  0  0  0  0  0
  158.8950  212.5310  155.1570 C   0  0  0  0  0  3  0  0  0  0  0  0
  156.3120  213.5750  155.2020 C   0  0  0  0  0  0  0  0  0  0  0  0
  156.9050  213.2350  153.9760 C   0  0  0  0  0  3  0  0  0  0  0  0
  157.0150  213.3880  156.3560 N   0  0  0  0  0  0  0  0  0  0  0  0
  158.2070  212.7150  153.9540 C   0  0  0  0  0  0  0  0  0  0  0  0
  154.9780  214.1150  155.2480 N   0  0  0  0  0  0  0  0  0  0  0  0
  158.2780  212.8780  156.3590 C   0  0  0  0  0  3  0  0  0  0  0  0
  154.2110  214.3500  154.0320 C   0  0  0  0  0  1  0  0  0  0  0  0
  160.2400  211.9180  152.9040 N   0  0  0  0  0  2  0  0  0  0  0  0
  160.4410  210.7200  152.2090 N   0  0  0  0  0  1  0  0  0  0  0  0
  1 10  1  0  0  0  0
  2 35  1  1  0  0  0
  3  4  1  6  0  0  0
  5 11  1  0  0  0  0
  6  5  1  6  0  0  0
  6 20  1  0  0  0  0
  6  2  1  0  0  0  0
  7  3  1  0  0  0  0
  7  8  1  0  0  0  0
  8 13  1  0  0  0  0
  8 25  1  0  0  0  0
  9  1  2  0  0  0  0
  9 19  1  0  0  0  0
 10 12  2  0  0  0  0
 11 16  2  0  0  0  0
 11 20  1  0  0  0  0
 12 14  1  0  0  0  0
 14 23  1  0  0  0  0
 14 13  2  0  0  0  0
 15  7  1  0  0  0  0
 16  3  1  0  0  0  0
 17 12  1  0  0  0  0
 17 15  1  0  0  0  0
 18 16  1  0  0  0  0
 18 15  1  0  0  0  0
 19 17  2  0  0  0  0
 20  2  1  0  0  0  0
 21 22  1  0  0  0  0
 22  9  1  0  0  0  0
 24 23  1  0  0  0  0
 25 27  1  0  0  0  0
 26 28  2  0  0  0  0
 26 33  1  0  0  0  0
 27 26  1  0  0  0  0
 30 32  1  0  0  0  0
 31 32  1  0  0  0  0
 32 29  1  0  0  0  0
 33 31  2  0  0  0  0
 33 34  1  0  0  0  0
 34 29  1  0  0  0  0
 35 36  1  0  0  0  0
 36 37  1  0  0  0  0
 38 37  1  0  0  0  0
 38 39  1  0  0  0  0
 39 49  1  0  0  0  0
 39 45  1  0  0  0  0
 41 47  1  0  0  0  0
 42 46  1  0  0  0  0
 42 44  1  0  0  0  0
 43 42  2  0  0  0  0
 44 47  2  0  0  0  0
 45 43  1  0  0  0  0
 45 41  2  0  0  0  0
 46 40  1  0  0  0  0
 48 46  1  0  0  0  0
 50 49  1  0  0  0  0
M  END
>  <MODEL>
4

>  <REMARK>
 VINA RESULT:      -0.3      2.578      5.761
  Name = 
  12 active torsions:
  status: ('A' for Active; 'I' for Inactive)
    1  A    between atoms: C_2  and  C_42
    2  A    between atoms: N_6  and  C_16
    3  A    between atoms: C_8  and  C_44
    4  A    between atoms: N_9  and  C_25
    5  A    between atoms: C_10  and  N_19
    6  A    between atoms: C_10  and  C_29
    7  A    between atoms: O_14  and  C_31
    8  A    between atoms: C_15  and  C_25
    9  A    between atoms: N_19  and  C_20
   10  A    between atoms: C_20  and  C_42
   11  A    between atoms: N_23  and  C_29
   12  A    between atoms: C_29  and  C_37
                            x       y       z     vdW  Elec       q    Type
                         _______ _______ _______ _____ _____    ______ ____

>  <TORSDO>
F 12

$$$$
=
 OpenBabel11052412063D

 50 56  0  0  1  0  0  0  0  0999 V2000
  158.8720  214.0340  153.4170 C   0  0  0  0  0  3  0  0  0  0  0  0
  161.8960  205.0000  152.1300 C   0  0  1  0  0  3  0  0  0  0  0  0
  160.4090  208.1660  154.5550 C   0  0  2  0  0  3  0  0  0  0  0  0
  159.0340  207.5640  154.7840 C   0  0  0  0  0  1  0  0  0  0  0  0
  161.2040  207.0140  150.5060 S   0  0  0  0  0  0  0  0  0  0  0  0
  160.9670  205.3240  150.9810 C   0  0  2  0  0  3  0  0  0  0  0  0
  160.3950  209.5690  154.9830 N   0  0  1  0  0  0  0  0  0  0  0  0
  161.1960  209.7630  156.1880 C   0  0  2  0  0  3  0  0  0  0  0  0
  159.0640  213.1910  152.3240 C   0  0  0  0  0  0  0  0  0  0  0  0
  159.3710  213.6810  154.6700 C   0  0  0  0  0  3  0  0  0  0  0  0
  160.7780  207.2140  152.2660 C   0  0  0  0  0  0  0  0  0  0  0  0
  160.0680  212.4780  154.8760 C   0  0  0  0  0  0  0  0  0  0  0  0
  160.9940  211.0950  156.7650 N   0  0  0  0  0  0  0  0  0  0  0  0
  160.5660  212.2360  156.2770 C   0  0  0  0  0  0  0  0  0  0  0  0
  161.0000  210.3450  153.9000 C   0  0  2  0  0  3  0  0  0  0  0  0
  160.7140  208.2400  153.1070 C   0  0  0  0  0  0  0  0  0  0  0  0
  160.2600  211.6250  153.7600 C   0  0  0  0  0  0  0  0  0  0  0  0
  160.9750  209.5360  152.7380 O   0  0  0  0  0  0  0  0  0  0  0  0
  159.7610  211.9930  152.5000 C   0  0  0  0  0  3  0  0  0  0  0  0
  160.5840  205.7150  152.3660 C   0  0  2  0  0  3  0  0  0  0  0  0
  159.2720  214.3830  150.0970 C   0  0  0  0  0  1  0  0  0  0  0  0
  158.5380  213.5640  151.0480 N   0  0  0  0  0  2  0  0  0  0  0  0
  160.5320  213.3390  157.1400 O   0  0  0  0  0  0  0  0  0  0  0  0
  159.4330  214.2360  157.1980 C   0  0  0  0  0  1  0  0  0  0  0  0
  162.6920  209.4560  156.0000 C   0  0  0  0  0  2  0  0  0  0  0  0
  164.4510  211.2640  155.7430 C   0  0  0  0  0  0  0  0  0  0  0  0
  163.5140  210.5290  156.5390 N   0  0  0  0  0  2  0  0  0  0  0  0
  164.6720  210.9270  154.5130 N   0  0  0  0  0  2  0  0  0  0  0  0
  165.5070  214.4530  157.2600 C   0  0  0  0  0  2  0  0  0  0  0  0
  167.7360  214.4470  156.1510 C   0  0  0  0  0  1  0  0  0  0  0  0
  166.4410  212.4210  156.4950 N   0  0  0  0  0  0  0  0  0  0  0  0
  166.8240  213.6910  157.0960 C   0  0  2  0  0  3  0  0  0  0  0  0
  165.1660  212.4020  156.3320 C   0  0  0  0  0  0  0  0  0  0  0  0
  164.5370  213.5530  156.7570 O   0  0  0  0  0  0  0  0  0  0  0  0
  161.7510  203.5340  152.4880 C   0  0  0  0  0  2  0  0  0  0  0  0
  162.3050  202.6680  151.3670 C   0  0  0  0  0  2  0  0  0  0  0  0
  161.3500  201.6280  151.0230 N   0  0  0  0  0  2  0  0  0  0  0  0
  161.6860  201.1540  149.6880 C   0  0  0  0  0  2  0  0  0  0  0  0
  160.4400  201.1220  148.8190 C   0  0  2  0  0  3  0  0  0  0  0  0
  162.3950  205.8380  145.1330 C   0  0  0  0  0  1  0  0  0  0  0  0
  160.2610  201.3530  146.3390 C   0  0  0  0  0  3  0  0  0  0  0  0
  161.5060  203.8450  146.3820 C   0  0  0  0  0  0  0  0  0  0  0  0
  161.2940  203.1520  147.5830 C   0  0  0  0  0  3  0  0  0  0  0  0
  161.0970  203.2830  145.2070 N   0  0  0  0  0  0  0  0  0  0  0  0
  160.6620  201.9000  147.5610 C   0  0  0  0  0  0  0  0  0  0  0  0
  162.1480  205.1340  146.3810 N   0  0  0  0  0  0  0  0  0  0  0  0
  160.4880  202.0670  145.1620 C   0  0  0  0  0  3  0  0  0  0  0  0
  162.5750  205.7710  147.6190 C   0  0  0  0  0  1  0  0  0  0  0  0
  159.3000  201.6550  149.5500 N   0  0  0  0  0  2  0  0  0  0  0  0
  158.2100  200.8230  149.2690 N   0  0  0  0  0  1  0  0  0  0  0  0
  1 10  1  0  0  0  0
  2 20  1  0  0  0  0
  2 35  1  1  0  0  0
  3  4  1  6  0  0  0
  3  7  1  0  0  0  0
  5 11  1  0  0  0  0
  6  5  1  6  0  0  0
  6  2  1  0  0  0  0
  6 20  1  0  0  0  0
  7  8  1  0  0  0  0
  8 13  1  0  0  0  0
  9 19  1  0  0  0  0
  9  1  2  0  0  0  0
 10 12  2  0  0  0  0
 11 20  1  0  0  0  0
 11 16  2  0  0  0  0
 12 14  1  0  0  0  0
 14 13  2  0  0  0  0
 14 23  1  0  0  0  0
 15  7  1  0  0  0  0
 16  3  1  0  0  0  0
 17 15  1  0  0  0  0
 17 12  1  0  0  0  0
 18 16  1  0  0  0  0
 18 15  1  0  0  0  0
 19 17  2  0  0  0  0
 21 22  1  0  0  0  0
 22  9  1  0  0  0  0
 23 24  1  0  0  0  0
 25  8  1  0  0  0  0
 25 27  1  0  0  0  0
 26 33  1  0  0  0  0
 26 27  1  0  0  0  0
 28 26  2  0  0  0  0
 30 32  1  0  0  0  0
 31 32  1  0  0  0  0
 32 29  1  0  0  0  0
 33 31  2  0  0  0  0
 33 34  1  0  0  0  0
 34 29  1  0  0  0  0
 36 35  1  0  0  0  0
 37 36  1  0  0  0  0
 38 37  1  0  0  0  0
 39 49  1  0  0  0  0
 39 38  1  0  0  0  0
 40 46  1  0  0  0  0
 41 45  1  0  0  0  0
 42 43  1  0  0  0  0
 44 42  2  0  0  0  0
 45 43  2  0  0  0  0
 45 39  1  0  0  0  0
 46 42  1  0  0  0  0
 46 48  1  0  0  0  0
 47 44  1  0  0  0  0
 47 41  2  0  0  0  0
 50 49  1  0  0  0  0
M  END
>  <MODEL>
5

>  <REMARK>
 VINA RESULT:       0.2      3.487     10.631
  Name = 
  12 active torsions:
  status: ('A' for Active; 'I' for Inactive)
    1  A    between atoms: C_2  and  C_42
    2  A    between atoms: N_6  and  C_16
    3  A    between atoms: C_8  and  C_44
    4  A    between atoms: N_9  and  C_25
    5  A    between atoms: C_10  and  N_19
    6  A    between atoms: C_10  and  C_29
    7  A    between atoms: O_14  and  C_31
    8  A    between atoms: C_15  and  C_25
    9  A    between atoms: N_19  and  C_20
   10  A    between atoms: C_20  and  C_42
   11  A    between atoms: N_23  and  C_29
   12  A    between atoms: C_29  and  C_37
                            x       y       z     vdW  Elec       q    Type
                         _______ _______ _______ _____ _____    ______ ____

>  <TORSDO>
F 12

$$$$
=
 OpenBabel11052412063D

 50 56  0  0  1  0  0  0  0  0999 V2000
  161.3620  201.7090  146.4110 C   0  0  0  0  0  3  0  0  0  0  0  0
  161.5430  207.9760  153.6980 C   0  0  1  0  0  3  0  0  0  0  0  0
  160.6250  206.8870  149.6880 C   0  0  2  0  0  3  0  0  0  0  0  0
  159.1160  206.8880  149.8600 C   0  0  0  0  0  1  0  0  0  0  0  0
  161.9330  205.3380  153.4610 S   0  0  0  0  0  0  0  0  0  0  0  0
  161.0630  206.6560  154.2610 C   0  0  2  0  0  3  0  0  0  0  0  0
  160.9620  206.2400  148.4150 N   0  0  1  0  0  0  0  0  0  0  0  0
  161.4760  207.2070  147.4500 C   0  0  2  0  0  3  0  0  0  0  0  0
  161.5230  201.6300  147.7930 C   0  0  0  0  0  0  0  0  0  0  0  0
  161.4130  202.9460  145.7700 C   0  0  0  0  0  3  0  0  0  0  0  0
  161.1950  206.1760  152.0220 C   0  0  0  0  0  0  0  0  0  0  0  0
  161.6190  204.1400  146.4820 C   0  0  0  0  0  0  0  0  0  0  0  0
  161.5830  206.6290  146.1070 N   0  0  0  0  0  0  0  0  0  0  0  0
  161.6700  205.3990  145.6560 C   0  0  0  0  0  0  0  0  0  0  0  0
  162.0190  205.2710  148.7030 C   0  0  2  0  0  3  0  0  0  0  0  0
  161.2670  206.0230  150.7060 C   0  0  0  0  0  0  0  0  0  0  0  0
  161.7830  204.0520  147.8880 C   0  0  0  0  0  0  0  0  0  0  0  0
  162.0090  205.0400  150.1000 O   0  0  0  0  0  0  0  0  0  0  0  0
  161.7380  202.8010  148.5240 C   0  0  0  0  0  3  0  0  0  0  0  0
  160.5110  207.1450  152.9660 C   0  0  2  0  0  3  0  0  0  0  0  0
  161.1130  200.1900  149.8390 C   0  0  0  0  0  1  0  0  0  0  0  0
  161.4590  200.3540  148.4360 N   0  0  0  0  0  2  0  0  0  0  0  0
  161.7910  205.2220  144.2720 O   0  0  0  0  0  0  0  0  0  0  0  0
  160.7810  205.6200  143.3570 C   0  0  0  0  0  1  0  0  0  0  0  0
  162.7950  207.8750  147.8770 C   0  0  0  0  0  2  0  0  0  0  0  0
  162.3470  210.1980  148.7890 C   0  0  0  0  0  0  0  0  0  0  0  0
  162.7200  209.3200  147.7210 N   0  0  0  0  0  2  0  0  0  0  0  0
  161.9620  209.7190  149.9280 N   0  0  0  0  0  2  0  0  0  0  0  0
  161.9500  213.8620  148.8890 C   0  0  0  0  0  2  0  0  0  0  0  0
  162.3060  214.1450  146.4410 C   0  0  0  0  0  1  0  0  0  0  0  0
  163.1050  212.2040  147.6620 N   0  0  0  0  0  0  0  0  0  0  0  0
  162.9270  213.6480  147.7310 C   0  0  2  0  0  3  0  0  0  0  0  0
  162.3990  211.6500  148.5830 C   0  0  0  0  0  0  0  0  0  0  0  0
  161.6900  212.5500  149.3520 O   0  0  0  0  0  0  0  0  0  0  0  0
  160.8550  209.1090  154.4350 C   0  0  0  0  0  2  0  0  0  0  0  0
  161.5410  210.4280  154.1160 C   0  0  0  0  0  2  0  0  0  0  0  0
  160.5520  211.4880  154.0000 N   0  0  0  0  0  2  0  0  0  0  0  0
  159.3170  210.9970  154.5960 C   0  0  0  0  0  2  0  0  0  0  0  0
  158.6480  212.1060  155.3910 C   0  0  2  0  0  3  0  0  0  0  0  0
  155.7610  214.4170  150.2950 C   0  0  0  0  0  1  0  0  0  0  0  0
  156.3620  213.0920  155.1950 C   0  0  0  0  0  3  0  0  0  0  0  0
  156.6980  213.5770  152.4720 C   0  0  0  0  0  0  0  0  0  0  0  0
  157.7380  212.9900  153.2080 C   0  0  0  0  0  3  0  0  0  0  0  0
  155.5340  213.9020  153.1060 N   0  0  0  0  0  0  0  0  0  0  0  0
  157.5710  212.7510  154.5800 C   0  0  0  0  0  0  0  0  0  0  0  0
  156.8510  213.8360  151.0640 N   0  0  0  0  0  0  0  0  0  0  0  0
  155.3470  213.6730  154.4350 C   0  0  0  0  0  3  0  0  0  0  0  0
  158.0890  213.5240  150.3630 C   0  0  0  0  0  1  0  0  0  0  0  0
  159.6320  213.0950  155.8060 N   0  0  0  0  0  2  0  0  0  0  0  0
  159.3460  214.2730  155.1060 N   0  0  0  0  0  1  0  0  0  0  0  0
  1  9  1  0  0  0  0
  2  6  1  0  0  0  0
  2 35  1  1  0  0  0
  3  4  1  1  0  0  0
  3 16  1  0  0  0  0
  6  5  1  6  0  0  0
  7 15  1  0  0  0  0
  7  3  1  0  0  0  0
  8 25  1  0  0  0  0
  8  7  1  0  0  0  0
  9 22  1  0  0  0  0
  9 19  2  0  0  0  0
 10  1  2  0  0  0  0
 10 12  1  0  0  0  0
 11 20  1  0  0  0  0
 11  5  1  0  0  0  0
 12 17  2  0  0  0  0
 13  8  1  0  0  0  0
 14 13  2  0  0  0  0
 14 12  1  0  0  0  0
 15 18  1  0  0  0  0
 16 11  2  0  0  0  0
 17 19  1  0  0  0  0
 17 15  1  0  0  0  0
 18 16  1  0  0  0  0
 20  2  1  0  0  0  0
 20  6  1  0  0  0  0
 22 21  1  0  0  0  0
 23 14  1  0  0  0  0
 24 23  1  0  0  0  0
 26 28  2  0  0  0  0
 27 25  1  0  0  0  0
 27 26  1  0  0  0  0
 29 34  1  0  0  0  0
 30 32  1  0  0  0  0
 31 32  1  0  0  0  0
 31 33  2  0  0  0  0
 32 29  1  0  0  0  0
 33 26  1  0  0  0  0
 33 34  1  0  0  0  0
 36 35  1  0  0  0  0
 37 36  1  0  0  0  0
 37 38  1  0  0  0  0
 38 39  1  0  0  0  0
 39 49  1  0  0  0  0
 40 46  1  0  0  0  0
 42 44  2  0  0  0  0
 42 43  1  0  0  0  0
 43 45  2  0  0  0  0
 44 47  1  0  0  0  0
 45 41  1  0  0  0  0
 45 39  1  0  0  0  0
 46 42  1  0  0  0  0
 47 41  2  0  0  0  0
 48 46  1  0  0  0  0
 50 49  1  0  0  0  0
M  END
>  <MODEL>
6

>  <REMARK>
 VINA RESULT:       0.3      1.402      1.683
  Name = 
  12 active torsions:
  status: ('A' for Active; 'I' for Inactive)
    1  A    between atoms: C_2  and  C_42
    2  A    between atoms: N_6  and  C_16
    3  A    between atoms: C_8  and  C_44
    4  A    between atoms: N_9  and  C_25
    5  A    between atoms: C_10  and  N_19
    6  A    between atoms: C_10  and  C_29
    7  A    between atoms: O_14  and  C_31
    8  A    between atoms: C_15  and  C_25
    9  A    between atoms: N_19  and  C_20
   10  A    between atoms: C_20  and  C_42
   11  A    between atoms: N_23  and  C_29
   12  A    between atoms: C_29  and  C_37
                            x       y       z     vdW  Elec       q    Type
                         _______ _______ _______ _____ _____    ______ ____

>  <TORSDO>
F 12

$$$$
=
 OpenBabel11052412063D

 50 56  0  0  1  0  0  0  0  0999 V2000
  160.2050  209.7110  157.2110 C   0  0  0  0  0  3  0  0  0  0  0  0
  161.1840  206.9220  148.0640 C   0  0  1  0  0  3  0  0  0  0  0  0
  161.6810  209.7350  151.2190 C   0  0  2  0  0  3  0  0  0  0  0  0
  163.1930  209.6120  151.3090 C   0  0  0  0  0  1  0  0  0  0  0  0
  160.5280  205.7010  150.3540 S   0  0  0  0  0  0  0  0  0  0  0  0
  161.5780  205.7460  148.9300 C   0  0  2  0  0  3  0  0  0  0  0  0
  161.1870  210.4570  152.3960 N   0  0  1  0  0  0  0  0  0  0  0  0
  160.6940  211.7830  152.0350 C   0  0  2  0  0  3  0  0  0  0  0  0
  160.1450  208.5000  156.5240 C   0  0  0  0  0  0  0  0  0  0  0  0
  160.2230  210.9150  156.5080 C   0  0  0  0  0  3  0  0  0  0  0  0
  161.2290  207.3750  150.5060 C   0  0  0  0  0  0  0  0  0  0  0  0
  160.1870  210.9520  155.1030 C   0  0  0  0  0  0  0  0  0  0  0  0
  160.4290  212.6040  153.2200 N   0  0  0  0  0  0  0  0  0  0  0  0
  160.1910  212.3230  154.4810 C   0  0  0  0  0  0  0  0  0  0  0  0
  160.0680  209.6790  152.9270 C   0  0  2  0  0  3  0  0  0  0  0  0
  161.0410  208.4030  151.3240 C   0  0  0  0  0  0  0  0  0  0  0  0
  160.1240  209.7170  154.4110 C   0  0  0  0  0  0  0  0  0  0  0  0
  160.1650  208.3770  152.3800 O   0  0  0  0  0  0  0  0  0  0  0  0
  160.0990  208.5090  155.1270 C   0  0  0  0  0  3  0  0  0  0  0  0
  162.0720  207.1090  149.2750 C   0  0  2  0  0  3  0  0  0  0  0  0
  160.7180  206.0420  156.7530 C   0  0  0  0  0  1  0  0  0  0  0  0
  160.1370  207.2750  157.2600 N   0  0  0  0  0  2  0  0  0  0  0  0
  159.9480  213.3950  155.3490 O   0  0  0  0  0  0  0  0  0  0  0  0
  158.6800  214.0250  155.4550 C   0  0  0  0  0  1  0  0  0  0  0  0
  159.4820  211.7620  151.0880 C   0  0  0  0  0  2  0  0  0  0  0  0
  160.7040  212.3140  148.9360 C   0  0  0  0  0  0  0  0  0  0  0  0
  159.7140  212.6090  149.9270 N   0  0  0  0  0  2  0  0  0  0  0  0
  161.5100  211.3130  149.0910 N   0  0  0  0  0  2  0  0  0  0  0  0
  160.1480  214.4520  145.9850 C   0  0  0  0  0  2  0  0  0  0  0  0
  162.1420  213.5930  144.7660 C   0  0  0  0  0  1  0  0  0  0  0  0
  161.9250  213.4530  147.1810 N   0  0  0  0  0  0  0  0  0  0  0  0
  161.6700  214.2970  146.0230 C   0  0  2  0  0  3  0  0  0  0  0  0
  160.8050  213.1590  147.7400 C   0  0  0  0  0  0  0  0  0  0  0  0
  159.7090  213.7060  147.1050 O   0  0  0  0  0  0  0  0  0  0  0  0
  162.0300  206.9180  146.8050 C   0  0  0  0  0  2  0  0  0  0  0  0
  161.1670  206.5840  145.5990 C   0  0  0  0  0  2  0  0  0  0  0  0
  161.8300  205.5880  144.7730 N   0  0  0  0  0  2  0  0  0  0  0  0
  162.0280  204.4030  145.5970 C   0  0  0  0  0  2  0  0  0  0  0  0
  160.7400  203.5980  145.6650 C   0  0  2  0  0  3  0  0  0  0  0  0
  160.7770  200.3910  151.0830 C   0  0  0  0  0  1  0  0  0  0  0  0
  161.2240  201.1790  146.0530 C   0  0  0  0  0  3  0  0  0  0  0  0
  160.8510  201.4440  148.8020 C   0  0  0  0  0  0  0  0  0  0  0  0
  160.7100  202.5640  147.9690 C   0  0  0  0  0  3  0  0  0  0  0  0
  161.1690  200.2380  148.2480 N   0  0  0  0  0  0  0  0  0  0  0  0
  160.9040  202.4310  146.5860 C   0  0  0  0  0  0  0  0  0  0  0  0
  160.6610  201.5580  150.2240 N   0  0  0  0  0  0  0  0  0  0  0  0
  161.3540  200.0840  146.9080 C   0  0  0  0  0  3  0  0  0  0  0  0
  160.3450  202.8350  150.8490 C   0  0  0  0  0  1  0  0  0  0  0  0
  160.3560  203.1460  144.3370 N   0  0  0  0  0  2  0  0  0  0  0  0
  159.1260  202.4910  144.4690 N   0  0  0  0  0  1  0  0  0  0  0  0
  2 35  1  6  0  0  0
  2  6  1  0  0  0  0
  2 20  1  0  0  0  0
  3  4  1  1  0  0  0
  3 16  1  0  0  0  0
  3  7  1  0  0  0  0
  5 11  1  0  0  0  0
  6 20  1  0  0  0  0
  6  5  1  1  0  0  0
  7 15  1  0  0  0  0
  8  7  1  0  0  0  0
  8 13  1  0  0  0  0
  9  1  1  0  0  0  0
  9 22  1  0  0  0  0
 10  1  2  0  0  0  0
 11 16  2  0  0  0  0
 12 10  1  0  0  0  0
 13 14  2  0  0  0  0
 14 12  1  0  0  0  0
 14 23  1  0  0  0  0
 15 17  1  0  0  0  0
 16 18  1  0  0  0  0
 17 12  2  0  0  0  0
 17 19  1  0  0  0  0
 18 15  1  0  0  0  0
 19  9  2  0  0  0  0
 20 11  1  0  0  0  0
 21 22  1  0  0  0  0
 23 24  1  0  0  0  0
 25  8  1  0  0  0  0
 26 28  2  0  0  0  0
 26 27  1  0  0  0  0
 27 25  1  0  0  0  0
 29 32  1  0  0  0  0
 29 34  1  0  0  0  0
 30 32  1  0  0  0  0
 31 33  2  0  0  0  0
 32 31  1  0  0  0  0
 33 26  1  0  0  0  0
 34 33  1  0  0  0  0
 36 35  1  0  0  0  0
 37 38  1  0  0  0  0
 37 36  1  0  0  0  0
 38 39  1  0  0  0  0
 39 45  1  0  0  0  0
 41 45  2  0  0  0  0
 41 47  1  0  0  0  0
 42 46  1  0  0  0  0
 43 42  2  0  0  0  0
 44 42  1  0  0  0  0
 45 43  1  0  0  0  0
 46 48  1  0  0  0  0
 46 40  1  0  0  0  0
 47 44  2  0  0  0  0
 49 50  1  0  0  0  0
 49 39  1  0  0  0  0
M  END
>  <MODEL>
7

>  <REMARK>
 VINA RESULT:       0.5      2.568      9.965
  Name = 
  12 active torsions:
  status: ('A' for Active; 'I' for Inactive)
    1  A    between atoms: C_2  and  C_42
    2  A    between atoms: N_6  and  C_16
    3  A    between atoms: C_8  and  C_44
    4  A    between atoms: N_9  and  C_25
    5  A    between atoms: C_10  and  N_19
    6  A    between atoms: C_10  and  C_29
    7  A    between atoms: O_14  and  C_31
    8  A    between atoms: C_15  and  C_25
    9  A    between atoms: N_19  and  C_20
   10  A    between atoms: C_20  and  C_42
   11  A    between atoms: N_23  and  C_29
   12  A    between atoms: C_29  and  C_37
                            x       y       z     vdW  Elec       q    Type
                         _______ _______ _______ _____ _____    ______ ____

>  <TORSDO>
F 12

$$$$
=
 OpenBabel11052412063D

 50 56  0  0  1  0  0  0  0  0999 V2000
  160.6580  201.0520  149.7110 C   0  0  0  0  0  3  0  0  0  0  0  0
  162.4660  210.3830  148.2750 C   0  0  1  0  0  3  0  0  0  0  0  0
  160.8940  206.6200  147.0600 C   0  0  2  0  0  3  0  0  0  0  0  0
  159.4310  207.0220  147.1390 C   0  0  0  0  0  1  0  0  0  0  0  0
  162.5620  208.7400  150.3870 S   0  0  0  0  0  0  0  0  0  0  0  0
  161.9450  210.2460  149.6890 C   0  0  2  0  0  3  0  0  0  0  0  0
  160.9840  205.1610  146.9340 N   0  0  1  0  0  0  0  0  0  0  0  0
  161.4490  204.7730  145.6060 C   0  0  2  0  0  3  0  0  0  0  0  0
  161.0030  202.1380  150.5130 C   0  0  0  0  0  0  0  0  0  0  0  0
  160.7380  201.1540  148.3230 C   0  0  0  0  0  3  0  0  0  0  0  0
  161.7140  208.1020  148.9070 C   0  0  0  0  0  0  0  0  0  0  0  0
  161.1570  202.3380  147.6910 C   0  0  0  0  0  0  0  0  0  0  0  0
  161.3100  203.3310  145.3830 N   0  0  0  0  0  0  0  0  0  0  0  0
  161.2130  202.2970  146.1860 C   0  0  0  0  0  0  0  0  0  0  0  0
  161.9730  204.7160  147.9160 C   0  0  2  0  0  3  0  0  0  0  0  0
  161.5850  206.9100  148.3380 C   0  0  0  0  0  0  0  0  0  0  0  0
  161.5070  203.4380  148.5130 C   0  0  0  0  0  0  0  0  0  0  0  0
  162.1360  205.7640  148.8540 O   0  0  0  0  0  0  0  0  0  0  0  0
  161.4310  203.3230  149.9110 C   0  0  0  0  0  3  0  0  0  0  0  0
  161.2670  209.5130  148.5830 C   0  0  2  0  0  3  0  0  0  0  0  0
  160.7060  203.1600  152.8140 C   0  0  0  0  0  1  0  0  0  0  0  0
  160.9070  202.0190  151.9350 N   0  0  0  0  0  2  0  0  0  0  0  0
  161.1200  201.0280  145.6010 O   0  0  0  0  0  0  0  0  0  0  0  0
  160.0000  200.6170  144.8310 C   0  0  0  0  0  1  0  0  0  0  0  0
  162.8730  205.2540  145.2770 C   0  0  0  0  0  2  0  0  0  0  0  0
  161.8180  205.8060  143.0390 C   0  0  0  0  0  0  0  0  0  0  0  0
  162.9540  205.7430  143.9080 N   0  0  0  0  0  2  0  0  0  0  0  0
  160.6740  205.3320  143.4160 N   0  0  0  0  0  2  0  0  0  0  0  0
  162.7150  206.7330  139.5850 C   0  0  0  0  0  2  0  0  0  0  0  0
  162.3200  209.1650  139.9460 C   0  0  0  0  0  1  0  0  0  0  0  0
  161.3040  207.4540  141.3390 N   0  0  0  0  0  0  0  0  0  0  0  0
  161.6800  207.7920  139.9740 C   0  0  2  0  0  3  0  0  0  0  0  0
  161.9580  206.4100  141.7090 C   0  0  0  0  0  0  0  0  0  0  0  0
  162.8080  205.9190  140.7390 O   0  0  0  0  0  0  0  0  0  0  0  0
  162.0030  211.7080  147.7020 C   0  0  0  0  0  2  0  0  0  0  0  0
  161.7660  212.7060  148.8240 C   0  0  0  0  0  2  0  0  0  0  0  0
  160.5480  213.4590  148.5720 N   0  0  0  0  0  2  0  0  0  0  0  0
  160.2060  214.1550  149.8050 C   0  0  0  0  0  2  0  0  0  0  0  0
  158.7000  214.1320  150.0130 C   0  0  2  0  0  3  0  0  0  0  0  0
  159.3170  210.6890  155.2490 C   0  0  0  0  0  1  0  0  0  0  0  0
  157.2680  214.1170  152.0590 C   0  0  0  0  0  3  0  0  0  0  0  0
  158.8390  212.1560  153.2640 C   0  0  0  0  0  0  0  0  0  0  0  0
  159.1650  212.6180  151.9790 C   0  0  0  0  0  3  0  0  0  0  0  0
  157.7520  212.6790  153.9030 N   0  0  0  0  0  0  0  0  0  0  0  0
  158.3700  213.6000  151.3710 C   0  0  0  0  0  0  0  0  0  0  0  0
  159.6370  211.1450  153.9050 N   0  0  0  0  0  0  0  0  0  0  0  0
  156.9710  213.6380  153.3350 C   0  0  0  0  0  3  0  0  0  0  0  0
  160.7880  210.5500  153.2400 C   0  0  0  0  0  1  0  0  0  0  0  0
  158.0600  213.3280  148.9840 N   0  0  0  0  0  2  0  0  0  0  0  0
  157.4120  214.2150  148.1160 N   0  0  0  0  0  1  0  0  0  0  0  0
  1  9  1  0  0  0  0
  2 35  1  6  0  0  0
  2 20  1  0  0  0  0
  2  6  1  0  0  0  0
  3  4  1  1  0  0  0
  3 16  1  0  0  0  0
  6  5  1  1  0  0  0
  7  3  1  0  0  0  0
  7 15  1  0  0  0  0
  8  7  1  0  0  0  0
  9 22  1  0  0  0  0
 10  1  2  0  0  0  0
 11  5  1  0  0  0  0
 12 10  1  0  0  0  0
 12 17  2  0  0  0  0
 13  8  1  0  0  0  0
 13 14  2  0  0  0  0
 14 12  1  0  0  0  0
 15 17  1  0  0  0  0
 15 18  1  0  0  0  0
 16 18  1  0  0  0  0
 16 11  2  0  0  0  0
 17 19  1  0  0  0  0
 19  9  2  0  0  0  0
 20 11  1  0  0  0  0
 20  6  1  0  0  0  0
 22 21  1  0  0  0  0
 23 14  1  0  0  0  0
 24 23  1  0  0  0  0
 25  8  1  0  0  0  0
 26 28  2  0  0  0  0
 26 27  1  0  0  0  0
 27 25  1  0  0  0  0
 29 32  1  0  0  0  0
 29 34  1  0  0  0  0
 30 32  1  0  0  0  0
 31 33  2  0  0  0  0
 32 31  1  0  0  0  0
 33 26  1  0  0  0  0
 34 33  1  0  0  0  0
 35 36  1  0  0  0  0
 37 36  1  0  0  0  0
 37 38  1  0  0  0  0
 38 39  1  0  0  0  0
 39 45  1  0  0  0  0
 41 47  1  0  0  0  0
 42 44  1  0  0  0  0
 42 46  1  0  0  0  0
 43 42  2  0  0  0  0
 45 43  1  0  0  0  0
 45 41  2  0  0  0  0
 46 40  1  0  0  0  0
 47 44  2  0  0  0  0
 48 46  1  0  0  0  0
 49 39  1  0  0  0  0
 50 49  1  0  0  0  0
M  END
>  <MODEL>
8

>  <REMARK>
 VINA RESULT:       0.7      2.468      5.767
  Name = 
  12 active torsions:
  status: ('A' for Active; 'I' for Inactive)
    1  A    between atoms: C_2  and  C_42
    2  A    between atoms: N_6  and  C_16
    3  A    between atoms: C_8  and  C_44
    4  A    between atoms: N_9  and  C_25
    5  A    between atoms: C_10  and  N_19
    6  A    between atoms: C_10  and  C_29
    7  A    between atoms: O_14  and  C_31
    8  A    between atoms: C_15  and  C_25
    9  A    between atoms: N_19  and  C_20
   10  A    between atoms: C_20  and  C_42
   11  A    between atoms: N_23  and  C_29
   12  A    between atoms: C_29  and  C_37
                            x       y       z     vdW  Elec       q    Type
                         _______ _______ _______ _____ _____    ______ ____

>  <TORSDO>
F 12

$$$$
=
 OpenBabel11052412063D

 50 56  0  0  1  0  0  0  0  0999 V2000
  161.6790  208.9820  154.8080 C   0  0  0  0  0  3  0  0  0  0  0  0
  163.2080  213.2480  146.3300 C   0  0  1  0  0  3  0  0  0  0  0  0
  161.1760  210.4770  148.8420 C   0  0  2  0  0  3  0  0  0  0  0  0
  159.8480  211.2140  148.8560 C   0  0  0  0  0  1  0  0  0  0  0  0
  163.9750  213.7200  148.8520 S   0  0  0  0  0  0  0  0  0  0  0  0
  163.2080  214.3370  147.3810 C   0  0  2  0  0  3  0  0  0  0  0  0
  161.1640  209.4470  149.8860 N   0  0  1  0  0  0  0  0  0  0  0  0
  161.1230  208.1080  149.3080 C   0  0  2  0  0  3  0  0  0  0  0  0
  162.3210  210.1400  154.3740 C   0  0  0  0  0  0  0  0  0  0  0  0
  161.2740  208.0180  153.8860 C   0  0  0  0  0  3  0  0  0  0  0  0
  162.6410  212.4990  148.6300 C   0  0  0  0  0  0  0  0  0  0  0  0
  161.4880  208.1780  152.5060 C   0  0  0  0  0  0  0  0  0  0  0  0
  160.8630  207.0860  150.3260 N   0  0  0  0  0  0  0  0  0  0  0  0
  161.0150  207.0480  151.6300 C   0  0  0  0  0  0  0  0  0  0  0  0
  162.4160  209.5890  150.6300 C   0  0  2  0  0  3  0  0  0  0  0  0
  162.2790  211.3800  149.2450 C   0  0  0  0  0  0  0  0  0  0  0  0
  162.1430  209.3580  152.0710 C   0  0  0  0  0  0  0  0  0  0  0  0
  162.9340  210.8750  150.3410 O   0  0  0  0  0  0  0  0  0  0  0  0
  162.5540  210.3200  153.0080 C   0  0  0  0  0  3  0  0  0  0  0  0
  162.1610  213.2780  147.4220 C   0  0  2  0  0  3  0  0  0  0  0  0
  162.5340  210.9540  156.7650 C   0  0  0  0  0  1  0  0  0  0  0  0
  162.7210  211.1220  155.3320 N   0  0  0  0  0  2  0  0  0  0  0  0
  160.6780  205.8590  152.2880 O   0  0  0  0  0  0  0  0  0  0  0  0
  160.9690  204.5760  151.7530 C   0  0  0  0  0  1  0  0  0  0  0  0
  162.3590  207.7530  148.4640 C   0  0  0  0  0  2  0  0  0  0  0  0
  161.2090  206.0170  147.0170 C   0  0  0  0  0  0  0  0  0  0  0  0
  162.2500  206.4070  147.9200 N   0  0  0  0  0  2  0  0  0  0  0  0
  160.2540  206.8400  146.7210 N   0  0  0  0  0  2  0  0  0  0  0  0
  160.8150  202.9870  144.9550 C   0  0  0  0  0  2  0  0  0  0  0  0
  160.8440  201.4400  146.9070 C   0  0  0  0  0  1  0  0  0  0  0  0
  161.8050  203.6690  146.9910 N   0  0  0  0  0  0  0  0  0  0  0  0
  161.6320  202.4920  146.1520 C   0  0  2  0  0  3  0  0  0  0  0  0
  161.2280  204.6730  146.4290 C   0  0  0  0  0  0  0  0  0  0  0  0
  160.6240  204.3620  145.2290 O   0  0  0  0  0  0  0  0  0  0  0  0
  162.6220  213.7970  145.0450 C   0  0  0  0  0  2  0  0  0  0  0  0
  163.4470  213.3320  143.8560 C   0  0  0  0  0  2  0  0  0  0  0  0
  163.0710  214.0770  142.6660 N   0  0  0  0  0  2  0  0  0  0  0  0
  162.8810  213.1120  141.5910 C   0  0  0  0  0  2  0  0  0  0  0  0
  161.3970  212.8820  141.3570 C   0  0  2  0  0  3  0  0  0  0  0  0
  161.0940  207.8570  137.5760 C   0  0  0  0  0  1  0  0  0  0  0  0
  160.7410  212.7670  138.9500 C   0  0  0  0  0  3  0  0  0  0  0  0
  161.1550  210.0130  138.8670 C   0  0  0  0  0  0  0  0  0  0  0  0
  161.3860  210.7160  140.0590 C   0  0  0  0  0  3  0  0  0  0  0  0
  160.7300  210.6940  137.7640 N   0  0  0  0  0  0  0  0  0  0  0  0
  161.1830  212.1030  140.0980 C   0  0  0  0  0  0  0  0  0  0  0  0
  161.3620  208.5900  138.8030 N   0  0  0  0  0  0  0  0  0  0  0  0
  160.5190  212.0390  137.7810 C   0  0  0  0  0  3  0  0  0  0  0  0
  161.8400  207.8380  139.9550 C   0  0  0  0  0  1  0  0  0  0  0  0
  160.6920  214.1540  141.2920 N   0  0  0  0  0  2  0  0  0  0  0  0
  159.4210  213.9440  141.8400 N   0  0  0  0  0  1  0  0  0  0  0  0
  2 35  1  6  0  0  0
  2  6  1  0  0  0  0
  2 20  1  0  0  0  0
  3  4  1  1  0  0  0
  3 16  1  0  0  0  0
  3  7  1  0  0  0  0
  6 20  1  0  0  0  0
  6  5  1  1  0  0  0
  7 15  1  0  0  0  0
  8  7  1  0  0  0  0
  8 13  1  0  0  0  0
  9  1  1  0  0  0  0
  9 22  1  0  0  0  0
 10  1  2  0  0  0  0
 11  5  1  0  0  0  0
 11 16  2  0  0  0  0
 12 10  1  0  0  0  0
 13 14  2  0  0  0  0
 14 23  1  0  0  0  0
 14 12  1  0  0  0  0
 15 17  1  0  0  0  0
 16 18  1  0  0  0  0
 17 12  2  0  0  0  0
 17 19  1  0  0  0  0
 18 15  1  0  0  0  0
 19  9  2  0  0  0  0
 20 11  1  0  0  0  0
 22 21  1  0  0  0  0
 24 23  1  0  0  0  0
 25  8  1  0  0  0  0
 26 27  1  0  0  0  0
 27 25  1  0  0  0  0
 28 26  2  0  0  0  0
 29 34  1  0  0  0  0
 29 32  1  0  0  0  0
 32 30  1  0  0  0  0
 32 31  1  0  0  0  0
 33 31  2  0  0  0  0
 33 26  1  0  0  0  0
 34 33  1  0  0  0  0
 36 35  1  0  0  0  0
 37 36  1  0  0  0  0
 38 37  1  0  0  0  0
 39 38  1  0  0  0  0
 40 46  1  0  0  0  0
 41 45  1  0  0  0  0
 42 43  1  0  0  0  0
 43 45  2  0  0  0  0
 44 47  1  0  0  0  0
 44 42  2  0  0  0  0
 45 39  1  0  0  0  0
 46 42  1  0  0  0  0
 46 48  1  0  0  0  0
 47 41  2  0  0  0  0
 49 39  1  0  0  0  0
 49 50  1  0  0  0  0
M  END
>  <MODEL>
9

>  <REMARK>
 VINA RESULT:       0.9      4.167     11.149
  Name = 
  12 active torsions:
  status: ('A' for Active; 'I' for Inactive)
    1  A    between atoms: C_2  and  C_42
    2  A    between atoms: N_6  and  C_16
    3  A    between atoms: C_8  and  C_44
    4  A    between atoms: N_9  and  C_25
    5  A    between atoms: C_10  and  N_19
    6  A    between atoms: C_10  and  C_29
    7  A    between atoms: O_14  and  C_31
    8  A    between atoms: C_15  and  C_25
    9  A    between atoms: N_19  and  C_20
   10  A    between atoms: C_20  and  C_42
   11  A    between atoms: N_23  and  C_29
   12  A    between atoms: C_29  and  C_37
                            x       y       z     vdW  Elec       q    Type
                         _______ _______ _______ _____ _____    ______ ____

>  <TORSDO>
F 12

$$$$
