=
 OpenBabel11052410373D

 25 28  0  0  1  0  0  0  0  0999 V2000
  161.9020  210.2280  150.3700 C   0  0  0  0  0  0  0  0  0  0  0  0
  160.4420  208.8670  154.5320 N   0  0  0  0  0  0  0  0  0  0  0  0
  161.1180  208.1380  152.5110 C   0  0  1  0  0  3  0  0  0  0  0  0
  162.3490  211.2370  149.7660 O   0  0  0  0  0  0  0  0  0  0  0  0
  160.5480  209.8880  153.7360 O   0  0  0  0  0  0  0  0  0  0  0  0
  160.9660  209.5270  152.5440 C   0  0  0  0  0  0  0  0  0  0  0  0
  160.8090  207.7850  153.8250 C   0  0  0  0  0  0  0  0  0  0  0  0
  161.2080  207.8270  150.0510 C   0  0  2  0  0  3  0  0  0  0  0  0
  161.7680  205.0050  150.4680 C   0  0  0  0  0  2  0  0  0  0  0  0
  161.4400  206.7700  148.9710 C   0  0  0  0  0  2  0  0  0  0  0  0
  161.2650  210.4120  151.6370 N   0  0  0  0  0  0  0  0  0  0  0  0
  160.7580  206.4660  154.3630 N   0  0  0  0  0  1  0  0  0  0  0  0
  160.9160  205.4730  149.3850 N   0  0  0  0  0  0  0  0  0  0  0  0
  161.5050  205.8270  151.7230 C   0  0  0  0  0  2  0  0  0  0  0  0
  162.0850  208.9450  149.7860 N   0  0  0  0  0  2  0  0  0  0  0  0
  161.3680  207.3140  151.4680 C   0  0  2  0  0  3  0  0  0  0  0  0
  160.9600  204.4960  148.2840 C   0  0  2  0  0  3  0  0  0  0  0  0
  161.5830  203.1280  148.6380 C   0  0  0  0  0  2  0  0  0  0  0  0
  160.5660  201.9980  148.7020 C   0  0  0  0  0  3  0  0  0  0  0  0
  161.2650  200.6900  148.3960 C   0  0  0  0  0  2  0  0  0  0  0  0
  160.9420  201.0570  149.8270 C   0  0  0  0  0  2  0  0  0  0  0  0
  161.5140  205.1210  147.0020 C   0  0  0  0  0  2  0  0  0  0  0  0
  161.4500  204.1440  145.8380 C   0  0  0  0  0  2  0  0  0  0  0  0
  160.7850  204.7950  144.6400 C   0  0  0  0  0  2  0  0  0  0  0  0
  160.2890  206.0450  145.0070 O   0  0  0  0  0  1  0  0  0  0  0  0
  1 11  1  0  0  0  0
  3  6  1  6  0  0  0
  3  7  1  0  0  0  0
  4  1  2  0  0  0  0
  5  2  1  0  0  0  0
  6  5  1  0  0  0  0
  7 12  1  0  0  0  0
  7  2  2  0  0  0  0
  8 10  1  6  0  0  0
  8 16  1  0  0  0  0
  9 14  1  0  0  0  0
 10 13  1  0  0  0  0
 11  6  2  0  0  0  0
 13  9  1  0  0  0  0
 15  8  1  0  0  0  0
 15  1  1  0  0  0  0
 16 14  1  1  0  0  0
 16  3  1  0  0  0  0
 17 22  1  6  0  0  0
 17 18  1  0  0  0  0
 17 13  1  0  0  0  0
 18 19  1  0  0  0  0
 19 21  1  0  0  0  0
 20 19  1  0  0  0  0
 20 21  1  0  0  0  0
 23 22  1  0  0  0  0
 24 25  1  0  0  0  0
 24 23  1  0  0  0  0
M  END
>  <MODEL>
1

>  <REMARK>
 VINA RESULT:      -8.2      0.000      0.000
  Name = 
  6 active torsions:
  status: ('A' for Active; 'I' for Inactive)
    1  A    between atoms: C_3  and  C_4
    2  A    between atoms: C_4  and  C_10
    3  A    between atoms: C_6  and  C_9
    4  A    between atoms: C_6  and  C_16
    5  A    between atoms: C_10  and  C_16
    6  A    between atoms: C_10  and  N_21
                            x       y       z     vdW  Elec       q    Type
                         _______ _______ _______ _____ _____    ______ ____

>  <TORSDO>
F 6

$$$$
=
 OpenBabel11052410373D

 25 28  0  0  1  0  0  0  0  0999 V2000
  161.8730  210.0230  150.6020 C   0  0  0  0  0  0  0  0  0  0  0  0
  160.2270  209.4180  154.8730 N   0  0  0  0  0  0  0  0  0  0  0  0
  161.0280  208.3460  153.0610 C   0  0  1  0  0  3  0  0  0  0  0  0
  162.3250  210.9160  149.8400 O   0  0  0  0  0  0  0  0  0  0  0  0
  160.3500  210.2740  153.9030 O   0  0  0  0  0  0  0  0  0  0  0  0
  160.8400  209.7110  152.8230 C   0  0  0  0  0  0  0  0  0  0  0  0
  160.6590  208.2360  154.4020 C   0  0  0  0  0  0  0  0  0  0  0  0
  161.2570  207.5820  150.7120 C   0  0  2  0  0  3  0  0  0  0  0  0
  161.8650  204.9100  151.6820 C   0  0  0  0  0  2  0  0  0  0  0  0
  161.5730  206.3500  149.8640 C   0  0  0  0  0  2  0  0  0  0  0  0
  161.1640  210.4200  151.7800 N   0  0  0  0  0  0  0  0  0  0  0  0
  160.6130  207.0410  155.1770 N   0  0  0  0  0  1  0  0  0  0  0  0
  161.0610  205.1360  150.4900 N   0  0  0  0  0  0  0  0  0  0  0  0
  161.5160  205.9430  152.7440 C   0  0  0  0  0  2  0  0  0  0  0  0
  162.1190  208.6600  150.2810 N   0  0  0  0  0  2  0  0  0  0  0  0
  161.3540  207.3500  152.2060 C   0  0  2  0  0  3  0  0  0  0  0  0
  161.1880  203.9710  149.5980 C   0  0  2  0  0  3  0  0  0  0  0  0
  160.9000  204.2460  148.1060 C   0  0  0  0  0  2  0  0  0  0  0  0
  162.1090  204.0290  147.2080 C   0  0  0  0  0  3  0  0  0  0  0  0
  161.6390  203.9120  145.7720 C   0  0  0  0  0  2  0  0  0  0  0  0
  162.2430  205.2070  146.2670 C   0  0  0  0  0  2  0  0  0  0  0  0
  160.4540  202.7520  150.1610 C   0  0  0  0  0  2  0  0  0  0  0  0
  160.1370  201.7440  149.0670 C   0  0  0  0  0  2  0  0  0  0  0  0
  161.2910  200.7760  148.8920 C   0  0  0  0  0  2  0  0  0  0  0  0
  161.3690  200.3850  147.5560 O   0  0  0  0  0  1  0  0  0  0  0  0
  1 11  1  0  0  0  0
  3  6  1  6  0  0  0
  3  7  1  0  0  0  0
  4  1  2  0  0  0  0
  5  2  1  0  0  0  0
  6  5  1  0  0  0  0
  7  2  2  0  0  0  0
  7 12  1  0  0  0  0
  8 10  1  6  0  0  0
  8 16  1  0  0  0  0
  9 14  1  0  0  0  0
 10 13  1  0  0  0  0
 11  6  2  0  0  0  0
 13  9  1  0  0  0  0
 15  1  1  0  0  0  0
 15  8  1  0  0  0  0
 16 14  1  1  0  0  0
 16  3  1  0  0  0  0
 17 18  1  6  0  0  0
 17 22  1  0  0  0  0
 17 13  1  0  0  0  0
 19 18  1  0  0  0  0
 20 21  1  0  0  0  0
 20 19  1  0  0  0  0
 21 19  1  0  0  0  0
 23 22  1  0  0  0  0
 24 23  1  0  0  0  0
 25 24  1  0  0  0  0
M  END
>  <MODEL>
2

>  <REMARK>
 VINA RESULT:      -8.2      1.502      2.682
  Name = 
  6 active torsions:
  status: ('A' for Active; 'I' for Inactive)
    1  A    between atoms: C_3  and  C_4
    2  A    between atoms: C_4  and  C_10
    3  A    between atoms: C_6  and  C_9
    4  A    between atoms: C_6  and  C_16
    5  A    between atoms: C_10  and  C_16
    6  A    between atoms: C_10  and  N_21
                            x       y       z     vdW  Elec       q    Type
                         _______ _______ _______ _____ _____    ______ ____

>  <TORSDO>
F 6

$$$$
=
 OpenBabel11052410373D

 25 28  0  0  1  0  0  0  0  0999 V2000
  160.8930  205.2540  145.9540 C   0  0  0  0  0  0  0  0  0  0  0  0
  161.1990  200.8590  147.3340 N   0  0  0  0  0  0  0  0  0  0  0  0
  161.0030  202.9850  148.0540 C   0  0  1  0  0  3  0  0  0  0  0  0
  160.6680  205.9500  144.9310 O   0  0  0  0  0  0  0  0  0  0  0  0
  161.3510  201.6580  146.3200 O   0  0  0  0  0  0  0  0  0  0  0  0
  161.2210  202.9150  146.6740 C   0  0  0  0  0  0  0  0  0  0  0  0
  160.9560  201.6350  148.4040 C   0  0  0  0  0  0  0  0  0  0  0  0
  161.5060  205.3900  148.3950 C   0  0  2  0  0  3  0  0  0  0  0  0
  160.7000  205.1240  151.1750 C   0  0  0  0  0  2  0  0  0  0  0  0
  161.4880  206.4940  149.4520 C   0  0  0  0  0  2  0  0  0  0  0  0
  161.2070  203.8680  145.7870 N   0  0  0  0  0  0  0  0  0  0  0  0
  160.7970  201.1010  149.7150 N   0  0  0  0  0  1  0  0  0  0  0  0
  161.8180  205.9630  150.7700 N   0  0  0  0  0  0  0  0  0  0  0  0
  160.6900  203.8440  150.3510 C   0  0  0  0  0  2  0  0  0  0  0  0
  160.7870  205.8650  147.2330 N   0  0  0  0  0  2  0  0  0  0  0  0
  160.9720  204.0570  148.8770 C   0  0  2  0  0  3  0  0  0  0  0  0
  161.9920  207.0400  151.7590 C   0  0  2  0  0  3  0  0  0  0  0  0
  161.6640  206.6570  153.2190 C   0  0  0  0  0  2  0  0  0  0  0  0
  160.6370  207.5730  153.8680 C   0  0  0  0  0  3  0  0  0  0  0  0
  160.3420  207.0690  155.2650 C   0  0  0  0  0  2  0  0  0  0  0  0
  161.2660  208.2500  155.0670 C   0  0  0  0  0  2  0  0  0  0  0  0
  161.3340  208.3400  151.2930 C   0  0  0  0  0  2  0  0  0  0  0  0
  162.3280  209.4910  151.2840 C   0  0  0  0  0  2  0  0  0  0  0  0
  161.9900  210.4720  150.1770 C   0  0  0  0  0  2  0  0  0  0  0  0
  162.0480  209.8200  148.9460 O   0  0  0  0  0  1  0  0  0  0  0  0
  1 15  1  0  0  0  0
  2  7  2  0  0  0  0
  3  6  1  1  0  0  0
  3  7  1  0  0  0  0
  3 16  1  0  0  0  0
  4  1  2  0  0  0  0
  5  6  1  0  0  0  0
  5  2  1  0  0  0  0
  7 12  1  0  0  0  0
  8 16  1  0  0  0  0
  8 10  1  1  0  0  0
 10 13  1  0  0  0  0
 11  1  1  0  0  0  0
 11  6  2  0  0  0  0
 13  9  1  0  0  0  0
 13 17  1  0  0  0  0
 14  9  1  0  0  0  0
 15  8  1  0  0  0  0
 16 14  1  1  0  0  0
 17 22  1  6  0  0  0
 17 18  1  0  0  0  0
 18 19  1  0  0  0  0
 19 21  1  0  0  0  0
 19 20  1  0  0  0  0
 21 20  1  0  0  0  0
 23 22  1  0  0  0  0
 24 23  1  0  0  0  0
 25 24  1  0  0  0  0
M  END
>  <MODEL>
3

>  <REMARK>
 VINA RESULT:      -8.1      2.202      6.864
  Name = 
  6 active torsions:
  status: ('A' for Active; 'I' for Inactive)
    1  A    between atoms: C_3  and  C_4
    2  A    between atoms: C_4  and  C_10
    3  A    between atoms: C_6  and  C_9
    4  A    between atoms: C_6  and  C_16
    5  A    between atoms: C_10  and  C_16
    6  A    between atoms: C_10  and  N_21
                            x       y       z     vdW  Elec       q    Type
                         _______ _______ _______ _____ _____    ______ ____

>  <TORSDO>
F 6

$$$$
=
 OpenBabel11052410373D

 25 28  0  0  1  0  0  0  0  0999 V2000
  161.1230  204.3710  145.3750 C   0  0  0  0  0  0  0  0  0  0  0  0
  161.2150  200.7110  148.1870 N   0  0  0  0  0  0  0  0  0  0  0  0
  161.0560  202.9570  148.1260 C   0  0  1  0  0  3  0  0  0  0  0  0
  160.9710  204.6780  144.1650 O   0  0  0  0  0  0  0  0  0  0  0  0
  161.4420  201.1110  146.9720 O   0  0  0  0  0  0  0  0  0  0  0  0
  161.3380  202.4160  146.8680 C   0  0  0  0  0  0  0  0  0  0  0  0
  160.9470  201.8100  148.9130 C   0  0  0  0  0  0  0  0  0  0  0  0
  161.6230  205.3260  147.6540 C   0  0  2  0  0  3  0  0  0  0  0  0
  160.6760  206.0400  150.3070 C   0  0  0  0  0  2  0  0  0  0  0  0
  161.5910  206.7250  148.2680 C   0  0  0  0  0  2  0  0  0  0  0  0
  161.3980  203.0080  145.7090 N   0  0  0  0  0  0  0  0  0  0  0  0
  160.7080  201.7590  150.3160 N   0  0  0  0  0  1  0  0  0  0  0  0
  161.8400  206.6730  149.7050 N   0  0  0  0  0  0  0  0  0  0  0  0
  160.6630  204.5550  149.9700 C   0  0  0  0  0  2  0  0  0  0  0  0
  160.9770  205.3850  146.3610 N   0  0  0  0  0  2  0  0  0  0  0  0
  161.0210  204.2470  148.5310 C   0  0  2  0  0  3  0  0  0  0  0  0
  162.0020  208.0210  150.2760 C   0  0  2  0  0  3  0  0  0  0  0  0
  161.0540  208.3620  151.4460 C   0  0  0  0  0  2  0  0  0  0  0  0
  161.7370  208.3300  152.8050 C   0  0  0  0  0  3  0  0  0  0  0  0
  160.8210  208.9650  153.8300 C   0  0  0  0  0  2  0  0  0  0  0  0
  160.9300  207.4590  153.7440 C   0  0  0  0  0  2  0  0  0  0  0  0
  162.0520  209.0890  149.1820 C   0  0  0  0  0  2  0  0  0  0  0  0
  162.1690  210.4840  149.7760 C   0  0  0  0  0  2  0  0  0  0  0  0
  162.1440  211.5300  148.6780 C   0  0  0  0  0  2  0  0  0  0  0  0
  161.2090  212.5140  148.9970 O   0  0  0  0  0  1  0  0  0  0  0  0
  1 11  1  0  0  0  0
  1 15  1  0  0  0  0
  2  7  2  0  0  0  0
  3  6  1  1  0  0  0
  3 16  1  0  0  0  0
  3  7  1  0  0  0  0
  4  1  2  0  0  0  0
  5  2  1  0  0  0  0
  6  5  1  0  0  0  0
  7 12  1  0  0  0  0
  8 10  1  1  0  0  0
  8 16  1  0  0  0  0
 10 13  1  0  0  0  0
 11  6  2  0  0  0  0
 13 17  1  0  0  0  0
 13  9  1  0  0  0  0
 14  9  1  0  0  0  0
 15  8  1  0  0  0  0
 16 14  1  1  0  0  0
 17 22  1  6  0  0  0
 17 18  1  0  0  0  0
 18 19  1  0  0  0  0
 19 21  1  0  0  0  0
 19 20  1  0  0  0  0
 21 20  1  0  0  0  0
 22 23  1  0  0  0  0
 24 25  1  0  0  0  0
 24 23  1  0  0  0  0
M  END
>  <MODEL>
4

>  <REMARK>
 VINA RESULT:      -7.9      2.286      6.974
  Name = 
  6 active torsions:
  status: ('A' for Active; 'I' for Inactive)
    1  A    between atoms: C_3  and  C_4
    2  A    between atoms: C_4  and  C_10
    3  A    between atoms: C_6  and  C_9
    4  A    between atoms: C_6  and  C_16
    5  A    between atoms: C_10  and  C_16
    6  A    between atoms: C_10  and  N_21
                            x       y       z     vdW  Elec       q    Type
                         _______ _______ _______ _____ _____    ______ ____

>  <TORSDO>
F 6

$$$$
=
 OpenBabel11052410373D

 25 28  0  0  1  0  0  0  0  0999 V2000
  161.1280  203.0270  150.7130 C   0  0  0  0  0  0  0  0  0  0  0  0
  160.9120  202.2830  146.1620 N   0  0  0  0  0  0  0  0  0  0  0  0
  161.4010  203.8190  147.7350 C   0  0  1  0  0  3  0  0  0  0  0  0
  161.1360  202.4130  151.8110 O   0  0  0  0  0  0  0  0  0  0  0  0
  160.5640  201.8150  147.3230 O   0  0  0  0  0  0  0  0  0  0  0  0
  160.8490  202.6590  148.2870 C   0  0  0  0  0  0  0  0  0  0  0  0
  161.4530  203.4930  146.3790 C   0  0  0  0  0  0  0  0  0  0  0  0
  161.1360  205.3280  149.6860 C   0  0  2  0  0  3  0  0  0  0  0  0
  162.5780  207.3930  148.2340 C   0  0  0  0  0  2  0  0  0  0  0  0
  161.4760  206.7320  150.1870 C   0  0  0  0  0  2  0  0  0  0  0  0
  160.7030  202.3290  149.5390 N   0  0  0  0  0  0  0  0  0  0  0  0
  161.8950  204.3350  145.3180 N   0  0  0  0  0  1  0  0  0  0  0  0
  161.4460  207.7000  149.0950 N   0  0  0  0  0  0  0  0  0  0  0  0
  162.3120  206.1020  147.4720 C   0  0  0  0  0  2  0  0  0  0  0  0
  161.5770  204.3750  150.6800 N   0  0  0  0  0  2  0  0  0  0  0  0
  161.6940  205.0050  148.3150 C   0  0  2  0  0  3  0  0  0  0  0  0
  161.5810  209.0800  149.5910 C   0  0  2  0  0  3  0  0  0  0  0  0
  162.3330  210.0490  148.6530 C   0  0  0  0  0  2  0  0  0  0  0  0
  162.0090  211.5130  148.9120 C   0  0  0  0  0  3  0  0  0  0  0  0
  162.8000  212.3700  147.9450 C   0  0  0  0  0  2  0  0  0  0  0  0
  161.3350  212.0950  147.6880 C   0  0  0  0  0  2  0  0  0  0  0  0
  162.0710  209.1080  151.0410 C   0  0  0  0  0  2  0  0  0  0  0  0
  161.0760  209.8160  151.9470 C   0  0  0  0  0  2  0  0  0  0  0  0
  161.2370  209.3420  153.3790 C   0  0  0  0  0  2  0  0  0  0  0  0
  161.1280  207.9520  153.4220 O   0  0  0  0  0  1  0  0  0  0  0  0
  1  4  2  0  0  0  0
  2  7  2  0  0  0  0
  2  5  1  0  0  0  0
  3  7  1  6  0  0  0
  3  6  1  0  0  0  0
  3 16  1  0  0  0  0
  5  6  1  0  0  0  0
  6 11  2  0  0  0  0
  8 10  1  1  0  0  0
  8 15  1  0  0  0  0
  9 13  1  0  0  0  0
 11  1  1  0  0  0  0
 12  7  1  0  0  0  0
 13 17  1  0  0  0  0
 13 10  1  0  0  0  0
 14  9  1  0  0  0  0
 15  1  1  0  0  0  0
 16 14  1  6  0  0  0
 16  8  1  0  0  0  0
 17 18  1  6  0  0  0
 17 22  1  0  0  0  0
 18 19  1  0  0  0  0
 20 19  1  0  0  0  0
 21 20  1  0  0  0  0
 21 19  1  0  0  0  0
 22 23  1  0  0  0  0
 23 24  1  0  0  0  0
 24 25  1  0  0  0  0
M  END
>  <MODEL>
5

>  <REMARK>
 VINA RESULT:      -7.5      2.761      7.694
  Name = 
  6 active torsions:
  status: ('A' for Active; 'I' for Inactive)
    1  A    between atoms: C_3  and  C_4
    2  A    between atoms: C_4  and  C_10
    3  A    between atoms: C_6  and  C_9
    4  A    between atoms: C_6  and  C_16
    5  A    between atoms: C_10  and  C_16
    6  A    between atoms: C_10  and  N_21
                            x       y       z     vdW  Elec       q    Type
                         _______ _______ _______ _____ _____    ______ ____

>  <TORSDO>
F 6

$$$$
=
 OpenBabel11052410373D

 25 28  0  0  1  0  0  0  0  0999 V2000
  160.9520  202.0340  149.7050 C   0  0  0  0  0  0  0  0  0  0  0  0
  161.5240  204.0080  145.5720 N   0  0  0  0  0  0  0  0  0  0  0  0
  161.5570  204.3880  147.7920 C   0  0  1  0  0  3  0  0  0  0  0  0
  160.8800  200.9050  150.2550 O   0  0  0  0  0  0  0  0  0  0  0  0
  161.0730  202.9530  146.1810 O   0  0  0  0  0  0  0  0  0  0  0  0
  161.0930  203.1050  147.4850 C   0  0  0  0  0  0  0  0  0  0  0  0
  161.8550  204.8940  146.5260 C   0  0  0  0  0  0  0  0  0  0  0  0
  160.8010  204.5100  150.1510 C   0  0  2  0  0  3  0  0  0  0  0  0
  162.1490  207.0720  150.4090 C   0  0  0  0  0  2  0  0  0  0  0  0
  160.8670  205.3880  151.4010 C   0  0  0  0  0  2  0  0  0  0  0  0
  160.8070  202.1180  148.2850 N   0  0  0  0  0  0  0  0  0  0  0  0
  162.3330  206.2010  146.2220 N   0  0  0  0  0  1  0  0  0  0  0  0
  160.8690  206.8040  151.0480 N   0  0  0  0  0  0  0  0  0  0  0  0
  162.1780  206.4380  149.0250 C   0  0  0  0  0  2  0  0  0  0  0  0
  161.2130  203.1730  150.5150 N   0  0  0  0  0  2  0  0  0  0  0  0
  161.5960  205.0400  148.9750 C   0  0  2  0  0  3  0  0  0  0  0  0
  160.7390  207.6580  152.2400 C   0  0  2  0  0  3  0  0  0  0  0  0
  161.0890  209.1470  152.0270 C   0  0  0  0  0  2  0  0  0  0  0  0
  160.0860  210.1000  152.6600 C   0  0  0  0  0  3  0  0  0  0  0  0
  160.8310  211.0880  153.5340 C   0  0  0  0  0  2  0  0  0  0  0  0
  160.3550  211.5040  152.1600 C   0  0  0  0  0  2  0  0  0  0  0  0
  161.4150  207.0260  153.4580 C   0  0  0  0  0  2  0  0  0  0  0  0
  160.4640  206.9530  154.6430 C   0  0  0  0  0  2  0  0  0  0  0  0
  160.6780  208.1380  155.5660 C   0  0  0  0  0  2  0  0  0  0  0  0
  161.8750  207.9740  156.2600 O   0  0  0  0  0  1  0  0  0  0  0  0
  1  4  2  0  0  0  0
  1 15  1  0  0  0  0
  2  5  1  0  0  0  0
  2  7  2  0  0  0  0
  3  7  1  6  0  0  0
  3 16  1  0  0  0  0
  5  6  1  0  0  0  0
  6  3  1  0  0  0  0
  6 11  2  0  0  0  0
  8 15  1  0  0  0  0
  8 10  1  1  0  0  0
  9 13  1  0  0  0  0
 11  1  1  0  0  0  0
 12  7  1  0  0  0  0
 13 10  1  0  0  0  0
 13 17  1  0  0  0  0
 14  9  1  0  0  0  0
 16 14  1  6  0  0  0
 16  8  1  0  0  0  0
 17 18  1  6  0  0  0
 17 22  1  0  0  0  0
 18 19  1  0  0  0  0
 19 20  1  0  0  0  0
 21 19  1  0  0  0  0
 21 20  1  0  0  0  0
 22 23  1  0  0  0  0
 23 24  1  0  0  0  0
 24 25  1  0  0  0  0
M  END
>  <MODEL>
6

>  <REMARK>
 VINA RESULT:      -7.3      2.497      7.964
  Name = 
  6 active torsions:
  status: ('A' for Active; 'I' for Inactive)
    1  A    between atoms: C_3  and  C_4
    2  A    between atoms: C_4  and  C_10
    3  A    between atoms: C_6  and  C_9
    4  A    between atoms: C_6  and  C_16
    5  A    between atoms: C_10  and  C_16
    6  A    between atoms: C_10  and  N_21
                            x       y       z     vdW  Elec       q    Type
                         _______ _______ _______ _____ _____    ______ ____

>  <TORSDO>
F 6

$$$$
=
 OpenBabel11052410373D

 25 28  0  0  1  0  0  0  0  0999 V2000
  160.8900  206.9500  153.5610 C   0  0  0  0  0  0  0  0  0  0  0  0
  162.3990  210.6720  151.2840 N   0  0  0  0  0  0  0  0  0  0  0  0
  161.6290  208.5700  151.0310 C   0  0  1  0  0  3  0  0  0  0  0  0
  160.4780  206.5900  154.6940 O   0  0  0  0  0  0  0  0  0  0  0  0
  162.3210  210.1130  152.4550 O   0  0  0  0  0  0  0  0  0  0  0  0
  161.8520  208.8900  152.3740 C   0  0  0  0  0  0  0  0  0  0  0  0
  161.9570  209.7670  150.3940 C   0  0  0  0  0  0  0  0  0  0  0  0
  161.4530  206.1050  151.2540 C   0  0  2  0  0  3  0  0  0  0  0  0
  160.7630  205.9390  148.4350 C   0  0  0  0  0  2  0  0  0  0  0  0
  161.1360  204.8370  150.4620 C   0  0  0  0  0  2  0  0  0  0  0  0
  161.5720  208.2020  153.4440 N   0  0  0  0  0  0  0  0  0  0  0  0
  161.9570  210.0130  148.9910 N   0  0  0  0  0  1  0  0  0  0  0  0
  161.6060  204.9460  149.0850 N   0  0  0  0  0  0  0  0  0  0  0  0
  161.1030  207.3280  148.9600 C   0  0  0  0  0  2  0  0  0  0  0  0
  160.6260  206.1160  152.4410 N   0  0  0  0  0  2  0  0  0  0  0  0
  161.3080  207.3870  150.4600 C   0  0  2  0  0  3  0  0  0  0  0  0
  161.4810  203.6670  148.3670 C   0  0  2  0  0  3  0  0  0  0  0  0
  160.8890  203.7630  146.9440 C   0  0  0  0  0  2  0  0  0  0  0  0
  161.9250  203.5780  145.8450 C   0  0  0  0  0  3  0  0  0  0  0  0
  161.8070  204.7240  144.8610 C   0  0  0  0  0  2  0  0  0  0  0  0
  162.9100  204.7260  145.8960 C   0  0  0  0  0  2  0  0  0  0  0  0
  160.8300  202.5950  149.2430 C   0  0  0  0  0  2  0  0  0  0  0  0
  160.4180  201.3840  148.4200 C   0  0  0  0  0  2  0  0  0  0  0  0
  161.5810  200.4210  148.2790 C   0  0  0  0  0  2  0  0  0  0  0  0
  161.5510  199.8410  147.0110 O   0  0  0  0  0  1  0  0  0  0  0  0
  1  4  2  0  0  0  0
  2  5  1  0  0  0  0
  3  7  1  6  0  0  0
  3  6  1  0  0  0  0
  6  5  1  0  0  0  0
  6 11  2  0  0  0  0
  7  2  2  0  0  0  0
  8 10  1  6  0  0  0
  8 15  1  0  0  0  0
  9 14  1  0  0  0  0
  9 13  1  0  0  0  0
 11  1  1  0  0  0  0
 12  7  1  0  0  0  0
 13 10  1  0  0  0  0
 15  1  1  0  0  0  0
 16 14  1  6  0  0  0
 16  3  1  0  0  0  0
 16  8  1  0  0  0  0
 17 18  1  6  0  0  0
 17 13  1  0  0  0  0
 17 22  1  0  0  0  0
 19 21  1  0  0  0  0
 19 18  1  0  0  0  0
 20 19  1  0  0  0  0
 20 21  1  0  0  0  0
 23 22  1  0  0  0  0
 24 23  1  0  0  0  0
 25 24  1  0  0  0  0
M  END
>  <MODEL>
7

>  <REMARK>
 VINA RESULT:      -7.3      1.854      3.974
  Name = 
  6 active torsions:
  status: ('A' for Active; 'I' for Inactive)
    1  A    between atoms: C_3  and  C_4
    2  A    between atoms: C_4  and  C_10
    3  A    between atoms: C_6  and  C_9
    4  A    between atoms: C_6  and  C_16
    5  A    between atoms: C_10  and  C_16
    6  A    between atoms: C_10  and  N_21
                            x       y       z     vdW  Elec       q    Type
                         _______ _______ _______ _____ _____    ______ ____

>  <TORSDO>
F 6

$$$$
=
 OpenBabel11052410373D

 25 28  0  0  1  0  0  0  0  0999 V2000
  161.2840  204.7150  145.3370 C   0  0  0  0  0  0  0  0  0  0  0  0
  161.2100  201.3540  148.5010 N   0  0  0  0  0  0  0  0  0  0  0  0
  161.0310  203.5790  148.2040 C   0  0  1  0  0  3  0  0  0  0  0  0
  161.2180  204.8970  144.0940 O   0  0  0  0  0  0  0  0  0  0  0  0
  161.5220  201.6360  147.2710 O   0  0  0  0  0  0  0  0  0  0  0  0
  161.4100  202.9210  147.0300 C   0  0  0  0  0  0  0  0  0  0  0  0
  160.8780  202.5140  149.0910 C   0  0  0  0  0  0  0  0  0  0  0  0
  161.6040  205.8990  147.5380 C   0  0  2  0  0  3  0  0  0  0  0  0
  160.4570  206.8560  150.0320 C   0  0  0  0  0  2  0  0  0  0  0  0
  161.5110  207.3520  148.0050 C   0  0  0  0  0  2  0  0  0  0  0  0
  161.5490  203.3960  145.8250 N   0  0  0  0  0  0  0  0  0  0  0  0
  160.5360  202.5980  150.4720 N   0  0  0  0  0  1  0  0  0  0  0  0
  161.6550  207.4470  149.4540 N   0  0  0  0  0  0  0  0  0  0  0  0
  160.4850  205.3450  149.8450 C   0  0  0  0  0  2  0  0  0  0  0  0
  161.0540  205.8180  146.2030 N   0  0  0  0  0  2  0  0  0  0  0  0
  160.9520  204.9020  148.4740 C   0  0  2  0  0  3  0  0  0  0  0  0
  161.7590  208.8480  149.8970 C   0  0  2  0  0  3  0  0  0  0  0  0
  162.3270  209.8310  148.8510 C   0  0  0  0  0  2  0  0  0  0  0  0
  161.9600  211.2830  149.1250 C   0  0  0  0  0  3  0  0  0  0  0  0
  162.8080  212.1780  148.2450 C   0  0  0  0  0  2  0  0  0  0  0  0
  161.3720  211.8900  147.8690 C   0  0  0  0  0  2  0  0  0  0  0  0
  162.4200  208.9520  151.2740 C   0  0  0  0  0  2  0  0  0  0  0  0
  161.3820  209.1070  152.3740 C   0  0  0  0  0  2  0  0  0  0  0  0
  161.6330  210.3790  153.1620 C   0  0  0  0  0  2  0  0  0  0  0  0
  160.5040  211.1940  153.0960 O   0  0  0  0  0  1  0  0  0  0  0  0
  1 11  1  0  0  0  0
  1 15  1  0  0  0  0
  2  7  2  0  0  0  0
  3  6  1  1  0  0  0
  3 16  1  0  0  0  0
  3  7  1  0  0  0  0
  4  1  2  0  0  0  0
  5  2  1  0  0  0  0
  6  5  1  0  0  0  0
  7 12  1  0  0  0  0
  8 10  1  1  0  0  0
  8 16  1  0  0  0  0
 10 13  1  0  0  0  0
 11  6  2  0  0  0  0
 13 17  1  0  0  0  0
 13  9  1  0  0  0  0
 14  9  1  0  0  0  0
 15  8  1  0  0  0  0
 16 14  1  1  0  0  0
 17 18  1  6  0  0  0
 17 22  1  0  0  0  0
 18 19  1  0  0  0  0
 20 19  1  0  0  0  0
 21 20  1  0  0  0  0
 21 19  1  0  0  0  0
 22 23  1  0  0  0  0
 23 24  1  0  0  0  0
 25 24  1  0  0  0  0
M  END
>  <MODEL>
8

>  <REMARK>
 VINA RESULT:      -7.1      2.272      7.443
  Name = 
  6 active torsions:
  status: ('A' for Active; 'I' for Inactive)
    1  A    between atoms: C_3  and  C_4
    2  A    between atoms: C_4  and  C_10
    3  A    between atoms: C_6  and  C_9
    4  A    between atoms: C_6  and  C_16
    5  A    between atoms: C_10  and  C_16
    6  A    between atoms: C_10  and  N_21
                            x       y       z     vdW  Elec       q    Type
                         _______ _______ _______ _____ _____    ______ ____

>  <TORSDO>
F 6

$$$$
=
 OpenBabel11052410373D

 25 28  0  0  1  0  0  0  0  0999 V2000
  161.1420  206.7060  153.1010 C   0  0  0  0  0  0  0  0  0  0  0  0
  162.4290  210.5740  150.9350 N   0  0  0  0  0  0  0  0  0  0  0  0
  161.6910  208.4700  150.6190 C   0  0  1  0  0  3  0  0  0  0  0  0
  160.8070  206.2800  154.2360 O   0  0  0  0  0  0  0  0  0  0  0  0
  162.4350  209.9560  152.0770 O   0  0  0  0  0  0  0  0  0  0  0  0
  161.9880  208.7270  151.9610 C   0  0  0  0  0  0  0  0  0  0  0  0
  161.9530  209.7060  150.0270 C   0  0  0  0  0  0  0  0  0  0  0  0
  161.5810  205.9940  150.7240 C   0  0  2  0  0  3  0  0  0  0  0  0
  160.7260  205.9530  147.9460 C   0  0  0  0  0  2  0  0  0  0  0  0
  161.2450  204.7590  149.8880 C   0  0  0  0  0  2  0  0  0  0  0  0
  161.7880  207.9790  153.0090 N   0  0  0  0  0  0  0  0  0  0  0  0
  161.8630  210.0220  148.6400 N   0  0  0  0  0  1  0  0  0  0  0  0
  161.6280  204.9500  148.4930 N   0  0  0  0  0  0  0  0  0  0  0  0
  161.0660  207.3220  148.5210 C   0  0  0  0  0  2  0  0  0  0  0  0
  160.8280  205.9240  151.9560 N   0  0  0  0  0  2  0  0  0  0  0  0
  161.3610  207.3100  150.0070 C   0  0  2  0  0  3  0  0  0  0  0  0
  161.4870  203.7060  147.7180 C   0  0  2  0  0  3  0  0  0  0  0  0
  161.9500  202.4220  148.4390 C   0  0  0  0  0  2  0  0  0  0  0  0
  160.9400  201.2870  148.3600 C   0  0  0  0  0  3  0  0  0  0  0  0
  160.6480  200.7900  149.7610 C   0  0  0  0  0  2  0  0  0  0  0  0
  159.6680  201.7080  149.0650 C   0  0  0  0  0  2  0  0  0  0  0  0
  162.0460  203.8630  146.3020 C   0  0  0  0  0  2  0  0  0  0  0  0
  161.0440  203.3980  145.2570 C   0  0  0  0  0  2  0  0  0  0  0  0
  160.4630  204.5870  144.5160 C   0  0  0  0  0  2  0  0  0  0  0  0
  161.4930  205.4530  144.1510 O   0  0  0  0  0  1  0  0  0  0  0  0
  1  4  2  0  0  0  0
  2  5  1  0  0  0  0
  3  7  1  6  0  0  0
  3  6  1  0  0  0  0
  6  5  1  0  0  0  0
  6 11  2  0  0  0  0
  7  2  2  0  0  0  0
  8 10  1  6  0  0  0
  8 15  1  0  0  0  0
  9 13  1  0  0  0  0
  9 14  1  0  0  0  0
 11  1  1  0  0  0  0
 12  7  1  0  0  0  0
 13 10  1  0  0  0  0
 15  1  1  0  0  0  0
 16 14  1  6  0  0  0
 16  3  1  0  0  0  0
 16  8  1  0  0  0  0
 17 22  1  6  0  0  0
 17 18  1  0  0  0  0
 17 13  1  0  0  0  0
 19 18  1  0  0  0  0
 19 21  1  0  0  0  0
 19 20  1  0  0  0  0
 21 20  1  0  0  0  0
 23 22  1  0  0  0  0
 24 23  1  0  0  0  0
 25 24  1  0  0  0  0
M  END
>  <MODEL>
9

>  <REMARK>
 VINA RESULT:      -7.1      1.469      3.075
  Name = 
  6 active torsions:
  status: ('A' for Active; 'I' for Inactive)
    1  A    between atoms: C_3  and  C_4
    2  A    between atoms: C_4  and  C_10
    3  A    between atoms: C_6  and  C_9
    4  A    between atoms: C_6  and  C_16
    5  A    between atoms: C_10  and  C_16
    6  A    between atoms: C_10  and  N_21
                            x       y       z     vdW  Elec       q    Type
                         _______ _______ _______ _____ _____    ______ ____

>  <TORSDO>
F 6

$$$$
