=
 OpenBabel11042421403D

 45 49  0  0  1  0  0  0  0  0999 V2000
  161.1420  207.8380  153.9850 C   0  0  0  0  0  2  0  0  0  0  0  0
  161.6620  209.5030  151.3810 C   0  0  0  0  0  2  0  0  0  0  0  0
  160.7600  206.3710  153.8820 C   0  0  0  0  0  2  0  0  0  0  0  0
  161.8310  205.6110  153.1010 C   0  0  0  0  0  2  0  0  0  0  0  0
  160.4410  208.6610  152.9950 N   0  0  2  0  0  0  0  0  0  0  0  0
  161.1740  206.9610  151.1060 C   0  0  2  0  0  3  0  0  0  0  0  0
  160.6880  208.3590  151.5640 C   0  0  2  0  0  3  0  0  0  0  0  0
  161.3170  209.8220  152.8280 C   0  0  2  0  0  3  0  0  0  0  0  0
  162.3450  206.3970  151.8950 C   0  0  0  0  0  2  0  0  0  0  0  0
  160.5690  211.1230  152.9920 C   0  0  0  0  0  0  0  0  0  0  0  0
  159.2830  212.8810  153.8860 C   0  0  2  0  0  3  0  0  0  0  0  0
  156.9190  213.1810  153.8650 O   0  0  0  0  0  0  0  0  0  0  0  0
  160.0020  211.5990  154.1050 C   0  0  0  0  0  0  0  0  0  0  0  0
  158.8120  211.1370  156.1730 C   0  0  0  0  0  3  0  0  0  0  0  0
  157.8930  212.7360  154.4500 C   0  0  0  0  0  0  0  0  0  0  0  0
  160.2770  211.9830  151.8130 C   0  0  0  0  0  2  0  0  0  0  0  0
  158.8600  214.0510  151.7180 C   0  0  0  0  0  3  0  0  0  0  0  0
  159.3830  213.0260  152.4020 C   0  0  0  0  0  0  0  0  0  0  0  0
  157.7330  212.1440  155.8300 C   0  0  0  0  0  2  0  0  0  0  0  0
  159.8510  210.8720  155.3730 C   0  0  0  0  0  3  0  0  0  0  0  0
  159.1070  214.2440  149.9500 S   0  0  0  0  0  0  0  0  0  0  0  0
  157.4640  213.5750  149.5810 C   0  0  0  0  0  2  0  0  0  0  0  0
  156.9990  214.0310  147.8900 S   0  0  0  0  0  0  0  0  0  0  0  0
  158.0270  212.7140  147.1720 C   0  0  0  0  0  2  0  0  0  0  0  0
  158.6320  213.1690  145.8540 C   0  0  0  0  0  2  0  0  0  0  0  0
  159.9810  213.6610  146.0660 N   0  0  0  0  0  2  0  0  0  0  0  0
  160.5910  212.8080  147.0790 C   0  0  0  0  0  2  0  0  0  0  0  0
  162.7330  212.0090  148.0330 C   0  0  0  0  0  1  0  0  0  0  0  0
  162.0830  213.0980  147.2030 C   0  0  0  0  0  0  0  0  0  0  0  0
  162.6730  213.1180  145.9380 O   0  0  0  0  0  1  0  0  0  0  0  0
  162.3020  214.4360  147.8940 C   0  0  0  0  0  1  0  0  0  0  0  0
  162.1540  204.7630  149.5720 O   0  0  0  0  0  0  0  0  0  0  0  0
  161.5130  206.9990  149.6900 N   0  0  0  0  0  2  0  0  0  0  0  0
  161.9580  205.8770  147.5380 N   0  0  0  0  0  2  0  0  0  0  0  0
  161.8990  205.8330  148.9610 C   0  0  0  0  0  0  0  0  0  0  0  0
  160.2820  204.0220  144.6500 O   0  0  0  0  0  0  0  0  0  0  0  0
  161.2800  203.5940  146.8450 C   0  0  1  0  0  3  0  0  0  0  0  0
  160.4750  206.7620  145.1130 O   0  0  0  0  0  1  0  0  0  0  0  0
  161.6470  205.6170  143.0710 O   0  0  0  0  0  0  0  0  0  0  0  0
  161.2810  205.3930  144.5210 P   0  0  2  0  0  0  0  0  0  0  0  0
  162.3440  204.7130  146.7470 C   0  0  1  0  0  3  0  0  0  0  0  0
  162.6970  205.0880  145.4260 O   0  0  0  0  0  0  0  0  0  0  0  0
  160.0090  203.8730  146.0190 C   0  0  0  0  0  2  0  0  0  0  0  0
  161.7790  202.2770  146.7260 O   0  0  0  0  0  0  0  0  0  0  0  0
  161.0370  201.4210  147.5580 C   0  0  0  0  0  1  0  0  0  0  0  0
  2  8  1  0  0  0  0
  3  1  1  0  0  0  0
  4  3  1  0  0  0  0
  5  1  1  1  0  0  0
  6 33  1  6  0  0  0
  6  7  1  0  0  0  0
  6  9  1  0  0  0  0
  7  2  1  1  0  0  0
  7  5  1  0  0  0  0
  8 10  1  6  0  0  0
  8  5  1  0  0  0  0
  9  4  1  0  0  0  0
 10 13  2  0  0  0  0
 11 18  1  6  0  0  0
 11 13  1  0  0  0  0
 11 15  1  0  0  0  0
 12 15  2  0  0  0  0
 13 20  1  0  0  0  0
 15 19  1  0  0  0  0
 16 18  1  0  0  0  0
 16 10  1  0  0  0  0
 17 18  2  0  0  0  0
 19 14  1  0  0  0  0
 20 14  2  0  0  0  0
 21 17  1  0  0  0  0
 22 21  1  0  0  0  0
 23 22  1  0  0  0  0
 24 23  1  0  0  0  0
 25 26  1  0  0  0  0
 25 24  1  0  0  0  0
 26 27  1  0  0  0  0
 27 29  1  0  0  0  0
 29 31  1  0  0  0  0
 29 28  1  0  0  0  0
 30 29  1  0  0  0  0
 34 35  1  0  0  0  0
 35 32  2  0  0  0  0
 35 33  1  0  0  0  0
 36 43  1  0  0  0  0
 37 44  1  6  0  0  0
 40 39  2  6  0  0  0
 40 36  1  0  0  0  0
 40 38  1  0  0  0  0
 40 42  1  0  0  0  0
 41 37  1  0  0  0  0
 41 34  1  1  0  0  0
 42 41  1  0  0  0  0
 43 37  1  0  0  0  0
 44 45  1  0  0  0  0
M  END
>  <MODEL>
1

>  <REMARK>
 VINA RESULT:      -6.0      0.000      0.000
  Name = 
  12 active torsions:
  status: ('A' for Active; 'I' for Inactive)
    1  A    between atoms: C_1  and  C_41
    2  A    between atoms: N_7  and  C_14
    3  A    between atoms: N_7  and  C_21
    4  A    between atoms: S_8  and  C_9
    5  A    between atoms: S_8  and  C_36
    6  A    between atoms: C_9  and  S_28
    7  A    between atoms: C_12  and  C_21
    8  A    between atoms: N_13  and  C_33
    9  A    between atoms: C_14  and  C_15
   10  A    between atoms: C_15  and  S_28
   11  A    between atoms: C_16  and  O_43
   12  A    between atoms: N_18  and  C_32
                            x       y       z     vdW  Elec       q    Type
                         _______ _______ _______ _____ _____    ______ ____

>  <TORSDO>
F 12

$$$$
=
 OpenBabel11042421403D

 45 49  0  0  1  0  0  0  0  0999 V2000
  161.9090  211.9670  147.2540 C   0  0  0  0  0  2  0  0  0  0  0  0
  161.8140  211.4810  150.3490 C   0  0  0  0  0  2  0  0  0  0  0  0
  161.2050  213.1730  146.6550 C   0  0  0  0  0  2  0  0  0  0  0  0
  161.7330  214.4530  147.3010 C   0  0  0  0  0  2  0  0  0  0  0  0
  161.0990  211.3110  148.2850 N   0  0  2  0  0  0  0  0  0  0  0  0
  160.7170  213.6600  149.4390 C   0  0  2  0  0  3  0  0  0  0  0  0
  160.7460  212.1110  149.4820 C   0  0  2  0  0  3  0  0  0  0  0  0
  162.0880  210.6280  149.1210 C   0  0  2  0  0  3  0  0  0  0  0  0
  161.9390  214.3070  148.8090 C   0  0  0  0  0  2  0  0  0  0  0  0
  161.7520  209.1700  149.3170 C   0  0  0  0  0  0  0  0  0  0  0  0
  161.1190  207.1170  150.2820 C   0  0  2  0  0  3  0  0  0  0  0  0
  162.4730  205.4720  151.3490 O   0  0  0  0  0  0  0  0  0  0  0  0
  161.2600  208.5910  150.4170 C   0  0  0  0  0  0  0  0  0  0  0  0
  161.1850  208.5040  152.8440 C   0  0  0  0  0  3  0  0  0  0  0  0
  161.7900  206.4760  151.4700 C   0  0  0  0  0  0  0  0  0  0  0  0
  162.0820  208.1680  148.2680 C   0  0  0  0  0  2  0  0  0  0  0  0
  161.8820  205.6710  148.3920 C   0  0  0  0  0  3  0  0  0  0  0  0
  161.7590  206.8800  148.9520 C   0  0  0  0  0  0  0  0  0  0  0  0
  161.4930  207.0210  152.8460 C   0  0  0  0  0  2  0  0  0  0  0  0
  161.0920  209.2340  151.7270 C   0  0  0  0  0  3  0  0  0  0  0  0
  162.5510  205.4480  146.7410 S   0  0  0  0  0  0  0  0  0  0  0  0
  160.9770  205.9090  145.9700 C   0  0  0  0  0  2  0  0  0  0  0  0
  160.4720  204.6080  144.8140 S   0  0  0  0  0  0  0  0  0  0  0  0
  161.5920  203.3930  145.5750 C   0  0  0  0  0  2  0  0  0  0  0  0
  160.8850  202.0610  145.7610 C   0  0  0  0  0  2  0  0  0  0  0  0
  160.1480  202.0560  147.0120 N   0  0  0  0  0  2  0  0  0  0  0  0
  161.1110  202.3250  148.0740 C   0  0  0  0  0  2  0  0  0  0  0  0
  159.1730  201.3610  149.2790 C   0  0  0  0  0  1  0  0  0  0  0  0
  160.6400  201.7250  149.3950 C   0  0  0  0  0  0  0  0  0  0  0  0
  161.3730  200.5720  149.6850 O   0  0  0  0  0  1  0  0  0  0  0  0
  160.8060  202.7360  150.5200 C   0  0  0  0  0  1  0  0  0  0  0  0
  158.2240  213.8410  150.8160 O   0  0  0  0  0  0  0  0  0  0  0  0
  160.5270  214.1850  150.7850 N   0  0  0  0  0  2  0  0  0  0  0  0
  159.1960  214.4260  152.8480 N   0  0  0  0  0  2  0  0  0  0  0  0
  159.2660  214.1490  151.4520 C   0  0  0  0  0  0  0  0  0  0  0  0
  157.4820  211.7670  154.9890 O   0  0  0  0  0  0  0  0  0  0  0  0
  157.0300  213.2420  153.0880 C   0  0  1  0  0  3  0  0  0  0  0  0
  160.1680  212.4980  154.8980 O   0  0  0  0  0  0  0  0  0  0  0  0
  158.7000  212.8850  157.0310 O   0  0  0  0  0  1  0  0  0  0  0  0
  158.6420  212.8930  155.5200 P   0  0  2  0  0  0  0  0  0  0  0  0
  157.9320  214.4000  153.5770 C   0  0  1  0  0  3  0  0  0  0  0  0
  158.1510  214.4360  154.9780 O   0  0  0  0  0  0  0  0  0  0  0  0
  157.4750  211.8550  153.5880 C   0  0  0  0  0  2  0  0  0  0  0  0
  155.6400  213.4820  153.1820 O   0  0  0  0  0  0  0  0  0  0  0  0
  155.2690  214.4530  152.2350 C   0  0  0  0  0  1  0  0  0  0  0  0
  3  1  1  0  0  0  0
  3  4  1  0  0  0  0
  4  9  1  0  0  0  0
  5  1  1  6  0  0  0
  5  8  1  0  0  0  0
  5  7  1  0  0  0  0
  6  7  1  0  0  0  0
  6 33  1  1  0  0  0
  7  2  1  1  0  0  0
  8 10  1  1  0  0  0
  8  2  1  0  0  0  0
  9  6  1  0  0  0  0
 10 13  2  0  0  0  0
 11 18  1  6  0  0  0
 11 13  1  0  0  0  0
 11 15  1  0  0  0  0
 12 15  2  0  0  0  0
 13 20  1  0  0  0  0
 14 19  1  0  0  0  0
 15 19  1  0  0  0  0
 16 18  1  0  0  0  0
 16 10  1  0  0  0  0
 17 18  2  0  0  0  0
 20 14  2  0  0  0  0
 21 17  1  0  0  0  0
 22 21  1  0  0  0  0
 23 24  1  0  0  0  0
 23 22  1  0  0  0  0
 24 25  1  0  0  0  0
 25 26  1  0  0  0  0
 26 27  1  0  0  0  0
 27 29  1  0  0  0  0
 28 29  1  0  0  0  0
 29 30  1  0  0  0  0
 29 31  1  0  0  0  0
 32 35  2  0  0  0  0
 33 35  1  0  0  0  0
 35 34  1  0  0  0  0
 36 40  1  0  0  0  0
 37 44  1  1  0  0  0
 37 41  1  0  0  0  0
 37 43  1  0  0  0  0
 40 38  2  6  0  0  0
 40 39  1  0  0  0  0
 41 34  1  6  0  0  0
 41 42  1  0  0  0  0
 42 40  1  0  0  0  0
 43 36  1  0  0  0  0
 45 44  1  0  0  0  0
M  END
>  <MODEL>
2

>  <REMARK>
 VINA RESULT:      -5.3      4.261      9.989
  Name = 
  12 active torsions:
  status: ('A' for Active; 'I' for Inactive)
    1  A    between atoms: C_1  and  C_41
    2  A    between atoms: N_7  and  C_14
    3  A    between atoms: N_7  and  C_21
    4  A    between atoms: S_8  and  C_9
    5  A    between atoms: S_8  and  C_36
    6  A    between atoms: C_9  and  S_28
    7  A    between atoms: C_12  and  C_21
    8  A    between atoms: N_13  and  C_33
    9  A    between atoms: C_14  and  C_15
   10  A    between atoms: C_15  and  S_28
   11  A    between atoms: C_16  and  O_43
   12  A    between atoms: N_18  and  C_32
                            x       y       z     vdW  Elec       q    Type
                         _______ _______ _______ _____ _____    ______ ____

>  <TORSDO>
F 12

$$$$
=
 OpenBabel11042421403D

 45 49  0  0  1  0  0  0  0  0999 V2000
  160.8870  208.5710  154.1420 C   0  0  0  0  0  2  0  0  0  0  0  0
  161.8830  209.5920  151.3500 C   0  0  0  0  0  2  0  0  0  0  0  0
  160.4520  207.1260  154.3070 C   0  0  0  0  0  2  0  0  0  0  0  0
  161.5910  206.1920  153.8980 C   0  0  0  0  0  2  0  0  0  0  0  0
  160.3890  209.1580  152.8930 N   0  0  2  0  0  0  0  0  0  0  0  0
  161.3160  207.0610  151.5730 C   0  0  2  0  0  3  0  0  0  0  0  0
  160.8370  208.5340  151.6250 C   0  0  2  0  0  3  0  0  0  0  0  0
  161.3380  210.2380  152.6150 C   0  0  2  0  0  3  0  0  0  0  0  0
  162.3220  206.6750  152.6450 C   0  0  0  0  0  2  0  0  0  0  0  0
  160.6400  211.5520  152.3630 C   0  0  0  0  0  0  0  0  0  0  0  0
  159.2360  213.4300  152.5750 C   0  0  2  0  0  3  0  0  0  0  0  0
  157.0020  213.7360  151.8050 O   0  0  0  0  0  0  0  0  0  0  0  0
  159.7940  212.1910  153.1770 C   0  0  0  0  0  0  0  0  0  0  0  0
  158.0250  212.0490  154.8370 C   0  0  0  0  0  3  0  0  0  0  0  0
  157.7360  213.3780  152.7120 C   0  0  0  0  0  0  0  0  0  0  0  0
  160.7510  212.2280  151.0420 C   0  0  0  0  0  2  0  0  0  0  0  0
  159.5300  214.2660  150.2380 C   0  0  0  0  0  3  0  0  0  0  0  0
  159.7770  213.3520  151.1830 C   0  0  0  0  0  0  0  0  0  0  0  0
  157.1470  212.9990  154.0490 C   0  0  0  0  0  2  0  0  0  0  0  0
  159.2390  211.6630  154.4300 C   0  0  0  0  0  3  0  0  0  0  0  0
  160.2980  214.1930  148.6160 S   0  0  0  0  0  0  0  0  0  0  0  0
  158.9750  213.1400  147.9650 C   0  0  0  0  0  2  0  0  0  0  0  0
  157.8030  214.1590  147.0320 S   0  0  0  0  0  0  0  0  0  0  0  0
  158.0040  213.1510  145.5320 C   0  0  0  0  0  2  0  0  0  0  0  0
  159.3600  212.4630  145.5310 C   0  0  0  0  0  2  0  0  0  0  0  0
  160.2300  213.0720  144.5430 N   0  0  0  0  0  2  0  0  0  0  0  0
  159.6950  212.7230  143.2320 C   0  0  0  0  0  2  0  0  0  0  0  0
  162.1520  212.5350  142.9730 C   0  0  0  0  0  1  0  0  0  0  0  0
  160.8230  212.3960  142.2580 C   0  0  0  0  0  0  0  0  0  0  0  0
  160.6900  211.0840  141.7970 O   0  0  0  0  0  1  0  0  0  0  0  0
  160.7960  213.3600  141.0810 C   0  0  0  0  0  1  0  0  0  0  0  0
  159.8770  205.9480  149.3740 O   0  0  0  0  0  0  0  0  0  0  0  0
  161.8690  206.7700  150.2570 N   0  0  0  0  0  2  0  0  0  0  0  0
  161.6020  206.3000  147.8510 N   0  0  0  0  0  2  0  0  0  0  0  0
  161.0650  206.3120  149.1710 C   0  0  0  0  0  0  0  0  0  0  0  0
  162.0710  203.4490  145.3520 O   0  0  0  0  0  0  0  0  0  0  0  0
  161.6660  205.8630  145.4100 C   0  0  1  0  0  3  0  0  0  0  0  0
  162.4780  203.4660  148.1070 O   0  0  0  0  0  1  0  0  0  0  0  0
  160.6090  202.0100  146.9920 O   0  0  0  0  0  0  0  0  0  0  0  0
  161.3210  203.3390  146.8740 P   0  0  2  0  0  0  0  0  0  0  0  0
  160.8210  205.8430  146.7050 C   0  0  1  0  0  3  0  0  0  0  0  0
  160.1830  204.6080  146.9830 O   0  0  0  0  0  0  0  0  0  0  0  0
  162.6850  204.7110  145.3160 C   0  0  0  0  0  2  0  0  0  0  0  0
  160.9400  206.1030  144.2220 O   0  0  0  0  0  0  0  0  0  0  0  0
  161.7470  205.7950  143.1120 C   0  0  0  0  0  1  0  0  0  0  0  0
  1  3  1  0  0  0  0
  2  8  1  0  0  0  0
  4  3  1  0  0  0  0
  5  1  1  1  0  0  0
  6 33  1  6  0  0  0
  6  7  1  0  0  0  0
  6  9  1  0  0  0  0
  7  2  1  1  0  0  0
  7  5  1  0  0  0  0
  8 10  1  6  0  0  0
  8  5  1  0  0  0  0
  9  4  1  0  0  0  0
 10 13  2  0  0  0  0
 11 18  1  6  0  0  0
 11 15  1  0  0  0  0
 11 13  1  0  0  0  0
 12 15  2  0  0  0  0
 13 20  1  0  0  0  0
 15 19  1  0  0  0  0
 16 18  1  0  0  0  0
 16 10  1  0  0  0  0
 17 18  2  0  0  0  0
 19 14  1  0  0  0  0
 20 14  2  0  0  0  0
 21 17  1  0  0  0  0
 22 21  1  0  0  0  0
 23 22  1  0  0  0  0
 24 23  1  0  0  0  0
 25 24  1  0  0  0  0
 26 25  1  0  0  0  0
 27 26  1  0  0  0  0
 29 28  1  0  0  0  0
 29 27  1  0  0  0  0
 30 29  1  0  0  0  0
 31 29  1  0  0  0  0
 34 35  1  0  0  0  0
 35 32  2  0  0  0  0
 35 33  1  0  0  0  0
 36 40  1  0  0  0  0
 37 44  1  6  0  0  0
 37 41  1  0  0  0  0
 40 42  1  0  0  0  0
 40 39  2  1  0  0  0
 40 38  1  0  0  0  0
 41 42  1  0  0  0  0
 41 34  1  1  0  0  0
 43 36  1  0  0  0  0
 43 37  1  0  0  0  0
 45 44  1  0  0  0  0
M  END
>  <MODEL>
3

>  <REMARK>
 VINA RESULT:      -5.2      2.035      2.810
  Name = 
  12 active torsions:
  status: ('A' for Active; 'I' for Inactive)
    1  A    between atoms: C_1  and  C_41
    2  A    between atoms: N_7  and  C_14
    3  A    between atoms: N_7  and  C_21
    4  A    between atoms: S_8  and  C_9
    5  A    between atoms: S_8  and  C_36
    6  A    between atoms: C_9  and  S_28
    7  A    between atoms: C_12  and  C_21
    8  A    between atoms: N_13  and  C_33
    9  A    between atoms: C_14  and  C_15
   10  A    between atoms: C_15  and  S_28
   11  A    between atoms: C_16  and  O_43
   12  A    between atoms: N_18  and  C_32
                            x       y       z     vdW  Elec       q    Type
                         _______ _______ _______ _____ _____    ______ ____

>  <TORSDO>
F 12

$$$$
=
 OpenBabel11042421403D

 45 49  0  0  1  0  0  0  0  0999 V2000
  161.1640  208.0570  153.7790 C   0  0  0  0  0  2  0  0  0  0  0  0
  161.7720  209.6200  151.1300 C   0  0  0  0  0  2  0  0  0  0  0  0
  160.8170  206.5800  153.7230 C   0  0  0  0  0  2  0  0  0  0  0  0
  161.9390  205.8110  153.0260 C   0  0  0  0  0  2  0  0  0  0  0  0
  160.4940  208.8220  152.7220 N   0  0  2  0  0  0  0  0  0  0  0  0
  161.3490  207.0580  150.9460 C   0  0  2  0  0  3  0  0  0  0  0  0
  160.8140  208.4640  151.3190 C   0  0  2  0  0  3  0  0  0  0  0  0
  161.3530  209.9940  152.5440 C   0  0  2  0  0  3  0  0  0  0  0  0
  162.4930  206.5550  151.8110 C   0  0  0  0  0  2  0  0  0  0  0  0
  160.5730  211.2840  152.6160 C   0  0  0  0  0  0  0  0  0  0  0  0
  159.1420  213.0100  153.3350 C   0  0  2  0  0  3  0  0  0  0  0  0
  156.8060  213.2870  152.9570 O   0  0  0  0  0  0  0  0  0  0  0  0
  159.8360  211.7310  153.6380 C   0  0  0  0  0  0  0  0  0  0  0  0
  158.3480  211.2140  155.4890 C   0  0  0  0  0  3  0  0  0  0  0  0
  157.6840  212.8400  153.6760 C   0  0  0  0  0  0  0  0  0  0  0  0
  160.4540  212.1650  151.4230 C   0  0  0  0  0  2  0  0  0  0  0  0
  159.0420  214.2200  151.1510 C   0  0  0  0  0  3  0  0  0  0  0  0
  159.4670  213.1870  151.8870 C   0  0  0  0  0  0  0  0  0  0  0  0
  157.3220  212.2170  155.0030 C   0  0  0  0  0  2  0  0  0  0  0  0
  159.5010  210.9760  154.8530 C   0  0  0  0  0  3  0  0  0  0  0  0
  159.5550  214.4530  149.4460 S   0  0  0  0  0  0  0  0  0  0  0  0
  158.1790  213.4520  148.8260 C   0  0  0  0  0  2  0  0  0  0  0  0
  158.1500  213.5290  147.0160 S   0  0  0  0  0  0  0  0  0  0  0  0
  159.7950  214.3030  146.9480 C   0  0  0  0  0  2  0  0  0  0  0  0
  160.7180  213.5130  146.0340 C   0  0  0  0  0  2  0  0  0  0  0  0
  160.2320  213.5640  144.6680 N   0  0  0  0  0  2  0  0  0  0  0  0
  160.6710  212.3370  144.0140 C   0  0  0  0  0  2  0  0  0  0  0  0
  160.4390  213.9340  142.1350 C   0  0  0  0  0  1  0  0  0  0  0  0
  161.0210  212.5990  142.5530 C   0  0  0  0  0  0  0  0  0  0  0  0
  162.4080  212.6380  142.3920 O   0  0  0  0  0  1  0  0  0  0  0  0
  160.4320  211.5100  141.6680 C   0  0  0  0  0  1  0  0  0  0  0  0
  162.0350  204.7330  149.4390 O   0  0  0  0  0  0  0  0  0  0  0  0
  161.7540  207.0420  149.5460 N   0  0  0  0  0  2  0  0  0  0  0  0
  162.1110  205.8660  147.4080 N   0  0  0  0  0  2  0  0  0  0  0  0
  161.9810  205.8310  148.8260 C   0  0  0  0  0  0  0  0  0  0  0  0
  160.1450  204.1630  144.6100 O   0  0  0  0  0  0  0  0  0  0  0  0
  161.1670  203.6600  146.7770 C   0  0  1  0  0  3  0  0  0  0  0  0
  160.6480  206.8710  145.0170 O   0  0  0  0  0  1  0  0  0  0  0  0
  161.6190  205.5770  142.9580 O   0  0  0  0  0  0  0  0  0  0  0  0
  161.2810  205.4150  144.4230 P   0  0  2  0  0  0  0  0  0  0  0  0
  162.3410  204.6560  146.6250 C   0  0  1  0  0  3  0  0  0  0  0  0
  162.6860  204.9720  145.2860 O   0  0  0  0  0  0  0  0  0  0  0  0
  159.9050  204.0630  145.9890 C   0  0  0  0  0  2  0  0  0  0  0  0
  161.5170  202.2950  146.6660 O   0  0  0  0  0  0  0  0  0  0  0  0
  161.0710  201.6060  147.8080 C   0  0  0  0  0  1  0  0  0  0  0  0
  2  8  1  0  0  0  0
  3  1  1  0  0  0  0
  4  3  1  0  0  0  0
  5  1  1  1  0  0  0
  6 33  1  6  0  0  0
  6  7  1  0  0  0  0
  6  9  1  0  0  0  0
  7  2  1  1  0  0  0
  7  5  1  0  0  0  0
  8 10  1  6  0  0  0
  8  5  1  0  0  0  0
  9  4  1  0  0  0  0
 10 13  2  0  0  0  0
 11 18  1  6  0  0  0
 11 13  1  0  0  0  0
 11 15  1  0  0  0  0
 12 15  2  0  0  0  0
 13 20  1  0  0  0  0
 15 19  1  0  0  0  0
 16 18  1  0  0  0  0
 16 10  1  0  0  0  0
 17 18  2  0  0  0  0
 19 14  1  0  0  0  0
 20 14  2  0  0  0  0
 21 17  1  0  0  0  0
 22 21  1  0  0  0  0
 23 22  1  0  0  0  0
 24 23  1  0  0  0  0
 25 24  1  0  0  0  0
 26 25  1  0  0  0  0
 27 26  1  0  0  0  0
 28 29  1  0  0  0  0
 29 27  1  0  0  0  0
 30 29  1  0  0  0  0
 31 29  1  0  0  0  0
 34 35  1  0  0  0  0
 35 32  2  0  0  0  0
 35 33  1  0  0  0  0
 36 43  1  0  0  0  0
 37 44  1  6  0  0  0
 40 39  2  6  0  0  0
 40 36  1  0  0  0  0
 40 38  1  0  0  0  0
 40 42  1  0  0  0  0
 41 37  1  0  0  0  0
 41 34  1  1  0  0  0
 42 41  1  0  0  0  0
 43 37  1  0  0  0  0
 44 45  1  0  0  0  0
M  END
>  <MODEL>
4

>  <REMARK>
 VINA RESULT:      -5.1      1.461      1.901
  Name = 
  12 active torsions:
  status: ('A' for Active; 'I' for Inactive)
    1  A    between atoms: C_1  and  C_41
    2  A    between atoms: N_7  and  C_14
    3  A    between atoms: N_7  and  C_21
    4  A    between atoms: S_8  and  C_9
    5  A    between atoms: S_8  and  C_36
    6  A    between atoms: C_9  and  S_28
    7  A    between atoms: C_12  and  C_21
    8  A    between atoms: N_13  and  C_33
    9  A    between atoms: C_14  and  C_15
   10  A    between atoms: C_15  and  S_28
   11  A    between atoms: C_16  and  O_43
   12  A    between atoms: N_18  and  C_32
                            x       y       z     vdW  Elec       q    Type
                         _______ _______ _______ _____ _____    ______ ____

>  <TORSDO>
F 12

$$$$
=
 OpenBabel11042421403D

 45 49  0  0  1  0  0  0  0  0999 V2000
  162.3830  208.6450  149.1440 C   0  0  0  0  0  2  0  0  0  0  0  0
  161.4910  206.8480  151.5530 C   0  0  0  0  0  2  0  0  0  0  0  0
  161.9640  210.1040  149.0920 C   0  0  0  0  0  2  0  0  0  0  0  0
  162.4390  210.8230  150.3540 C   0  0  0  0  0  2  0  0  0  0  0  0
  161.2870  207.7710  149.5760 N   0  0  2  0  0  0  0  0  0  0  0  0
  160.8630  209.3730  151.6380 C   0  0  2  0  0  3  0  0  0  0  0  0
  160.7310  208.0000  150.9320 C   0  0  2  0  0  3  0  0  0  0  0  0
  161.9730  206.6030  150.1310 C   0  0  2  0  0  3  0  0  0  0  0  0
  162.2570  209.9760  151.6140 C   0  0  0  0  0  2  0  0  0  0  0  0
  161.4610  205.3120  149.5400 C   0  0  0  0  0  0  0  0  0  0  0  0
  160.5650  203.1490  149.2970 C   0  0  2  0  0  3  0  0  0  0  0  0
  161.6890  201.0470  149.2700 O   0  0  0  0  0  0  0  0  0  0  0  0
  160.8770  204.2980  150.1860 C   0  0  0  0  0  0  0  0  0  0  0  0
  160.7360  202.9450  152.1990 C   0  0  0  0  0  3  0  0  0  0  0  0
  161.1270  201.9030  149.9340 C   0  0  0  0  0  0  0  0  0  0  0  0
  161.6940  204.9910  148.1060 C   0  0  0  0  0  2  0  0  0  0  0  0
  161.1950  202.8510  146.8970 C   0  0  0  0  0  3  0  0  0  0  0  0
  161.2040  203.5830  148.0170 C   0  0  0  0  0  0  0  0  0  0  0  0
  160.8650  201.6630  151.4010 C   0  0  0  0  0  2  0  0  0  0  0  0
  160.7570  204.1610  151.6440 C   0  0  0  0  0  3  0  0  0  0  0  0
  161.8710  203.4650  145.3510 S   0  0  0  0  0  0  0  0  0  0  0  0
  160.2850  204.1980  144.8720 C   0  0  0  0  0  2  0  0  0  0  0  0
  160.4720  205.9950  144.7330 S   0  0  0  0  0  0  0  0  0  0  0  0
  161.9250  205.8350  143.6500 C   0  0  0  0  0  2  0  0  0  0  0  0
  161.5200  205.9690  142.1910 C   0  0  0  0  0  2  0  0  0  0  0  0
  162.4510  206.8330  141.4910 N   0  0  0  0  0  2  0  0  0  0  0  0
  162.3040  206.5540  140.0670 C   0  0  0  0  0  2  0  0  0  0  0  0
  161.9590  207.5530  137.8270 C   0  0  0  0  0  1  0  0  0  0  0  0
  161.8350  207.7970  139.3180 C   0  0  0  0  0  0  0  0  0  0  0  0
  160.5000  208.0650  139.6250 O   0  0  0  0  0  1  0  0  0  0  0  0
  162.6990  208.9920  139.6920 C   0  0  0  0  0  1  0  0  0  0  0  0
  160.8230  211.4900  153.5510 O   0  0  0  0  0  0  0  0  0  0  0  0
  160.4020  209.2630  153.0150 N   0  0  0  0  0  2  0  0  0  0  0  0
  159.6110  210.2740  155.1220 N   0  0  0  0  0  2  0  0  0  0  0  0
  160.3120  210.3900  153.8870 C   0  0  0  0  0  0  0  0  0  0  0  0
  156.9940  213.0250  155.5420 O   0  0  0  0  0  0  0  0  0  0  0  0
  159.4120  212.7400  155.2860 C   0  0  1  0  0  3  0  0  0  0  0  0
  156.6350  210.3120  155.0210 O   0  0  0  0  0  0  0  0  0  0  0  0
  155.8340  211.4100  157.2590 O   0  0  0  0  0  1  0  0  0  0  0  0
  156.9360  211.4680  156.2250 P   0  0  2  0  0  0  0  0  0  0  0  0
  159.4870  211.3960  156.0470 C   0  0  1  0  0  3  0  0  0  0  0  0
  158.4410  211.1770  156.9780 O   0  0  0  0  0  0  0  0  0  0  0  0
  158.0490  212.9990  154.6170 C   0  0  0  0  0  2  0  0  0  0  0  0
  159.9480  213.8520  155.9760 O   0  0  0  0  0  0  0  0  0  0  0  0
  160.4640  213.4280  157.2140 C   0  0  0  0  0  1  0  0  0  0  0  0
  3  1  1  0  0  0  0
  3  4  1  0  0  0  0
  4  9  1  0  0  0  0
  5  1  1  1  0  0  0
  5  8  1  0  0  0  0
  5  7  1  0  0  0  0
  6 33  1  1  0  0  0
  7  2  1  1  0  0  0
  7  6  1  0  0  0  0
  8 10  1  6  0  0  0
  8  2  1  0  0  0  0
  9  6  1  0  0  0  0
 10 13  2  0  0  0  0
 11 18  1  6  0  0  0
 11 15  1  0  0  0  0
 11 13  1  0  0  0  0
 12 15  2  0  0  0  0
 13 20  1  0  0  0  0
 15 19  1  0  0  0  0
 16 10  1  0  0  0  0
 17 18  2  0  0  0  0
 18 16  1  0  0  0  0
 19 14  1  0  0  0  0
 20 14  2  0  0  0  0
 21 17  1  0  0  0  0
 22 21  1  0  0  0  0
 23 22  1  0  0  0  0
 24 23  1  0  0  0  0
 25 24  1  0  0  0  0
 26 25  1  0  0  0  0
 27 26  1  0  0  0  0
 28 29  1  0  0  0  0
 29 30  1  0  0  0  0
 29 31  1  0  0  0  0
 29 27  1  0  0  0  0
 32 35  2  0  0  0  0
 33 35  1  0  0  0  0
 35 34  1  0  0  0  0
 36 40  1  0  0  0  0
 37 44  1  1  0  0  0
 37 41  1  0  0  0  0
 40 38  2  6  0  0  0
 40 42  1  0  0  0  0
 40 39  1  0  0  0  0
 41 34  1  6  0  0  0
 41 42  1  0  0  0  0
 43 37  1  0  0  0  0
 43 36  1  0  0  0  0
 44 45  1  0  0  0  0
M  END
>  <MODEL>
5

>  <REMARK>
 VINA RESULT:      -4.1      4.600     10.007
  Name = 
  12 active torsions:
  status: ('A' for Active; 'I' for Inactive)
    1  A    between atoms: C_1  and  C_41
    2  A    between atoms: N_7  and  C_14
    3  A    between atoms: N_7  and  C_21
    4  A    between atoms: S_8  and  C_9
    5  A    between atoms: S_8  and  C_36
    6  A    between atoms: C_9  and  S_28
    7  A    between atoms: C_12  and  C_21
    8  A    between atoms: N_13  and  C_33
    9  A    between atoms: C_14  and  C_15
   10  A    between atoms: C_15  and  S_28
   11  A    between atoms: C_16  and  O_43
   12  A    between atoms: N_18  and  C_32
                            x       y       z     vdW  Elec       q    Type
                         _______ _______ _______ _____ _____    ______ ____

>  <TORSDO>
F 12

$$$$
=
 OpenBabel11042421403D

 45 49  0  0  1  0  0  0  0  0999 V2000
  162.2780  209.3370  152.4750 C   0  0  0  0  0  2  0  0  0  0  0  0
  161.6440  208.9100  149.4350 C   0  0  0  0  0  2  0  0  0  0  0  0
  161.6950  208.3900  153.5090 C   0  0  0  0  0  2  0  0  0  0  0  0
  162.1090  206.9540  153.1890 C   0  0  0  0  0  2  0  0  0  0  0  0
  161.2970  209.7040  151.4480 N   0  0  2  0  0  0  0  0  0  0  0  0
  160.7330  207.1410  151.1130 C   0  0  2  0  0  3  0  0  0  0  0  0
  160.7460  208.6090  150.6150 C   0  0  2  0  0  3  0  0  0  0  0  0
  162.1230  210.0690  150.2950 C   0  0  2  0  0  3  0  0  0  0  0  0
  162.0490  206.6480  151.6920 C   0  0  0  0  0  2  0  0  0  0  0  0
  161.7500  211.4220  149.7390 C   0  0  0  0  0  0  0  0  0  0  0  0
  160.8330  213.5760  149.4880 C   0  0  2  0  0  3  0  0  0  0  0  0
  158.7190  214.2190  148.5950 O   0  0  0  0  0  0  0  0  0  0  0  0
  161.0940  212.4050  150.3650 C   0  0  0  0  0  0  0  0  0  0  0  0
  159.3730  213.0490  151.9550 C   0  0  0  0  0  3  0  0  0  0  0  0
  159.3660  213.9080  149.5820 C   0  0  0  0  0  0  0  0  0  0  0  0
  161.9930  211.7460  148.3070 C   0  0  0  0  0  2  0  0  0  0  0  0
  161.2720  213.7850  147.0370 C   0  0  0  0  0  3  0  0  0  0  0  0
  161.3140  213.0690  148.1670 C   0  0  0  0  0  0  0  0  0  0  0  0
  158.7290  213.9810  150.9490 C   0  0  0  0  0  2  0  0  0  0  0  0
  160.4540  212.3100  151.6840 C   0  0  0  0  0  3  0  0  0  0  0  0
  161.9700  213.1790  145.4970 S   0  0  0  0  0  0  0  0  0  0  0  0
  160.4100  212.3880  145.0250 C   0  0  0  0  0  2  0  0  0  0  0  0
  160.3370  212.2370  143.2200 S   0  0  0  0  0  0  0  0  0  0  0  0
  161.9150  213.1170  143.0080 C   0  0  0  0  0  2  0  0  0  0  0  0
  162.7340  212.4830  141.8960 C   0  0  0  0  0  2  0  0  0  0  0  0
  162.0110  212.5560  140.6390 N   0  0  0  0  0  2  0  0  0  0  0  0
  162.6890  211.6640  139.7060 C   0  0  0  0  0  2  0  0  0  0  0  0
  161.4240  209.5340  139.6750 C   0  0  0  0  0  1  0  0  0  0  0  0
  161.6780  210.8280  138.9270 C   0  0  0  0  0  0  0  0  0  0  0  0
  160.4750  211.5250  138.8040 O   0  0  0  0  0  1  0  0  0  0  0  0
  162.2240  210.4960  137.5460 C   0  0  0  0  0  1  0  0  0  0  0  0
  162.4760  205.6470  149.4180 O   0  0  0  0  0  0  0  0  0  0  0  0
  160.3150  206.2590  150.0320 N   0  0  0  0  0  2  0  0  0  0  0  0
  160.7530  204.4280  148.4380 N   0  0  0  0  0  2  0  0  0  0  0  0
  161.2380  205.4600  149.2920 C   0  0  0  0  0  0  0  0  0  0  0  0
  160.9670  203.5760  144.7200 O   0  0  0  0  0  0  0  0  0  0  0  0
  160.8740  202.4800  146.9080 C   0  0  1  0  0  3  0  0  0  0  0  0
  160.4560  206.0260  145.9430 O   0  0  0  0  0  1  0  0  0  0  0  0
  162.6230  205.6060  144.5350 O   0  0  0  0  0  0  0  0  0  0  0  0
  161.6630  204.9270  145.4850 P   0  0  2  0  0  0  0  0  0  0  0  0
  161.6540  203.5820  147.6620 C   0  0  1  0  0  3  0  0  0  0  0  0
  162.5170  204.3640  146.8530 O   0  0  0  0  0  0  0  0  0  0  0  0
  160.1130  202.9940  145.6700 C   0  0  0  0  0  2  0  0  0  0  0  0
  161.5840  201.2750  146.7010 O   0  0  0  0  0  0  0  0  0  0  0  0
  161.5670  200.5160  147.8850 C   0  0  0  0  0  1  0  0  0  0  0  0
  1  3  1  0  0  0  0
  2  8  1  0  0  0  0
  4  3  1  0  0  0  0
  5  1  1  1  0  0  0
  6 33  1  6  0  0  0
  6  9  1  0  0  0  0
  7  2  1  6  0  0  0
  7  6  1  0  0  0  0
  7  5  1  0  0  0  0
  8 10  1  6  0  0  0
  8  5  1  0  0  0  0
  9  4  1  0  0  0  0
 10 13  2  0  0  0  0
 11 18  1  6  0  0  0
 11 15  1  0  0  0  0
 11 13  1  0  0  0  0
 12 15  2  0  0  0  0
 13 20  1  0  0  0  0
 15 19  1  0  0  0  0
 16 10  1  0  0  0  0
 17 18  2  0  0  0  0
 18 16  1  0  0  0  0
 19 14  1  0  0  0  0
 20 14  2  0  0  0  0
 21 17  1  0  0  0  0
 22 21  1  0  0  0  0
 23 22  1  0  0  0  0
 24 23  1  0  0  0  0
 25 24  1  0  0  0  0
 26 25  1  0  0  0  0
 27 26  1  0  0  0  0
 29 28  1  0  0  0  0
 29 27  1  0  0  0  0
 30 29  1  0  0  0  0
 31 29  1  0  0  0  0
 34 35  1  0  0  0  0
 35 32  2  0  0  0  0
 35 33  1  0  0  0  0
 36 40  1  0  0  0  0
 36 43  1  0  0  0  0
 37 44  1  6  0  0  0
 37 41  1  0  0  0  0
 40 39  2  6  0  0  0
 40 38  1  0  0  0  0
 40 42  1  0  0  0  0
 41 34  1  6  0  0  0
 42 41  1  0  0  0  0
 43 37  1  0  0  0  0
 44 45  1  0  0  0  0
M  END
>  <MODEL>
6

>  <REMARK>
 VINA RESULT:      -3.4      3.507      4.430
  Name = 
  12 active torsions:
  status: ('A' for Active; 'I' for Inactive)
    1  A    between atoms: C_1  and  C_41
    2  A    between atoms: N_7  and  C_14
    3  A    between atoms: N_7  and  C_21
    4  A    between atoms: S_8  and  C_9
    5  A    between atoms: S_8  and  C_36
    6  A    between atoms: C_9  and  S_28
    7  A    between atoms: C_12  and  C_21
    8  A    between atoms: N_13  and  C_33
    9  A    between atoms: C_14  and  C_15
   10  A    between atoms: C_15  and  S_28
   11  A    between atoms: C_16  and  O_43
   12  A    between atoms: N_18  and  C_32
                            x       y       z     vdW  Elec       q    Type
                         _______ _______ _______ _____ _____    ______ ____

>  <TORSDO>
F 12

$$$$
