=
 OpenBabel11042422053D

 59 63  0  0  1  0  0  0  0  0999 V2000
  161.8190  206.8020  145.6910 C   0  0  0  0  0  2  0  0  0  0  0  0
  161.3390  206.5620  148.1030 C   0  0  0  0  0  2  0  0  0  0  0  0
  161.5870  203.0670  146.5160 C   0  0  0  0  0  3  0  0  0  0  0  0
  160.6590  201.8950  149.7320 N   0  0  0  0  0  0  0  0  0  0  0  0
  160.9540  202.8600  148.8370 C   0  0  0  0  0  0  0  0  0  0  0  0
  162.2280  207.2510  147.0810 C   0  0  0  0  0  2  0  0  0  0  0  0
  161.3270  205.0620  147.9350 C   0  0  0  0  0  0  0  0  0  0  0  0
  161.6130  204.4720  146.6610 C   0  0  0  0  0  0  0  0  0  0  0  0
  161.2380  202.3050  147.6240 C   0  0  0  0  0  0  0  0  0  0  0  0
  160.9760  204.2390  149.0390 C   0  0  0  0  0  0  0  0  0  0  0  0
  161.1030  200.9520  147.8150 C   0  0  0  0  0  0  0  0  0  0  0  0
  160.7480  200.7260  149.1020 N   0  0  0  0  0  2  0  0  0  0  0  0
  162.1250  205.3170  145.5120 C   0  0  1  0  0  3  0  0  0  0  0  0
  161.4340  199.0580  145.9990 C   0  0  0  0  0  0  0  0  0  0  0  0
  161.6210  198.0180  144.9900 C   0  0  0  0  0  1  0  0  0  0  0  0
  161.2800  199.9190  146.8280 C   0  0  0  0  0  0  0  0  0  0  0  0
  160.6860  204.7990  150.3640 C   0  0  0  0  0  3  0  0  0  0  0  0
  161.4270  205.7820  150.8610 C   0  0  0  0  0  3  0  0  0  0  0  0
  161.2090  206.3300  152.2060 C   0  0  0  0  0  0  0  0  0  0  0  0
  160.7670  207.6490  152.3330 C   0  0  0  0  0  3  0  0  0  0  0  0
  161.2910  206.1420  154.6210 C   0  0  0  0  0  3  0  0  0  0  0  0
  160.5820  208.2290  153.5990 C   0  0  0  0  0  0  0  0  0  0  0  0
  161.4640  205.5750  153.3580 C   0  0  0  0  0  3  0  0  0  0  0  0
  160.8630  207.4730  154.7500 C   0  0  0  0  0  0  0  0  0  0  0  0
  160.6620  208.0780  156.1080 C   0  0  0  0  0  3  0  0  0  0  0  0
  161.9620  208.6160  156.6620 C   0  0  0  0  0  1  0  0  0  0  0  0
  160.0810  207.0510  157.0650 C   0  0  0  0  0  1  0  0  0  0  0  0
  160.1110  209.5460  153.7370 O   0  0  0  0  0  0  0  0  0  0  0  0
  160.7100  211.5990  154.9090 C   0  0  0  0  0  2  0  0  0  0  0  0
  158.9590  212.9270  151.3190 O   0  0  0  0  0  1  0  0  0  0  0  0
  159.5710  212.5110  152.4540 N   0  0  0  0  0  0  0  0  0  0  0  0
  160.9470  210.9740  151.2290 C   0  0  0  0  0  2  0  0  0  0  0  0
  162.2610  210.3580  153.6130 F   0  0  0  0  0  0  0  0  0  0  0  0
  159.3500  212.2910  154.8840 C   0  0  0  0  0  2  0  0  0  0  0  0
  160.9240  210.7200  153.6670 C   0  0  1  0  0  0  0  0  0  0  0  0
  159.3140  213.2380  153.6930 C   0  0  0  0  0  2  0  0  0  0  0  0
  160.5660  211.4710  152.4070 C   0  0  0  0  0  0  0  0  0  0  0  0
  161.6040  204.8490  144.1600 C   0  0  0  0  0  2  0  0  0  0  0  0
  162.5810  205.7200  141.6280 O   0  0  0  0  0  0  0  0  0  0  0  0
  161.6600  206.3950  142.1650 C   0  0  0  0  0  0  0  0  0  0  0  0
  161.1040  205.9890  143.4150 N   0  0  0  0  0  2  0  0  0  0  0  0
  161.1580  207.5370  141.5370 O   0  0  0  0  0  0  0  0  0  0  0  0
  161.7370  208.0890  140.3570 C   0  0  1  0  0  3  0  0  0  0  0  0
  161.4070  207.1990  139.1580 C   0  0  0  0  0  2  0  0  0  0  0  0
  162.0230  207.7040  137.8870 C   0  0  0  0  0  3  0  0  0  0  0  0
  162.6300  206.9150  137.0110 C   0  0  0  0  0  3  0  0  0  0  0  0
  162.7280  205.5490  137.2230 O   0  0  0  0  0  1  0  0  0  0  0  0
  161.2270  209.5260  140.1770 C   0  0  1  0  0  3  0  0  0  0  0  0
  163.4130  210.5040  140.1090 O   0  0  0  0  0  0  0  0  0  0  0  0
  161.8620  211.6050  141.4730 N   0  0  0  0  0  2  0  0  0  0  0  0
  162.2450  210.5510  140.5820 C   0  0  0  0  0  0  0  0  0  0  0  0
  162.7620  212.6360  141.9700 C   0  0  0  0  0  3  0  0  0  0  0  0
  162.6000  213.9260  141.1830 C   0  0  0  0  0  1  0  0  0  0  0  0
  162.5390  212.8880  143.4500 C   0  0  0  0  0  1  0  0  0  0  0  0
  160.7810  209.7440  138.8410 O   0  0  0  0  0  0  0  0  0  0  0  0
  160.0570  210.8820  138.4710 C   0  0  0  0  0  0  0  0  0  0  0  0
  160.6650  211.8340  137.7820 C   0  0  0  0  0  2  0  0  0  0  0  0
  158.6280  211.0720  138.8660 C   0  0  0  0  0  2  0  0  0  0  0  0
  157.8240  209.8290  138.5230 C   0  0  0  0  0  1  0  0  0  0  0  0
  1  6  1  0  0  0  0
  3  8  2  0  0  0  0
  3  9  1  0  0  0  0
  5 10  1  0  0  0  0
  5  4  2  0  0  0  0
  6  2  1  0  0  0  0
  7  2  1  0  0  0  0
  7 10  2  0  0  0  0
  8  7  1  0  0  0  0
  9 11  2  0  0  0  0
  9  5  1  0  0  0  0
 10 17  1  0  0  0  0
 11 12  1  0  0  0  0
 12  4  1  0  0  0  0
 13 38  1  6  0  0  0
 13  1  1  0  0  0  0
 13  8  1  0  0  0  0
 14 16  3  0  0  0  0
 15 14  1  0  0  0  0
 16 11  1  0  0  0  0
 17 18  2  0  0  0  0
 18 19  1  0  0  0  0
 19 20  2  0  0  0  0
 19 23  1  0  0  0  0
 20 22  1  0  0  0  0
 21 24  1  0  0  0  0
 22 28  1  0  0  0  0
 22 24  2  0  0  0  0
 23 21  2  0  0  0  0
 24 25  1  0  0  0  0
 25 26  1  0  0  0  0
 25 27  1  0  0  0  0
 30 31  1  0  0  0  0
 31 36  1  0  0  0  0
 32 37  2  0  0  0  0
 34 29  1  0  0  0  0
 35 33  1  6  0  0  0
 35 28  1  0  0  0  0
 35 29  1  0  0  0  0
 36 34  1  0  0  0  0
 37 31  1  0  0  0  0
 37 35  1  0  0  0  0
 39 40  2  0  0  0  0
 40 41  1  0  0  0  0
 41 38  1  0  0  0  0
 42 40  1  0  0  0  0
 43 44  1  6  0  0  0
 43 42  1  0  0  0  0
 45 44  1  0  0  0  0
 46 47  1  0  0  0  0
 46 45  2  0  0  0  0
 48 55  1  6  0  0  0
 48 43  1  0  0  0  0
 48 51  1  0  0  0  0
 49 51  2  0  0  0  0
 50 52  1  0  0  0  0
 51 50  1  0  0  0  0
 52 54  1  0  0  0  0
 53 52  1  0  0  0  0
 56 55  1  0  0  0  0
 56 58  1  0  0  0  0
 57 56  2  0  0  0  0
 59 58  1  0  0  0  0
M  END
>  <MODEL>
1

>  <REMARK>
 VINA RESULT:      -5.7      0.000      0.000
  Name = 
  18 active torsions:
  status: ('A' for Active; 'I' for Inactive)
    1  A    between atoms: O_1  and  C_3
    2  A    between atoms: O_1  and  C_22
    3  A    between atoms: C_2  and  N_34
    4  A    between atoms: C_3  and  C_4
    5  A    between atoms: C_5  and  C_35
    6  A    between atoms: C_5  and  C_49
    7  A    between atoms: C_7  and  C_39
    8  A    between atoms: O_15  and  C_25
    9  A    between atoms: O_15  and  C_40
   10  A    between atoms: C_19  and  O_45
   11  A    between atoms: C_22  and  C_38
   12  A    between atoms: C_22  and  C_49
   13  A    between atoms: C_23  and  C_55
   14  A    between atoms: C_30  and  C_36
   15  A    between atoms: C_41  and  C_53
   16  A    between atoms: C_41  and  N_58
   17  A    between atoms: C_44  and  C_52
   18  A    between atoms: O_45  and  C_49
                            x       y       z     vdW  Elec       q    Type
                         _______ _______ _______ _____ _____    ______ ____

>  <TORSDO>
F 18

$$$$
=
 OpenBabel11042422053D

 59 63  0  0  1  0  0  0  0  0999 V2000
  161.6270  206.8440  145.8480 C   0  0  0  0  0  2  0  0  0  0  0  0
  161.3460  206.5170  148.2810 C   0  0  0  0  0  2  0  0  0  0  0  0
  161.5150  203.0810  146.5620 C   0  0  0  0  0  3  0  0  0  0  0  0
  160.8660  201.7890  149.8000 N   0  0  0  0  0  0  0  0  0  0  0  0
  161.0740  202.7880  148.9180 C   0  0  0  0  0  0  0  0  0  0  0  0
  162.1400  207.2550  147.2160 C   0  0  0  0  0  2  0  0  0  0  0  0
  161.3420  205.0230  148.0640 C   0  0  0  0  0  0  0  0  0  0  0  0
  161.5330  204.4810  146.7520 C   0  0  0  0  0  0  0  0  0  0  0  0
  161.2680  202.2770  147.6680 C   0  0  0  0  0  0  0  0  0  0  0  0
  161.0920  204.1600  149.1640 C   0  0  0  0  0  0  0  0  0  0  0  0
  161.1670  200.9160  147.8240 C   0  0  0  0  0  0  0  0  0  0  0  0
  160.9210  200.6430  149.1260 N   0  0  0  0  0  2  0  0  0  0  0  0
  161.9390  205.3720  145.5950 C   0  0  1  0  0  3  0  0  0  0  0  0
  161.3750  199.0900  145.9220 C   0  0  0  0  0  0  0  0  0  0  0  0
  161.4860  198.0870  144.8660 C   0  0  0  0  0  1  0  0  0  0  0  0
  161.2800  199.9200  146.7910 C   0  0  0  0  0  0  0  0  0  0  0  0
  160.9020  204.6710  150.5260 C   0  0  0  0  0  3  0  0  0  0  0  0
  161.1790  205.9350  150.8200 C   0  0  0  0  0  3  0  0  0  0  0  0
  161.0600  206.4720  152.1820 C   0  0  0  0  0  0  0  0  0  0  0  0
  160.6390  207.7930  152.3520 C   0  0  0  0  0  3  0  0  0  0  0  0
  161.3060  206.2590  154.5830 C   0  0  0  0  0  3  0  0  0  0  0  0
  160.5470  208.3620  153.6320 C   0  0  0  0  0  0  0  0  0  0  0  0
  161.3870  205.7040  153.3070 C   0  0  0  0  0  3  0  0  0  0  0  0
  160.9000  207.5920  154.7540 C   0  0  0  0  0  0  0  0  0  0  0  0
  160.7980  208.1850  156.1290 C   0  0  0  0  0  3  0  0  0  0  0  0
  162.1690  208.4450  156.7120 C   0  0  0  0  0  1  0  0  0  0  0  0
  160.0140  207.2630  157.0470 C   0  0  0  0  0  1  0  0  0  0  0  0
  160.0980  209.6810  153.8150 O   0  0  0  0  0  0  0  0  0  0  0  0
  161.3050  211.2010  155.2920 C   0  0  0  0  0  2  0  0  0  0  0  0
  158.4630  213.6490  153.3810 O   0  0  0  0  0  1  0  0  0  0  0  0
  159.4150  212.8810  153.9640 N   0  0  0  0  0  0  0  0  0  0  0  0
  160.0560  211.9510  151.8470 C   0  0  0  0  0  2  0  0  0  0  0  0
  162.1090  210.5810  153.1480 F   0  0  0  0  0  0  0  0  0  0  0  0
  160.1170  211.7930  156.0430 C   0  0  0  0  0  2  0  0  0  0  0  0
  160.9390  210.8380  153.8450 C   0  0  1  0  0  0  0  0  0  0  0  0
  159.7270  213.1030  155.3730 C   0  0  0  0  0  2  0  0  0  0  0  0
  160.2060  211.9740  153.1730 C   0  0  0  0  0  0  0  0  0  0  0  0
  161.3170  204.9390  144.2730 C   0  0  0  0  0  2  0  0  0  0  0  0
  162.3470  205.4350  141.6630 O   0  0  0  0  0  0  0  0  0  0  0  0
  161.6070  206.3170  142.1790 C   0  0  0  0  0  0  0  0  0  0  0  0
  161.0320  206.1110  143.4690 N   0  0  0  0  0  2  0  0  0  0  0  0
  161.3250  207.4990  141.4910 O   0  0  0  0  0  0  0  0  0  0  0  0
  162.1020  207.9550  140.3850 C   0  0  1  0  0  3  0  0  0  0  0  0
  161.9240  207.0000  139.2040 C   0  0  0  0  0  2  0  0  0  0  0  0
  162.7020  207.4350  137.9970 C   0  0  0  0  0  3  0  0  0  0  0  0
  163.0310  206.6120  137.0110 C   0  0  0  0  0  3  0  0  0  0  0  0
  162.6630  205.2760  137.0370 O   0  0  0  0  0  1  0  0  0  0  0  0
  161.6860  209.3930  140.0420 C   0  0  1  0  0  3  0  0  0  0  0  0
  159.8830  208.3810  138.8310 O   0  0  0  0  0  0  0  0  0  0  0  0
  159.8260  210.7170  138.9520 N   0  0  0  0  0  2  0  0  0  0  0  0
  160.4270  209.4470  139.2290 C   0  0  0  0  0  0  0  0  0  0  0  0
  158.6280  210.9070  138.1460 C   0  0  0  0  0  3  0  0  0  0  0  0
  157.4480  211.3150  139.0120 C   0  0  0  0  0  1  0  0  0  0  0  0
  158.8630  211.9360  137.0540 C   0  0  0  0  0  1  0  0  0  0  0  0
  161.5720  210.1840  141.2220 O   0  0  0  0  0  0  0  0  0  0  0  0
  162.0450  211.4980  141.2890 C   0  0  0  0  0  0  0  0  0  0  0  0
  162.7770  211.9700  140.2940 C   0  0  0  0  0  2  0  0  0  0  0  0
  161.7800  212.3720  142.4730 C   0  0  0  0  0  2  0  0  0  0  0  0
  162.8650  213.4300  142.5910 C   0  0  0  0  0  1  0  0  0  0  0  0
  1  6  1  0  0  0  0
  3  8  2  0  0  0  0
  3  9  1  0  0  0  0
  5 10  1  0  0  0  0
  5  4  2  0  0  0  0
  6  2  1  0  0  0  0
  7  2  1  0  0  0  0
  7 10  2  0  0  0  0
  8  7  1  0  0  0  0
  9 11  2  0  0  0  0
  9  5  1  0  0  0  0
 10 17  1  0  0  0  0
 11 12  1  0  0  0  0
 12  4  1  0  0  0  0
 13 38  1  6  0  0  0
 13  1  1  0  0  0  0
 13  8  1  0  0  0  0
 14 16  3  0  0  0  0
 15 14  1  0  0  0  0
 16 11  1  0  0  0  0
 17 18  2  0  0  0  0
 18 19  1  0  0  0  0
 19 20  2  0  0  0  0
 19 23  1  0  0  0  0
 20 22  1  0  0  0  0
 21 24  1  0  0  0  0
 22 28  1  0  0  0  0
 22 24  2  0  0  0  0
 23 21  2  0  0  0  0
 24 25  1  0  0  0  0
 25 26  1  0  0  0  0
 25 27  1  0  0  0  0
 28 35  1  0  0  0  0
 29 34  1  0  0  0  0
 30 31  1  0  0  0  0
 31 36  1  0  0  0  0
 32 37  2  0  0  0  0
 35 33  1  6  0  0  0
 35 29  1  0  0  0  0
 36 34  1  0  0  0  0
 37 35  1  0  0  0  0
 37 31  1  0  0  0  0
 39 40  2  0  0  0  0
 40 41  1  0  0  0  0
 41 38  1  0  0  0  0
 42 40  1  0  0  0  0
 43 44  1  6  0  0  0
 43 42  1  0  0  0  0
 45 44  1  0  0  0  0
 46 47  1  0  0  0  0
 46 45  2  0  0  0  0
 48 51  1  1  0  0  0
 48 43  1  0  0  0  0
 48 55  1  0  0  0  0
 49 51  2  0  0  0  0
 50 51  1  0  0  0  0
 52 50  1  0  0  0  0
 52 53  1  0  0  0  0
 54 52  1  0  0  0  0
 55 56  1  0  0  0  0
 56 58  1  0  0  0  0
 57 56  2  0  0  0  0
 58 59  1  0  0  0  0
M  END
>  <MODEL>
2

>  <REMARK>
 VINA RESULT:      -4.7      0.930      2.229
  Name = 
  18 active torsions:
  status: ('A' for Active; 'I' for Inactive)
    1  A    between atoms: O_1  and  C_3
    2  A    between atoms: O_1  and  C_22
    3  A    between atoms: C_2  and  N_34
    4  A    between atoms: C_3  and  C_4
    5  A    between atoms: C_5  and  C_35
    6  A    between atoms: C_5  and  C_49
    7  A    between atoms: C_7  and  C_39
    8  A    between atoms: O_15  and  C_25
    9  A    between atoms: O_15  and  C_40
   10  A    between atoms: C_19  and  O_45
   11  A    between atoms: C_22  and  C_38
   12  A    between atoms: C_22  and  C_49
   13  A    between atoms: C_23  and  C_55
   14  A    between atoms: C_30  and  C_36
   15  A    between atoms: C_41  and  C_53
   16  A    between atoms: C_41  and  N_58
   17  A    between atoms: C_44  and  C_52
   18  A    between atoms: O_45  and  C_49
                            x       y       z     vdW  Elec       q    Type
                         _______ _______ _______ _____ _____    ______ ____

>  <TORSDO>
F 18

$$$$
