=
 OpenBabel11042420153D

 25 27  0  0  1  0  0  0  0  0999 V2000
  161.4970  204.5100  147.9990 C   0  0  0  0  0  0  0  0  0  0  0  0
  160.9670  203.8340  151.6860 C   0  0  0  0  0  0  0  0  0  0  0  0
  161.7630  205.8420  150.0210 N   0  0  0  0  0  0  0  0  0  0  0  0
  161.0310  203.6340  150.2640 C   0  0  0  0  0  0  0  0  0  0  0  0
  161.2220  203.2280  147.4630 C   0  0  0  0  0  0  0  0  0  0  0  0
  161.7080  206.0240  151.3620 N   0  0  0  0  0  0  0  0  0  0  0  0
  161.3230  205.0860  152.2430 C   0  0  0  0  0  0  0  0  0  0  0  0
  160.6020  202.8940  152.4460 O   0  0  0  0  0  0  0  0  0  0  0  0
  160.7300  202.3900  149.7040 C   0  0  0  0  0  3  0  0  0  0  0  0
  161.4290  204.6940  149.3950 C   0  0  0  0  0  0  0  0  0  0  0  0
  162.2720  207.1920  149.8380 C   0  0  0  0  0  2  0  0  0  0  0  0
  161.2990  205.3130  153.4820 O   0  0  0  0  0  0  0  0  0  0  0  0
  162.1940  207.3900  151.2290 C   0  0  1  0  0  3  0  0  0  0  0  0
  160.8300  202.1920  148.3280 C   0  0  0  0  0  3  0  0  0  0  0  0
  162.2010  203.4720  145.3090 O   0  0  0  0  0  0  0  0  0  0  0  0
  161.3060  202.9290  146.0120 C   0  0  0  0  0  0  0  0  0  0  0  0
  160.3870  202.0440  145.3790 N   0  0  0  0  0  1  0  0  0  0  0  0
  161.0880  208.3890  151.5660 C   0  0  1  0  0  3  0  0  0  0  0  0
  160.8360  208.3770  152.9990 N   0  0  0  0  0  1  0  0  0  0  0  0
  162.6780  210.1580  151.7860 O   0  0  0  0  0  1  0  0  0  0  0  0
  161.4960  209.7910  151.1420 C   0  0  0  0  0  2  0  0  0  0  0  0
  161.8250  205.5680  147.1480 O   0  0  0  0  0  0  0  0  0  0  0  0
  160.8680  206.5510  146.7810 C   0  0  0  0  0  2  0  0  0  0  0  0
  160.9710  206.1820  144.4290 O   0  0  0  0  0  1  0  0  0  0  0  0
  160.1250  206.1070  145.5350 C   0  0  0  0  0  2  0  0  0  0  0  0
  1 10  1  0  0  0  0
  2  7  1  0  0  0  0
  2  8  2  0  0  0  0
  3  6  1  0  0  0  0
  4  2  1  0  0  0  0
  5  1  2  0  0  0  0
  5 14  1  0  0  0  0
  6  7  1  0  0  0  0
  7 12  2  0  0  0  0
  9  4  1  0  0  0  0
 10  3  1  0  0  0  0
 10  4  2  0  0  0  0
 11  3  1  0  0  0  0
 11 13  1  0  0  0  0
 13  6  1  0  0  0  0
 13 18  1  6  0  0  0
 14  9  2  0  0  0  0
 15 16  2  0  0  0  0
 16  5  1  0  0  0  0
 17 16  1  0  0  0  0
 18 19  1  1  0  0  0
 21 18  1  0  0  0  0
 21 20  1  0  0  0  0
 22  1  1  0  0  0  0
 23 22  1  0  0  0  0
 24 25  1  0  0  0  0
 25 23  1  0  0  0  0
M  END
>  <MODEL>
1

>  <REMARK>
 VINA RESULT:      -8.1      0.000      0.000
  Name = 
  6 active torsions:
  status: ('A' for Active; 'I' for Inactive)
    1  A    between atoms: C_1  and  O_22
    2  A    between atoms: C_5  and  C_10
    3  A    between atoms: CA_15  and  C_20
    4  A    between atoms: CA_15  and  C_25
    5  A    between atoms: C_16  and  C_24
    6  A    between atoms: O_22  and  C_24
                            x       y       z     vdW  Elec       q    Type
                         _______ _______ _______ _____ _____    ______ ____

>  <TORSDO>
F 6

$$$$
=
 OpenBabel11042420153D

 25 27  0  0  1  0  0  0  0  0999 V2000
  161.1370  207.3850  151.3580 C   0  0  0  0  0  0  0  0  0  0  0  0
  161.1100  203.6050  151.1420 C   0  0  0  0  0  0  0  0  0  0  0  0
  160.9470  205.7950  149.5230 N   0  0  0  0  0  0  0  0  0  0  0  0
  161.1580  204.9340  151.6890 C   0  0  0  0  0  0  0  0  0  0  0  0
  161.1860  207.5590  152.7630 C   0  0  0  0  0  0  0  0  0  0  0  0
  160.8950  204.5400  149.0140 N   0  0  0  0  0  0  0  0  0  0  0  0
  160.9720  203.4170  149.7460 C   0  0  0  0  0  0  0  0  0  0  0  0
  161.1800  202.6010  151.9040 O   0  0  0  0  0  0  0  0  0  0  0  0
  161.2430  205.1360  153.0680 C   0  0  0  0  0  3  0  0  0  0  0  0
  161.0920  206.0770  150.8340 C   0  0  0  0  0  0  0  0  0  0  0  0
  160.7620  206.3620  148.1970 C   0  0  0  0  0  2  0  0  0  0  0  0
  160.9110  202.2760  149.2150 O   0  0  0  0  0  0  0  0  0  0  0  0
  160.7300  205.0610  147.6640 C   0  0  1  0  0  3  0  0  0  0  0  0
  161.2510  206.4270  153.5930 C   0  0  0  0  0  3  0  0  0  0  0  0
  161.9870  209.7870  152.9920 O   0  0  0  0  0  0  0  0  0  0  0  0
  161.1970  208.8970  153.4070 C   0  0  0  0  0  0  0  0  0  0  0  0
  160.3380  209.2040  154.5010 N   0  0  0  0  0  1  0  0  0  0  0  0
  161.9820  204.7940  146.8290 C   0  0  1  0  0  3  0  0  0  0  0  0
  161.8550  203.5160  146.1470 N   0  0  0  0  0  1  0  0  0  0  0  0
  161.4530  205.5940  144.6420 O   0  0  0  0  0  1  0  0  0  0  0  0
  162.1730  205.8950  145.7980 C   0  0  0  0  0  2  0  0  0  0  0  0
  161.1370  208.4980  150.5150 O   0  0  0  0  0  0  0  0  0  0  0  0
  162.3270  208.9570  149.8890 C   0  0  0  0  0  2  0  0  0  0  0  0
  162.0810  211.2530  149.3020 O   0  0  0  0  0  1  0  0  0  0  0  0
  161.9860  209.9560  148.8000 C   0  0  0  0  0  2  0  0  0  0  0  0
  1  5  1  0  0  0  0
  2  4  1  0  0  0  0
  2  8  2  0  0  0  0
  3 10  1  0  0  0  0
  4  9  2  0  0  0  0
  5 16  1  0  0  0  0
  5 14  2  0  0  0  0
  6  3  1  0  0  0  0
  6  7  1  0  0  0  0
  7  2  1  0  0  0  0
  9 14  1  0  0  0  0
 10  1  2  0  0  0  0
 10  4  1  0  0  0  0
 11  3  1  0  0  0  0
 12  7  2  0  0  0  0
 13 18  1  6  0  0  0
 13 11  1  0  0  0  0
 13  6  1  0  0  0  0
 15 16  2  0  0  0  0
 16 17  1  0  0  0  0
 18 19  1  6  0  0  0
 20 21  1  0  0  0  0
 21 18  1  0  0  0  0
 22  1  1  0  0  0  0
 23 22  1  0  0  0  0
 25 24  1  0  0  0  0
 25 23  1  0  0  0  0
M  END
>  <MODEL>
2

>  <REMARK>
 VINA RESULT:      -8.0      1.709      5.930
  Name = 
  6 active torsions:
  status: ('A' for Active; 'I' for Inactive)
    1  A    between atoms: C_1  and  O_22
    2  A    between atoms: C_5  and  C_10
    3  A    between atoms: CA_15  and  C_20
    4  A    between atoms: CA_15  and  C_25
    5  A    between atoms: C_16  and  C_24
    6  A    between atoms: O_22  and  C_24
                            x       y       z     vdW  Elec       q    Type
                         _______ _______ _______ _____ _____    ______ ____

>  <TORSDO>
F 6

$$$$
=
 OpenBabel11042420153D

 25 27  0  0  1  0  0  0  0  0999 V2000
  161.0710  206.7080  151.1640 C   0  0  0  0  0  0  0  0  0  0  0  0
  161.1080  203.2020  149.7370 C   0  0  0  0  0  0  0  0  0  0  0  0
  160.9750  205.7970  148.9080 N   0  0  0  0  0  0  0  0  0  0  0  0
  161.1150  204.2830  150.6860 C   0  0  0  0  0  0  0  0  0  0  0  0
  161.0640  206.4190  152.5500 C   0  0  0  0  0  0  0  0  0  0  0  0
  160.9610  204.7750  148.0180 N   0  0  0  0  0  0  0  0  0  0  0  0
  161.0270  203.4750  148.3510 C   0  0  0  0  0  0  0  0  0  0  0  0
  161.1640  202.0060  150.1360 O   0  0  0  0  0  0  0  0  0  0  0  0
  161.1450  204.0270  152.0590 C   0  0  0  0  0  3  0  0  0  0  0  0
  161.0650  205.6400  150.2440 C   0  0  0  0  0  0  0  0  0  0  0  0
  160.8330  206.7630  147.8300 C   0  0  0  0  0  2  0  0  0  0  0  0
  161.0030  202.5680  147.4770 O   0  0  0  0  0  0  0  0  0  0  0  0
  160.8410  205.7040  146.9030 C   0  0  1  0  0  3  0  0  0  0  0  0
  161.1140  205.0790  152.9730 C   0  0  0  0  0  3  0  0  0  0  0  0
  161.6020  207.2860  154.6990 O   0  0  0  0  0  0  0  0  0  0  0  0
  161.0290  207.4760  153.5920 C   0  0  0  0  0  0  0  0  0  0  0  0
  160.3510  208.7100  153.3800 N   0  0  0  0  0  1  0  0  0  0  0  0
  162.1280  205.7230  146.0800 C   0  0  1  0  0  3  0  0  0  0  0  0
  163.0850  204.7840  146.6420 N   0  0  0  0  0  1  0  0  0  0  0  0
  160.7900  204.4150  144.5950 O   0  0  0  0  0  1  0  0  0  0  0  0
  161.8360  205.3370  144.6380 C   0  0  0  0  0  2  0  0  0  0  0  0
  161.0870  208.0350  150.7270 O   0  0  0  0  0  0  0  0  0  0  0  0
  162.3060  208.7280  150.4990 C   0  0  0  0  0  2  0  0  0  0  0  0
  162.0870  210.9090  149.5640 O   0  0  0  0  0  1  0  0  0  0  0  0
  162.1160  210.2080  150.7690 C   0  0  0  0  0  2  0  0  0  0  0  0
  1  5  1  0  0  0  0
  2  8  2  0  0  0  0
  2  4  1  0  0  0  0
  3 10  1  0  0  0  0
  4  9  2  0  0  0  0
  5 14  2  0  0  0  0
  5 16  1  0  0  0  0
  6  7  1  0  0  0  0
  6  3  1  0  0  0  0
  7  2  1  0  0  0  0
  9 14  1  0  0  0  0
 10  4  1  0  0  0  0
 10  1  2  0  0  0  0
 11  3  1  0  0  0  0
 12  7  2  0  0  0  0
 13 18  1  6  0  0  0
 13 11  1  0  0  0  0
 13  6  1  0  0  0  0
 16 15  2  0  0  0  0
 17 16  1  0  0  0  0
 18 19  1  1  0  0  0
 20 21  1  0  0  0  0
 21 18  1  0  0  0  0
 22  1  1  0  0  0  0
 23 22  1  0  0  0  0
 23 25  1  0  0  0  0
 24 25  1  0  0  0  0
M  END
>  <MODEL>
3

>  <REMARK>
 VINA RESULT:      -7.6      1.827      5.946
  Name = 
  6 active torsions:
  status: ('A' for Active; 'I' for Inactive)
    1  A    between atoms: C_1  and  O_22
    2  A    between atoms: C_5  and  C_10
    3  A    between atoms: CA_15  and  C_20
    4  A    between atoms: CA_15  and  C_25
    5  A    between atoms: C_16  and  C_24
    6  A    between atoms: O_22  and  C_24
                            x       y       z     vdW  Elec       q    Type
                         _______ _______ _______ _____ _____    ______ ____

>  <TORSDO>
F 6

$$$$
=
 OpenBabel11042420153D

 25 27  0  0  1  0  0  0  0  0999 V2000
  161.3790  204.0170  147.8510 C   0  0  0  0  0  0  0  0  0  0  0  0
  161.1330  204.6120  151.5820 C   0  0  0  0  0  0  0  0  0  0  0  0
  161.9370  205.8870  149.3080 N   0  0  0  0  0  0  0  0  0  0  0  0
  161.0500  203.9630  150.3010 C   0  0  0  0  0  0  0  0  0  0  0  0
  160.9520  202.6690  147.7790 C   0  0  0  0  0  0  0  0  0  0  0  0
  162.0190  206.4920  150.5180 N   0  0  0  0  0  0  0  0  0  0  0  0
  161.6400  205.9300  151.6780 C   0  0  0  0  0  0  0  0  0  0  0  0
  160.7640  204.0080  152.6260 O   0  0  0  0  0  0  0  0  0  0  0  0
  160.5990  202.6460  150.1960 C   0  0  0  0  0  3  0  0  0  0  0  0
  161.4540  204.6430  149.1120 C   0  0  0  0  0  0  0  0  0  0  0  0
  162.5360  207.0470  148.6660 C   0  0  0  0  0  2  0  0  0  0  0  0
  161.7480  206.5410  152.7740 O   0  0  0  0  0  0  0  0  0  0  0  0
  162.6020  207.6840  149.9180 C   0  0  1  0  0  3  0  0  0  0  0  0
  160.5570  202.0100  148.9560 C   0  0  0  0  0  3  0  0  0  0  0  0
  160.5240  202.5040  145.4450 O   0  0  0  0  0  0  0  0  0  0  0  0
  160.8790  201.9160  146.5020 C   0  0  0  0  0  0  0  0  0  0  0  0
  161.1900  200.5270  146.4370 N   0  0  0  0  0  1  0  0  0  0  0  0
  161.6160  208.8510  149.9770 C   0  0  1  0  0  3  0  0  0  0  0  0
  161.7380  209.5330  151.2560 N   0  0  0  0  0  1  0  0  0  0  0  0
  162.0750  211.1180  149.3800 O   0  0  0  0  0  1  0  0  0  0  0  0
  161.9000  209.8370  148.8550 C   0  0  0  0  0  2  0  0  0  0  0  0
  161.7130  204.7080  146.6840 O   0  0  0  0  0  0  0  0  0  0  0  0
  160.9970  205.8640  146.2720 C   0  0  0  0  0  2  0  0  0  0  0  0
  161.5780  205.2730  144.0380 O   0  0  0  0  0  1  0  0  0  0  0  0
  160.5200  205.6930  144.8430 C   0  0  0  0  0  2  0  0  0  0  0  0
  1 10  1  0  0  0  0
  2  7  1  0  0  0  0
  2  8  2  0  0  0  0
  3  6  1  0  0  0  0
  4  2  1  0  0  0  0
  5  1  2  0  0  0  0
  5 14  1  0  0  0  0
  6  7  1  0  0  0  0
  7 12  2  0  0  0  0
  9  4  1  0  0  0  0
 10  3  1  0  0  0  0
 10  4  2  0  0  0  0
 11  3  1  0  0  0  0
 11 13  1  0  0  0  0
 13 18  1  6  0  0  0
 13  6  1  0  0  0  0
 14  9  2  0  0  0  0
 15 16  2  0  0  0  0
 16  5  1  0  0  0  0
 17 16  1  0  0  0  0
 18 19  1  1  0  0  0
 21 20  1  0  0  0  0
 21 18  1  0  0  0  0
 22  1  1  0  0  0  0
 23 22  1  0  0  0  0
 24 25  1  0  0  0  0
 25 23  1  0  0  0  0
M  END
>  <MODEL>
4

>  <REMARK>
 VINA RESULT:      -7.4      1.315      1.355
  Name = 
  6 active torsions:
  status: ('A' for Active; 'I' for Inactive)
    1  A    between atoms: C_1  and  O_22
    2  A    between atoms: C_5  and  C_10
    3  A    between atoms: CA_15  and  C_20
    4  A    between atoms: CA_15  and  C_25
    5  A    between atoms: C_16  and  C_24
    6  A    between atoms: O_22  and  C_24
                            x       y       z     vdW  Elec       q    Type
                         _______ _______ _______ _____ _____    ______ ____

>  <TORSDO>
F 6

$$$$
=
 OpenBabel11042420153D

 25 27  0  0  1  0  0  0  0  0999 V2000
  161.2130  207.0170  149.0300 C   0  0  0  0  0  0  0  0  0  0  0  0
  161.1480  205.1610  152.3290 C   0  0  0  0  0  0  0  0  0  0  0  0
  161.2750  207.7090  151.3650 N   0  0  0  0  0  0  0  0  0  0  0  0
  161.1570  205.4160  150.9140 C   0  0  0  0  0  0  0  0  0  0  0  0
  161.2400  205.9280  148.1250 C   0  0  0  0  0  0  0  0  0  0  0  0
  161.2740  207.4620  152.6970 N   0  0  0  0  0  0  0  0  0  0  0  0
  161.2100  206.2370  153.2450 C   0  0  0  0  0  0  0  0  0  0  0  0
  161.0960  203.9760  152.7610 O   0  0  0  0  0  0  0  0  0  0  0  0
  161.1460  204.3620  149.9980 C   0  0  0  0  0  3  0  0  0  0  0  0
  161.2030  206.7530  150.4150 C   0  0  0  0  0  0  0  0  0  0  0  0
  161.4030  209.1370  151.6090 C   0  0  0  0  0  2  0  0  0  0  0  0
  161.2200  206.0710  154.4930 O   0  0  0  0  0  0  0  0  0  0  0  0
  161.3800  208.8840  152.9930 C   0  0  1  0  0  3  0  0  0  0  0  0
  161.1930  204.6170  148.6280 C   0  0  0  0  0  3  0  0  0  0  0  0
  162.4050  206.1900  146.0680 O   0  0  0  0  0  0  0  0  0  0  0  0
  161.2910  206.1080  146.6530 C   0  0  0  0  0  0  0  0  0  0  0  0
  160.1040  206.2030  145.8720 N   0  0  0  0  0  1  0  0  0  0  0  0
  160.0820  209.4030  153.6090 C   0  0  1  0  0  3  0  0  0  0  0  0
  160.1270  209.2460  155.0540 N   0  0  0  0  0  1  0  0  0  0  0  0
  158.6050  211.0780  152.7630 O   0  0  0  0  0  1  0  0  0  0  0  0
  159.8880  210.8720  153.2710 C   0  0  0  0  0  2  0  0  0  0  0  0
  161.1940  208.3280  148.5470 O   0  0  0  0  0  0  0  0  0  0  0  0
  162.3340  209.1700  148.6360 C   0  0  0  0  0  2  0  0  0  0  0  0
  162.0520  211.4170  149.3800 O   0  0  0  0  0  1  0  0  0  0  0  0
  161.9560  210.5900  148.2610 C   0  0  0  0  0  2  0  0  0  0  0  0
  1 10  1  0  0  0  0
  2  8  2  0  0  0  0
  2  7  1  0  0  0  0
  3 11  1  0  0  0  0
  3  6  1  0  0  0  0
  4  2  1  0  0  0  0
  5 14  1  0  0  0  0
  5  1  2  0  0  0  0
  6 13  1  0  0  0  0
  6  7  1  0  0  0  0
  7 12  2  0  0  0  0
  9  4  1  0  0  0  0
 10  4  2  0  0  0  0
 10  3  1  0  0  0  0
 11 13  1  0  0  0  0
 13 18  1  6  0  0  0
 14  9  2  0  0  0  0
 15 16  2  0  0  0  0
 16  5  1  0  0  0  0
 17 16  1  0  0  0  0
 18 19  1  1  0  0  0
 20 21  1  0  0  0  0
 21 18  1  0  0  0  0
 22 23  1  0  0  0  0
 22  1  1  0  0  0  0
 25 23  1  0  0  0  0
 25 24  1  0  0  0  0
M  END
>  <MODEL>
5

>  <REMARK>
 VINA RESULT:      -7.0      2.114      3.138
  Name = 
  6 active torsions:
  status: ('A' for Active; 'I' for Inactive)
    1  A    between atoms: C_1  and  O_22
    2  A    between atoms: C_5  and  C_10
    3  A    between atoms: CA_15  and  C_20
    4  A    between atoms: CA_15  and  C_25
    5  A    between atoms: C_16  and  C_24
    6  A    between atoms: O_22  and  C_24
                            x       y       z     vdW  Elec       q    Type
                         _______ _______ _______ _____ _____    ______ ____

>  <TORSDO>
F 6

$$$$
=
 OpenBabel11042420153D

 25 27  0  0  1  0  0  0  0  0999 V2000
  161.4390  206.0800  149.1820 C   0  0  0  0  0  0  0  0  0  0  0  0
  161.2980  208.1700  152.3360 C   0  0  0  0  0  0  0  0  0  0  0  0
  161.8340  208.4320  149.6740 N   0  0  0  0  0  0  0  0  0  0  0  0
  161.2350  207.0370  151.4530 C   0  0  0  0  0  0  0  0  0  0  0  0
  161.1760  204.7950  149.7160 C   0  0  0  0  0  0  0  0  0  0  0  0
  161.8990  209.4960  150.5110 N   0  0  0  0  0  0  0  0  0  0  0  0
  161.6460  209.4450  151.8290 C   0  0  0  0  0  0  0  0  0  0  0  0
  161.0540  208.0330  153.5670 O   0  0  0  0  0  0  0  0  0  0  0  0
  160.9410  205.7630  151.9470 C   0  0  0  0  0  3  0  0  0  0  0  0
  161.4970  207.1840  150.0580 C   0  0  0  0  0  0  0  0  0  0  0  0
  162.2580  209.2610  148.5560 C   0  0  0  0  0  2  0  0  0  0  0  0
  161.7310  210.4690  152.5580 O   0  0  0  0  0  0  0  0  0  0  0  0
  162.3050  210.3710  149.4190 C   0  0  1  0  0  3  0  0  0  0  0  0
  160.9190  204.6630  151.0920 C   0  0  0  0  0  3  0  0  0  0  0  0
  161.8300  203.5020  147.8300 O   0  0  0  0  0  0  0  0  0  0  0  0
  161.1340  203.5700  148.8800 C   0  0  0  0  0  0  0  0  0  0  0  0
  160.3130  202.4590  149.2250 N   0  0  0  0  0  1  0  0  0  0  0  0
  161.1890  211.3590  149.0810 C   0  0  1  0  0  3  0  0  0  0  0  0
  161.1510  212.4170  150.0780 N   0  0  0  0  0  1  0  0  0  0  0  0
  162.6480  212.6460  147.6940 O   0  0  0  0  0  1  0  0  0  0  0  0
  161.4260  211.9720  147.7100 C   0  0  0  0  0  2  0  0  0  0  0  0
  161.6330  206.2400  147.8080 O   0  0  0  0  0  0  0  0  0  0  0  0
  160.5480  206.5030  146.9300 C   0  0  0  0  0  2  0  0  0  0  0  0
  162.2100  205.8310  145.3610 O   0  0  0  0  0  1  0  0  0  0  0  0
  160.8330  205.9080  145.5650 C   0  0  0  0  0  2  0  0  0  0  0  0
  1  5  2  0  0  0  0
  1 10  1  0  0  0  0
  2  8  2  0  0  0  0
  3 10  1  0  0  0  0
  3  6  1  0  0  0  0
  4  9  1  0  0  0  0
  4  2  1  0  0  0  0
  5 14  1  0  0  0  0
  6  7  1  0  0  0  0
  7  2  1  0  0  0  0
  7 12  2  0  0  0  0
 10  4  2  0  0  0  0
 11 13  1  0  0  0  0
 11  3  1  0  0  0  0
 13 18  1  6  0  0  0
 13  6  1  0  0  0  0
 14  9  2  0  0  0  0
 15 16  2  0  0  0  0
 16 17  1  0  0  0  0
 16  5  1  0  0  0  0
 18 19  1  1  0  0  0
 20 21  1  0  0  0  0
 21 18  1  0  0  0  0
 22  1  1  0  0  0  0
 23 22  1  0  0  0  0
 24 25  1  0  0  0  0
 25 23  1  0  0  0  0
M  END
>  <MODEL>
6

>  <REMARK>
 VINA RESULT:      -6.9      2.342      3.503
  Name = 
  6 active torsions:
  status: ('A' for Active; 'I' for Inactive)
    1  A    between atoms: C_1  and  O_22
    2  A    between atoms: C_5  and  C_10
    3  A    between atoms: CA_15  and  C_20
    4  A    between atoms: CA_15  and  C_25
    5  A    between atoms: C_16  and  C_24
    6  A    between atoms: O_22  and  C_24
                            x       y       z     vdW  Elec       q    Type
                         _______ _______ _______ _____ _____    ______ ____

>  <TORSDO>
F 6

$$$$
=
 OpenBabel11042420153D

 25 27  0  0  1  0  0  0  0  0999 V2000
  161.8430  205.5350  147.8600 C   0  0  0  0  0  0  0  0  0  0  0  0
  160.7940  202.9540  150.4240 C   0  0  0  0  0  0  0  0  0  0  0  0
  161.8000  205.4860  150.2950 N   0  0  0  0  0  0  0  0  0  0  0  0
  161.0650  203.5780  149.1570 C   0  0  0  0  0  0  0  0  0  0  0  0
  161.6630  204.7950  146.6660 C   0  0  0  0  0  0  0  0  0  0  0  0
  161.5500  204.8900  151.4860 N   0  0  0  0  0  0  0  0  0  0  0  0
  161.0530  203.6500  151.6280 C   0  0  0  0  0  0  0  0  0  0  0  0
  160.3340  201.7790  150.4680 O   0  0  0  0  0  0  0  0  0  0  0  0
  160.8610  202.8850  147.9610 C   0  0  0  0  0  3  0  0  0  0  0  0
  161.5730  204.9110  149.0960 C   0  0  0  0  0  0  0  0  0  0  0  0
  162.3150  206.6660  150.9710 C   0  0  0  0  0  2  0  0  0  0  0  0
  160.8480  203.1470  152.7650 O   0  0  0  0  0  0  0  0  0  0  0  0
  162.0350  206.0580  152.2090 C   0  0  1  0  0  3  0  0  0  0  0  0
  161.1620  203.4840  146.7390 C   0  0  0  0  0  3  0  0  0  0  0  0
  163.1520  205.4260  144.9220 O   0  0  0  0  0  0  0  0  0  0  0  0
  161.9590  205.3540  145.3230 C   0  0  0  0  0  0  0  0  0  0  0  0
  160.9230  205.8270  144.4680 N   0  0  0  0  0  1  0  0  0  0  0  0
  160.8810  206.7740  152.9080 C   0  0  1  0  0  3  0  0  0  0  0  0
  160.8390  206.3870  154.3090 N   0  0  0  0  0  1  0  0  0  0  0  0
  161.1770  208.8300  154.0880 O   0  0  0  0  0  1  0  0  0  0  0  0
  161.0590  208.2810  152.8100 C   0  0  0  0  0  2  0  0  0  0  0  0
  162.2780  206.8610  147.8030 O   0  0  0  0  0  0  0  0  0  0  0  0
  161.4550  207.9330  148.2390 C   0  0  0  0  0  2  0  0  0  0  0  0
  161.8960  209.7590  149.7060 O   0  0  0  0  0  1  0  0  0  0  0  0
  162.3060  209.1570  148.5160 C   0  0  0  0  0  2  0  0  0  0  0  0
  1 10  1  0  0  0  0
  2  8  2  0  0  0  0
  2  7  1  0  0  0  0
  3 11  1  0  0  0  0
  3  6  1  0  0  0  0
  4  2  1  0  0  0  0
  5 14  1  0  0  0  0
  5  1  2  0  0  0  0
  6  7  1  0  0  0  0
  6 13  1  0  0  0  0
  7 12  2  0  0  0  0
  9  4  1  0  0  0  0
 10  4  2  0  0  0  0
 10  3  1  0  0  0  0
 11 13  1  0  0  0  0
 13 18  1  6  0  0  0
 14  9  2  0  0  0  0
 15 16  2  0  0  0  0
 16  5  1  0  0  0  0
 17 16  1  0  0  0  0
 18 19  1  1  0  0  0
 21 18  1  0  0  0  0
 21 20  1  0  0  0  0
 22  1  1  0  0  0  0
 22 23  1  0  0  0  0
 23 25  1  0  0  0  0
 25 24  1  0  0  0  0
M  END
>  <MODEL>
7

>  <REMARK>
 VINA RESULT:      -6.9      1.747      2.512
  Name = 
  6 active torsions:
  status: ('A' for Active; 'I' for Inactive)
    1  A    between atoms: C_1  and  O_22
    2  A    between atoms: C_5  and  C_10
    3  A    between atoms: CA_15  and  C_20
    4  A    between atoms: CA_15  and  C_25
    5  A    between atoms: C_16  and  C_24
    6  A    between atoms: O_22  and  C_24
                            x       y       z     vdW  Elec       q    Type
                         _______ _______ _______ _____ _____    ______ ____

>  <TORSDO>
F 6

$$$$
=
 OpenBabel11042420153D

 25 27  0  0  1  0  0  0  0  0999 V2000
  160.8330  208.8700  153.8420 C   0  0  0  0  0  0  0  0  0  0  0  0
  161.8280  208.8480  150.1890 C   0  0  0  0  0  0  0  0  0  0  0  0
  161.5450  207.1330  152.2910 N   0  0  0  0  0  0  0  0  0  0  0  0
  161.4080  209.3230  151.4800 C   0  0  0  0  0  0  0  0  0  0  0  0
  160.6440  210.2590  154.0460 C   0  0  0  0  0  0  0  0  0  0  0  0
  161.9470  206.6910  151.0750 N   0  0  0  0  0  0  0  0  0  0  0  0
  162.1050  207.4740  149.9940 C   0  0  0  0  0  0  0  0  0  0  0  0
  161.9610  209.6540  149.2270 O   0  0  0  0  0  0  0  0  0  0  0  0
  161.1790  210.6830  151.7000 C   0  0  0  0  0  3  0  0  0  0  0  0
  161.2430  208.4170  152.5710 C   0  0  0  0  0  0  0  0  0  0  0  0
  161.6720  205.7920  152.8410 C   0  0  0  0  0  2  0  0  0  0  0  0
  162.4890  207.0050  148.8900 O   0  0  0  0  0  0  0  0  0  0  0  0
  162.0680  205.3280  151.5740 C   0  0  1  0  0  3  0  0  0  0  0  0
  160.8090  211.1410  152.9640 C   0  0  0  0  0  3  0  0  0  0  0  0
  161.1140  211.4090  156.0740 O   0  0  0  0  0  0  0  0  0  0  0  0
  160.2520  210.8330  155.3580 C   0  0  0  0  0  0  0  0  0  0  0  0
  158.9150  210.7400  155.8420 N   0  0  0  0  0  1  0  0  0  0  0  0
  160.9850  204.4370  150.9680 C   0  0  1  0  0  3  0  0  0  0  0  0
  161.2960  204.1650  149.5730 N   0  0  0  0  0  1  0  0  0  0  0  0
  160.9880  202.0520  150.8360 O   0  0  0  0  0  1  0  0  0  0  0  0
  160.8990  203.1220  151.7270 C   0  0  0  0  0  2  0  0  0  0  0  0
  160.6100  207.9730  154.8890 O   0  0  0  0  0  0  0  0  0  0  0  0
  161.5600  207.7940  155.9300 C   0  0  0  0  0  2  0  0  0  0  0  0
  159.7270  206.8390  157.1150 O   0  0  0  0  0  1  0  0  0  0  0  0
  160.8470  207.6560  157.2610 C   0  0  0  0  0  2  0  0  0  0  0  0
  1  5  1  0  0  0  0
  1 22  1  0  0  0  0
  2  4  1  0  0  0  0
  3 10  1  0  0  0  0
  3 11  1  0  0  0  0
  4  9  2  0  0  0  0
  4 10  1  0  0  0  0
  5 16  1  0  0  0  0
  6 13  1  0  0  0  0
  6  3  1  0  0  0  0
  7  2  1  0  0  0  0
  7  6  1  0  0  0  0
  8  2  2  0  0  0  0
  9 14  1  0  0  0  0
 10  1  2  0  0  0  0
 12  7  2  0  0  0  0
 13 18  1  6  0  0  0
 13 11  1  0  0  0  0
 14  5  2  0  0  0  0
 16 17  1  0  0  0  0
 16 15  2  0  0  0  0
 18 19  1  6  0  0  0
 18 21  1  0  0  0  0
 20 21  1  0  0  0  0
 22 23  1  0  0  0  0
 23 25  1  0  0  0  0
 24 25  1  0  0  0  0
M  END
>  <MODEL>
8

>  <REMARK>
 VINA RESULT:      -6.6      2.935      8.149
  Name = 
  6 active torsions:
  status: ('A' for Active; 'I' for Inactive)
    1  A    between atoms: C_1  and  O_22
    2  A    between atoms: C_5  and  C_10
    3  A    between atoms: CA_15  and  C_20
    4  A    between atoms: CA_15  and  C_25
    5  A    between atoms: C_16  and  C_24
    6  A    between atoms: O_22  and  C_24
                            x       y       z     vdW  Elec       q    Type
                         _______ _______ _______ _____ _____    ______ ____

>  <TORSDO>
F 6

$$$$
=
 OpenBabel11042420153D

 25 27  0  0  1  0  0  0  0  0999 V2000
  161.3870  206.8760  150.3960 C   0  0  0  0  0  0  0  0  0  0  0  0
  162.0310  205.7530  146.8380 C   0  0  0  0  0  0  0  0  0  0  0  0
  161.4320  204.7080  149.2860 N   0  0  0  0  0  0  0  0  0  0  0  0
  161.8750  206.6030  147.9870 C   0  0  0  0  0  0  0  0  0  0  0  0
  161.6290  208.2650  150.2720 C   0  0  0  0  0  0  0  0  0  0  0  0
  161.5860  203.9100  148.2020 N   0  0  0  0  0  0  0  0  0  0  0  0
  161.8770  204.3520  146.9670 C   0  0  0  0  0  0  0  0  0  0  0  0
  162.3140  206.2490  145.7130 O   0  0  0  0  0  0  0  0  0  0  0  0
  162.0720  207.9820  147.8860 C   0  0  0  0  0  3  0  0  0  0  0  0
  161.5420  206.0530  149.2620 C   0  0  0  0  0  0  0  0  0  0  0  0
  161.2060  203.5480  150.1320 C   0  0  0  0  0  2  0  0  0  0  0  0
  162.0160  203.5590  145.9980 O   0  0  0  0  0  0  0  0  0  0  0  0
  161.3440  202.7190  149.0040 C   0  0  1  0  0  3  0  0  0  0  0  0
  161.9560  208.7960  149.0130 C   0  0  0  0  0  3  0  0  0  0  0  0
  160.4280  209.3580  152.0110 O   0  0  0  0  0  0  0  0  0  0  0  0
  161.5310  209.2040  151.4180 C   0  0  0  0  0  0  0  0  0  0  0  0
  162.6550  209.9530  151.8670 N   0  0  0  0  0  1  0  0  0  0  0  0
  160.0030  202.0880  148.6350 C   0  0  1  0  0  3  0  0  0  0  0  0
  160.1390  201.3280  147.4030 N   0  0  0  0  0  1  0  0  0  0  0  0
  160.6240  200.4810  150.2900 O   0  0  0  0  0  1  0  0  0  0  0  0
  159.5340  201.1610  149.7460 C   0  0  0  0  0  2  0  0  0  0  0  0
  160.9980  206.3400  151.6260 O   0  0  0  0  0  0  0  0  0  0  0  0
  161.9270  206.1590  152.6860 C   0  0  0  0  0  2  0  0  0  0  0  0
  161.3200  207.4900  154.5670 O   0  0  0  0  0  1  0  0  0  0  0  0
  161.2060  206.2130  154.0190 C   0  0  0  0  0  2  0  0  0  0  0  0
  1 22  1  0  0  0  0
  2  7  1  0  0  0  0
  2  4  1  0  0  0  0
  3 11  1  0  0  0  0
  4 10  1  0  0  0  0
  5  1  1  0  0  0  0
  5 16  1  0  0  0  0
  6 13  1  0  0  0  0
  6  3  1  0  0  0  0
  7  6  1  0  0  0  0
  8  2  2  0  0  0  0
  9  4  2  0  0  0  0
  9 14  1  0  0  0  0
 10  3  1  0  0  0  0
 10  1  2  0  0  0  0
 12  7  2  0  0  0  0
 13 18  1  6  0  0  0
 13 11  1  0  0  0  0
 14  5  2  0  0  0  0
 16 17  1  0  0  0  0
 16 15  2  0  0  0  0
 18 19  1  6  0  0  0
 18 21  1  0  0  0  0
 21 20  1  0  0  0  0
 22 23  1  0  0  0  0
 23 25  1  0  0  0  0
 25 24  1  0  0  0  0
M  END
>  <MODEL>
9

>  <REMARK>
 VINA RESULT:      -6.4      1.794      6.886
  Name = 
  6 active torsions:
  status: ('A' for Active; 'I' for Inactive)
    1  A    between atoms: C_1  and  O_22
    2  A    between atoms: C_5  and  C_10
    3  A    between atoms: CA_15  and  C_20
    4  A    between atoms: CA_15  and  C_25
    5  A    between atoms: C_16  and  C_24
    6  A    between atoms: O_22  and  C_24
                            x       y       z     vdW  Elec       q    Type
                         _______ _______ _______ _____ _____    ______ ____

>  <TORSDO>
F 6

$$$$
