=
 OpenBabel11052410423D

 68 77  0  0  1  0  0  0  0  0999 V2000
  159.9520  211.3260  146.6500 O   0  0  0  0  0  0  0  0  0  0  0  0
  160.6720  211.7910  147.7770 C   0  0  2  0  0  3  0  0  0  0  0  0
  159.9530  213.6960  146.3850 C   0  0  1  0  0  3  0  0  0  0  0  0
  159.5230  212.3740  145.8700 C   0  0  0  0  0  0  0  0  0  0  0  0
  160.8050  213.3130  147.5990 C   0  0  1  0  0  3  0  0  0  0  0  0
  158.7830  212.2120  144.8680 O   0  0  0  0  0  0  0  0  0  0  0  0
  163.0430  211.7390  147.4510 O   0  0  0  0  0  0  0  0  0  0  0  0
  162.0060  211.1250  147.8290 C   0  0  0  0  0  0  0  0  0  0  0  0
  162.0790  209.7620  148.2520 N   0  0  0  0  0  0  0  0  0  0  0  0
  162.1350  209.4380  149.5130 C   0  0  0  0  0  3  0  0  0  0  0  0
  162.2120  208.0140  149.9350 C   0  0  0  0  0  2  0  0  0  0  0  0
  162.1140  207.2090  148.8010 O   0  0  0  0  0  0  0  0  0  0  0  0
  161.3100  204.6300  145.5110 C   0  0  2  0  0  0  0  0  0  0  0  0
  161.7420  202.5510  147.1000 C   0  0  1  0  0  3  0  0  0  0  0  0
  161.0670  205.6060  146.6330 C   0  0  1  0  0  0  0  0  0  0  0  0
  160.7240  204.9600  147.8390 O   0  0  0  0  0  0  0  0  0  0  0  0
  160.8330  205.0460  144.1270 C   0  0  0  0  0  1  0  0  0  0  0  0
  160.6700  204.2590  151.0300 C   0  0  1  0  0  3  0  0  0  0  0  0
  161.1450  201.0580  150.1190 O   0  0  0  0  0  1  0  0  0  0  0  0
  161.0670  202.2810  149.4530 C   0  0  1  0  0  3  0  0  0  0  0  0
  161.1390  203.1020  145.8050 C   0  0  0  0  0  2  0  0  0  0  0  0
  160.6200  202.0830  148.0120 C   0  0  2  0  0  3  0  0  0  0  0  0
  161.4650  201.0700  147.2540 C   0  0  0  0  0  2  0  0  0  0  0  0
  163.3780  205.0740  147.2060 C   0  0  0  0  0  2  0  0  0  0  0  0
  159.7010  206.5490  149.6600 O   0  0  0  0  0  0  0  0  0  0  0  0
  162.5060  205.5140  146.0110 C   0  0  0  0  0  0  0  0  0  0  0  0
  161.7070  204.9680  150.3880 O   0  0  0  0  0  0  0  0  0  0  0  0
  161.0160  205.9670  149.1890 P   0  0  2  0  0  0  0  0  0  0  0  0
  160.0450  203.1650  150.1480 C   0  0  0  0  0  2  0  0  0  0  0  0
  161.1570  203.6930  152.2060 O   0  0  0  0  0  1  0  0  0  0  0  0
  160.2400  206.8400  146.2650 C   0  0  0  0  0  1  0  0  0  0  0  0
  163.6550  204.4950  145.8800 C   0  0  0  0  0  2  0  0  0  0  0  0
  160.2680  214.0180  148.8300 C   0  0  0  0  0  2  0  0  0  0  0  0
  160.2300  213.0460  149.9950 C   0  0  0  0  0  2  0  0  0  0  0  0
  159.9820  213.7840  151.2240 N   0  0  0  0  0  2  0  0  0  0  0  0
  157.1180  214.2460  153.2850 N   0  0  0  0  0  0  0  0  0  0  0  0
  157.4890  214.1340  151.0760 C   0  0  0  0  0  0  0  0  0  0  0  0
  158.6840  214.0410  151.7650 C   0  0  0  0  0  0  0  0  0  0  0  0
  156.5340  214.2660  152.0700 C   0  0  0  0  0  0  0  0  0  0  0  0
  158.4220  214.1200  153.0870 N   0  0  0  0  0  0  0  0  0  0  0  0
  153.9150  214.4530  151.7210 C   0  0  0  0  0  3  0  0  0  0  0  0
  155.1100  214.3650  151.8760 C   0  0  0  0  0  0  0  0  0  0  0  0
  157.0690  214.0400  148.4660 C   0  0  0  0  0  3  0  0  0  0  0  0
  157.2600  214.0860  149.6560 C   0  0  0  0  0  0  0  0  0  0  0  0
  159.3370  214.0180  154.1470 N   0  0  0  0  0  2  0  0  0  0  0  0
  159.3310  212.9150  155.0960 C   0  0  0  0  0  2  0  0  0  0  0  0
  159.9280  210.4940  155.1990 C   0  0  0  0  0  2  0  0  0  0  0  0
  160.3450  211.8620  154.6890 C   0  0  0  0  0  3  0  0  0  0  0  0
  160.9860  211.2930  155.9430 C   0  0  0  0  0  2  0  0  0  0  0  0
  160.8120  214.4510  145.3750 C   0  0  0  0  0  2  0  0  0  0  0  0
  160.0990  214.3280  143.7250 S   0  0  0  0  0  0  0  0  0  0  0  0
  160.6730  212.9300  143.1430 C   0  0  0  0  0  2  0  0  0  0  0  0
  156.2790  213.7130  138.5330 C   0  0  0  0  0  3  0  0  0  0  0  0
  160.6980  213.0450  140.5480 C   0  0  2  0  0  0  0  0  0  0  0  0
  161.2210  212.7120  139.1690 C   0  0  0  0  0  0  0  0  0  0  0  0
  162.4660  212.3040  138.9480 C   0  0  0  0  0  2  0  0  0  0  0  0
  156.8370  213.5910  137.2620 C   0  0  0  0  0  3  0  0  0  0  0  0
  158.4560  213.3240  139.5370 C   0  0  0  0  0  0  0  0  0  0  0  0
  158.1960  213.3180  137.1210 C   0  0  0  0  0  3  0  0  0  0  0  0
  162.8410  212.2620  141.8910 C   0  0  0  0  0  1  0  0  0  0  0  0
  161.4610  212.8960  141.8680 C   0  0  2  0  0  0  0  0  0  0  0  0
  159.2880  213.2020  140.6550 O   0  0  0  0  0  0  0  0  0  0  0  0
  161.4340  214.2380  141.1450 C   0  0  0  0  0  2  0  0  0  0  0  0
  160.3560  212.8580  138.0830 O   0  0  0  0  0  0  0  0  0  0  0  0
  159.0050  213.1740  138.2480 C   0  0  0  0  0  0  0  0  0  0  0  0
  157.0690  213.5830  139.6790 C   0  0  0  0  0  0  0  0  0  0  0  0
  156.4290  213.7060  140.9190 O   0  0  0  0  0  0  0  0  0  0  0  0
  155.2430  214.4520  141.1550 C   0  0  0  0  0  1  0  0  0  0  0  0
  1  2  1  0  0  0  0
  2  8  1  6  0  0  0
  3 50  1  6  0  0  0
  3  5  1  0  0  0  0
  4  3  1  0  0  0  0
  4  1  1  0  0  0  0
  5  2  1  0  0  0  0
  5 33  1  1  0  0  0
  6  4  2  0  0  0  0
  7  8  2  0  0  0  0
  8  9  1  0  0  0  0
  9 10  2  0  0  0  0
 10 11  1  0  0  0  0
 12 28  1  0  0  0  0
 12 11  1  0  0  0  0
 13 17  1  6  0  0  0
 13 21  1  0  0  0  0
 13 26  1  0  0  0  0
 13 15  1  0  0  0  0
 14 21  1  6  0  0  0
 14 23  1  0  0  0  0
 14 22  1  0  0  0  0
 15 31  1  6  0  0  0
 15 16  1  0  0  0  0
 16 28  1  0  0  0  0
 18 30  1  1  0  0  0
 20 19  1  1  0  0  0
 20 29  1  0  0  0  0
 22 23  1  1  0  0  0
 22 20  1  0  0  0  0
 26 15  1  0  0  0  0
 26 24  1  0  0  0  0
 27 18  1  0  0  0  0
 28 25  2  1  0  0  0
 28 27  1  0  0  0  0
 29 18  1  0  0  0  0
 32 26  1  0  0  0  0
 32 24  1  0  0  0  0
 33 34  1  0  0  0  0
 34 35  1  0  0  0  0
 35 38  1  0  0  0  0
 37 38  2  0  0  0  0
 37 39  1  0  0  0  0
 38 40  1  0  0  0  0
 39 36  2  0  0  0  0
 40 36  1  0  0  0  0
 40 45  1  0  0  0  0
 41 42  3  0  0  0  0
 42 39  1  0  0  0  0
 43 44  3  0  0  0  0
 44 37  1  0  0  0  0
 45 46  1  0  0  0  0
 47 49  1  0  0  0  0
 48 46  1  0  0  0  0
 48 47  1  0  0  0  0
 48 49  1  0  0  0  0
 51 50  1  0  0  0  0
 52 51  1  0  0  0  0
 53 66  1  0  0  0  0
 54 62  1  0  0  0  0
 54 63  1  6  0  0  0
 54 61  1  0  0  0  0
 55 54  1  0  0  0  0
 56 55  2  0  0  0  0
 57 53  2  0  0  0  0
 58 66  2  0  0  0  0
 58 62  1  0  0  0  0
 59 57  1  0  0  0  0
 59 65  2  0  0  0  0
 61 60  1  6  0  0  0
 61 52  1  0  0  0  0
 63 61  1  0  0  0  0
 64 65  1  0  0  0  0
 64 55  1  0  0  0  0
 65 58  1  0  0  0  0
 66 67  1  0  0  0  0
 67 68  1  0  0  0  0
M  END
>  <MODEL>
1

>  <REMARK>
 VINA RESULT:      -5.3      0.000      0.000
  Name = 
  18 active torsions:
  status: ('A' for Active; 'I' for Inactive)
    1  A    between atoms: O_4  and  C_66
    2  A    between atoms: C_6  and  C_22
    3  A    between atoms: C_6  and  S_29
    4  A    between atoms: C_14  and  C_56
    5  A    between atoms: C_15  and  C_25
    6  A    between atoms: C_15  and  N_47
    7  A    between atoms: C_19  and  C_48
    8  A    between atoms: C_20  and  C_26
    9  A    between atoms: C_25  and  C_31
   10  A    between atoms: C_34  and  O_35
   11  A    between atoms: C_34  and  C_57
   12  A    between atoms: O_35  and  P_54
   13  A    between atoms: C_38  and  C_42
   14  A    between atoms: N_44  and  C_56
   15  A    between atoms: N_47  and  C_58
   16  A    between atoms: C_48  and  N_51
   17  A    between atoms: N_51  and  N_68
   18  A    between atoms: C_62  and  C_65
                            x       y       z     vdW  Elec       q    Type
                         _______ _______ _______ _____ _____    ______ ____

>  <TORSDO>
F 18

$$$$
