=
 OpenBabel11052411403D

 43 46  0  0  1  0  0  0  0  0999 V2000
  161.3260  205.2680  150.4130 C   0  0  0  0  0  0  0  0  0  0  0  0
  161.1350  204.5080  153.0980 N   0  0  0  0  0  0  0  0  0  0  0  0
  161.5740  207.5180  151.0100 N   0  0  0  0  0  0  0  0  0  0  0  0
  161.3910  208.2580  153.2380 C   0  0  0  0  0  0  0  0  0  0  0  0
  160.8770  203.6730  152.1630 N   0  0  0  0  0  0  0  0  0  0  0  0
  161.4580  205.8660  152.7860 C   0  0  0  0  0  0  0  0  0  0  0  0
  161.9500  206.1730  151.4030 C   0  0  1  0  0  3  0  0  0  0  0  0
  161.2640  206.8480  153.6690 C   0  0  0  0  0  3  0  0  0  0  0  0
  161.4750  208.5430  151.9680 N   0  0  0  0  0  0  0  0  0  0  0  0
  161.0780  206.0390  148.8190 S   0  0  0  0  0  0  0  0  0  0  0  0
  160.8550  204.0610  150.7730 C   0  0  0  0  0  0  0  0  0  0  0  0
  161.0840  207.6820  149.6450 C   0  0  2  0  0  3  0  0  0  0  0  0
  160.2430  203.1420  149.7760 C   0  0  0  0  0  1  0  0  0  0  0  0
  161.9400  208.6510  148.8980 C   0  0  0  0  0  0  0  0  0  0  0  0
  162.8830  208.2380  148.1690 O   0  0  0  0  0  0  0  0  0  0  0  0
  161.7050  210.0520  149.0570 N   0  0  0  0  0  2  0  0  0  0  0  0
  162.4760  211.0650  148.3510 C   0  0  0  0  0  2  0  0  0  0  0  0
  161.9240  213.3680  147.4010 N   0  0  0  0  0  2  0  0  0  0  0  0
  161.7900  212.3910  148.4390 C   0  0  0  0  0  0  0  0  0  0  0  0
  161.1000  212.6620  149.4550 O   0  0  0  0  0  0  0  0  0  0  0  0
  162.6830  213.1380  146.1790 C   0  0  0  0  0  2  0  0  0  0  0  0
  162.5420  212.9690  143.6950 C   0  0  0  0  0  1  0  0  0  0  0  0
  161.8220  213.4040  144.9540 C   0  0  1  0  0  3  0  0  0  0  0  0
  160.5760  212.6730  145.0710 N   0  0  0  0  0  1  0  0  0  0  0  0
  161.2590  209.3540  154.2540 C   0  0  1  0  0  3  0  0  0  0  0  0
  161.4440  210.6900  153.5380 C   0  0  0  0  0  1  0  0  0  0  0  0
  159.9640  209.2890  154.9600 N   0  0  0  0  0  0  0  0  0  0  0  0
  160.2460  208.0560  157.0560 C   0  0  0  0  0  2  0  0  0  0  0  0
  161.5330  208.7910  156.7670 C   0  0  0  0  0  2  0  0  0  0  0  0
  160.2020  209.4280  156.3980 C   0  0  0  0  0  3  0  0  0  0  0  0
  159.1750  210.4560  154.5750 C   0  0  0  0  0  2  0  0  0  0  0  0
  158.2780  210.7690  155.5990 O   0  0  0  0  0  0  0  0  0  0  0  0
  157.4140  211.7160  155.0430 C   0  0  1  0  0  3  0  0  0  0  0  0
  155.2890  210.6350  155.1170 F   0  0  0  0  0  0  0  0  0  0  0  0
  156.0380  211.6380  155.7040 C   0  0  0  0  0  0  0  0  0  0  0  0
  155.3690  212.8430  155.5740 F   0  0  0  0  0  0  0  0  0  0  0  0
  156.1900  211.3490  157.0470 F   0  0  0  0  0  0  0  0  0  0  0  0
  158.5850  213.4420  156.2210 O   0  0  0  0  0  0  0  0  0  0  0  0
  158.0140  213.0900  155.1540 C   0  0  0  0  0  0  0  0  0  0  0  0
  157.9430  214.0100  154.0640 N   0  0  0  0  0  2  0  0  0  0  0  0
  157.2920  213.6820  152.8060 C   0  0  0  0  0  2  0  0  0  0  0  0
  157.7560  213.3850  150.3810 C   0  0  0  0  0  1  0  0  0  0  0  0
  158.3280  213.2670  151.7790 C   0  0  0  0  0  2  0  0  0  0  0  0
  1 11  2  0  0  0  0
  3  7  1  0  0  0  0
  3  9  1  0  0  0  0
  4  8  1  0  0  0  0
  4 25  1  0  0  0  0
  5  2  2  0  0  0  0
  6  2  1  0  0  0  0
  6  8  2  0  0  0  0
  7  1  1  6  0  0  0
  7  6  1  0  0  0  0
  9  4  2  0  0  0  0
 10 12  1  0  0  0  0
 10  1  1  0  0  0  0
 11  5  1  0  0  0  0
 12 14  1  6  0  0  0
 12  3  1  0  0  0  0
 13 11  1  0  0  0  0
 14 16  1  0  0  0  0
 15 14  2  0  0  0  0
 17 19  1  0  0  0  0
 17 16  1  0  0  0  0
 18 19  1  0  0  0  0
 19 20  2  0  0  0  0
 21 18  1  0  0  0  0
 23 22  1  6  0  0  0
 23 24  1  0  0  0  0
 23 21  1  0  0  0  0
 25 26  1  6  0  0  0
 25 27  1  0  0  0  0
 27 30  1  0  0  0  0
 29 28  1  0  0  0  0
 30 29  1  0  0  0  0
 30 28  1  0  0  0  0
 31 27  1  0  0  0  0
 31 32  1  0  0  0  0
 33 39  1  1  0  0  0
 33 32  1  0  0  0  0
 33 35  1  0  0  0  0
 34 35  1  0  0  0  0
 35 37  1  0  0  0  0
 36 35  1  0  0  0  0
 39 38  2  0  0  0  0
 40 39  1  0  0  0  0
 41 40  1  0  0  0  0
 42 43  1  0  0  0  0
 43 41  1  0  0  0  0
M  END
>  <MODEL>
1

>  <REMARK>
 VINA RESULT:      -6.6      0.000      0.000
  Name = 
  15 active torsions:
  status: ('A' for Active; 'I' for Inactive)
    1  A    between atoms: N_1  and  C_42
    2  A    between atoms: C_2  and  C_10
    3  A    between atoms: C_6  and  C_18
    4  A    between atoms: N_7  and  C_35
    5  A    between atoms: N_7  and  C_39
    6  A    between atoms: N_7  and  C_43
    7  A    between atoms: N_9  and  C_17
    8  A    between atoms: C_10  and  N_40
    9  A    between atoms: C_11  and  C_18
   10  A    between atoms: C_12  and  C_42
   11  A    between atoms: C_15  and  C_36
   12  A    between atoms: C_17  and  C_33
   13  A    between atoms: C_18  and  O_32
   14  A    between atoms: C_20  and  C_39
   15  A    between atoms: O_32  and  C_43
                            x       y       z     vdW  Elec       q    Type
                         _______ _______ _______ _____ _____    ______ ____

>  <TORSDO>
F 15

$$$$
=
 OpenBabel11052411403D

 43 46  0  0  1  0  0  0  0  0999 V2000
  159.8680  210.2090  154.8570 C   0  0  0  0  0  0  0  0  0  0  0  0
  160.2240  207.5230  155.5520 N   0  0  0  0  0  0  0  0  0  0  0  0
  160.6380  209.8070  152.6840 N   0  0  0  0  0  0  0  0  0  0  0  0
  161.4950  207.7170  152.0160 C   0  0  0  0  0  0  0  0  0  0  0  0
  159.9600  208.3990  156.4460 N   0  0  0  0  0  0  0  0  0  0  0  0
  160.4120  207.9150  154.1880 C   0  0  0  0  0  0  0  0  0  0  0  0
  159.8400  209.2300  153.7490 C   0  0  1  0  0  3  0  0  0  0  0  0
  161.1320  207.1730  153.3440 C   0  0  0  0  0  3  0  0  0  0  0  0
  161.3030  208.9810  151.7580 N   0  0  0  0  0  0  0  0  0  0  0  0
  160.1090  211.8900  154.2990 S   0  0  0  0  0  0  0  0  0  0  0  0
  159.8820  209.8070  156.1400 C   0  0  0  0  0  0  0  0  0  0  0  0
  160.8990  211.2400  152.7710 C   0  0  2  0  0  3  0  0  0  0  0  0
  159.8930  210.7910  157.2570 C   0  0  0  0  0  1  0  0  0  0  0  0
  160.3750  211.9390  151.5610 C   0  0  0  0  0  0  0  0  0  0  0  0
  159.2070  212.4170  151.5560 O   0  0  0  0  0  0  0  0  0  0  0  0
  161.1970  212.0190  150.3940 N   0  0  0  0  0  2  0  0  0  0  0  0
  160.7750  212.7000  149.1780 C   0  0  0  0  0  2  0  0  0  0  0  0
  161.4100  212.7770  146.7080 N   0  0  0  0  0  2  0  0  0  0  0  0
  161.6860  212.3490  148.0460 C   0  0  0  0  0  0  0  0  0  0  0  0
  162.7050  211.6460  148.2700 O   0  0  0  0  0  0  0  0  0  0  0  0
  160.2700  213.6110  146.3540 C   0  0  0  0  0  2  0  0  0  0  0  0
  158.2760  213.7380  144.8610 C   0  0  0  0  0  1  0  0  0  0  0  0
  159.2420  212.8110  145.5690 C   0  0  1  0  0  3  0  0  0  0  0  0
  159.9190  211.9850  144.5890 N   0  0  0  0  0  1  0  0  0  0  0  0
  162.2280  206.8460  151.0390 C   0  0  1  0  0  3  0  0  0  0  0  0
  162.8830  205.7070  151.8180 C   0  0  0  0  0  1  0  0  0  0  0  0
  161.3320  206.3390  149.9820 N   0  0  0  0  0  0  0  0  0  0  0  0
  161.1330  207.7910  148.0210 C   0  0  0  0  0  2  0  0  0  0  0  0
  162.4570  208.0800  148.6870 C   0  0  0  0  0  2  0  0  0  0  0  0
  161.9130  206.6600  148.6760 C   0  0  0  0  0  3  0  0  0  0  0  0
  161.3140  204.8810  150.0590 C   0  0  0  0  0  2  0  0  0  0  0  0
  160.7250  204.3620  148.9030 O   0  0  0  0  0  0  0  0  0  0  0  0
  161.2760  203.0850  148.7620 C   0  0  1  0  0  3  0  0  0  0  0  0
  160.5900  202.7130  151.0150 F   0  0  0  0  0  0  0  0  0  0  0  0
  160.6540  202.1180  149.7690 C   0  0  0  0  0  0  0  0  0  0  0  0
  161.4030  200.9580  149.8550 F   0  0  0  0  0  0  0  0  0  0  0  0
  159.3710  201.7980  149.3650 F   0  0  0  0  0  0  0  0  0  0  0  0
  160.5160  201.5200  147.1160 O   0  0  0  0  0  0  0  0  0  0  0  0
  161.1100  202.6070  147.3460 C   0  0  0  0  0  0  0  0  0  0  0  0
  161.6220  203.3680  146.2520 N   0  0  0  0  0  2  0  0  0  0  0  0
  162.3290  204.6250  146.4360 C   0  0  0  0  0  2  0  0  0  0  0  0
  160.5880  205.5940  144.9480 C   0  0  0  0  0  1  0  0  0  0  0  0
  162.0700  205.5430  145.2570 C   0  0  0  0  0  2  0  0  0  0  0  0
  1 11  2  0  0  0  0
  2  5  2  0  0  0  0
  3 12  1  0  0  0  0
  3  7  1  0  0  0  0
  4  8  1  0  0  0  0
  6  2  1  0  0  0  0
  7  6  1  1  0  0  0
  7  1  1  0  0  0  0
  8  6  2  0  0  0  0
  9  4  2  0  0  0  0
  9  3  1  0  0  0  0
 10  1  1  0  0  0  0
 11  5  1  0  0  0  0
 11 13  1  0  0  0  0
 12 14  1  6  0  0  0
 12 10  1  0  0  0  0
 15 14  2  0  0  0  0
 16 14  1  0  0  0  0
 17 16  1  0  0  0  0
 18 19  1  0  0  0  0
 19 20  2  0  0  0  0
 19 17  1  0  0  0  0
 21 18  1  0  0  0  0
 23 22  1  6  0  0  0
 23 21  1  0  0  0  0
 24 23  1  0  0  0  0
 25 26  1  1  0  0  0
 25  4  1  0  0  0  0
 27 31  1  0  0  0  0
 27 25  1  0  0  0  0
 28 30  1  0  0  0  0
 28 29  1  0  0  0  0
 30 29  1  0  0  0  0
 30 27  1  0  0  0  0
 32 31  1  0  0  0  0
 33 39  1  6  0  0  0
 33 32  1  0  0  0  0
 33 35  1  0  0  0  0
 35 36  1  0  0  0  0
 35 34  1  0  0  0  0
 37 35  1  0  0  0  0
 38 39  2  0  0  0  0
 40 41  1  0  0  0  0
 40 39  1  0  0  0  0
 42 43  1  0  0  0  0
 43 41  1  0  0  0  0
M  END
>  <MODEL>
2

>  <REMARK>
 VINA RESULT:      -6.0      4.116      7.904
  Name = 
  15 active torsions:
  status: ('A' for Active; 'I' for Inactive)
    1  A    between atoms: N_1  and  C_42
    2  A    between atoms: C_2  and  C_10
    3  A    between atoms: C_6  and  C_18
    4  A    between atoms: N_7  and  C_35
    5  A    between atoms: N_7  and  C_39
    6  A    between atoms: N_7  and  C_43
    7  A    between atoms: N_9  and  C_17
    8  A    between atoms: C_10  and  N_40
    9  A    between atoms: C_11  and  C_18
   10  A    between atoms: C_12  and  C_42
   11  A    between atoms: C_15  and  C_36
   12  A    between atoms: C_17  and  C_33
   13  A    between atoms: C_18  and  O_32
   14  A    between atoms: C_20  and  C_39
   15  A    between atoms: O_32  and  C_43
                            x       y       z     vdW  Elec       q    Type
                         _______ _______ _______ _____ _____    ______ ____

>  <TORSDO>
F 15

$$$$
=
 OpenBabel11052411403D

 43 46  0  0  1  0  0  0  0  0999 V2000
  161.0280  209.0700  153.4280 C   0  0  0  0  0  0  0  0  0  0  0  0
  160.3580  206.7880  154.9000 N   0  0  0  0  0  0  0  0  0  0  0  0
  161.6410  207.7670  151.5820 N   0  0  0  0  0  0  0  0  0  0  0  0
  161.6830  205.4140  151.6580 C   0  0  0  0  0  0  0  0  0  0  0  0
  160.4160  207.9350  155.4640 N   0  0  0  0  0  0  0  0  0  0  0  0
  160.7050  206.6420  153.5190 C   0  0  0  0  0  0  0  0  0  0  0  0
  160.6650  207.8650  152.6510 C   0  0  1  0  0  3  0  0  0  0  0  0
  161.1180  205.4730  153.0250 C   0  0  0  0  0  3  0  0  0  0  0  0
  161.9740  206.5180  151.0280 N   0  0  0  0  0  0  0  0  0  0  0  0
  161.8810  210.3000  152.4520 S   0  0  0  0  0  0  0  0  0  0  0  0
  160.8680  209.1120  154.7620 C   0  0  0  0  0  0  0  0  0  0  0  0
  162.4080  208.9740  151.2910 C   0  0  2  0  0  3  0  0  0  0  0  0
  161.2170  210.3300  155.5440 C   0  0  0  0  0  1  0  0  0  0  0  0
  162.2020  209.3930  149.8740 C   0  0  0  0  0  0  0  0  0  0  0  0
  162.2510  208.5420  148.9440 O   0  0  0  0  0  0  0  0  0  0  0  0
  161.9950  210.7770  149.5810 N   0  0  0  0  0  2  0  0  0  0  0  0
  161.7650  211.2700  148.2310 C   0  0  0  0  0  2  0  0  0  0  0  0
  161.5090  213.5650  147.1430 N   0  0  0  0  0  2  0  0  0  0  0  0
  161.3290  212.7000  148.2700 C   0  0  0  0  0  0  0  0  0  0  0  0
  160.8130  213.1580  149.3220 O   0  0  0  0  0  0  0  0  0  0  0  0
  162.0750  213.1210  145.8770 C   0  0  0  0  0  2  0  0  0  0  0  0
  161.6370  212.7990  143.4430 C   0  0  0  0  0  1  0  0  0  0  0  0
  161.0160  213.1190  144.7860 C   0  0  1  0  0  3  0  0  0  0  0  0
  160.0060  212.1260  145.0950 N   0  0  0  0  0  1  0  0  0  0  0  0
  162.0650  204.0850  151.0760 C   0  0  1  0  0  3  0  0  0  0  0  0
  161.7130  203.0020  152.0960 C   0  0  0  0  0  1  0  0  0  0  0  0
  161.4030  203.8470  149.7790 N   0  0  0  0  0  0  0  0  0  0  0  0
  160.1110  201.9940  148.8370 C   0  0  0  0  0  2  0  0  0  0  0  0
  160.7030  201.5350  150.1470 C   0  0  0  0  0  2  0  0  0  0  0  0
  160.2440  202.9770  149.9910 C   0  0  0  0  0  3  0  0  0  0  0  0
  160.8600  205.1180  149.3040 C   0  0  0  0  0  2  0  0  0  0  0  0
  161.6760  205.6200  148.2870 O   0  0  0  0  0  0  0  0  0  0  0  0
  161.1220  205.1220  147.1040 C   0  0  1  0  0  3  0  0  0  0  0  0
  161.5560  206.4080  145.1430 F   0  0  0  0  0  0  0  0  0  0  0  0
  160.6740  206.2700  146.1990 C   0  0  0  0  0  0  0  0  0  0  0  0
  160.6230  207.4560  146.9090 F   0  0  0  0  0  0  0  0  0  0  0  0
  159.4180  205.9920  145.6930 F   0  0  0  0  0  0  0  0  0  0  0  0
  163.3420  204.4250  146.5340 O   0  0  0  0  0  0  0  0  0  0  0  0
  162.1050  204.2160  146.4170 C   0  0  0  0  0  0  0  0  0  0  0  0
  161.6550  203.1170  145.6230 N   0  0  0  0  0  2  0  0  0  0  0  0
  160.2450  202.8160  145.4310 C   0  0  0  0  0  2  0  0  0  0  0  0
  160.8690  200.4490  145.8690 C   0  0  0  0  0  1  0  0  0  0  0  0
  160.0790  201.3800  144.9720 C   0  0  0  0  0  2  0  0  0  0  0  0
  1 11  2  0  0  0  0
  2  5  2  0  0  0  0
  3  7  1  0  0  0  0
  4  8  1  0  0  0  0
  6  2  1  0  0  0  0
  7  1  1  1  0  0  0
  7  6  1  0  0  0  0
  8  6  2  0  0  0  0
  9  3  1  0  0  0  0
  9  4  2  0  0  0  0
 10  1  1  0  0  0  0
 11  5  1  0  0  0  0
 11 13  1  0  0  0  0
 12 14  1  6  0  0  0
 12  3  1  0  0  0  0
 12 10  1  0  0  0  0
 15 14  2  0  0  0  0
 16 14  1  0  0  0  0
 17 19  1  0  0  0  0
 17 16  1  0  0  0  0
 18 19  1  0  0  0  0
 19 20  2  0  0  0  0
 21 18  1  0  0  0  0
 23 22  1  6  0  0  0
 23 24  1  0  0  0  0
 23 21  1  0  0  0  0
 25  4  1  0  0  0  0
 25 26  1  1  0  0  0
 27 30  1  0  0  0  0
 27 25  1  0  0  0  0
 28 30  1  0  0  0  0
 28 29  1  0  0  0  0
 30 29  1  0  0  0  0
 31 27  1  0  0  0  0
 32 31  1  0  0  0  0
 33 39  1  6  0  0  0
 33 32  1  0  0  0  0
 34 35  1  0  0  0  0
 35 36  1  0  0  0  0
 35 33  1  0  0  0  0
 37 35  1  0  0  0  0
 39 38  2  0  0  0  0
 40 39  1  0  0  0  0
 41 40  1  0  0  0  0
 43 41  1  0  0  0  0
 43 42  1  0  0  0  0
M  END
>  <MODEL>
3

>  <REMARK>
 VINA RESULT:      -5.8      4.177      7.945
  Name = 
  15 active torsions:
  status: ('A' for Active; 'I' for Inactive)
    1  A    between atoms: N_1  and  C_42
    2  A    between atoms: C_2  and  C_10
    3  A    between atoms: C_6  and  C_18
    4  A    between atoms: N_7  and  C_35
    5  A    between atoms: N_7  and  C_39
    6  A    between atoms: N_7  and  C_43
    7  A    between atoms: N_9  and  C_17
    8  A    between atoms: C_10  and  N_40
    9  A    between atoms: C_11  and  C_18
   10  A    between atoms: C_12  and  C_42
   11  A    between atoms: C_15  and  C_36
   12  A    between atoms: C_17  and  C_33
   13  A    between atoms: C_18  and  O_32
   14  A    between atoms: C_20  and  C_39
   15  A    between atoms: O_32  and  C_43
                            x       y       z     vdW  Elec       q    Type
                         _______ _______ _______ _____ _____    ______ ____

>  <TORSDO>
F 15

$$$$
=
 OpenBabel11052411403D

 43 46  0  0  1  0  0  0  0  0999 V2000
  159.8790  210.0700  154.8470 C   0  0  0  0  0  0  0  0  0  0  0  0
  160.0280  207.3500  155.4790 N   0  0  0  0  0  0  0  0  0  0  0  0
  160.7160  209.6730  152.6970 N   0  0  0  0  0  0  0  0  0  0  0  0
  161.4630  207.5490  152.0070 C   0  0  0  0  0  0  0  0  0  0  0  0
  159.7830  208.2180  156.3860 N   0  0  0  0  0  0  0  0  0  0  0  0
  160.3010  207.7630  154.1360 C   0  0  0  0  0  0  0  0  0  0  0  0
  159.8360  209.1230  153.7110 C   0  0  1  0  0  3  0  0  0  0  0  0
  161.0080  206.9960  153.3020 C   0  0  0  0  0  3  0  0  0  0  0  0
  161.3650  208.8290  151.7770 N   0  0  0  0  0  0  0  0  0  0  0  0
  160.2540  211.7450  154.3470 S   0  0  0  0  0  0  0  0  0  0  0  0
  159.8110  209.6360  156.1170 C   0  0  0  0  0  0  0  0  0  0  0  0
  161.0660  211.0830  152.8350 C   0  0  2  0  0  3  0  0  0  0  0  0
  159.8380  210.5880  157.2610 C   0  0  0  0  0  1  0  0  0  0  0  0
  160.6420  211.8460  151.6250 C   0  0  0  0  0  0  0  0  0  0  0  0
  160.9080  211.4110  150.4700 O   0  0  0  0  0  0  0  0  0  0  0  0
  159.9720  213.0980  151.7910 N   0  0  0  0  0  2  0  0  0  0  0  0
  159.5050  213.8970  150.6670 C   0  0  0  0  0  2  0  0  0  0  0  0
  157.5660  213.5750  149.0400 N   0  0  0  0  0  2  0  0  0  0  0  0
  158.0680  213.5960  150.3800 C   0  0  0  0  0  0  0  0  0  0  0  0
  157.2810  213.3780  151.3370 O   0  0  0  0  0  0  0  0  0  0  0  0
  158.4030  213.7940  147.8680 C   0  0  0  0  0  2  0  0  0  0  0  0
  157.1910  212.6790  145.9950 C   0  0  0  0  0  1  0  0  0  0  0  0
  158.3650  212.5840  146.9470 C   0  0  1  0  0  3  0  0  0  0  0  0
  159.5960  212.5190  146.1840 N   0  0  0  0  0  1  0  0  0  0  0  0
  162.1800  206.6570  151.0370 C   0  0  1  0  0  3  0  0  0  0  0  0
  162.6860  205.4350  151.8020 C   0  0  0  0  0  1  0  0  0  0  0  0
  161.3120  206.2710  149.9070 N   0  0  0  0  0  0  0  0  0  0  0  0
  161.1520  207.6910  147.9200 C   0  0  0  0  0  2  0  0  0  0  0  0
  162.3770  208.1080  148.6970 C   0  0  0  0  0  2  0  0  0  0  0  0
  161.9740  206.6420  148.6540 C   0  0  0  0  0  3  0  0  0  0  0  0
  161.2120  204.8140  149.8850 C   0  0  0  0  0  2  0  0  0  0  0  0
  160.7660  204.3980  148.6280 O   0  0  0  0  0  0  0  0  0  0  0  0
  161.4110  203.1790  148.4040 C   0  0  1  0  0  3  0  0  0  0  0  0
  159.5760  202.0050  149.3750 F   0  0  0  0  0  0  0  0  0  0  0  0
  160.9510  202.1350  149.4220 C   0  0  0  0  0  0  0  0  0  0  0  0
  161.3310  202.5050  150.7010 F   0  0  0  0  0  0  0  0  0  0  0  0
  161.5220  200.9140  149.1180 F   0  0  0  0  0  0  0  0  0  0  0  0
  160.3910  201.7680  146.7590 O   0  0  0  0  0  0  0  0  0  0  0  0
  161.1780  202.7250  146.9900 C   0  0  0  0  0  0  0  0  0  0  0  0
  161.8420  203.3620  145.8980 N   0  0  0  0  0  2  0  0  0  0  0  0
  162.7720  204.4640  146.0840 C   0  0  0  0  0  2  0  0  0  0  0  0
  161.0340  205.3500  144.5420 C   0  0  0  0  0  1  0  0  0  0  0  0
  162.3230  205.6640  145.2730 C   0  0  0  0  0  2  0  0  0  0  0  0
  1 11  2  0  0  0  0
  2  5  2  0  0  0  0
  3 12  1  0  0  0  0
  3  7  1  0  0  0  0
  4  8  1  0  0  0  0
  6  2  1  0  0  0  0
  7  6  1  1  0  0  0
  7  1  1  0  0  0  0
  8  6  2  0  0  0  0
  9  4  2  0  0  0  0
  9  3  1  0  0  0  0
 10  1  1  0  0  0  0
 11  5  1  0  0  0  0
 11 13  1  0  0  0  0
 12 14  1  6  0  0  0
 12 10  1  0  0  0  0
 14 16  1  0  0  0  0
 15 14  2  0  0  0  0
 17 16  1  0  0  0  0
 18 19  1  0  0  0  0
 19 17  1  0  0  0  0
 19 20  2  0  0  0  0
 21 18  1  0  0  0  0
 23 22  1  6  0  0  0
 23 21  1  0  0  0  0
 24 23  1  0  0  0  0
 25 26  1  1  0  0  0
 25  4  1  0  0  0  0
 27 25  1  0  0  0  0
 28 30  1  0  0  0  0
 28 29  1  0  0  0  0
 30 29  1  0  0  0  0
 30 27  1  0  0  0  0
 31 27  1  0  0  0  0
 32 31  1  0  0  0  0
 33 39  1  6  0  0  0
 33 32  1  0  0  0  0
 33 35  1  0  0  0  0
 34 35  1  0  0  0  0
 35 36  1  0  0  0  0
 37 35  1  0  0  0  0
 38 39  2  0  0  0  0
 40 41  1  0  0  0  0
 40 39  1  0  0  0  0
 42 43  1  0  0  0  0
 43 41  1  0  0  0  0
M  END
>  <MODEL>
4

>  <REMARK>
 VINA RESULT:      -5.6      4.351      8.131
  Name = 
  15 active torsions:
  status: ('A' for Active; 'I' for Inactive)
    1  A    between atoms: N_1  and  C_42
    2  A    between atoms: C_2  and  C_10
    3  A    between atoms: C_6  and  C_18
    4  A    between atoms: N_7  and  C_35
    5  A    between atoms: N_7  and  C_39
    6  A    between atoms: N_7  and  C_43
    7  A    between atoms: N_9  and  C_17
    8  A    between atoms: C_10  and  N_40
    9  A    between atoms: C_11  and  C_18
   10  A    between atoms: C_12  and  C_42
   11  A    between atoms: C_15  and  C_36
   12  A    between atoms: C_17  and  C_33
   13  A    between atoms: C_18  and  O_32
   14  A    between atoms: C_20  and  C_39
   15  A    between atoms: O_32  and  C_43
                            x       y       z     vdW  Elec       q    Type
                         _______ _______ _______ _____ _____    ______ ____

>  <TORSDO>
F 15

$$$$
=
 OpenBabel11052411403D

 43 46  0  0  1  0  0  0  0  0999 V2000
  159.9210  210.5920  154.9240 C   0  0  0  0  0  0  0  0  0  0  0  0
  160.4830  207.9630  155.6930 N   0  0  0  0  0  0  0  0  0  0  0  0
  160.3830  210.0940  152.6830 N   0  0  0  0  0  0  0  0  0  0  0  0
  161.2180  208.0000  152.0040 C   0  0  0  0  0  0  0  0  0  0  0  0
  160.3170  208.8790  156.5710 N   0  0  0  0  0  0  0  0  0  0  0  0
  160.4550  208.2830  154.2990 C   0  0  0  0  0  0  0  0  0  0  0  0
  159.7720  209.5520  153.8820 C   0  0  1  0  0  3  0  0  0  0  0  0
  161.0740  207.5190  153.3960 C   0  0  0  0  0  3  0  0  0  0  0  0
  160.9390  209.2400  151.7130 N   0  0  0  0  0  0  0  0  0  0  0  0
  160.0100  212.2460  154.2510 S   0  0  0  0  0  0  0  0  0  0  0  0
  160.1380  210.2640  156.2090 C   0  0  0  0  0  0  0  0  0  0  0  0
  160.5950  211.5380  152.6580 C   0  0  2  0  0  3  0  0  0  0  0  0
  160.2710  211.3090  157.2610 C   0  0  0  0  0  1  0  0  0  0  0  0
  159.8730  212.1500  151.5050 C   0  0  0  0  0  0  0  0  0  0  0  0
  158.6170  212.2700  151.5290 O   0  0  0  0  0  0  0  0  0  0  0  0
  160.6180  212.5570  150.3550 N   0  0  0  0  0  2  0  0  0  0  0  0
  159.9980  213.1820  149.1950 C   0  0  0  0  0  2  0  0  0  0  0  0
  160.4570  213.4370  146.6980 N   0  0  0  0  0  2  0  0  0  0  0  0
  160.9100  213.0970  148.0120 C   0  0  0  0  0  0  0  0  0  0  0  0
  162.0920  212.6970  148.1740 O   0  0  0  0  0  0  0  0  0  0  0  0
  159.1160  213.9300  146.4160 C   0  0  0  0  0  2  0  0  0  0  0  0
  159.5210  212.3440  144.5330 C   0  0  0  0  0  1  0  0  0  0  0  0
  158.4730  213.1270  145.2960 C   0  0  1  0  0  3  0  0  0  0  0  0
  157.5030  212.2070  145.8570 N   0  0  0  0  0  1  0  0  0  0  0  0
  161.8360  207.1000  150.9750 C   0  0  1  0  0  3  0  0  0  0  0  0
  161.7130  205.6590  151.4680 C   0  0  0  0  0  1  0  0  0  0  0  0
  161.2120  207.2770  149.6490 N   0  0  0  0  0  0  0  0  0  0  0  0
  161.5390  208.9160  147.8610 C   0  0  0  0  0  2  0  0  0  0  0  0
  162.3780  209.3370  149.0430 C   0  0  0  0  0  2  0  0  0  0  0  0
  162.1970  207.8590  148.7350 C   0  0  0  0  0  3  0  0  0  0  0  0
  160.9030  205.9560  149.1090 C   0  0  0  0  0  2  0  0  0  0  0  0
  161.8750  205.5980  148.1720 O   0  0  0  0  0  0  0  0  0  0  0  0
  161.1880  204.8580  147.2060 C   0  0  1  0  0  3  0  0  0  0  0  0
  162.1660  206.3640  145.6360 F   0  0  0  0  0  0  0  0  0  0  0  0
  160.9990  205.6840  145.9330 C   0  0  0  0  0  0  0  0  0  0  0  0
  159.9700  206.5950  146.0940 F   0  0  0  0  0  0  0  0  0  0  0  0
  160.6970  204.8420  144.8810 F   0  0  0  0  0  0  0  0  0  0  0  0
  162.9680  203.5700  146.2530 O   0  0  0  0  0  0  0  0  0  0  0  0
  161.9100  203.5670  146.9360 C   0  0  0  0  0  0  0  0  0  0  0  0
  161.4070  202.3290  147.4410 N   0  0  0  0  0  2  0  0  0  0  0  0
  160.1870  202.2430  148.2270 C   0  0  0  0  0  2  0  0  0  0  0  0
  161.2280  201.1120  150.1820 C   0  0  0  0  0  1  0  0  0  0  0  0
  160.5120  202.3590  149.7040 C   0  0  0  0  0  2  0  0  0  0  0  0
  1 11  2  0  0  0  0
  2  5  2  0  0  0  0
  3  7  1  0  0  0  0
  4  8  1  0  0  0  0
  6  2  1  0  0  0  0
  7  6  1  1  0  0  0
  7  1  1  0  0  0  0
  8  6  2  0  0  0  0
  9  4  2  0  0  0  0
  9  3  1  0  0  0  0
 10  1  1  0  0  0  0
 11  5  1  0  0  0  0
 11 13  1  0  0  0  0
 12 14  1  6  0  0  0
 12  3  1  0  0  0  0
 12 10  1  0  0  0  0
 14 15  2  0  0  0  0
 16 14  1  0  0  0  0
 17 16  1  0  0  0  0
 18 19  1  0  0  0  0
 19 20  2  0  0  0  0
 19 17  1  0  0  0  0
 21 18  1  0  0  0  0
 23 22  1  1  0  0  0
 23 24  1  0  0  0  0
 23 21  1  0  0  0  0
 25 26  1  1  0  0  0
 25  4  1  0  0  0  0
 27 25  1  0  0  0  0
 28 30  1  0  0  0  0
 28 29  1  0  0  0  0
 30 29  1  0  0  0  0
 30 27  1  0  0  0  0
 31 27  1  0  0  0  0
 32 31  1  0  0  0  0
 33 39  1  6  0  0  0
 33 32  1  0  0  0  0
 34 35  1  0  0  0  0
 35 36  1  0  0  0  0
 35 33  1  0  0  0  0
 37 35  1  0  0  0  0
 38 39  2  0  0  0  0
 39 40  1  0  0  0  0
 40 41  1  0  0  0  0
 41 43  1  0  0  0  0
 43 42  1  0  0  0  0
M  END
>  <MODEL>
5

>  <REMARK>
 VINA RESULT:      -5.4      4.151      8.149
  Name = 
  15 active torsions:
  status: ('A' for Active; 'I' for Inactive)
    1  A    between atoms: N_1  and  C_42
    2  A    between atoms: C_2  and  C_10
    3  A    between atoms: C_6  and  C_18
    4  A    between atoms: N_7  and  C_35
    5  A    between atoms: N_7  and  C_39
    6  A    between atoms: N_7  and  C_43
    7  A    between atoms: N_9  and  C_17
    8  A    between atoms: C_10  and  N_40
    9  A    between atoms: C_11  and  C_18
   10  A    between atoms: C_12  and  C_42
   11  A    between atoms: C_15  and  C_36
   12  A    between atoms: C_17  and  C_33
   13  A    between atoms: C_18  and  O_32
   14  A    between atoms: C_20  and  C_39
   15  A    between atoms: O_32  and  C_43
                            x       y       z     vdW  Elec       q    Type
                         _______ _______ _______ _____ _____    ______ ____

>  <TORSDO>
F 15

$$$$
=
 OpenBabel11052411403D

 43 46  0  0  1  0  0  0  0  0999 V2000
  160.5350  212.7630  150.3040 C   0  0  0  0  0  0  0  0  0  0  0  0
  161.9650  211.6920  148.1530 N   0  0  0  0  0  0  0  0  0  0  0  0
  160.7610  210.7740  151.5170 N   0  0  0  0  0  0  0  0  0  0  0  0
  161.7420  208.8410  150.5970 C   0  0  0  0  0  0  0  0  0  0  0  0
  161.3500  212.8080  148.0370 N   0  0  0  0  0  0  0  0  0  0  0  0
  161.8730  210.9370  149.3650 C   0  0  0  0  0  0  0  0  0  0  0  0
  161.4710  211.6620  150.6150 C   0  0  1  0  0  3  0  0  0  0  0  0
  162.0680  209.6170  149.3800 C   0  0  0  0  0  3  0  0  0  0  0  0
  161.0700  209.4020  151.5640 N   0  0  0  0  0  0  0  0  0  0  0  0
  159.3440  213.0580  151.6050 S   0  0  0  0  0  0  0  0  0  0  0  0
  160.5110  213.3330  149.0870 C   0  0  0  0  0  0  0  0  0  0  0  0
  159.5810  211.3260  152.1760 C   0  0  2  0  0  3  0  0  0  0  0  0
  159.5810  214.4530  148.7760 C   0  0  0  0  0  1  0  0  0  0  0  0
  159.7400  211.2710  153.6590 C   0  0  0  0  0  0  0  0  0  0  0  0
  158.7250  211.2720  154.4100 O   0  0  0  0  0  0  0  0  0  0  0  0
  161.0550  211.2620  154.2180 N   0  0  0  0  0  2  0  0  0  0  0  0
  161.3020  211.1880  155.6510 C   0  0  0  0  0  2  0  0  0  0  0  0
  162.4730  209.1210  156.5820 N   0  0  0  0  0  2  0  0  0  0  0  0
  162.5370  210.3890  155.9220 C   0  0  0  0  0  0  0  0  0  0  0  0
  163.6570  210.8520  155.5830 O   0  0  0  0  0  0  0  0  0  0  0  0
  161.2240  208.4940  156.9910 C   0  0  0  0  0  2  0  0  0  0  0  0
  161.2350  207.1910  154.8640 C   0  0  0  0  0  1  0  0  0  0  0  0
  160.4100  208.0740  155.7770 C   0  0  1  0  0  3  0  0  0  0  0  0
  159.2340  207.3460  156.2120 N   0  0  0  0  0  1  0  0  0  0  0  0
  162.0460  207.3720  150.6380 C   0  0  1  0  0  3  0  0  0  0  0  0
  162.2950  206.9790  152.0930 C   0  0  0  0  0  1  0  0  0  0  0  0
  160.9590  206.5750  150.0360 N   0  0  0  0  0  0  0  0  0  0  0  0
  160.4610  206.2990  147.6550 C   0  0  0  0  0  2  0  0  0  0  0  0
  161.7350  207.0980  147.7780 C   0  0  0  0  0  2  0  0  0  0  0  0
  161.4390  205.9930  148.7800 C   0  0  0  0  0  3  0  0  0  0  0  0
  160.6820  205.4420  150.9160 C   0  0  0  0  0  2  0  0  0  0  0  0
  160.0060  204.4520  150.2000 O   0  0  0  0  0  0  0  0  0  0  0  0
  160.9540  203.4460  149.9950 C   0  0  1  0  0  3  0  0  0  0  0  0
  160.4750  202.8830  152.2630 F   0  0  0  0  0  0  0  0  0  0  0  0
  161.4970  202.9410  151.3330 C   0  0  0  0  0  0  0  0  0  0  0  0
  162.4930  203.7810  151.8000 F   0  0  0  0  0  0  0  0  0  0  0  0
  162.0170  201.6720  151.1670 F   0  0  0  0  0  0  0  0  0  0  0  0
  159.5990  201.4910  149.7190 O   0  0  0  0  0  0  0  0  0  0  0  0
  160.3580  202.3360  149.1750 C   0  0  0  0  0  0  0  0  0  0  0  0
  160.6470  202.2200  147.7820 N   0  0  0  0  0  2  0  0  0  0  0  0
  161.5230  203.1480  147.0840 C   0  0  0  0  0  2  0  0  0  0  0  0
  160.3960  201.8910  145.2580 C   0  0  0  0  0  1  0  0  0  0  0  0
  161.2520  203.0950  145.5930 C   0  0  0  0  0  2  0  0  0  0  0  0
  1  7  1  0  0  0  0
  1 10  1  0  0  0  0
  2  6  1  0  0  0  0
  3  9  1  0  0  0  0
  3 12  1  0  0  0  0
  4 25  1  0  0  0  0
  4  9  2  0  0  0  0
  5  2  2  0  0  0  0
  5 11  1  0  0  0  0
  6  8  2  0  0  0  0
  7  6  1  6  0  0  0
  7  3  1  0  0  0  0
  8  4  1  0  0  0  0
 10 12  1  0  0  0  0
 11  1  2  0  0  0  0
 12 14  1  1  0  0  0
 13 11  1  0  0  0  0
 14 16  1  0  0  0  0
 14 15  2  0  0  0  0
 16 17  1  0  0  0  0
 17 19  1  0  0  0  0
 18 21  1  0  0  0  0
 19 18  1  0  0  0  0
 20 19  2  0  0  0  0
 23 22  1  6  0  0  0
 23 24  1  0  0  0  0
 23 21  1  0  0  0  0
 25 26  1  1  0  0  0
 27 25  1  0  0  0  0
 27 31  1  0  0  0  0
 28 29  1  0  0  0  0
 28 30  1  0  0  0  0
 29 30  1  0  0  0  0
 30 27  1  0  0  0  0
 32 31  1  0  0  0  0
 33 39  1  1  0  0  0
 33 32  1  0  0  0  0
 33 35  1  0  0  0  0
 35 36  1  0  0  0  0
 35 34  1  0  0  0  0
 37 35  1  0  0  0  0
 39 38  2  0  0  0  0
 40 39  1  0  0  0  0
 41 40  1  0  0  0  0
 42 43  1  0  0  0  0
 43 41  1  0  0  0  0
M  END
>  <MODEL>
6

>  <REMARK>
 VINA RESULT:      -5.2      4.021      9.293
  Name = 
  15 active torsions:
  status: ('A' for Active; 'I' for Inactive)
    1  A    between atoms: N_1  and  C_42
    2  A    between atoms: C_2  and  C_10
    3  A    between atoms: C_6  and  C_18
    4  A    between atoms: N_7  and  C_35
    5  A    between atoms: N_7  and  C_39
    6  A    between atoms: N_7  and  C_43
    7  A    between atoms: N_9  and  C_17
    8  A    between atoms: C_10  and  N_40
    9  A    between atoms: C_11  and  C_18
   10  A    between atoms: C_12  and  C_42
   11  A    between atoms: C_15  and  C_36
   12  A    between atoms: C_17  and  C_33
   13  A    between atoms: C_18  and  O_32
   14  A    between atoms: C_20  and  C_39
   15  A    between atoms: O_32  and  C_43
                            x       y       z     vdW  Elec       q    Type
                         _______ _______ _______ _____ _____    ______ ____

>  <TORSDO>
F 15

$$$$
=
 OpenBabel11052411403D

 43 46  0  0  1  0  0  0  0  0999 V2000
  161.2300  204.7640  151.2050 C   0  0  0  0  0  0  0  0  0  0  0  0
  161.5070  205.5620  153.8710 N   0  0  0  0  0  0  0  0  0  0  0  0
  161.3110  206.9850  150.4720 N   0  0  0  0  0  0  0  0  0  0  0  0
  161.3670  208.8040  151.9670 C   0  0  0  0  0  0  0  0  0  0  0  0
  161.2120  204.3520  153.5790 N   0  0  0  0  0  0  0  0  0  0  0  0
  161.6310  206.5450  152.8380 C   0  0  0  0  0  0  0  0  0  0  0  0
  161.8850  206.0690  151.4400 C   0  0  1  0  0  3  0  0  0  0  0  0
  161.4580  207.8450  153.0910 C   0  0  0  0  0  3  0  0  0  0  0  0
  161.2380  208.3640  150.7470 N   0  0  0  0  0  0  0  0  0  0  0  0
  160.6740  204.5530  149.5190 S   0  0  0  0  0  0  0  0  0  0  0  0
  160.9500  203.9320  152.2230 C   0  0  0  0  0  0  0  0  0  0  0  0
  160.6170  206.3830  149.3390 C   0  0  2  0  0  3  0  0  0  0  0  0
  160.3070  202.6110  151.9880 C   0  0  0  0  0  1  0  0  0  0  0  0
  161.2450  206.8120  148.0550 C   0  0  0  0  0  0  0  0  0  0  0  0
  161.5800  208.0170  147.8810 O   0  0  0  0  0  0  0  0  0  0  0  0
  161.4200  205.8520  147.0110 N   0  0  0  0  0  2  0  0  0  0  0  0
  162.0430  206.1790  145.7360 C   0  0  0  0  0  2  0  0  0  0  0  0
  161.2950  203.9070  144.8470 N   0  0  0  0  0  2  0  0  0  0  0  0
  161.4880  205.3120  144.6520 C   0  0  0  0  0  0  0  0  0  0  0  0
  161.2040  205.8240  143.5380 O   0  0  0  0  0  0  0  0  0  0  0  0
  161.5730  203.2290  146.1060 C   0  0  0  0  0  2  0  0  0  0  0  0
  160.0820  201.4310  145.2290 C   0  0  0  0  0  1  0  0  0  0  0  0
  160.4600  202.2500  146.4460 C   0  0  1  0  0  3  0  0  0  0  0  0
  160.9040  201.3620  147.5020 N   0  0  0  0  0  1  0  0  0  0  0  0
  161.2610  210.2720  152.2590 C   0  0  1  0  0  3  0  0  0  0  0  0
  160.8370  210.9820  150.9750 C   0  0  0  0  0  1  0  0  0  0  0  0
  160.3220  210.5410  153.3660 N   0  0  0  0  0  0  0  0  0  0  0  0
  160.7160  210.9590  155.7450 C   0  0  0  0  0  2  0  0  0  0  0  0
  162.0490  210.6990  155.0870 C   0  0  0  0  0  2  0  0  0  0  0  0
  160.9650  211.4430  154.3240 C   0  0  0  0  0  3  0  0  0  0  0  0
  159.1830  211.2810  152.8290 C   0  0  0  0  0  2  0  0  0  0  0  0
  158.3360  211.6540  153.8750 O   0  0  0  0  0  0  0  0  0  0  0  0
  157.4550  212.5810  153.3100 C   0  0  1  0  0  3  0  0  0  0  0  0
  155.5340  211.6790  154.3980 F   0  0  0  0  0  0  0  0  0  0  0  0
  156.2740  212.8370  154.2470 C   0  0  0  0  0  0  0  0  0  0  0  0
  155.4610  213.8360  153.7410 F   0  0  0  0  0  0  0  0  0  0  0  0
  156.7470  213.2250  155.4860 F   0  0  0  0  0  0  0  0  0  0  0  0
  158.8490  214.4490  153.8620 O   0  0  0  0  0  0  0  0  0  0  0  0
  158.1890  213.8490  152.9730 C   0  0  0  0  0  0  0  0  0  0  0  0
  158.1450  214.3900  151.6520 N   0  0  0  0  0  2  0  0  0  0  0  0
  157.3970  213.7620  150.5740 C   0  0  0  0  0  2  0  0  0  0  0  0
  157.3790  213.6840  148.0880 C   0  0  0  0  0  1  0  0  0  0  0  0
  158.2540  213.6830  149.3250 C   0  0  0  0  0  2  0  0  0  0  0  0
  1 11  2  0  0  0  0
  3  9  1  0  0  0  0
  3  7  1  0  0  0  0
  4 25  1  0  0  0  0
  4  8  1  0  0  0  0
  5  2  2  0  0  0  0
  6  8  2  0  0  0  0
  6  2  1  0  0  0  0
  7  1  1  1  0  0  0
  7  6  1  0  0  0  0
  9  4  2  0  0  0  0
 10  1  1  0  0  0  0
 11  5  1  0  0  0  0
 12 14  1  6  0  0  0
 12 10  1  0  0  0  0
 12  3  1  0  0  0  0
 13 11  1  0  0  0  0
 15 14  2  0  0  0  0
 16 14  1  0  0  0  0
 17 16  1  0  0  0  0
 18 21  1  0  0  0  0
 19 18  1  0  0  0  0
 19 17  1  0  0  0  0
 20 19  2  0  0  0  0
 21 23  1  0  0  0  0
 23 22  1  6  0  0  0
 23 24  1  0  0  0  0
 25 26  1  6  0  0  0
 25 27  1  0  0  0  0
 27 30  1  0  0  0  0
 29 28  1  0  0  0  0
 30 29  1  0  0  0  0
 30 28  1  0  0  0  0
 31 27  1  0  0  0  0
 31 32  1  0  0  0  0
 33 39  1  1  0  0  0
 33 32  1  0  0  0  0
 33 35  1  0  0  0  0
 35 34  1  0  0  0  0
 35 37  1  0  0  0  0
 36 35  1  0  0  0  0
 39 38  2  0  0  0  0
 40 39  1  0  0  0  0
 41 40  1  0  0  0  0
 42 43  1  0  0  0  0
 43 41  1  0  0  0  0
M  END
>  <MODEL>
7

>  <REMARK>
 VINA RESULT:      -5.1      2.798      4.658
  Name = 
  15 active torsions:
  status: ('A' for Active; 'I' for Inactive)
    1  A    between atoms: N_1  and  C_42
    2  A    between atoms: C_2  and  C_10
    3  A    between atoms: C_6  and  C_18
    4  A    between atoms: N_7  and  C_35
    5  A    between atoms: N_7  and  C_39
    6  A    between atoms: N_7  and  C_43
    7  A    between atoms: N_9  and  C_17
    8  A    between atoms: C_10  and  N_40
    9  A    between atoms: C_11  and  C_18
   10  A    between atoms: C_12  and  C_42
   11  A    between atoms: C_15  and  C_36
   12  A    between atoms: C_17  and  C_33
   13  A    between atoms: C_18  and  O_32
   14  A    between atoms: C_20  and  C_39
   15  A    between atoms: O_32  and  C_43
                            x       y       z     vdW  Elec       q    Type
                         _______ _______ _______ _____ _____    ______ ____

>  <TORSDO>
F 15

$$$$
=
 OpenBabel11052411403D

 43 46  0  0  1  0  0  0  0  0999 V2000
  161.1480  208.1390  152.5950 C   0  0  0  0  0  0  0  0  0  0  0  0
  160.9070  205.3770  152.2280 N   0  0  0  0  0  0  0  0  0  0  0  0
  161.5490  208.4640  150.3120 N   0  0  0  0  0  0  0  0  0  0  0  0
  161.7850  206.6690  148.8060 C   0  0  0  0  0  0  0  0  0  0  0  0
  160.9680  205.8770  153.4050 N   0  0  0  0  0  0  0  0  0  0  0  0
  161.0330  206.2190  151.0780 C   0  0  0  0  0  0  0  0  0  0  0  0
  160.7570  207.6830  151.2440 C   0  0  1  0  0  3  0  0  0  0  0  0
  161.4500  205.7360  149.9050 C   0  0  0  0  0  3  0  0  0  0  0  0
  161.8830  207.9470  149.0470 N   0  0  0  0  0  0  0  0  0  0  0  0
  161.7320  209.8290  152.6220 S   0  0  0  0  0  0  0  0  0  0  0  0
  161.2060  207.2820  153.6290 C   0  0  0  0  0  0  0  0  0  0  0  0
  162.1630  209.6790  150.8400 C   0  0  2  0  0  3  0  0  0  0  0  0
  161.5830  207.7420  154.9940 C   0  0  0  0  0  1  0  0  0  0  0  0
  161.6960  210.8730  150.0760 C   0  0  0  0  0  0  0  0  0  0  0  0
  161.0870  211.8080  150.6640 O   0  0  0  0  0  0  0  0  0  0  0  0
  161.9060  210.9200  148.6630 N   0  0  0  0  0  2  0  0  0  0  0  0
  161.5030  212.0530  147.8440 C   0  0  0  0  0  2  0  0  0  0  0  0
  162.6180  213.7250  146.2710 N   0  0  0  0  0  2  0  0  0  0  0  0
  162.7070  212.7910  147.3510 C   0  0  0  0  0  0  0  0  0  0  0  0
  163.8250  212.5690  147.8840 O   0  0  0  0  0  0  0  0  0  0  0  0
  161.3670  214.0640  145.6070 C   0  0  0  0  0  2  0  0  0  0  0  0
  162.6790  213.0260  143.7570 C   0  0  0  0  0  1  0  0  0  0  0  0
  161.2950  213.4180  144.2330 C   0  0  1  0  0  3  0  0  0  0  0  0
  160.4580  212.2360  144.2970 N   0  0  0  0  0  1  0  0  0  0  0  0
  162.1680  206.1190  147.4640 C   0  0  1  0  0  3  0  0  0  0  0  0
  163.6170  205.6400  147.5440 C   0  0  0  0  0  1  0  0  0  0  0  0
  161.2590  205.0370  147.0390 N   0  0  0  0  0  0  0  0  0  0  0  0
  159.6330  205.4390  145.2540 C   0  0  0  0  0  2  0  0  0  0  0  0
  160.6820  206.5220  145.1870 C   0  0  0  0  0  2  0  0  0  0  0  0
  161.0810  205.1100  145.5870 C   0  0  0  0  0  3  0  0  0  0  0  0
  161.9200  203.7590  147.2920 C   0  0  0  0  0  2  0  0  0  0  0  0
  161.6840  202.8940  146.2210 O   0  0  0  0  0  0  0  0  0  0  0  0
  160.6560  202.0530  146.6590 C   0  0  1  0  0  3  0  0  0  0  0  0
  158.5800  201.3120  145.7500 F   0  0  0  0  0  0  0  0  0  0  0  0
  159.9280  201.4320  145.4670 C   0  0  0  0  0  0  0  0  0  0  0  0
  160.4470  200.1810  145.1800 F   0  0  0  0  0  0  0  0  0  0  0  0
  160.0780  202.2470  144.3620 F   0  0  0  0  0  0  0  0  0  0  0  0
  161.9320  200.0830  147.1350 O   0  0  0  0  0  0  0  0  0  0  0  0
  161.2070  201.0080  147.5890 C   0  0  0  0  0  0  0  0  0  0  0  0
  160.9140  201.0440  148.9860 N   0  0  0  0  0  2  0  0  0  0  0  0
  160.0770  202.0720  149.5830 C   0  0  0  0  0  2  0  0  0  0  0  0
  161.9440  201.9800  151.2230 C   0  0  0  0  0  1  0  0  0  0  0  0
  160.4720  202.2870  151.0320 C   0  0  0  0  0  2  0  0  0  0  0  0
  1 10  1  0  0  0  0
  1 11  2  0  0  0  0
  2  5  2  0  0  0  0
  3 12  1  0  0  0  0
  3  7  1  0  0  0  0
  4  9  2  0  0  0  0
  4  8  1  0  0  0  0
  5 11  1  0  0  0  0
  6  2  1  0  0  0  0
  7  6  1  1  0  0  0
  7  1  1  0  0  0  0
  8  6  2  0  0  0  0
  9  3  1  0  0  0  0
 11 13  1  0  0  0  0
 12 14  1  6  0  0  0
 12 10  1  0  0  0  0
 14 15  2  0  0  0  0
 16 14  1  0  0  0  0
 17 16  1  0  0  0  0
 18 19  1  0  0  0  0
 19 17  1  0  0  0  0
 19 20  2  0  0  0  0
 21 18  1  0  0  0  0
 23 22  1  1  0  0  0
 23 24  1  0  0  0  0
 23 21  1  0  0  0  0
 25 26  1  1  0  0  0
 25  4  1  0  0  0  0
 27 31  1  0  0  0  0
 27 25  1  0  0  0  0
 28 30  1  0  0  0  0
 29 28  1  0  0  0  0
 29 30  1  0  0  0  0
 30 27  1  0  0  0  0
 32 31  1  0  0  0  0
 33 32  1  6  0  0  0
 33 39  1  0  0  0  0
 35 34  1  0  0  0  0
 35 33  1  0  0  0  0
 36 35  1  0  0  0  0
 37 35  1  0  0  0  0
 38 39  2  0  0  0  0
 39 40  1  0  0  0  0
 40 41  1  0  0  0  0
 41 43  1  0  0  0  0
 43 42  1  0  0  0  0
M  END
>  <MODEL>
8

>  <REMARK>
 VINA RESULT:      -5.0      5.112      8.865
  Name = 
  15 active torsions:
  status: ('A' for Active; 'I' for Inactive)
    1  A    between atoms: N_1  and  C_42
    2  A    between atoms: C_2  and  C_10
    3  A    between atoms: C_6  and  C_18
    4  A    between atoms: N_7  and  C_35
    5  A    between atoms: N_7  and  C_39
    6  A    between atoms: N_7  and  C_43
    7  A    between atoms: N_9  and  C_17
    8  A    between atoms: C_10  and  N_40
    9  A    between atoms: C_11  and  C_18
   10  A    between atoms: C_12  and  C_42
   11  A    between atoms: C_15  and  C_36
   12  A    between atoms: C_17  and  C_33
   13  A    between atoms: C_18  and  O_32
   14  A    between atoms: C_20  and  C_39
   15  A    between atoms: O_32  and  C_43
                            x       y       z     vdW  Elec       q    Type
                         _______ _______ _______ _____ _____    ______ ____

>  <TORSDO>
F 15

$$$$
=
 OpenBabel11052411403D

 43 46  0  0  1  0  0  0  0  0999 V2000
  161.7640  208.6580  149.9450 C   0  0  0  0  0  0  0  0  0  0  0  0
  161.5810  211.2900  150.8720 N   0  0  0  0  0  0  0  0  0  0  0  0
  161.5180  207.8170  152.1160 N   0  0  0  0  0  0  0  0  0  0  0  0
  161.4360  209.2170  154.0080 C   0  0  0  0  0  0  0  0  0  0  0  0
  161.9290  211.0460  149.6650 N   0  0  0  0  0  0  0  0  0  0  0  0
  161.3480  210.2170  151.7890 C   0  0  0  0  0  0  0  0  0  0  0  0
  161.0480  208.8610  151.2240 C   0  0  1  0  0  3  0  0  0  0  0  0
  161.4590  210.3920  153.1080 C   0  0  0  0  0  3  0  0  0  0  0  0
  161.5270  208.0160  153.5090 N   0  0  0  0  0  0  0  0  0  0  0  0
  162.2420  206.9570  149.6730 S   0  0  0  0  0  0  0  0  0  0  0  0
  162.1430  209.7010  149.1870 C   0  0  0  0  0  0  0  0  0  0  0  0
  162.1850  206.6800  151.4910 C   0  0  2  0  0  3  0  0  0  0  0  0
  162.8470  209.4990  147.8920 C   0  0  0  0  0  1  0  0  0  0  0  0
  161.4670  205.4120  151.8150 C   0  0  0  0  0  0  0  0  0  0  0  0
  161.3180  205.0530  153.0150 O   0  0  0  0  0  0  0  0  0  0  0  0
  160.9920  204.5900  150.7470 N   0  0  0  0  0  2  0  0  0  0  0  0
  160.2630  203.3500  150.9720 C   0  0  0  0  0  2  0  0  0  0  0  0
  161.2030  201.3350  149.7180 N   0  0  0  0  0  2  0  0  0  0  0  0
  161.1900  202.1800  150.8740 C   0  0  0  0  0  0  0  0  0  0  0  0
  161.9580  201.9200  151.8360 O   0  0  0  0  0  0  0  0  0  0  0  0
  160.3680  201.5680  148.5480 C   0  0  0  0  0  2  0  0  0  0  0  0
  160.5420  201.7030  146.0630 C   0  0  0  0  0  1  0  0  0  0  0  0
  161.2080  202.0550  147.3770 C   0  0  1  0  0  3  0  0  0  0  0  0
  161.3680  203.4930  147.4630 N   0  0  0  0  0  1  0  0  0  0  0  0
  161.4740  209.4270  155.4930 C   0  0  1  0  0  3  0  0  0  0  0  0
  162.2430  210.7170  155.7710 C   0  0  0  0  0  1  0  0  0  0  0  0
  160.1170  209.4650  156.0720 N   0  0  0  0  0  0  0  0  0  0  0  0
  159.7510  207.1790  156.8650 C   0  0  0  0  0  2  0  0  0  0  0  0
  161.1800  207.5570  157.1690 C   0  0  0  0  0  2  0  0  0  0  0  0
  160.0850  208.6100  157.2610 C   0  0  0  0  0  3  0  0  0  0  0  0
  159.8640  210.8200  156.5550 C   0  0  0  0  0  2  0  0  0  0  0  0
  158.5050  210.9650  156.8440 O   0  0  0  0  0  0  0  0  0  0  0  0
  157.9590  211.5680  155.7080 C   0  0  1  0  0  3  0  0  0  0  0  0
  156.0180  210.2950  155.1590 F   0  0  0  0  0  0  0  0  0  0  0  0
  156.4330  211.4810  155.7380 C   0  0  0  0  0  0  0  0  0  0  0  0
  155.8720  212.5440  155.0520 F   0  0  0  0  0  0  0  0  0  0  0  0
  155.9970  211.5090  157.0490 F   0  0  0  0  0  0  0  0  0  0  0  0
  158.5010  213.7120  156.6290 O   0  0  0  0  0  0  0  0  0  0  0  0
  158.4380  212.9890  155.5990 C   0  0  0  0  0  0  0  0  0  0  0  0
  158.8190  213.5370  154.3370 N   0  0  0  0  0  2  0  0  0  0  0  0
  158.7630  212.7700  153.1020 C   0  0  0  0  0  2  0  0  0  0  0  0
  158.2090  213.3350  150.7450 C   0  0  0  0  0  1  0  0  0  0  0  0
  159.1040  213.6610  151.9230 C   0  0  0  0  0  2  0  0  0  0  0  0
  2  6  1  0  0  0  0
  3  9  1  0  0  0  0
  4 25  1  0  0  0  0
  5  2  2  0  0  0  0
  6  8  2  0  0  0  0
  7  1  1  6  0  0  0
  7  6  1  0  0  0  0
  7  3  1  0  0  0  0
  8  4  1  0  0  0  0
  9  4  2  0  0  0  0
 10  1  1  0  0  0  0
 10 12  1  0  0  0  0
 11  5  1  0  0  0  0
 11  1  2  0  0  0  0
 12 14  1  6  0  0  0
 12  3  1  0  0  0  0
 13 11  1  0  0  0  0
 14 15  2  0  0  0  0
 16 17  1  0  0  0  0
 16 14  1  0  0  0  0
 18 19  1  0  0  0  0
 19 17  1  0  0  0  0
 19 20  2  0  0  0  0
 21 18  1  0  0  0  0
 23 22  1  6  0  0  0
 23 24  1  0  0  0  0
 23 21  1  0  0  0  0
 25 26  1  6  0  0  0
 25 27  1  0  0  0  0
 27 31  1  0  0  0  0
 27 30  1  0  0  0  0
 28 29  1  0  0  0  0
 28 30  1  0  0  0  0
 29 30  1  0  0  0  0
 31 32  1  0  0  0  0
 33 39  1  1  0  0  0
 33 35  1  0  0  0  0
 33 32  1  0  0  0  0
 34 35  1  0  0  0  0
 35 37  1  0  0  0  0
 36 35  1  0  0  0  0
 39 38  2  0  0  0  0
 40 39  1  0  0  0  0
 41 40  1  0  0  0  0
 42 43  1  0  0  0  0
 43 41  1  0  0  0  0
M  END
>  <MODEL>
9

>  <REMARK>
 VINA RESULT:      -4.9      2.469      5.589
  Name = 
  15 active torsions:
  status: ('A' for Active; 'I' for Inactive)
    1  A    between atoms: N_1  and  C_42
    2  A    between atoms: C_2  and  C_10
    3  A    between atoms: C_6  and  C_18
    4  A    between atoms: N_7  and  C_35
    5  A    between atoms: N_7  and  C_39
    6  A    between atoms: N_7  and  C_43
    7  A    between atoms: N_9  and  C_17
    8  A    between atoms: C_10  and  N_40
    9  A    between atoms: C_11  and  C_18
   10  A    between atoms: C_12  and  C_42
   11  A    between atoms: C_15  and  C_36
   12  A    between atoms: C_17  and  C_33
   13  A    between atoms: C_18  and  O_32
   14  A    between atoms: C_20  and  C_39
   15  A    between atoms: O_32  and  C_43
                            x       y       z     vdW  Elec       q    Type
                         _______ _______ _______ _____ _____    ______ ____

>  <TORSDO>
F 15

$$$$
