=
 OpenBabel11042420263D

 31 35  0  0  1  0  0  0  0  0999 V2000
  161.2850  209.9350  155.5360 C   0  0  2  0  0  3  0  0  0  0  0  0
  160.1470  206.6740  156.9910 C   0  0  0  0  0  1  0  0  0  0  0  0
  161.2600  207.9390  151.9810 C   0  0  0  0  0  0  0  0  0  0  0  0
  161.5450  210.1190  153.1350 C   0  0  0  0  0  0  0  0  0  0  0  0
  160.4350  208.0670  156.5540 C   0  0  0  0  0  0  0  0  0  0  0  0
  161.7470  210.0770  150.6740 C   0  0  0  0  0  0  0  0  0  0  0  0
  161.4630  208.4360  155.5360 C   0  0  1  0  0  3  0  0  0  0  0  0
  160.4200  210.2550  156.4880 C   0  0  2  0  0  3  0  0  0  0  0  0
  161.5140  208.5940  150.6800 C   0  0  0  0  0  0  0  0  0  0  0  0
  161.1170  206.6510  153.8200 N   0  0  0  0  0  0  0  0  0  0  0  0
  161.5570  207.9360  149.6090 O   0  0  0  0  0  0  0  0  0  0  0  0
  161.1370  206.6250  152.4570 C   0  0  0  0  0  0  0  0  0  0  0  0
  161.5280  210.7540  154.3160 C   0  0  0  0  0  3  0  0  0  0  0  0
  159.8940  209.0960  157.1210 N   0  0  0  0  0  0  0  0  0  0  0  0
  161.2810  208.6850  153.1080 C   0  0  0  0  0  0  0  0  0  0  0  0
  161.7630  210.7840  151.8340 C   0  0  0  0  0  3  0  0  0  0  0  0
  159.8150  211.6060  156.6670 C   0  0  0  0  0  1  0  0  0  0  0  0
  161.1720  207.9210  154.1960 N   0  0  0  0  0  0  0  0  0  0  0  0
  160.9330  202.9660  150.3020 N   0  0  0  0  0  0  0  0  0  0  0  0
  160.8520  205.3520  150.3090 C   0  0  0  0  0  3  0  0  0  0  0  0
  160.7820  204.1360  149.6260 C   0  0  0  0  0  3  0  0  0  0  0  0
  161.2240  204.1420  152.3590 C   0  0  0  0  0  3  0  0  0  0  0  0
  161.1490  202.9450  151.6450 C   0  0  0  0  0  3  0  0  0  0  0  0
  161.0840  205.3640  151.6880 C   0  0  0  0  0  0  0  0  0  0  0  0
  161.9700  210.7530  149.3820 C   0  0  0  0  0  3  0  0  0  0  0  0
  161.7730  212.0540  149.1980 C   0  0  0  0  0  3  0  0  0  0  0  0
  162.0670  212.7890  147.5970 P   0  0  1  0  0  0  0  0  0  0  0  0
  162.0180  214.2970  147.7250 O   0  0  0  0  0  1  0  0  0  0  0  0
  163.5950  212.3170  147.0430 O   0  0  0  0  0  0  0  0  0  0  0  0
  159.6650  212.7580  147.0320 C   0  0  0  0  0  1  0  0  0  0  0  0
  160.8670  212.2600  146.5230 O   0  0  0  0  0  0  0  0  0  0  0  0
  1 13  1  6  0  0  0
  1  7  1  0  0  0  0
  1  8  1  0  0  0  0
  3 12  1  0  0  0  0
  3 15  2  0  0  0  0
  4 13  2  0  0  0  0
  5  2  1  0  0  0  0
  5 14  2  0  0  0  0
  6  9  1  0  0  0  0
  6 16  2  0  0  0  0
  7  5  1  1  0  0  0
  8 17  1  6  0  0  0
  8 14  1  0  0  0  0
  9  3  1  0  0  0  0
 10 18  1  0  0  0  0
 11  9  2  0  0  0  0
 12 10  2  0  0  0  0
 15  4  1  0  0  0  0
 15 18  1  0  0  0  0
 16  4  1  0  0  0  0
 18  7  1  0  0  0  0
 19 23  1  0  0  0  0
 20 24  2  0  0  0  0
 21 19  2  0  0  0  0
 21 20  1  0  0  0  0
 23 22  2  0  0  0  0
 24 22  1  0  0  0  0
 24 12  1  0  0  0  0
 25  6  1  0  0  0  0
 26 25  2  0  0  0  0
 27 29  2  6  0  0  0
 27 28  1  0  0  0  0
 27 26  1  0  0  0  0
 31 30  1  0  0  0  0
 31 27  1  0  0  0  0
M  END
>  <MODEL>
1

>  <REMARK>
 VINA RESULT:      -7.9      0.000      0.000
  Name = 
  4 active torsions:
  status: ('A' for Active; 'I' for Inactive)
    1  A    between atoms: P_3  and  C_17
    2  A    between atoms: P_3  and  O_31
    3  A    between atoms: C_8  and  C_14
    4  A    between atoms: C_20  and  C_29
                            x       y       z     vdW  Elec       q    Type
                         _______ _______ _______ _____ _____    ______ ____

>  <TORSDO>
F 4

$$$$
=
 OpenBabel11042420263D

 31 35  0  0  1  0  0  0  0  0999 V2000
  161.8440  205.1090  149.8480 C   0  0  2  0  0  3  0  0  0  0  0  0
  162.1300  205.8390  146.1830 C   0  0  0  0  0  1  0  0  0  0  0  0
  161.5090  209.1520  150.2540 C   0  0  0  0  0  0  0  0  0  0  0  0
  161.4200  206.9390  151.3770 C   0  0  0  0  0  0  0  0  0  0  0  0
  161.8720  205.3730  147.5720 C   0  0  0  0  0  0  0  0  0  0  0  0
  160.9940  208.9500  152.7470 C   0  0  0  0  0  0  0  0  0  0  0  0
  162.4520  206.0040  148.7950 C   0  0  1  0  0  3  0  0  0  0  0  0
  161.1940  204.1270  149.2400 C   0  0  2  0  0  3  0  0  0  0  0  0
  161.2200  209.8180  151.5430 C   0  0  0  0  0  0  0  0  0  0  0  0
  162.2260  208.4330  148.2470 N   0  0  0  0  0  0  0  0  0  0  0  0
  161.1820  211.0710  151.6420 O   0  0  0  0  0  0  0  0  0  0  0  0
  161.9060  209.5450  148.9680 C   0  0  0  0  0  0  0  0  0  0  0  0
  161.5160  205.6120  151.2100 C   0  0  0  0  0  3  0  0  0  0  0  0
  161.2130  204.2890  147.8270 N   0  0  0  0  0  0  0  0  0  0  0  0
  161.5940  207.8030  150.2150 C   0  0  0  0  0  0  0  0  0  0  0  0
  161.0930  207.5980  152.6580 C   0  0  0  0  0  3  0  0  0  0  0  0
  160.2820  203.1630  149.9190 C   0  0  0  0  0  1  0  0  0  0  0  0
  161.9960  207.3790  149.0170 N   0  0  0  0  0  0  0  0  0  0  0  0
  162.2110  213.4950  147.4240 N   0  0  0  0  0  0  0  0  0  0  0  0
  163.2610  211.5840  148.3970 C   0  0  0  0  0  3  0  0  0  0  0  0
  163.3320  212.8830  147.8910 C   0  0  0  0  0  3  0  0  0  0  0  0
  160.8950  211.5700  147.9390 C   0  0  0  0  0  3  0  0  0  0  0  0
  161.0030  212.8690  147.4400 C   0  0  0  0  0  3  0  0  0  0  0  0
  162.0350  210.9110  148.4160 C   0  0  0  0  0  0  0  0  0  0  0  0
  160.6720  209.5940  154.0330 C   0  0  0  0  0  3  0  0  0  0  0  0
  161.5440  210.3240  154.7200 C   0  0  0  0  0  3  0  0  0  0  0  0
  161.0680  211.0680  156.2720 P   0  0  1  0  0  0  0  0  0  0  0  0
  160.3940  212.3960  156.0020 O   0  0  0  0  0  0  0  0  0  0  0  0
  159.9900  210.0370  157.0730 O   0  0  0  0  0  1  0  0  0  0  0  0
  163.0930  210.0610  157.2610 C   0  0  0  0  0  1  0  0  0  0  0  0
  162.4580  211.3040  157.2150 O   0  0  0  0  0  0  0  0  0  0  0  0
  1 13  1  6  0  0  0
  2  5  1  0  0  0  0
  3  9  1  0  0  0  0
  4 16  1  0  0  0  0
  5 14  2  0  0  0  0
  6 25  1  0  0  0  0
  7  5  1  6  0  0  0
  7 18  1  0  0  0  0
  7  1  1  0  0  0  0
  8  1  1  0  0  0  0
  8 17  1  1  0  0  0
  9 11  2  0  0  0  0
  9  6  1  0  0  0  0
 10 12  2  0  0  0  0
 10 18  1  0  0  0  0
 12  3  1  0  0  0  0
 13  4  2  0  0  0  0
 14  8  1  0  0  0  0
 15  3  2  0  0  0  0
 15  4  1  0  0  0  0
 16  6  2  0  0  0  0
 18 15  1  0  0  0  0
 19 23  2  0  0  0  0
 19 21  1  0  0  0  0
 20 24  1  0  0  0  0
 21 20  2  0  0  0  0
 22 24  2  0  0  0  0
 23 22  1  0  0  0  0
 24 12  1  0  0  0  0
 25 26  2  0  0  0  0
 26 27  1  0  0  0  0
 27 28  2  6  0  0  0
 27 29  1  0  0  0  0
 27 31  1  0  0  0  0
 31 30  1  0  0  0  0
M  END
>  <MODEL>
2

>  <REMARK>
 VINA RESULT:      -7.5      3.984      7.790
  Name = 
  4 active torsions:
  status: ('A' for Active; 'I' for Inactive)
    1  A    between atoms: P_3  and  C_17
    2  A    between atoms: P_3  and  O_31
    3  A    between atoms: C_8  and  C_14
    4  A    between atoms: C_20  and  C_29
                            x       y       z     vdW  Elec       q    Type
                         _______ _______ _______ _____ _____    ______ ____

>  <TORSDO>
F 4

$$$$
=
 OpenBabel11042420263D

 31 35  0  0  1  0  0  0  0  0999 V2000
  161.8270  206.6600  153.0450 C   0  0  2  0  0  3  0  0  0  0  0  0
  160.9330  203.1810  151.9750 C   0  0  0  0  0  1  0  0  0  0  0  0
  161.6100  207.5460  149.0710 C   0  0  0  0  0  0  0  0  0  0  0  0
  161.8950  208.4170  151.3790 C   0  0  0  0  0  0  0  0  0  0  0  0
  161.1310  204.5280  152.5750 C   0  0  0  0  0  0  0  0  0  0  0  0
  161.9110  210.0410  149.5190 C   0  0  0  0  0  0  0  0  0  0  0  0
  162.0640  205.5620  152.0360 C   0  0  1  0  0  3  0  0  0  0  0  0
  161.0240  206.1940  153.9920 C   0  0  2  0  0  3  0  0  0  0  0  0
  161.7380  208.9190  148.5370 C   0  0  0  0  0  0  0  0  0  0  0  0
  161.6590  205.3550  149.5770 N   0  0  0  0  0  0  0  0  0  0  0  0
  161.7260  209.1470  147.3000 O   0  0  0  0  0  0  0  0  0  0  0  0
  161.5770  206.2440  148.5480 C   0  0  0  0  0  0  0  0  0  0  0  0
  161.9430  208.0990  152.6810 C   0  0  0  0  0  3  0  0  0  0  0  0
  160.5940  204.8690  153.7010 N   0  0  0  0  0  0  0  0  0  0  0  0
  161.6870  207.3500  150.4070 C   0  0  0  0  0  0  0  0  0  0  0  0
  161.9860  209.7940  150.8520 C   0  0  0  0  0  3  0  0  0  0  0  0
  160.3810  207.0270  155.0470 C   0  0  0  0  0  1  0  0  0  0  0  0
  161.6920  206.0500  150.7050 N   0  0  0  0  0  0  0  0  0  0  0  0
  161.4110  204.9370  144.5060 N   0  0  0  0  0  0  0  0  0  0  0  0
  160.5010  206.2560  146.2770 C   0  0  0  0  0  3  0  0  0  0  0  0
  160.4660  205.8050  144.9560 C   0  0  0  0  0  3  0  0  0  0  0  0
  162.4690  204.9150  146.6460 C   0  0  0  0  0  3  0  0  0  0  0  0
  162.4030  204.4860  145.3190 C   0  0  0  0  0  3  0  0  0  0  0  0
  161.5150  205.8170  147.1340 C   0  0  0  0  0  0  0  0  0  0  0  0
  162.0080  211.4200  149.0060 C   0  0  0  0  0  3  0  0  0  0  0  0
  161.1990  211.9080  148.0710 C   0  0  0  0  0  3  0  0  0  0  0  0
  161.3890  213.5920  147.5080 P   0  0  1  0  0  0  0  0  0  0  0  0
  160.3190  214.4530  148.1430 O   0  0  0  0  0  1  0  0  0  0  0  0
  162.9180  214.1590  147.9630 O   0  0  0  0  0  0  0  0  0  0  0  0
  162.5200  213.4060  145.3220 C   0  0  0  0  0  1  0  0  0  0  0  0
  161.2330  213.6250  145.8200 O   0  0  0  0  0  0  0  0  0  0  0  0
  1 13  1  6  0  0  0
  1  8  1  0  0  0  0
  2  5  1  0  0  0  0
  3 15  2  0  0  0  0
  4 13  2  0  0  0  0
  5 14  2  0  0  0  0
  6 16  2  0  0  0  0
  7  5  1  1  0  0  0
  7  1  1  0  0  0  0
  8 17  1  6  0  0  0
  9  3  1  0  0  0  0
  9  6  1  0  0  0  0
 10 18  1  0  0  0  0
 11  9  2  0  0  0  0
 12  3  1  0  0  0  0
 12 10  2  0  0  0  0
 14  8  1  0  0  0  0
 15 18  1  0  0  0  0
 15  4  1  0  0  0  0
 16  4  1  0  0  0  0
 18  7  1  0  0  0  0
 19 21  2  0  0  0  0
 19 23  1  0  0  0  0
 20 24  2  0  0  0  0
 21 20  1  0  0  0  0
 22 24  1  0  0  0  0
 23 22  2  0  0  0  0
 24 12  1  0  0  0  0
 25  6  1  0  0  0  0
 26 25  2  0  0  0  0
 27 29  2  1  0  0  0
 27 26  1  0  0  0  0
 27 28  1  0  0  0  0
 30 31  1  0  0  0  0
 31 27  1  0  0  0  0
M  END
>  <MODEL>
3

>  <REMARK>
 VINA RESULT:      -7.4      2.504      3.964
  Name = 
  4 active torsions:
  status: ('A' for Active; 'I' for Inactive)
    1  A    between atoms: P_3  and  C_17
    2  A    between atoms: P_3  and  O_31
    3  A    between atoms: C_8  and  C_14
    4  A    between atoms: C_20  and  C_29
                            x       y       z     vdW  Elec       q    Type
                         _______ _______ _______ _____ _____    ______ ____

>  <TORSDO>
F 4

$$$$
=
 OpenBabel11042420263D

 31 35  0  0  1  0  0  0  0  0999 V2000
  161.8670  205.3060  149.9760 C   0  0  2  0  0  3  0  0  0  0  0  0
  161.9500  205.9340  146.2820 C   0  0  0  0  0  1  0  0  0  0  0  0
  161.5390  209.3580  150.2880 C   0  0  0  0  0  0  0  0  0  0  0  0
  161.5190  207.1770  151.4740 C   0  0  0  0  0  0  0  0  0  0  0  0
  161.7690  205.5060  147.6960 C   0  0  0  0  0  0  0  0  0  0  0  0
  161.1610  209.2240  152.8090 C   0  0  0  0  0  0  0  0  0  0  0  0
  162.4130  206.1720  148.8670 C   0  0  1  0  0  3  0  0  0  0  0  0
  161.1880  204.3060  149.4320 C   0  0  2  0  0  3  0  0  0  0  0  0
  161.3180  210.0580  151.5710 C   0  0  0  0  0  0  0  0  0  0  0  0
  162.1480  208.5850  148.2650 N   0  0  0  0  0  0  0  0  0  0  0  0
  161.2810  211.3140  151.6380 O   0  0  0  0  0  0  0  0  0  0  0  0
  161.8640  209.7160  148.9710 C   0  0  0  0  0  0  0  0  0  0  0  0
  161.6120  205.8450  151.3400 C   0  0  0  0  0  3  0  0  0  0  0  0
  161.1300  204.4280  148.0160 N   0  0  0  0  0  0  0  0  0  0  0  0
  161.6270  208.0080  150.2820 C   0  0  0  0  0  0  0  0  0  0  0  0
  161.2600  207.8700  152.7530 C   0  0  0  0  0  3  0  0  0  0  0  0
  160.3180  203.3590  150.1860 C   0  0  0  0  0  1  0  0  0  0  0  0
  161.9640  207.5520  149.0750 N   0  0  0  0  0  0  0  0  0  0  0  0
  162.0610  213.6170  147.2940 N   0  0  0  0  0  0  0  0  0  0  0  0
  163.1340  211.8200  148.4430 C   0  0  0  0  0  3  0  0  0  0  0  0
  163.1690  213.1010  147.8910 C   0  0  0  0  0  3  0  0  0  0  0  0
  160.8290  211.6280  147.7640 C   0  0  0  0  0  3  0  0  0  0  0  0
  160.9010  212.9120  147.2220 C   0  0  0  0  0  3  0  0  0  0  0  0
  161.9580  211.0650  148.3760 C   0  0  0  0  0  0  0  0  0  0  0  0
  160.9070  209.9030  154.0930 C   0  0  0  0  0  3  0  0  0  0  0  0
  159.6910  210.2500  154.5050 C   0  0  0  0  0  3  0  0  0  0  0  0
  159.4760  211.0720  156.0750 P   0  0  1  0  0  0  0  0  0  0  0  0
  159.8940  210.1360  157.1890 O   0  0  0  0  0  1  0  0  0  0  0  0
  160.4420  212.4620  156.1110 O   0  0  0  0  0  0  0  0  0  0  0  0
  157.3060  211.4570  154.9650 C   0  0  0  0  0  1  0  0  0  0  0  0
  157.8430  211.4920  156.2540 O   0  0  0  0  0  0  0  0  0  0  0  0
  1 13  1  1  0  0  0
  2  5  1  0  0  0  0
  3  9  1  0  0  0  0
  4 16  1  0  0  0  0
  5 14  2  0  0  0  0
  6 25  1  0  0  0  0
  7  5  1  6  0  0  0
  7 18  1  0  0  0  0
  7  1  1  0  0  0  0
  8  1  1  0  0  0  0
  8 17  1  1  0  0  0
  9 11  2  0  0  0  0
  9  6  1  0  0  0  0
 10 12  2  0  0  0  0
 10 18  1  0  0  0  0
 12  3  1  0  0  0  0
 13  4  2  0  0  0  0
 14  8  1  0  0  0  0
 15  3  2  0  0  0  0
 15  4  1  0  0  0  0
 16  6  2  0  0  0  0
 18 15  1  0  0  0  0
 19 21  1  0  0  0  0
 21 20  2  0  0  0  0
 22 24  2  0  0  0  0
 23 19  2  0  0  0  0
 23 22  1  0  0  0  0
 24 20  1  0  0  0  0
 24 12  1  0  0  0  0
 25 26  2  0  0  0  0
 26 27  1  0  0  0  0
 27 29  2  1  0  0  0
 27 31  1  0  0  0  0
 27 28  1  0  0  0  0
 30 31  1  0  0  0  0
M  END
>  <MODEL>
4

>  <REMARK>
 VINA RESULT:      -7.3      4.045      7.643
  Name = 
  4 active torsions:
  status: ('A' for Active; 'I' for Inactive)
    1  A    between atoms: P_3  and  C_17
    2  A    between atoms: P_3  and  O_31
    3  A    between atoms: C_8  and  C_14
    4  A    between atoms: C_20  and  C_29
                            x       y       z     vdW  Elec       q    Type
                         _______ _______ _______ _____ _____    ______ ____

>  <TORSDO>
F 4

$$$$
=
 OpenBabel11042420263D

 31 35  0  0  1  0  0  0  0  0999 V2000
  161.8710  204.9840  149.7100 C   0  0  2  0  0  3  0  0  0  0  0  0
  162.0100  205.8290  146.0610 C   0  0  0  0  0  1  0  0  0  0  0  0
  161.5160  209.0100  150.2540 C   0  0  0  0  0  0  0  0  0  0  0  0
  161.4890  206.7630  151.3100 C   0  0  0  0  0  0  0  0  0  0  0  0
  161.8090  205.3180  147.4440 C   0  0  0  0  0  0  0  0  0  0  0  0
  161.0980  208.7260  152.7560 C   0  0  0  0  0  0  0  0  0  0  0  0
  162.4290  205.9170  148.6630 C   0  0  1  0  0  3  0  0  0  0  0  0
  161.2060  204.0150  149.0970 C   0  0  2  0  0  3  0  0  0  0  0  0
  161.2700  209.6330  151.5720 C   0  0  0  0  0  0  0  0  0  0  0  0
  162.1610  208.3590  148.1990 N   0  0  0  0  0  0  0  0  0  0  0  0
  161.2260  210.8820  151.7120 O   0  0  0  0  0  0  0  0  0  0  0  0
  161.8600  209.4460  148.9660 C   0  0  0  0  0  0  0  0  0  0  0  0
  161.5910  205.4420  151.0990 C   0  0  0  0  0  3  0  0  0  0  0  0
  161.1700  204.2210  147.6900 N   0  0  0  0  0  0  0  0  0  0  0  0
  161.6110  207.6630  150.1700 C   0  0  0  0  0  0  0  0  0  0  0  0
  161.2060  207.3790  152.6220 C   0  0  0  0  0  3  0  0  0  0  0  0
  160.3290  203.0220  149.7810 C   0  0  0  0  0  1  0  0  0  0  0  0
  161.9700  207.2800  148.9440 N   0  0  0  0  0  0  0  0  0  0  0  0
  162.2040  213.4020  147.4490 N   0  0  0  0  0  0  0  0  0  0  0  0
  160.8560  211.4810  147.8860 C   0  0  0  0  0  3  0  0  0  0  0  0
  160.9980  212.7780  147.3880 C   0  0  0  0  0  3  0  0  0  0  0  0
  163.1890  211.4930  148.4900 C   0  0  0  0  0  3  0  0  0  0  0  0
  163.2940  212.7900  147.9840 C   0  0  0  0  0  3  0  0  0  0  0  0
  161.9560  210.8290  148.4520 C   0  0  0  0  0  0  0  0  0  0  0  0
  160.8200  209.3280  154.0730 C   0  0  0  0  0  3  0  0  0  0  0  0
  161.7590  209.8820  154.8330 C   0  0  0  0  0  3  0  0  0  0  0  0
  161.3310  210.5870  156.4180 P   0  0  1  0  0  0  0  0  0  0  0  0
  160.5410  209.5730  157.2170 O   0  0  0  0  0  0  0  0  0  0  0  0
  162.7510  210.9820  157.2500 O   0  0  0  0  0  1  0  0  0  0  0  0
  159.0970  211.6270  156.5320 C   0  0  0  0  0  1  0  0  0  0  0  0
  160.3970  211.9780  156.1630 O   0  0  0  0  0  0  0  0  0  0  0  0
  1 13  1  1  0  0  0
  2  5  1  0  0  0  0
  3  9  1  0  0  0  0
  4 16  1  0  0  0  0
  5 14  2  0  0  0  0
  6 25  1  0  0  0  0
  7  5  1  6  0  0  0
  7 18  1  0  0  0  0
  7  1  1  0  0  0  0
  8  1  1  0  0  0  0
  8 17  1  1  0  0  0
  9 11  2  0  0  0  0
  9  6  1  0  0  0  0
 10 18  1  0  0  0  0
 10 12  2  0  0  0  0
 12  3  1  0  0  0  0
 13  4  2  0  0  0  0
 14  8  1  0  0  0  0
 15  3  2  0  0  0  0
 15  4  1  0  0  0  0
 16  6  2  0  0  0  0
 18 15  1  0  0  0  0
 19 23  1  0  0  0  0
 20 24  2  0  0  0  0
 21 19  2  0  0  0  0
 21 20  1  0  0  0  0
 23 22  2  0  0  0  0
 24 22  1  0  0  0  0
 24 12  1  0  0  0  0
 25 26  2  0  0  0  0
 26 27  1  0  0  0  0
 27 28  2  1  0  0  0
 27 29  1  0  0  0  0
 31 27  1  0  0  0  0
 31 30  1  0  0  0  0
M  END
>  <MODEL>
5

>  <REMARK>
 VINA RESULT:      -7.3      3.958      7.762
  Name = 
  4 active torsions:
  status: ('A' for Active; 'I' for Inactive)
    1  A    between atoms: P_3  and  C_17
    2  A    between atoms: P_3  and  O_31
    3  A    between atoms: C_8  and  C_14
    4  A    between atoms: C_20  and  C_29
                            x       y       z     vdW  Elec       q    Type
                         _______ _______ _______ _____ _____    ______ ____

>  <TORSDO>
F 4

$$$$
=
 OpenBabel11042420263D

 31 35  0  0  1  0  0  0  0  0999 V2000
  160.4850  208.3630  154.2550 C   0  0  2  0  0  3  0  0  0  0  0  0
  160.6490  212.0320  155.0040 C   0  0  0  0  0  1  0  0  0  0  0  0
  161.6220  209.4530  150.4940 C   0  0  0  0  0  0  0  0  0  0  0  0
  161.1590  207.5850  152.0620 C   0  0  0  0  0  0  0  0  0  0  0  0
  160.6940  210.5470  154.9160 C   0  0  0  0  0  0  0  0  0  0  0  0
  161.8850  207.0190  149.7700 C   0  0  0  0  0  0  0  0  0  0  0  0
  160.1630  209.7550  153.7670 C   0  0  1  0  0  3  0  0  0  0  0  0
  160.9630  208.4510  155.4880 C   0  0  2  0  0  3  0  0  0  0  0  0
  161.9410  208.4790  149.4270 C   0  0  0  0  0  0  0  0  0  0  0  0
  160.9330  211.1300  151.8250 N   0  0  0  0  0  0  0  0  0  0  0  0
  162.2310  208.8520  148.2610 O   0  0  0  0  0  0  0  0  0  0  0  0
  161.4190  210.8380  150.5860 C   0  0  0  0  0  0  0  0  0  0  0  0
  160.8010  207.2550  153.3120 C   0  0  0  0  0  3  0  0  0  0  0  0
  161.0900  209.8070  155.8990 N   0  0  0  0  0  0  0  0  0  0  0  0
  161.2620  208.9970  151.7150 C   0  0  0  0  0  0  0  0  0  0  0  0
  161.5130  206.6090  151.0110 C   0  0  0  0  0  3  0  0  0  0  0  0
  161.5970  207.3280  156.2360 C   0  0  0  0  0  1  0  0  0  0  0  0
  160.8760  209.9960  152.5090 N   0  0  0  0  0  0  0  0  0  0  0  0
  161.9900  213.8740  147.6650 N   0  0  0  0  0  0  0  0  0  0  0  0
  162.7000  211.8240  148.6620 C   0  0  0  0  0  3  0  0  0  0  0  0
  162.8690  212.8380  147.7160 C   0  0  0  0  0  3  0  0  0  0  0  0
  160.7380  212.9590  149.4800 C   0  0  0  0  0  3  0  0  0  0  0  0
  160.9370  213.9540  148.5220 C   0  0  0  0  0  3  0  0  0  0  0  0
  161.6220  211.8730  149.5500 C   0  0  0  0  0  0  0  0  0  0  0  0
  162.2310  206.0340  148.7290 C   0  0  0  0  0  3  0  0  0  0  0  0
  161.4430  205.7620  147.6930 C   0  0  0  0  0  3  0  0  0  0  0  0
  161.9420  204.5520  146.4790 P   0  0  1  0  0  0  0  0  0  0  0  0
  163.4330  204.6700  146.2420 O   0  0  0  0  0  0  0  0  0  0  0  0
  161.5810  203.0030  147.0580 O   0  0  0  0  0  1  0  0  0  0  0  0
  160.4560  206.0710  145.2240 C   0  0  0  0  0  1  0  0  0  0  0  0
  161.1020  204.8460  145.0360 O   0  0  0  0  0  0  0  0  0  0  0  0
  1 13  1  6  0  0  0
  1  8  1  0  0  0  0
  3 12  1  0  0  0  0
  3 15  2  0  0  0  0
  4 13  2  0  0  0  0
  5  2  1  0  0  0  0
  5 14  2  0  0  0  0
  6 16  2  0  0  0  0
  7  1  1  0  0  0  0
  7  5  1  1  0  0  0
  8 14  1  0  0  0  0
  8 17  1  6  0  0  0
  9  6  1  0  0  0  0
  9  3  1  0  0  0  0
 10 18  1  0  0  0  0
 11  9  2  0  0  0  0
 12 10  2  0  0  0  0
 15  4  1  0  0  0  0
 15 18  1  0  0  0  0
 16  4  1  0  0  0  0
 18  7  1  0  0  0  0
 19 21  2  0  0  0  0
 19 23  1  0  0  0  0
 20 24  2  0  0  0  0
 21 20  1  0  0  0  0
 22 24  1  0  0  0  0
 23 22  2  0  0  0  0
 24 12  1  0  0  0  0
 25  6  1  0  0  0  0
 26 25  2  0  0  0  0
 27 28  2  6  0  0  0
 27 29  1  0  0  0  0
 27 26  1  0  0  0  0
 31 30  1  0  0  0  0
 31 27  1  0  0  0  0
M  END
>  <MODEL>
6

>  <REMARK>
 VINA RESULT:      -7.2      3.279      6.084
  Name = 
  4 active torsions:
  status: ('A' for Active; 'I' for Inactive)
    1  A    between atoms: P_3  and  C_17
    2  A    between atoms: P_3  and  O_31
    3  A    between atoms: C_8  and  C_14
    4  A    between atoms: C_20  and  C_29
                            x       y       z     vdW  Elec       q    Type
                         _______ _______ _______ _____ _____    ______ ____

>  <TORSDO>
F 4

$$$$
=
 OpenBabel11042420263D

 31 35  0  0  1  0  0  0  0  0999 V2000
  160.4700  208.2980  154.4500 C   0  0  2  0  0  3  0  0  0  0  0  0
  160.7520  211.9640  155.1760 C   0  0  0  0  0  1  0  0  0  0  0  0
  161.5770  209.3350  150.6660 C   0  0  0  0  0  0  0  0  0  0  0  0
  161.0860  207.4890  152.2520 C   0  0  0  0  0  0  0  0  0  0  0  0
  160.7520  210.4790  155.0950 C   0  0  0  0  0  0  0  0  0  0  0  0
  161.7580  206.8900  149.9520 C   0  0  0  0  0  0  0  0  0  0  0  0
  160.1800  209.6960  153.9590 C   0  0  1  0  0  3  0  0  0  0  0  0
  160.9690  208.3790  155.6750 C   0  0  2  0  0  3  0  0  0  0  0  0
  161.8510  208.3470  149.6000 C   0  0  0  0  0  0  0  0  0  0  0  0
  160.9590  211.0380  151.9980 N   0  0  0  0  0  0  0  0  0  0  0  0
  162.1330  208.7040  148.4280 O   0  0  0  0  0  0  0  0  0  0  0  0
  161.4160  210.7260  150.7530 C   0  0  0  0  0  0  0  0  0  0  0  0
  160.7390  207.1760  153.5090 C   0  0  0  0  0  3  0  0  0  0  0  0
  161.1420  209.7320  156.0770 N   0  0  0  0  0  0  0  0  0  0  0  0
  161.2230  208.8960  151.8950 C   0  0  0  0  0  0  0  0  0  0  0  0
  161.3940  206.4980  151.2010 C   0  0  0  0  0  3  0  0  0  0  0  0
  161.5820  207.2420  156.4200 C   0  0  0  0  0  1  0  0  0  0  0  0
  160.8800  209.9100  152.6900 N   0  0  0  0  0  0  0  0  0  0  0  0
  162.0500  213.6090  147.6940 N   0  0  0  0  0  0  0  0  0  0  0  0
  160.7610  212.8310  149.5480 C   0  0  0  0  0  3  0  0  0  0  0  0
  160.9880  213.7600  148.5300 C   0  0  0  0  0  3  0  0  0  0  0  0
  162.7120  211.6140  148.8250 C   0  0  0  0  0  3  0  0  0  0  0  0
  162.9080  212.5620  147.8200 C   0  0  0  0  0  3  0  0  0  0  0  0
  161.6320  211.7490  149.7090 C   0  0  0  0  0  0  0  0  0  0  0  0
  162.0590  205.8900  148.9110 C   0  0  0  0  0  3  0  0  0  0  0  0
  161.3280  205.7430  147.8110 C   0  0  0  0  0  3  0  0  0  0  0  0
  161.7650  204.5030  146.6020 P   0  0  1  0  0  0  0  0  0  0  0  0
  160.8890  204.6690  145.3790 O   0  0  0  0  0  0  0  0  0  0  0  0
  163.3890  204.7020  146.1670 O   0  0  0  0  0  1  0  0  0  0  0  0
  160.8320  202.2370  146.3160 C   0  0  0  0  0  1  0  0  0  0  0  0
  161.5270  202.9680  147.2810 O   0  0  0  0  0  0  0  0  0  0  0  0
  1 13  1  6  0  0  0
  1  8  1  0  0  0  0
  3 12  1  0  0  0  0
  3 15  2  0  0  0  0
  4 13  2  0  0  0  0
  5  2  1  0  0  0  0
  5 14  2  0  0  0  0
  6 16  2  0  0  0  0
  7  1  1  0  0  0  0
  7  5  1  1  0  0  0
  8 14  1  0  0  0  0
  8 17  1  6  0  0  0
  9  6  1  0  0  0  0
  9  3  1  0  0  0  0
 10 18  1  0  0  0  0
 11  9  2  0  0  0  0
 12 10  2  0  0  0  0
 15  4  1  0  0  0  0
 15 18  1  0  0  0  0
 16  4  1  0  0  0  0
 18  7  1  0  0  0  0
 19 23  2  0  0  0  0
 19 21  1  0  0  0  0
 20 24  1  0  0  0  0
 21 20  2  0  0  0  0
 22 24  2  0  0  0  0
 23 22  1  0  0  0  0
 24 12  1  0  0  0  0
 25  6  1  0  0  0  0
 26 25  2  0  0  0  0
 27 28  2  6  0  0  0
 27 31  1  0  0  0  0
 27 26  1  0  0  0  0
 29 27  1  0  0  0  0
 30 31  1  0  0  0  0
M  END
>  <MODEL>
7

>  <REMARK>
 VINA RESULT:      -7.0      3.174      6.170
  Name = 
  4 active torsions:
  status: ('A' for Active; 'I' for Inactive)
    1  A    between atoms: P_3  and  C_17
    2  A    between atoms: P_3  and  O_31
    3  A    between atoms: C_8  and  C_14
    4  A    between atoms: C_20  and  C_29
                            x       y       z     vdW  Elec       q    Type
                         _______ _______ _______ _____ _____    ______ ____

>  <TORSDO>
F 4

$$$$
=
 OpenBabel11042420263D

 31 35  0  0  1  0  0  0  0  0999 V2000
  161.8770  210.8460  148.6350 C   0  0  2  0  0  3  0  0  0  0  0  0
  160.8080  213.5520  150.9960 C   0  0  0  0  0  1  0  0  0  0  0  0
  161.1180  208.3300  151.7530 C   0  0  0  0  0  0  0  0  0  0  0  0
  161.7300  208.5380  149.3560 C   0  0  0  0  0  0  0  0  0  0  0  0
  161.1010  212.5930  149.8980 C   0  0  0  0  0  0  0  0  0  0  0  0
  161.5040  206.2670  150.3000 C   0  0  0  0  0  0  0  0  0  0  0  0
  161.9600  211.3800  150.0440 C   0  0  1  0  0  3  0  0  0  0  0  0
  161.2090  211.7180  147.8940 C   0  0  2  0  0  3  0  0  0  0  0  0
  161.1850  206.8570  151.6430 C   0  0  0  0  0  0  0  0  0  0  0  0
  161.2150  210.5170  152.2700 N   0  0  0  0  0  0  0  0  0  0  0  0
  161.0030  206.1140  152.6410 O   0  0  0  0  0  0  0  0  0  0  0  0
  160.9990  209.2740  152.7840 C   0  0  0  0  0  0  0  0  0  0  0  0
  161.9560  209.3880  148.3430 C   0  0  0  0  0  3  0  0  0  0  0  0
  160.7290  212.8040  148.6770 N   0  0  0  0  0  0  0  0  0  0  0  0
  161.3780  209.0840  150.6610 C   0  0  0  0  0  0  0  0  0  0  0  0
  161.7620  207.0660  149.2320 C   0  0  0  0  0  3  0  0  0  0  0  0
  160.7270  211.4620  146.5060 C   0  0  0  0  0  1  0  0  0  0  0  0
  161.4120  210.3810  150.9660 N   0  0  0  0  0  0  0  0  0  0  0  0
  160.1670  208.6360  156.9040 N   0  0  0  0  0  0  0  0  0  0  0  0
  161.2060  207.9060  154.8820 C   0  0  0  0  0  3  0  0  0  0  0  0
  160.9120  207.7170  156.2340 C   0  0  0  0  0  3  0  0  0  0  0  0
  159.9620  209.9690  154.9350 C   0  0  0  0  0  3  0  0  0  0  0  0
  159.6880  209.7480  156.2850 C   0  0  0  0  0  3  0  0  0  0  0  0
  160.7370  209.0450  154.2210 C   0  0  0  0  0  0  0  0  0  0  0  0
  161.5420  204.7990  150.1630 C   0  0  0  0  0  3  0  0  0  0  0  0
  160.5670  204.0950  149.5980 C   0  0  0  0  0  3  0  0  0  0  0  0
  160.6980  202.3180  149.4760 P   0  0  1  0  0  0  0  0  0  0  0  0
  161.4060  201.7850  150.7030 O   0  0  0  0  0  1  0  0  0  0  0  0
  159.1440  201.6530  149.3860 O   0  0  0  0  0  0  0  0  0  0  0  0
  161.3260  200.5760  147.8450 C   0  0  0  0  0  1  0  0  0  0  0  0
  161.5810  201.9280  148.0830 O   0  0  0  0  0  0  0  0  0  0  0  0
  1 13  1  1  0  0  0
  1  7  1  0  0  0  0
  3 12  1  0  0  0  0
  4 15  1  0  0  0  0
  5  2  1  0  0  0  0
  6  9  1  0  0  0  0
  7  5  1  6  0  0  0
  7 18  1  0  0  0  0
  8 17  1  1  0  0  0
  8  1  1  0  0  0  0
  8 14  1  0  0  0  0
  9  3  1  0  0  0  0
  9 11  2  0  0  0  0
 10 12  2  0  0  0  0
 12 24  1  0  0  0  0
 13  4  2  0  0  0  0
 14  5  2  0  0  0  0
 15 18  1  0  0  0  0
 15  3  2  0  0  0  0
 16  4  1  0  0  0  0
 16  6  2  0  0  0  0
 18 10  1  0  0  0  0
 20 21  1  0  0  0  0
 21 19  2  0  0  0  0
 22 23  2  0  0  0  0
 23 19  1  0  0  0  0
 24 20  2  0  0  0  0
 24 22  1  0  0  0  0
 25  6  1  0  0  0  0
 26 25  2  0  0  0  0
 27 29  2  6  0  0  0
 27 26  1  0  0  0  0
 27 28  1  0  0  0  0
 30 31  1  0  0  0  0
 31 27  1  0  0  0  0
M  END
>  <MODEL>
8

>  <REMARK>
 VINA RESULT:      -5.7      3.981      7.476
  Name = 
  4 active torsions:
  status: ('A' for Active; 'I' for Inactive)
    1  A    between atoms: P_3  and  C_17
    2  A    between atoms: P_3  and  O_31
    3  A    between atoms: C_8  and  C_14
    4  A    between atoms: C_20  and  C_29
                            x       y       z     vdW  Elec       q    Type
                         _______ _______ _______ _____ _____    ______ ____

>  <TORSDO>
F 4

$$$$
=
 OpenBabel11042420263D

 31 35  0  0  1  0  0  0  0  0999 V2000
  161.0480  212.8020  149.0090 C   0  0  2  0  0  3  0  0  0  0  0  0
  159.6290  214.1430  152.2080 C   0  0  0  0  0  1  0  0  0  0  0  0
  161.3510  209.2820  151.0460 C   0  0  0  0  0  0  0  0  0  0  0  0
  161.5850  210.4440  148.8640 C   0  0  0  0  0  0  0  0  0  0  0  0
  160.0170  213.7310  150.8320 C   0  0  0  0  0  0  0  0  0  0  0  0
  162.0640  208.0220  148.9430 C   0  0  0  0  0  0  0  0  0  0  0  0
  161.1680  212.8340  150.5140 C   0  0  1  0  0  3  0  0  0  0  0  0
  160.0930  213.6460  148.6460 C   0  0  2  0  0  3  0  0  0  0  0  0
  161.7760  208.0130  150.4160 C   0  0  0  0  0  0  0  0  0  0  0  0
  160.9510  211.1030  152.3050 N   0  0  0  0  0  0  0  0  0  0  0  0
  161.9150  206.9600  151.0890 O   0  0  0  0  0  0  0  0  0  0  0  0
  161.1250  209.7520  152.3480 C   0  0  0  0  0  0  0  0  0  0  0  0
  161.4590  211.6110  148.2150 C   0  0  0  0  0  3  0  0  0  0  0  0
  159.4540  214.2240  149.7780 N   0  0  0  0  0  0  0  0  0  0  0  0
  161.2720  210.3990  150.2870 C   0  0  0  0  0  0  0  0  0  0  0  0
  161.9750  209.1710  148.2240 C   0  0  0  0  0  3  0  0  0  0  0  0
  159.5230  213.7440  147.2720 C   0  0  0  0  0  1  0  0  0  0  0  0
  161.0110  211.4730  151.0340 N   0  0  0  0  0  0  0  0  0  0  0  0
  161.0560  207.6320  156.0330 N   0  0  0  0  0  0  0  0  0  0  0  0
  160.5760  207.7020  153.6950 C   0  0  0  0  0  3  0  0  0  0  0  0
  160.5590  207.0300  154.9190 C   0  0  0  0  0  3  0  0  0  0  0  0
  161.6070  209.5890  154.7830 C   0  0  0  0  0  3  0  0  0  0  0  0
  161.5740  208.8880  155.9890 C   0  0  0  0  0  3  0  0  0  0  0  0
  161.1120  208.9910  153.6160 C   0  0  0  0  0  0  0  0  0  0  0  0
  162.4580  206.7590  148.2920 C   0  0  0  0  0  3  0  0  0  0  0  0
  161.7440  206.1840  147.3300 C   0  0  0  0  0  3  0  0  0  0  0  0
  162.2970  204.6510  146.5970 P   0  0  1  0  0  0  0  0  0  0  0  0
  163.7930  204.7150  146.3780 O   0  0  0  0  0  0  0  0  0  0  0  0
  161.9310  203.3730  147.6440 O   0  0  0  0  0  1  0  0  0  0  0  0
  160.8200  205.6330  144.8800 C   0  0  0  0  0  1  0  0  0  0  0  0
  161.5030  204.4370  145.1140 O   0  0  0  0  0  0  0  0  0  0  0  0
  1 13  1  1  0  0  0
  1  7  1  0  0  0  0
  3 12  1  0  0  0  0
  4 15  1  0  0  0  0
  5  2  1  0  0  0  0
  6  9  1  0  0  0  0
  7  5  1  1  0  0  0
  7 18  1  0  0  0  0
  8 17  1  1  0  0  0
  8  1  1  0  0  0  0
  8 14  1  0  0  0  0
  9  3  1  0  0  0  0
  9 11  2  0  0  0  0
 10 12  2  0  0  0  0
 12 24  1  0  0  0  0
 13  4  2  0  0  0  0
 14  5  2  0  0  0  0
 15 18  1  0  0  0  0
 15  3  2  0  0  0  0
 16  4  1  0  0  0  0
 16  6  2  0  0  0  0
 18 10  1  0  0  0  0
 20 21  1  0  0  0  0
 21 19  2  0  0  0  0
 22 23  2  0  0  0  0
 23 19  1  0  0  0  0
 24 20  2  0  0  0  0
 24 22  1  0  0  0  0
 25  6  1  0  0  0  0
 26 25  2  0  0  0  0
 27 28  2  6  0  0  0
 27 26  1  0  0  0  0
 27 29  1  0  0  0  0
 30 31  1  0  0  0  0
 31 27  1  0  0  0  0
M  END
>  <MODEL>
9

>  <REMARK>
 VINA RESULT:      -5.5      3.628      6.413
  Name = 
  4 active torsions:
  status: ('A' for Active; 'I' for Inactive)
    1  A    between atoms: P_3  and  C_17
    2  A    between atoms: P_3  and  O_31
    3  A    between atoms: C_8  and  C_14
    4  A    between atoms: C_20  and  C_29
                            x       y       z     vdW  Elec       q    Type
                         _______ _______ _______ _____ _____    ______ ____

>  <TORSDO>
F 4

$$$$
