=
 OpenBabel11042421563D

 39 45  0  0  1  0  0  0  0  0999 V2000
  161.3830  211.2160  151.4990 C   0  0  2  0  0  3  0  0  0  0  0  0
  160.4950  212.0450  152.3160 N   0  0  0  0  0  0  0  0  0  0  0  0
  159.6130  210.7320  155.4040 N   0  0  0  0  0  0  0  0  0  0  0  0
  161.4200  211.7740  150.0840 C   0  0  1  0  0  3  0  0  0  0  0  0
  160.5550  210.8960  154.5650 N   0  0  0  0  0  0  0  0  0  0  0  0
  162.8010  211.3640  149.0680 Cl  0  0  0  0  0  0  0  0  0  0  0  0
  158.3110  212.9670  152.7990 C   0  0  0  0  0  3  0  0  0  0  0  0
  160.4020  212.5200  149.5890 C   0  0  0  0  0  0  0  0  0  0  0  0
  158.5090  211.6610  155.1560 C   0  0  2  0  0  3  0  0  0  0  0  0
  160.2040  211.9620  153.7030 C   0  0  0  0  0  0  0  0  0  0  0  0
  159.0340  212.4630  154.0120 C   0  0  0  0  0  0  0  0  0  0  0  0
  159.2670  212.9120  150.4630 C   0  0  0  0  0  3  0  0  0  0  0  0
  159.3500  212.6760  151.7660 C   0  0  0  0  0  0  0  0  0  0  0  0
  162.0120  208.8170  151.1750 C   0  0  1  0  0  3  0  0  0  0  0  0
  160.8640  209.7800  151.4570 C   0  0  1  0  0  3  0  0  0  0  0  0
  160.5710  207.9490  152.9430 O   0  0  0  0  0  1  0  0  0  0  0  0
  161.4570  208.9740  152.5950 C   0  0  1  0  0  3  0  0  0  0  0  0
  160.7880  205.2430  149.1020 C   0  0  0  0  0  3  0  0  0  0  0  0
  161.6690  206.3350  151.0780 C   0  0  0  0  0  3  0  0  0  0  0  0
  160.6820  206.4850  148.4670 C   0  0  0  0  0  3  0  0  0  0  0  0
  161.2840  205.1670  150.4050 C   0  0  0  0  0  3  0  0  0  0  0  0
  161.5440  207.5820  150.4540 C   0  0  0  0  0  0  0  0  0  0  0  0
  161.0650  207.6500  149.1380 C   0  0  0  0  0  3  0  0  0  0  0  0
  159.3640  212.8830  147.2740 C   0  0  0  0  0  0  0  0  0  0  0  0
  160.4430  212.9360  148.2150 N   0  0  0  0  0  2  0  0  0  0  0  0
  158.2090  212.5250  147.6310 O   0  0  0  0  0  0  0  0  0  0  0  0
  158.6070  212.9270  145.0480 O   0  0  0  0  0  0  0  0  0  0  0  0
  159.6240  213.3090  145.8630 C   0  0  2  0  0  3  0  0  0  0  0  0
  159.7530  212.1440  145.0170 N   0  0  2  0  0  0  0  0  0  0  0  0
  161.9600  213.0270  143.9620 C   0  0  0  0  0  1  0  0  0  0  0  0
  159.8270  212.8840  142.7330 O   0  0  0  0  0  0  0  0  0  0  0  0
  160.3540  211.5980  142.7510 N   0  0  0  0  0  2  0  0  0  0  0  0
  160.5320  212.5240  143.8360 C   0  0  2  0  0  0  0  0  0  0  0  0
  158.2610  212.5130  156.3660 C   0  0  0  0  0  0  0  0  0  0  0  0
  159.1990  212.9520  157.0210 O   0  0  0  0  0  0  0  0  0  0  0  0
  156.0360  211.6910  156.5340 O   0  0  0  0  0  1  0  0  0  0  0  0
  156.8480  212.8000  156.7770 C   0  0  2  0  0  3  0  0  0  0  0  0
  156.2890  214.0390  156.0860 C   0  0  0  0  0  2  0  0  0  0  0  0
  155.5200  213.6850  154.9720 O   0  0  0  0  0  1  0  0  0  0  0  0
  1  2  1  1  0  0  0
  2 10  1  0  0  0  0
  4  6  1  6  0  0  0
  4  1  1  0  0  0  0
  5  3  2  0  0  0  0
  7 11  1  0  0  0  0
  8  4  1  0  0  0  0
  8 12  2  0  0  0  0
  9  3  1  0  0  0  0
  9 34  1  1  0  0  0
 10 11  2  0  0  0  0
 10  5  1  0  0  0  0
 11  9  1  0  0  0  0
 12 13  1  0  0  0  0
 13  2  1  0  0  0  0
 13  7  2  0  0  0  0
 14 22  1  6  0  0  0
 14 15  1  0  0  0  0
 14 17  1  0  0  0  0
 15  1  1  1  0  0  0
 15 17  1  0  0  0  0
 17 16  1  6  0  0  0
 18 21  1  0  0  0  0
 20 18  2  0  0  0  0
 20 23  1  0  0  0  0
 21 19  2  0  0  0  0
 22 19  1  0  0  0  0
 23 22  2  0  0  0  0
 24 26  2  0  0  0  0
 24 25  1  0  0  0  0
 25  8  1  0  0  0  0
 27 28  1  0  0  0  0
 28 24  1  1  0  0  0
 29 27  1  6  0  0  0
 29 28  1  0  0  0  0
 31 32  1  0  0  0  0
 31 33  1  0  0  0  0
 32 33  1  0  0  0  0
 33 30  1  1  0  0  0
 33 29  1  0  0  0  0
 34 37  1  0  0  0  0
 34 35  2  0  0  0  0
 37 36  1  6  0  0  0
 38 37  1  0  0  0  0
 39 38  1  0  0  0  0
M  END
>  <MODEL>
1

>  <REMARK>
 VINA RESULT:      -5.7      0.000      0.000
  Name = 
  8 active torsions:
  status: ('A' for Active; 'I' for Inactive)
    1  A    between atoms: C_1  and  C_35
    2  A    between atoms: C_3  and  C_29
    3  A    between atoms: C_4  and  C_8
    4  A    between atoms: C_10  and  C_11
    5  A    between atoms: C_13  and  C_30
    6  A    between atoms: C_13  and  C_35
    7  A    between atoms: N_14  and  C_28
    8  A    between atoms: C_34  and  N_36
                            x       y       z     vdW  Elec       q    Type
                         _______ _______ _______ _____ _____    ______ ____

>  <TORSDO>
F 8

$$$$
=
 OpenBabel11042421563D

 39 45  0  0  1  0  0  0  0  0999 V2000
  161.3940  211.8740  150.5110 C   0  0  2  0  0  3  0  0  0  0  0  0
  160.3830  212.7370  151.1250 N   0  0  0  0  0  0  0  0  0  0  0  0
  159.2190  211.7270  154.2340 N   0  0  0  0  0  0  0  0  0  0  0  0
  161.5660  212.2730  149.0520 C   0  0  1  0  0  3  0  0  0  0  0  0
  160.2410  211.8510  153.4870 N   0  0  0  0  0  0  0  0  0  0  0  0
  163.0700  211.8320  148.2450 Cl  0  0  0  0  0  0  0  0  0  0  0  0
  158.1190  213.5790  151.2600 C   0  0  0  0  0  3  0  0  0  0  0  0
  160.5780  212.8990  148.3670 C   0  0  0  0  0  0  0  0  0  0  0  0
  158.1090  212.5570  153.7620 C   0  0  2  0  0  3  0  0  0  0  0  0
  159.9420  212.7920  152.4730 C   0  0  0  0  0  0  0  0  0  0  0  0
  158.7220  213.2560  152.5950 C   0  0  0  0  0  0  0  0  0  0  0  0
  159.3340  213.3190  149.0630 C   0  0  0  0  0  3  0  0  0  0  0  0
  159.2800  213.2350  150.3860 C   0  0  0  0  0  0  0  0  0  0  0  0
  162.1650  209.4950  150.5540 C   0  0  1  0  0  3  0  0  0  0  0  0
  160.9490  210.4160  150.5820 C   0  0  1  0  0  3  0  0  0  0  0  0
  160.5580  208.7520  152.2340 O   0  0  0  0  0  1  0  0  0  0  0  0
  161.4330  209.7810  151.8710 C   0  0  1  0  0  3  0  0  0  0  0  0
  161.1280  205.7060  148.7840 C   0  0  0  0  0  3  0  0  0  0  0  0
  161.4590  208.0990  148.5940 C   0  0  0  0  0  3  0  0  0  0  0  0
  161.4900  205.7660  150.1330 C   0  0  0  0  0  3  0  0  0  0  0  0
  161.1100  206.8720  148.0150 C   0  0  0  0  0  3  0  0  0  0  0  0
  161.8440  208.1600  149.9390 C   0  0  0  0  0  0  0  0  0  0  0  0
  161.8400  206.9900  150.7110 C   0  0  0  0  0  3  0  0  0  0  0  0
  159.7980  212.9250  145.9260 C   0  0  0  0  0  0  0  0  0  0  0  0
  160.7540  213.1600  146.9660 N   0  0  0  0  0  2  0  0  0  0  0  0
  158.6320  212.5260  146.1940 O   0  0  0  0  0  0  0  0  0  0  0  0
  159.1850  212.9040  143.6550 O   0  0  0  0  0  0  0  0  0  0  0  0
  160.1950  213.2080  144.5110 C   0  0  2  0  0  3  0  0  0  0  0  0
  160.2140  211.9770  143.7530 N   0  0  2  0  0  0  0  0  0  0  0  0
  162.5530  212.5840  142.7920 C   0  0  0  0  0  1  0  0  0  0  0  0
  160.5130  212.4360  141.4150 O   0  0  0  0  0  0  0  0  0  0  0  0
  160.9400  211.1290  141.6210 N   0  0  0  0  0  2  0  0  0  0  0  0
  161.1050  212.1640  142.6050 C   0  0  2  0  0  0  0  0  0  0  0  0
  157.6880  213.5230  154.8310 C   0  0  0  0  0  0  0  0  0  0  0  0
  158.5100  214.2590  155.3630 O   0  0  0  0  0  0  0  0  0  0  0  0
  155.7240  212.2660  155.2980 O   0  0  0  0  0  1  0  0  0  0  0  0
  156.2500  213.5580  155.2540 C   0  0  2  0  0  3  0  0  0  0  0  0
  155.4070  214.4520  154.3520 C   0  0  0  0  0  2  0  0  0  0  0  0
  154.7860  213.7030  153.3460 O   0  0  0  0  0  1  0  0  0  0  0  0
  1  2  1  6  0  0  0
  2 10  1  0  0  0  0
  4  6  1  6  0  0  0
  4  1  1  0  0  0  0
  5  3  2  0  0  0  0
  7 11  1  0  0  0  0
  8  4  1  0  0  0  0
  8 12  2  0  0  0  0
  9  3  1  0  0  0  0
  9 34  1  1  0  0  0
 10 11  2  0  0  0  0
 10  5  1  0  0  0  0
 11  9  1  0  0  0  0
 12 13  1  0  0  0  0
 13  2  1  0  0  0  0
 13  7  2  0  0  0  0
 14 22  1  6  0  0  0
 14 15  1  0  0  0  0
 14 17  1  0  0  0  0
 15  1  1  1  0  0  0
 15 17  1  0  0  0  0
 17 16  1  6  0  0  0
 18 20  1  0  0  0  0
 19 22  2  0  0  0  0
 20 23  2  0  0  0  0
 21 19  1  0  0  0  0
 21 18  2  0  0  0  0
 22 23  1  0  0  0  0
 24 26  2  0  0  0  0
 24 25  1  0  0  0  0
 25  8  1  0  0  0  0
 27 28  1  0  0  0  0
 28 24  1  1  0  0  0
 29 27  1  6  0  0  0
 29 28  1  0  0  0  0
 31 32  1  0  0  0  0
 31 33  1  0  0  0  0
 32 33  1  0  0  0  0
 33 30  1  1  0  0  0
 33 29  1  0  0  0  0
 34 37  1  0  0  0  0
 34 35  2  0  0  0  0
 37 36  1  6  0  0  0
 38 37  1  0  0  0  0
 39 38  1  0  0  0  0
M  END
>  <MODEL>
2

>  <REMARK>
 VINA RESULT:      -5.6      1.211      1.596
  Name = 
  8 active torsions:
  status: ('A' for Active; 'I' for Inactive)
    1  A    between atoms: C_1  and  C_35
    2  A    between atoms: C_3  and  C_29
    3  A    between atoms: C_4  and  C_8
    4  A    between atoms: C_10  and  C_11
    5  A    between atoms: C_13  and  C_30
    6  A    between atoms: C_13  and  C_35
    7  A    between atoms: N_14  and  C_28
    8  A    between atoms: C_34  and  N_36
                            x       y       z     vdW  Elec       q    Type
                         _______ _______ _______ _____ _____    ______ ____

>  <TORSDO>
F 8

$$$$
=
 OpenBabel11042421563D

 39 45  0  0  1  0  0  0  0  0999 V2000
  162.3670  207.3890  150.8750 C   0  0  2  0  0  3  0  0  0  0  0  0
  161.9810  208.2110  152.0240 N   0  0  0  0  0  0  0  0  0  0  0  0
  161.1340  206.4780  154.9080 N   0  0  0  0  0  0  0  0  0  0  0  0
  162.4030  208.2630  149.6300 C   0  0  1  0  0  3  0  0  0  0  0  0
  161.9360  206.5450  153.9240 N   0  0  0  0  0  0  0  0  0  0  0  0
  163.3670  207.7150  148.2610 Cl  0  0  0  0  0  0  0  0  0  0  0  0
  160.3930  209.6280  153.1750 C   0  0  0  0  0  3  0  0  0  0  0  0
  161.6750  209.4040  149.5440 C   0  0  0  0  0  0  0  0  0  0  0  0
  160.4320  207.7460  155.1130 C   0  0  2  0  0  3  0  0  0  0  0  0
  161.8860  207.8570  153.3960 C   0  0  0  0  0  0  0  0  0  0  0  0
  161.0440  208.6100  154.0610 C   0  0  0  0  0  0  0  0  0  0  0  0
  160.9070  209.8940  150.7170 C   0  0  0  0  0  3  0  0  0  0  0  0
  161.0860  209.3030  151.8920 C   0  0  0  0  0  0  0  0  0  0  0  0
  162.0250  204.9120  150.8470 C   0  0  1  0  0  3  0  0  0  0  0  0
  161.3510  206.2680  150.6710 C   0  0  1  0  0  3  0  0  0  0  0  0
  159.8620  204.9530  151.9760 O   0  0  0  0  0  1  0  0  0  0  0  0
  161.1500  205.4980  151.9610 C   0  0  1  0  0  3  0  0  0  0  0  0
  160.2140  201.7780  148.5090 C   0  0  0  0  0  3  0  0  0  0  0  0
  160.9860  202.6390  150.6390 C   0  0  0  0  0  3  0  0  0  0  0  0
  160.6030  202.9700  147.8890 C   0  0  0  0  0  3  0  0  0  0  0  0
  160.4070  201.6110  149.8820 C   0  0  0  0  0  3  0  0  0  0  0  0
  161.3580  203.8420  150.0260 C   0  0  0  0  0  0  0  0  0  0  0  0
  161.1810  203.9960  148.6440 C   0  0  0  0  0  3  0  0  0  0  0  0
  161.8070  211.5540  148.1550 C   0  0  0  0  0  0  0  0  0  0  0  0
  161.6670  210.1370  148.3080 N   0  0  0  0  0  2  0  0  0  0  0  0
  162.0480  212.2940  149.1480 O   0  0  0  0  0  0  0  0  0  0  0  0
  161.8260  213.4910  146.8210 O   0  0  0  0  0  0  0  0  0  0  0  0
  161.7110  212.1380  146.7810 C   0  0  2  0  0  3  0  0  0  0  0  0
  160.5400  212.9820  146.6900 N   0  0  2  0  0  0  0  0  0  0  0  0
  161.1980  213.0430  144.1750 C   0  0  0  0  0  1  0  0  0  0  0  0
  158.9660  213.6720  145.0120 O   0  0  0  0  0  0  0  0  0  0  0  0
  158.9950  212.2820  144.9830 N   0  0  0  0  0  2  0  0  0  0  0  0
  160.1560  213.0760  145.2790 C   0  0  2  0  0  0  0  0  0  0  0  0
  160.6980  208.2740  156.4930 C   0  0  0  0  0  0  0  0  0  0  0  0
  161.4340  207.6660  157.2610 O   0  0  0  0  0  0  0  0  0  0  0  0
  158.9130  209.8030  156.1330 O   0  0  0  0  0  1  0  0  0  0  0  0
  160.0330  209.5460  156.9260 C   0  0  2  0  0  3  0  0  0  0  0  0
  160.9900  210.7320  156.9060 C   0  0  0  0  0  2  0  0  0  0  0  0
  160.4750  211.7770  156.1320 O   0  0  0  0  0  1  0  0  0  0  0  0
  1  2  1  1  0  0  0
  2 10  1  0  0  0  0
  3  9  1  0  0  0  0
  4  6  1  6  0  0  0
  4  1  1  0  0  0  0
  5  3  2  0  0  0  0
  7 11  1  0  0  0  0
  8  4  1  0  0  0  0
  8 12  2  0  0  0  0
  9 34  1  1  0  0  0
 10  5  1  0  0  0  0
 10 11  2  0  0  0  0
 11  9  1  0  0  0  0
 12 13  1  0  0  0  0
 13  2  1  0  0  0  0
 13  7  2  0  0  0  0
 14 22  1  6  0  0  0
 14 17  1  0  0  0  0
 15 14  1  0  0  0  0
 15  1  1  1  0  0  0
 15 17  1  0  0  0  0
 17 16  1  6  0  0  0
 18 21  1  0  0  0  0
 20 18  2  0  0  0  0
 20 23  1  0  0  0  0
 21 19  2  0  0  0  0
 22 19  1  0  0  0  0
 23 22  2  0  0  0  0
 24 25  1  0  0  0  0
 24 26  2  0  0  0  0
 25  8  1  0  0  0  0
 28 27  1  0  0  0  0
 28 24  1  1  0  0  0
 29 28  1  0  0  0  0
 29 27  1  6  0  0  0
 31 33  1  0  0  0  0
 32 31  1  0  0  0  0
 32 33  1  0  0  0  0
 33 30  1  6  0  0  0
 33 29  1  0  0  0  0
 34 37  1  0  0  0  0
 34 35  2  0  0  0  0
 37 36  1  6  0  0  0
 38 37  1  0  0  0  0
 39 38  1  0  0  0  0
M  END
>  <MODEL>
3

>  <REMARK>
 VINA RESULT:      -4.0      2.824      3.842
  Name = 
  8 active torsions:
  status: ('A' for Active; 'I' for Inactive)
    1  A    between atoms: C_1  and  C_35
    2  A    between atoms: C_3  and  C_29
    3  A    between atoms: C_4  and  C_8
    4  A    between atoms: C_10  and  C_11
    5  A    between atoms: C_13  and  C_30
    6  A    between atoms: C_13  and  C_35
    7  A    between atoms: N_14  and  C_28
    8  A    between atoms: C_34  and  N_36
                            x       y       z     vdW  Elec       q    Type
                         _______ _______ _______ _____ _____    ______ ____

>  <TORSDO>
F 8

$$$$
=
 OpenBabel11042421563D

 39 45  0  0  1  0  0  0  0  0999 V2000
  162.6660  209.0490  150.0840 C   0  0  2  0  0  3  0  0  0  0  0  0
  162.1380  207.6980  149.8860 N   0  0  0  0  0  0  0  0  0  0  0  0
  162.1770  206.5190  146.6230 N   0  0  0  0  0  0  0  0  0  0  0  0
  162.2980  209.5260  151.4810 C   0  0  1  0  0  3  0  0  0  0  0  0
  162.8180  207.1640  147.5120 N   0  0  0  0  0  0  0  0  0  0  0  0
  163.2590  210.8190  152.1950 Cl  0  0  0  0  0  0  0  0  0  0  0  0
  160.2840  206.1490  149.7470 C   0  0  0  0  0  3  0  0  0  0  0  0
  161.2300  209.0180  152.1450 C   0  0  0  0  0  0  0  0  0  0  0  0
  161.1180  205.7010  147.2160 C   0  0  2  0  0  3  0  0  0  0  0  0
  162.2910  206.8210  148.7800 C   0  0  0  0  0  0  0  0  0  0  0  0
  161.3130  205.9550  148.6730 C   0  0  0  0  0  0  0  0  0  0  0  0
  160.4550  207.8910  151.5660 C   0  0  0  0  0  3  0  0  0  0  0  0
  160.9250  207.2760  150.4880 C   0  0  0  0  0  0  0  0  0  0  0  0
  161.9760  211.4100  149.6310 C   0  0  1  0  0  3  0  0  0  0  0  0
  162.0610  210.0010  149.0540 C   0  0  1  0  0  3  0  0  0  0  0  0
  162.8000  211.4650  147.3340 O   0  0  0  0  0  1  0  0  0  0  0  0
  163.0820  211.0400  148.6360 C   0  0  1  0  0  3  0  0  0  0  0  0
  158.7920  213.6960  147.8400 C   0  0  0  0  0  3  0  0  0  0  0  0
  160.3570  211.8470  147.7660 C   0  0  0  0  0  3  0  0  0  0  0  0
  159.2840  214.0580  149.0980 C   0  0  0  0  0  3  0  0  0  0  0  0
  159.3300  212.5930  147.1730 C   0  0  0  0  0  3  0  0  0  0  0  0
  160.8370  212.1920  149.0350 C   0  0  0  0  0  0  0  0  0  0  0  0
  160.3090  213.3130  149.6910 C   0  0  0  0  0  3  0  0  0  0  0  0
  160.8300  208.8860  154.6730 C   0  0  0  0  0  0  0  0  0  0  0  0
  160.8680  209.5760  153.4180 N   0  0  0  0  0  2  0  0  0  0  0  0
  161.2180  207.6890  154.7680 O   0  0  0  0  0  0  0  0  0  0  0  0
  159.2760  209.0310  156.4320 O   0  0  0  0  0  0  0  0  0  0  0  0
  160.3650  209.6310  155.8850 C   0  0  2  0  0  3  0  0  0  0  0  0
  159.0380  210.1570  155.6550 N   0  0  2  0  0  0  0  0  0  0  0  0
  160.0100  211.9570  157.2610 C   0  0  0  0  0  1  0  0  0  0  0  0
  157.6080  211.4230  157.1110 O   0  0  0  0  0  0  0  0  0  0  0  0
  157.8940  212.2420  156.0250 N   0  0  0  0  0  2  0  0  0  0  0  0
  158.8390  211.2970  156.5540 C   0  0  2  0  0  0  0  0  0  0  0  0
  161.3210  204.2530  146.8710 C   0  0  0  0  0  0  0  0  0  0  0  0
  161.5940  203.4380  147.7440 O   0  0  0  0  0  0  0  0  0  0  0  0
  160.3780  204.6960  144.7340 O   0  0  0  0  0  1  0  0  0  0  0  0
  161.2090  203.8240  145.4400 C   0  0  2  0  0  3  0  0  0  0  0  0
  160.7170  202.3870  145.3070 C   0  0  0  0  0  2  0  0  0  0  0  0
  159.5800  202.3210  144.4960 O   0  0  0  0  0  1  0  0  0  0  0  0
  1  2  1  6  0  0  0
  1  4  1  0  0  0  0
  2 13  1  0  0  0  0
  3  9  1  0  0  0  0
  3  5  2  0  0  0  0
  4  8  1  0  0  0  0
  4  6  1  6  0  0  0
  5 10  1  0  0  0  0
  7 13  2  0  0  0  0
  8 25  1  0  0  0  0
  9 34  1  1  0  0  0
  9 11  1  0  0  0  0
 10  2  1  0  0  0  0
 11 10  2  0  0  0  0
 11  7  1  0  0  0  0
 12  8  2  0  0  0  0
 13 12  1  0  0  0  0
 14 22  1  6  0  0  0
 15 14  1  0  0  0  0
 15  1  1  1  0  0  0
 17 16  1  6  0  0  0
 17 15  1  0  0  0  0
 17 14  1  0  0  0  0
 18 20  1  0  0  0  0
 19 22  2  0  0  0  0
 20 23  2  0  0  0  0
 21 19  1  0  0  0  0
 21 18  2  0  0  0  0
 22 23  1  0  0  0  0
 24 26  2  0  0  0  0
 25 24  1  0  0  0  0
 28 24  1  6  0  0  0
 28 27  1  0  0  0  0
 29 28  1  0  0  0  0
 29 27  1  1  0  0  0
 29 33  1  0  0  0  0
 32 33  1  0  0  0  0
 32 31  1  0  0  0  0
 33 31  1  0  0  0  0
 33 30  1  1  0  0  0
 34 35  2  0  0  0  0
 37 36  1  6  0  0  0
 37 34  1  0  0  0  0
 38 37  1  0  0  0  0
 39 38  1  0  0  0  0
M  END
>  <MODEL>
4

>  <REMARK>
 VINA RESULT:      -3.5      3.540      9.639
  Name = 
  8 active torsions:
  status: ('A' for Active; 'I' for Inactive)
    1  A    between atoms: C_1  and  C_35
    2  A    between atoms: C_3  and  C_29
    3  A    between atoms: C_4  and  C_8
    4  A    between atoms: C_10  and  C_11
    5  A    between atoms: C_13  and  C_30
    6  A    between atoms: C_13  and  C_35
    7  A    between atoms: N_14  and  C_28
    8  A    between atoms: C_34  and  N_36
                            x       y       z     vdW  Elec       q    Type
                         _______ _______ _______ _____ _____    ______ ____

>  <TORSDO>
F 8

$$$$
=
 OpenBabel11042421563D

 39 45  0  0  1  0  0  0  0  0999 V2000
  162.2110  210.4740  150.4300 C   0  0  2  0  0  3  0  0  0  0  0  0
  161.5010  211.1680  151.5060 N   0  0  0  0  0  0  0  0  0  0  0  0
  160.6800  209.2360  154.2700 N   0  0  0  0  0  0  0  0  0  0  0  0
  162.2190  211.3570  149.1910 C   0  0  1  0  0  3  0  0  0  0  0  0
  161.5720  209.4980  153.4020 N   0  0  0  0  0  0  0  0  0  0  0  0
  163.4570  211.0620  147.9710 Cl  0  0  0  0  0  0  0  0  0  0  0  0
  159.4980  212.1760  152.4140 C   0  0  0  0  0  3  0  0  0  0  0  0
  161.2750  212.3100  148.9930 C   0  0  0  0  0  0  0  0  0  0  0  0
  159.6920  210.3130  154.3620 C   0  0  2  0  0  3  0  0  0  0  0  0
  161.3030  210.7770  152.8560 C   0  0  0  0  0  0  0  0  0  0  0  0
  160.2340  211.3110  153.3930 C   0  0  0  0  0  0  0  0  0  0  0  0
  160.2660  212.5950  150.0460 C   0  0  0  0  0  3  0  0  0  0  0  0
  160.4110  212.0360  151.2410 C   0  0  0  0  0  0  0  0  0  0  0  0
  162.5350  208.0810  149.7810 C   0  0  1  0  0  3  0  0  0  0  0  0
  161.5070  209.1590  150.1030 C   0  0  1  0  0  3  0  0  0  0  0  0
  160.7830  207.1980  151.2330 O   0  0  0  0  0  1  0  0  0  0  0  0
  161.8390  208.1110  151.1470 C   0  0  1  0  0  3  0  0  0  0  0  0
  160.8640  205.1850  147.0630 C   0  0  0  0  0  3  0  0  0  0  0  0
  161.4910  207.4660  147.5850 C   0  0  0  0  0  3  0  0  0  0  0  0
  161.3420  204.7700  148.3110 C   0  0  0  0  0  3  0  0  0  0  0  0
  160.9360  206.5310  146.7020 C   0  0  0  0  0  3  0  0  0  0  0  0
  161.9910  207.0530  148.8260 C   0  0  0  0  0  0  0  0  0  0  0  0
  161.8970  205.7030  149.1930 C   0  0  0  0  0  3  0  0  0  0  0  0
  160.5160  212.7340  146.5820 C   0  0  0  0  0  0  0  0  0  0  0  0
  161.2700  213.0450  147.7590 N   0  0  0  0  0  2  0  0  0  0  0  0
  159.6880  211.7830  146.5750 O   0  0  0  0  0  0  0  0  0  0  0  0
  159.4920  213.9640  144.8590 O   0  0  0  0  0  0  0  0  0  0  0  0
  160.6950  213.5940  145.3700 C   0  0  2  0  0  3  0  0  0  0  0  0
  160.1460  212.9250  144.2120 N   0  0  2  0  0  0  0  0  0  0  0  0
  162.3040  213.3830  142.8360 C   0  0  0  0  0  1  0  0  0  0  0  0
  160.1350  214.4530  142.3600 O   0  0  0  0  0  0  0  0  0  0  0  0
  160.0660  213.1740  141.8190 N   0  0  0  0  0  2  0  0  0  0  0  0
  160.8000  213.4710  143.0200 C   0  0  2  0  0  0  0  0  0  0  0  0
  159.6470  210.8620  155.7590 C   0  0  0  0  0  0  0  0  0  0  0  0
  158.7950  211.6830  156.0770 O   0  0  0  0  0  0  0  0  0  0  0  0
  161.8760  211.0880  156.5570 O   0  0  0  0  0  1  0  0  0  0  0  0
  160.6730  210.4070  156.7520 C   0  0  2  0  0  3  0  0  0  0  0  0
  160.8930  208.9000  156.7020 C   0  0  0  0  0  2  0  0  0  0  0  0
  159.8070  208.2170  157.2610 O   0  0  0  0  0  1  0  0  0  0  0  0
  1  2  1  1  0  0  0
  2 10  1  0  0  0  0
  3  9  1  0  0  0  0
  4  6  1  6  0  0  0
  4  1  1  0  0  0  0
  5  3  2  0  0  0  0
  7 11  1  0  0  0  0
  8  4  1  0  0  0  0
  8 12  2  0  0  0  0
  9 34  1  1  0  0  0
 10 11  2  0  0  0  0
 10  5  1  0  0  0  0
 11  9  1  0  0  0  0
 12 13  1  0  0  0  0
 13  2  1  0  0  0  0
 13  7  2  0  0  0  0
 14 22  1  6  0  0  0
 14 15  1  0  0  0  0
 14 17  1  0  0  0  0
 15  1  1  1  0  0  0
 15 17  1  0  0  0  0
 17 16  1  6  0  0  0
 18 20  1  0  0  0  0
 19 22  2  0  0  0  0
 20 23  2  0  0  0  0
 21 18  2  0  0  0  0
 21 19  1  0  0  0  0
 22 23  1  0  0  0  0
 24 25  1  0  0  0  0
 25  8  1  0  0  0  0
 26 24  2  0  0  0  0
 27 28  1  0  0  0  0
 28 24  1  1  0  0  0
 29 27  1  6  0  0  0
 29 28  1  0  0  0  0
 31 33  1  0  0  0  0
 32 31  1  0  0  0  0
 32 33  1  0  0  0  0
 33 30  1  6  0  0  0
 33 29  1  0  0  0  0
 34 35  2  0  0  0  0
 34 37  1  0  0  0  0
 37 36  1  6  0  0  0
 38 37  1  0  0  0  0
 38 39  1  0  0  0  0
M  END
>  <MODEL>
5

>  <REMARK>
 VINA RESULT:      -3.3      1.837      2.655
  Name = 
  8 active torsions:
  status: ('A' for Active; 'I' for Inactive)
    1  A    between atoms: C_1  and  C_35
    2  A    between atoms: C_3  and  C_29
    3  A    between atoms: C_4  and  C_8
    4  A    between atoms: C_10  and  C_11
    5  A    between atoms: C_13  and  C_30
    6  A    between atoms: C_13  and  C_35
    7  A    between atoms: N_14  and  C_28
    8  A    between atoms: C_34  and  N_36
                            x       y       z     vdW  Elec       q    Type
                         _______ _______ _______ _____ _____    ______ ____

>  <TORSDO>
F 8

$$$$
=
 OpenBabel11042421563D

 39 45  0  0  1  0  0  0  0  0999 V2000
  162.4200  208.7640  150.5980 C   0  0  2  0  0  3  0  0  0  0  0  0
  162.1930  209.5180  149.3630 N   0  0  0  0  0  0  0  0  0  0  0  0
  161.3710  212.8650  149.7610 N   0  0  0  0  0  0  0  0  0  0  0  0
  162.4600  207.2790  150.2720 C   0  0  1  0  0  3  0  0  0  0  0  0
  162.1090  211.9120  150.1660 N   0  0  0  0  0  0  0  0  0  0  0  0
  163.2730  206.2030  151.4080 Cl  0  0  0  0  0  0  0  0  0  0  0  0
  160.8310  210.0710  147.4420 C   0  0  0  0  0  3  0  0  0  0  0  0
  161.8440  206.7770  149.1740 C   0  0  0  0  0  0  0  0  0  0  0  0
  160.8120  212.5820  148.4380 C   0  0  2  0  0  3  0  0  0  0  0  0
  162.1540  210.9210  149.1560 C   0  0  0  0  0  0  0  0  0  0  0  0
  161.4360  211.2660  148.1150 C   0  0  0  0  0  0  0  0  0  0  0  0
  161.2070  207.6890  148.1900 C   0  0  0  0  0  3  0  0  0  0  0  0
  161.4030  208.9960  148.3070 C   0  0  0  0  0  0  0  0  0  0  0  0
  161.8590  209.4180  152.9460 C   0  0  1  0  0  3  0  0  0  0  0  0
  161.2870  209.0300  151.5870 C   0  0  1  0  0  3  0  0  0  0  0  0
  159.9860  210.8650  152.3530 O   0  0  0  0  0  1  0  0  0  0  0  0
  161.2870  210.4860  152.0080 C   0  0  1  0  0  3  0  0  0  0  0  0
  159.3310  208.3080  156.2540 C   0  0  0  0  0  3  0  0  0  0  0  0
  160.5190  209.9960  154.9860 C   0  0  0  0  0  3  0  0  0  0  0  0
  159.7720  207.3280  155.3580 C   0  0  0  0  0  3  0  0  0  0  0  0
  159.7070  209.6400  156.0700 C   0  0  0  0  0  3  0  0  0  0  0  0
  160.9440  209.0230  154.0740 C   0  0  0  0  0  0  0  0  0  0  0  0
  160.5820  207.6830  154.2750 C   0  0  0  0  0  3  0  0  0  0  0  0
  162.0010  204.6690  147.7240 C   0  0  0  0  0  0  0  0  0  0  0  0
  161.8260  205.3550  148.9690 N   0  0  0  0  0  2  0  0  0  0  0  0
  162.2850  205.3010  146.6690 O   0  0  0  0  0  0  0  0  0  0  0  0
  160.9040  202.7770  146.8620 O   0  0  0  0  0  0  0  0  0  0  0  0
  161.8890  203.1770  147.7070 C   0  0  2  0  0  3  0  0  0  0  0  0
  160.5950  202.7800  148.2150 N   0  0  2  0  0  0  0  0  0  0  0  0
  161.5280  200.3650  147.9720 C   0  0  0  0  0  1  0  0  0  0  0  0
  159.7010  200.9680  149.5130 O   0  0  0  0  0  0  0  0  0  0  0  0
  160.8810  201.3580  150.1360 N   0  0  0  0  0  2  0  0  0  0  0  0
  160.7040  201.4050  148.7100 C   0  0  2  0  0  0  0  0  0  0  0  0
  161.2190  213.6460  147.4600 C   0  0  0  0  0  0  0  0  0  0  0  0
  162.2890  214.2300  147.5850 O   0  0  0  0  0  0  0  0  0  0  0  0
  158.9630  213.7760  146.7200 O   0  0  0  0  0  1  0  0  0  0  0  0
  160.2870  214.0010  146.3410 C   0  0  2  0  0  3  0  0  0  0  0  0
  160.6160  213.2460  145.0580 C   0  0  0  0  0  2  0  0  0  0  0  0
  159.7080  212.2030  144.8460 O   0  0  0  0  0  1  0  0  0  0  0  0
  1  2  1  6  0  0  0
  3  5  2  0  0  0  0
  4  1  1  0  0  0  0
  4  6  1  1  0  0  0
  7 11  1  0  0  0  0
  7 13  2  0  0  0  0
  8  4  1  0  0  0  0
  9 34  1  6  0  0  0
  9  3  1  0  0  0  0
 10  2  1  0  0  0  0
 10  5  1  0  0  0  0
 11  9  1  0  0  0  0
 11 10  2  0  0  0  0
 12 13  1  0  0  0  0
 12  8  2  0  0  0  0
 13  2  1  0  0  0  0
 14 22  1  1  0  0  0
 15  1  1  6  0  0  0
 15 17  1  0  0  0  0
 15 14  1  0  0  0  0
 17 16  1  1  0  0  0
 17 14  1  0  0  0  0
 19 21  2  0  0  0  0
 20 18  2  0  0  0  0
 21 18  1  0  0  0  0
 22 23  2  0  0  0  0
 22 19  1  0  0  0  0
 23 20  1  0  0  0  0
 24 25  1  0  0  0  0
 25  8  1  0  0  0  0
 26 24  2  0  0  0  0
 27 28  1  0  0  0  0
 28 24  1  6  0  0  0
 28 29  1  0  0  0  0
 29 27  1  6  0  0  0
 29 33  1  0  0  0  0
 31 32  1  0  0  0  0
 33 30  1  6  0  0  0
 33 31  1  0  0  0  0
 33 32  1  0  0  0  0
 34 35  2  0  0  0  0
 37 36  1  1  0  0  0
 37 34  1  0  0  0  0
 38 37  1  0  0  0  0
 39 38  1  0  0  0  0
M  END
>  <MODEL>
6

>  <REMARK>
 VINA RESULT:      -3.2      4.124      8.072
  Name = 
  8 active torsions:
  status: ('A' for Active; 'I' for Inactive)
    1  A    between atoms: C_1  and  C_35
    2  A    between atoms: C_3  and  C_29
    3  A    between atoms: C_4  and  C_8
    4  A    between atoms: C_10  and  C_11
    5  A    between atoms: C_13  and  C_30
    6  A    between atoms: C_13  and  C_35
    7  A    between atoms: N_14  and  C_28
    8  A    between atoms: C_34  and  N_36
                            x       y       z     vdW  Elec       q    Type
                         _______ _______ _______ _____ _____    ______ ____

>  <TORSDO>
F 8

$$$$
=
 OpenBabel11042421563D

 39 45  0  0  1  0  0  0  0  0999 V2000
  161.5440  211.4670  151.1740 C   0  0  2  0  0  3  0  0  0  0  0  0
  161.9040  211.4900  149.7550 N   0  0  0  0  0  0  0  0  0  0  0  0
  160.9480  214.3240  147.9960 N   0  0  0  0  0  0  0  0  0  0  0  0
  161.7500  210.0600  151.7150 C   0  0  1  0  0  3  0  0  0  0  0  0
  161.4270  213.8800  149.0870 N   0  0  0  0  0  0  0  0  0  0  0  0
  161.9610  209.8640  153.4540 Cl  0  0  0  0  0  0  0  0  0  0  0  0
  161.5780  210.7440  147.4770 C   0  0  0  0  0  3  0  0  0  0  0  0
  161.7190  208.9760  150.9020 C   0  0  0  0  0  0  0  0  0  0  0  0
  161.0670  213.3380  146.9200 C   0  0  2  0  0  3  0  0  0  0  0  0
  161.9470  212.5840  148.8520 C   0  0  0  0  0  0  0  0  0  0  0  0
  161.7870  212.2240  147.6020 C   0  0  0  0  0  0  0  0  0  0  0  0
  161.5970  209.1460  149.4310 C   0  0  0  0  0  3  0  0  0  0  0  0
  161.6990  210.3650  148.9160 C   0  0  0  0  0  0  0  0  0  0  0  0
  159.9240  212.7830  152.5520 C   0  0  1  0  0  3  0  0  0  0  0  0
  160.0800  211.8620  151.3470 C   0  0  1  0  0  3  0  0  0  0  0  0
  158.6110  213.6010  150.6650 O   0  0  0  0  0  1  0  0  0  0  0  0
  159.9060  213.3510  151.1290 C   0  0  1  0  0  3  0  0  0  0  0  0
  156.0800  212.4650  154.4730 C   0  0  0  0  0  3  0  0  0  0  0  0
  157.7810  213.7940  153.3730 C   0  0  0  0  0  3  0  0  0  0  0  0
  156.8720  211.3230  154.3120 C   0  0  0  0  0  3  0  0  0  0  0  0
  156.5350  213.7000  154.0070 C   0  0  0  0  0  3  0  0  0  0  0  0
  158.5670  212.6510  153.1890 C   0  0  0  0  0  0  0  0  0  0  0  0
  158.1150  211.4170  153.6780 C   0  0  0  0  0  3  0  0  0  0  0  0
  161.1350  206.4840  151.0390 C   0  0  0  0  0  0  0  0  0  0  0  0
  161.8170  207.6650  151.4800 N   0  0  0  0  0  2  0  0  0  0  0  0
  160.4240  206.4960  149.9970 O   0  0  0  0  0  0  0  0  0  0  0  0
  162.5870  204.7410  151.6610 O   0  0  0  0  0  0  0  0  0  0  0  0
  161.3240  205.2180  151.8140 C   0  0  2  0  0  3  0  0  0  0  0  0
  161.5960  204.1260  150.9070 N   0  0  2  0  0  0  0  0  0  0  0  0
  160.1070  202.8340  152.6020 C   0  0  0  0  0  1  0  0  0  0  0  0
  162.1800  201.9140  151.6370 O   0  0  0  0  0  0  0  0  0  0  0  0
  161.1980  201.7640  150.6650 N   0  0  0  0  0  2  0  0  0  0  0  0
  161.2250  202.8760  151.5760 C   0  0  2  0  0  0  0  0  0  0  0  0
  161.8670  213.9030  145.7810 C   0  0  0  0  0  0  0  0  0  0  0  0
  162.9410  214.4530  145.9870 O   0  0  0  0  0  0  0  0  0  0  0  0
  160.7260  212.5570  144.1860 O   0  0  0  0  0  1  0  0  0  0  0  0
  161.3190  213.8040  144.3890 C   0  0  2  0  0  3  0  0  0  0  0  0
  162.3840  214.0710  143.3320 C   0  0  0  0  0  2  0  0  0  0  0  0
  163.0320  212.8870  142.9650 O   0  0  0  0  0  1  0  0  0  0  0  0
  1  2  1  6  0  0  0
  1  4  1  0  0  0  0
  3  5  2  0  0  0  0
  4  6  1  1  0  0  0
  7 11  1  0  0  0  0
  7 13  2  0  0  0  0
  8 25  1  0  0  0  0
  8  4  1  0  0  0  0
  9 34  1  6  0  0  0
  9 11  1  0  0  0  0
  9  3  1  0  0  0  0
 10  5  1  0  0  0  0
 10  2  1  0  0  0  0
 11 10  2  0  0  0  0
 12  8  2  0  0  0  0
 13 12  1  0  0  0  0
 13  2  1  0  0  0  0
 14 22  1  6  0  0  0
 15  1  1  1  0  0  0
 15 14  1  0  0  0  0
 17 16  1  6  0  0  0
 17 15  1  0  0  0  0
 17 14  1  0  0  0  0
 19 21  1  0  0  0  0
 20 18  1  0  0  0  0
 21 18  2  0  0  0  0
 22 19  2  0  0  0  0
 22 23  1  0  0  0  0
 23 20  2  0  0  0  0
 24 25  1  0  0  0  0
 26 24  2  0  0  0  0
 27 28  1  0  0  0  0
 28 24  1  6  0  0  0
 29 33  1  0  0  0  0
 29 27  1  1  0  0  0
 29 28  1  0  0  0  0
 32 33  1  0  0  0  0
 32 31  1  0  0  0  0
 33 31  1  0  0  0  0
 33 30  1  1  0  0  0
 34 35  2  0  0  0  0
 37 36  1  6  0  0  0
 37 34  1  0  0  0  0
 38 37  1  0  0  0  0
 39 38  1  0  0  0  0
M  END
>  <MODEL>
7

>  <REMARK>
 VINA RESULT:      -3.0      3.212      8.959
  Name = 
  8 active torsions:
  status: ('A' for Active; 'I' for Inactive)
    1  A    between atoms: C_1  and  C_35
    2  A    between atoms: C_3  and  C_29
    3  A    between atoms: C_4  and  C_8
    4  A    between atoms: C_10  and  C_11
    5  A    between atoms: C_13  and  C_30
    6  A    between atoms: C_13  and  C_35
    7  A    between atoms: N_14  and  C_28
    8  A    between atoms: C_34  and  N_36
                            x       y       z     vdW  Elec       q    Type
                         _______ _______ _______ _____ _____    ______ ____

>  <TORSDO>
F 8

$$$$
