=
 OpenBabel11052411103D

 44 46  0  0  1  0  0  0  0  0999 V2000
  161.6720  209.6790  150.2610 C   0  0  2  0  0  3  0  0  0  0  0  0
  161.7400  209.6730  151.7640 C   0  0  0  0  0  3  0  0  0  0  0  0
  160.8110  210.1700  152.5390 C   0  0  0  0  0  0  0  0  0  0  0  0
  159.8830  210.6610  153.3130 C   0  0  0  0  0  0  0  0  0  0  0  0
  158.7140  211.3610  152.7070 C   0  0  0  0  0  1  0  0  0  0  0  0
  160.0070  210.5070  154.7970 C   0  0  2  0  0  3  0  0  0  0  0  0
  160.2130  212.7430  155.5980 O   0  0  0  0  0  0  0  0  0  0  0  0
  158.2530  211.6900  156.1470 O   0  0  0  0  0  1  0  0  0  0  0  0
  159.4910  211.7160  155.5130 C   0  0  0  0  0  0  0  0  0  0  0  0
  161.3890  210.2420  155.1670 N   0  0  0  0  0  2  0  0  0  0  0  0
  161.4250  208.9070  155.7460 C   0  0  0  0  0  2  0  0  0  0  0  0
  160.5760  208.8600  157.0050 C   0  0  0  0  0  2  0  0  0  0  0  0
  160.0050  206.9860  155.9880 C   0  0  0  0  0  1  0  0  0  0  0  0
  160.1570  207.5510  157.2550 O   0  0  0  0  0  0  0  0  0  0  0  0
  162.3090  208.4500  149.6130 C   0  0  0  0  0  2  0  0  0  0  0  0
  161.2320  207.5960  148.9710 C   0  0  1  0  0  3  0  0  0  0  0  0
  161.8490  206.7220  147.9630 C   0  0  0  0  0  0  0  0  0  0  0  0
  162.3600  206.0060  147.1390 C   0  0  0  0  0  3  0  0  0  0  0  0
  160.5370  206.7690  150.0400 C   0  0  0  0  0  2  0  0  0  0  0  0
  162.1680  206.0510  151.7720 C   0  0  0  0  0  2  0  0  0  0  0  0
  161.4390  205.6400  150.5200 C   0  0  1  0  0  3  0  0  0  0  0  0
  160.5840  204.4850  150.9810 C   0  0  2  0  0  3  0  0  0  0  0  0
  160.9690  204.1840  152.3520 N   0  0  0  0  0  2  0  0  0  0  0  0
  161.5260  205.3620  152.8800 N   0  0  0  0  0  2  0  0  0  0  0  0
  161.1700  201.0280  148.5370 C   0  0  2  0  0  3  0  0  0  0  0  0
  160.9290  202.2340  147.9460 C   0  0  0  0  0  0  0  0  0  0  0  0
  161.3480  199.9980  147.5910 N   0  0  0  0  0  0  0  0  0  0  0  0
  160.7220  203.3870  148.7050 C   0  0  0  0  0  3  0  0  0  0  0  0
  161.2110  200.8840  149.9240 C   0  0  0  0  0  3  0  0  0  0  0  0
  161.2190  200.5950  146.2610 C   0  0  0  0  0  3  0  0  0  0  0  0
  161.0050  202.0280  150.7130 C   0  0  0  0  0  3  0  0  0  0  0  0
  160.9190  202.0960  146.4730 C   0  0  0  0  0  3  0  0  0  0  0  0
  160.7620  203.2800  150.1110 C   0  0  0  0  0  0  0  0  0  0  0  0
  162.3090  210.9530  149.7340 C   0  0  0  0  0  2  0  0  0  0  0  0
  161.8810  211.2020  148.2970 C   0  0  0  0  0  2  0  0  0  0  0  0
  162.4400  212.4940  147.8060 C   0  0  0  0  0  0  0  0  0  0  0  0
  163.5980  212.7960  148.0500 O   0  0  0  0  0  0  0  0  0  0  0  0
  161.5640  213.4380  147.0490 C   0  0  0  0  0  2  0  0  0  0  0  0
  160.8450  212.7200  146.0100 N   0  0  0  0  0  2  0  0  0  0  0  0
  160.6450  213.6540  144.9140 C   0  0  0  0  0  2  0  0  0  0  0  0
  161.0250  213.0070  143.6180 C   0  0  0  0  0  0  0  0  0  0  0  0
  160.1030  212.6520  142.8020 N   0  0  0  0  0  2  0  0  0  0  0  0
  163.3270  213.6330  143.8180 O   0  0  0  0  0  1  0  0  0  0  0  0
  162.4520  212.6810  143.2900 C   0  0  0  0  0  2  0  0  0  0  0  0
  1 15  1  6  0  0  0
  1  2  1  0  0  0  0
  2  3  2  0  0  0  0
  3  4  2  0  0  0  0
  5  4  1  0  0  0  0
  6  4  1  6  0  0  0
  6 10  1  0  0  0  0
  6  9  1  0  0  0  0
  9  7  2  0  0  0  0
  9  8  1  0  0  0  0
 10 11  1  0  0  0  0
 11 12  1  0  0  0  0
 12 14  1  0  0  0  0
 13 14  1  0  0  0  0
 16 17  1  6  0  0  0
 16 15  1  0  0  0  0
 16 19  1  0  0  0  0
 18 17  3  0  0  0  0
 20 24  1  0  0  0  0
 21 19  1  1  0  0  0
 21 22  1  0  0  0  0
 21 20  1  0  0  0  0
 22 33  1  6  0  0  0
 22 23  1  0  0  0  0
 23 24  1  0  0  0  0
 25 29  1  1  0  0  0
 26 25  1  0  0  0  0
 26 28  1  0  0  0  0
 27 25  1  0  0  0  0
 28 33  2  0  0  0  0
 29 31  2  0  0  0  0
 30 32  1  0  0  0  0
 30 27  2  0  0  0  0
 32 26  2  0  0  0  0
 33 31  1  0  0  0  0
 34  1  1  0  0  0  0
 35 34  1  0  0  0  0
 36 37  2  0  0  0  0
 36 35  1  0  0  0  0
 38 36  1  0  0  0  0
 39 38  1  0  0  0  0
 40 39  1  0  0  0  0
 41 40  1  0  0  0  0
 42 41  2  0  0  0  0
 44 41  1  0  0  0  0
 44 43  1  0  0  0  0
M  END
>  <MODEL>
1

>  <REMARK>
 VINA RESULT:      -7.1      0.000      0.000
  Name = 
  21 active torsions:
  status: ('A' for Active; 'I' for Inactive)
    1  A    between atoms: C_2  and  C_11
    2  A    between atoms: C_2  and  C_21
    3  A    between atoms: C_3  and  C_7
    4  A    between atoms: C_3  and  O_41
    5  A    between atoms: C_4  and  C_10
    6  A    between atoms: C_7  and  N_35
    7  A    between atoms: C_10  and  C_13
    8  A    between atoms: C_10  and  C_31
    9  A    between atoms: C_11  and  C_13
   10  A    between atoms: N_14  and  C_19
   11  A    between atoms: N_14  and  C_21
   12  A    between atoms: C_17  and  C_32
   13  A    between atoms: C_19  and  C_25
   14  A    between atoms: C_20  and  C_22
   15  A    between atoms: C_20  and  C_24
   16  A    between atoms: C_24  and  C_31
   17  A    between atoms: C_24  and  C_34
   18  A    between atoms: C_25  and  C_30
   19  A    between atoms: C_28  and  C_44
   20  A    between atoms: C_29  and  C_32
   21  A    between atoms: C_32  and  N_35
                            x       y       z     vdW  Elec       q    Type
                         _______ _______ _______ _____ _____    ______ ____

>  <TORSDO>
F 21

$$$$
=
 OpenBabel11052411103D

 44 46  0  0  1  0  0  0  0  0999 V2000
  161.8270  209.8170  150.1570 C   0  0  2  0  0  3  0  0  0  0  0  0
  161.9830  209.9530  151.6480 C   0  0  0  0  0  3  0  0  0  0  0  0
  161.0550  210.4250  152.4390 C   0  0  0  0  0  0  0  0  0  0  0  0
  160.1300  210.8920  153.2300 C   0  0  0  0  0  0  0  0  0  0  0  0
  158.8620  211.4200  152.6480 C   0  0  0  0  0  1  0  0  0  0  0  0
  160.3550  210.8850  154.7100 C   0  0  2  0  0  3  0  0  0  0  0  0
  161.4180  208.8060  155.1890 O   0  0  0  0  0  0  0  0  0  0  0  0
  162.7680  210.6500  155.3590 O   0  0  0  0  0  1  0  0  0  0  0  0
  161.5440  210.0520  155.0750 C   0  0  0  0  0  0  0  0  0  0  0  0
  159.1650  210.4130  155.4030 N   0  0  0  0  0  2  0  0  0  0  0  0
  158.8690  211.3840  156.4460 C   0  0  0  0  0  2  0  0  0  0  0  0
  157.5710  212.1090  156.1330 C   0  0  0  0  0  2  0  0  0  0  0  0
  155.8910  211.4700  154.8530 C   0  0  0  0  0  1  0  0  0  0  0  0
  156.5140  211.1980  156.0720 O   0  0  0  0  0  0  0  0  0  0  0  0
  162.3960  208.5140  149.5960 C   0  0  0  0  0  2  0  0  0  0  0  0
  161.2790  207.6950  148.9770 C   0  0  1  0  0  3  0  0  0  0  0  0
  161.8450  206.8090  147.9510 C   0  0  0  0  0  0  0  0  0  0  0  0
  162.3100  206.0870  147.1040 C   0  0  0  0  0  3  0  0  0  0  0  0
  160.5860  206.8820  150.0600 C   0  0  0  0  0  2  0  0  0  0  0  0
  162.2310  206.1820  151.7860 C   0  0  0  0  0  2  0  0  0  0  0  0
  161.4870  205.7550  150.5470 C   0  0  1  0  0  3  0  0  0  0  0  0
  160.6300  204.6130  151.0340 C   0  0  2  0  0  3  0  0  0  0  0  0
  161.0270  204.3310  152.4060 N   0  0  0  0  0  2  0  0  0  0  0  0
  161.5960  205.5140  152.9110 N   0  0  0  0  0  2  0  0  0  0  0  0
  161.1730  201.1150  148.6390 C   0  0  2  0  0  3  0  0  0  0  0  0
  160.9550  202.3170  148.0320 C   0  0  0  0  0  0  0  0  0  0  0  0
  161.3390  200.0690  147.7080 N   0  0  0  0  0  0  0  0  0  0  0  0
  160.7620  203.4830  148.7740 C   0  0  0  0  0  3  0  0  0  0  0  0
  161.2050  200.9890  150.0280 C   0  0  0  0  0  3  0  0  0  0  0  0
  161.2260  200.6510  146.3700 C   0  0  0  0  0  3  0  0  0  0  0  0
  161.0130  202.1460  150.8010 C   0  0  0  0  0  3  0  0  0  0  0  0
  160.9500  202.1590  146.5600 C   0  0  0  0  0  3  0  0  0  0  0  0
  160.7940  203.3940  150.1810 C   0  0  0  0  0  0  0  0  0  0  0  0
  162.4620  211.0150  149.4750 C   0  0  0  0  0  2  0  0  0  0  0  0
  161.6400  211.4310  148.2660 C   0  0  0  0  0  2  0  0  0  0  0  0
  161.2470  212.8660  148.3740 C   0  0  0  0  0  0  0  0  0  0  0  0
  160.6640  213.2710  149.3670 O   0  0  0  0  0  0  0  0  0  0  0  0
  161.5330  213.7970  147.2410 C   0  0  0  0  0  2  0  0  0  0  0  0
  162.2060  213.0810  146.1710 N   0  0  0  0  0  2  0  0  0  0  0  0
  162.1860  213.9500  145.0050 C   0  0  0  0  0  2  0  0  0  0  0  0
  161.7990  213.1650  143.7900 C   0  0  0  0  0  0  0  0  0  0  0  0
  162.7180  212.7090  143.0210 N   0  0  0  0  0  2  0  0  0  0  0  0
  160.0170  211.6250  143.3660 O   0  0  0  0  0  1  0  0  0  0  0  0
  160.3640  212.9780  143.3990 C   0  0  0  0  0  2  0  0  0  0  0  0
  1 34  1  6  0  0  0
  1  2  1  0  0  0  0
  2  3  2  0  0  0  0
  3  4  2  0  0  0  0
  5  4  1  0  0  0  0
  6  4  1  6  0  0  0
  6  9  1  0  0  0  0
  6 10  1  0  0  0  0
  9  7  2  0  0  0  0
  9  8  1  0  0  0  0
 10 11  1  0  0  0  0
 12 11  1  0  0  0  0
 13 14  1  0  0  0  0
 14 12  1  0  0  0  0
 15  1  1  0  0  0  0
 16 17  1  6  0  0  0
 16 15  1  0  0  0  0
 16 19  1  0  0  0  0
 18 17  3  0  0  0  0
 20 24  1  0  0  0  0
 21 19  1  1  0  0  0
 21 22  1  0  0  0  0
 21 20  1  0  0  0  0
 22 33  1  6  0  0  0
 22 23  1  0  0  0  0
 23 24  1  0  0  0  0
 25 29  1  1  0  0  0
 26 25  1  0  0  0  0
 26 28  1  0  0  0  0
 27 25  1  0  0  0  0
 28 33  2  0  0  0  0
 29 31  2  0  0  0  0
 30 32  1  0  0  0  0
 30 27  2  0  0  0  0
 32 26  2  0  0  0  0
 33 31  1  0  0  0  0
 35 36  1  0  0  0  0
 35 34  1  0  0  0  0
 36 37  2  0  0  0  0
 38 36  1  0  0  0  0
 39 38  1  0  0  0  0
 40 39  1  0  0  0  0
 41 40  1  0  0  0  0
 42 41  2  0  0  0  0
 43 44  1  0  0  0  0
 44 41  1  0  0  0  0
M  END
>  <MODEL>
2

>  <REMARK>
 VINA RESULT:      -7.0      1.433      2.115
  Name = 
  21 active torsions:
  status: ('A' for Active; 'I' for Inactive)
    1  A    between atoms: C_2  and  C_11
    2  A    between atoms: C_2  and  C_21
    3  A    between atoms: C_3  and  C_7
    4  A    between atoms: C_3  and  O_41
    5  A    between atoms: C_4  and  C_10
    6  A    between atoms: C_7  and  N_35
    7  A    between atoms: C_10  and  C_13
    8  A    between atoms: C_10  and  C_31
    9  A    between atoms: C_11  and  C_13
   10  A    between atoms: N_14  and  C_19
   11  A    between atoms: N_14  and  C_21
   12  A    between atoms: C_17  and  C_32
   13  A    between atoms: C_19  and  C_25
   14  A    between atoms: C_20  and  C_22
   15  A    between atoms: C_20  and  C_24
   16  A    between atoms: C_24  and  C_31
   17  A    between atoms: C_24  and  C_34
   18  A    between atoms: C_25  and  C_30
   19  A    between atoms: C_28  and  C_44
   20  A    between atoms: C_29  and  C_32
   21  A    between atoms: C_32  and  N_35
                            x       y       z     vdW  Elec       q    Type
                         _______ _______ _______ _____ _____    ______ ____

>  <TORSDO>
F 21

$$$$
=
 OpenBabel11052411103D

 44 46  0  0  1  0  0  0  0  0999 V2000
  161.7970  209.8490  150.2450 C   0  0  2  0  0  3  0  0  0  0  0  0
  162.0010  209.9090  151.7350 C   0  0  0  0  0  3  0  0  0  0  0  0
  161.0750  210.2680  152.5860 C   0  0  0  0  0  0  0  0  0  0  0  0
  160.1510  210.6220  153.4350 C   0  0  0  0  0  0  0  0  0  0  0  0
  158.8290  211.0920  152.9300 C   0  0  0  0  0  1  0  0  0  0  0  0
  160.4340  210.5440  154.9030 C   0  0  2  0  0  3  0  0  0  0  0  0
  159.3800  208.4950  155.5150 O   0  0  0  0  0  0  0  0  0  0  0  0
  161.6610  208.5180  155.7340 O   0  0  0  0  0  1  0  0  0  0  0  0
  160.4600  209.1240  155.3770 C   0  0  0  0  0  0  0  0  0  0  0  0
  159.4530  211.3170  155.6510 N   0  0  0  0  0  2  0  0  0  0  0  0
  160.1930  212.2860  156.4460 C   0  0  0  0  0  2  0  0  0  0  0  0
  159.7530  213.6960  156.0930 C   0  0  0  0  0  2  0  0  0  0  0  0
  158.3540  214.4530  154.5630 C   0  0  0  0  0  1  0  0  0  0  0  0
  158.4020  213.7050  155.7400 O   0  0  0  0  0  0  0  0  0  0  0  0
  162.3860  208.5990  149.5930 C   0  0  0  0  0  2  0  0  0  0  0  0
  161.2690  207.7480  149.0200 C   0  0  1  0  0  3  0  0  0  0  0  0
  161.8240  206.8560  147.9930 C   0  0  0  0  0  0  0  0  0  0  0  0
  162.2840  206.1250  147.1520 C   0  0  0  0  0  3  0  0  0  0  0  0
  160.6250  206.9410  150.1360 C   0  0  0  0  0  2  0  0  0  0  0  0
  162.3370  206.2490  151.7990 C   0  0  0  0  0  2  0  0  0  0  0  0
  161.5470  205.8170  150.5910 C   0  0  1  0  0  3  0  0  0  0  0  0
  160.7130  204.6740  151.1130 C   0  0  2  0  0  3  0  0  0  0  0  0
  161.1630  204.3950  152.4690 N   0  0  0  0  0  2  0  0  0  0  0  0
  161.7480  205.5810  152.9490 N   0  0  0  0  0  2  0  0  0  0  0  0
  161.1710  201.1700  148.7080 C   0  0  2  0  0  3  0  0  0  0  0  0
  160.9780  202.3780  148.1040 C   0  0  0  0  0  0  0  0  0  0  0  0
  161.3110  200.1230  147.7750 N   0  0  0  0  0  0  0  0  0  0  0  0
  160.8130  203.5450  148.8500 C   0  0  0  0  0  3  0  0  0  0  0  0
  161.2040  201.0400  150.0970 C   0  0  0  0  0  3  0  0  0  0  0  0
  161.2070  200.7100  146.4380 C   0  0  0  0  0  3  0  0  0  0  0  0
  161.0410  202.1990  150.8730 C   0  0  0  0  0  3  0  0  0  0  0  0
  160.9640  202.2230  146.6320 C   0  0  0  0  0  3  0  0  0  0  0  0
  160.8470  203.4530  150.2570 C   0  0  0  0  0  0  0  0  0  0  0  0
  162.3680  211.1050  149.6100 C   0  0  0  0  0  2  0  0  0  0  0  0
  161.9310  211.2070  148.1580 C   0  0  0  0  0  2  0  0  0  0  0  0
  161.9860  212.6250  147.6980 C   0  0  0  0  0  0  0  0  0  0  0  0
  162.9210  213.3400  148.0210 O   0  0  0  0  0  0  0  0  0  0  0  0
  160.8690  213.1780  146.8750 C   0  0  0  0  0  2  0  0  0  0  0  0
  159.6360  212.4710  147.1750 N   0  0  0  0  0  2  0  0  0  0  0  0
  158.7870  213.3940  147.9080 C   0  0  0  0  0  2  0  0  0  0  0  0
  157.4100  213.4000  147.3190 C   0  0  0  0  0  0  0  0  0  0  0  0
  157.1750  212.7010  146.2700 N   0  0  0  0  0  2  0  0  0  0  0  0
  156.2600  214.1930  149.2620 O   0  0  0  0  0  1  0  0  0  0  0  0
  156.3230  214.2740  147.8690 C   0  0  0  0  0  2  0  0  0  0  0  0
  1 15  1  6  0  0  0
  1  2  1  0  0  0  0
  2  3  2  0  0  0  0
  3  4  2  0  0  0  0
  5  4  1  0  0  0  0
  6  4  1  6  0  0  0
  6  9  1  0  0  0  0
  6 10  1  0  0  0  0
  9  7  2  0  0  0  0
  9  8  1  0  0  0  0
 10 11  1  0  0  0  0
 12 11  1  0  0  0  0
 13 14  1  0  0  0  0
 14 12  1  0  0  0  0
 16 17  1  6  0  0  0
 16 15  1  0  0  0  0
 16 19  1  0  0  0  0
 18 17  3  0  0  0  0
 20 24  1  0  0  0  0
 21 19  1  1  0  0  0
 21 22  1  0  0  0  0
 21 20  1  0  0  0  0
 22 33  1  6  0  0  0
 22 23  1  0  0  0  0
 23 24  1  0  0  0  0
 25 29  1  1  0  0  0
 26 25  1  0  0  0  0
 26 28  1  0  0  0  0
 27 25  1  0  0  0  0
 28 33  2  0  0  0  0
 29 31  2  0  0  0  0
 30 32  1  0  0  0  0
 30 27  2  0  0  0  0
 32 26  2  0  0  0  0
 33 31  1  0  0  0  0
 34  1  1  0  0  0  0
 35 34  1  0  0  0  0
 36 37  2  0  0  0  0
 36 35  1  0  0  0  0
 38 39  1  0  0  0  0
 38 36  1  0  0  0  0
 39 40  1  0  0  0  0
 41 44  1  0  0  0  0
 41 40  1  0  0  0  0
 42 41  2  0  0  0  0
 44 43  1  0  0  0  0
M  END
>  <MODEL>
3

>  <REMARK>
 VINA RESULT:      -6.8      1.941      3.025
  Name = 
  21 active torsions:
  status: ('A' for Active; 'I' for Inactive)
    1  A    between atoms: C_2  and  C_11
    2  A    between atoms: C_2  and  C_21
    3  A    between atoms: C_3  and  C_7
    4  A    between atoms: C_3  and  O_41
    5  A    between atoms: C_4  and  C_10
    6  A    between atoms: C_7  and  N_35
    7  A    between atoms: C_10  and  C_13
    8  A    between atoms: C_10  and  C_31
    9  A    between atoms: C_11  and  C_13
   10  A    between atoms: N_14  and  C_19
   11  A    between atoms: N_14  and  C_21
   12  A    between atoms: C_17  and  C_32
   13  A    between atoms: C_19  and  C_25
   14  A    between atoms: C_20  and  C_22
   15  A    between atoms: C_20  and  C_24
   16  A    between atoms: C_24  and  C_31
   17  A    between atoms: C_24  and  C_34
   18  A    between atoms: C_25  and  C_30
   19  A    between atoms: C_28  and  C_44
   20  A    between atoms: C_29  and  C_32
   21  A    between atoms: C_32  and  N_35
                            x       y       z     vdW  Elec       q    Type
                         _______ _______ _______ _____ _____    ______ ____

>  <TORSDO>
F 21

$$$$
=
 OpenBabel11052411103D

 44 46  0  0  1  0  0  0  0  0999 V2000
  161.9900  206.7910  149.9300 C   0  0  2  0  0  3  0  0  0  0  0  0
  161.1690  205.5890  149.5480 C   0  0  0  0  0  3  0  0  0  0  0  0
  161.4010  204.8510  148.4930 C   0  0  0  0  0  0  0  0  0  0  0  0
  161.6330  204.1120  147.4450 C   0  0  0  0  0  0  0  0  0  0  0  0
  162.7130  204.5030  146.4930 C   0  0  0  0  0  1  0  0  0  0  0  0
  160.8150  202.8780  147.2190 C   0  0  2  0  0  3  0  0  0  0  0  0
  161.6970  201.0950  148.5340 O   0  0  0  0  0  0  0  0  0  0  0  0
  159.8290  202.1060  149.3940 O   0  0  0  0  0  1  0  0  0  0  0  0
  160.8230  201.9930  148.4260 C   0  0  0  0  0  0  0  0  0  0  0  0
  161.2960  202.1570  146.0500 N   0  0  0  0  0  2  0  0  0  0  0  0
  160.1240  201.7660  145.2810 C   0  0  0  0  0  2  0  0  0  0  0  0
  160.1270  200.2650  145.0490 C   0  0  0  0  0  2  0  0  0  0  0  0
  161.2080  198.3550  145.2810 C   0  0  0  0  0  1  0  0  0  0  0  0
  161.1930  199.6750  145.7330 O   0  0  0  0  0  0  0  0  0  0  0  0
  162.5240  206.7400  151.3610 C   0  0  0  0  0  2  0  0  0  0  0  0
  161.3710  206.5540  152.3300 C   0  0  1  0  0  3  0  0  0  0  0  0
  161.1250  205.1180  152.5140 C   0  0  0  0  0  0  0  0  0  0  0  0
  160.9280  203.9390  152.6690 C   0  0  0  0  0  3  0  0  0  0  0  0
  161.7150  207.2110  153.6570 C   0  0  0  0  0  2  0  0  0  0  0  0
  160.0700  206.7320  155.4580 C   0  0  0  0  0  2  0  0  0  0  0  0
  160.4540  207.6930  154.3620 C   0  0  1  0  0  3  0  0  0  0  0  0
  160.7620  208.9660  155.1110 C   0  0  2  0  0  3  0  0  0  0  0  0
  160.3900  208.7500  156.5020 N   0  0  0  0  0  2  0  0  0  0  0  0
  160.4360  207.3610  156.7170 N   0  0  0  0  0  2  0  0  0  0  0  0
  158.5610  212.2580  153.5020 C   0  0  0  0  0  0  0  0  0  0  0  0
  159.6680  211.8050  152.8450 C   0  0  0  0  0  0  0  0  0  0  0  0
  157.9500  213.3400  152.8360 N   0  0  0  0  0  0  0  0  0  0  0  0
  160.4220  210.7410  153.3390 C   0  0  0  0  0  2  0  0  0  0  0  0
  158.1350  211.6890  154.7020 C   0  0  0  0  0  3  0  0  0  0  0  0
  158.7300  213.6070  151.6260 C   0  0  0  0  0  3  0  0  0  0  0  0
  158.8760  210.6150  155.2240 C   0  0  0  0  0  3  0  0  0  0  0  0
  159.9020  212.6000  151.6180 C   0  0  0  0  0  3  0  0  0  0  0  0
  160.0170  210.1360  154.5470 C   0  0  0  0  0  0  0  0  0  0  0  0
  161.1710  208.0500  149.7080 C   0  0  0  0  0  2  0  0  0  0  0  0
  161.9240  209.0170  148.8100 C   0  0  0  0  0  2  0  0  0  0  0  0
  162.1800  210.3000  149.5280 C   0  0  0  0  0  0  0  0  0  0  0  0
  162.3600  210.3030  150.7350 O   0  0  0  0  0  0  0  0  0  0  0  0
  162.1730  211.5860  148.7680 C   0  0  0  0  0  2  0  0  0  0  0  0
  161.1450  211.5480  147.7420 N   0  0  0  0  0  2  0  0  0  0  0  0
  160.7370  212.9230  147.5030 C   0  0  0  0  0  2  0  0  0  0  0  0
  160.5140  213.1420  146.0390 C   0  0  0  0  0  0  0  0  0  0  0  0
  160.9510  214.2170  145.4930 N   0  0  0  0  0  2  0  0  0  0  0  0
  158.3430  212.4370  145.3190 O   0  0  0  0  0  1  0  0  0  0  0  0
  159.7120  212.1810  145.2140 C   0  0  0  0  0  2  0  0  0  0  0  0
  1  2  1  1  0  0  0
  1 15  1  0  0  0  0
  3  2  2  0  0  0  0
  4  3  2  0  0  0  0
  5  4  1  0  0  0  0
  6 10  1  6  0  0  0
  6  4  1  0  0  0  0
  6  9  1  0  0  0  0
  9  7  2  0  0  0  0
  9  8  1  0  0  0  0
 11 10  1  0  0  0  0
 12 11  1  0  0  0  0
 12 14  1  0  0  0  0
 13 14  1  0  0  0  0
 16 15  1  6  0  0  0
 16 17  1  0  0  0  0
 16 19  1  0  0  0  0
 17 18  3  0  0  0  0
 20 24  1  0  0  0  0
 21 19  1  1  0  0  0
 21 22  1  0  0  0  0
 21 20  1  0  0  0  0
 22 33  1  6  0  0  0
 22 23  1  0  0  0  0
 23 24  1  0  0  0  0
 25 29  2  0  0  0  0
 26 28  1  0  0  0  0
 26 25  1  0  0  0  0
 27 25  1  0  0  0  0
 28 33  1  0  0  0  0
 29 31  1  0  0  0  0
 30 27  2  0  0  0  0
 32 30  1  0  0  0  0
 32 26  2  0  0  0  0
 33 31  2  0  0  0  0
 34  1  1  0  0  0  0
 35 36  1  0  0  0  0
 35 34  1  0  0  0  0
 36 37  2  0  0  0  0
 38 36  1  0  0  0  0
 39 38  1  0  0  0  0
 40 39  1  0  0  0  0
 41 40  1  0  0  0  0
 42 41  2  0  0  0  0
 44 43  1  0  0  0  0
 44 41  1  0  0  0  0
M  END
>  <MODEL>
4

>  <REMARK>
 VINA RESULT:      -6.6      3.577      8.695
  Name = 
  21 active torsions:
  status: ('A' for Active; 'I' for Inactive)
    1  A    between atoms: C_2  and  C_11
    2  A    between atoms: C_2  and  C_21
    3  A    between atoms: C_3  and  C_7
    4  A    between atoms: C_3  and  O_41
    5  A    between atoms: C_4  and  C_10
    6  A    between atoms: C_7  and  N_35
    7  A    between atoms: C_10  and  C_13
    8  A    between atoms: C_10  and  C_31
    9  A    between atoms: C_11  and  C_13
   10  A    between atoms: N_14  and  C_19
   11  A    between atoms: N_14  and  C_21
   12  A    between atoms: C_17  and  C_32
   13  A    between atoms: C_19  and  C_25
   14  A    between atoms: C_20  and  C_22
   15  A    between atoms: C_20  and  C_24
   16  A    between atoms: C_24  and  C_31
   17  A    between atoms: C_24  and  C_34
   18  A    between atoms: C_25  and  C_30
   19  A    between atoms: C_28  and  C_44
   20  A    between atoms: C_29  and  C_32
   21  A    between atoms: C_32  and  N_35
                            x       y       z     vdW  Elec       q    Type
                         _______ _______ _______ _____ _____    ______ ____

>  <TORSDO>
F 21

$$$$
=
 OpenBabel11052411103D

 44 46  0  0  1  0  0  0  0  0999 V2000
  162.0330  206.8450  150.2200 C   0  0  2  0  0  3  0  0  0  0  0  0
  161.1450  205.7360  149.7260 C   0  0  0  0  0  3  0  0  0  0  0  0
  161.4430  204.9550  148.7200 C   0  0  0  0  0  0  0  0  0  0  0  0
  161.7400  204.1730  147.7210 C   0  0  0  0  0  0  0  0  0  0  0  0
  162.9850  204.4210  146.9370 C   0  0  0  0  0  1  0  0  0  0  0  0
  160.8290  203.0340  147.3810 C   0  0  2  0  0  3  0  0  0  0  0  0
  161.5550  200.9470  148.2750 O   0  0  0  0  0  0  0  0  0  0  0  0
  160.0640  202.0980  149.5800 O   0  0  0  0  0  1  0  0  0  0  0  0
  160.8580  201.9800  148.4430 C   0  0  0  0  0  0  0  0  0  0  0  0
  161.1820  202.4700  146.0870 N   0  0  0  0  0  2  0  0  0  0  0  0
  160.0030  202.5790  145.2400 C   0  0  0  0  0  2  0  0  0  0  0  0
  160.2020  203.6710  144.2040 C   0  0  0  0  0  2  0  0  0  0  0  0
  161.2430  205.6170  144.1630 C   0  0  0  0  0  1  0  0  0  0  0  0
  160.2270  204.9230  144.8220 O   0  0  0  0  0  0  0  0  0  0  0  0
  162.5270  206.6440  151.6530 C   0  0  0  0  0  2  0  0  0  0  0  0
  161.3460  206.3910  152.5690 C   0  0  1  0  0  3  0  0  0  0  0  0
  161.0650  204.9490  152.6040 C   0  0  0  0  0  0  0  0  0  0  0  0
  160.8280  203.7670  152.6310 C   0  0  0  0  0  3  0  0  0  0  0  0
  161.6670  206.9050  153.9630 C   0  0  0  0  0  2  0  0  0  0  0  0
  160.0660  206.7150  155.8540 C   0  0  0  0  0  2  0  0  0  0  0  0
  160.4260  207.4980  154.6190 C   0  0  1  0  0  3  0  0  0  0  0  0
  160.7600  208.8660  155.1610 C   0  0  2  0  0  3  0  0  0  0  0  0
  160.4220  208.8620  156.5770 N   0  0  0  0  0  2  0  0  0  0  0  0
  160.4660  207.5210  156.9970 N   0  0  0  0  0  2  0  0  0  0  0  0
  158.6880  211.9830  153.0990 C   0  0  0  0  0  0  0  0  0  0  0  0
  158.3940  211.7340  154.4080 C   0  0  0  0  0  0  0  0  0  0  0  0
  157.9230  213.0450  152.5730 N   0  0  0  0  0  0  0  0  0  0  0  0
  159.0380  210.7200  155.1170 C   0  0  0  0  0  3  0  0  0  0  0  0
  159.6350  211.2320  152.4020 C   0  0  0  0  0  3  0  0  0  0  0  0
  157.0580  213.5370  153.6470 C   0  0  0  0  0  2  0  0  0  0  0  0
  160.2990  210.2040  153.0910 C   0  0  0  0  0  3  0  0  0  0  0  0
  157.3430  212.6600  154.8870 C   0  0  0  0  0  3  0  0  0  0  0  0
  160.0070  209.9450  154.4470 C   0  0  0  0  0  0  0  0  0  0  0  0
  161.3030  208.1700  150.0860 C   0  0  0  0  0  2  0  0  0  0  0  0
  161.7550  208.8960  148.8290 C   0  0  0  0  0  2  0  0  0  0  0  0
  162.0120  210.3350  149.1250 C   0  0  0  0  0  0  0  0  0  0  0  0
  162.2380  210.6970  150.2690 O   0  0  0  0  0  0  0  0  0  0  0  0
  161.9490  211.3390  148.0210 C   0  0  0  0  0  2  0  0  0  0  0  0
  162.3220  212.6500  148.5220 N   0  0  0  0  0  2  0  0  0  0  0  0
  161.3770  213.6010  147.9600 C   0  0  0  0  0  2  0  0  0  0  0  0
  160.1640  213.6920  148.8330 C   0  0  0  0  0  0  0  0  0  0  0  0
  160.3100  213.9210  150.0860 N   0  0  0  0  0  2  0  0  0  0  0  0
  157.8040  213.8320  149.2030 O   0  0  0  0  0  1  0  0  0  0  0  0
  158.7880  213.4320  148.2970 C   0  0  0  0  0  2  0  0  0  0  0  0
  1  2  1  1  0  0  0
  1 15  1  0  0  0  0
  3  2  2  0  0  0  0
  4  3  2  0  0  0  0
  5  4  1  0  0  0  0
  6 10  1  6  0  0  0
  6  4  1  0  0  0  0
  6  9  1  0  0  0  0
  7  9  2  0  0  0  0
  9  8  1  0  0  0  0
 11 10  1  0  0  0  0
 12 14  1  0  0  0  0
 12 11  1  0  0  0  0
 13 14  1  0  0  0  0
 16 15  1  6  0  0  0
 16 17  1  0  0  0  0
 16 19  1  0  0  0  0
 17 18  3  0  0  0  0
 20 24  1  0  0  0  0
 21 19  1  1  0  0  0
 21 22  1  0  0  0  0
 21 20  1  0  0  0  0
 22 33  1  6  0  0  0
 22 23  1  0  0  0  0
 23 24  1  0  0  0  0
 25 26  1  0  0  0  0
 26 32  2  0  0  0  0
 26 28  1  0  0  0  0
 27 25  2  0  0  0  0
 27 30  1  0  0  0  0
 29 31  2  0  0  0  0
 29 25  1  0  0  0  0
 30 32  1  0  0  0  0
 31 33  1  0  0  0  0
 33 28  2  0  0  0  0
 34  1  1  0  0  0  0
 35 36  1  0  0  0  0
 35 34  1  0  0  0  0
 36 37  2  0  0  0  0
 38 39  1  0  0  0  0
 38 36  1  0  0  0  0
 40 39  1  0  0  0  0
 40 41  1  0  0  0  0
 41 42  2  0  0  0  0
 44 41  1  0  0  0  0
 44 43  1  0  0  0  0
M  END
>  <MODEL>
5

>  <REMARK>
 VINA RESULT:      -6.4      3.417      8.774
  Name = 
  21 active torsions:
  status: ('A' for Active; 'I' for Inactive)
    1  A    between atoms: C_2  and  C_11
    2  A    between atoms: C_2  and  C_21
    3  A    between atoms: C_3  and  C_7
    4  A    between atoms: C_3  and  O_41
    5  A    between atoms: C_4  and  C_10
    6  A    between atoms: C_7  and  N_35
    7  A    between atoms: C_10  and  C_13
    8  A    between atoms: C_10  and  C_31
    9  A    between atoms: C_11  and  C_13
   10  A    between atoms: N_14  and  C_19
   11  A    between atoms: N_14  and  C_21
   12  A    between atoms: C_17  and  C_32
   13  A    between atoms: C_19  and  C_25
   14  A    between atoms: C_20  and  C_22
   15  A    between atoms: C_20  and  C_24
   16  A    between atoms: C_24  and  C_31
   17  A    between atoms: C_24  and  C_34
   18  A    between atoms: C_25  and  C_30
   19  A    between atoms: C_28  and  C_44
   20  A    between atoms: C_29  and  C_32
   21  A    between atoms: C_32  and  N_35
                            x       y       z     vdW  Elec       q    Type
                         _______ _______ _______ _____ _____    ______ ____

>  <TORSDO>
F 21

$$$$
=
 OpenBabel11052411103D

 44 46  0  0  1  0  0  0  0  0999 V2000
  162.0560  208.7160  149.5610 C   0  0  2  0  0  3  0  0  0  0  0  0
  161.9680  207.4610  148.7370 C   0  0  0  0  0  3  0  0  0  0  0  0
  161.5010  206.3240  149.1840 C   0  0  0  0  0  0  0  0  0  0  0  0
  161.0320  205.1920  149.6280 C   0  0  0  0  0  0  0  0  0  0  0  0
  160.6360  205.0700  151.0610 C   0  0  0  0  0  1  0  0  0  0  0  0
  160.8940  204.0340  148.6880 C   0  0  2  0  0  3  0  0  0  0  0  0
  159.7500  201.9930  149.1440 O   0  0  0  0  0  0  0  0  0  0  0  0
  161.5560  202.4170  150.4890 O   0  0  0  0  0  1  0  0  0  0  0  0
  160.7130  202.7480  149.4330 C   0  0  0  0  0  0  0  0  0  0  0  0
  162.0470  203.9580  147.8030 N   0  0  0  0  0  2  0  0  0  0  0  0
  161.5370  203.7300  146.4600 C   0  0  0  0  0  2  0  0  0  0  0  0
  162.2400  204.6450  145.4710 C   0  0  0  0  0  2  0  0  0  0  0  0
  160.4300  205.8730  145.1740 C   0  0  0  0  0  1  0  0  0  0  0  0
  161.7580  205.9500  145.5960 O   0  0  0  0  0  0  0  0  0  0  0  0
  161.2590  208.6530  150.8630 C   0  0  0  0  0  2  0  0  0  0  0  0
  161.8360  209.6370  151.8630 C   0  0  1  0  0  3  0  0  0  0  0  0
  160.8800  210.7340  152.0660 C   0  0  0  0  0  0  0  0  0  0  0  0
  160.0990  211.6380  152.2290 C   0  0  0  0  0  3  0  0  0  0  0  0
  162.1120  208.9210  153.1760 C   0  0  0  0  0  2  0  0  0  0  0  0
  160.5900  207.2640  154.2310 C   0  0  0  0  0  2  0  0  0  0  0  0
  160.8250  208.7280  153.9660 C   0  0  1  0  0  3  0  0  0  0  0  0
  161.0020  209.3060  155.3490 C   0  0  2  0  0  3  0  0  0  0  0  0
  160.7010  208.2460  156.3010 N   0  0  0  0  0  2  0  0  0  0  0  0
  160.9160  207.0300  155.6280 N   0  0  0  0  0  2  0  0  0  0  0  0
  158.4910  212.6860  156.0780 C   0  0  0  0  0  0  0  0  0  0  0  0
  157.9240  211.4720  155.8220 C   0  0  0  0  0  0  0  0  0  0  0  0
  157.5250  213.6880  156.3040 N   0  0  0  0  0  0  0  0  0  0  0  0
  158.7050  210.3440  155.5680 C   0  0  0  0  0  3  0  0  0  0  0  0
  159.8740  212.8630  156.0900 C   0  0  0  0  0  3  0  0  0  0  0  0
  156.2070  213.0610  156.1920 C   0  0  0  0  0  2  0  0  0  0  0  0
  160.6860  211.7450  155.8370 C   0  0  0  0  0  3  0  0  0  0  0  0
  156.4480  211.5740  155.8500 C   0  0  0  0  0  3  0  0  0  0  0  0
  160.1080  210.4840  155.5770 C   0  0  0  0  0  0  0  0  0  0  0  0
  161.6150  209.9010  148.7200 C   0  0  0  0  0  2  0  0  0  0  0  0
  162.6470  211.0150  148.7960 C   0  0  0  0  0  2  0  0  0  0  0  0
  162.1700  212.2160  148.0500 C   0  0  0  0  0  0  0  0  0  0  0  0
  162.8260  213.2450  148.0590 O   0  0  0  0  0  0  0  0  0  0  0  0
  160.8650  212.1650  147.3260 C   0  0  0  0  0  2  0  0  0  0  0  0
  160.8050  213.2280  146.3380 N   0  0  0  0  0  2  0  0  0  0  0  0
  160.3090  212.6330  145.1080 C   0  0  0  0  0  2  0  0  0  0  0  0
  161.3650  212.6950  144.0480 C   0  0  0  0  0  0  0  0  0  0  0  0
  162.4820  213.2680  144.3100 N   0  0  0  0  0  2  0  0  0  0  0  0
  162.3120  211.9840  141.9680 O   0  0  0  0  0  1  0  0  0  0  0  0
  161.1160  212.1880  142.6590 C   0  0  0  0  0  2  0  0  0  0  0  0
  1 34  1  6  0  0  0
  1 15  1  0  0  0  0
  2  3  2  0  0  0  0
  2  1  1  0  0  0  0
  3  4  2  0  0  0  0
  4  5  1  0  0  0  0
  6 10  1  1  0  0  0
  6  9  1  0  0  0  0
  6  4  1  0  0  0  0
  7  9  2  0  0  0  0
  9  8  1  0  0  0  0
 11 10  1  0  0  0  0
 12 14  1  0  0  0  0
 12 11  1  0  0  0  0
 13 14  1  0  0  0  0
 16 15  1  6  0  0  0
 16 17  1  0  0  0  0
 16 19  1  0  0  0  0
 17 18  3  0  0  0  0
 20 24  1  0  0  0  0
 21 19  1  6  0  0  0
 21 20  1  0  0  0  0
 21 22  1  0  0  0  0
 22 33  1  1  0  0  0
 22 23  1  0  0  0  0
 24 23  1  0  0  0  0
 25 29  1  0  0  0  0
 25 27  2  0  0  0  0
 26 32  2  0  0  0  0
 26 25  1  0  0  0  0
 28 33  2  0  0  0  0
 28 26  1  0  0  0  0
 30 27  1  0  0  0  0
 31 29  2  0  0  0  0
 32 30  1  0  0  0  0
 33 31  1  0  0  0  0
 34 35  1  0  0  0  0
 36 37  2  0  0  0  0
 36 35  1  0  0  0  0
 38 36  1  0  0  0  0
 39 38  1  0  0  0  0
 40 39  1  0  0  0  0
 41 42  2  0  0  0  0
 41 40  1  0  0  0  0
 43 44  1  0  0  0  0
 44 41  1  0  0  0  0
M  END
>  <MODEL>
6

>  <REMARK>
 VINA RESULT:      -6.2      2.936      8.405
  Name = 
  21 active torsions:
  status: ('A' for Active; 'I' for Inactive)
    1  A    between atoms: C_2  and  C_11
    2  A    between atoms: C_2  and  C_21
    3  A    between atoms: C_3  and  C_7
    4  A    between atoms: C_3  and  O_41
    5  A    between atoms: C_4  and  C_10
    6  A    between atoms: C_7  and  N_35
    7  A    between atoms: C_10  and  C_13
    8  A    between atoms: C_10  and  C_31
    9  A    between atoms: C_11  and  C_13
   10  A    between atoms: N_14  and  C_19
   11  A    between atoms: N_14  and  C_21
   12  A    between atoms: C_17  and  C_32
   13  A    between atoms: C_19  and  C_25
   14  A    between atoms: C_20  and  C_22
   15  A    between atoms: C_20  and  C_24
   16  A    between atoms: C_24  and  C_31
   17  A    between atoms: C_24  and  C_34
   18  A    between atoms: C_25  and  C_30
   19  A    between atoms: C_28  and  C_44
   20  A    between atoms: C_29  and  C_32
   21  A    between atoms: C_32  and  N_35
                            x       y       z     vdW  Elec       q    Type
                         _______ _______ _______ _____ _____    ______ ____

>  <TORSDO>
F 21

$$$$
=
 OpenBabel11052411103D

 44 46  0  0  1  0  0  0  0  0999 V2000
  162.0080  207.7240  149.5920 C   0  0  2  0  0  3  0  0  0  0  0  0
  161.8820  206.5480  148.6620 C   0  0  0  0  0  3  0  0  0  0  0  0
  161.3750  205.3930  149.0080 C   0  0  0  0  0  0  0  0  0  0  0  0
  160.8660  204.2430  149.3510 C   0  0  0  0  0  0  0  0  0  0  0  0
  160.4580  204.0110  150.7670 C   0  0  0  0  0  1  0  0  0  0  0  0
  160.6940  203.1770  148.3140 C   0  0  2  0  0  3  0  0  0  0  0  0
  159.3130  201.3970  149.0940 O   0  0  0  0  0  0  0  0  0  0  0  0
  161.5610  201.1030  149.4310 O   0  0  0  0  0  1  0  0  0  0  0  0
  160.4820  201.8360  148.9440 C   0  0  0  0  0  0  0  0  0  0  0  0
  161.8420  203.1490  147.4200 N   0  0  0  0  0  2  0  0  0  0  0  0
  161.5230  204.0120  146.2930 C   0  0  0  0  0  2  0  0  0  0  0  0
  160.8450  203.2100  145.1950 C   0  0  0  0  0  2  0  0  0  0  0  0
  159.7070  201.3190  145.1550 C   0  0  0  0  0  1  0  0  0  0  0  0
  160.9650  201.8420  145.4540 O   0  0  0  0  0  0  0  0  0  0  0  0
  160.8110  207.8990  150.5260 C   0  0  0  0  0  2  0  0  0  0  0  0
  161.2490  207.6880  151.9630 C   0  0  1  0  0  3  0  0  0  0  0  0
  162.3020  206.6640  151.9980 C   0  0  0  0  0  0  0  0  0  0  0  0
  163.1710  205.8280  152.0260 C   0  0  0  0  0  3  0  0  0  0  0  0
  161.7620  209.0000  152.5340 C   0  0  0  0  0  2  0  0  0  0  0  0
  161.2020  208.7910  154.9470 C   0  0  0  0  0  2  0  0  0  0  0  0
  160.8560  209.4890  153.6570 C   0  0  1  0  0  3  0  0  0  0  0  0
  161.1710  210.9350  153.9510 C   0  0  2  0  0  3  0  0  0  0  0  0
  161.4920  211.0270  155.3680 N   0  0  0  0  0  2  0  0  0  0  0  0
  161.9280  209.7500  155.7640 N   0  0  0  0  0  2  0  0  0  0  0  0
  157.8340  213.4470  153.0440 C   0  0  0  0  0  0  0  0  0  0  0  0
  158.5690  212.9140  152.0260 C   0  0  0  0  0  0  0  0  0  0  0  0
  156.7680  214.2420  152.5740 N   0  0  0  0  0  0  0  0  0  0  0  0
  159.6720  212.0970  152.2750 C   0  0  0  0  0  2  0  0  0  0  0  0
  158.1530  213.2120  154.3820 C   0  0  0  0  0  3  0  0  0  0  0  0
  156.8120  214.2130  151.1110 C   0  0  0  0  0  3  0  0  0  0  0  0
  159.2600  212.3930  154.6630 C   0  0  0  0  0  3  0  0  0  0  0  0
  158.0250  213.3410  150.7170 C   0  0  0  0  0  3  0  0  0  0  0  0
  160.0210  211.8330  153.6160 C   0  0  0  0  0  0  0  0  0  0  0  0
  162.2410  208.9850  148.7790 C   0  0  0  0  0  2  0  0  0  0  0  0
  161.9540  210.2170  149.6220 C   0  0  0  0  0  2  0  0  0  0  0  0
  162.1140  211.4540  148.8040 C   0  0  0  0  0  0  0  0  0  0  0  0
  163.1510  211.6560  148.1920 O   0  0  0  0  0  0  0  0  0  0  0  0
  161.0150  212.4650  148.7710 C   0  0  0  0  0  2  0  0  0  0  0  0
  160.7730  212.8880  147.4030 N   0  0  0  0  0  2  0  0  0  0  0  0
  159.3610  212.6710  147.1380 C   0  0  0  0  0  2  0  0  0  0  0  0
  159.0590  212.9670  145.7020 C   0  0  0  0  0  0  0  0  0  0  0  0
  158.1650  213.8410  145.4170 N   0  0  0  0  0  2  0  0  0  0  0  0
  160.8050  212.8940  144.0650 O   0  0  0  0  0  1  0  0  0  0  0  0
  159.7090  212.2020  144.5880 C   0  0  0  0  0  2  0  0  0  0  0  0
  1  2  1  6  0  0  0
  1 15  1  0  0  0  0
  2  3  2  0  0  0  0
  3  4  2  0  0  0  0
  4  5  1  0  0  0  0
  6 10  1  6  0  0  0
  6  9  1  0  0  0  0
  6  4  1  0  0  0  0
  9  7  2  0  0  0  0
  9  8  1  0  0  0  0
 11 10  1  0  0  0  0
 12 14  1  0  0  0  0
 12 11  1  0  0  0  0
 13 14  1  0  0  0  0
 16 15  1  6  0  0  0
 16 17  1  0  0  0  0
 16 19  1  0  0  0  0
 17 18  3  0  0  0  0
 20 24  1  0  0  0  0
 21 19  1  6  0  0  0
 21 22  1  0  0  0  0
 21 20  1  0  0  0  0
 22 33  1  1  0  0  0
 22 23  1  0  0  0  0
 23 24  1  0  0  0  0
 25 29  2  0  0  0  0
 26 28  1  0  0  0  0
 26 25  1  0  0  0  0
 27 25  1  0  0  0  0
 28 33  1  0  0  0  0
 29 31  1  0  0  0  0
 30 27  2  0  0  0  0
 32 30  1  0  0  0  0
 32 26  2  0  0  0  0
 33 31  2  0  0  0  0
 34  1  1  0  0  0  0
 34 35  1  0  0  0  0
 36 35  1  0  0  0  0
 37 36  2  0  0  0  0
 38 36  1  0  0  0  0
 39 38  1  0  0  0  0
 40 39  1  0  0  0  0
 41 40  1  0  0  0  0
 42 41  2  0  0  0  0
 43 44  1  0  0  0  0
 44 41  1  0  0  0  0
M  END
>  <MODEL>
7

>  <REMARK>
 VINA RESULT:      -5.8      3.389      8.547
  Name = 
  21 active torsions:
  status: ('A' for Active; 'I' for Inactive)
    1  A    between atoms: C_2  and  C_11
    2  A    between atoms: C_2  and  C_21
    3  A    between atoms: C_3  and  C_7
    4  A    between atoms: C_3  and  O_41
    5  A    between atoms: C_4  and  C_10
    6  A    between atoms: C_7  and  N_35
    7  A    between atoms: C_10  and  C_13
    8  A    between atoms: C_10  and  C_31
    9  A    between atoms: C_11  and  C_13
   10  A    between atoms: N_14  and  C_19
   11  A    between atoms: N_14  and  C_21
   12  A    between atoms: C_17  and  C_32
   13  A    between atoms: C_19  and  C_25
   14  A    between atoms: C_20  and  C_22
   15  A    between atoms: C_20  and  C_24
   16  A    between atoms: C_24  and  C_31
   17  A    between atoms: C_24  and  C_34
   18  A    between atoms: C_25  and  C_30
   19  A    between atoms: C_28  and  C_44
   20  A    between atoms: C_29  and  C_32
   21  A    between atoms: C_32  and  N_35
                            x       y       z     vdW  Elec       q    Type
                         _______ _______ _______ _____ _____    ______ ____

>  <TORSDO>
F 21

$$$$
=
 OpenBabel11052411103D

 44 46  0  0  1  0  0  0  0  0999 V2000
  162.3040  209.7520  149.5770 C   0  0  2  0  0  3  0  0  0  0  0  0
  162.5040  208.6130  148.6150 C   0  0  0  0  0  3  0  0  0  0  0  0
  162.0210  207.4110  148.7950 C   0  0  0  0  0  0  0  0  0  0  0  0
  161.5360  206.2140  148.9710 C   0  0  0  0  0  0  0  0  0  0  0  0
  160.8140  205.8910  150.2360 C   0  0  0  0  0  1  0  0  0  0  0  0
  161.7090  205.1850  147.8970 C   0  0  2  0  0  3  0  0  0  0  0  0
  160.4100  206.2130  146.1830 O   0  0  0  0  0  1  0  0  0  0  0  0
  162.5990  205.8110  145.6350 O   0  0  0  0  0  0  0  0  0  0  0  0
  161.5390  205.7860  146.5370 C   0  0  0  0  0  0  0  0  0  0  0  0
  160.7770  204.0850  148.0930 N   0  0  0  0  0  2  0  0  0  0  0  0
  161.5690  202.8670  148.1760 C   0  0  0  0  0  2  0  0  0  0  0  0
  160.7040  201.6580  147.8660 C   0  0  0  0  0  2  0  0  0  0  0  0
  160.9400  201.3270  150.0350 C   0  0  0  0  0  1  0  0  0  0  0  0
  160.0000  201.2650  149.0070 O   0  0  0  0  0  0  0  0  0  0  0  0
  161.5310  209.3640  150.8370 C   0  0  0  0  0  2  0  0  0  0  0  0
  161.7800  210.3910  151.9250 C   0  0  1  0  0  3  0  0  0  0  0  0
  160.5770  211.2180  152.0900 C   0  0  0  0  0  0  0  0  0  0  0  0
  159.5880  211.8940  152.2310 C   0  0  0  0  0  3  0  0  0  0  0  0
  162.1200  209.6790  153.2250 C   0  0  0  0  0  2  0  0  0  0  0  0
  160.8130  207.7850  154.1640 C   0  0  0  0  0  2  0  0  0  0  0  0
  160.8520  209.2780  153.9670 C   0  0  1  0  0  3  0  0  0  0  0  0
  160.9160  209.8110  155.3770 C   0  0  2  0  0  3  0  0  0  0  0  0
  160.7390  208.6790  156.2750 N   0  0  0  0  0  2  0  0  0  0  0  0
  161.1340  207.5340  155.5600 N   0  0  0  0  0  2  0  0  0  0  0  0
  157.9470  212.7810  156.1730 C   0  0  0  0  0  0  0  0  0  0  0  0
  157.5590  211.5300  155.7900 C   0  0  0  0  0  0  0  0  0  0  0  0
  156.8480  213.6330  156.4020 N   0  0  0  0  0  0  0  0  0  0  0  0
  158.4940  210.5330  155.5100 C   0  0  0  0  0  2  0  0  0  0  0  0
  159.2930  213.1280  156.2940 C   0  0  0  0  0  3  0  0  0  0  0  0
  155.6310  212.8570  156.1530 C   0  0  0  0  0  3  0  0  0  0  0  0
  160.2560  212.1440  156.0180 C   0  0  0  0  0  3  0  0  0  0  0  0
  156.0830  211.4440  155.7220 C   0  0  0  0  0  3  0  0  0  0  0  0
  159.8640  210.8460  155.6280 C   0  0  0  0  0  0  0  0  0  0  0  0
  161.6170  210.9010  148.8600 C   0  0  0  0  0  2  0  0  0  0  0  0
  162.6500  211.8530  148.2800 C   0  0  0  0  0  2  0  0  0  0  0  0
  162.0950  213.2360  148.2030 C   0  0  0  0  0  0  0  0  0  0  0  0
  161.2320  213.5970  148.9870 O   0  0  0  0  0  0  0  0  0  0  0  0
  162.5710  214.1640  147.1340 C   0  0  0  0  0  2  0  0  0  0  0  0
  162.7340  213.4390  145.8850 N   0  0  0  0  0  2  0  0  0  0  0  0
  161.6530  213.8590  145.0090 C   0  0  0  0  0  2  0  0  0  0  0  0
  161.4470  212.8440  143.9280 C   0  0  0  0  0  0  0  0  0  0  0  0
  162.3690  212.6620  143.0560 N   0  0  0  0  0  2  0  0  0  0  0  0
  159.2140  212.5240  144.7270 O   0  0  0  0  0  1  0  0  0  0  0  0
  160.1530  212.1000  143.7840 C   0  0  0  0  0  2  0  0  0  0  0  0
  1  2  1  6  0  0  0
  1 15  1  0  0  0  0
  2  3  2  0  0  0  0
  3  4  2  0  0  0  0
  4  5  1  0  0  0  0
  6  9  1  6  0  0  0
  6 10  1  0  0  0  0
  6  4  1  0  0  0  0
  7  9  1  0  0  0  0
  8  9  2  0  0  0  0
 10 11  1  0  0  0  0
 12 11  1  0  0  0  0
 12 14  1  0  0  0  0
 14 13  1  0  0  0  0
 16 15  1  6  0  0  0
 16 17  1  0  0  0  0
 16 19  1  0  0  0  0
 17 18  3  0  0  0  0
 20 24  1  0  0  0  0
 21 19  1  6  0  0  0
 21 20  1  0  0  0  0
 21 22  1  0  0  0  0
 22 33  1  6  0  0  0
 22 23  1  0  0  0  0
 24 23  1  0  0  0  0
 25 29  2  0  0  0  0
 25 27  1  0  0  0  0
 26 25  1  0  0  0  0
 28 33  1  0  0  0  0
 28 26  1  0  0  0  0
 30 27  2  0  0  0  0
 31 29  1  0  0  0  0
 32 26  2  0  0  0  0
 32 30  1  0  0  0  0
 33 31  2  0  0  0  0
 34  1  1  0  0  0  0
 35 34  1  0  0  0  0
 36 35  1  0  0  0  0
 36 37  2  0  0  0  0
 38 36  1  0  0  0  0
 39 38  1  0  0  0  0
 40 39  1  0  0  0  0
 41 40  1  0  0  0  0
 42 41  2  0  0  0  0
 44 41  1  0  0  0  0
 44 43  1  0  0  0  0
M  END
>  <MODEL>
8

>  <REMARK>
 VINA RESULT:      -5.8      2.979      8.358
  Name = 
  21 active torsions:
  status: ('A' for Active; 'I' for Inactive)
    1  A    between atoms: C_2  and  C_11
    2  A    between atoms: C_2  and  C_21
    3  A    between atoms: C_3  and  C_7
    4  A    between atoms: C_3  and  O_41
    5  A    between atoms: C_4  and  C_10
    6  A    between atoms: C_7  and  N_35
    7  A    between atoms: C_10  and  C_13
    8  A    between atoms: C_10  and  C_31
    9  A    between atoms: C_11  and  C_13
   10  A    between atoms: N_14  and  C_19
   11  A    between atoms: N_14  and  C_21
   12  A    between atoms: C_17  and  C_32
   13  A    between atoms: C_19  and  C_25
   14  A    between atoms: C_20  and  C_22
   15  A    between atoms: C_20  and  C_24
   16  A    between atoms: C_24  and  C_31
   17  A    between atoms: C_24  and  C_34
   18  A    between atoms: C_25  and  C_30
   19  A    between atoms: C_28  and  C_44
   20  A    between atoms: C_29  and  C_32
   21  A    between atoms: C_32  and  N_35
                            x       y       z     vdW  Elec       q    Type
                         _______ _______ _______ _____ _____    ______ ____

>  <TORSDO>
F 21

$$$$
=
 OpenBabel11052411103D

 44 46  0  0  1  0  0  0  0  0999 V2000
  161.0100  207.1070  151.5370 C   0  0  2  0  0  3  0  0  0  0  0  0
  160.8870  206.4830  150.1740 C   0  0  0  0  0  3  0  0  0  0  0  0
  161.0320  205.2030  149.9410 C   0  0  0  0  0  0  0  0  0  0  0  0
  161.1710  203.9290  149.7080 C   0  0  0  0  0  0  0  0  0  0  0  0
  161.5700  203.0170  150.8190 C   0  0  0  0  0  1  0  0  0  0  0  0
  160.9240  203.4020  148.3280 C   0  0  2  0  0  3  0  0  0  0  0  0
  160.9690  201.1820  147.4600 O   0  0  0  0  0  0  0  0  0  0  0  0
  159.6780  201.4680  149.3320 O   0  0  0  0  0  1  0  0  0  0  0  0
  160.5470  201.9540  148.3600 C   0  0  0  0  0  0  0  0  0  0  0  0
  162.0930  203.6120  147.4870 N   0  0  0  0  0  2  0  0  0  0  0  0
  161.6500  204.3690  146.3260 C   0  0  0  0  0  2  0  0  0  0  0  0
  161.9370  205.8470  146.5250 C   0  0  0  0  0  2  0  0  0  0  0  0
  160.1200  206.1270  145.3030 C   0  0  0  0  0  1  0  0  0  0  0  0
  160.7490  206.5800  146.4620 O   0  0  0  0  0  0  0  0  0  0  0  0
  160.4840  208.5410  151.6060 C   0  0  0  0  0  2  0  0  0  0  0  0
  161.6490  209.5100  151.6580 C   0  0  1  0  0  3  0  0  0  0  0  0
  161.9530  209.9690  150.2960 C   0  0  0  0  0  0  0  0  0  0  0  0
  162.2070  210.3420  149.1780 C   0  0  0  0  0  3  0  0  0  0  0  0
  161.2890  210.6880  152.5500 C   0  0  0  0  0  2  0  0  0  0  0  0
  158.9790  210.9860  153.4160 C   0  0  0  0  0  2  0  0  0  0  0  0
  159.8890  211.1950  152.2330 C   0  0  1  0  0  3  0  0  0  0  0  0
  159.9280  212.6960  152.0880 C   0  0  2  0  0  3  0  0  0  0  0  0
  158.9550  213.2450  153.0220 N   0  0  0  0  0  2  0  0  0  0  0  0
  158.7890  212.2870  154.0380 N   0  0  0  0  0  2  0  0  0  0  0  0
  158.9700  213.8570  148.0880 C   0  0  2  0  0  3  0  0  0  0  0  0
  160.2770  213.7010  148.4470 C   0  0  0  0  0  0  0  0  0  0  0  0
  158.8290  214.2320  146.7360 N   0  0  0  0  0  0  0  0  0  0  0  0
  160.6360  213.3330  149.7440 C   0  0  0  0  0  3  0  0  0  0  0  0
  157.9300  213.6670  148.9990 C   0  0  0  0  0  3  0  0  0  0  0  0
  160.1730  214.3190  146.1630 C   0  0  0  0  0  3  0  0  0  0  0  0
  158.2620  213.2970  150.3130 C   0  0  0  0  0  3  0  0  0  0  0  0
  161.1660  213.9840  147.2970 C   0  0  0  0  0  3  0  0  0  0  0  0
  159.6110  213.1270  150.6900 C   0  0  0  0  0  0  0  0  0  0  0  0
  162.4590  207.0470  151.9880 C   0  0  0  0  0  2  0  0  0  0  0  0
  162.5520  206.4620  153.3880 C   0  0  0  0  0  2  0  0  0  0  0  0
  161.2270  205.9260  153.8150 C   0  0  0  0  0  0  0  0  0  0  0  0
  160.7950  204.8940  153.3280 O   0  0  0  0  0  0  0  0  0  0  0  0
  160.4120  206.6830  154.8120 C   0  0  0  0  0  2  0  0  0  0  0  0
  161.2270  207.7050  155.4450 N   0  0  0  0  0  2  0  0  0  0  0  0
  160.3810  208.8750  155.6150 C   0  0  0  0  0  2  0  0  0  0  0  0
  161.0440  209.8550  156.5320 C   0  0  0  0  0  0  0  0  0  0  0  0
  160.3610  210.8340  157.0000 N   0  0  0  0  0  2  0  0  0  0  0  0
  163.2240  210.7840  156.1920 O   0  0  0  0  0  1  0  0  0  0  0  0
  162.5080  209.7760  156.8430 C   0  0  0  0  0  2  0  0  0  0  0  0
  1  2  1  6  0  0  0
  1 15  1  0  0  0  0
  1 34  1  0  0  0  0
  3  2  2  0  0  0  0
  4  3  2  0  0  0  0
  4  5  1  0  0  0  0
  6 10  1  6  0  0  0
  6  9  1  0  0  0  0
  6  4  1  0  0  0  0
  7  9  2  0  0  0  0
  9  8  1  0  0  0  0
 11 12  1  0  0  0  0
 11 10  1  0  0  0  0
 13 14  1  0  0  0  0
 14 12  1  0  0  0  0
 15 16  1  0  0  0  0
 16 17  1  6  0  0  0
 16 19  1  0  0  0  0
 18 17  3  0  0  0  0
 20 24  1  0  0  0  0
 21 19  1  1  0  0  0
 21 20  1  0  0  0  0
 22 33  1  6  0  0  0
 22 21  1  0  0  0  0
 22 23  1  0  0  0  0
 23 24  1  0  0  0  0
 25 26  1  0  0  0  0
 25 29  1  1  0  0  0
 26 28  1  0  0  0  0
 27 25  1  0  0  0  0
 28 33  2  0  0  0  0
 29 31  2  0  0  0  0
 30 27  2  0  0  0  0
 30 32  1  0  0  0  0
 31 33  1  0  0  0  0
 32 26  2  0  0  0  0
 34 35  1  0  0  0  0
 35 36  1  0  0  0  0
 36 38  1  0  0  0  0
 37 36  2  0  0  0  0
 38 39  1  0  0  0  0
 39 40  1  0  0  0  0
 40 41  1  0  0  0  0
 41 44  1  0  0  0  0
 41 42  2  0  0  0  0
 43 44  1  0  0  0  0
M  END
>  <MODEL>
9

>  <REMARK>
 VINA RESULT:      -5.7      3.332     10.016
  Name = 
  21 active torsions:
  status: ('A' for Active; 'I' for Inactive)
    1  A    between atoms: C_2  and  C_11
    2  A    between atoms: C_2  and  C_21
    3  A    between atoms: C_3  and  C_7
    4  A    between atoms: C_3  and  O_41
    5  A    between atoms: C_4  and  C_10
    6  A    between atoms: C_7  and  N_35
    7  A    between atoms: C_10  and  C_13
    8  A    between atoms: C_10  and  C_31
    9  A    between atoms: C_11  and  C_13
   10  A    between atoms: N_14  and  C_19
   11  A    between atoms: N_14  and  C_21
   12  A    between atoms: C_17  and  C_32
   13  A    between atoms: C_19  and  C_25
   14  A    between atoms: C_20  and  C_22
   15  A    between atoms: C_20  and  C_24
   16  A    between atoms: C_24  and  C_31
   17  A    between atoms: C_24  and  C_34
   18  A    between atoms: C_25  and  C_30
   19  A    between atoms: C_28  and  C_44
   20  A    between atoms: C_29  and  C_32
   21  A    between atoms: C_32  and  N_35
                            x       y       z     vdW  Elec       q    Type
                         _______ _______ _______ _____ _____    ______ ____

>  <TORSDO>
F 21

$$$$
