=
 OpenBabel11042421093D

 28 31  0  0  1  0  0  0  0  0999 V2000
  162.0350  210.1850  154.9590 N   0  0  0  0  0  0  0  0  0  0  0  0
  159.9060  210.4330  157.0570 C   0  0  0  0  0  3  0  0  0  0  0  0
  159.6580  210.6430  154.5530 C   0  0  0  0  0  0  0  0  0  0  0  0
  163.7920  211.0680  156.7270 Cl  0  0  0  0  0  0  0  0  0  0  0  0
  159.1910  210.7600  155.8090 C   0  0  0  0  0  3  0  0  0  0  0  0
  160.9660  210.0110  154.2370 C   0  0  0  0  0  0  0  0  0  0  0  0
  162.1150  211.0350  156.1370 C   0  0  2  0  0  3  0  0  0  0  0  0
  161.2250  210.5200  157.2140 C   0  0  0  0  0  3  0  0  0  0  0  0
  161.6680  209.8760  150.8450 C   0  0  0  0  0  2  0  0  0  0  0  0
  162.1830  209.6180  152.1810 N   0  0  0  0  0  2  0  0  0  0  0  0
  161.1980  207.6990  153.3500 C   0  0  0  0  0  2  0  0  0  0  0  0
  160.9290  206.8190  152.1370 C   0  0  0  0  0  2  0  0  0  0  0  0
  161.5000  207.4800  150.0930 C   0  0  1  0  0  3  0  0  0  0  0  0
  162.0090  206.8780  151.2510 O   0  0  0  0  0  0  0  0  0  0  0  0
  162.1790  208.8270  149.8660 C   0  0  0  0  0  2  0  0  0  0  0  0
  161.0600  209.1770  152.9960 C   0  0  1  0  0  3  0  0  0  0  0  0
  161.7040  206.5980  148.8930 C   0  0  0  0  0  0  0  0  0  0  0  0
  161.1630  205.2060  148.8470 C   0  0  0  0  0  1  0  0  0  0  0  0
  162.3120  207.0310  147.9270 O   0  0  0  0  0  0  0  0  0  0  0  0
  158.8100  210.9850  153.4450 N   0  0  0  0  0  2  0  0  0  0  0  0
  158.7400  212.9850  151.8590 C   0  0  0  0  0  3  0  0  0  0  0  0
  155.4160  213.6260  153.9080 C   0  0  0  0  0  3  0  0  0  0  0  0
  157.1510  214.0560  152.8070 N   0  0  0  0  0  0  0  0  0  0  0  0
  157.9080  214.0580  151.7260 N   0  0  0  0  0  2  0  0  0  0  0  0
  157.3810  213.0300  153.5690 C   0  0  0  0  0  0  0  0  0  0  0  0
  158.4110  212.3010  153.0420 C   0  0  0  0  0  0  0  0  0  0  0  0
  156.3160  212.6720  154.3010 N   0  0  0  0  0  0  0  0  0  0  0  0
  155.9060  214.4530  152.9400 N   0  0  0  0  0  0  0  0  0  0  0  0
  1  7  1  0  0  0  0
  2  8  2  0  0  0  0
  3  5  2  0  0  0  0
  5  2  1  0  0  0  0
  6  3  1  0  0  0  0
  6  1  2  0  0  0  0
  7  4  1  1  0  0  0
  7  8  1  0  0  0  0
  9 10  1  0  0  0  0
 10 16  1  0  0  0  0
 12 11  1  0  0  0  0
 13 17  1  6  0  0  0
 13 14  1  0  0  0  0
 14 12  1  0  0  0  0
 15 13  1  0  0  0  0
 15  9  1  0  0  0  0
 16 11  1  0  0  0  0
 16  6  1  1  0  0  0
 18 17  1  0  0  0  0
 19 17  2  0  0  0  0
 20  3  1  0  0  0  0
 21 26  2  0  0  0  0
 22 27  1  0  0  0  0
 23 28  1  0  0  0  0
 23 25  1  0  0  0  0
 24 21  1  0  0  0  0
 24 23  1  0  0  0  0
 25 27  2  0  0  0  0
 26 20  1  0  0  0  0
 26 25  1  0  0  0  0
 28 22  2  0  0  0  0
M  END
>  <MODEL>
1

>  <REMARK>
 VINA RESULT:      -6.5      0.000      0.000
  Name = 
  4 active torsions:
  status: ('A' for Active; 'I' for Inactive)
    1  A    between atoms: C_4  and  C_21
    2  A    between atoms: N_9  and  C_10
    3  A    between atoms: N_9  and  C_19
    4  A    between atoms: C_20  and  C_28
                            x       y       z     vdW  Elec       q    Type
                         _______ _______ _______ _____ _____    ______ ____

>  <TORSDO>
F 4

$$$$
=
 OpenBabel11042421093D

 28 31  0  0  1  0  0  0  0  0999 V2000
  161.1950  208.3280  153.4480 N   0  0  0  0  0  0  0  0  0  0  0  0
  159.6320  210.7920  154.1430 C   0  0  0  0  0  3  0  0  0  0  0  0
  161.0350  210.3650  152.0870 C   0  0  0  0  0  0  0  0  0  0  0  0
  161.5130  207.8760  156.0330 Cl  0  0  0  0  0  0  0  0  0  0  0  0
  160.3240  211.1710  152.8970 C   0  0  0  0  0  3  0  0  0  0  0  0
  161.1040  208.8920  152.2780 C   0  0  0  0  0  0  0  0  0  0  0  0
  161.2770  209.0420  154.7130 C   0  0  2  0  0  3  0  0  0  0  0  0
  160.0270  209.8160  154.9560 C   0  0  0  0  0  3  0  0  0  0  0  0
  162.1270  208.4870  148.9910 C   0  0  0  0  0  2  0  0  0  0  0  0
  162.4060  208.1460  150.3770 N   0  0  0  0  0  2  0  0  0  0  0  0
  160.8390  206.5730  151.4210 C   0  0  0  0  0  2  0  0  0  0  0  0
  160.4930  205.7560  150.1840 C   0  0  0  0  0  2  0  0  0  0  0  0
  161.4400  206.1920  148.2210 C   0  0  1  0  0  3  0  0  0  0  0  0
  161.6440  205.5140  149.4290 O   0  0  0  0  0  0  0  0  0  0  0  0
  162.4610  207.3160  148.0760 C   0  0  0  0  0  2  0  0  0  0  0  0
  161.1230  208.0270  151.0550 C   0  0  1  0  0  3  0  0  0  0  0  0
  161.5470  205.2540  147.0510 C   0  0  0  0  0  0  0  0  0  0  0  0
  161.6780  203.7780  147.2440 C   0  0  0  0  0  1  0  0  0  0  0  0
  161.5110  205.7030  145.9170 O   0  0  0  0  0  0  0  0  0  0  0  0
  161.6240  210.9000  150.8920 N   0  0  0  0  0  2  0  0  0  0  0  0
  160.2460  212.9990  150.4250 C   0  0  0  0  0  3  0  0  0  0  0  0
  162.7690  213.1500  147.3790 C   0  0  0  0  0  3  0  0  0  0  0  0
  160.9870  213.4050  148.4610 N   0  0  0  0  0  0  0  0  0  0  0  0
  160.2350  213.9180  149.4150 N   0  0  0  0  0  2  0  0  0  0  0  0
  161.5340  212.2810  148.8130 C   0  0  0  0  0  0  0  0  0  0  0  0
  161.0870  211.9340  150.0570 C   0  0  0  0  0  0  0  0  0  0  0  0
  162.6920  212.0410  148.1800 N   0  0  0  0  0  0  0  0  0  0  0  0
  161.7460  214.0270  147.5870 N   0  0  0  0  0  0  0  0  0  0  0  0
  1  7  1  0  0  0  0
  2  8  2  0  0  0  0
  3  6  1  0  0  0  0
  3  5  2  0  0  0  0
  5  2  1  0  0  0  0
  6  1  2  0  0  0  0
  7  8  1  0  0  0  0
  7  4  1  1  0  0  0
  9 10  1  0  0  0  0
 10 16  1  0  0  0  0
 12 11  1  0  0  0  0
 13 17  1  6  0  0  0
 13 14  1  0  0  0  0
 14 12  1  0  0  0  0
 15 13  1  0  0  0  0
 15  9  1  0  0  0  0
 16 11  1  0  0  0  0
 16  6  1  1  0  0  0
 17 18  1  0  0  0  0
 19 17  2  0  0  0  0
 20  3  1  0  0  0  0
 22 28  2  0  0  0  0
 22 27  1  0  0  0  0
 23 25  1  0  0  0  0
 23 24  1  0  0  0  0
 24 21  1  0  0  0  0
 25 26  1  0  0  0  0
 26 21  2  0  0  0  0
 26 20  1  0  0  0  0
 27 25  2  0  0  0  0
 28 23  1  0  0  0  0
M  END
>  <MODEL>
2

>  <REMARK>
 VINA RESULT:      -6.2      2.874      4.164
  Name = 
  4 active torsions:
  status: ('A' for Active; 'I' for Inactive)
    1  A    between atoms: C_4  and  C_21
    2  A    between atoms: N_9  and  C_10
    3  A    between atoms: N_9  and  C_19
    4  A    between atoms: C_20  and  C_28
                            x       y       z     vdW  Elec       q    Type
                         _______ _______ _______ _____ _____    ______ ____

>  <TORSDO>
F 4

$$$$
=
 OpenBabel11042421093D

 28 31  0  0  1  0  0  0  0  0999 V2000
  161.5390  209.3740  152.8640 N   0  0  0  0  0  0  0  0  0  0  0  0
  160.1450  212.0150  152.5810 C   0  0  0  0  0  3  0  0  0  0  0  0
  161.3800  210.7070  150.8090 C   0  0  0  0  0  0  0  0  0  0  0  0
  162.0150  209.9670  155.3960 Cl  0  0  0  0  0  0  0  0  0  0  0  0
  160.7660  211.8170  151.2580 C   0  0  0  0  0  3  0  0  0  0  0  0
  161.3930  209.4310  151.5710 C   0  0  0  0  0  0  0  0  0  0  0  0
  161.7420  210.5250  153.7310 C   0  0  2  0  0  3  0  0  0  0  0  0
  160.5510  211.4180  153.6990 C   0  0  0  0  0  3  0  0  0  0  0  0
  161.8180  207.7890  148.5480 C   0  0  0  0  0  2  0  0  0  0  0  0
  162.3930  208.0380  149.8610 N   0  0  0  0  0  2  0  0  0  0  0  0
  161.2540  206.9540  151.7450 C   0  0  0  0  0  2  0  0  0  0  0  0
  160.7830  205.7000  151.0220 C   0  0  0  0  0  2  0  0  0  0  0  0
  161.2820  205.3530  148.8840 C   0  0  1  0  0  3  0  0  0  0  0  0
  161.7920  205.2200  150.1820 O   0  0  0  0  0  0  0  0  0  0  0  0
  162.1130  206.3630  148.1000 C   0  0  0  0  0  2  0  0  0  0  0  0
  161.2850  208.1510  150.8000 C   0  0  1  0  0  3  0  0  0  0  0  0
  161.2790  204.0310  148.1680 C   0  0  0  0  0  0  0  0  0  0  0  0
  160.8180  202.7800  148.8420 C   0  0  0  0  0  1  0  0  0  0  0  0
  161.6480  203.9770  147.0060 O   0  0  0  0  0  0  0  0  0  0  0  0
  161.9090  210.6790  149.4730 N   0  0  0  0  0  2  0  0  0  0  0  0
  163.3160  212.3940  148.2080 C   0  0  0  0  0  3  0  0  0  0  0  0
  160.0290  212.4530  146.0060 C   0  0  0  0  0  3  0  0  0  0  0  0
  161.7760  213.1550  146.9350 N   0  0  0  0  0  0  0  0  0  0  0  0
  163.0780  213.2090  147.1400 N   0  0  0  0  0  2  0  0  0  0  0  0
  161.1850  212.3150  147.7310 C   0  0  0  0  0  0  0  0  0  0  0  0
  162.1040  211.8000  148.6020 C   0  0  0  0  0  0  0  0  0  0  0  0
  160.0620  211.8010  147.2100 N   0  0  0  0  0  0  0  0  0  0  0  0
  161.1160  213.2510  145.8030 N   0  0  0  0  0  0  0  0  0  0  0  0
  1  7  1  0  0  0  0
  2  8  2  0  0  0  0
  3  5  2  0  0  0  0
  3  6  1  0  0  0  0
  5  2  1  0  0  0  0
  6  1  2  0  0  0  0
  7  4  1  1  0  0  0
  8  7  1  0  0  0  0
  9 10  1  0  0  0  0
 10 16  1  0  0  0  0
 12 11  1  0  0  0  0
 13 17  1  6  0  0  0
 13 14  1  0  0  0  0
 14 12  1  0  0  0  0
 15  9  1  0  0  0  0
 15 13  1  0  0  0  0
 16  6  1  1  0  0  0
 16 11  1  0  0  0  0
 17 18  1  0  0  0  0
 19 17  2  0  0  0  0
 20  3  1  0  0  0  0
 21 26  2  0  0  0  0
 22 27  1  0  0  0  0
 23 24  1  0  0  0  0
 23 25  1  0  0  0  0
 24 21  1  0  0  0  0
 25 26  1  0  0  0  0
 26 20  1  0  0  0  0
 27 25  2  0  0  0  0
 28 22  2  0  0  0  0
 28 23  1  0  0  0  0
M  END
>  <MODEL>
3

>  <REMARK>
 VINA RESULT:      -5.9      3.267      4.828
  Name = 
  4 active torsions:
  status: ('A' for Active; 'I' for Inactive)
    1  A    between atoms: C_4  and  C_21
    2  A    between atoms: N_9  and  C_10
    3  A    between atoms: N_9  and  C_19
    4  A    between atoms: C_20  and  C_28
                            x       y       z     vdW  Elec       q    Type
                         _______ _______ _______ _____ _____    ______ ____

>  <TORSDO>
F 4

$$$$
=
 OpenBabel11042421093D

 28 31  0  0  1  0  0  0  0  0999 V2000
  161.9810  209.9060  155.3200 N   0  0  0  0  0  0  0  0  0  0  0  0
  159.8090  211.1480  156.9750 C   0  0  0  0  0  3  0  0  0  0  0  0
  159.7730  210.6100  154.5090 C   0  0  0  0  0  0  0  0  0  0  0  0
  163.7560  210.9850  156.9550 Cl  0  0  0  0  0  0  0  0  0  0  0  0
  159.2570  211.1880  155.6080 C   0  0  0  0  0  3  0  0  0  0  0  0
  160.9480  209.7000  154.5540 C   0  0  0  0  0  0  0  0  0  0  0  0
  162.1490  211.0540  156.1990 C   0  0  2  0  0  3  0  0  0  0  0  0
  161.1050  211.0560  157.2610 C   0  0  0  0  0  3  0  0  0  0  0  0
  161.2900  208.5140  151.3150 C   0  0  0  0  0  2  0  0  0  0  0  0
  161.9590  208.7030  152.5930 N   0  0  0  0  0  2  0  0  0  0  0  0
  161.2170  207.2320  154.4110 C   0  0  0  0  0  2  0  0  0  0  0  0
  160.8700  206.0080  153.5730 C   0  0  0  0  0  2  0  0  0  0  0  0
  161.1800  206.0010  151.3720 C   0  0  1  0  0  3  0  0  0  0  0  0
  161.8430  205.8060  152.5900 O   0  0  0  0  0  0  0  0  0  0  0  0
  161.7520  207.2210  150.6580 C   0  0  0  0  0  2  0  0  0  0  0  0
  160.9570  208.5190  153.6330 C   0  0  1  0  0  3  0  0  0  0  0  0
  161.3050  204.7890  150.4910 C   0  0  0  0  0  0  0  0  0  0  0  0
  161.2460  204.8990  149.0020 C   0  0  0  0  0  1  0  0  0  0  0  0
  161.4710  203.6920  150.9990 O   0  0  0  0  0  0  0  0  0  0  0  0
  159.0840  210.7290  153.2530 N   0  0  0  0  0  2  0  0  0  0  0  0
  157.8340  212.9550  153.1940 C   0  0  0  0  0  3  0  0  0  0  0  0
  160.4480  213.5660  150.2870 C   0  0  0  0  0  3  0  0  0  0  0  0
  158.6520  213.7020  151.3660 N   0  0  0  0  0  0  0  0  0  0  0  0
  157.9010  214.0560  152.3910 N   0  0  0  0  0  2  0  0  0  0  0  0
  159.1280  212.5010  151.4940 C   0  0  0  0  0  0  0  0  0  0  0  0
  158.6280  211.9380  152.6350 C   0  0  0  0  0  0  0  0  0  0  0  0
  160.2900  212.3260  150.8470 N   0  0  0  0  0  0  0  0  0  0  0  0
  159.4670  214.4420  150.6500 N   0  0  0  0  0  0  0  0  0  0  0  0
  1  7  1  0  0  0  0
  2  8  2  0  0  0  0
  3  6  1  0  0  0  0
  3  5  2  0  0  0  0
  5  2  1  0  0  0  0
  6  1  2  0  0  0  0
  7  4  1  1  0  0  0
  7  8  1  0  0  0  0
  9 10  1  0  0  0  0
 10 16  1  0  0  0  0
 12 11  1  0  0  0  0
 13 17  1  6  0  0  0
 13 14  1  0  0  0  0
 14 12  1  0  0  0  0
 15  9  1  0  0  0  0
 15 13  1  0  0  0  0
 16 11  1  0  0  0  0
 16  6  1  1  0  0  0
 17 19  2  0  0  0  0
 18 17  1  0  0  0  0
 20  3  1  0  0  0  0
 22 28  2  0  0  0  0
 22 27  1  0  0  0  0
 23 25  1  0  0  0  0
 23 24  1  0  0  0  0
 24 21  1  0  0  0  0
 25 26  1  0  0  0  0
 26 21  2  0  0  0  0
 26 20  1  0  0  0  0
 27 25  2  0  0  0  0
 28 23  1  0  0  0  0
M  END
>  <MODEL>
4

>  <REMARK>
 VINA RESULT:      -5.8      1.471      2.294
  Name = 
  4 active torsions:
  status: ('A' for Active; 'I' for Inactive)
    1  A    between atoms: C_4  and  C_21
    2  A    between atoms: N_9  and  C_10
    3  A    between atoms: N_9  and  C_19
    4  A    between atoms: C_20  and  C_28
                            x       y       z     vdW  Elec       q    Type
                         _______ _______ _______ _____ _____    ______ ____

>  <TORSDO>
F 4

$$$$
=
 OpenBabel11042421093D

 28 31  0  0  1  0  0  0  0  0999 V2000
  160.7690  208.0940  152.8330 N   0  0  0  0  0  0  0  0  0  0  0  0
  162.0420  205.3950  153.1360 C   0  0  0  0  0  3  0  0  0  0  0  0
  160.9820  206.3950  151.0740 C   0  0  0  0  0  0  0  0  0  0  0  0
  160.1130  208.0020  155.3930 Cl  0  0  0  0  0  0  0  0  0  0  0  0
  161.5110  205.3660  151.7590 C   0  0  0  0  0  3  0  0  0  0  0  0
  160.9880  207.7910  151.5860 C   0  0  0  0  0  0  0  0  0  0  0  0
  160.4560  207.1330  153.8810 C   0  0  2  0  0  3  0  0  0  0  0  0
  161.6010  206.2050  154.0950 C   0  0  0  0  0  3  0  0  0  0  0  0
  160.8420  211.1900  150.9230 C   0  0  0  0  0  2  0  0  0  0  0  0
  161.7120  210.0820  151.2840 N   0  0  0  0  0  2  0  0  0  0  0  0
  162.1660  208.4600  149.5000 C   0  0  0  0  0  2  0  0  0  0  0  0
  162.1150  209.4160  148.3170 C   0  0  0  0  0  2  0  0  0  0  0  0
  161.7650  211.5910  148.6160 C   0  0  1  0  0  3  0  0  0  0  0  0
  162.7660  210.6120  148.6360 O   0  0  0  0  0  0  0  0  0  0  0  0
  161.5750  212.1690  150.0150 C   0  0  0  0  0  2  0  0  0  0  0  0
  161.2060  208.8990  150.6020 C   0  0  1  0  0  3  0  0  0  0  0  0
  162.1070  212.6930  147.6520 C   0  0  0  0  0  0  0  0  0  0  0  0
  161.2840  212.9440  146.4310 C   0  0  0  0  0  1  0  0  0  0  0  0
  163.0700  213.4080  147.8760 O   0  0  0  0  0  0  0  0  0  0  0  0
  160.5360  206.1950  149.7230 N   0  0  0  0  0  2  0  0  0  0  0  0
  161.2060  203.8860  148.8610 C   0  0  0  0  0  3  0  0  0  0  0  0
  160.8550  205.8200  145.4260 C   0  0  0  0  0  3  0  0  0  0  0  0
  161.5730  204.4290  146.8250 N   0  0  0  0  0  0  0  0  0  0  0  0
  161.4770  203.3820  147.6220 N   0  0  0  0  0  2  0  0  0  0  0  0
  161.3070  205.5420  147.4390 C   0  0  0  0  0  0  0  0  0  0  0  0
  161.0850  205.2830  148.7630 C   0  0  0  0  0  0  0  0  0  0  0  0
  160.8250  206.4890  146.6210 N   0  0  0  0  0  0  0  0  0  0  0  0
  161.2640  204.5250  145.5520 N   0  0  0  0  0  0  0  0  0  0  0  0
  1  7  1  0  0  0  0
  2  8  2  0  0  0  0
  3  6  1  0  0  0  0
  3  5  2  0  0  0  0
  5  2  1  0  0  0  0
  6  1  2  0  0  0  0
  7  8  1  0  0  0  0
  7  4  1  1  0  0  0
  9 10  1  0  0  0  0
 11 16  1  0  0  0  0
 12 14  1  0  0  0  0
 12 11  1  0  0  0  0
 13 17  1  6  0  0  0
 13 14  1  0  0  0  0
 13 15  1  0  0  0  0
 15  9  1  0  0  0  0
 16 10  1  0  0  0  0
 16  6  1  1  0  0  0
 17 19  2  0  0  0  0
 18 17  1  0  0  0  0
 20  3  1  0  0  0  0
 22 28  2  0  0  0  0
 22 27  1  0  0  0  0
 23 25  1  0  0  0  0
 23 24  1  0  0  0  0
 24 21  1  0  0  0  0
 25 26  1  0  0  0  0
 26 21  2  0  0  0  0
 26 20  1  0  0  0  0
 27 25  2  0  0  0  0
 28 23  1  0  0  0  0
M  END
>  <MODEL>
5

>  <REMARK>
 VINA RESULT:      -5.7      4.046      7.436
  Name = 
  4 active torsions:
  status: ('A' for Active; 'I' for Inactive)
    1  A    between atoms: C_4  and  C_21
    2  A    between atoms: N_9  and  C_10
    3  A    between atoms: N_9  and  C_19
    4  A    between atoms: C_20  and  C_28
                            x       y       z     vdW  Elec       q    Type
                         _______ _______ _______ _____ _____    ______ ____

>  <TORSDO>
F 4

$$$$
=
 OpenBabel11042421093D

 28 31  0  0  1  0  0  0  0  0999 V2000
  159.9700  210.3170  154.2530 N   0  0  0  0  0  0  0  0  0  0  0  0
  161.5810  208.2460  155.7060 C   0  0  0  0  0  3  0  0  0  0  0  0
  160.7970  208.2090  153.3060 C   0  0  0  0  0  0  0  0  0  0  0  0
  158.8500  210.9710  156.5570 Cl  0  0  0  0  0  0  0  0  0  0  0  0
  161.3420  207.6260  154.3880 C   0  0  0  0  0  3  0  0  0  0  0  0
  160.4750  209.6600  153.2490 C   0  0  0  0  0  0  0  0  0  0  0  0
  159.6190  209.7340  155.5390 C   0  0  2  0  0  3  0  0  0  0  0  0
  160.8350  209.2170  156.2260 C   0  0  0  0  0  3  0  0  0  0  0  0
  159.7440  212.4000  151.2570 C   0  0  0  0  0  2  0  0  0  0  0  0
  160.7100  211.8180  152.1760 N   0  0  0  0  0  2  0  0  0  0  0  0
  162.0010  209.9230  151.3030 C   0  0  0  0  0  2  0  0  0  0  0  0
  162.0630  210.3550  149.8440 C   0  0  0  0  0  2  0  0  0  0  0  0
  161.1550  212.2710  149.1770 C   0  0  1  0  0  3  0  0  0  0  0  0
  162.3070  211.7290  149.7590 O   0  0  0  0  0  0  0  0  0  0  0  0
  160.4560  213.1940  150.1700 C   0  0  0  0  0  2  0  0  0  0  0  0
  160.6990  210.3780  151.9540 C   0  0  1  0  0  3  0  0  0  0  0  0
  161.4900  213.0300  147.9240 C   0  0  0  0  0  0  0  0  0  0  0  0
  162.6530  213.9650  147.8650 C   0  0  0  0  0  1  0  0  0  0  0  0
  160.8060  212.8710  146.9260 O   0  0  0  0  0  0  0  0  0  0  0  0
  160.6630  207.4600  152.0870 N   0  0  0  0  0  2  0  0  0  0  0  0
  161.2040  205.0480  152.7260 C   0  0  0  0  0  3  0  0  0  0  0  0
  160.8530  204.6510  148.8040 C   0  0  0  0  0  3  0  0  0  0  0  0
  161.5420  204.2910  150.7550 N   0  0  0  0  0  0  0  0  0  0  0  0
  161.4200  203.9050  152.0100 N   0  0  0  0  0  2  0  0  0  0  0  0
  161.3440  205.5670  150.6080 C   0  0  0  0  0  0  0  0  0  0  0  0
  161.1450  206.1340  151.8360 C   0  0  0  0  0  0  0  0  0  0  0  0
  160.8850  205.8880  149.3900 N   0  0  0  0  0  0  0  0  0  0  0  0
  161.2050  203.6480  149.6600 N   0  0  0  0  0  0  0  0  0  0  0  0
  1  7  1  0  0  0  0
  2  8  2  0  0  0  0
  3  5  2  0  0  0  0
  5  2  1  0  0  0  0
  6  3  1  0  0  0  0
  6  1  2  0  0  0  0
  7  8  1  0  0  0  0
  7  4  1  1  0  0  0
  9 10  1  0  0  0  0
 11 16  1  0  0  0  0
 12 11  1  0  0  0  0
 13 17  1  6  0  0  0
 13 14  1  0  0  0  0
 13 15  1  0  0  0  0
 14 12  1  0  0  0  0
 15  9  1  0  0  0  0
 16 10  1  0  0  0  0
 16  6  1  1  0  0  0
 18 17  1  0  0  0  0
 19 17  2  0  0  0  0
 20  3  1  0  0  0  0
 22 27  1  0  0  0  0
 22 28  2  0  0  0  0
 23 24  1  0  0  0  0
 24 21  1  0  0  0  0
 25 23  1  0  0  0  0
 25 26  1  0  0  0  0
 26 20  1  0  0  0  0
 26 21  2  0  0  0  0
 27 25  2  0  0  0  0
 28 23  1  0  0  0  0
M  END
>  <MODEL>
6

>  <REMARK>
 VINA RESULT:      -5.6      3.372      6.515
  Name = 
  4 active torsions:
  status: ('A' for Active; 'I' for Inactive)
    1  A    between atoms: C_4  and  C_21
    2  A    between atoms: N_9  and  C_10
    3  A    between atoms: N_9  and  C_19
    4  A    between atoms: C_20  and  C_28
                            x       y       z     vdW  Elec       q    Type
                         _______ _______ _______ _____ _____    ______ ____

>  <TORSDO>
F 4

$$$$
=
 OpenBabel11042421093D

 28 31  0  0  1  0  0  0  0  0999 V2000
  160.9290  208.1950  153.0360 N   0  0  0  0  0  0  0  0  0  0  0  0
  162.3500  205.5670  152.7660 C   0  0  0  0  0  3  0  0  0  0  0  0
  161.0260  206.8100  151.0110 C   0  0  0  0  0  0  0  0  0  0  0  0
  160.5630  207.6620  155.6000 Cl  0  0  0  0  0  0  0  0  0  0  0  0
  161.6740  205.7220  151.4640 C   0  0  0  0  0  3  0  0  0  0  0  0
  161.0240  208.1060  151.7400 C   0  0  0  0  0  0  0  0  0  0  0  0
  160.7780  207.0650  153.9400 C   0  0  2  0  0  3  0  0  0  0  0  0
  161.9810  206.1870  153.8840 C   0  0  0  0  0  3  0  0  0  0  0  0
  160.1990  211.4630  151.4880 C   0  0  0  0  0  2  0  0  0  0  0  0
  161.2540  210.5160  151.8100 N   0  0  0  0  0  2  0  0  0  0  0  0
  162.2090  209.2970  149.9070 C   0  0  0  0  0  2  0  0  0  0  0  0
  162.0560  210.3840  148.8520 C   0  0  0  0  0  2  0  0  0  0  0  0
  161.2150  212.3750  149.3730 C   0  0  1  0  0  3  0  0  0  0  0  0
  162.3990  211.6280  149.3900 O   0  0  0  0  0  0  0  0  0  0  0  0
  160.7790  212.6920  150.8000 C   0  0  0  0  0  2  0  0  0  0  0  0
  161.0820  209.3660  150.9330 C   0  0  1  0  0  3  0  0  0  0  0  0
  161.3930  213.6510  148.5990 C   0  0  0  0  0  0  0  0  0  0  0  0
  162.6700  213.9610  147.8890 C   0  0  0  0  0  1  0  0  0  0  0  0
  160.4700  214.4480  148.5360 O   0  0  0  0  0  0  0  0  0  0  0  0
  160.4440  206.7960  149.6980 N   0  0  0  0  0  2  0  0  0  0  0  0
  161.9440  206.5830  147.6420 C   0  0  0  0  0  3  0  0  0  0  0  0
  161.2140  202.7590  148.3510 C   0  0  0  0  0  3  0  0  0  0  0  0
  161.6210  204.5050  147.2580 N   0  0  0  0  0  0  0  0  0  0  0  0
  162.3610  205.5300  146.8810 N   0  0  0  0  0  2  0  0  0  0  0  0
  160.8310  204.8030  148.2450 C   0  0  0  0  0  0  0  0  0  0  0  0
  160.9580  206.1320  148.5370 C   0  0  0  0  0  0  0  0  0  0  0  0
  160.5290  203.7440  149.0110 N   0  0  0  0  0  0  0  0  0  0  0  0
  161.9400  203.2310  147.2970 N   0  0  0  0  0  0  0  0  0  0  0  0
  1  7  1  0  0  0  0
  2  8  2  0  0  0  0
  3  5  2  0  0  0  0
  3  6  1  0  0  0  0
  5  2  1  0  0  0  0
  6  1  2  0  0  0  0
  7  4  1  1  0  0  0
  8  7  1  0  0  0  0
  9 10  1  0  0  0  0
 11 16  1  0  0  0  0
 12 14  1  0  0  0  0
 12 11  1  0  0  0  0
 13 17  1  6  0  0  0
 13 14  1  0  0  0  0
 13 15  1  0  0  0  0
 15  9  1  0  0  0  0
 16  6  1  1  0  0  0
 16 10  1  0  0  0  0
 18 17  1  0  0  0  0
 19 17  2  0  0  0  0
 20  3  1  0  0  0  0
 21 26  2  0  0  0  0
 22 27  1  0  0  0  0
 23 28  1  0  0  0  0
 23 25  1  0  0  0  0
 24 23  1  0  0  0  0
 24 21  1  0  0  0  0
 25 26  1  0  0  0  0
 25 27  2  0  0  0  0
 26 20  1  0  0  0  0
 28 22  2  0  0  0  0
M  END
>  <MODEL>
7

>  <REMARK>
 VINA RESULT:      -5.6      3.902      7.481
  Name = 
  4 active torsions:
  status: ('A' for Active; 'I' for Inactive)
    1  A    between atoms: C_4  and  C_21
    2  A    between atoms: N_9  and  C_10
    3  A    between atoms: N_9  and  C_19
    4  A    between atoms: C_20  and  C_28
                            x       y       z     vdW  Elec       q    Type
                         _______ _______ _______ _____ _____    ______ ____

>  <TORSDO>
F 4

$$$$
=
 OpenBabel11042421093D

 28 31  0  0  1  0  0  0  0  0999 V2000
  161.4320  208.1240  153.7810 N   0  0  0  0  0  0  0  0  0  0  0  0
  159.7110  210.5600  154.1040 C   0  0  0  0  0  3  0  0  0  0  0  0
  161.2070  209.9560  152.1620 C   0  0  0  0  0  0  0  0  0  0  0  0
  161.6830  208.0300  156.4110 Cl  0  0  0  0  0  0  0  0  0  0  0  0
  160.4250  210.8150  152.8380 C   0  0  0  0  0  3  0  0  0  0  0  0
  161.3510  208.5260  152.5450 C   0  0  0  0  0  0  0  0  0  0  0  0
  161.4290  209.0000  154.9430 C   0  0  2  0  0  3  0  0  0  0  0  0
  160.1310  209.7220  155.0490 C   0  0  0  0  0  3  0  0  0  0  0  0
  161.8070  205.2070  151.6590 C   0  0  0  0  0  2  0  0  0  0  0  0
  160.8290  206.2650  151.8540 N   0  0  0  0  0  2  0  0  0  0  0  0
  160.8310  208.0420  150.1620 C   0  0  0  0  0  2  0  0  0  0  0  0
  161.2490  207.2010  148.9630 C   0  0  0  0  0  2  0  0  0  0  0  0
  161.5840  205.0120  149.1600 C   0  0  1  0  0  3  0  0  0  0  0  0
  160.5810  205.9730  148.9800 O   0  0  0  0  0  0  0  0  0  0  0  0
  161.3960  204.3080  150.5000 C   0  0  0  0  0  2  0  0  0  0  0  0
  161.4600  207.5130  151.4470 C   0  0  1  0  0  3  0  0  0  0  0  0
  161.5680  204.0020  148.0470 C   0  0  0  0  0  0  0  0  0  0  0  0
  161.9890  204.3630  146.6600 C   0  0  0  0  0  1  0  0  0  0  0  0
  161.2170  202.8570  148.2820 O   0  0  0  0  0  0  0  0  0  0  0  0
  161.8070  210.3660  150.9230 N   0  0  0  0  0  2  0  0  0  0  0  0
  160.5900  212.5520  150.4130 C   0  0  0  0  0  3  0  0  0  0  0  0
  163.2750  212.5730  147.5050 C   0  0  0  0  0  3  0  0  0  0  0  0
  161.4580  212.9300  148.4950 N   0  0  0  0  0  0  0  0  0  0  0  0
  160.6900  213.4800  149.4160 N   0  0  0  0  0  2  0  0  0  0  0  0
  161.9140  211.7700  148.8600 C   0  0  0  0  0  0  0  0  0  0  0  0
  161.3810  211.4400  150.0750 C   0  0  0  0  0  0  0  0  0  0  0  0
  163.0860  211.4640  148.2860 N   0  0  0  0  0  0  0  0  0  0  0  0
  162.2990  213.5120  147.6710 N   0  0  0  0  0  0  0  0  0  0  0  0
  1  7  1  0  0  0  0
  2  8  2  0  0  0  0
  3  6  1  0  0  0  0
  3  5  2  0  0  0  0
  5  2  1  0  0  0  0
  6  1  2  0  0  0  0
  7  8  1  0  0  0  0
  7  4  1  1  0  0  0
  9 10  1  0  0  0  0
 11 16  1  0  0  0  0
 12 14  1  0  0  0  0
 12 11  1  0  0  0  0
 13 17  1  6  0  0  0
 13 15  1  0  0  0  0
 14 13  1  0  0  0  0
 15  9  1  0  0  0  0
 16 10  1  0  0  0  0
 16  6  1  1  0  0  0
 17 19  2  0  0  0  0
 18 17  1  0  0  0  0
 20  3  1  0  0  0  0
 22 28  2  0  0  0  0
 22 27  1  0  0  0  0
 23 25  1  0  0  0  0
 23 24  1  0  0  0  0
 24 21  1  0  0  0  0
 25 26  1  0  0  0  0
 26 21  2  0  0  0  0
 26 20  1  0  0  0  0
 27 25  2  0  0  0  0
 28 23  1  0  0  0  0
M  END
>  <MODEL>
8

>  <REMARK>
 VINA RESULT:      -5.1      2.989      4.585
  Name = 
  4 active torsions:
  status: ('A' for Active; 'I' for Inactive)
    1  A    between atoms: C_4  and  C_21
    2  A    between atoms: N_9  and  C_10
    3  A    between atoms: N_9  and  C_19
    4  A    between atoms: C_20  and  C_28
                            x       y       z     vdW  Elec       q    Type
                         _______ _______ _______ _____ _____    ______ ____

>  <TORSDO>
F 4

$$$$
=
 OpenBabel11042421093D

 28 31  0  0  1  0  0  0  0  0999 V2000
  160.7790  211.6890  150.7990 N   0  0  0  0  0  0  0  0  0  0  0  0
  162.4210  209.8500  152.5080 C   0  0  0  0  0  3  0  0  0  0  0  0
  161.7910  209.5720  150.0790 C   0  0  0  0  0  0  0  0  0  0  0  0
  159.4810  212.4480  152.9740 Cl  0  0  0  0  0  0  0  0  0  0  0  0
  162.3030  209.1140  151.2350 C   0  0  0  0  0  3  0  0  0  0  0  0
  161.3850  210.9890  149.8840 C   0  0  0  0  0  0  0  0  0  0  0  0
  160.3860  211.1880  152.1070 C   0  0  2  0  0  3  0  0  0  0  0  0
  161.5870  210.8080  152.9030 C   0  0  0  0  0  3  0  0  0  0  0  0
  160.0660  212.2810  146.9510 C   0  0  0  0  0  2  0  0  0  0  0  0
  160.6190  212.6090  148.2550 N   0  0  0  0  0  2  0  0  0  0  0  0
  163.0320  212.2460  148.5090 C   0  0  0  0  0  2  0  0  0  0  0  0
  163.4520  212.5560  147.0790 C   0  0  0  0  0  2  0  0  0  0  0  0
  161.9570  213.1830  145.5570 C   0  0  1  0  0  3  0  0  0  0  0  0
  162.7520  213.6690  146.6020 O   0  0  0  0  0  0  0  0  0  0  0  0
  160.4820  213.3210  145.9190 C   0  0  0  0  0  2  0  0  0  0  0  0
  161.6430  211.6160  148.5480 C   0  0  1  0  0  3  0  0  0  0  0  0
  162.2390  213.9200  144.2780 C   0  0  0  0  0  0  0  0  0  0  0  0
  163.6210  214.0080  143.7170 C   0  0  0  0  0  1  0  0  0  0  0  0
  161.3190  214.4480  143.6740 O   0  0  0  0  0  0  0  0  0  0  0  0
  161.7780  208.7210  148.9210 N   0  0  0  0  0  2  0  0  0  0  0  0
  160.7670  206.5110  149.7040 C   0  0  0  0  0  3  0  0  0  0  0  0
  161.9100  205.4820  146.0580 C   0  0  0  0  0  3  0  0  0  0  0  0
  161.4700  205.2830  148.1010 N   0  0  0  0  0  0  0  0  0  0  0  0
  160.6740  205.2650  149.1530 N   0  0  0  0  0  2  0  0  0  0  0  0
  161.9940  206.4540  147.8970 C   0  0  0  0  0  0  0  0  0  0  0  0
  161.6120  207.2980  148.9020 C   0  0  0  0  0  0  0  0  0  0  0  0
  162.2930  206.6760  146.6090 N   0  0  0  0  0  0  0  0  0  0  0  0
  161.3460  204.6340  146.9660 N   0  0  0  0  0  0  0  0  0  0  0  0
  1  7  1  0  0  0  0
  2  8  2  0  0  0  0
  3  5  2  0  0  0  0
  5  2  1  0  0  0  0
  6  3  1  0  0  0  0
  6  1  2  0  0  0  0
  7  8  1  0  0  0  0
  7  4  1  1  0  0  0
  9 10  1  0  0  0  0
 10 16  1  0  0  0  0
 11 16  1  0  0  0  0
 12 11  1  0  0  0  0
 13 17  1  6  0  0  0
 13 15  1  0  0  0  0
 13 14  1  0  0  0  0
 14 12  1  0  0  0  0
 15  9  1  0  0  0  0
 16  6  1  1  0  0  0
 18 17  1  0  0  0  0
 19 17  2  0  0  0  0
 20  3  1  0  0  0  0
 22 27  1  0  0  0  0
 22 28  2  0  0  0  0
 23 24  1  0  0  0  0
 24 21  1  0  0  0  0
 25 23  1  0  0  0  0
 25 26  1  0  0  0  0
 26 20  1  0  0  0  0
 26 21  2  0  0  0  0
 27 25  2  0  0  0  0
 28 23  1  0  0  0  0
M  END
>  <MODEL>
9

>  <REMARK>
 VINA RESULT:      -5.0      4.810      7.825
  Name = 
  4 active torsions:
  status: ('A' for Active; 'I' for Inactive)
    1  A    between atoms: C_4  and  C_21
    2  A    between atoms: N_9  and  C_10
    3  A    between atoms: N_9  and  C_19
    4  A    between atoms: C_20  and  C_28
                            x       y       z     vdW  Elec       q    Type
                         _______ _______ _______ _____ _____    ______ ____

>  <TORSDO>
F 4

$$$$
