=
 OpenBabel11042422223D

 58 61  0  0  1  0  0  0  0  0999 V2000
  161.9800  212.1170  148.3900 C   0  0  2  0  0  3  0  0  0  0  0  0
  160.6590  212.7120  148.8410 C   0  0  0  0  0  2  0  0  0  0  0  0
  160.8960  213.9250  149.7220 C   0  0  0  0  0  2  0  0  0  0  0  0
  159.7460  214.0550  150.6980 C   0  0  0  0  0  2  0  0  0  0  0  0
  159.7600  212.8850  151.6630 C   0  0  0  0  0  2  0  0  0  0  0  0
  158.9810  213.2570  152.9090 C   0  0  0  0  0  2  0  0  0  0  0  0
  159.6330  212.7500  154.0370 O   0  0  0  0  0  0  0  0  0  0  0  0
  162.1660  209.8670  157.0680 O   0  0  0  0  0  0  0  0  0  0  0  0
  161.1410  209.2880  156.7400 C   0  0  0  0  0  0  0  0  0  0  0  0
  160.1320  207.2300  156.0470 O   0  0  0  0  0  1  0  0  0  0  0  0
  159.8180  209.7760  157.2600 C   0  0  0  0  0  2  0  0  0  0  0  0
  160.3800  212.0820  156.6530 O   0  0  0  0  0  1  0  0  0  0  0  0
  159.3140  211.3870  154.0560 C   0  0  2  0  0  3  0  0  0  0  0  0
  158.5870  210.9970  155.3570 C   0  0  0  0  0  2  0  0  0  0  0  0
  161.6710  210.9910  154.3650 O   0  0  0  0  0  1  0  0  0  0  0  0
  160.2200  209.1570  153.9780 O   0  0  0  0  0  0  0  0  0  0  0  0
  161.3640  208.4550  154.3910 C   0  0  0  0  0  2  0  0  0  0  0  0
  160.5260  210.5150  153.7070 C   0  0  1  0  0  3  0  0  0  0  0  0
  161.2350  208.0680  155.8650 C   0  0  1  0  0  3  0  0  0  0  0  0
  159.3630  211.1220  156.6800 C   0  0  1  0  0  3  0  0  0  0  0  0
  162.6090  213.0160  147.4270 N   0  0  0  0  0  2  0  0  0  0  0  0
  161.2250  213.6770  143.1610 C   0  0  0  0  0  3  0  0  0  0  0  0
  160.0810  213.0540  143.8930 C   0  0  1  0  0  3  0  0  0  0  0  0
  162.4560  213.7460  143.6690 C   0  0  0  0  0  3  0  0  0  0  0  0
  162.8660  213.2910  145.0150 C   0  0  0  0  0  0  0  0  0  0  0  0
  162.0920  213.3700  146.1330 C   0  0  0  0  0  0  0  0  0  0  0  0
  164.1550  212.8650  145.1050 F   0  0  0  0  0  0  0  0  0  0  0  0
  159.8120  213.7980  145.1550 C   0  0  0  0  0  3  0  0  0  0  0  0
  160.7070  213.9000  146.1390 C   0  0  0  0  0  3  0  0  0  0  0  0
  158.8380  213.0890  143.0200 C   0  0  0  0  0  2  0  0  0  0  0  0
  158.3160  213.3280  140.7230 N   0  0  0  0  0  0  0  0  0  0  0  0
  159.2090  213.1620  141.6170 N   0  0  0  0  0  0  0  0  0  0  0  0
  158.6240  213.3890  139.3740 O   0  0  0  0  0  0  0  0  0  0  0  0
  158.5740  212.2590  138.4840 C   0  0  2  0  0  0  0  0  0  0  0  0
  158.6670  212.7330  137.0270 C   0  0  0  0  0  1  0  0  0  0  0  0
  156.1430  212.1720  139.1240 O   0  0  0  0  0  1  0  0  0  0  0  0
  157.2100  210.2840  138.3850 O   0  0  0  0  0  0  0  0  0  0  0  0
  157.2820  211.5090  138.6770 C   0  0  0  0  0  0  0  0  0  0  0  0
  159.6290  211.3590  138.7720 O   0  0  0  0  0  0  0  0  0  0  0  0
  160.8620  211.9840  138.5180 C   0  0  0  0  0  2  0  0  0  0  0  0
  161.9750  211.0760  138.9110 C   0  0  0  0  0  0  0  0  0  0  0  0
  161.9370  210.4770  140.0200 O   0  0  0  0  0  1  0  0  0  0  0  0
  163.0760  210.9250  138.0780 O   0  0  0  0  0  0  0  0  0  0  0  0
  161.7440  210.7490  147.7580 C   0  0  0  0  0  2  0  0  0  0  0  0
  162.2320  207.6010  150.6350 C   0  0  0  0  0  0  0  0  0  0  0  0
  161.9450  207.2980  149.2980 C   0  0  0  0  0  3  0  0  0  0  0  0
  161.7750  208.3250  148.3640 C   0  0  0  0  0  3  0  0  0  0  0  0
  161.8820  209.6600  148.7700 C   0  0  0  0  0  0  0  0  0  0  0  0
  162.3360  208.9370  151.0420 C   0  0  0  0  0  3  0  0  0  0  0  0
  162.1660  209.9650  150.1080 C   0  0  0  0  0  3  0  0  0  0  0  0
  162.3990  206.4990  151.6220 C   0  0  0  0  0  2  0  0  0  0  0  0
  161.0620  205.8320  151.8920 C   0  0  0  0  0  2  0  0  0  0  0  0
  161.0250  204.4850  151.2610 C   0  0  0  0  0  0  0  0  0  0  0  0
  160.7770  204.3660  149.8900 C   0  0  0  0  0  3  0  0  0  0  0  0
  161.2640  203.3400  152.0290 C   0  0  0  0  0  3  0  0  0  0  0  0
  160.9900  201.9620  150.0570 C   0  0  0  0  0  3  0  0  0  0  0  0
  160.7570  203.1050  149.2890 C   0  0  0  0  0  3  0  0  0  0  0  0
  161.2440  202.0790  151.4270 C   0  0  0  0  0  3  0  0  0  0  0  0
  1 44  1  6  0  0  0
  1  2  1  0  0  0  0
  2  3  1  0  0  0  0
  3  4  1  0  0  0  0
  4  5  1  0  0  0  0
  5  6  1  0  0  0  0
  6  7  1  0  0  0  0
  9  8  2  0  0  0  0
  9 11  1  0  0  0  0
 13  7  1  1  0  0  0
 13 14  1  0  0  0  0
 14 20  1  0  0  0  0
 16 17  1  0  0  0  0
 17 19  1  0  0  0  0
 18 16  1  0  0  0  0
 18 13  1  0  0  0  0
 18 15  1  1  0  0  0
 19 10  1  6  0  0  0
 19  9  1  0  0  0  0
 20 12  1  6  0  0  0
 20 11  1  0  0  0  0
 21  1  1  0  0  0  0
 22 24  2  0  0  0  0
 22 23  1  0  0  0  0
 23 30  1  6  0  0  0
 23 28  1  0  0  0  0
 24 25  1  0  0  0  0
 25 27  1  0  0  0  0
 25 26  2  0  0  0  0
 26 29  1  0  0  0  0
 26 21  1  0  0  0  0
 28 29  2  0  0  0  0
 31 32  2  0  0  0  0
 32 30  1  0  0  0  0
 33 31  1  0  0  0  0
 34 35  1  6  0  0  0
 34 38  1  0  0  0  0
 34 39  1  0  0  0  0
 34 33  1  0  0  0  0
 37 38  2  0  0  0  0
 38 36  1  0  0  0  0
 40 39  1  0  0  0  0
 40 41  1  0  0  0  0
 41 42  1  0  0  0  0
 43 41  2  0  0  0  0
 44 48  1  0  0  0  0
 45 49  1  0  0  0  0
 45 51  1  0  0  0  0
 46 45  2  0  0  0  0
 47 48  2  0  0  0  0
 47 46  1  0  0  0  0
 48 50  1  0  0  0  0
 50 49  2  0  0  0  0
 51 52  1  0  0  0  0
 53 52  1  0  0  0  0
 53 55  1  0  0  0  0
 54 53  2  0  0  0  0
 56 58  1  0  0  0  0
 57 54  1  0  0  0  0
 57 56  2  0  0  0  0
 58 55  2  0  0  0  0
M  END
>  <MODEL>
1

>  <REMARK>
 VINA RESULT:      -6.7      0.000      0.000
  Name = 
  22 active torsions:
  status: ('A' for Active; 'I' for Inactive)
    1  A    between atoms: C_3  and  C_5
    2  A    between atoms: C_3  and  C_27
    3  A    between atoms: C_4  and  C_5
    4  A    between atoms: C_4  and  C_40
    5  A    between atoms: C_6  and  C_32
    6  A    between atoms: N_7  and  O_10
    7  A    between atoms: C_8  and  O_10
    8  A    between atoms: C_8  and  O_37
    9  A    between atoms: C_8  and  C_43
   10  A    between atoms: C_12  and  C_24
   11  A    between atoms: C_13  and  O_37
   12  A    between atoms: C_13  and  C_39
   13  A    between atoms: C_15  and  C_17
   14  A    between atoms: C_17  and  C_24
   15  A    between atoms: C_25  and  C_33
   16  A    between atoms: C_25  and  C_54
   17  A    between atoms: N_26  and  C_41
   18  A    between atoms: N_26  and  C_54
   19  A    between atoms: C_27  and  O_56
   20  A    between atoms: C_28  and  O_56
   21  A    between atoms: N_31  and  C_32
   22  A    between atoms: C_40  and  C_54
                            x       y       z     vdW  Elec       q    Type
                         _______ _______ _______ _____ _____    ______ ____

>  <TORSDO>
F 22

$$$$
=
 OpenBabel11042422223D

 58 61  0  0  1  0  0  0  0  0999 V2000
  161.8760  212.2090  148.0590 C   0  0  2  0  0  3  0  0  0  0  0  0
  160.6880  213.0880  148.3970 C   0  0  0  0  0  2  0  0  0  0  0  0
  160.9880  213.9440  149.6140 C   0  0  0  0  0  2  0  0  0  0  0  0
  159.6840  214.4360  150.2030 C   0  0  0  0  0  2  0  0  0  0  0  0
  158.7250  213.2730  150.3690 C   0  0  0  0  0  2  0  0  0  0  0  0
  157.8580  213.5120  151.5880 C   0  0  0  0  0  2  0  0  0  0  0  0
  157.9640  212.4220  152.4580 O   0  0  0  0  0  0  0  0  0  0  0  0
  159.6100  209.1140  155.6620 O   0  0  0  0  0  0  0  0  0  0  0  0
  160.2740  210.1330  155.7730 C   0  0  0  0  0  0  0  0  0  0  0  0
  161.3130  211.7010  157.2560 O   0  0  0  0  0  1  0  0  0  0  0  0
  161.2330  210.5140  154.6800 C   0  0  0  0  0  2  0  0  0  0  0  0
  159.5100  210.1440  152.9790 O   0  0  0  0  0  1  0  0  0  0  0  0
  158.7510  212.8810  153.5210 C   0  0  2  0  0  3  0  0  0  0  0  0
  160.2260  212.4720  153.3480 C   0  0  0  0  0  2  0  0  0  0  0  0
  157.6580  211.2020  154.8610 O   0  0  0  0  0  1  0  0  0  0  0  0
  159.0780  212.7880  155.9050 O   0  0  0  0  0  0  0  0  0  0  0  0
  158.9370  211.8800  156.9660 C   0  0  0  0  0  2  0  0  0  0  0  0
  158.1360  212.5230  154.8790 C   0  0  1  0  0  3  0  0  0  0  0  0
  160.1540  210.9560  157.0280 C   0  0  1  0  0  3  0  0  0  0  0  0
  160.5640  210.9720  153.3770 C   0  0  1  0  0  3  0  0  0  0  0  0
  162.6590  212.8430  147.0020 N   0  0  0  0  0  2  0  0  0  0  0  0
  161.2200  214.4470  143.0130 C   0  0  0  0  0  3  0  0  0  0  0  0
  160.0570  213.7510  143.6410 C   0  0  1  0  0  3  0  0  0  0  0  0
  162.4640  214.3420  143.4800 C   0  0  0  0  0  3  0  0  0  0  0  0
  162.8760  213.5960  144.6900 C   0  0  0  0  0  0  0  0  0  0  0  0
  162.1350  213.4850  145.8260 C   0  0  0  0  0  0  0  0  0  0  0  0
  164.1390  213.0900  144.6450 F   0  0  0  0  0  0  0  0  0  0  0  0
  159.8630  214.2320  145.0390 C   0  0  0  0  0  3  0  0  0  0  0  0
  160.7850  214.0780  145.9900 C   0  0  0  0  0  3  0  0  0  0  0  0
  158.7980  214.0340  142.8390 C   0  0  0  0  0  2  0  0  0  0  0  0
  159.5440  212.1890  141.5560 N   0  0  0  0  0  0  0  0  0  0  0  0
  158.7410  213.1720  141.6700 N   0  0  0  0  0  0  0  0  0  0  0  0
  159.5330  211.3510  140.4530 O   0  0  0  0  0  0  0  0  0  0  0  0
  160.6100  211.2560  139.5030 C   0  0  2  0  0  0  0  0  0  0  0  0
  161.9540  211.4870  140.2070 C   0  0  0  0  0  1  0  0  0  0  0  0
  160.3420  213.6420  138.7490 O   0  0  0  0  0  1  0  0  0  0  0  0
  160.4240  211.9470  137.2090 O   0  0  0  0  0  0  0  0  0  0  0  0
  160.4350  212.2920  138.4230 C   0  0  0  0  0  0  0  0  0  0  0  0
  160.6000  209.9880  138.8740 O   0  0  0  0  0  0  0  0  0  0  0  0
  161.8810  209.4150  138.9520 C   0  0  0  0  0  2  0  0  0  0  0  0
  161.7630  207.9650  139.2710 C   0  0  0  0  0  0  0  0  0  0  0  0
  161.2240  207.1800  138.4460 O   0  0  0  0  0  0  0  0  0  0  0  0
  162.2040  207.4860  140.4980 O   0  0  0  0  0  1  0  0  0  0  0  0
  161.3940  210.8350  147.6060 C   0  0  0  0  0  2  0  0  0  0  0  0
  162.2490  207.8530  150.5720 C   0  0  0  0  0  0  0  0  0  0  0  0
  161.9160  207.4740  149.2660 C   0  0  0  0  0  3  0  0  0  0  0  0
  161.6270  208.4460  148.3030 C   0  0  0  0  0  3  0  0  0  0  0  0
  161.6600  209.8020  148.6500 C   0  0  0  0  0  0  0  0  0  0  0  0
  162.2800  209.2090  150.9210 C   0  0  0  0  0  3  0  0  0  0  0  0
  161.9900  210.1830  149.9590 C   0  0  0  0  0  3  0  0  0  0  0  0
  162.5430  206.8080  151.5910 C   0  0  0  0  0  2  0  0  0  0  0  0
  161.2560  206.1420  152.0450 C   0  0  0  0  0  2  0  0  0  0  0  0
  161.1370  204.7910  151.4340 C   0  0  0  0  0  0  0  0  0  0  0  0
  161.0050  204.6630  150.0470 C   0  0  0  0  0  3  0  0  0  0  0  0
  161.1820  203.6470  152.2380 C   0  0  0  0  0  3  0  0  0  0  0  0
  160.9480  202.2550  150.2700 C   0  0  0  0  0  3  0  0  0  0  0  0
  160.9080  203.3970  149.4660 C   0  0  0  0  0  3  0  0  0  0  0  0
  161.0850  202.3800  151.6560 C   0  0  0  0  0  3  0  0  0  0  0  0
  1 44  1  6  0  0  0
  1  2  1  0  0  0  0
  2  3  1  0  0  0  0
  3  4  1  0  0  0  0
  4  5  1  0  0  0  0
  5  6  1  0  0  0  0
  6  7  1  0  0  0  0
  8  9  2  0  0  0  0
  9 19  1  0  0  0  0
 11  9  1  0  0  0  0
 13  7  1  6  0  0  0
 13 18  1  0  0  0  0
 14 20  1  0  0  0  0
 14 13  1  0  0  0  0
 16 17  1  0  0  0  0
 17 19  1  0  0  0  0
 18 15  1  6  0  0  0
 18 16  1  0  0  0  0
 19 10  1  6  0  0  0
 20 12  1  1  0  0  0
 20 11  1  0  0  0  0
 21  1  1  0  0  0  0
 22 24  2  0  0  0  0
 22 23  1  0  0  0  0
 23 30  1  6  0  0  0
 23 28  1  0  0  0  0
 24 25  1  0  0  0  0
 25 26  2  0  0  0  0
 26 29  1  0  0  0  0
 26 21  1  0  0  0  0
 27 25  1  0  0  0  0
 28 29  2  0  0  0  0
 31 32  2  0  0  0  0
 32 30  1  0  0  0  0
 33 31  1  0  0  0  0
 34 35  1  1  0  0  0
 34 33  1  0  0  0  0
 37 38  2  0  0  0  0
 38 36  1  0  0  0  0
 38 34  1  0  0  0  0
 39 40  1  0  0  0  0
 39 34  1  0  0  0  0
 40 41  1  0  0  0  0
 41 43  1  0  0  0  0
 42 41  2  0  0  0  0
 44 48  1  0  0  0  0
 45 49  1  0  0  0  0
 45 51  1  0  0  0  0
 46 45  2  0  0  0  0
 47 48  2  0  0  0  0
 47 46  1  0  0  0  0
 48 50  1  0  0  0  0
 50 49  2  0  0  0  0
 51 52  1  0  0  0  0
 53 52  1  0  0  0  0
 53 55  1  0  0  0  0
 54 53  2  0  0  0  0
 56 58  1  0  0  0  0
 57 54  1  0  0  0  0
 57 56  2  0  0  0  0
 58 55  2  0  0  0  0
M  END
>  <MODEL>
2

>  <REMARK>
 VINA RESULT:      -6.4      1.420      2.350
  Name = 
  22 active torsions:
  status: ('A' for Active; 'I' for Inactive)
    1  A    between atoms: C_3  and  C_5
    2  A    between atoms: C_3  and  C_27
    3  A    between atoms: C_4  and  C_5
    4  A    between atoms: C_4  and  C_40
    5  A    between atoms: C_6  and  C_32
    6  A    between atoms: N_7  and  O_10
    7  A    between atoms: C_8  and  O_10
    8  A    between atoms: C_8  and  O_37
    9  A    between atoms: C_8  and  C_43
   10  A    between atoms: C_12  and  C_24
   11  A    between atoms: C_13  and  O_37
   12  A    between atoms: C_13  and  C_39
   13  A    between atoms: C_15  and  C_17
   14  A    between atoms: C_17  and  C_24
   15  A    between atoms: C_25  and  C_33
   16  A    between atoms: C_25  and  C_54
   17  A    between atoms: N_26  and  C_41
   18  A    between atoms: N_26  and  C_54
   19  A    between atoms: C_27  and  O_56
   20  A    between atoms: C_28  and  O_56
   21  A    between atoms: N_31  and  C_32
   22  A    between atoms: C_40  and  C_54
                            x       y       z     vdW  Elec       q    Type
                         _______ _______ _______ _____ _____    ______ ____

>  <TORSDO>
F 22

$$$$
=
 OpenBabel11042422223D

 58 61  0  0  1  0  0  0  0  0999 V2000
  161.9580  212.2840  148.0420 C   0  0  2  0  0  3  0  0  0  0  0  0
  160.7570  213.1770  148.2880 C   0  0  0  0  0  2  0  0  0  0  0  0
  160.9540  213.9980  149.5480 C   0  0  0  0  0  2  0  0  0  0  0  0
  159.6020  214.4520  150.0560 C   0  0  0  0  0  2  0  0  0  0  0  0
  158.5990  213.3240  149.9170 C   0  0  0  0  0  2  0  0  0  0  0  0
  157.6200  213.3820  151.0720 C   0  0  0  0  0  2  0  0  0  0  0  0
  157.8650  212.3200  151.9470 O   0  0  0  0  0  0  0  0  0  0  0  0
  159.6420  209.3920  155.4380 O   0  0  0  0  0  0  0  0  0  0  0  0
  160.0330  210.5310  155.6440 C   0  0  0  0  0  0  0  0  0  0  0  0
  160.4260  212.2570  157.2570 O   0  0  0  0  0  1  0  0  0  0  0  0
  161.0530  211.1410  154.7240 C   0  0  0  0  0  2  0  0  0  0  0  0
  159.7710  210.4340  152.7600 O   0  0  0  0  0  1  0  0  0  0  0  0
  158.3370  212.9190  153.1210 C   0  0  2  0  0  3  0  0  0  0  0  0
  159.8740  212.8550  153.2090 C   0  0  0  0  0  2  0  0  0  0  0  0
  157.4370  211.0090  154.2820 O   0  0  0  0  0  1  0  0  0  0  0  0
  158.2670  212.8480  155.5270 O   0  0  0  0  0  0  0  0  0  0  0  0
  158.1550  211.9070  156.5640 C   0  0  0  0  0  2  0  0  0  0  0  0
  157.5960  212.4020  154.3600 C   0  0  1  0  0  3  0  0  0  0  0  0
  159.5190  211.2770  156.8470 C   0  0  1  0  0  3  0  0  0  0  0  0
  160.5290  211.4680  153.3190 C   0  0  1  0  0  3  0  0  0  0  0  0
  162.7980  212.8810  147.0080 N   0  0  0  0  0  2  0  0  0  0  0  0
  161.5440  214.4480  142.9430 C   0  0  0  0  0  3  0  0  0  0  0  0
  160.3290  213.8370  143.5620 C   0  0  1  0  0  3  0  0  0  0  0  0
  162.7700  214.2860  143.4430 C   0  0  0  0  0  3  0  0  0  0  0  0
  163.1110  213.5540  144.6820 C   0  0  0  0  0  0  0  0  0  0  0  0
  162.3390  213.5180  145.8030 C   0  0  0  0  0  0  0  0  0  0  0  0
  164.3430  212.9760  144.6810 F   0  0  0  0  0  0  0  0  0  0  0  0
  160.1320  214.3680  144.9400 C   0  0  0  0  0  3  0  0  0  0  0  0
  161.0220  214.1910  145.9170 C   0  0  0  0  0  3  0  0  0  0  0  0
  159.1080  214.1680  142.7220 C   0  0  0  0  0  2  0  0  0  0  0  0
  159.9120  212.3850  141.3860 N   0  0  0  0  0  0  0  0  0  0  0  0
  159.0750  213.3350  141.5300 N   0  0  0  0  0  0  0  0  0  0  0  0
  159.9250  211.5770  140.2610 O   0  0  0  0  0  0  0  0  0  0  0  0
  161.1080  211.2790  139.4970 C   0  0  2  0  0  0  0  0  0  0  0  0
  160.7960  211.3500  137.9970 C   0  0  0  0  0  1  0  0  0  0  0  0
  161.0240  208.7780  139.2380 O   0  0  0  0  0  0  0  0  0  0  0  0
  162.5770  209.7430  140.6190 O   0  0  0  0  0  1  0  0  0  0  0  0
  161.6010  209.8950  139.8330 C   0  0  0  0  0  0  0  0  0  0  0  0
  162.1450  212.1850  139.8240 O   0  0  0  0  0  0  0  0  0  0  0  0
  162.7380  212.6660  138.6430 C   0  0  0  0  0  2  0  0  0  0  0  0
  163.5700  213.8610  138.9510 C   0  0  0  0  0  0  0  0  0  0  0  0
  164.2120  214.4360  138.0310 O   0  0  0  0  0  0  0  0  0  0  0  0
  163.6780  214.3150  140.2590 O   0  0  0  0  0  1  0  0  0  0  0  0
  161.4940  210.8970  147.6080 C   0  0  0  0  0  2  0  0  0  0  0  0
  162.1820  208.0030  150.7030 C   0  0  0  0  0  0  0  0  0  0  0  0
  161.8340  207.5870  149.4110 C   0  0  0  0  0  3  0  0  0  0  0  0
  161.6000  208.5310  148.4070 C   0  0  0  0  0  3  0  0  0  0  0  0
  161.7020  209.8970  148.6970 C   0  0  0  0  0  0  0  0  0  0  0  0
  162.2830  209.3700  150.9940 C   0  0  0  0  0  3  0  0  0  0  0  0
  162.0480  210.3150  149.9890 C   0  0  0  0  0  3  0  0  0  0  0  0
  162.4180  206.9890  151.7670 C   0  0  0  0  0  2  0  0  0  0  0  0
  161.1180  206.2890  152.1190 C   0  0  0  0  0  2  0  0  0  0  0  0
  161.0650  204.9510  151.4690 C   0  0  0  0  0  0  0  0  0  0  0  0
  161.3430  203.8030  152.2170 C   0  0  0  0  0  3  0  0  0  0  0  0
  160.7130  204.8360  150.1190 C   0  0  0  0  0  3  0  0  0  0  0  0
  160.9330  202.4290  150.2680 C   0  0  0  0  0  3  0  0  0  0  0  0
  161.2800  202.5430  151.6170 C   0  0  0  0  0  3  0  0  0  0  0  0
  160.6490  203.5760  149.5190 C   0  0  0  0  0  3  0  0  0  0  0  0
  1 44  1  6  0  0  0
  1  2  1  0  0  0  0
  2  3  1  0  0  0  0
  3  4  1  0  0  0  0
  5  4  1  0  0  0  0
  5  6  1  0  0  0  0
  6  7  1  0  0  0  0
  8  9  2  0  0  0  0
  9 19  1  0  0  0  0
 11  9  1  0  0  0  0
 13  7  1  6  0  0  0
 13 14  1  0  0  0  0
 13 18  1  0  0  0  0
 14 20  1  0  0  0  0
 16 17  1  0  0  0  0
 17 19  1  0  0  0  0
 18 15  1  6  0  0  0
 18 16  1  0  0  0  0
 19 10  1  6  0  0  0
 20 12  1  1  0  0  0
 20 11  1  0  0  0  0
 21  1  1  0  0  0  0
 22 24  2  0  0  0  0
 22 23  1  0  0  0  0
 23 30  1  6  0  0  0
 23 28  1  0  0  0  0
 24 25  1  0  0  0  0
 25 26  2  0  0  0  0
 26 29  1  0  0  0  0
 26 21  1  0  0  0  0
 27 25  1  0  0  0  0
 28 29  2  0  0  0  0
 31 32  2  0  0  0  0
 32 30  1  0  0  0  0
 33 31  1  0  0  0  0
 34 35  1  6  0  0  0
 34 39  1  0  0  0  0
 34 38  1  0  0  0  0
 34 33  1  0  0  0  0
 36 38  2  0  0  0  0
 38 37  1  0  0  0  0
 40 41  1  0  0  0  0
 40 39  1  0  0  0  0
 41 43  1  0  0  0  0
 42 41  2  0  0  0  0
 44 48  1  0  0  0  0
 45 49  1  0  0  0  0
 45 51  1  0  0  0  0
 46 45  2  0  0  0  0
 47 48  2  0  0  0  0
 47 46  1  0  0  0  0
 48 50  1  0  0  0  0
 50 49  2  0  0  0  0
 51 52  1  0  0  0  0
 53 52  1  0  0  0  0
 53 54  1  0  0  0  0
 55 53  2  0  0  0  0
 56 57  1  0  0  0  0
 57 54  2  0  0  0  0
 58 55  1  0  0  0  0
 58 56  2  0  0  0  0
M  END
>  <MODEL>
3

>  <REMARK>
 VINA RESULT:      -6.1      1.551      2.684
  Name = 
  22 active torsions:
  status: ('A' for Active; 'I' for Inactive)
    1  A    between atoms: C_3  and  C_5
    2  A    between atoms: C_3  and  C_27
    3  A    between atoms: C_4  and  C_5
    4  A    between atoms: C_4  and  C_40
    5  A    between atoms: C_6  and  C_32
    6  A    between atoms: N_7  and  O_10
    7  A    between atoms: C_8  and  O_10
    8  A    between atoms: C_8  and  O_37
    9  A    between atoms: C_8  and  C_43
   10  A    between atoms: C_12  and  C_24
   11  A    between atoms: C_13  and  O_37
   12  A    between atoms: C_13  and  C_39
   13  A    between atoms: C_15  and  C_17
   14  A    between atoms: C_17  and  C_24
   15  A    between atoms: C_25  and  C_33
   16  A    between atoms: C_25  and  C_54
   17  A    between atoms: N_26  and  C_41
   18  A    between atoms: N_26  and  C_54
   19  A    between atoms: C_27  and  O_56
   20  A    between atoms: C_28  and  O_56
   21  A    between atoms: N_31  and  C_32
   22  A    between atoms: C_40  and  C_54
                            x       y       z     vdW  Elec       q    Type
                         _______ _______ _______ _____ _____    ______ ____

>  <TORSDO>
F 22

$$$$
=
 OpenBabel11042422223D

 58 61  0  0  1  0  0  0  0  0999 V2000
  161.7790  209.1130  148.6970 C   0  0  2  0  0  3  0  0  0  0  0  0
  161.5930  210.4970  148.1040 C   0  0  0  0  0  2  0  0  0  0  0  0
  162.5930  211.4700  148.7000 C   0  0  0  0  0  2  0  0  0  0  0  0
  162.1100  212.8830  148.4540 C   0  0  0  0  0  2  0  0  0  0  0  0
  160.9750  212.8690  147.4490 C   0  0  0  0  0  2  0  0  0  0  0  0
  161.5380  213.0660  146.0570 C   0  0  0  0  0  2  0  0  0  0  0  0
  160.5460  212.7990  145.1090 O   0  0  0  0  0  0  0  0  0  0  0  0
  161.8060  211.1430  140.6830 O   0  0  0  0  0  0  0  0  0  0  0  0
  161.3950  212.2880  140.5710 C   0  0  0  0  0  0  0  0  0  0  0  0
  161.6950  214.4400  139.5630 O   0  0  0  0  0  1  0  0  0  0  0  0
  159.9320  212.5710  140.7690 C   0  0  0  0  0  2  0  0  0  0  0  0
  159.9150  211.2720  142.8460 O   0  0  0  0  0  1  0  0  0  0  0  0
  160.7510  213.7430  144.0950 C   0  0  2  0  0  3  0  0  0  0  0  0
  159.6140  213.7090  143.0550 C   0  0  0  0  0  2  0  0  0  0  0  0
  162.5230  212.3060  143.3190 O   0  0  0  0  0  1  0  0  0  0  0  0
  162.2410  214.4460  142.3390 O   0  0  0  0  0  0  0  0  0  0  0  0
  163.1300  213.8870  141.4060 C   0  0  0  0  0  2  0  0  0  0  0  0
  162.1650  213.6500  143.5100 C   0  0  1  0  0  3  0  0  0  0  0  0
  162.3570  213.3800  140.1880 C   0  0  1  0  0  3  0  0  0  0  0  0
  159.4450  212.4300  142.2180 C   0  0  1  0  0  3  0  0  0  0  0  0
  162.3100  209.2370  150.0500 N   0  0  0  0  0  2  0  0  0  0  0  0
  160.9540  207.2840  153.9110 C   0  0  0  0  0  3  0  0  0  0  0  0
  161.2990  208.7000  154.2430 C   0  0  1  0  0  3  0  0  0  0  0  0
  161.2650  206.7190  152.7440 C   0  0  0  0  0  3  0  0  0  0  0  0
  161.9220  207.3920  151.6020 C   0  0  0  0  0  0  0  0  0  0  0  0
  161.7250  208.6910  151.2460 C   0  0  0  0  0  0  0  0  0  0  0  0
  162.6890  206.5790  150.8260 F   0  0  0  0  0  0  0  0  0  0  0  0
  160.6140  209.6290  153.3010 C   0  0  0  0  0  3  0  0  0  0  0  0
  160.8400  209.6230  151.9860 C   0  0  0  0  0  3  0  0  0  0  0  0
  160.8560  209.0130  155.6610 C   0  0  0  0  0  2  0  0  0  0  0  0
  159.1690  210.6390  156.0060 N   0  0  0  0  0  0  0  0  0  0  0  0
  159.4680  209.4460  155.6720 N   0  0  0  0  0  0  0  0  0  0  0  0
  157.8590  211.0890  156.0430 O   0  0  0  0  0  0  0  0  0  0  0  0
  157.4140  212.3250  155.4560 C   0  0  2  0  0  0  0  0  0  0  0  0
  158.2290  213.4970  156.0180 C   0  0  0  0  0  1  0  0  0  0  0  0
  155.3640  211.9150  156.8550 O   0  0  0  0  0  1  0  0  0  0  0  0
  155.2730  213.3440  155.0670 O   0  0  0  0  0  0  0  0  0  0  0  0
  155.9560  212.5450  155.7650 C   0  0  0  0  0  0  0  0  0  0  0  0
  157.5410  212.2730  154.0470 O   0  0  0  0  0  0  0  0  0  0  0  0
  158.6470  213.0430  153.6470 C   0  0  0  0  0  2  0  0  0  0  0  0
  158.6090  213.2470  152.1730 C   0  0  0  0  0  0  0  0  0  0  0  0
  159.6350  213.0180  151.4780 O   0  0  0  0  0  0  0  0  0  0  0  0
  157.4570  213.7360  151.5690 O   0  0  0  0  0  1  0  0  0  0  0  0
  162.7340  208.3000  147.8280 C   0  0  0  0  0  2  0  0  0  0  0  0
  161.2240  204.3300  147.2080 C   0  0  0  0  0  0  0  0  0  0  0  0
  162.5920  204.5950  147.0680 C   0  0  0  0  0  3  0  0  0  0  0  0
  163.0810  205.8910  147.2600 C   0  0  0  0  0  3  0  0  0  0  0  0
  162.1980  206.9290  147.5810 C   0  0  0  0  0  0  0  0  0  0  0  0
  160.3390  205.3690  147.5260 C   0  0  0  0  0  3  0  0  0  0  0  0
  160.8280  206.6660  147.7180 C   0  0  0  0  0  3  0  0  0  0  0  0
  160.7140  202.9480  146.9900 C   0  0  0  0  0  2  0  0  0  0  0  0
  161.3840  201.9860  147.9540 C   0  0  0  0  0  2  0  0  0  0  0  0
  161.1330  202.4110  149.3580 C   0  0  0  0  0  0  0  0  0  0  0  0
  160.5180  203.6410  149.6130 C   0  0  0  0  0  3  0  0  0  0  0  0
  161.4860  201.5740  150.4220 C   0  0  0  0  0  3  0  0  0  0  0  0
  160.6230  203.2060  151.9900 C   0  0  0  0  0  3  0  0  0  0  0  0
  160.2650  204.0390  150.9280 C   0  0  0  0  0  3  0  0  0  0  0  0
  161.2330  201.9730  151.7380 C   0  0  0  0  0  3  0  0  0  0  0  0
  1 44  1  6  0  0  0
  1 21  1  0  0  0  0
  2  1  1  0  0  0  0
  2  3  1  0  0  0  0
  4  3  1  0  0  0  0
  5  4  1  0  0  0  0
  6  5  1  0  0  0  0
  7  6  1  0  0  0  0
  9  8  2  0  0  0  0
  9 11  1  0  0  0  0
 11 20  1  0  0  0  0
 13  7  1  1  0  0  0
 14 13  1  0  0  0  0
 16 18  1  0  0  0  0
 17 16  1  0  0  0  0
 18 15  1  6  0  0  0
 18 13  1  0  0  0  0
 19 10  1  1  0  0  0
 19  9  1  0  0  0  0
 19 17  1  0  0  0  0
 20 12  1  1  0  0  0
 20 14  1  0  0  0  0
 21 26  1  0  0  0  0
 22 23  1  0  0  0  0
 23 30  1  1  0  0  0
 24 22  2  0  0  0  0
 25 24  1  0  0  0  0
 26 25  2  0  0  0  0
 26 29  1  0  0  0  0
 27 25  1  0  0  0  0
 28 23  1  0  0  0  0
 29 28  2  0  0  0  0
 30 32  1  0  0  0  0
 31 33  1  0  0  0  0
 32 31  2  0  0  0  0
 34 38  1  0  0  0  0
 34 35  1  1  0  0  0
 34 33  1  0  0  0  0
 37 38  2  0  0  0  0
 38 36  1  0  0  0  0
 39 34  1  0  0  0  0
 40 39  1  0  0  0  0
 41 40  1  0  0  0  0
 42 41  2  0  0  0  0
 43 41  1  0  0  0  0
 45 49  1  0  0  0  0
 46 45  2  0  0  0  0
 46 47  1  0  0  0  0
 47 48  2  0  0  0  0
 48 50  1  0  0  0  0
 48 44  1  0  0  0  0
 49 50  2  0  0  0  0
 51 45  1  0  0  0  0
 51 52  1  0  0  0  0
 52 53  1  0  0  0  0
 53 54  2  0  0  0  0
 53 55  1  0  0  0  0
 54 57  1  0  0  0  0
 55 58  2  0  0  0  0
 57 56  2  0  0  0  0
 58 56  1  0  0  0  0
M  END
>  <MODEL>
4

>  <REMARK>
 VINA RESULT:      -5.9      3.169     11.270
  Name = 
  22 active torsions:
  status: ('A' for Active; 'I' for Inactive)
    1  A    between atoms: C_3  and  C_5
    2  A    between atoms: C_3  and  C_27
    3  A    between atoms: C_4  and  C_5
    4  A    between atoms: C_4  and  C_40
    5  A    between atoms: C_6  and  C_32
    6  A    between atoms: N_7  and  O_10
    7  A    between atoms: C_8  and  O_10
    8  A    between atoms: C_8  and  O_37
    9  A    between atoms: C_8  and  C_43
   10  A    between atoms: C_12  and  C_24
   11  A    between atoms: C_13  and  O_37
   12  A    between atoms: C_13  and  C_39
   13  A    between atoms: C_15  and  C_17
   14  A    between atoms: C_17  and  C_24
   15  A    between atoms: C_25  and  C_33
   16  A    between atoms: C_25  and  C_54
   17  A    between atoms: N_26  and  C_41
   18  A    between atoms: N_26  and  C_54
   19  A    between atoms: C_27  and  O_56
   20  A    between atoms: C_28  and  O_56
   21  A    between atoms: N_31  and  C_32
   22  A    between atoms: C_40  and  C_54
                            x       y       z     vdW  Elec       q    Type
                         _______ _______ _______ _____ _____    ______ ____

>  <TORSDO>
F 22

$$$$
=
 OpenBabel11042422223D

 58 61  0  0  1  0  0  0  0  0999 V2000
  161.9890  206.3200  151.8270 C   0  0  2  0  0  3  0  0  0  0  0  0
  161.5300  204.9900  152.3920 C   0  0  0  0  0  2  0  0  0  0  0  0
  160.7500  204.2100  151.3510 C   0  0  0  0  0  2  0  0  0  0  0  0
  160.9390  202.7290  151.6010 C   0  0  0  0  0  2  0  0  0  0  0  0
  160.3830  201.9370  150.4340 C   0  0  0  0  0  2  0  0  0  0  0  0
  161.5130  201.1930  149.7520 C   0  0  0  0  0  2  0  0  0  0  0  0
  161.3740  201.3010  148.3650 O   0  0  0  0  0  0  0  0  0  0  0  0
  162.4020  204.0320  144.4410 O   0  0  0  0  0  0  0  0  0  0  0  0
  161.2920  204.3370  144.8520 C   0  0  0  0  0  0  0  0  0  0  0  0
  159.7510  206.1010  145.3510 O   0  0  0  0  0  1  0  0  0  0  0  0
  160.1520  203.3700  144.6920 C   0  0  0  0  0  2  0  0  0  0  0  0
  161.5210  201.5410  145.5780 O   0  0  0  0  0  1  0  0  0  0  0  0
  160.6200  202.4640  148.1660 C   0  0  2  0  0  3  0  0  0  0  0  0
  159.6470  202.3090  146.9820 C   0  0  0  0  0  2  0  0  0  0  0  0
  162.6530  203.4630  147.3440 O   0  0  0  0  0  1  0  0  0  0  0  0
  160.7350  204.8180  147.6720 O   0  0  0  0  0  0  0  0  0  0  0  0
  161.5180  205.7150  146.9290 C   0  0  0  0  0  2  0  0  0  0  0  0
  161.5060  203.7140  148.1160 C   0  0  1  0  0  3  0  0  0  0  0  0
  161.0840  205.6970  145.4630 C   0  0  1  0  0  3  0  0  0  0  0  0
  160.2480  202.1200  145.5780 C   0  0  1  0  0  3  0  0  0  0  0  0
  162.2710  207.2390  152.9260 N   0  0  0  0  0  2  0  0  0  0  0  0
  159.6340  208.2560  156.4700 C   0  0  0  0  0  3  0  0  0  0  0  0
  160.5910  209.3910  156.3070 C   0  0  1  0  0  3  0  0  0  0  0  0
  159.7700  207.0970  155.8260 C   0  0  0  0  0  3  0  0  0  0  0  0
  160.8160  206.7760  154.8310 C   0  0  0  0  0  0  0  0  0  0  0  0
  161.3420  207.6600  153.9400 C   0  0  0  0  0  0  0  0  0  0  0  0
  161.1690  205.4620  154.7800 F   0  0  0  0  0  0  0  0  0  0  0  0
  160.5900  209.8650  154.8940 C   0  0  0  0  0  3  0  0  0  0  0  0
  160.9510  209.0890  153.8710 C   0  0  0  0  0  3  0  0  0  0  0  0
  160.1840  210.5370  157.2170 C   0  0  0  0  0  2  0  0  0  0  0  0
  158.4900  212.1350  156.7830 N   0  0  0  0  0  0  0  0  0  0  0  0
  159.6020  211.6170  156.4370 N   0  0  0  0  0  0  0  0  0  0  0  0
  157.8940  213.1550  156.0610 O   0  0  0  0  0  0  0  0  0  0  0  0
  156.5700  213.0800  155.5020 C   0  0  2  0  0  0  0  0  0  0  0  0
  155.7080  214.2310  156.0350 C   0  0  0  0  0  1  0  0  0  0  0  0
  155.1320  211.6730  157.0120 O   0  0  0  0  0  1  0  0  0  0  0  0
  156.0670  210.7590  155.1310 O   0  0  0  0  0  0  0  0  0  0  0  0
  155.9290  211.7690  155.8750 C   0  0  0  0  0  0  0  0  0  0  0  0
  156.6310  213.1290  154.0880 O   0  0  0  0  0  0  0  0  0  0  0  0
  157.8560  213.6930  153.6900 C   0  0  0  0  0  2  0  0  0  0  0  0
  158.5630  212.7580  152.7720 C   0  0  0  0  0  0  0  0  0  0  0  0
  158.3540  211.5170  152.8530 O   0  0  0  0  0  1  0  0  0  0  0  0
  159.4880  213.2470  151.8590 O   0  0  0  0  0  0  0  0  0  0  0  0
  160.9090  206.8990  150.9190 C   0  0  0  0  0  2  0  0  0  0  0  0
  162.1540  210.5430  149.0220 C   0  0  0  0  0  0  0  0  0  0  0  0
  161.9780  209.3770  148.2650 C   0  0  0  0  0  3  0  0  0  0  0  0
  161.5830  208.1890  148.8870 C   0  0  0  0  0  3  0  0  0  0  0  0
  161.3740  208.1610  150.2710 C   0  0  0  0  0  0  0  0  0  0  0  0
  161.9480  210.5150  150.4070 C   0  0  0  0  0  3  0  0  0  0  0  0
  161.5530  209.3260  151.0290 C   0  0  0  0  0  3  0  0  0  0  0  0
  162.5860  211.8000  148.3510 C   0  0  0  0  0  2  0  0  0  0  0  0
  161.5870  212.9090  148.6240 C   0  0  0  0  0  2  0  0  0  0  0  0
  160.4670  212.8410  147.6460 C   0  0  0  0  0  0  0  0  0  0  0  0
  160.6940  212.3290  146.3640 C   0  0  0  0  0  3  0  0  0  0  0  0
  159.1840  213.2640  148.0120 C   0  0  0  0  0  3  0  0  0  0  0  0
  158.3650  212.6740  145.8100 C   0  0  0  0  0  3  0  0  0  0  0  0
  159.6440  212.2480  145.4460 C   0  0  0  0  0  3  0  0  0  0  0  0
  158.1340  213.1820  147.0930 C   0  0  0  0  0  3  0  0  0  0  0  0
  1 44  1  6  0  0  0
  1  2  1  0  0  0  0
  1 21  1  0  0  0  0
  3  4  1  0  0  0  0
  3  2  1  0  0  0  0
  5  4  1  0  0  0  0
  6  5  1  0  0  0  0
  7  6  1  0  0  0  0
  8  9  2  0  0  0  0
  9 19  1  0  0  0  0
 11  9  1  0  0  0  0
 11 20  1  0  0  0  0
 13  7  1  6  0  0  0
 14 13  1  0  0  0  0
 16 18  1  0  0  0  0
 17 16  1  0  0  0  0
 18 15  1  6  0  0  0
 18 13  1  0  0  0  0
 19 10  1  1  0  0  0
 19 17  1  0  0  0  0
 20 12  1  1  0  0  0
 20 14  1  0  0  0  0
 21 26  1  0  0  0  0
 23 22  1  0  0  0  0
 23 30  1  1  0  0  0
 24 22  2  0  0  0  0
 25 24  1  0  0  0  0
 26 25  2  0  0  0  0
 27 25  1  0  0  0  0
 28 23  1  0  0  0  0
 29 26  1  0  0  0  0
 29 28  2  0  0  0  0
 32 31  2  0  0  0  0
 32 30  1  0  0  0  0
 33 31  1  0  0  0  0
 34 38  1  0  0  0  0
 34 35  1  1  0  0  0
 34 33  1  0  0  0  0
 37 38  2  0  0  0  0
 38 36  1  0  0  0  0
 39 34  1  0  0  0  0
 40 39  1  0  0  0  0
 41 42  1  0  0  0  0
 41 40  1  0  0  0  0
 43 41  2  0  0  0  0
 45 49  1  0  0  0  0
 46 47  1  0  0  0  0
 46 45  2  0  0  0  0
 47 48  2  0  0  0  0
 48 44  1  0  0  0  0
 48 50  1  0  0  0  0
 49 50  2  0  0  0  0
 51 52  1  0  0  0  0
 51 45  1  0  0  0  0
 53 55  1  0  0  0  0
 53 52  1  0  0  0  0
 54 53  2  0  0  0  0
 56 58  1  0  0  0  0
 57 56  2  0  0  0  0
 57 54  1  0  0  0  0
 58 55  2  0  0  0  0
M  END
>  <MODEL>
5

>  <REMARK>
 VINA RESULT:      -5.5      5.117     11.936
  Name = 
  22 active torsions:
  status: ('A' for Active; 'I' for Inactive)
    1  A    between atoms: C_3  and  C_5
    2  A    between atoms: C_3  and  C_27
    3  A    between atoms: C_4  and  C_5
    4  A    between atoms: C_4  and  C_40
    5  A    between atoms: C_6  and  C_32
    6  A    between atoms: N_7  and  O_10
    7  A    between atoms: C_8  and  O_10
    8  A    between atoms: C_8  and  O_37
    9  A    between atoms: C_8  and  C_43
   10  A    between atoms: C_12  and  C_24
   11  A    between atoms: C_13  and  O_37
   12  A    between atoms: C_13  and  C_39
   13  A    between atoms: C_15  and  C_17
   14  A    between atoms: C_17  and  C_24
   15  A    between atoms: C_25  and  C_33
   16  A    between atoms: C_25  and  C_54
   17  A    between atoms: N_26  and  C_41
   18  A    between atoms: N_26  and  C_54
   19  A    between atoms: C_27  and  O_56
   20  A    between atoms: C_28  and  O_56
   21  A    between atoms: N_31  and  C_32
   22  A    between atoms: C_40  and  C_54
                            x       y       z     vdW  Elec       q    Type
                         _______ _______ _______ _____ _____    ______ ____

>  <TORSDO>
F 22

$$$$
=
 OpenBabel11042422223D

 58 61  0  0  1  0  0  0  0  0999 V2000
  161.9610  212.2920  148.0610 C   0  0  2  0  0  3  0  0  0  0  0  0
  160.7510  213.1800  148.2840 C   0  0  0  0  0  2  0  0  0  0  0  0
  160.9250  214.0090  149.5430 C   0  0  0  0  0  2  0  0  0  0  0  0
  159.5630  214.4530  150.0310 C   0  0  0  0  0  2  0  0  0  0  0  0
  158.5670  213.3210  149.8700 C   0  0  0  0  0  2  0  0  0  0  0  0
  157.5680  213.3700  151.0080 C   0  0  0  0  0  2  0  0  0  0  0  0
  157.7950  212.2970  151.8750 O   0  0  0  0  0  0  0  0  0  0  0  0
  159.4760  209.3320  155.3830 O   0  0  0  0  0  0  0  0  0  0  0  0
  159.8550  210.4700  155.6150 C   0  0  0  0  0  0  0  0  0  0  0  0
  160.1930  212.1770  157.2610 O   0  0  0  0  0  1  0  0  0  0  0  0
  160.9010  211.0950  154.7350 C   0  0  0  0  0  2  0  0  0  0  0  0
  159.6820  210.4070  152.7240 O   0  0  0  0  0  1  0  0  0  0  0  0
  158.2290  212.8840  153.0710 C   0  0  2  0  0  3  0  0  0  0  0  0
  159.7630  212.8230  153.2050 C   0  0  0  0  0  2  0  0  0  0  0  0
  157.3000  210.9560  154.1800 O   0  0  0  0  0  1  0  0  0  0  0  0
  158.0860  212.7820  155.4730 O   0  0  0  0  0  0  0  0  0  0  0  0
  157.9460  211.8280  156.4940 C   0  0  0  0  0  2  0  0  0  0  0  0
  157.4530  212.3490  154.2800 C   0  0  1  0  0  3  0  0  0  0  0  0
  159.3030  211.1990  156.8100 C   0  0  1  0  0  3  0  0  0  0  0  0
  160.4200  211.4370  153.3180 C   0  0  1  0  0  3  0  0  0  0  0  0
  162.8040  212.8780  147.0240 N   0  0  0  0  0  2  0  0  0  0  0  0
  161.5560  214.4010  142.9410 C   0  0  0  0  0  3  0  0  0  0  0  0
  160.3360  213.8120  143.5710 C   0  0  1  0  0  3  0  0  0  0  0  0
  162.7810  214.2320  143.4390 C   0  0  0  0  0  3  0  0  0  0  0  0
  163.1170  213.5140  144.6880 C   0  0  0  0  0  0  0  0  0  0  0  0
  162.3480  213.5030  145.8110 C   0  0  0  0  0  0  0  0  0  0  0  0
  164.3430  212.9220  144.6920 F   0  0  0  0  0  0  0  0  0  0  0  0
  160.1480  214.3660  144.9420 C   0  0  0  0  0  3  0  0  0  0  0  0
  161.0390  214.1920  145.9200 C   0  0  0  0  0  3  0  0  0  0  0  0
  159.1160  214.1440  142.7300 C   0  0  0  0  0  2  0  0  0  0  0  0
  159.8280  212.2630  141.4810 N   0  0  0  0  0  0  0  0  0  0  0  0
  159.0440  213.2630  141.5760 N   0  0  0  0  0  0  0  0  0  0  0  0
  159.8030  211.4060  140.3920 O   0  0  0  0  0  0  0  0  0  0  0  0
  159.3220  211.7750  139.0870 C   0  0  2  0  0  0  0  0  0  0  0  0
  158.8480  210.5280  138.3300 C   0  0  0  0  0  1  0  0  0  0  0  0
  161.1860  211.7070  137.4000 O   0  0  0  0  0  0  0  0  0  0  0  0
  160.6260  213.6800  138.4210 O   0  0  0  0  0  1  0  0  0  0  0  0
  160.4220  212.4400  138.3030 C   0  0  0  0  0  0  0  0  0  0  0  0
  158.2630  212.7090  139.2000 O   0  0  0  0  0  0  0  0  0  0  0  0
  157.2010  212.3170  138.3660 C   0  0  0  0  0  2  0  0  0  0  0  0
  155.9710  213.0700  138.7350 C   0  0  0  0  0  0  0  0  0  0  0  0
  154.9030  212.8870  138.0910 O   0  0  0  0  0  0  0  0  0  0  0  0
  156.0110  214.0100  139.7570 O   0  0  0  0  0  1  0  0  0  0  0  0
  161.5100  210.8950  147.6470 C   0  0  0  0  0  2  0  0  0  0  0  0
  162.2040  208.0560  150.7910 C   0  0  0  0  0  0  0  0  0  0  0  0
  161.8720  207.6160  149.5030 C   0  0  0  0  0  3  0  0  0  0  0  0
  161.6360  208.5430  148.4830 C   0  0  0  0  0  3  0  0  0  0  0  0
  161.7200  209.9140  148.7520 C   0  0  0  0  0  0  0  0  0  0  0  0
  162.2850  209.4280  151.0620 C   0  0  0  0  0  3  0  0  0  0  0  0
  162.0480  210.3550  150.0420 C   0  0  0  0  0  3  0  0  0  0  0  0
  162.4420  207.0600  151.8720 C   0  0  0  0  0  2  0  0  0  0  0  0
  161.1490  206.3420  152.2150 C   0  0  0  0  0  2  0  0  0  0  0  0
  161.1310  204.9930  151.5860 C   0  0  0  0  0  0  0  0  0  0  0  0
  160.7110  204.8490  150.2600 C   0  0  0  0  0  3  0  0  0  0  0  0
  161.5580  203.8730  152.3080 C   0  0  0  0  0  3  0  0  0  0  0  0
  161.1280  202.4690  150.3820 C   0  0  0  0  0  3  0  0  0  0  0  0
  160.7070  203.5880  149.6600 C   0  0  0  0  0  3  0  0  0  0  0  0
  161.5550  202.6120  151.7070 C   0  0  0  0  0  3  0  0  0  0  0  0
  1 44  1  6  0  0  0
  1  2  1  0  0  0  0
  2  3  1  0  0  0  0
  3  4  1  0  0  0  0
  5  4  1  0  0  0  0
  5  6  1  0  0  0  0
  6  7  1  0  0  0  0
  8  9  2  0  0  0  0
  9 19  1  0  0  0  0
 11  9  1  0  0  0  0
 13  7  1  6  0  0  0
 13 14  1  0  0  0  0
 13 18  1  0  0  0  0
 14 20  1  0  0  0  0
 16 17  1  0  0  0  0
 17 19  1  0  0  0  0
 18 15  1  6  0  0  0
 18 16  1  0  0  0  0
 19 10  1  6  0  0  0
 20 12  1  1  0  0  0
 20 11  1  0  0  0  0
 21  1  1  0  0  0  0
 22 24  2  0  0  0  0
 22 23  1  0  0  0  0
 23 30  1  6  0  0  0
 23 28  1  0  0  0  0
 24 25  1  0  0  0  0
 25 27  1  0  0  0  0
 25 26  2  0  0  0  0
 26 29  1  0  0  0  0
 26 21  1  0  0  0  0
 28 29  2  0  0  0  0
 31 32  2  0  0  0  0
 32 30  1  0  0  0  0
 33 31  1  0  0  0  0
 34 35  1  6  0  0  0
 34 39  1  0  0  0  0
 34 33  1  0  0  0  0
 36 38  2  0  0  0  0
 38 37  1  0  0  0  0
 38 34  1  0  0  0  0
 40 41  1  0  0  0  0
 40 39  1  0  0  0  0
 41 43  1  0  0  0  0
 42 41  2  0  0  0  0
 44 48  1  0  0  0  0
 45 49  1  0  0  0  0
 45 51  1  0  0  0  0
 46 45  2  0  0  0  0
 47 48  2  0  0  0  0
 47 46  1  0  0  0  0
 48 50  1  0  0  0  0
 50 49  2  0  0  0  0
 51 52  1  0  0  0  0
 53 52  1  0  0  0  0
 53 55  1  0  0  0  0
 54 53  2  0  0  0  0
 56 58  1  0  0  0  0
 57 54  1  0  0  0  0
 57 56  2  0  0  0  0
 58 55  2  0  0  0  0
M  END
>  <MODEL>
6

>  <REMARK>
 VINA RESULT:      -5.3      1.349      2.869
  Name = 
  22 active torsions:
  status: ('A' for Active; 'I' for Inactive)
    1  A    between atoms: C_3  and  C_5
    2  A    between atoms: C_3  and  C_27
    3  A    between atoms: C_4  and  C_5
    4  A    between atoms: C_4  and  C_40
    5  A    between atoms: C_6  and  C_32
    6  A    between atoms: N_7  and  O_10
    7  A    between atoms: C_8  and  O_10
    8  A    between atoms: C_8  and  O_37
    9  A    between atoms: C_8  and  C_43
   10  A    between atoms: C_12  and  C_24
   11  A    between atoms: C_13  and  O_37
   12  A    between atoms: C_13  and  C_39
   13  A    between atoms: C_15  and  C_17
   14  A    between atoms: C_17  and  C_24
   15  A    between atoms: C_25  and  C_33
   16  A    between atoms: C_25  and  C_54
   17  A    between atoms: N_26  and  C_41
   18  A    between atoms: N_26  and  C_54
   19  A    between atoms: C_27  and  O_56
   20  A    between atoms: C_28  and  O_56
   21  A    between atoms: N_31  and  C_32
   22  A    between atoms: C_40  and  C_54
                            x       y       z     vdW  Elec       q    Type
                         _______ _______ _______ _____ _____    ______ ____

>  <TORSDO>
F 22

$$$$
=
 OpenBabel11042422223D

 58 61  0  0  1  0  0  0  0  0999 V2000
  161.0620  213.5530  148.5190 C   0  0  2  0  0  3  0  0  0  0  0  0
  161.6980  212.1920  148.3110 C   0  0  0  0  0  2  0  0  0  0  0  0
  161.8410  211.4640  149.6350 C   0  0  0  0  0  2  0  0  0  0  0  0
  162.7460  210.2660  149.4410 C   0  0  0  0  0  2  0  0  0  0  0  0
  161.9090  209.0310  149.1720 C   0  0  0  0  0  2  0  0  0  0  0  0
  162.1120  208.0360  150.2960 C   0  0  0  0  0  2  0  0  0  0  0  0
  162.2970  206.7570  149.7610 O   0  0  0  0  0  0  0  0  0  0  0  0
  162.6020  202.8190  146.8780 O   0  0  0  0  0  0  0  0  0  0  0  0
  161.5640  203.4120  146.6240 C   0  0  0  0  0  0  0  0  0  0  0  0
  160.0700  204.2120  144.9310 O   0  0  0  0  0  1  0  0  0  0  0  0
  160.4420  203.4010  147.6250 C   0  0  0  0  0  2  0  0  0  0  0  0
  161.9890  203.9920  149.4310 O   0  0  0  0  0  1  0  0  0  0  0  0
  161.4860  206.7220  148.6200 C   0  0  2  0  0  3  0  0  0  0  0  0
  160.3410  205.7020  148.7720 C   0  0  0  0  0  2  0  0  0  0  0  0
  163.3300  205.6230  147.5250 O   0  0  0  0  0  1  0  0  0  0  0  0
  161.4500  206.3000  146.2490 O   0  0  0  0  0  0  0  0  0  0  0  0
  162.0780  205.4740  145.3030 C   0  0  0  0  0  2  0  0  0  0  0  0
  162.3150  206.5760  147.3380 C   0  0  1  0  0  3  0  0  0  0  0  0
  161.4150  204.0960  145.2920 C   0  0  1  0  0  3  0  0  0  0  0  0
  160.7150  204.2160  148.8970 C   0  0  1  0  0  3  0  0  0  0  0  0
  159.6210  213.3910  148.6810 N   0  0  0  0  0  2  0  0  0  0  0  0
  156.9920  213.5540  152.3710 C   0  0  0  0  0  3  0  0  0  0  0  0
  158.2770  212.9170  152.7870 C   0  0  1  0  0  3  0  0  0  0  0  0
  156.6670  213.7610  151.0950 C   0  0  0  0  0  3  0  0  0  0  0  0
  157.5200  213.4630  149.9240 C   0  0  0  0  0  0  0  0  0  0  0  0
  158.8760  213.5860  149.8960 C   0  0  0  0  0  0  0  0  0  0  0  0
  156.8390  213.1430  148.7890 F   0  0  0  0  0  0  0  0  0  0  0  0
  159.4300  213.7520  152.3460 C   0  0  0  0  0  3  0  0  0  0  0  0
  159.6870  214.0100  151.0630 C   0  0  0  0  0  3  0  0  0  0  0  0
  158.3130  212.7790  154.3000 C   0  0  0  0  0  2  0  0  0  0  0  0
  159.6030  210.8150  154.0070 N   0  0  0  0  0  0  0  0  0  0  0  0
  158.7090  211.4310  154.6740 N   0  0  0  0  0  0  0  0  0  0  0  0
  160.0000  209.5250  154.3200 O   0  0  0  0  0  0  0  0  0  0  0  0
  160.7600  209.1780  155.4910 C   0  0  2  0  0  0  0  0  0  0  0  0
  159.8390  209.1110  156.7160 C   0  0  0  0  0  1  0  0  0  0  0  0
  162.7680  210.5010  154.7490 O   0  0  0  0  0  0  0  0  0  0  0  0
  161.8490  210.8600  156.8170 O   0  0  0  0  0  1  0  0  0  0  0  0
  161.8290  210.2120  155.7350 C   0  0  0  0  0  0  0  0  0  0  0  0
  161.4130  207.9360  155.3030 O   0  0  0  0  0  0  0  0  0  0  0  0
  160.4680  206.9590  154.9430 C   0  0  0  0  0  2  0  0  0  0  0  0
  160.8170  206.3900  153.6120 C   0  0  0  0  0  0  0  0  0  0  0  0
  160.6670  207.0850  152.5710 O   0  0  0  0  0  0  0  0  0  0  0  0
  161.2630  205.0790  153.5120 O   0  0  0  0  0  1  0  0  0  0  0  0
  161.3600  214.4530  147.3240 C   0  0  0  0  0  2  0  0  0  0  0  0
  160.9620  212.3630  143.5960 C   0  0  0  0  0  0  0  0  0  0  0  0
  159.8740  212.4570  144.4730 C   0  0  0  0  0  3  0  0  0  0  0  0
  160.0080  213.1290  145.6910 C   0  0  0  0  0  3  0  0  0  0  0  0
  161.2380  213.6990  146.0410 C   0  0  0  0  0  0  0  0  0  0  0  0
  162.1940  212.9310  143.9470 C   0  0  0  0  0  3  0  0  0  0  0  0
  162.3290  213.6030  145.1660 C   0  0  0  0  0  3  0  0  0  0  0  0
  160.8100  211.6350  142.3060 C   0  0  0  0  0  2  0  0  0  0  0  0
  162.0490  211.8250  141.4490 C   0  0  0  0  0  2  0  0  0  0  0  0
  161.9030  211.0830  140.1670 C   0  0  0  0  0  0  0  0  0  0  0  0
  160.9630  210.0530  140.0630 C   0  0  0  0  0  3  0  0  0  0  0  0
  162.6840  211.4290  139.0590 C   0  0  0  0  0  3  0  0  0  0  0  0
  161.5940  209.7060  137.7540 C   0  0  0  0  0  3  0  0  0  0  0  0
  160.8100  209.3630  138.8580 C   0  0  0  0  0  3  0  0  0  0  0  0
  162.5310  210.7390  137.8540 C   0  0  0  0  0  3  0  0  0  0  0  0
  1 44  1  6  0  0  0
  1 21  1  0  0  0  0
  2  1  1  0  0  0  0
  2  3  1  0  0  0  0
  4  3  1  0  0  0  0
  5  4  1  0  0  0  0
  5  6  1  0  0  0  0
  7  6  1  0  0  0  0
  9  8  2  0  0  0  0
  9 11  1  0  0  0  0
 11 20  1  0  0  0  0
 13 14  1  0  0  0  0
 13  7  1  1  0  0  0
 14 20  1  0  0  0  0
 16 18  1  0  0  0  0
 17 16  1  0  0  0  0
 18 15  1  1  0  0  0
 18 13  1  0  0  0  0
 19 10  1  1  0  0  0
 19 17  1  0  0  0  0
 19  9  1  0  0  0  0
 20 12  1  6  0  0  0
 21 26  1  0  0  0  0
 22 23  1  0  0  0  0
 23 30  1  1  0  0  0
 24 22  2  0  0  0  0
 25 24  1  0  0  0  0
 26 25  2  0  0  0  0
 26 29  1  0  0  0  0
 27 25  1  0  0  0  0
 28 23  1  0  0  0  0
 29 28  2  0  0  0  0
 30 32  1  0  0  0  0
 31 33  1  0  0  0  0
 31 32  2  0  0  0  0
 33 34  1  0  0  0  0
 34 38  1  0  0  0  0
 34 35  1  1  0  0  0
 36 38  2  0  0  0  0
 38 37  1  0  0  0  0
 39 34  1  0  0  0  0
 40 39  1  0  0  0  0
 41 40  1  0  0  0  0
 42 41  2  0  0  0  0
 43 41  1  0  0  0  0
 45 49  2  0  0  0  0
 45 46  1  0  0  0  0
 46 47  2  0  0  0  0
 47 48  1  0  0  0  0
 48 44  1  0  0  0  0
 49 50  1  0  0  0  0
 50 48  2  0  0  0  0
 51 45  1  0  0  0  0
 52 51  1  0  0  0  0
 53 52  1  0  0  0  0
 54 53  1  0  0  0  0
 55 53  2  0  0  0  0
 56 58  2  0  0  0  0
 56 57  1  0  0  0  0
 57 54  2  0  0  0  0
 58 55  1  0  0  0  0
M  END
>  <MODEL>
7

>  <REMARK>
 VINA RESULT:      -4.9      3.924     11.297
  Name = 
  22 active torsions:
  status: ('A' for Active; 'I' for Inactive)
    1  A    between atoms: C_3  and  C_5
    2  A    between atoms: C_3  and  C_27
    3  A    between atoms: C_4  and  C_5
    4  A    between atoms: C_4  and  C_40
    5  A    between atoms: C_6  and  C_32
    6  A    between atoms: N_7  and  O_10
    7  A    between atoms: C_8  and  O_10
    8  A    between atoms: C_8  and  O_37
    9  A    between atoms: C_8  and  C_43
   10  A    between atoms: C_12  and  C_24
   11  A    between atoms: C_13  and  O_37
   12  A    between atoms: C_13  and  C_39
   13  A    between atoms: C_15  and  C_17
   14  A    between atoms: C_17  and  C_24
   15  A    between atoms: C_25  and  C_33
   16  A    between atoms: C_25  and  C_54
   17  A    between atoms: N_26  and  C_41
   18  A    between atoms: N_26  and  C_54
   19  A    between atoms: C_27  and  O_56
   20  A    between atoms: C_28  and  O_56
   21  A    between atoms: N_31  and  C_32
   22  A    between atoms: C_40  and  C_54
                            x       y       z     vdW  Elec       q    Type
                         _______ _______ _______ _____ _____    ______ ____

>  <TORSDO>
F 22

$$$$
=
 OpenBabel11042422223D

 58 61  0  0  1  0  0  0  0  0999 V2000
  161.7150  206.8710  149.4520 C   0  0  2  0  0  3  0  0  0  0  0  0
  161.2690  205.7670  150.3910 C   0  0  0  0  0  2  0  0  0  0  0  0
  162.1420  205.7400  151.6320 C   0  0  0  0  0  2  0  0  0  0  0  0
  161.2710  205.4650  152.8400 C   0  0  0  0  0  2  0  0  0  0  0  0
  161.5650  206.4830  153.9250 C   0  0  0  0  0  2  0  0  0  0  0  0
  160.9160  207.8030  153.5600 C   0  0  0  0  0  2  0  0  0  0  0  0
  160.9260  208.6510  154.6720 O   0  0  0  0  0  0  0  0  0  0  0  0
  160.5400  213.1660  156.5110 O   0  0  0  0  0  0  0  0  0  0  0  0
  159.5480  212.9300  155.8370 C   0  0  0  0  0  0  0  0  0  0  0  0
  157.1660  213.0860  155.6480 O   0  0  0  0  0  1  0  0  0  0  0  0
  159.6740  212.8450  154.3420 C   0  0  0  0  0  2  0  0  0  0  0  0
  161.6140  211.3640  154.5440 O   0  0  0  0  0  1  0  0  0  0  0  0
  159.6560  209.2410  154.6870 C   0  0  2  0  0  3  0  0  0  0  0  0
  159.5460  210.3700  153.6450 C   0  0  0  0  0  2  0  0  0  0  0  0
  160.3000  210.2200  156.7930 O   0  0  0  0  0  1  0  0  0  0  0  0
  158.0610  210.4320  156.0420 O   0  0  0  0  0  0  0  0  0  0  0  0
  158.0380  211.3720  157.0850 C   0  0  0  0  0  2  0  0  0  0  0  0
  159.2260  209.6270  156.1070 C   0  0  1  0  0  3  0  0  0  0  0  0
  158.2150  212.7820  156.5190 C   0  0  1  0  0  3  0  0  0  0  0  0
  160.4340  211.6120  153.8350 C   0  0  1  0  0  3  0  0  0  0  0  0
  162.3820  206.2790  148.2960 N   0  0  0  0  0  2  0  0  0  0  0  0
  160.1230  205.3790  144.4700 C   0  0  0  0  0  3  0  0  0  0  0  0
  161.4860  205.8400  144.0660 C   0  0  1  0  0  3  0  0  0  0  0  0
  159.6610  205.4920  145.7160 C   0  0  0  0  0  3  0  0  0  0  0  0
  160.4140  206.0160  146.8760 C   0  0  0  0  0  0  0  0  0  0  0  0
  161.7480  205.8400  147.0820 C   0  0  0  0  0  0  0  0  0  0  0  0
  159.6490  206.6230  147.8240 F   0  0  0  0  0  0  0  0  0  0  0  0
  162.5280  205.0800  144.8120 C   0  0  0  0  0  3  0  0  0  0  0  0
  162.6380  205.1180  146.1410 C   0  0  0  0  0  3  0  0  0  0  0  0
  161.6790  205.6190  142.5760 C   0  0  0  0  0  2  0  0  0  0  0  0
  162.1160  206.9210  140.6480 N   0  0  0  0  0  0  0  0  0  0  0  0
  161.9690  206.8790  141.9130 N   0  0  0  0  0  0  0  0  0  0  0  0
  162.4070  208.0980  139.9770 O   0  0  0  0  0  0  0  0  0  0  0  0
  161.5770  208.6660  138.9480 C   0  0  2  0  0  0  0  0  0  0  0  0
  160.1460  208.8510  139.4700 C   0  0  0  0  0  1  0  0  0  0  0  0
  162.6730  207.0100  137.4020 O   0  0  0  0  0  1  0  0  0  0  0  0
  160.4880  207.6190  137.0790 O   0  0  0  0  0  0  0  0  0  0  0  0
  161.5490  207.7540  137.7490 C   0  0  0  0  0  0  0  0  0  0  0  0
  162.1050  209.9070  138.5190 O   0  0  0  0  0  0  0  0  0  0  0  0
  162.7980  210.5150  139.5820 C   0  0  0  0  0  2  0  0  0  0  0  0
  162.1550  211.8140  139.9210 C   0  0  0  0  0  0  0  0  0  0  0  0
  161.2120  212.2550  139.2100 O   0  0  0  0  0  0  0  0  0  0  0  0
  162.6250  212.5630  140.9920 O   0  0  0  0  0  1  0  0  0  0  0  0
  162.6620  207.8200  150.1790 C   0  0  0  0  0  2  0  0  0  0  0  0
  161.5790  211.8860  149.3290 C   0  0  0  0  0  0  0  0  0  0  0  0
  161.9570  211.0240  148.2910 C   0  0  0  0  0  3  0  0  0  0  0  0
  162.3200  209.7030  148.5710 C   0  0  0  0  0  3  0  0  0  0  0  0
  162.3170  209.2440  149.8940 C   0  0  0  0  0  0  0  0  0  0  0  0
  161.5780  211.4280  150.6530 C   0  0  0  0  0  3  0  0  0  0  0  0
  161.9410  210.1070  150.9330 C   0  0  0  0  0  3  0  0  0  0  0  0
  161.2060  213.2940  149.0200 C   0  0  0  0  0  2  0  0  0  0  0  0
  161.3250  213.5510  147.5280 C   0  0  0  0  0  2  0  0  0  0  0  0
  160.0060  213.3500  146.8680 C   0  0  0  0  0  0  0  0  0  0  0  0
  158.8280  213.5340  147.5980 C   0  0  0  0  0  3  0  0  0  0  0  0
  159.9410  213.0040  145.5140 C   0  0  0  0  0  3  0  0  0  0  0  0
  157.5220  213.0120  145.6290 C   0  0  0  0  0  3  0  0  0  0  0  0
  157.5870  213.3630  146.9800 C   0  0  0  0  0  3  0  0  0  0  0  0
  158.7000  212.8330  144.8960 C   0  0  0  0  0  3  0  0  0  0  0  0
  1 44  1  1  0  0  0
  1  2  1  0  0  0  0
  2  3  1  0  0  0  0
  3  4  1  0  0  0  0
  4  5  1  0  0  0  0
  6  5  1  0  0  0  0
  6  7  1  0  0  0  0
  9  8  2  0  0  0  0
  9 19  1  0  0  0  0
 11  9  1  0  0  0  0
 13  7  1  1  0  0  0
 13 18  1  0  0  0  0
 14 20  1  0  0  0  0
 14 13  1  0  0  0  0
 16 18  1  0  0  0  0
 16 17  1  0  0  0  0
 18 15  1  6  0  0  0
 19 10  1  6  0  0  0
 19 17  1  0  0  0  0
 20 11  1  0  0  0  0
 20 12  1  1  0  0  0
 21  1  1  0  0  0  0
 22 24  2  0  0  0  0
 23 30  1  6  0  0  0
 23 22  1  0  0  0  0
 23 28  1  0  0  0  0
 24 25  1  0  0  0  0
 25 26  2  0  0  0  0
 25 27  1  0  0  0  0
 26 21  1  0  0  0  0
 28 29  2  0  0  0  0
 29 26  1  0  0  0  0
 31 32  2  0  0  0  0
 32 30  1  0  0  0  0
 33 31  1  0  0  0  0
 34 35  1  1  0  0  0
 34 33  1  0  0  0  0
 36 38  1  0  0  0  0
 37 38  2  0  0  0  0
 38 34  1  0  0  0  0
 39 34  1  0  0  0  0
 39 40  1  0  0  0  0
 40 41  1  0  0  0  0
 41 43  1  0  0  0  0
 42 41  2  0  0  0  0
 45 49  1  0  0  0  0
 46 47  1  0  0  0  0
 46 45  2  0  0  0  0
 47 48  2  0  0  0  0
 48 44  1  0  0  0  0
 48 50  1  0  0  0  0
 49 50  2  0  0  0  0
 51 45  1  0  0  0  0
 52 51  1  0  0  0  0
 53 52  1  0  0  0  0
 53 54  1  0  0  0  0
 55 53  2  0  0  0  0
 56 57  1  0  0  0  0
 57 54  2  0  0  0  0
 58 55  1  0  0  0  0
 58 56  2  0  0  0  0
M  END
>  <MODEL>
8

>  <REMARK>
 VINA RESULT:      -4.8      3.060      6.588
  Name = 
  22 active torsions:
  status: ('A' for Active; 'I' for Inactive)
    1  A    between atoms: C_3  and  C_5
    2  A    between atoms: C_3  and  C_27
    3  A    between atoms: C_4  and  C_5
    4  A    between atoms: C_4  and  C_40
    5  A    between atoms: C_6  and  C_32
    6  A    between atoms: N_7  and  O_10
    7  A    between atoms: C_8  and  O_10
    8  A    between atoms: C_8  and  O_37
    9  A    between atoms: C_8  and  C_43
   10  A    between atoms: C_12  and  C_24
   11  A    between atoms: C_13  and  O_37
   12  A    between atoms: C_13  and  C_39
   13  A    between atoms: C_15  and  C_17
   14  A    between atoms: C_17  and  C_24
   15  A    between atoms: C_25  and  C_33
   16  A    between atoms: C_25  and  C_54
   17  A    between atoms: N_26  and  C_41
   18  A    between atoms: N_26  and  C_54
   19  A    between atoms: C_27  and  O_56
   20  A    between atoms: C_28  and  O_56
   21  A    between atoms: N_31  and  C_32
   22  A    between atoms: C_40  and  C_54
                            x       y       z     vdW  Elec       q    Type
                         _______ _______ _______ _____ _____    ______ ____

>  <TORSDO>
F 22

$$$$
=
 OpenBabel11042422223D

 58 61  0  0  1  0  0  0  0  0999 V2000
  161.7570  207.0420  148.9990 C   0  0  2  0  0  3  0  0  0  0  0  0
  162.3210  208.1370  148.1130 C   0  0  0  0  0  2  0  0  0  0  0  0
  162.1030  209.4980  148.7460 C   0  0  0  0  0  2  0  0  0  0  0  0
  161.9050  210.5230  147.6500 C   0  0  0  0  0  2  0  0  0  0  0  0
  161.8180  211.9100  148.2560 C   0  0  0  0  0  2  0  0  0  0  0  0
  161.9650  212.9450  147.1590 C   0  0  0  0  0  2  0  0  0  0  0  0
  160.7000  213.3100  146.6890 O   0  0  0  0  0  0  0  0  0  0  0  0
  160.6610  211.2210  142.2670 O   0  0  0  0  0  0  0  0  0  0  0  0
  160.5420  212.4300  142.1320 C   0  0  0  0  0  0  0  0  0  0  0  0
  161.1890  214.3870  140.9130 O   0  0  0  0  0  1  0  0  0  0  0  0
  159.2610  213.0980  142.5480 C   0  0  0  0  0  2  0  0  0  0  0  0
  159.2970  211.9250  144.6990 O   0  0  0  0  0  1  0  0  0  0  0  0
  160.9490  214.1290  145.5810 C   0  0  2  0  0  3  0  0  0  0  0  0
  159.6700  214.3610  144.7530 C   0  0  0  0  0  2  0  0  0  0  0  0
  162.1230  212.2460  144.6400 O   0  0  0  0  0  1  0  0  0  0  0  0
  162.2200  214.3480  143.5470 O   0  0  0  0  0  0  0  0  0  0  0  0
  162.7500  213.5400  142.5280 C   0  0  0  0  0  2  0  0  0  0  0  0
  162.1610  213.6440  144.7760 C   0  0  1  0  0  3  0  0  0  0  0  0
  161.6630  213.2130  141.5030 C   0  0  1  0  0  3  0  0  0  0  0  0
  159.0300  213.1430  144.0650 C   0  0  1  0  0  3  0  0  0  0  0  0
  162.3360  207.1550  150.3330 N   0  0  0  0  0  2  0  0  0  0  0  0
  160.6760  205.9630  154.3800 C   0  0  0  0  0  3  0  0  0  0  0  0
  161.2650  207.3270  154.5410 C   0  0  1  0  0  3  0  0  0  0  0  0
  160.8770  205.2120  153.2970 C   0  0  0  0  0  3  0  0  0  0  0  0
  161.6370  205.6140  152.0920 C   0  0  0  0  0  0  0  0  0  0  0  0
  161.6700  206.8730  151.5760 C   0  0  0  0  0  0  0  0  0  0  0  0
  162.2460  204.5890  151.4360 F   0  0  0  0  0  0  0  0  0  0  0  0
  160.7500  208.2380  153.4810 C   0  0  0  0  0  3  0  0  0  0  0  0
  160.9650  208.0290  152.1810 C   0  0  0  0  0  3  0  0  0  0  0  0
  160.8900  207.8870  155.9030 C   0  0  0  0  0  2  0  0  0  0  0  0
  159.3770  209.5590  156.6260 N   0  0  0  0  0  0  0  0  0  0  0  0
  160.2220  209.1690  155.7540 N   0  0  0  0  0  0  0  0  0  0  0  0
  158.7070  210.7670  156.5150 O   0  0  0  0  0  0  0  0  0  0  0  0
  159.1100  211.8340  155.6390 C   0  0  2  0  0  0  0  0  0  0  0  0
  160.2290  212.6560  156.2910 C   0  0  0  0  0  1  0  0  0  0  0  0
  156.6460  212.2180  155.3000 O   0  0  0  0  0  1  0  0  0  0  0  0
  158.1110  213.9790  155.2180 O   0  0  0  0  0  0  0  0  0  0  0  0
  157.9370  212.7360  155.3560 C   0  0  0  0  0  0  0  0  0  0  0  0
  159.5470  211.3120  154.3970 O   0  0  0  0  0  0  0  0  0  0  0  0
  160.2300  212.3120  153.6820 C   0  0  0  0  0  2  0  0  0  0  0  0
  159.7540  212.3330  152.2720 C   0  0  0  0  0  0  0  0  0  0  0  0
  158.6430  212.8580  151.9910 O   0  0  0  0  0  1  0  0  0  0  0  0
  160.5100  211.7340  151.2730 O   0  0  0  0  0  0  0  0  0  0  0  0
  162.0730  205.6750  148.4010 C   0  0  0  0  0  2  0  0  0  0  0  0
  161.6140  205.8020  144.1340 C   0  0  0  0  0  0  0  0  0  0  0  0
  160.6450  206.3770  144.9660 C   0  0  0  0  0  3  0  0  0  0  0  0
  160.7910  206.3250  146.3560 C   0  0  0  0  0  3  0  0  0  0  0  0
  161.9030  205.6870  146.9180 C   0  0  0  0  0  0  0  0  0  0  0  0
  162.7270  205.1610  144.6960 C   0  0  0  0  0  3  0  0  0  0  0  0
  162.8720  205.1090  146.0860 C   0  0  0  0  0  3  0  0  0  0  0  0
  161.4430  205.8540  142.6570 C   0  0  0  0  0  2  0  0  0  0  0  0
  162.4800  206.7760  142.0410 C   0  0  0  0  0  2  0  0  0  0  0  0
  162.1190  207.0830  140.6300 C   0  0  0  0  0  0  0  0  0  0  0  0
  162.5410  206.2320  139.6040 C   0  0  0  0  0  3  0  0  0  0  0  0
  161.3370  208.2040  140.3300 C   0  0  0  0  0  3  0  0  0  0  0  0
  161.4170  207.6270  137.9790 C   0  0  0  0  0  3  0  0  0  0  0  0
  162.1930  206.5050  138.2790 C   0  0  0  0  0  3  0  0  0  0  0  0
  160.9880  208.4760  139.0050 C   0  0  0  0  0  3  0  0  0  0  0  0
  1  2  1  6  0  0  0
  1 21  1  0  0  0  0
  2  3  1  0  0  0  0
  4  5  1  0  0  0  0
  4  3  1  0  0  0  0
  6  5  1  0  0  0  0
  7  6  1  0  0  0  0
  9  8  2  0  0  0  0
  9 11  1  0  0  0  0
 11 20  1  0  0  0  0
 13  7  1  1  0  0  0
 14 13  1  0  0  0  0
 16 18  1  0  0  0  0
 17 16  1  0  0  0  0
 18 15  1  6  0  0  0
 18 13  1  0  0  0  0
 19 10  1  1  0  0  0
 19  9  1  0  0  0  0
 19 17  1  0  0  0  0
 20 12  1  1  0  0  0
 20 14  1  0  0  0  0
 21 26  1  0  0  0  0
 22 23  1  0  0  0  0
 23 30  1  1  0  0  0
 24 22  2  0  0  0  0
 25 24  1  0  0  0  0
 26 25  2  0  0  0  0
 26 29  1  0  0  0  0
 27 25  1  0  0  0  0
 28 23  1  0  0  0  0
 29 28  2  0  0  0  0
 32 30  1  0  0  0  0
 32 31  2  0  0  0  0
 33 31  1  0  0  0  0
 34 35  1  1  0  0  0
 34 33  1  0  0  0  0
 36 38  1  0  0  0  0
 37 38  2  0  0  0  0
 38 34  1  0  0  0  0
 39 34  1  0  0  0  0
 40 39  1  0  0  0  0
 41 40  1  0  0  0  0
 42 41  1  0  0  0  0
 43 41  2  0  0  0  0
 44  1  1  0  0  0  0
 45 49  2  0  0  0  0
 45 46  1  0  0  0  0
 46 47  2  0  0  0  0
 47 48  1  0  0  0  0
 48 44  1  0  0  0  0
 49 50  1  0  0  0  0
 50 48  2  0  0  0  0
 51 45  1  0  0  0  0
 52 51  1  0  0  0  0
 53 52  1  0  0  0  0
 54 53  2  0  0  0  0
 55 53  1  0  0  0  0
 56 57  2  0  0  0  0
 56 58  1  0  0  0  0
 57 54  1  0  0  0  0
 58 55  2  0  0  0  0
M  END
>  <MODEL>
9

>  <REMARK>
 VINA RESULT:      -4.3      3.825     11.902
  Name = 
  22 active torsions:
  status: ('A' for Active; 'I' for Inactive)
    1  A    between atoms: C_3  and  C_5
    2  A    between atoms: C_3  and  C_27
    3  A    between atoms: C_4  and  C_5
    4  A    between atoms: C_4  and  C_40
    5  A    between atoms: C_6  and  C_32
    6  A    between atoms: N_7  and  O_10
    7  A    between atoms: C_8  and  O_10
    8  A    between atoms: C_8  and  O_37
    9  A    between atoms: C_8  and  C_43
   10  A    between atoms: C_12  and  C_24
   11  A    between atoms: C_13  and  O_37
   12  A    between atoms: C_13  and  C_39
   13  A    between atoms: C_15  and  C_17
   14  A    between atoms: C_17  and  C_24
   15  A    between atoms: C_25  and  C_33
   16  A    between atoms: C_25  and  C_54
   17  A    between atoms: N_26  and  C_41
   18  A    between atoms: N_26  and  C_54
   19  A    between atoms: C_27  and  O_56
   20  A    between atoms: C_28  and  O_56
   21  A    between atoms: N_31  and  C_32
   22  A    between atoms: C_40  and  C_54
                            x       y       z     vdW  Elec       q    Type
                         _______ _______ _______ _____ _____    ______ ____

>  <TORSDO>
F 22

$$$$
