=
 OpenBabel11052410123D

 48 51  0  0  1  0  0  0  0  0999 V2000
  161.4990  207.6870  150.7860 S   0  0  0  0  0  0  0  0  0  0  0  0
  161.8450  209.0930  151.8920 C   0  0  1  0  0  3  0  0  0  0  0  0
  161.9450  208.7400  149.4120 C   0  0  0  0  0  0  0  0  0  0  0  0
  161.6100  210.3660  151.0970 C   0  0  0  0  0  2  0  0  0  0  0  0
  161.9540  210.0430  149.6850 C   0  0  0  0  0  0  0  0  0  0  0  0
  161.2290  211.6520  147.8980 N   0  0  0  0  0  2  0  0  0  0  0  0
  161.3640  212.7720  147.0150 C   0  0  0  0  0  0  0  0  0  0  0  0
  162.4190  213.4650  147.0040 O   0  0  0  0  0  0  0  0  0  0  0  0
  162.2740  211.1140  148.7180 C   0  0  0  0  0  0  0  0  0  0  0  0
  163.4540  211.5410  148.6000 O   0  0  0  0  0  0  0  0  0  0  0  0
  160.2570  213.1150  146.0800 C   0  0  0  0  0  2  0  0  0  0  0  0
  160.7700  213.9760  144.9380 C   0  0  0  0  0  2  0  0  0  0  0  0
  161.6780  211.7980  141.4500 N   0  0  0  0  0  0  0  0  0  0  0  0
  162.3910  213.0520  141.7010 C   0  0  0  0  0  2  0  0  0  0  0  0
  160.2810  212.0730  143.3830 C   0  0  0  0  0  2  0  0  0  0  0  0
  161.1480  213.1350  143.8100 N   0  0  0  0  0  0  0  0  0  0  0  0
  160.5520  211.4120  142.2560 C   0  0  0  0  0  3  0  0  0  0  0  0
  162.4740  213.2980  143.2060 C   0  0  0  0  0  2  0  0  0  0  0  0
  162.3330  208.2060  148.1390 N   0  0  0  0  0  2  0  0  0  0  0  0
  162.3640  206.7780  147.8610 C   0  0  0  0  0  2  0  0  0  0  0  0
  161.1750  204.1830  147.2510 N   0  0  0  0  0  2  0  0  0  0  0  0
  161.7050  206.5130  146.5910 N   0  0  0  0  0  2  0  0  0  0  0  0
  160.6460  205.0430  145.1450 O   0  0  0  0  0  0  0  0  0  0  0  0
  161.1520  205.2360  146.2820 C   0  0  0  0  0  0  0  0  0  0  0  0
  161.1760  202.3570  145.6470 C   0  0  0  0  0  1  0  0  0  0  0  0
  160.6480  202.8550  146.9820 C   0  0  1  0  0  3  0  0  0  0  0  0
  161.0760  201.9110  148.0900 C   0  0  0  0  0  2  0  0  0  0  0  0
  160.2110  202.0770  149.2500 N   0  0  0  0  0  2  0  0  0  0  0  0
  161.0500  201.9630  150.4350 C   0  0  0  0  0  2  0  0  0  0  0  0
  161.0580  203.2510  151.1860 C   0  0  0  0  0  0  0  0  0  0  0  0
  161.4310  204.4270  150.5430 O   0  0  0  0  0  0  0  0  0  0  0  0
  160.7080  203.2780  152.3950 O   0  0  0  0  0  1  0  0  0  0  0  0
  160.9430  209.0620  153.1110 C   0  0  0  0  0  2  0  0  0  0  0  0
  160.3010  210.3580  153.2770 N   0  0  0  0  0  2  0  0  0  0  0  0
  159.2430  211.9020  157.0300 N   0  0  0  0  0  0  0  0  0  0  0  0
  160.2180  210.9600  156.9490 C   0  0  0  0  0  3  0  0  0  0  0  0
  158.9990  211.9500  154.6380 C   0  0  0  0  0  0  0  0  0  0  0  0
  158.6030  212.3920  155.9320 C   0  0  0  0  0  0  0  0  0  0  0  0
  159.9660  210.9230  154.5500 C   0  0  0  0  0  0  0  0  0  0  0  0
  160.5840  210.4450  155.7110 C   0  0  0  0  0  3  0  0  0  0  0  0
  158.3850  212.5170  153.3750 C   0  0  2  0  0  3  0  0  0  0  0  0
  158.9410  213.1550  151.0520 C   0  0  0  0  0  1  0  0  0  0  0  0
  159.4430  213.1570  152.4810 C   0  0  1  0  0  3  0  0  0  0  0  0
  158.5500  214.0280  153.3230 C   0  0  0  0  0  2  0  0  0  0  0  0
  156.1380  212.9750  155.8660 N   0  0  0  0  0  2  0  0  0  0  0  0
  155.0200  213.8660  156.1320 C   0  0  0  0  0  1  0  0  0  0  0  0
  157.7310  214.4520  156.7010 O   0  0  0  0  0  0  0  0  0  0  0  0
  157.4880  213.3380  156.1650 C   0  0  0  0  0  0  0  0  0  0  0  0
  1  2  1  0  0  0  0
  2 33  1  1  0  0  0
  3  5  2  0  0  0  0
  3  1  1  0  0  0  0
  4  2  1  0  0  0  0
  5  4  1  0  0  0  0
  6  9  1  0  0  0  0
  7  6  1  0  0  0  0
  8  7  2  0  0  0  0
  9  5  1  0  0  0  0
 10  9  2  0  0  0  0
 11  7  1  0  0  0  0
 12 11  1  0  0  0  0
 13 14  1  0  0  0  0
 13 17  2  0  0  0  0
 14 18  1  0  0  0  0
 15 16  1  0  0  0  0
 16 12  1  0  0  0  0
 17 15  1  0  0  0  0
 18 16  1  0  0  0  0
 19  3  1  0  0  0  0
 20 19  1  0  0  0  0
 22 20  1  0  0  0  0
 23 24  2  0  0  0  0
 24 22  1  0  0  0  0
 24 21  1  0  0  0  0
 26 25  1  6  0  0  0
 26 21  1  0  0  0  0
 26 27  1  0  0  0  0
 27 28  1  0  0  0  0
 28 29  1  0  0  0  0
 29 30  1  0  0  0  0
 30 32  1  0  0  0  0
 31 30  2  0  0  0  0
 33 34  1  0  0  0  0
 34 39  1  0  0  0  0
 36 35  1  0  0  0  0
 37 38  1  0  0  0  0
 38 48  1  0  0  0  0
 38 35  2  0  0  0  0
 39 37  2  0  0  0  0
 39 40  1  0  0  0  0
 40 36  2  0  0  0  0
 41 37  1  1  0  0  0
 43 42  1  6  0  0  0
 43 44  1  0  0  0  0
 43 41  1  0  0  0  0
 44 41  1  0  0  0  0
 45 46  1  0  0  0  0
 45 48  1  0  0  0  0
 48 47  2  0  0  0  0
M  END
>  <MODEL>
1

>  <REMARK>
 VINA RESULT:      -6.2      0.000      0.000
  Name = 
  17 active torsions:
  status: ('A' for Active; 'I' for Inactive)
    1  A    between atoms: N_1  and  C_16
    2  A    between atoms: C_2  and  C_23
    3  A    between atoms: C_4  and  C_18
    4  A    between atoms: C_4  and  C_42
    5  A    between atoms: C_6  and  N_9
    6  A    between atoms: C_6  and  N_32
    7  A    between atoms: C_7  and  C_38
    8  A    between atoms: C_13  and  C_30
    9  A    between atoms: C_13  and  N_39
   10  A    between atoms: C_16  and  C_34
   11  A    between atoms: C_25  and  C_47
   12  A    between atoms: C_28  and  C_46
   13  A    between atoms: N_31  and  C_42
   14  A    between atoms: N_32  and  C_37
   15  A    between atoms: C_34  and  N_45
   16  A    between atoms: C_38  and  N_45
   17  A    between atoms: N_39  and  C_40
                            x       y       z     vdW  Elec       q    Type
                         _______ _______ _______ _____ _____    ______ ____

>  <TORSDO>
F 17

$$$$
=
 OpenBabel11052410123D

 48 51  0  0  1  0  0  0  0  0999 V2000
  161.1410  207.4450  150.4470 S   0  0  0  0  0  0  0  0  0  0  0  0
  162.0650  206.1630  151.3540 C   0  0  1  0  0  3  0  0  0  0  0  0
  160.7960  208.2200  152.0210 C   0  0  0  0  0  0  0  0  0  0  0  0
  161.4680  206.0720  152.7480 C   0  0  0  0  0  2  0  0  0  0  0  0
  160.9840  207.4390  153.0820 C   0  0  0  0  0  0  0  0  0  0  0  0
  160.9590  209.2070  154.8660 N   0  0  0  0  0  2  0  0  0  0  0  0
  160.6540  209.7640  156.1500 C   0  0  0  0  0  0  0  0  0  0  0  0
  160.0390  209.0860  157.0200 O   0  0  0  0  0  0  0  0  0  0  0  0
  160.7540  207.8400  154.4870 C   0  0  0  0  0  0  0  0  0  0  0  0
  160.4000  206.9910  155.3480 O   0  0  0  0  0  0  0  0  0  0  0  0
  161.0860  211.1500  156.4780 C   0  0  0  0  0  2  0  0  0  0  0  0
  159.9440  211.9320  157.1040 C   0  0  0  0  0  2  0  0  0  0  0  0
  157.2510  212.6860  153.9550 N   0  0  0  0  0  0  0  0  0  0  0  0
  156.9610  211.5890  154.8800 C   0  0  0  0  0  2  0  0  0  0  0  0
  159.3610  213.1600  154.9990 C   0  0  0  0  0  2  0  0  0  0  0  0
  158.9730  212.3010  156.0830 N   0  0  0  0  0  0  0  0  0  0  0  0
  158.5190  213.3650  153.9840 C   0  0  0  0  0  3  0  0  0  0  0  0
  157.5720  211.8980  156.2450 C   0  0  0  0  0  2  0  0  0  0  0  0
  160.4190  209.5990  152.1230 N   0  0  0  0  0  2  0  0  0  0  0  0
  161.3200  210.6890  151.7790 C   0  0  0  0  0  2  0  0  0  0  0  0
  161.2250  212.6320  149.6040 N   0  0  0  0  0  2  0  0  0  0  0  0
  161.9330  210.4270  150.4860 N   0  0  0  0  0  2  0  0  0  0  0  0
  162.3540  211.0610  148.2960 O   0  0  0  0  0  0  0  0  0  0  0  0
  161.8590  211.3630  149.4130 C   0  0  0  0  0  0  0  0  0  0  0  0
  162.4820  214.0260  148.0590 C   0  0  0  0  0  1  0  0  0  0  0  0
  161.1000  213.6160  148.5390 C   0  0  1  0  0  3  0  0  0  0  0  0
  160.3120  213.0140  147.3900 C   0  0  0  0  0  2  0  0  0  0  0  0
  158.9650  212.6780  147.8300 N   0  0  0  0  0  2  0  0  0  0  0  0
  158.2450  213.9310  148.0110 C   0  0  0  0  0  2  0  0  0  0  0  0
  157.4380  213.8850  149.2640 C   0  0  0  0  0  0  0  0  0  0  0  0
  156.0530  213.7800  149.1950 O   0  0  0  0  0  0  0  0  0  0  0  0
  158.0110  213.9200  150.3840 O   0  0  0  0  0  1  0  0  0  0  0  0
  161.9690  204.8220  150.6530 C   0  0  0  0  0  2  0  0  0  0  0  0
  161.0380  204.9200  149.5370 N   0  0  0  0  0  2  0  0  0  0  0  0
  161.8000  203.6650  145.6090 N   0  0  0  0  0  0  0  0  0  0  0  0
  162.1820  204.9090  145.9960 C   0  0  0  0  0  3  0  0  0  0  0  0
  161.0010  203.1520  147.8180 C   0  0  0  0  0  0  0  0  0  0  0  0
  161.1950  202.7860  146.4560 C   0  0  0  0  0  0  0  0  0  0  0  0
  161.3350  204.4680  148.2110 C   0  0  0  0  0  0  0  0  0  0  0  0
  161.9430  205.3360  147.2970 C   0  0  0  0  0  3  0  0  0  0  0  0
  160.4110  202.1910  148.8300 C   0  0  2  0  0  3  0  0  0  0  0  0
  160.6690  201.4120  151.1620 C   0  0  0  0  0  1  0  0  0  0  0  0
  161.4210  201.8410  149.9180 C   0  0  1  0  0  3  0  0  0  0  0  0
  161.1480  200.8620  148.8080 C   0  0  0  0  0  2  0  0  0  0  0  0
  161.4750  200.2950  146.0860 N   0  0  0  0  0  2  0  0  0  0  0  0
  161.0190  199.0120  145.5760 C   0  0  0  0  0  1  0  0  0  0  0  0
  159.6370  201.4640  145.2660 O   0  0  0  0  0  0  0  0  0  0  0  0
  160.7350  201.5020  145.8830 C   0  0  0  0  0  0  0  0  0  0  0  0
  1  2  1  0  0  0  0
  1  3  1  0  0  0  0
  2 33  1  6  0  0  0
  2  4  1  0  0  0  0
  3 19  1  0  0  0  0
  3  5  2  0  0  0  0
  4  5  1  0  0  0  0
  5  9  1  0  0  0  0
  6  7  1  0  0  0  0
  7 11  1  0  0  0  0
  7  8  2  0  0  0  0
  9  6  1  0  0  0  0
  9 10  2  0  0  0  0
 11 12  1  0  0  0  0
 13 17  2  0  0  0  0
 13 14  1  0  0  0  0
 14 18  1  0  0  0  0
 15 16  1  0  0  0  0
 16 18  1  0  0  0  0
 16 12  1  0  0  0  0
 17 15  1  0  0  0  0
 20 19  1  0  0  0  0
 22 20  1  0  0  0  0
 23 24  2  0  0  0  0
 24 21  1  0  0  0  0
 24 22  1  0  0  0  0
 26 25  1  6  0  0  0
 26 21  1  0  0  0  0
 27 28  1  0  0  0  0
 27 26  1  0  0  0  0
 28 29  1  0  0  0  0
 29 30  1  0  0  0  0
 30 32  1  0  0  0  0
 31 30  2  0  0  0  0
 34 33  1  0  0  0  0
 35 36  2  0  0  0  0
 35 38  1  0  0  0  0
 36 40  1  0  0  0  0
 37 39  1  0  0  0  0
 38 37  2  0  0  0  0
 39 34  1  0  0  0  0
 40 39  2  0  0  0  0
 41 37  1  6  0  0  0
 41 43  1  0  0  0  0
 43 42  1  1  0  0  0
 44 41  1  0  0  0  0
 44 43  1  0  0  0  0
 46 45  1  0  0  0  0
 47 48  2  0  0  0  0
 48 45  1  0  0  0  0
 48 38  1  0  0  0  0
M  END
>  <MODEL>
2

>  <REMARK>
 VINA RESULT:      -6.1      2.874     10.975
  Name = 
  17 active torsions:
  status: ('A' for Active; 'I' for Inactive)
    1  A    between atoms: N_1  and  C_16
    2  A    between atoms: C_2  and  C_23
    3  A    between atoms: C_4  and  C_18
    4  A    between atoms: C_4  and  C_42
    5  A    between atoms: C_6  and  N_9
    6  A    between atoms: C_6  and  N_32
    7  A    between atoms: C_7  and  C_38
    8  A    between atoms: C_13  and  C_30
    9  A    between atoms: C_13  and  N_39
   10  A    between atoms: C_16  and  C_34
   11  A    between atoms: C_25  and  C_47
   12  A    between atoms: C_28  and  C_46
   13  A    between atoms: N_31  and  C_42
   14  A    between atoms: N_32  and  C_37
   15  A    between atoms: C_34  and  N_45
   16  A    between atoms: C_38  and  N_45
   17  A    between atoms: N_39  and  C_40
                            x       y       z     vdW  Elec       q    Type
                         _______ _______ _______ _____ _____    ______ ____

>  <TORSDO>
F 17

$$$$
=
 OpenBabel11052410123D

 48 51  0  0  1  0  0  0  0  0999 V2000
  161.3350  207.6280  152.7520 S   0  0  0  0  0  0  0  0  0  0  0  0
  161.4620  209.3580  153.3070 C   0  0  1  0  0  3  0  0  0  0  0  0
  161.7780  208.1870  151.1130 C   0  0  0  0  0  0  0  0  0  0  0  0
  161.1660  210.2440  152.1090 C   0  0  0  0  0  2  0  0  0  0  0  0
  161.6420  209.4970  150.9130 C   0  0  0  0  0  0  0  0  0  0  0  0
  161.7920  211.6240  149.5870 N   0  0  0  0  0  2  0  0  0  0  0  0
  162.1570  212.4460  148.4720 C   0  0  0  0  0  0  0  0  0  0  0  0
  162.7690  211.9590  147.4810 O   0  0  0  0  0  0  0  0  0  0  0  0
  161.9290  210.1990  149.6440 C   0  0  0  0  0  0  0  0  0  0  0  0
  162.2740  209.5550  148.6170 O   0  0  0  0  0  0  0  0  0  0  0  0
  161.7920  213.8890  148.4650 C   0  0  0  0  0  2  0  0  0  0  0  0
  160.3900  214.0840  147.9130 C   0  0  0  0  0  2  0  0  0  0  0  0
  159.9110  213.0440  143.8610 N   0  0  0  0  0  0  0  0  0  0  0  0
  160.3630  214.3970  144.1900 C   0  0  0  0  0  2  0  0  0  0  0  0
  159.6260  212.4540  146.1700 C   0  0  0  0  0  2  0  0  0  0  0  0
  160.3360  213.6510  146.5240 N   0  0  0  0  0  0  0  0  0  0  0  0
  159.4430  212.1490  144.8840 C   0  0  0  0  0  3  0  0  0  0  0  0
  161.1210  214.3720  145.5160 C   0  0  0  0  0  2  0  0  0  0  0  0
  162.3080  207.2970  150.1230 N   0  0  0  0  0  2  0  0  0  0  0  0
  161.5290  206.2140  149.5410 C   0  0  0  0  0  2  0  0  0  0  0  0
  161.2080  203.4260  148.7410 N   0  0  0  0  0  2  0  0  0  0  0  0
  161.3710  205.1470  150.5170 N   0  0  0  0  0  2  0  0  0  0  0  0
  160.9890  202.9130  151.0090 O   0  0  0  0  0  0  0  0  0  0  0  0
  161.1820  203.7880  150.1250 C   0  0  0  0  0  0  0  0  0  0  0  0
  159.6460  201.5640  148.7630 C   0  0  0  0  0  1  0  0  0  0  0  0
  160.9980  202.0610  148.2820 C   0  0  1  0  0  3  0  0  0  0  0  0
  161.0490  202.0280  146.7660 C   0  0  0  0  0  2  0  0  0  0  0  0
  161.7500  203.2020  146.2640 N   0  0  0  0  0  2  0  0  0  0  0  0
  160.8130  203.9410  145.4300 C   0  0  0  0  0  2  0  0  0  0  0  0
  161.2240  205.3710  145.3350 C   0  0  0  0  0  0  0  0  0  0  0  0
  160.2630  206.3760  145.3950 O   0  0  0  0  0  1  0  0  0  0  0  0
  162.4420  205.6710  145.2220 O   0  0  0  0  0  0  0  0  0  0  0  0
  160.4800  209.6450  154.4270 C   0  0  0  0  0  2  0  0  0  0  0  0
  159.8520  210.9390  154.2070 N   0  0  0  0  0  2  0  0  0  0  0  0
  156.8870  212.4700  156.7460 N   0  0  0  0  0  0  0  0  0  0  0  0
  157.8380  211.6460  157.2560 C   0  0  0  0  0  3  0  0  0  0  0  0
  157.9080  212.4130  154.5700 C   0  0  0  0  0  0  0  0  0  0  0  0
  156.8660  212.8470  155.4370 C   0  0  0  0  0  0  0  0  0  0  0  0
  158.8630  211.5020  155.0770 C   0  0  0  0  0  0  0  0  0  0  0  0
  158.8310  211.1370  156.4270 C   0  0  0  0  0  3  0  0  0  0  0  0
  157.9880  212.8630  153.1260 C   0  0  2  0  0  3  0  0  0  0  0  0
  159.6070  213.3450  151.3200 C   0  0  0  0  0  1  0  0  0  0  0  0
  159.3510  213.4700  152.8080 C   0  0  1  0  0  3  0  0  0  0  0  0
  158.1670  214.3700  153.0380 C   0  0  0  0  0  2  0  0  0  0  0  0
  155.2270  213.5730  153.6460 N   0  0  0  0  0  2  0  0  0  0  0  0
  154.0690  214.3260  153.1920 C   0  0  0  0  0  1  0  0  0  0  0  0
  155.1200  214.3970  155.8200 O   0  0  0  0  0  0  0  0  0  0  0  0
  155.7170  213.6640  154.9870 C   0  0  0  0  0  0  0  0  0  0  0  0
  1  2  1  0  0  0  0
  2 33  1  1  0  0  0
  3  1  1  0  0  0  0
  4  2  1  0  0  0  0
  5  3  2  0  0  0  0
  5  4  1  0  0  0  0
  6  9  1  0  0  0  0
  7  6  1  0  0  0  0
  8  7  2  0  0  0  0
  9  5  1  0  0  0  0
 10  9  2  0  0  0  0
 11  7  1  0  0  0  0
 12 11  1  0  0  0  0
 13 14  1  0  0  0  0
 13 17  2  0  0  0  0
 14 18  1  0  0  0  0
 15 16  1  0  0  0  0
 16 12  1  0  0  0  0
 17 15  1  0  0  0  0
 18 16  1  0  0  0  0
 19  3  1  0  0  0  0
 20 19  1  0  0  0  0
 20 22  1  0  0  0  0
 21 24  1  0  0  0  0
 24 22  1  0  0  0  0
 24 23  2  0  0  0  0
 26 21  1  0  0  0  0
 26 25  1  6  0  0  0
 27 26  1  0  0  0  0
 28 27  1  0  0  0  0
 29 28  1  0  0  0  0
 30 31  1  0  0  0  0
 30 29  1  0  0  0  0
 32 30  2  0  0  0  0
 34 33  1  0  0  0  0
 34 39  1  0  0  0  0
 35 36  1  0  0  0  0
 37 39  2  0  0  0  0
 37 38  1  0  0  0  0
 38 35  2  0  0  0  0
 39 40  1  0  0  0  0
 40 36  2  0  0  0  0
 41 37  1  1  0  0  0
 43 42  1  6  0  0  0
 43 44  1  0  0  0  0
 43 41  1  0  0  0  0
 44 41  1  0  0  0  0
 45 48  1  0  0  0  0
 46 45  1  0  0  0  0
 48 38  1  0  0  0  0
 48 47  2  0  0  0  0
M  END
>  <MODEL>
3

>  <REMARK>
 VINA RESULT:      -5.8      1.671      3.000
  Name = 
  17 active torsions:
  status: ('A' for Active; 'I' for Inactive)
    1  A    between atoms: N_1  and  C_16
    2  A    between atoms: C_2  and  C_23
    3  A    between atoms: C_4  and  C_18
    4  A    between atoms: C_4  and  C_42
    5  A    between atoms: C_6  and  N_9
    6  A    between atoms: C_6  and  N_32
    7  A    between atoms: C_7  and  C_38
    8  A    between atoms: C_13  and  C_30
    9  A    between atoms: C_13  and  N_39
   10  A    between atoms: C_16  and  C_34
   11  A    between atoms: C_25  and  C_47
   12  A    between atoms: C_28  and  C_46
   13  A    between atoms: N_31  and  C_42
   14  A    between atoms: N_32  and  C_37
   15  A    between atoms: C_34  and  N_45
   16  A    between atoms: C_38  and  N_45
   17  A    between atoms: N_39  and  C_40
                            x       y       z     vdW  Elec       q    Type
                         _______ _______ _______ _____ _____    ______ ____

>  <TORSDO>
F 17

$$$$
=
 OpenBabel11052410123D

 48 51  0  0  1  0  0  0  0  0999 V2000
  162.2130  211.6220  149.2710 S   0  0  0  0  0  0  0  0  0  0  0  0
  161.0430  212.9520  148.8460 C   0  0  1  0  0  3  0  0  0  0  0  0
  161.2140  211.2900  150.7150 C   0  0  0  0  0  0  0  0  0  0  0  0
  160.4230  213.4450  150.1420 C   0  0  0  0  0  2  0  0  0  0  0  0
  160.3770  212.2680  151.0530 C   0  0  0  0  0  0  0  0  0  0  0  0
  159.9860  212.4500  153.5280 N   0  0  0  0  0  2  0  0  0  0  0  0
  159.2050  212.5780  154.7220 C   0  0  0  0  0  0  0  0  0  0  0  0
  157.9460  212.6510  154.6670 O   0  0  0  0  0  0  0  0  0  0  0  0
  159.4590  212.2420  152.2120 C   0  0  0  0  0  0  0  0  0  0  0  0
  158.2280  212.0220  152.0510 O   0  0  0  0  0  0  0  0  0  0  0  0
  159.8800  212.6040  156.0490 C   0  0  0  0  0  2  0  0  0  0  0  0
  159.3950  211.4550  156.9170 C   0  0  0  0  0  2  0  0  0  0  0  0
  161.7430  207.9670  156.7030 N   0  0  0  0  0  0  0  0  0  0  0  0
  160.2890  207.8430  156.5870 C   0  0  0  0  0  2  0  0  0  0  0  0
  161.6230  210.3280  157.1190 C   0  0  0  0  0  2  0  0  0  0  0  0
  160.2440  210.2890  156.7210 N   0  0  0  0  0  0  0  0  0  0  0  0
  162.3530  209.2110  157.0860 C   0  0  0  0  0  3  0  0  0  0  0  0
  159.7150  209.1290  155.9960 C   0  0  0  0  0  2  0  0  0  0  0  0
  161.2650  210.0330  151.4030 N   0  0  0  0  0  2  0  0  0  0  0  0
  161.5360  208.7750  150.7250 C   0  0  0  0  0  2  0  0  0  0  0  0
  161.5690  205.8930  150.2670 N   0  0  0  0  0  2  0  0  0  0  0  0
  162.1970  207.8580  151.6410 N   0  0  0  0  0  2  0  0  0  0  0  0
  162.7210  205.6940  152.2890 O   0  0  0  0  0  0  0  0  0  0  0  0
  162.1860  206.4470  151.4340 C   0  0  0  0  0  0  0  0  0  0  0  0
  160.5100  203.8190  150.9640 C   0  0  0  0  0  1  0  0  0  0  0  0
  161.5080  204.4610  150.0160 C   0  0  1  0  0  3  0  0  0  0  0  0
  161.0810  204.2220  148.5790 C   0  0  0  0  0  2  0  0  0  0  0  0
  161.8180  205.1050  147.6860 N   0  0  0  0  0  2  0  0  0  0  0  0
  160.8980  205.5240  146.6380 C   0  0  0  0  0  2  0  0  0  0  0  0
  161.2070  204.8110  145.3650 C   0  0  0  0  0  0  0  0  0  0  0  0
  161.2090  203.4200  145.3310 O   0  0  0  0  0  1  0  0  0  0  0  0
  161.4470  205.4670  144.3180 O   0  0  0  0  0  0  0  0  0  0  0  0
  161.7470  214.0910  148.1340 C   0  0  0  0  0  2  0  0  0  0  0  0
  161.0320  214.4170  146.9090 N   0  0  0  0  0  2  0  0  0  0  0  0
  162.1000  213.0180  143.1030 N   0  0  0  0  0  0  0  0  0  0  0  0
  163.0590  213.1560  144.0530 C   0  0  0  0  0  3  0  0  0  0  0  0
  160.3810  213.6870  144.6450 C   0  0  0  0  0  0  0  0  0  0  0  0
  160.7870  213.2920  143.3390 C   0  0  0  0  0  0  0  0  0  0  0  0
  161.3820  213.8970  145.6210 C   0  0  0  0  0  0  0  0  0  0  0  0
  162.7190  213.6120  145.3220 C   0  0  0  0  0  3  0  0  0  0  0  0
  158.9260  213.9260  144.9940 C   0  0  2  0  0  3  0  0  0  0  0  0
  157.3620  213.9770  146.9080 C   0  0  0  0  0  1  0  0  0  0  0  0
  158.5540  213.2550  146.3120 C   0  0  1  0  0  3  0  0  0  0  0  0
  158.1510  212.6180  145.0090 C   0  0  0  0  0  2  0  0  0  0  0  0
  159.8570  212.0540  141.3320 N   0  0  0  0  0  2  0  0  0  0  0  0
  158.9230  211.9170  140.2260 C   0  0  0  0  0  1  0  0  0  0  0  0
  159.0140  214.1170  142.0070 O   0  0  0  0  0  0  0  0  0  0  0  0
  159.8600  213.2000  142.1890 C   0  0  0  0  0  0  0  0  0  0  0  0
  1  3  1  0  0  0  0
  2 33  1  1  0  0  0
  2  1  1  0  0  0  0
  2  4  1  0  0  0  0
  3  5  2  0  0  0  0
  3 19  1  0  0  0  0
  4  5  1  0  0  0  0
  5  9  1  0  0  0  0
  6  7  1  0  0  0  0
  7 11  1  0  0  0  0
  8  7  2  0  0  0  0
  9  6  1  0  0  0  0
 10  9  2  0  0  0  0
 11 12  1  0  0  0  0
 13 17  2  0  0  0  0
 14 13  1  0  0  0  0
 16 12  1  0  0  0  0
 16 15  1  0  0  0  0
 17 15  1  0  0  0  0
 18 14  1  0  0  0  0
 18 16  1  0  0  0  0
 20 19  1  0  0  0  0
 20 22  1  0  0  0  0
 21 24  1  0  0  0  0
 24 22  1  0  0  0  0
 24 23  2  0  0  0  0
 26 21  1  0  0  0  0
 26 25  1  1  0  0  0
 27 26  1  0  0  0  0
 28 27  1  0  0  0  0
 29 28  1  0  0  0  0
 30 29  1  0  0  0  0
 31 30  1  0  0  0  0
 32 30  2  0  0  0  0
 34 33  1  0  0  0  0
 35 38  2  0  0  0  0
 35 36  1  0  0  0  0
 36 40  2  0  0  0  0
 37 39  2  0  0  0  0
 38 37  1  0  0  0  0
 39 34  1  0  0  0  0
 40 39  1  0  0  0  0
 41 37  1  6  0  0  0
 41 44  1  0  0  0  0
 41 43  1  0  0  0  0
 43 42  1  1  0  0  0
 44 43  1  0  0  0  0
 45 48  1  0  0  0  0
 46 45  1  0  0  0  0
 47 48  2  0  0  0  0
 48 38  1  0  0  0  0
M  END
>  <MODEL>
4

>  <REMARK>
 VINA RESULT:      -5.7      2.498      9.486
  Name = 
  17 active torsions:
  status: ('A' for Active; 'I' for Inactive)
    1  A    between atoms: N_1  and  C_16
    2  A    between atoms: C_2  and  C_23
    3  A    between atoms: C_4  and  C_18
    4  A    between atoms: C_4  and  C_42
    5  A    between atoms: C_6  and  N_9
    6  A    between atoms: C_6  and  N_32
    7  A    between atoms: C_7  and  C_38
    8  A    between atoms: C_13  and  C_30
    9  A    between atoms: C_13  and  N_39
   10  A    between atoms: C_16  and  C_34
   11  A    between atoms: C_25  and  C_47
   12  A    between atoms: C_28  and  C_46
   13  A    between atoms: N_31  and  C_42
   14  A    between atoms: N_32  and  C_37
   15  A    between atoms: C_34  and  N_45
   16  A    between atoms: C_38  and  N_45
   17  A    between atoms: N_39  and  C_40
                            x       y       z     vdW  Elec       q    Type
                         _______ _______ _______ _____ _____    ______ ____

>  <TORSDO>
F 17

$$$$
=
 OpenBabel11052410123D

 48 51  0  0  1  0  0  0  0  0999 V2000
  161.7030  207.4940  150.2640 S   0  0  0  0  0  0  0  0  0  0  0  0
  162.0180  206.0800  151.3680 C   0  0  1  0  0  3  0  0  0  0  0  0
  161.3930  208.4820  151.7210 C   0  0  0  0  0  0  0  0  0  0  0  0
  161.2200  206.3090  152.6410 C   0  0  0  0  0  2  0  0  0  0  0  0
  161.1570  207.7840  152.8300 C   0  0  0  0  0  0  0  0  0  0  0  0
  160.2700  209.6710  154.2310 N   0  0  0  0  0  2  0  0  0  0  0  0
  159.8120  210.3040  155.4320 C   0  0  0  0  0  0  0  0  0  0  0  0
  159.7770  209.6720  156.5240 O   0  0  0  0  0  0  0  0  0  0  0  0
  160.8600  208.3670  154.1560 C   0  0  0  0  0  0  0  0  0  0  0  0
  161.1350  207.7350  155.2110 O   0  0  0  0  0  0  0  0  0  0  0  0
  159.3920  211.7320  155.4020 C   0  0  0  0  0  2  0  0  0  0  0  0
  157.8850  211.8490  155.5490 C   0  0  0  0  0  2  0  0  0  0  0  0
  156.1390  214.1770  152.5050 N   0  0  0  0  0  0  0  0  0  0  0  0
  155.3260  213.8190  153.6690 C   0  0  0  0  0  2  0  0  0  0  0  0
  158.0090  212.8800  153.2690 C   0  0  0  0  0  2  0  0  0  0  0  0
  157.3540  212.7570  154.5410 N   0  0  0  0  0  0  0  0  0  0  0  0
  157.4330  213.5880  152.2940 C   0  0  0  0  0  3  0  0  0  0  0  0
  156.2320  213.6350  154.8850 C   0  0  0  0  0  2  0  0  0  0  0  0
  161.4690  209.9130  151.7000 N   0  0  0  0  0  2  0  0  0  0  0  0
  162.3710  210.6410  150.8190 C   0  0  0  0  0  2  0  0  0  0  0  0
  161.7300  212.8820  149.0630 N   0  0  0  0  0  2  0  0  0  0  0  0
  161.9670  210.4430  149.4350 N   0  0  0  0  0  2  0  0  0  0  0  0
  161.2240  211.3050  147.4160 O   0  0  0  0  0  0  0  0  0  0  0  0
  161.6240  211.5360  148.5870 C   0  0  0  0  0  0  0  0  0  0  0  0
  162.4780  214.3170  147.2500 C   0  0  0  0  0  1  0  0  0  0  0  0
  161.3710  214.0330  148.2500 C   0  0  1  0  0  3  0  0  0  0  0  0
  160.0750  213.7450  147.5160 C   0  0  0  0  0  2  0  0  0  0  0  0
  160.0520  214.4530  146.2440 N   0  0  0  0  0  2  0  0  0  0  0  0
  159.5040  213.5410  145.2500 C   0  0  0  0  0  2  0  0  0  0  0  0
  160.4020  213.4720  144.0620 C   0  0  0  0  0  0  0  0  0  0  0  0
  159.9610  213.9470  142.8310 O   0  0  0  0  0  0  0  0  0  0  0  0
  161.5640  213.0050  144.1770 O   0  0  0  0  0  1  0  0  0  0  0  0
  161.6020  204.7760  150.7160 C   0  0  0  0  0  2  0  0  0  0  0  0
  160.8500  205.0550  149.5010 N   0  0  0  0  0  2  0  0  0  0  0  0
  161.8090  203.6660  145.6620 N   0  0  0  0  0  0  0  0  0  0  0  0
  162.1600  204.9280  146.0200 C   0  0  0  0  0  3  0  0  0  0  0  0
  160.9120  203.2250  147.8490 C   0  0  0  0  0  0  0  0  0  0  0  0
  161.1750  202.8110  146.5120 C   0  0  0  0  0  0  0  0  0  0  0  0
  161.2140  204.5580  148.2080 C   0  0  0  0  0  0  0  0  0  0  0  0
  161.8550  205.3990  147.2910 C   0  0  0  0  0  3  0  0  0  0  0  0
  160.2850  202.2940  148.8670 C   0  0  2  0  0  3  0  0  0  0  0  0
  160.6100  201.3930  151.1460 C   0  0  0  0  0  1  0  0  0  0  0  0
  161.3200  201.7860  149.8670 C   0  0  1  0  0  3  0  0  0  0  0  0
  160.8610  200.8920  148.7460 C   0  0  0  0  0  2  0  0  0  0  0  0
  161.5390  200.3250  146.1850 N   0  0  0  0  0  2  0  0  0  0  0  0
  161.1240  199.0170  145.7030 C   0  0  0  0  0  1  0  0  0  0  0  0
  159.6540  201.4130  145.3590 O   0  0  0  0  0  0  0  0  0  0  0  0
  160.7550  201.5010  145.9660 C   0  0  0  0  0  0  0  0  0  0  0  0
  1  2  1  0  0  0  0
  1  3  1  0  0  0  0
  2 33  1  6  0  0  0
  2  4  1  0  0  0  0
  3  5  2  0  0  0  0
  4  5  1  0  0  0  0
  5  9  1  0  0  0  0
  6  7  1  0  0  0  0
  7  8  2  0  0  0  0
  9  6  1  0  0  0  0
  9 10  2  0  0  0  0
 11  7  1  0  0  0  0
 11 12  1  0  0  0  0
 13 14  1  0  0  0  0
 14 18  1  0  0  0  0
 15 16  1  0  0  0  0
 16 18  1  0  0  0  0
 16 12  1  0  0  0  0
 17 13  2  0  0  0  0
 17 15  1  0  0  0  0
 19  3  1  0  0  0  0
 20 19  1  0  0  0  0
 22 20  1  0  0  0  0
 23 24  2  0  0  0  0
 24 21  1  0  0  0  0
 24 22  1  0  0  0  0
 26 25  1  6  0  0  0
 26 21  1  0  0  0  0
 27 26  1  0  0  0  0
 28 27  1  0  0  0  0
 29 28  1  0  0  0  0
 30 32  1  0  0  0  0
 30 29  1  0  0  0  0
 31 30  2  0  0  0  0
 34 33  1  0  0  0  0
 35 36  2  0  0  0  0
 35 38  1  0  0  0  0
 36 40  1  0  0  0  0
 37 39  1  0  0  0  0
 38 37  2  0  0  0  0
 39 34  1  0  0  0  0
 40 39  2  0  0  0  0
 41 37  1  6  0  0  0
 41 43  1  0  0  0  0
 43 42  1  1  0  0  0
 44 41  1  0  0  0  0
 44 43  1  0  0  0  0
 46 45  1  0  0  0  0
 47 48  2  0  0  0  0
 48 45  1  0  0  0  0
 48 38  1  0  0  0  0
M  END
>  <MODEL>
5

>  <REMARK>
 VINA RESULT:      -5.3      2.395     10.862
  Name = 
  17 active torsions:
  status: ('A' for Active; 'I' for Inactive)
    1  A    between atoms: N_1  and  C_16
    2  A    between atoms: C_2  and  C_23
    3  A    between atoms: C_4  and  C_18
    4  A    between atoms: C_4  and  C_42
    5  A    between atoms: C_6  and  N_9
    6  A    between atoms: C_6  and  N_32
    7  A    between atoms: C_7  and  C_38
    8  A    between atoms: C_13  and  C_30
    9  A    between atoms: C_13  and  N_39
   10  A    between atoms: C_16  and  C_34
   11  A    between atoms: C_25  and  C_47
   12  A    between atoms: C_28  and  C_46
   13  A    between atoms: N_31  and  C_42
   14  A    between atoms: N_32  and  C_37
   15  A    between atoms: C_34  and  N_45
   16  A    between atoms: C_38  and  N_45
   17  A    between atoms: N_39  and  C_40
                            x       y       z     vdW  Elec       q    Type
                         _______ _______ _______ _____ _____    ______ ____

>  <TORSDO>
F 17

$$$$
=
 OpenBabel11052410123D

 48 51  0  0  1  0  0  0  0  0999 V2000
  161.4510  210.0220  152.6850 S   0  0  0  0  0  0  0  0  0  0  0  0
  160.7270  209.3360  154.2100 C   0  0  1  0  0  3  0  0  0  0  0  0
  161.3590  208.3820  151.9790 C   0  0  0  0  0  0  0  0  0  0  0  0
  161.1070  207.8670  154.2740 C   0  0  0  0  0  2  0  0  0  0  0  0
  161.1990  207.4000  152.8640 C   0  0  0  0  0  0  0  0  0  0  0  0
  161.1640  205.5550  151.1600 N   0  0  0  0  0  2  0  0  0  0  0  0
  161.2180  204.1990  150.7010 C   0  0  0  0  0  0  0  0  0  0  0  0
  161.3600  203.2450  151.5150 O   0  0  0  0  0  0  0  0  0  0  0  0
  161.1090  205.9620  152.5330 C   0  0  0  0  0  0  0  0  0  0  0  0
  160.9690  205.1010  153.4430 O   0  0  0  0  0  0  0  0  0  0  0  0
  161.0830  203.9030  149.2480 C   0  0  0  0  0  2  0  0  0  0  0  0
  161.9140  204.8730  148.4250 C   0  0  0  0  0  2  0  0  0  0  0  0
  160.7450  205.2470  144.3970 N   0  0  0  0  0  0  0  0  0  0  0  0
  161.6850  204.1850  144.7600 C   0  0  0  0  0  2  0  0  0  0  0  0
  160.7160  206.1390  146.6260 C   0  0  0  0  0  2  0  0  0  0  0  0
  161.3920  204.9520  147.0680 N   0  0  0  0  0  0  0  0  0  0  0  0
  160.3820  206.2700  145.3400 C   0  0  0  0  0  3  0  0  0  0  0  0
  161.4440  203.7650  146.2090 C   0  0  0  0  0  2  0  0  0  0  0  0
  161.3810  208.1610  150.5630 N   0  0  0  0  0  2  0  0  0  0  0  0
  161.1080  209.2160  149.5980 C   0  0  0  0  0  2  0  0  0  0  0  0
  161.1350  211.8190  148.2780 N   0  0  0  0  0  2  0  0  0  0  0  0
  162.3500  209.8860  149.2420 N   0  0  0  0  0  2  0  0  0  0  0  0
  163.4640  211.6500  148.2310 O   0  0  0  0  0  0  0  0  0  0  0  0
  162.3630  211.1430  148.5690 C   0  0  0  0  0  0  0  0  0  0  0  0
  161.3220  212.8620  146.0900 C   0  0  0  0  0  1  0  0  0  0  0  0
  161.0870  213.0910  147.5730 C   0  0  1  0  0  3  0  0  0  0  0  0
  159.7280  213.7310  147.7870 C   0  0  0  0  0  2  0  0  0  0  0  0
  159.0130  213.0410  148.8520 N   0  0  0  0  0  2  0  0  0  0  0  0
  159.0370  213.9090  150.0210 C   0  0  0  0  0  2  0  0  0  0  0  0
  158.0080  213.4730  151.0080 C   0  0  0  0  0  0  0  0  0  0  0  0
  156.6580  213.5300  150.6740 O   0  0  0  0  0  0  0  0  0  0  0  0
  158.3600  213.0360  152.1340 O   0  0  0  0  0  1  0  0  0  0  0  0
  161.2420  210.0660  155.4350 C   0  0  0  0  0  2  0  0  0  0  0  0
  160.1190  210.4970  156.2550 N   0  0  0  0  0  2  0  0  0  0  0  0
  158.7830  214.4530  156.6430 N   0  0  0  0  0  0  0  0  0  0  0  0
  160.0230  214.1240  157.0870 C   0  0  0  0  0  3  0  0  0  0  0  0
  158.4110  212.2230  155.8240 C   0  0  0  0  0  0  0  0  0  0  0  0
  157.9530  213.5530  156.0470 C   0  0  0  0  0  0  0  0  0  0  0  0
  159.6740  211.8560  156.3430 C   0  0  0  0  0  0  0  0  0  0  0  0
  160.4820  212.8180  156.9590 C   0  0  0  0  0  3  0  0  0  0  0  0
  157.5690  211.1980  155.0930 C   0  0  2  0  0  3  0  0  0  0  0  0
  155.2620  210.3220  154.9360 C   0  0  0  0  0  1  0  0  0  0  0  0
  156.3220  210.8320  155.8910 C   0  0  1  0  0  3  0  0  0  0  0  0
  157.5000  209.8960  155.8750 C   0  0  0  0  0  2  0  0  0  0  0  0
  156.1440  214.0510  154.3440 N   0  0  0  0  0  2  0  0  0  0  0  0
  154.7930  214.4530  153.9830 C   0  0  0  0  0  1  0  0  0  0  0  0
  155.7900  214.3120  156.6300 O   0  0  0  0  0  0  0  0  0  0  0  0
  156.5890  214.0140  155.7030 C   0  0  0  0  0  0  0  0  0  0  0  0
  1  2  1  0  0  0  0
  2  4  1  0  0  0  0
  2 33  1  1  0  0  0
  3  1  1  0  0  0  0
  3  5  2  0  0  0  0
  5  4  1  0  0  0  0
  6  9  1  0  0  0  0
  7  6  1  0  0  0  0
  7  8  2  0  0  0  0
  9  5  1  0  0  0  0
  9 10  2  0  0  0  0
 11  7  1  0  0  0  0
 12 11  1  0  0  0  0
 13 14  1  0  0  0  0
 13 17  2  0  0  0  0
 14 18  1  0  0  0  0
 15 16  1  0  0  0  0
 16 12  1  0  0  0  0
 17 15  1  0  0  0  0
 18 16  1  0  0  0  0
 19  3  1  0  0  0  0
 20 19  1  0  0  0  0
 21 24  1  0  0  0  0
 22 20  1  0  0  0  0
 23 24  2  0  0  0  0
 24 22  1  0  0  0  0
 26 25  1  6  0  0  0
 26 27  1  0  0  0  0
 26 21  1  0  0  0  0
 27 28  1  0  0  0  0
 28 29  1  0  0  0  0
 29 30  1  0  0  0  0
 30 32  1  0  0  0  0
 31 30  2  0  0  0  0
 33 34  1  0  0  0  0
 34 39  1  0  0  0  0
 35 36  1  0  0  0  0
 37 38  1  0  0  0  0
 37 39  2  0  0  0  0
 38 35  2  0  0  0  0
 39 40  1  0  0  0  0
 40 36  2  0  0  0  0
 41 37  1  1  0  0  0
 41 44  1  0  0  0  0
 41 43  1  0  0  0  0
 43 42  1  6  0  0  0
 44 43  1  0  0  0  0
 45 48  1  0  0  0  0
 46 45  1  0  0  0  0
 48 38  1  0  0  0  0
 48 47  2  0  0  0  0
M  END
>  <MODEL>
6

>  <REMARK>
 VINA RESULT:      -5.0      2.461      6.958
  Name = 
  17 active torsions:
  status: ('A' for Active; 'I' for Inactive)
    1  A    between atoms: N_1  and  C_16
    2  A    between atoms: C_2  and  C_23
    3  A    between atoms: C_4  and  C_18
    4  A    between atoms: C_4  and  C_42
    5  A    between atoms: C_6  and  N_9
    6  A    between atoms: C_6  and  N_32
    7  A    between atoms: C_7  and  C_38
    8  A    between atoms: C_13  and  C_30
    9  A    between atoms: C_13  and  N_39
   10  A    between atoms: C_16  and  C_34
   11  A    between atoms: C_25  and  C_47
   12  A    between atoms: C_28  and  C_46
   13  A    between atoms: N_31  and  C_42
   14  A    between atoms: N_32  and  C_37
   15  A    between atoms: C_34  and  N_45
   16  A    between atoms: C_38  and  N_45
   17  A    between atoms: N_39  and  C_40
                            x       y       z     vdW  Elec       q    Type
                         _______ _______ _______ _____ _____    ______ ____

>  <TORSDO>
F 17

$$$$
=
 OpenBabel11052410123D

 48 51  0  0  1  0  0  0  0  0999 V2000
  161.7950  210.0380  152.2300 S   0  0  0  0  0  0  0  0  0  0  0  0
  160.9760  209.5510  153.7820 C   0  0  1  0  0  3  0  0  0  0  0  0
  161.5410  208.3680  151.6450 C   0  0  0  0  0  0  0  0  0  0  0  0
  161.1970  208.0590  153.9660 C   0  0  0  0  0  2  0  0  0  0  0  0
  161.2630  207.4780  152.5970 C   0  0  0  0  0  0  0  0  0  0  0  0
  160.9770  205.5360  151.0300 N   0  0  0  0  0  2  0  0  0  0  0  0
  160.8850  204.1540  150.6650 C   0  0  0  0  0  0  0  0  0  0  0  0
  160.9790  203.2460  151.5370 O   0  0  0  0  0  0  0  0  0  0  0  0
  161.0270  206.0360  152.3720 C   0  0  0  0  0  0  0  0  0  0  0  0
  160.8530  205.2540  153.3450 O   0  0  0  0  0  0  0  0  0  0  0  0
  160.6530  203.7780  149.2430 C   0  0  0  0  0  2  0  0  0  0  0  0
  161.9410  203.8830  148.4450 C   0  0  0  0  0  2  0  0  0  0  0  0
  160.8470  205.8500  144.8860 N   0  0  0  0  0  0  0  0  0  0  0  0
  160.7020  206.5640  146.1560 C   0  0  0  0  0  2  0  0  0  0  0  0
  161.5420  203.8250  145.9720 C   0  0  0  0  0  2  0  0  0  0  0  0
  161.6930  204.5750  147.1870 N   0  0  0  0  0  0  0  0  0  0  0  0
  161.1570  204.4460  144.8550 C   0  0  0  0  0  3  0  0  0  0  0  0
  161.7330  206.0400  147.1540 C   0  0  0  0  0  2  0  0  0  0  0  0
  161.5630  208.0380  150.2510 N   0  0  0  0  0  2  0  0  0  0  0  0
  161.3360  209.0240  149.2050 C   0  0  0  0  0  2  0  0  0  0  0  0
  160.9840  211.6940  148.0790 N   0  0  0  0  0  2  0  0  0  0  0  0
  162.4000  210.0170  149.2310 N   0  0  0  0  0  2  0  0  0  0  0  0
  163.2100  212.1100  148.6490 O   0  0  0  0  0  0  0  0  0  0  0  0
  162.2380  211.3110  148.6530 C   0  0  0  0  0  0  0  0  0  0  0  0
  160.9590  214.0900  148.4850 C   0  0  0  0  0  1  0  0  0  0  0  0
  160.7680  212.9900  147.4550 C   0  0  1  0  0  3  0  0  0  0  0  0
  161.7580  213.1700  146.3200 C   0  0  0  0  0  2  0  0  0  0  0  0
  161.3140  212.4300  145.1470 N   0  0  0  0  0  2  0  0  0  0  0  0
  161.2420  213.3740  144.0410 C   0  0  0  0  0  2  0  0  0  0  0  0
  161.6600  212.7140  142.7710 C   0  0  0  0  0  0  0  0  0  0  0  0
  162.5310  213.3660  141.9030 O   0  0  0  0  0  0  0  0  0  0  0  0
  161.2430  211.5590  142.4940 O   0  0  0  0  0  1  0  0  0  0  0  0
  161.5460  210.3150  154.9620 C   0  0  0  0  0  2  0  0  0  0  0  0
  160.4690  210.6850  155.8690 N   0  0  0  0  0  2  0  0  0  0  0  0
  158.6310  214.4510  156.0410 N   0  0  0  0  0  0  0  0  0  0  0  0
  159.9230  214.3230  156.4370 C   0  0  0  0  0  3  0  0  0  0  0  0
  158.5260  212.1330  155.4100 C   0  0  0  0  0  0  0  0  0  0  0  0
  157.9040  213.4050  155.5600 C   0  0  0  0  0  0  0  0  0  0  0  0
  159.8490  211.9760  155.8820 C   0  0  0  0  0  0  0  0  0  0  0  0
  160.5480  213.0830  156.3800 C   0  0  0  0  0  3  0  0  0  0  0  0
  157.7970  210.9510  154.8040 C   0  0  2  0  0  3  0  0  0  0  0  0
  155.5420  209.9700  154.5530 C   0  0  0  0  0  1  0  0  0  0  0  0
  156.4660  210.7000  155.5060 C   0  0  1  0  0  3  0  0  0  0  0  0
  157.6520  209.8270  155.8180 C   0  0  0  0  0  2  0  0  0  0  0  0
  156.0100  213.7420  153.9100 N   0  0  0  0  0  2  0  0  0  0  0  0
  154.6050  213.9370  153.5880 C   0  0  0  0  0  1  0  0  0  0  0  0
  155.6520  213.7210  156.2100 O   0  0  0  0  0  0  0  0  0  0  0  0
  156.4760  213.6550  155.2600 C   0  0  0  0  0  0  0  0  0  0  0  0
  1  2  1  0  0  0  0
  2  4  1  0  0  0  0
  2 33  1  1  0  0  0
  3  1  1  0  0  0  0
  3  5  2  0  0  0  0
  5  4  1  0  0  0  0
  6  9  1  0  0  0  0
  7  6  1  0  0  0  0
  7  8  2  0  0  0  0
  9  5  1  0  0  0  0
  9 10  2  0  0  0  0
 11  7  1  0  0  0  0
 12 11  1  0  0  0  0
 13 14  1  0  0  0  0
 14 18  1  0  0  0  0
 15 16  1  0  0  0  0
 16 12  1  0  0  0  0
 17 13  2  0  0  0  0
 17 15  1  0  0  0  0
 18 16  1  0  0  0  0
 19  3  1  0  0  0  0
 20 22  1  0  0  0  0
 20 19  1  0  0  0  0
 21 24  1  0  0  0  0
 23 24  2  0  0  0  0
 24 22  1  0  0  0  0
 26 21  1  0  0  0  0
 26 25  1  1  0  0  0
 27 26  1  0  0  0  0
 28 27  1  0  0  0  0
 29 28  1  0  0  0  0
 30 29  1  0  0  0  0
 31 30  2  0  0  0  0
 32 30  1  0  0  0  0
 33 34  1  0  0  0  0
 34 39  1  0  0  0  0
 35 36  1  0  0  0  0
 37 38  1  0  0  0  0
 37 39  2  0  0  0  0
 38 35  2  0  0  0  0
 39 40  1  0  0  0  0
 40 36  2  0  0  0  0
 41 37  1  1  0  0  0
 41 43  1  0  0  0  0
 41 44  1  0  0  0  0
 43 42  1  6  0  0  0
 43 44  1  0  0  0  0
 45 48  1  0  0  0  0
 46 45  1  0  0  0  0
 48 38  1  0  0  0  0
 48 47  2  0  0  0  0
M  END
>  <MODEL>
7

>  <REMARK>
 VINA RESULT:      -4.5      2.129      7.276
  Name = 
  17 active torsions:
  status: ('A' for Active; 'I' for Inactive)
    1  A    between atoms: N_1  and  C_16
    2  A    between atoms: C_2  and  C_23
    3  A    between atoms: C_4  and  C_18
    4  A    between atoms: C_4  and  C_42
    5  A    between atoms: C_6  and  N_9
    6  A    between atoms: C_6  and  N_32
    7  A    between atoms: C_7  and  C_38
    8  A    between atoms: C_13  and  C_30
    9  A    between atoms: C_13  and  N_39
   10  A    between atoms: C_16  and  C_34
   11  A    between atoms: C_25  and  C_47
   12  A    between atoms: C_28  and  C_46
   13  A    between atoms: N_31  and  C_42
   14  A    between atoms: N_32  and  C_37
   15  A    between atoms: C_34  and  N_45
   16  A    between atoms: C_38  and  N_45
   17  A    between atoms: N_39  and  C_40
                            x       y       z     vdW  Elec       q    Type
                         _______ _______ _______ _____ _____    ______ ____

>  <TORSDO>
F 17

$$$$
=
 OpenBabel11052410123D

 48 51  0  0  1  0  0  0  0  0999 V2000
  161.4150  207.2470  155.1620 S   0  0  0  0  0  0  0  0  0  0  0  0
  161.6940  209.0250  155.4420 C   0  0  1  0  0  3  0  0  0  0  0  0
  161.6740  207.5450  153.4190 C   0  0  0  0  0  0  0  0  0  0  0  0
  161.2920  209.7550  154.1710 C   0  0  0  0  0  2  0  0  0  0  0  0
  161.5770  208.8200  153.0490 C   0  0  0  0  0  0  0  0  0  0  0  0
  162.0500  208.3950  150.6190 N   0  0  0  0  0  2  0  0  0  0  0  0
  162.1050  208.7120  149.2230 C   0  0  0  0  0  0  0  0  0  0  0  0
  161.7340  209.8430  148.8010 O   0  0  0  0  0  0  0  0  0  0  0  0
  161.7340  209.3210  151.6660 C   0  0  0  0  0  0  0  0  0  0  0  0
  161.6090  210.5480  151.4090 O   0  0  0  0  0  0  0  0  0  0  0  0
  162.6280  207.7090  148.2560 C   0  0  0  0  0  2  0  0  0  0  0  0
  161.7190  206.4920  148.2040 C   0  0  0  0  0  2  0  0  0  0  0  0
  161.4810  204.5820  144.4590 N   0  0  0  0  0  0  0  0  0  0  0  0
  160.3390  205.3760  144.9160 C   0  0  0  0  0  2  0  0  0  0  0  0
  162.6790  204.9130  146.5120 C   0  0  0  0  0  2  0  0  0  0  0  0
  161.7220  205.9240  146.8630 N   0  0  0  0  0  0  0  0  0  0  0  0
  162.5770  204.2830  145.3400 C   0  0  0  0  0  3  0  0  0  0  0  0
  160.8310  206.4870  145.8430 C   0  0  0  0  0  2  0  0  0  0  0  0
  162.0310  206.4940  152.5120 N   0  0  0  0  0  2  0  0  0  0  0  0
  161.2630  205.2630  152.3930 C   0  0  0  0  0  2  0  0  0  0  0  0
  160.9850  202.7270  150.9750 N   0  0  0  0  0  2  0  0  0  0  0  0
  160.6680  205.1830  151.0680 N   0  0  0  0  0  2  0  0  0  0  0  0
  160.0930  203.9460  149.1940 O   0  0  0  0  0  0  0  0  0  0  0  0
  160.5610  203.9490  150.3620 C   0  0  0  0  0  0  0  0  0  0  0  0
  159.5120  201.2090  149.7780 C   0  0  0  0  0  1  0  0  0  0  0  0
  160.9210  201.4430  150.2950 C   0  0  1  0  0  3  0  0  0  0  0  0
  161.9010  201.4400  149.1360 C   0  0  0  0  0  2  0  0  0  0  0  0
  161.3820  200.6280  148.0450 N   0  0  0  0  0  2  0  0  0  0  0  0
  160.8900  201.5420  147.0230 C   0  0  0  0  0  2  0  0  0  0  0  0
  160.5890  200.7960  145.7670 C   0  0  0  0  0  0  0  0  0  0  0  0
  160.9020  199.4440  145.6700 O   0  0  0  0  0  1  0  0  0  0  0  0
  160.0330  201.3840  144.8030 O   0  0  0  0  0  0  0  0  0  0  0  0
  160.8780  209.5270  156.6170 C   0  0  0  0  0  2  0  0  0  0  0  0
  159.6180  210.0760  156.1370 N   0  0  0  0  0  2  0  0  0  0  0  0
  158.7100  214.1700  156.1800 N   0  0  0  0  0  0  0  0  0  0  0  0
  159.8970  213.7470  156.6860 C   0  0  0  0  0  3  0  0  0  0  0  0
  158.1170  211.9350  155.5230 C   0  0  0  0  0  0  0  0  0  0  0  0
  157.8010  213.3190  155.6300 C   0  0  0  0  0  0  0  0  0  0  0  0
  159.3200  211.4770  156.1070 C   0  0  0  0  0  0  0  0  0  0  0  0
  160.2150  212.3940  156.6710 C   0  0  0  0  0  3  0  0  0  0  0  0
  157.1850  210.9500  154.8480 C   0  0  2  0  0  3  0  0  0  0  0  0
  154.7930  210.3620  154.6300 C   0  0  0  0  0  1  0  0  0  0  0  0
  155.8600  210.8350  155.5960 C   0  0  1  0  0  3  0  0  0  0  0  0
  156.9030  209.7620  155.7530 C   0  0  0  0  0  2  0  0  0  0  0  0
  156.1190  213.9210  153.8330 N   0  0  0  0  0  2  0  0  0  0  0  0
  154.8300  214.4350  153.3990 C   0  0  0  0  0  1  0  0  0  0  0  0
  155.6990  214.3010  156.0900 O   0  0  0  0  0  0  0  0  0  0  0  0
  156.5030  213.8940  155.2100 C   0  0  0  0  0  0  0  0  0  0  0  0
  1  2  1  0  0  0  0
  2 33  1  1  0  0  0
  3  1  1  0  0  0  0
  4  2  1  0  0  0  0
  5  3  2  0  0  0  0
  5  4  1  0  0  0  0
  6  9  1  0  0  0  0
  7  6  1  0  0  0  0
  8  7  2  0  0  0  0
  9  5  1  0  0  0  0
 10  9  2  0  0  0  0
 11  7  1  0  0  0  0
 12 11  1  0  0  0  0
 13 14  1  0  0  0  0
 13 17  2  0  0  0  0
 14 18  1  0  0  0  0
 15 16  1  0  0  0  0
 16 12  1  0  0  0  0
 17 15  1  0  0  0  0
 18 16  1  0  0  0  0
 19  3  1  0  0  0  0
 20 19  1  0  0  0  0
 22 20  1  0  0  0  0
 23 24  2  0  0  0  0
 24 21  1  0  0  0  0
 24 22  1  0  0  0  0
 26 25  1  6  0  0  0
 26 21  1  0  0  0  0
 27 26  1  0  0  0  0
 28 27  1  0  0  0  0
 29 28  1  0  0  0  0
 30 29  1  0  0  0  0
 31 30  1  0  0  0  0
 32 30  2  0  0  0  0
 34 33  1  0  0  0  0
 35 36  1  0  0  0  0
 37 38  1  0  0  0  0
 37 39  2  0  0  0  0
 38 35  2  0  0  0  0
 39 34  1  0  0  0  0
 39 40  1  0  0  0  0
 40 36  2  0  0  0  0
 41 37  1  1  0  0  0
 41 43  1  0  0  0  0
 41 44  1  0  0  0  0
 43 42  1  6  0  0  0
 43 44  1  0  0  0  0
 45 48  1  0  0  0  0
 46 45  1  0  0  0  0
 48 38  1  0  0  0  0
 48 47  2  0  0  0  0
M  END
>  <MODEL>
8

>  <REMARK>
 VINA RESULT:      -4.5      3.604      4.853
  Name = 
  17 active torsions:
  status: ('A' for Active; 'I' for Inactive)
    1  A    between atoms: N_1  and  C_16
    2  A    between atoms: C_2  and  C_23
    3  A    between atoms: C_4  and  C_18
    4  A    between atoms: C_4  and  C_42
    5  A    between atoms: C_6  and  N_9
    6  A    between atoms: C_6  and  N_32
    7  A    between atoms: C_7  and  C_38
    8  A    between atoms: C_13  and  C_30
    9  A    between atoms: C_13  and  N_39
   10  A    between atoms: C_16  and  C_34
   11  A    between atoms: C_25  and  C_47
   12  A    between atoms: C_28  and  C_46
   13  A    between atoms: N_31  and  C_42
   14  A    between atoms: N_32  and  C_37
   15  A    between atoms: C_34  and  N_45
   16  A    between atoms: C_38  and  N_45
   17  A    between atoms: N_39  and  C_40
                            x       y       z     vdW  Elec       q    Type
                         _______ _______ _______ _____ _____    ______ ____

>  <TORSDO>
F 17

$$$$
=
 OpenBabel11052410123D

 48 51  0  0  1  0  0  0  0  0999 V2000
  161.3550  211.7620  150.8090 S   0  0  0  0  0  0  0  0  0  0  0  0
  162.1260  211.9750  149.1720 C   0  0  1  0  0  3  0  0  0  0  0  0
  161.6150  210.0020  150.6320 C   0  0  0  0  0  0  0  0  0  0  0  0
  161.8890  210.6960  148.3870 C   0  0  0  0  0  2  0  0  0  0  0  0
  161.8590  209.5950  149.3880 C   0  0  0  0  0  0  0  0  0  0  0  0
  161.6410  207.1320  149.8330 N   0  0  0  0  0  2  0  0  0  0  0  0
  161.6820  205.7370  149.5110 C   0  0  0  0  0  0  0  0  0  0  0  0
  162.0100  205.3490  148.3550 O   0  0  0  0  0  0  0  0  0  0  0  0
  162.0920  208.1920  148.9810 C   0  0  0  0  0  0  0  0  0  0  0  0
  162.6950  207.9270  147.9070 O   0  0  0  0  0  0  0  0  0  0  0  0
  161.3580  204.7260  150.5540 C   0  0  0  0  0  2  0  0  0  0  0  0
  160.0740  203.9910  150.2060 C   0  0  0  0  0  2  0  0  0  0  0  0
  161.3390  200.5100  148.2020 N   0  0  0  0  0  2  0  0  0  0  0  0
  161.4940  200.5790  149.6560 C   0  0  0  0  0  2  0  0  0  0  0  0
  160.5200  202.7630  148.0680 C   0  0  0  0  0  3  0  0  0  0  0  0
  160.3820  202.7570  149.4970 N   0  0  0  0  0  0  0  0  0  0  0  0
  160.9590  201.6700  147.4410 C   0  0  0  0  0  3  0  0  0  0  0  0
  160.4180  201.4930  150.2400 C   0  0  0  0  0  2  0  0  0  0  0  0
  161.6310  209.1180  151.7600 N   0  0  0  0  0  2  0  0  0  0  0  0
  160.5350  209.0410  152.7140 C   0  0  0  0  0  2  0  0  0  0  0  0
  161.3520  209.8030  155.4110 N   0  0  0  0  0  2  0  0  0  0  0  0
  160.8440  208.0500  153.7340 N   0  0  0  0  0  2  0  0  0  0  0  0
  161.5850  207.5250  155.8670 O   0  0  0  0  0  0  0  0  0  0  0  0
  161.2730  208.4230  155.0420 C   0  0  0  0  0  0  0  0  0  0  0  0
  163.1990  210.8330  156.6080 C   0  0  0  0  0  1  0  0  0  0  0  0
  161.8050  210.2420  156.7220 C   0  0  1  0  0  3  0  0  0  0  0  0
  160.8450  211.2860  157.2600 C   0  0  0  0  0  2  0  0  0  0  0  0
  160.4330  212.1850  156.1920 N   0  0  0  0  0  2  0  0  0  0  0  0
  159.0790  212.6270  156.4950 C   0  0  0  0  0  2  0  0  0  0  0  0
  158.1110  212.0120  155.5430 C   0  0  0  0  0  0  0  0  0  0  0  0
  156.7630  211.9270  155.8800 O   0  0  0  0  0  1  0  0  0  0  0  0
  158.5080  211.5900  154.4260 O   0  0  0  0  0  0  0  0  0  0  0  0
  161.5270  213.1590  148.4380 C   0  0  0  0  0  2  0  0  0  0  0  0
  160.7030  212.6850  147.3360 N   0  0  0  0  0  2  0  0  0  0  0  0
  161.6850  213.3750  143.3180 N   0  0  0  0  0  0  0  0  0  0  0  0
  162.6760  213.3080  144.2420 C   0  0  0  0  0  3  0  0  0  0  0  0
  160.0140  212.8810  144.9750 C   0  0  0  0  0  0  0  0  0  0  0  0
  160.3710  213.2010  143.6350 C   0  0  0  0  0  0  0  0  0  0  0  0
  161.0340  212.8750  145.9550 C   0  0  0  0  0  0  0  0  0  0  0  0
  162.3670  213.0730  145.5770 C   0  0  0  0  0  3  0  0  0  0  0  0
  158.5820  212.5940  145.3760 C   0  0  2  0  0  3  0  0  0  0  0  0
  156.3820  213.6840  145.6640 C   0  0  0  0  0  1  0  0  0  0  0  0
  157.8750  213.8590  145.8520 C   0  0  1  0  0  3  0  0  0  0  0  0
  158.3710  212.8570  146.8590 C   0  0  0  0  0  2  0  0  0  0  0  0
  159.3270  212.5190  141.4300 N   0  0  0  0  0  2  0  0  0  0  0  0
  158.3330  212.6650  140.3780 C   0  0  0  0  0  1  0  0  0  0  0  0
  158.5320  214.3270  142.6620 O   0  0  0  0  0  0  0  0  0  0  0  0
  159.3820  213.4030  142.5530 C   0  0  0  0  0  0  0  0  0  0  0  0
  2 33  1  6  0  0  0
  2  1  1  0  0  0  0
  3  1  1  0  0  0  0
  3 19  1  0  0  0  0
  4  2  1  0  0  0  0
  4  5  1  0  0  0  0
  5  3  2  0  0  0  0
  7  6  1  0  0  0  0
  7 11  1  0  0  0  0
  8  7  2  0  0  0  0
  9  5  1  0  0  0  0
  9  6  1  0  0  0  0
 10  9  2  0  0  0  0
 12 11  1  0  0  0  0
 13 14  1  0  0  0  0
 14 18  1  0  0  0  0
 15 16  1  0  0  0  0
 16 12  1  0  0  0  0
 16 18  1  0  0  0  0
 17 15  2  0  0  0  0
 17 13  1  0  0  0  0
 19 20  1  0  0  0  0
 20 22  1  0  0  0  0
 21 26  1  0  0  0  0
 22 24  1  0  0  0  0
 24 21  1  0  0  0  0
 24 23  2  0  0  0  0
 26 25  1  6  0  0  0
 26 27  1  0  0  0  0
 28 29  1  0  0  0  0
 28 27  1  0  0  0  0
 30 31  1  0  0  0  0
 30 29  1  0  0  0  0
 32 30  2  0  0  0  0
 34 33  1  0  0  0  0
 35 38  2  0  0  0  0
 35 36  1  0  0  0  0
 36 40  2  0  0  0  0
 37 39  2  0  0  0  0
 38 37  1  0  0  0  0
 39 34  1  0  0  0  0
 40 39  1  0  0  0  0
 41 37  1  1  0  0  0
 41 43  1  0  0  0  0
 41 44  1  0  0  0  0
 43 42  1  6  0  0  0
 43 44  1  0  0  0  0
 45 48  1  0  0  0  0
 46 45  1  0  0  0  0
 48 47  2  0  0  0  0
 48 38  1  0  0  0  0
M  END
>  <MODEL>
9

>  <REMARK>
 VINA RESULT:      -4.5      2.417     10.060
  Name = 
  17 active torsions:
  status: ('A' for Active; 'I' for Inactive)
    1  A    between atoms: N_1  and  C_16
    2  A    between atoms: C_2  and  C_23
    3  A    between atoms: C_4  and  C_18
    4  A    between atoms: C_4  and  C_42
    5  A    between atoms: C_6  and  N_9
    6  A    between atoms: C_6  and  N_32
    7  A    between atoms: C_7  and  C_38
    8  A    between atoms: C_13  and  C_30
    9  A    between atoms: C_13  and  N_39
   10  A    between atoms: C_16  and  C_34
   11  A    between atoms: C_25  and  C_47
   12  A    between atoms: C_28  and  C_46
   13  A    between atoms: N_31  and  C_42
   14  A    between atoms: N_32  and  C_37
   15  A    between atoms: C_34  and  N_45
   16  A    between atoms: C_38  and  N_45
   17  A    between atoms: N_39  and  C_40
                            x       y       z     vdW  Elec       q    Type
                         _______ _______ _______ _____ _____    ______ ____

>  <TORSDO>
F 17

$$$$
