=
 OpenBabel11052410373D

 25 28  0  0  1  0  0  0  0  0999 V2000
  161.2040  207.0680  152.4890 C   0  0  0  0  0  0  0  0  0  0  0  0
  161.5040  208.3890  152.3410 N   0  0  0  0  0  2  0  0  0  0  0  0
  161.4050  205.7910  149.1970 C   0  0  0  0  0  0  0  0  0  0  0  0
  161.8040  208.2220  149.9840 C   0  0  0  0  0  0  0  0  0  0  0  0
  160.8960  206.5110  153.8350 C   0  0  0  0  0  1  0  0  0  0  0  0
  161.4130  204.4480  147.1940 C   0  0  0  0  0  0  0  0  0  0  0  0
  160.9350  204.9520  151.2720 N   0  0  0  0  0  0  0  0  0  0  0  0
  161.7880  208.9360  151.1490 N   0  0  0  0  0  0  0  0  0  0  0  0
  161.5040  206.8560  150.0710 C   0  0  0  0  0  0  0  0  0  0  0  0
  161.0640  203.3130  147.9750 C   0  0  0  0  0  0  0  0  0  0  0  0
  161.0650  204.6810  149.9540 C   0  0  0  0  0  0  0  0  0  0  0  0
  161.5880  205.7000  147.8200 C   0  0  0  0  0  3  0  0  0  0  0  0
  161.1980  206.2740  151.3540 C   0  0  0  0  0  0  0  0  0  0  0  0
  160.8940  203.4320  149.3660 C   0  0  0  0  0  3  0  0  0  0  0  0
  160.4410  204.5510  144.9900 O   0  0  0  0  0  0  0  0  0  0  0  0
  161.0100  205.6840  144.3870 C   0  0  0  0  0  2  0  0  0  0  0  0
  161.6250  204.3110  145.7070 C   0  0  1  0  0  3  0  0  0  0  0  0
  162.3080  205.5220  145.1310 C   0  0  0  0  0  2  0  0  0  0  0  0
  162.1320  208.9410  148.7420 C   0  0  0  0  0  3  0  0  0  0  0  0
  162.1610  210.1950  148.6630 O   0  0  0  0  0  0  0  0  0  0  0  0
  160.9060  201.9650  147.3540 C   0  0  0  0  0  2  0  0  0  0  0  0
  161.3060  200.9380  148.2990 N   0  0  0  0  0  2  0  0  0  0  0  0
  161.6810  199.7750  147.5170 C   0  0  0  0  0  2  0  0  0  0  0  0
  161.3330  198.6400  145.5150 C   0  0  0  0  0  1  0  0  0  0  0  0
  161.2140  199.9370  146.1540 N   0  0  0  0  0  2  0  0  0  0  0  0
  1  5  1  0  0  0  0
  2  1  1  0  0  0  0
  3 11  1  0  0  0  0
  3  9  2  0  0  0  0
  4  9  1  0  0  0  0
  4  8  2  0  0  0  0
  6 12  2  0  0  0  0
  6 10  1  0  0  0  0
  7 13  1  0  0  0  0
  8  2  1  0  0  0  0
  9 13  1  0  0  0  0
 10 14  2  0  0  0  0
 11  7  2  0  0  0  0
 12  3  1  0  0  0  0
 13  1  2  0  0  0  0
 14 11  1  0  0  0  0
 15 17  1  0  0  0  0
 16 15  1  0  0  0  0
 16 18  1  0  0  0  0
 17  6  1  1  0  0  0
 18 17  1  0  0  0  0
 19  4  1  0  0  0  0
 20 19  2  0  0  0  0
 21 10  1  0  0  0  0
 21 22  1  0  0  0  0
 23 22  1  0  0  0  0
 24 25  1  0  0  0  0
 25 23  1  0  0  0  0
M  END
>  <MODEL>
1

>  <REMARK>
 VINA RESULT:      -8.4      0.000      0.000
  Name = 
  6 active torsions:
  status: ('A' for Active; 'I' for Inactive)
    1  A    between atoms: C_6  and  N_11
    2  A    between atoms: C_6  and  C_18
    3  A    between atoms: C_7  and  C_8
    4  A    between atoms: N_11  and  C_16
    5  A    between atoms: C_12  and  C_20
    6  A    between atoms: C_16  and  N_24
                            x       y       z     vdW  Elec       q    Type
                         _______ _______ _______ _____ _____    ______ ____

>  <TORSDO>
F 6

$$$$
=
 OpenBabel11052410373D

 25 28  0  0  1  0  0  0  0  0999 V2000
  160.9510  202.7460  149.4470 C   0  0  0  0  0  0  0  0  0  0  0  0
  161.0150  203.0530  148.1210 N   0  0  0  0  0  0  0  0  0  0  0  0
  161.2710  205.8840  151.0480 C   0  0  0  0  0  0  0  0  0  0  0  0
  161.2720  205.3890  148.5090 C   0  0  0  0  0  0  0  0  0  0  0  0
  160.7800  201.3340  149.8870 C   0  0  0  0  0  1  0  0  0  0  0  0
  161.4400  207.7260  152.5940 C   0  0  0  0  0  0  0  0  0  0  0  0
  161.0070  203.7100  151.7050 N   0  0  0  0  0  0  0  0  0  0  0  0
  161.1680  204.3100  147.6770 N   0  0  0  0  0  0  0  0  0  0  0  0
  161.2120  205.1380  149.8870 C   0  0  0  0  0  0  0  0  0  0  0  0
  161.3100  206.8100  153.6720 C   0  0  0  0  0  0  0  0  0  0  0  0
  161.1440  204.9950  152.1030 C   0  0  2  0  0  3  0  0  0  0  0  0
  161.4150  207.2510  151.2660 C   0  0  0  0  0  3  0  0  0  0  0  0
  161.0490  203.7860  150.3580 C   0  0  0  0  0  0  0  0  0  0  0  0
  161.1570  205.4340  153.4220 C   0  0  0  0  0  3  0  0  0  0  0  0
  162.3380  209.8450  151.8760 O   0  0  0  0  0  0  0  0  0  0  0  0
  161.2240  210.6030  151.4760 C   0  0  0  0  0  2  0  0  0  0  0  0
  161.5740  209.2040  152.8650 C   0  0  1  0  0  3  0  0  0  0  0  0
  160.3230  209.9510  152.4890 C   0  0  0  0  0  2  0  0  0  0  0  0
  161.4370  206.7160  147.8950 C   0  0  0  0  0  3  0  0  0  0  0  0
  162.5200  207.3540  147.9220 O   0  0  0  0  0  0  0  0  0  0  0  0
  161.2960  207.2790  155.0890 C   0  0  0  0  0  2  0  0  0  0  0  0
  159.9300  207.3140  155.5820 N   0  0  0  0  0  2  0  0  0  0  0  0
  159.9120  208.2430  156.6960 C   0  0  0  0  0  2  0  0  0  0  0  0
  159.2750  210.3880  156.0570 C   0  0  0  0  0  1  0  0  0  0  0  0
  160.4240  209.5280  156.2630 N   0  0  0  0  0  2  0  0  0  0  0  0
  1  5  1  0  0  0  0
  1 13  1  0  0  0  0
  2  1  2  0  0  0  0
  3 12  1  0  0  0  0
  3 11  1  0  0  0  0
  4  9  1  0  0  0  0
  6 10  1  0  0  0  0
  7 11  1  0  0  0  0
  8  2  1  0  0  0  0
  8  4  2  0  0  0  0
  9 13  1  0  0  0  0
  9  3  2  0  0  0  0
 10 21  1  0  0  0  0
 11 14  1  6  0  0  0
 12  6  2  0  0  0  0
 13  7  2  0  0  0  0
 14 10  2  0  0  0  0
 15 17  1  0  0  0  0
 16 15  1  0  0  0  0
 16 18  1  0  0  0  0
 17  6  1  6  0  0  0
 18 17  1  0  0  0  0
 19 20  2  0  0  0  0
 19  4  1  0  0  0  0
 21 22  1  0  0  0  0
 22 23  1  0  0  0  0
 24 25  1  0  0  0  0
 25 23  1  0  0  0  0
M  END
>  <MODEL>
2

>  <REMARK>
 VINA RESULT:      -8.0      2.691      7.519
  Name = 
  6 active torsions:
  status: ('A' for Active; 'I' for Inactive)
    1  A    between atoms: C_6  and  N_11
    2  A    between atoms: C_6  and  C_18
    3  A    between atoms: C_7  and  C_8
    4  A    between atoms: N_11  and  C_16
    5  A    between atoms: C_12  and  C_20
    6  A    between atoms: C_16  and  N_24
                            x       y       z     vdW  Elec       q    Type
                         _______ _______ _______ _____ _____    ______ ____

>  <TORSDO>
F 6

$$$$
=
 OpenBabel11052410373D

 25 28  0  0  1  0  0  0  0  0999 V2000
  161.0770  203.0760  146.7380 C   0  0  0  0  0  0  0  0  0  0  0  0
  160.8600  201.8640  147.3220 N   0  0  0  0  0  0  0  0  0  0  0  0
  161.3700  205.2860  149.4840 C   0  0  0  0  0  0  0  0  0  0  0  0
  160.9430  202.7350  149.5370 C   0  0  0  0  0  0  0  0  0  0  0  0
  161.1390  203.1990  145.2560 C   0  0  0  0  0  1  0  0  0  0  0  0
  161.6480  207.1660  150.9670 C   0  0  0  0  0  0  0  0  0  0  0  0
  161.4630  205.4560  147.2060 N   0  0  0  0  0  0  0  0  0  0  0  0
  160.7960  201.7040  148.6520 N   0  0  0  0  0  0  0  0  0  0  0  0
  161.1710  204.0090  148.9970 C   0  0  0  0  0  0  0  0  0  0  0  0
  161.8210  208.0090  149.8360 C   0  0  0  0  0  0  0  0  0  0  0  0
  161.5400  206.1120  148.3850 C   0  0  0  0  0  0  0  0  0  0  0  0
  161.4240  205.7860  150.7820 C   0  0  0  0  0  2  0  0  0  0  0  0
  161.2370  204.1750  147.5670 C   0  0  0  0  0  0  0  0  0  0  0  0
  161.7710  207.4760  148.5360 C   0  0  0  0  0  3  0  0  0  0  0  0
  160.4740  208.1420  152.8330 O   0  0  0  0  0  0  0  0  0  0  0  0
  160.5170  207.1710  153.8470 C   0  0  0  0  0  2  0  0  0  0  0  0
  161.7330  207.7370  152.3610 C   0  0  1  0  0  3  0  0  0  0  0  0
  161.8560  206.6530  153.3970 C   0  0  0  0  0  2  0  0  0  0  0  0
  160.8520  202.4260  150.9730 C   0  0  0  0  0  3  0  0  0  0  0  0
  161.8430  202.4560  151.7450 O   0  0  0  0  0  0  0  0  0  0  0  0
  162.0960  209.4680  149.9940 C   0  0  0  0  0  2  0  0  0  0  0  0
  162.0370  210.1220  148.6980 N   0  0  0  0  0  2  0  0  0  0  0  0
  162.0710  211.5510  148.9500 C   0  0  0  0  0  2  0  0  0  0  0  0
  162.1970  212.8170  147.0010 C   0  0  0  0  0  1  0  0  0  0  0  0
  162.9980  212.1820  148.0300 N   0  0  0  0  0  2  0  0  0  0  0  0
  1  2  2  0  0  0  0
  1 13  1  0  0  0  0
  2  8  1  0  0  0  0
  3 12  1  0  0  0  0
  4 19  1  0  0  0  0
  5  1  1  0  0  0  0
  7 13  2  0  0  0  0
  7 11  1  0  0  0  0
  8  4  2  0  0  0  0
  9  3  2  0  0  0  0
  9  4  1  0  0  0  0
 10 21  1  0  0  0  0
 10  6  2  0  0  0  0
 11 14  2  0  0  0  0
 11  3  1  0  0  0  0
 12  6  1  0  0  0  0
 13  9  1  0  0  0  0
 14 10  1  0  0  0  0
 15 16  1  0  0  0  0
 17  6  1  6  0  0  0
 17 15  1  0  0  0  0
 17 18  1  0  0  0  0
 18 16  1  0  0  0  0
 19 20  2  0  0  0  0
 22 23  1  0  0  0  0
 22 21  1  0  0  0  0
 24 25  1  0  0  0  0
 25 23  1  0  0  0  0
M  END
>  <MODEL>
3

>  <REMARK>
 VINA RESULT:      -7.8      2.694      7.691
  Name = 
  6 active torsions:
  status: ('A' for Active; 'I' for Inactive)
    1  A    between atoms: C_6  and  N_11
    2  A    between atoms: C_6  and  C_18
    3  A    between atoms: C_7  and  C_8
    4  A    between atoms: N_11  and  C_16
    5  A    between atoms: C_12  and  C_20
    6  A    between atoms: C_16  and  N_24
                            x       y       z     vdW  Elec       q    Type
                         _______ _______ _______ _____ _____    ______ ____

>  <TORSDO>
F 6

$$$$
=
 OpenBabel11052410373D

 25 28  0  0  1  0  0  0  0  0999 V2000
  161.3820  203.9260  147.3180 C   0  0  0  0  0  0  0  0  0  0  0  0
  161.1030  202.8240  148.0690 N   0  0  0  0  0  2  0  0  0  0  0  0
  161.4990  206.5460  149.6910 C   0  0  0  0  0  0  0  0  0  0  0  0
  161.0310  204.0380  150.1170 C   0  0  0  0  0  0  0  0  0  0  0  0
  161.5580  203.8090  145.8440 C   0  0  0  0  0  1  0  0  0  0  0  0
  161.6920  208.6390  150.8710 C   0  0  0  0  0  0  0  0  0  0  0  0
  161.7670  206.3480  147.4280 N   0  0  0  0  0  0  0  0  0  0  0  0
  160.9360  202.8790  149.3990 N   0  0  0  0  0  0  0  0  0  0  0  0
  161.3180  205.2080  149.4000 C   0  0  0  0  0  0  0  0  0  0  0  0
  161.9630  209.2900  149.6370 C   0  0  0  0  0  0  0  0  0  0  0  0
  161.7650  207.1850  148.4900 C   0  0  0  0  0  0  0  0  0  0  0  0
  161.4620  207.2480  150.8920 C   0  0  0  0  0  3  0  0  0  0  0  0
  161.4950  205.1420  147.9710 C   0  0  0  0  0  0  0  0  0  0  0  0
  162.0040  208.5550  148.4390 C   0  0  0  0  0  3  0  0  0  0  0  0
  160.5700  210.2840  152.2310 O   0  0  0  0  0  0  0  0  0  0  0  0
  160.0640  209.5730  153.3310 C   0  0  0  0  0  2  0  0  0  0  0  0
  161.6800  209.4260  152.1580 C   0  0  1  0  0  3  0  0  0  0  0  0
  161.2030  208.5900  153.3140 C   0  0  0  0  0  2  0  0  0  0  0  0
  160.8270  203.9640  151.5720 C   0  0  0  0  0  3  0  0  0  0  0  0
  160.8830  202.8870  152.2190 O   0  0  0  0  0  0  0  0  0  0  0  0
  162.2470  210.7540  149.5800 C   0  0  0  0  0  2  0  0  0  0  0  0
  161.9300  211.2660  148.2580 N   0  0  0  0  0  2  0  0  0  0  0  0
  162.8710  212.3360  147.9880 C   0  0  0  0  0  2  0  0  0  0  0  0
  161.0690  212.8000  146.5900 C   0  0  0  0  0  1  0  0  0  0  0  0
  162.4920  213.0160  146.7640 N   0  0  0  0  0  2  0  0  0  0  0  0
  1 13  2  0  0  0  0
  1  2  1  0  0  0  0
  2  8  1  0  0  0  0
  3 12  1  0  0  0  0
  4 19  1  0  0  0  0
  5  1  1  0  0  0  0
  6 12  2  0  0  0  0
  7 13  1  0  0  0  0
  7 11  2  0  0  0  0
  8  4  2  0  0  0  0
  9  3  2  0  0  0  0
  9  4  1  0  0  0  0
 10  6  1  0  0  0  0
 11  3  1  0  0  0  0
 13  9  1  0  0  0  0
 14 11  1  0  0  0  0
 14 10  2  0  0  0  0
 15 16  1  0  0  0  0
 17  6  1  6  0  0  0
 17 15  1  0  0  0  0
 17 18  1  0  0  0  0
 18 16  1  0  0  0  0
 19 20  2  0  0  0  0
 21 10  1  0  0  0  0
 22 21  1  0  0  0  0
 23 22  1  0  0  0  0
 24 25  1  0  0  0  0
 25 23  1  0  0  0  0
M  END
>  <MODEL>
4

>  <REMARK>
 VINA RESULT:      -7.6      2.912      7.808
  Name = 
  6 active torsions:
  status: ('A' for Active; 'I' for Inactive)
    1  A    between atoms: C_6  and  N_11
    2  A    between atoms: C_6  and  C_18
    3  A    between atoms: C_7  and  C_8
    4  A    between atoms: N_11  and  C_16
    5  A    between atoms: C_12  and  C_20
    6  A    between atoms: C_16  and  N_24
                            x       y       z     vdW  Elec       q    Type
                         _______ _______ _______ _____ _____    ______ ____

>  <TORSDO>
F 6

$$$$
=
 OpenBabel11052410373D

 25 28  0  0  1  0  0  0  0  0999 V2000
  161.3830  208.3280  155.3240 C   0  0  0  0  0  0  0  0  0  0  0  0
  161.4320  209.6850  155.2130 N   0  0  0  0  0  2  0  0  0  0  0  0
  161.0410  207.2270  151.9800 C   0  0  0  0  0  0  0  0  0  0  0  0
  161.2230  209.6600  152.8400 C   0  0  0  0  0  0  0  0  0  0  0  0
  161.4720  207.6780  156.6600 C   0  0  0  0  0  1  0  0  0  0  0  0
  160.8120  205.9810  149.9290 C   0  0  0  0  0  0  0  0  0  0  0  0
  161.1810  206.2450  154.0410 N   0  0  0  0  0  0  0  0  0  0  0  0
  161.3560  210.3160  154.0310 N   0  0  0  0  0  0  0  0  0  0  0  0
  161.1660  208.2600  152.8890 C   0  0  0  0  0  0  0  0  0  0  0  0
  160.8270  204.7750  150.6810 C   0  0  0  0  0  0  0  0  0  0  0  0
  161.0560  206.0490  152.7090 C   0  0  0  0  0  0  0  0  0  0  0  0
  160.9250  207.2210  150.5940 C   0  0  0  0  0  3  0  0  0  0  0  0
  161.2480  207.5880  154.1610 C   0  0  0  0  0  0  0  0  0  0  0  0
  160.9540  204.8110  152.0810 C   0  0  0  0  0  3  0  0  0  0  0  0
  161.1660  207.1280  147.8380 O   0  0  0  0  0  0  0  0  0  0  0  0
  162.2180  206.4390  147.2110 C   0  0  0  0  0  2  0  0  0  0  0  0
  160.7070  205.9370  148.4250 C   0  0  1  0  0  3  0  0  0  0  0  0
  161.8150  205.1220  147.8160 C   0  0  0  0  0  2  0  0  0  0  0  0
  161.1500  210.4700  151.6140 C   0  0  0  0  0  3  0  0  0  0  0  0
  162.0360  210.4450  150.7220 O   0  0  0  0  0  0  0  0  0  0  0  0
  160.7450  203.4440  150.0110 C   0  0  0  0  0  2  0  0  0  0  0  0
  160.9190  202.3870  150.9920 N   0  0  0  0  0  2  0  0  0  0  0  0
  160.9640  201.1380  150.2560 C   0  0  0  0  0  2  0  0  0  0  0  0
  161.4670  200.4970  148.0760 C   0  0  0  0  0  1  0  0  0  0  0  0
  160.6330  201.3830  148.8660 N   0  0  0  0  0  2  0  0  0  0  0  0
  1  5  1  0  0  0  0
  2  1  1  0  0  0  0
  3 11  1  0  0  0  0
  3  9  2  0  0  0  0
  4  9  1  0  0  0  0
  4  8  2  0  0  0  0
  6 12  2  0  0  0  0
  6 10  1  0  0  0  0
  7 13  1  0  0  0  0
  8  2  1  0  0  0  0
  9 13  1  0  0  0  0
 10 14  2  0  0  0  0
 11  7  2  0  0  0  0
 12  3  1  0  0  0  0
 13  1  2  0  0  0  0
 14 11  1  0  0  0  0
 15 17  1  0  0  0  0
 16 18  1  0  0  0  0
 16 15  1  0  0  0  0
 17  6  1  1  0  0  0
 18 17  1  0  0  0  0
 19  4  1  0  0  0  0
 20 19  2  0  0  0  0
 21 10  1  0  0  0  0
 21 22  1  0  0  0  0
 23 22  1  0  0  0  0
 24 25  1  0  0  0  0
 25 23  1  0  0  0  0
M  END
>  <MODEL>
5

>  <REMARK>
 VINA RESULT:      -7.4      2.090      3.138
  Name = 
  6 active torsions:
  status: ('A' for Active; 'I' for Inactive)
    1  A    between atoms: C_6  and  N_11
    2  A    between atoms: C_6  and  C_18
    3  A    between atoms: C_7  and  C_8
    4  A    between atoms: N_11  and  C_16
    5  A    between atoms: C_12  and  C_20
    6  A    between atoms: C_16  and  N_24
                            x       y       z     vdW  Elec       q    Type
                         _______ _______ _______ _____ _____    ______ ____

>  <TORSDO>
F 6

$$$$
=
 OpenBabel11052410373D

 25 28  0  0  1  0  0  0  0  0999 V2000
  161.9630  210.3340  150.0730 C   0  0  0  0  0  0  0  0  0  0  0  0
  161.7830  210.7880  151.3450 N   0  0  0  0  0  2  0  0  0  0  0  0
  161.2810  206.8720  150.3160 C   0  0  0  0  0  0  0  0  0  0  0  0
  161.2140  208.6400  152.2030 C   0  0  0  0  0  0  0  0  0  0  0  0
  162.3570  211.2730  148.9870 C   0  0  0  0  0  1  0  0  0  0  0  0
  160.9220  204.5170  149.9460 C   0  0  0  0  0  0  0  0  0  0  0  0
  161.8860  208.3280  148.6590 N   0  0  0  0  0  0  0  0  0  0  0  0
  161.4280  209.9800  152.3560 N   0  0  0  0  0  0  0  0  0  0  0  0
  161.3840  208.1120  150.9150 C   0  0  0  0  0  0  0  0  0  0  0  0
  161.2370  204.7030  148.5730 C   0  0  0  0  0  0  0  0  0  0  0  0
  161.5870  207.0480  148.9760 C   0  0  0  0  0  0  0  0  0  0  0  0
  160.9420  205.6220  150.8230 C   0  0  0  0  0  3  0  0  0  0  0  0
  161.7660  208.9840  149.8330 C   0  0  0  0  0  0  0  0  0  0  0  0
  161.5680  205.9790  148.0850 C   0  0  0  0  0  3  0  0  0  0  0  0
  161.5510  202.2070  150.2280 O   0  0  0  0  0  0  0  0  0  0  0  0
  161.7420  202.0410  151.6100 C   0  0  0  0  0  2  0  0  0  0  0  0
  160.5370  203.1510  150.4590 C   0  0  1  0  0  3  0  0  0  0  0  0
  160.6880  203.0590  151.9530 C   0  0  0  0  0  2  0  0  0  0  0  0
  160.8280  207.8650  153.3930 C   0  0  0  0  0  3  0  0  0  0  0  0
  160.8990  208.3220  154.5620 O   0  0  0  0  0  0  0  0  0  0  0  0
  161.1920  203.5650  147.6070 C   0  0  0  0  0  2  0  0  0  0  0  0
  161.9110  203.9180  146.3960 N   0  0  0  0  0  2  0  0  0  0  0  0
  161.2000  203.3010  145.2930 C   0  0  0  0  0  2  0  0  0  0  0  0
  161.3650  205.4560  144.4310 C   0  0  0  0  0  1  0  0  0  0  0  0
  160.4760  204.3170  144.5540 N   0  0  0  0  0  2  0  0  0  0  0  0
  1  2  1  0  0  0  0
  2  8  1  0  0  0  0
  3 12  1  0  0  0  0
  3  9  2  0  0  0  0
  4  8  2  0  0  0  0
  4 19  1  0  0  0  0
  5  1  1  0  0  0  0
  6 12  2  0  0  0  0
  7 11  2  0  0  0  0
  7 13  1  0  0  0  0
  9  4  1  0  0  0  0
 10  6  1  0  0  0  0
 11  3  1  0  0  0  0
 13  1  2  0  0  0  0
 13  9  1  0  0  0  0
 14 10  2  0  0  0  0
 14 11  1  0  0  0  0
 15 17  1  0  0  0  0
 15 16  1  0  0  0  0
 16 18  1  0  0  0  0
 17  6  1  6  0  0  0
 17 18  1  0  0  0  0
 19 20  2  0  0  0  0
 21 10  1  0  0  0  0
 22 21  1  0  0  0  0
 23 22  1  0  0  0  0
 24 25  1  0  0  0  0
 25 23  1  0  0  0  0
M  END
>  <MODEL>
6

>  <REMARK>
 VINA RESULT:      -7.3      2.685      4.459
  Name = 
  6 active torsions:
  status: ('A' for Active; 'I' for Inactive)
    1  A    between atoms: C_6  and  N_11
    2  A    between atoms: C_6  and  C_18
    3  A    between atoms: C_7  and  C_8
    4  A    between atoms: N_11  and  C_16
    5  A    between atoms: C_12  and  C_20
    6  A    between atoms: C_16  and  N_24
                            x       y       z     vdW  Elec       q    Type
                         _______ _______ _______ _____ _____    ______ ____

>  <TORSDO>
F 6

$$$$
=
 OpenBabel11052410373D

 25 28  0  0  1  0  0  0  0  0999 V2000
  161.2870  205.5910  148.0820 C   0  0  0  0  0  0  0  0  0  0  0  0
  161.1920  204.2390  148.2220 N   0  0  0  0  0  0  0  0  0  0  0  0
  161.2050  206.7850  151.4100 C   0  0  0  0  0  0  0  0  0  0  0  0
  161.0830  204.3320  150.6000 C   0  0  0  0  0  0  0  0  0  0  0  0
  161.3920  206.2030  146.7290 C   0  0  0  0  0  1  0  0  0  0  0  0
  161.1980  208.0870  153.4390 C   0  0  0  0  0  0  0  0  0  0  0  0
  161.3670  207.7080  149.3240 N   0  0  0  0  0  0  0  0  0  0  0  0
  161.0950  203.6430  149.4200 N   0  0  0  0  0  0  0  0  0  0  0  0
  161.1780  205.7280  150.5210 C   0  0  0  0  0  0  0  0  0  0  0  0
  161.3140  209.2690  152.6600 C   0  0  0  0  0  0  0  0  0  0  0  0
  161.3190  207.9410  150.6550 C   0  0  0  0  0  0  0  0  0  0  0  0
  161.1470  206.8300  152.8000 C   0  0  0  0  0  2  0  0  0  0  0  0
  161.2810  206.3640  149.2320 C   0  0  0  0  0  0  0  0  0  0  0  0
  161.3790  209.1930  151.2580 C   0  0  0  0  0  3  0  0  0  0  0  0
  159.8970  208.5770  155.4100 O   0  0  0  0  0  0  0  0  0  0  0  0
  159.7070  207.3390  156.0460 C   0  0  0  0  0  2  0  0  0  0  0  0
  161.1590  208.1700  154.9450 C   0  0  1  0  0  3  0  0  0  0  0  0
  161.0330  206.8080  155.5720 C   0  0  0  0  0  2  0  0  0  0  0  0
  160.9720  203.5580  151.8460 C   0  0  0  0  0  3  0  0  0  0  0  0
  161.5230  202.4390  152.0110 O   0  0  0  0  0  0  0  0  0  0  0  0
  161.4060  210.6130  153.3030 C   0  0  0  0  0  2  0  0  0  0  0  0
  160.3570  211.4770  152.7900 N   0  0  0  0  0  2  0  0  0  0  0  0
  159.4560  211.7400  153.8960 C   0  0  0  0  0  2  0  0  0  0  0  0
  159.3060  211.9580  156.2090 C   0  0  0  0  0  1  0  0  0  0  0  0
  160.2260  212.0310  155.0900 N   0  0  0  0  0  2  0  0  0  0  0  0
  1  2  2  0  0  0  0
  1 13  1  0  0  0  0
  2  8  1  0  0  0  0
  3 12  1  0  0  0  0
  4 19  1  0  0  0  0
  5  1  1  0  0  0  0
  7 11  1  0  0  0  0
  8  4  2  0  0  0  0
  9  4  1  0  0  0  0
  9  3  2  0  0  0  0
 10 21  1  0  0  0  0
 10  6  2  0  0  0  0
 11 14  2  0  0  0  0
 11  3  1  0  0  0  0
 12  6  1  0  0  0  0
 13  7  2  0  0  0  0
 13  9  1  0  0  0  0
 14 10  1  0  0  0  0
 15 16  1  0  0  0  0
 17  6  1  6  0  0  0
 17 15  1  0  0  0  0
 17 18  1  0  0  0  0
 18 16  1  0  0  0  0
 19 20  2  0  0  0  0
 22 21  1  0  0  0  0
 22 23  1  0  0  0  0
 23 25  1  0  0  0  0
 25 24  1  0  0  0  0
M  END
>  <MODEL>
7

>  <REMARK>
 VINA RESULT:      -7.2      3.421      8.732
  Name = 
  6 active torsions:
  status: ('A' for Active; 'I' for Inactive)
    1  A    between atoms: C_6  and  N_11
    2  A    between atoms: C_6  and  C_18
    3  A    between atoms: C_7  and  C_8
    4  A    between atoms: N_11  and  C_16
    5  A    between atoms: C_12  and  C_20
    6  A    between atoms: C_16  and  N_24
                            x       y       z     vdW  Elec       q    Type
                         _______ _______ _______ _____ _____    ______ ____

>  <TORSDO>
F 6

$$$$
=
 OpenBabel11052410373D

 25 28  0  0  1  0  0  0  0  0999 V2000
  161.8380  209.3760  150.4820 C   0  0  0  0  0  0  0  0  0  0  0  0
  161.5500  209.3620  151.8140 N   0  0  0  0  0  2  0  0  0  0  0  0
  161.4440  206.0000  149.5050 C   0  0  0  0  0  0  0  0  0  0  0  0
  161.1220  207.0200  151.8610 C   0  0  0  0  0  0  0  0  0  0  0  0
  162.2090  210.6490  149.8040 C   0  0  0  0  0  1  0  0  0  0  0  0
  161.3100  203.8900  148.3470 C   0  0  0  0  0  0  0  0  0  0  0  0
  162.0120  207.9640  148.4810 N   0  0  0  0  0  0  0  0  0  0  0  0
  161.2110  208.2410  152.4670 N   0  0  0  0  0  0  0  0  0  0  0  0
  161.4070  206.9690  150.4890 C   0  0  0  0  0  0  0  0  0  0  0  0
  161.6830  204.5470  147.1440 C   0  0  0  0  0  0  0  0  0  0  0  0
  161.8070  206.6360  148.3290 C   0  0  0  0  0  0  0  0  0  0  0  0
  161.1860  204.6330  149.5400 C   0  0  0  0  0  3  0  0  0  0  0  0
  161.7720  208.1770  149.7920 C   0  0  0  0  0  0  0  0  0  0  0  0
  161.9290  205.9310  147.1360 C   0  0  0  0  0  3  0  0  0  0  0  0
  161.9770  201.6900  149.0770 O   0  0  0  0  0  0  0  0  0  0  0  0
  161.0030  201.2990  150.0110 C   0  0  0  0  0  2  0  0  0  0  0  0
  161.0170  202.4100  148.3450 C   0  0  1  0  0  3  0  0  0  0  0  0
  159.9140  202.0620  149.3080 C   0  0  0  0  0  2  0  0  0  0  0  0
  160.7400  205.8660  152.6910 C   0  0  0  0  0  3  0  0  0  0  0  0
  161.3760  205.5180  153.7170 O   0  0  0  0  0  0  0  0  0  0  0  0
  161.7890  203.8010  145.8550 C   0  0  0  0  0  2  0  0  0  0  0  0
  160.8340  204.3330  144.8990 N   0  0  0  0  0  2  0  0  0  0  0  0
  159.9290  203.2500  144.5650 C   0  0  0  0  0  2  0  0  0  0  0  0
  159.4460  200.9890  144.8410 C   0  0  0  0  0  1  0  0  0  0  0  0
  160.4550  202.0020  145.0850 N   0  0  0  0  0  2  0  0  0  0  0  0
  1  2  1  0  0  0  0
  2  8  1  0  0  0  0
  3 12  1  0  0  0  0
  3  9  2  0  0  0  0
  4  8  2  0  0  0  0
  4 19  1  0  0  0  0
  5  1  1  0  0  0  0
  6 12  2  0  0  0  0
  7 13  1  0  0  0  0
  9  4  1  0  0  0  0
 10  6  1  0  0  0  0
 11  7  2  0  0  0  0
 11  3  1  0  0  0  0
 13  1  2  0  0  0  0
 13  9  1  0  0  0  0
 14 10  2  0  0  0  0
 14 11  1  0  0  0  0
 15 16  1  0  0  0  0
 17  6  1  1  0  0  0
 17 15  1  0  0  0  0
 17 18  1  0  0  0  0
 18 16  1  0  0  0  0
 19 20  2  0  0  0  0
 21 10  1  0  0  0  0
 22 21  1  0  0  0  0
 23 22  1  0  0  0  0
 23 25  1  0  0  0  0
 24 25  1  0  0  0  0
M  END
>  <MODEL>
8

>  <REMARK>
 VINA RESULT:      -7.2      2.414      3.872
  Name = 
  6 active torsions:
  status: ('A' for Active; 'I' for Inactive)
    1  A    between atoms: C_6  and  N_11
    2  A    between atoms: C_6  and  C_18
    3  A    between atoms: C_7  and  C_8
    4  A    between atoms: N_11  and  C_16
    5  A    between atoms: C_12  and  C_20
    6  A    between atoms: C_16  and  N_24
                            x       y       z     vdW  Elec       q    Type
                         _______ _______ _______ _____ _____    ______ ____

>  <TORSDO>
F 6

$$$$
=
 OpenBabel11052410373D

 25 28  0  0  1  0  0  0  0  0999 V2000
  161.2720  204.5220  145.6230 C   0  0  0  0  0  0  0  0  0  0  0  0
  161.0460  203.1810  145.7230 N   0  0  0  0  0  0  0  0  0  0  0  0
  161.5780  205.5700  148.9870 C   0  0  0  0  0  0  0  0  0  0  0  0
  161.1340  203.1800  148.1030 C   0  0  0  0  0  0  0  0  0  0  0  0
  161.3360  205.1790  144.2890 C   0  0  0  0  0  1  0  0  0  0  0  0
  161.8680  206.7740  151.0550 C   0  0  0  0  0  0  0  0  0  0  0  0
  161.6730  206.5620  146.9290 N   0  0  0  0  0  0  0  0  0  0  0  0
  160.9800  202.5460  146.9020 N   0  0  0  0  0  0  0  0  0  0  0  0
  161.3700  204.5610  148.0670 C   0  0  0  0  0  0  0  0  0  0  0  0
  162.0470  207.9720  150.3120 C   0  0  0  0  0  0  0  0  0  0  0  0
  161.7540  206.7400  148.2670 C   0  0  0  0  0  0  0  0  0  0  0  0
  161.6340  205.5590  150.3780 C   0  0  0  0  0  2  0  0  0  0  0  0
  161.4390  205.2390  146.7960 C   0  0  0  0  0  0  0  0  0  0  0  0
  161.9940  207.9520  148.9070 C   0  0  0  0  0  3  0  0  0  0  0  0
  160.8340  207.4120  153.1380 O   0  0  0  0  0  0  0  0  0  0  0  0
  160.4560  206.2050  153.7490 C   0  0  0  0  0  2  0  0  0  0  0  0
  161.9560  206.7940  152.5610 C   0  0  1  0  0  3  0  0  0  0  0  0
  161.6160  205.4540  153.1540 C   0  0  0  0  0  2  0  0  0  0  0  0
  161.0400  202.3670  149.3260 C   0  0  0  0  0  3  0  0  0  0  0  0
  161.0350  201.1100  149.3160 O   0  0  0  0  0  0  0  0  0  0  0  0
  162.3310  209.2700  150.9920 C   0  0  0  0  0  2  0  0  0  0  0  0
  161.1180  210.0660  151.0610 N   0  0  0  0  0  2  0  0  0  0  0  0
  161.0890  210.6710  152.3790 C   0  0  0  0  0  2  0  0  0  0  0  0
  159.6620  212.1850  153.4220 C   0  0  0  0  0  1  0  0  0  0  0  0
  159.7130  210.8840  152.7840 N   0  0  0  0  0  2  0  0  0  0  0  0
  1  2  2  0  0  0  0
  1 13  1  0  0  0  0
  2  8  1  0  0  0  0
  3 12  1  0  0  0  0
  4 19  1  0  0  0  0
  5  1  1  0  0  0  0
  7 11  1  0  0  0  0
  8  4  2  0  0  0  0
  9  4  1  0  0  0  0
  9  3  2  0  0  0  0
 10 21  1  0  0  0  0
 10  6  2  0  0  0  0
 11 14  2  0  0  0  0
 11  3  1  0  0  0  0
 12  6  1  0  0  0  0
 13  7  2  0  0  0  0
 13  9  1  0  0  0  0
 14 10  1  0  0  0  0
 15 16  1  0  0  0  0
 17  6  1  6  0  0  0
 17 15  1  0  0  0  0
 17 18  1  0  0  0  0
 18 16  1  0  0  0  0
 20 19  2  0  0  0  0
 21 22  1  0  0  0  0
 22 23  1  0  0  0  0
 23 25  1  0  0  0  0
 25 24  1  0  0  0  0
M  END
>  <MODEL>
9

>  <REMARK>
 VINA RESULT:      -7.1      2.564      7.929
  Name = 
  6 active torsions:
  status: ('A' for Active; 'I' for Inactive)
    1  A    between atoms: C_6  and  N_11
    2  A    between atoms: C_6  and  C_18
    3  A    between atoms: C_7  and  C_8
    4  A    between atoms: N_11  and  C_16
    5  A    between atoms: C_12  and  C_20
    6  A    between atoms: C_16  and  N_24
                            x       y       z     vdW  Elec       q    Type
                         _______ _______ _______ _____ _____    ______ ____

>  <TORSDO>
F 6

$$$$
