=
 OpenBabel11052411463D

 40 44  0  0  1  0  0  0  0  0999 V2000
  155.0070  211.8110  154.6590 C   0  0  0  0  0  1  0  0  0  0  0  0
  159.5330  210.4800  153.4670 N   0  0  0  0  0  0  0  0  0  0  0  0
  161.6140  209.5080  151.8170 N   0  0  0  0  0  0  0  0  0  0  0  0
  161.8730  210.0330  153.1230 C   0  0  0  0  0  0  0  0  0  0  0  0
  161.2200  208.1300  151.7180 C   0  0  0  0  0  3  0  0  0  0  0  0
  157.3830  212.1030  156.1490 S   0  0  0  0  0  0  0  0  0  0  0  0
  161.9080  210.3960  148.1340 C   0  0  0  0  0  2  0  0  0  0  0  0
  161.3590  209.7050  149.3670 C   0  0  2  0  0  3  0  0  0  0  0  0
  162.0590  210.2430  150.6190 C   0  0  1  0  0  3  0  0  0  0  0  0
  162.4410  211.1620  155.5710 N   0  0  0  0  0  0  0  0  0  0  0  0
  161.7790  211.7360  150.7390 C   0  0  0  0  0  2  0  0  0  0  0  0
  160.3680  212.1720  157.2110 O   0  0  0  0  0  1  0  0  0  0  0  0
  163.1480  210.1140  153.5810 N   0  0  0  0  0  0  0  0  0  0  0  0
  158.5370  210.9810  154.2380 C   0  0  0  0  0  0  0  0  0  0  0  0
  160.8270  210.5080  153.9150 C   0  0  0  0  0  0  0  0  0  0  0  0
  156.4770  211.6310  154.7930 C   0  0  0  0  0  0  0  0  0  0  0  0
  158.8060  211.5200  155.4850 C   0  0  0  0  0  0  0  0  0  0  0  0
  161.5700  208.2040  149.2690 C   0  0  0  0  0  2  0  0  0  0  0  0
  161.1240  207.5100  150.5390 C   0  0  0  0  0  0  0  0  0  0  0  0
  161.1410  211.0740  155.1770 C   0  0  0  0  0  0  0  0  0  0  0  0
  157.2430  211.0450  153.8390 N   0  0  0  0  0  0  0  0  0  0  0  0
  163.4380  210.6780  154.7840 C   0  0  0  0  0  3  0  0  0  0  0  0
  161.6470  211.8970  148.2440 C   0  0  1  0  0  3  0  0  0  0  0  0
  160.1090  211.5920  155.9770 C   0  0  0  0  0  0  0  0  0  0  0  0
  162.3000  212.4610  149.5040 C   0  0  0  0  0  2  0  0  0  0  0  0
  160.7750  206.1210  150.5240 N   0  0  0  0  0  0  0  0  0  0  0  0
  161.0820  205.2650  149.5860 C   0  0  0  0  0  0  0  0  0  0  0  0
  161.1550  202.9620  148.9120 N   0  0  0  0  0  0  0  0  0  0  0  0
  160.6890  203.8580  149.7210 C   0  0  0  0  0  3  0  0  0  0  0  0
  161.3720  200.5480  148.0740 C   0  0  0  0  0  1  0  0  0  0  0  0
  160.0100  201.2100  149.9060 O   0  0  0  0  0  0  0  0  0  0  0  0
  160.8230  201.5720  149.0240 C   0  0  0  0  0  0  0  0  0  0  0  0
  161.7550  205.6920  148.3240 C   0  0  0  0  0  2  0  0  0  0  0  0
  161.0770  205.1120  147.1790 N   0  0  0  0  0  2  0  0  0  0  0  0
  161.6490  205.1510  145.8780 C   0  0  0  0  0  0  0  0  0  0  0  0
  162.6630  205.8570  145.6560 O   0  0  0  0  0  0  0  0  0  0  0  0
  161.0840  204.3880  144.8640 O   0  0  0  0  0  0  0  0  0  0  0  0
  160.5940  203.0760  145.0950 C   0  0  0  0  0  1  0  0  0  0  0  0
  162.2930  212.7530  146.7790 S   0  0  0  0  0  0  0  0  0  0  0  0
  160.6320  213.1780  146.2020 C   0  0  0  0  0  1  0  0  0  0  0  0
  1 16  1  0  0  0  0
  2 15  1  0  0  0  0
  2 14  2  0  0  0  0
  3  4  1  0  0  0  0
  4 13  2  0  0  0  0
  4 15  1  0  0  0  0
  5  3  1  0  0  0  0
  7 23  1  0  0  0  0
  8  7  1  6  0  0  0
  8  9  1  0  0  0  0
  9 11  1  1  0  0  0
  9  3  1  0  0  0  0
 13 22  1  0  0  0  0
 14 17  1  0  0  0  0
 15 20  2  0  0  0  0
 16  6  1  0  0  0  0
 17 24  2  0  0  0  0
 17  6  1  0  0  0  0
 18  8  1  0  0  0  0
 18 19  1  0  0  0  0
 19  5  2  0  0  0  0
 20 10  1  0  0  0  0
 20 24  1  0  0  0  0
 21 14  1  0  0  0  0
 21 16  2  0  0  0  0
 22 10  2  0  0  0  0
 23 39  1  6  0  0  0
 23 25  1  0  0  0  0
 24 12  1  0  0  0  0
 25 11  1  0  0  0  0
 26 19  1  0  0  0  0
 27 29  1  0  0  0  0
 27 26  2  0  0  0  0
 28 32  1  0  0  0  0
 28 29  2  0  0  0  0
 30 32  1  0  0  0  0
 32 31  2  0  0  0  0
 33 27  1  0  0  0  0
 34 33  1  0  0  0  0
 35 34  1  0  0  0  0
 36 35  2  0  0  0  0
 37 38  1  0  0  0  0
 37 35  1  0  0  0  0
 40 39  1  0  0  0  0
M  END
>  <MODEL>
1

>  <REMARK>
 VINA RESULT:      -3.2      0.000      0.000
  Name = 
  7 active torsions:
  status: ('A' for Active; 'I' for Inactive)
    1  A    between atoms: N_1  and  C_31
    2  A    between atoms: N_7  and  C_34
    3  A    between atoms: C_13  and  C_26
    4  A    between atoms: C_13  and  C_34
    5  A    between atoms: O_14  and  C_16
    6  A    between atoms: N_19  and  C_36
    7  A    between atoms: S_27  and  C_37
                            x       y       z     vdW  Elec       q    Type
                         _______ _______ _______ _____ _____    ______ ____

>  <TORSDO>
F 7

$$$$
=
 OpenBabel11052411463D

 40 44  0  0  1  0  0  0  0  0999 V2000
  155.1270  211.4820  154.6480 C   0  0  0  0  0  1  0  0  0  0  0  0
  159.6500  210.4050  153.2160 N   0  0  0  0  0  0  0  0  0  0  0  0
  161.6990  209.6040  151.4390 N   0  0  0  0  0  0  0  0  0  0  0  0
  161.9900  210.0750  152.7590 C   0  0  0  0  0  0  0  0  0  0  0  0
  161.3580  208.2170  151.2860 C   0  0  0  0  0  3  0  0  0  0  0  0
  157.5480  211.8010  156.0580 S   0  0  0  0  0  0  0  0  0  0  0  0
  161.8070  210.6840  147.7980 C   0  0  0  0  0  2  0  0  0  0  0  0
  161.3370  209.9110  149.0140 C   0  0  2  0  0  3  0  0  0  0  0  0
  162.0650  210.4150  150.2640 C   0  0  1  0  0  3  0  0  0  0  0  0
  162.6110  211.1040  155.2370 N   0  0  0  0  0  0  0  0  0  0  0  0
  161.7300  211.8880  150.4700 C   0  0  0  0  0  2  0  0  0  0  0  0
  160.5680  211.9440  157.0060 O   0  0  0  0  0  1  0  0  0  0  0  0
  163.2790  210.1870  153.1710 N   0  0  0  0  0  0  0  0  0  0  0  0
  158.6670  210.8240  154.0500 C   0  0  0  0  0  0  0  0  0  0  0  0
  160.9600  210.4650  153.6140 C   0  0  0  0  0  0  0  0  0  0  0  0
  156.6070  211.3580  154.7160 C   0  0  0  0  0  0  0  0  0  0  0  0
  158.9650  211.3120  155.3110 C   0  0  0  0  0  0  0  0  0  0  0  0
  161.6040  208.4260  148.8310 C   0  0  0  0  0  2  0  0  0  0  0  0
  161.2400  207.6520  150.0810 C   0  0  0  0  0  0  0  0  0  0  0  0
  161.3020  210.9820  154.8900 C   0  0  0  0  0  0  0  0  0  0  0  0
  157.3560  210.8530  153.7040 N   0  0  0  0  0  0  0  0  0  0  0  0
  163.5950  210.7030  154.3890 C   0  0  0  0  0  3  0  0  0  0  0  0
  161.4900  212.1650  147.9940 C   0  0  1  0  0  3  0  0  0  0  0  0
  160.2830  211.4150  155.7550 C   0  0  0  0  0  0  0  0  0  0  0  0
  162.1700  212.6940  149.2550 C   0  0  0  0  0  2  0  0  0  0  0  0
  160.9470  206.2520  150.0090 N   0  0  0  0  0  0  0  0  0  0  0  0
  161.1500  205.3790  150.9600 C   0  0  0  0  0  0  0  0  0  0  0  0
  161.0380  203.3700  149.6500 N   0  0  0  0  0  0  0  0  0  0  0  0
  160.7660  203.9770  150.7600 C   0  0  0  0  0  3  0  0  0  0  0  0
  160.9790  201.3250  148.1050 C   0  0  0  0  0  1  0  0  0  0  0  0
  160.1330  201.3470  150.3260 O   0  0  0  0  0  0  0  0  0  0  0  0
  160.7100  201.9940  149.4210 C   0  0  0  0  0  0  0  0  0  0  0  0
  161.8460  205.7470  152.2280 C   0  0  0  0  0  2  0  0  0  0  0  0
  160.9200  205.6640  153.3440 N   0  0  0  0  0  2  0  0  0  0  0  0
  160.9770  206.5860  154.4250 C   0  0  0  0  0  0  0  0  0  0  0  0
  161.9490  207.3720  154.5340 O   0  0  0  0  0  0  0  0  0  0  0  0
  159.9380  206.6160  155.3470 O   0  0  0  0  0  0  0  0  0  0  0  0
  159.7430  207.7160  156.2230 C   0  0  0  0  0  1  0  0  0  0  0  0
  162.0400  213.1190  146.5500 S   0  0  0  0  0  0  0  0  0  0  0  0
  162.6950  214.4510  147.5850 C   0  0  0  0  0  1  0  0  0  0  0  0
  1 16  1  0  0  0  0
  2 15  1  0  0  0  0
  2 14  2  0  0  0  0
  3  4  1  0  0  0  0
  4 13  2  0  0  0  0
  4 15  1  0  0  0  0
  5  3  1  0  0  0  0
  7 23  1  0  0  0  0
  8  7  1  6  0  0  0
  8  9  1  0  0  0  0
  9 11  1  1  0  0  0
  9  3  1  0  0  0  0
 13 22  1  0  0  0  0
 14 17  1  0  0  0  0
 15 20  2  0  0  0  0
 16  6  1  0  0  0  0
 17 24  2  0  0  0  0
 17  6  1  0  0  0  0
 18  8  1  0  0  0  0
 18 19  1  0  0  0  0
 19  5  2  0  0  0  0
 20 10  1  0  0  0  0
 20 24  1  0  0  0  0
 21 14  1  0  0  0  0
 21 16  2  0  0  0  0
 22 10  2  0  0  0  0
 23 39  1  6  0  0  0
 23 25  1  0  0  0  0
 24 12  1  0  0  0  0
 25 11  1  0  0  0  0
 26 19  1  0  0  0  0
 26 27  2  0  0  0  0
 27 33  1  0  0  0  0
 28 29  2  0  0  0  0
 29 27  1  0  0  0  0
 30 32  1  0  0  0  0
 32 28  1  0  0  0  0
 32 31  2  0  0  0  0
 33 34  1  0  0  0  0
 34 35  1  0  0  0  0
 35 36  2  0  0  0  0
 35 37  1  0  0  0  0
 37 38  1  0  0  0  0
 39 40  1  0  0  0  0
M  END
>  <MODEL>
2

>  <REMARK>
 VINA RESULT:      -2.9      1.941      3.500
  Name = 
  7 active torsions:
  status: ('A' for Active; 'I' for Inactive)
    1  A    between atoms: N_1  and  C_31
    2  A    between atoms: N_7  and  C_34
    3  A    between atoms: C_13  and  C_26
    4  A    between atoms: C_13  and  C_34
    5  A    between atoms: O_14  and  C_16
    6  A    between atoms: N_19  and  C_36
    7  A    between atoms: S_27  and  C_37
                            x       y       z     vdW  Elec       q    Type
                         _______ _______ _______ _____ _____    ______ ____

>  <TORSDO>
F 7

$$$$
=
 OpenBabel11052411463D

 40 44  0  0  1  0  0  0  0  0999 V2000
  160.7550  213.8360  147.5580 C   0  0  0  0  0  1  0  0  0  0  0  0
  159.5390  211.7280  151.7710 N   0  0  0  0  0  0  0  0  0  0  0  0
  159.8480  210.0620  154.0360 N   0  0  0  0  0  0  0  0  0  0  0  0
  158.7340  210.9520  153.9020 C   0  0  0  0  0  0  0  0  0  0  0  0
  159.7530  208.7760  153.4050 C   0  0  0  0  0  3  0  0  0  0  0  0
  158.5260  214.3450  149.2080 S   0  0  0  0  0  0  0  0  0  0  0  0
  163.1510  209.6770  155.8730 C   0  0  0  0  0  2  0  0  0  0  0  0
  162.1380  209.4830  154.7630 C   0  0  2  0  0  3  0  0  0  0  0  0
  160.8870  210.3200  155.0490 C   0  0  1  0  0  3  0  0  0  0  0  0
  156.6490  212.7450  153.7590 N   0  0  0  0  0  0  0  0  0  0  0  0
  161.2780  211.7930  155.0930 C   0  0  0  0  0  2  0  0  0  0  0  0
  156.3540  214.4420  151.5140 O   0  0  0  0  0  1  0  0  0  0  0  0
  157.8160  211.0430  154.8980 N   0  0  0  0  0  0  0  0  0  0  0  0
  159.4160  212.5510  150.7010 C   0  0  0  0  0  0  0  0  0  0  0  0
  158.6080  211.7630  152.7750 C   0  0  0  0  0  0  0  0  0  0  0  0
  159.9700  213.5570  148.7890 C   0  0  0  0  0  0  0  0  0  0  0  0
  158.3540  213.4340  150.6020 C   0  0  0  0  0  0  0  0  0  0  0  0
  161.7550  208.0170  154.6480 C   0  0  0  0  0  2  0  0  0  0  0  0
  160.6640  207.8210  153.6160 C   0  0  0  0  0  0  0  0  0  0  0  0
  157.5200  212.6710  152.7170 C   0  0  0  0  0  0  0  0  0  0  0  0
  160.3280  212.6180  149.7010 N   0  0  0  0  0  0  0  0  0  0  0  0
  156.7890  211.9320  154.8400 C   0  0  0  0  0  3  0  0  0  0  0  0
  163.5450  211.1510  155.9400 C   0  0  1  0  0  3  0  0  0  0  0  0
  157.3910  213.5250  151.6080 C   0  0  0  0  0  0  0  0  0  0  0  0
  162.3140  212.0210  156.1860 C   0  0  0  0  0  2  0  0  0  0  0  0
  160.4740  206.5460  152.9910 N   0  0  0  0  0  0  0  0  0  0  0  0
  160.6990  206.2700  151.7340 C   0  0  0  0  0  0  0  0  0  0  0  0
  161.4110  204.0040  151.3880 N   0  0  0  0  0  0  0  0  0  0  0  0
  160.4950  204.9050  151.2370 C   0  0  0  0  0  3  0  0  0  0  0  0
  160.5660  202.3190  149.6500 C   0  0  0  0  0  1  0  0  0  0  0  0
  161.6300  201.7170  151.6890 O   0  0  0  0  0  0  0  0  0  0  0  0
  161.2450  202.6500  150.9460 C   0  0  0  0  0  0  0  0  0  0  0  0
  161.0800  207.3290  150.7540 C   0  0  0  0  0  2  0  0  0  0  0  0
  160.7970  206.8800  149.4030 N   0  0  0  0  0  2  0  0  0  0  0  0
  161.7600  206.9970  148.3640 C   0  0  0  0  0  0  0  0  0  0  0  0
  162.8060  207.6660  148.5460 O   0  0  0  0  0  0  0  0  0  0  0  0
  161.5380  206.3500  147.1540 O   0  0  0  0  0  0  0  0  0  0  0  0
  162.5060  205.4890  146.5740 C   0  0  0  0  0  1  0  0  0  0  0  0
  164.7620  211.4150  157.2610 S   0  0  0  0  0  0  0  0  0  0  0  0
  166.0110  212.0080  156.0940 C   0  0  0  0  0  1  0  0  0  0  0  0
  1 16  1  0  0  0  0
  2 15  1  0  0  0  0
  3  9  1  0  0  0  0
  4  3  1  0  0  0  0
  4 13  1  0  0  0  0
  5 19  2  0  0  0  0
  5  3  1  0  0  0  0
  6 17  1  0  0  0  0
  7 23  1  0  0  0  0
  8 18  1  1  0  0  0
  8  9  1  0  0  0  0
  8  7  1  0  0  0  0
  9 11  1  6  0  0  0
 10 22  1  0  0  0  0
 11 25  1  0  0  0  0
 12 24  1  0  0  0  0
 14  2  2  0  0  0  0
 15  4  2  0  0  0  0
 16  6  1  0  0  0  0
 16 21  2  0  0  0  0
 17 14  1  0  0  0  0
 17 24  2  0  0  0  0
 19 18  1  0  0  0  0
 20 15  1  0  0  0  0
 20 10  2  0  0  0  0
 21 14  1  0  0  0  0
 22 13  2  0  0  0  0
 23 25  1  0  0  0  0
 23 39  1  1  0  0  0
 24 20  1  0  0  0  0
 26 19  1  0  0  0  0
 27 26  2  0  0  0  0
 29 28  2  0  0  0  0
 29 27  1  0  0  0  0
 30 32  1  0  0  0  0
 32 28  1  0  0  0  0
 32 31  2  0  0  0  0
 33 27  1  0  0  0  0
 34 33  1  0  0  0  0
 35 36  2  0  0  0  0
 35 34  1  0  0  0  0
 37 35  1  0  0  0  0
 38 37  1  0  0  0  0
 40 39  1  0  0  0  0
M  END
>  <MODEL>
3

>  <REMARK>
 VINA RESULT:      -0.9      2.722      5.362
  Name = 
  7 active torsions:
  status: ('A' for Active; 'I' for Inactive)
    1  A    between atoms: N_1  and  C_31
    2  A    between atoms: N_7  and  C_34
    3  A    between atoms: C_13  and  C_26
    4  A    between atoms: C_13  and  C_34
    5  A    between atoms: O_14  and  C_16
    6  A    between atoms: N_19  and  C_36
    7  A    between atoms: S_27  and  C_37
                            x       y       z     vdW  Elec       q    Type
                         _______ _______ _______ _____ _____    ______ ____

>  <TORSDO>
F 7

$$$$
=
 OpenBabel11052411463D

 40 44  0  0  1  0  0  0  0  0999 V2000
  160.1170  204.7020  151.9200 C   0  0  0  0  0  1  0  0  0  0  0  0
  160.4330  209.3870  153.1960 N   0  0  0  0  0  0  0  0  0  0  0  0
  159.9260  212.1660  153.0550 N   0  0  0  0  0  0  0  0  0  0  0  0
  160.6660  211.5890  154.1370 C   0  0  0  0  0  0  0  0  0  0  0  0
  160.6430  212.4810  151.8510 C   0  0  0  0  0  3  0  0  0  0  0  0
  161.3540  205.8350  154.1870 S   0  0  0  0  0  0  0  0  0  0  0  0
  156.5100  213.5950  152.2070 C   0  0  0  0  0  2  0  0  0  0  0  0
  157.8460  212.9260  151.9580 C   0  0  2  0  0  3  0  0  0  0  0  0
  158.5800  212.7190  153.2870 C   0  0  1  0  0  3  0  0  0  0  0  0
  161.9720  210.5150  156.3110 N   0  0  0  0  0  0  0  0  0  0  0  0
  157.7420  211.8080  154.1770 C   0  0  0  0  0  2  0  0  0  0  0  0
  162.4490  207.7310  156.4780 O   0  0  0  0  0  1  0  0  0  0  0  0
  161.1050  212.3760  155.1530 N   0  0  0  0  0  0  0  0  0  0  0  0
  160.6400  208.0500  153.2780 C   0  0  0  0  0  0  0  0  0  0  0  0
  160.8990  210.2150  154.1820 C   0  0  0  0  0  0  0  0  0  0  0  0
  160.4790  205.8930  152.7330 C   0  0  0  0  0  0  0  0  0  0  0  0
  161.3250  207.5010  154.3500 C   0  0  0  0  0  0  0  0  0  0  0  0
  158.6990  213.7760  151.0310 C   0  0  0  0  0  2  0  0  0  0  0  0
  160.0780  213.1740  150.8580 C   0  0  0  0  0  0  0  0  0  0  0  0
  161.5850  209.6840  155.3050 C   0  0  0  0  0  0  0  0  0  0  0  0
  160.1560  207.1620  152.3760 N   0  0  0  0  0  0  0  0  0  0  0  0
  161.7430  211.8530  156.2340 C   0  0  0  0  0  3  0  0  0  0  0  0
  155.6620  212.7010  153.1090 C   0  0  1  0  0  3  0  0  0  0  0  0
  161.8000  208.2990  155.3910 C   0  0  0  0  0  0  0  0  0  0  0  0
  156.3810  212.4420  154.4310 C   0  0  0  0  0  2  0  0  0  0  0  0
  160.8720  213.4940  149.7100 N   0  0  0  0  0  0  0  0  0  0  0  0
  161.7090  212.6880  149.1100 C   0  0  0  0  0  0  0  0  0  0  0  0
  161.8680  213.1110  146.7530 N   0  0  0  0  0  0  0  0  0  0  0  0
  162.4320  213.1410  147.9170 C   0  0  0  0  0  3  0  0  0  0  0  0
  162.2210  212.9830  144.2170 C   0  0  0  0  0  1  0  0  0  0  0  0
  163.4120  214.4490  145.6600 O   0  0  0  0  0  0  0  0  0  0  0  0
  162.5230  213.5700  145.5640 C   0  0  0  0  0  0  0  0  0  0  0  0
  162.0210  211.3340  149.6550 C   0  0  0  0  0  2  0  0  0  0  0  0
  161.8810  210.3360  148.6100 N   0  0  0  0  0  2  0  0  0  0  0  0
  161.9120  208.9450  148.9040 C   0  0  0  0  0  0  0  0  0  0  0  0
  162.2540  208.5480  150.0440 O   0  0  0  0  0  0  0  0  0  0  0  0
  161.5450  208.0340  147.9200 O   0  0  0  0  0  0  0  0  0  0  0  0
  161.1030  206.7230  148.2380 C   0  0  0  0  0  1  0  0  0  0  0  0
  154.0510  213.4770  153.4240 S   0  0  0  0  0  0  0  0  0  0  0  0
  154.7050  214.4510  154.8000 C   0  0  0  0  0  1  0  0  0  0  0  0
  1 16  1  0  0  0  0
  2 14  2  0  0  0  0
  2 15  1  0  0  0  0
  3  9  1  0  0  0  0
  3  4  1  0  0  0  0
  4 15  2  0  0  0  0
  4 13  1  0  0  0  0
  5  3  1  0  0  0  0
  6 17  1  0  0  0  0
  7 23  1  0  0  0  0
  8 18  1  6  0  0  0
  8  7  1  0  0  0  0
  8  9  1  0  0  0  0
  9 11  1  1  0  0  0
 11 25  1  0  0  0  0
 13 22  2  0  0  0  0
 14 17  1  0  0  0  0
 15 20  1  0  0  0  0
 16  6  1  0  0  0  0
 17 24  2  0  0  0  0
 19 18  1  0  0  0  0
 19  5  2  0  0  0  0
 20 24  1  0  0  0  0
 20 10  2  0  0  0  0
 21 16  2  0  0  0  0
 21 14  1  0  0  0  0
 22 10  1  0  0  0  0
 23 39  1  1  0  0  0
 23 25  1  0  0  0  0
 24 12  1  0  0  0  0
 26 19  1  0  0  0  0
 27 33  1  0  0  0  0
 27 26  2  0  0  0  0
 28 29  2  0  0  0  0
 29 27  1  0  0  0  0
 30 32  1  0  0  0  0
 32 31  2  0  0  0  0
 32 28  1  0  0  0  0
 34 35  1  0  0  0  0
 34 33  1  0  0  0  0
 35 36  2  0  0  0  0
 37 38  1  0  0  0  0
 37 35  1  0  0  0  0
 39 40  1  0  0  0  0
M  END
>  <MODEL>
4

>  <REMARK>
 VINA RESULT:      -0.2      3.395      6.929
  Name = 
  7 active torsions:
  status: ('A' for Active; 'I' for Inactive)
    1  A    between atoms: N_1  and  C_31
    2  A    between atoms: N_7  and  C_34
    3  A    between atoms: C_13  and  C_26
    4  A    between atoms: C_13  and  C_34
    5  A    between atoms: O_14  and  C_16
    6  A    between atoms: N_19  and  C_36
    7  A    between atoms: S_27  and  C_37
                            x       y       z     vdW  Elec       q    Type
                         _______ _______ _______ _____ _____    ______ ____

>  <TORSDO>
F 7

$$$$
