=
 OpenBabel11052411523D

 32 34  0  0  1  0  0  0  0  0999 V2000
  161.4810  206.9170  148.9310 C   0  0  0  0  0  0  0  0  0  0  0  0
  161.1580  204.5780  149.7860 C   0  0  0  0  0  3  0  0  0  0  0  0
  160.9360  204.1430  152.1510 C   0  0  0  0  0  3  0  0  0  0  0  0
  161.7190  208.3340  149.2550 C   0  0  0  0  0  0  0  0  0  0  0  0
  161.4550  207.8270  151.6460 N   0  0  0  0  0  0  0  0  0  0  0  0
  161.2970  206.4190  151.3700 C   0  0  0  0  0  0  0  0  0  0  0  0
  161.0950  205.5040  152.4160 C   0  0  0  0  0  3  0  0  0  0  0  0
  161.7130  209.2120  148.3510 O   0  0  0  0  0  0  0  0  0  0  0  0
  161.3750  206.5310  147.6600 C   0  0  0  0  0  2  0  0  0  0  0  0
  160.9690  203.6730  150.8320 C   0  0  0  0  0  0  0  0  0  0  0  0
  161.3210  205.9500  150.0390 C   0  0  0  0  0  0  0  0  0  0  0  0
  162.0420  208.7360  150.6600 C   0  0  0  0  0  2  0  0  0  0  0  0
  161.2140  208.3530  152.9860 C   0  0  0  0  0  2  0  0  0  0  0  0
  161.2840  209.8720  152.9930 C   0  0  2  0  0  3  0  0  0  0  0  0
  162.2050  210.3010  153.9510 O   0  0  0  0  0  1  0  0  0  0  0  0
  159.9720  210.4120  153.3060 N   0  0  0  0  0  2  0  0  0  0  0  0
  160.1810  211.6930  153.9720 C   0  0  0  0  0  2  0  0  0  0  0  0
  156.5130  211.7810  154.7650 C   0  0  0  0  0  0  0  0  0  0  0  0
  157.8180  214.4040  152.6770 C   0  0  0  0  0  2  0  0  0  0  0  0
  158.7060  213.1640  152.7020 C   0  0  0  0  0  2  0  0  0  0  0  0
  157.7620  211.5290  154.3500 C   0  0  0  0  0  3  0  0  0  0  0  0
  155.6440  210.6150  155.0720 C   0  0  0  0  0  1  0  0  0  0  0  0
  156.3540  214.0380  152.7880 C   0  0  0  0  0  2  0  0  0  0  0  0
  155.9830  213.1200  155.0730 C   0  0  0  0  0  3  0  0  0  0  0  0
  155.9140  214.1330  154.2100 C   0  0  0  0  0  3  0  0  0  0  0  0
  159.0550  213.5270  155.1900 C   0  0  0  0  0  1  0  0  0  0  0  0
  158.8870  212.4980  154.0720 C   0  0  1  0  0  0  0  0  0  0  0  0
  160.8160  202.2820  150.5340 N   0  0  0  0  0  2  0  0  0  0  0  0
  160.0290  201.7770  149.4160 C   0  0  0  0  0  2  0  0  0  0  0  0
  161.5480  200.3230  148.3570 O   0  0  0  0  0  0  0  0  0  0  0  0
  161.0390  202.2270  147.0800 C   0  0  0  0  0  1  0  0  0  0  0  0
  160.9250  201.3690  148.2930 C   0  0  0  0  0  0  0  0  0  0  0  0
  1  4  1  0  0  0  0
  1 11  1  0  0  0  0
  2 11  2  0  0  0  0
  2 10  1  0  0  0  0
  3  7  1  0  0  0  0
  4 12  1  0  0  0  0
  5 13  1  0  0  0  0
  6  5  1  0  0  0  0
  6  7  2  0  0  0  0
  8  4  2  0  0  0  0
  9  1  2  0  0  0  0
 10  3  2  0  0  0  0
 11  6  1  0  0  0  0
 12  5  1  0  0  0  0
 13 14  1  0  0  0  0
 14 16  1  0  0  0  0
 14 15  1  1  0  0  0
 16 17  1  0  0  0  0
 17 27  1  0  0  0  0
 18 22  1  0  0  0  0
 18 24  1  0  0  0  0
 19 20  1  0  0  0  0
 19 23  1  0  0  0  0
 20 27  1  0  0  0  0
 21 18  2  0  0  0  0
 23 25  1  0  0  0  0
 25 24  2  0  0  0  0
 27 21  1  0  0  0  0
 27 26  1  1  0  0  0
 28 10  1  0  0  0  0
 29 28  1  0  0  0  0
 31 32  1  0  0  0  0
 32 30  2  0  0  0  0
 32 29  1  0  0  0  0
M  END
>  <MODEL>
1

>  <REMARK>
 VINA RESULT:      -8.4      0.000      0.000
  Name = 
  8 active torsions:
  status: ('A' for Active; 'I' for Inactive)
    1  A    between atoms: C_2  and  N_12
    2  A    between atoms: C_2  and  C_17
    3  A    between atoms: C_6  and  N_14
    4  A    between atoms: C_6  and  C_32
    5  A    between atoms: C_7  and  C_16
    6  A    between atoms: C_7  and  N_26
    7  A    between atoms: N_14  and  C_17
    8  A    between atoms: C_25  and  N_26
                            x       y       z     vdW  Elec       q    Type
                         _______ _______ _______ _____ _____    ______ ____

>  <TORSDO>
F 8

$$$$
=
 OpenBabel11052411523D

 32 34  0  0  1  0  0  0  0  0999 V2000
  160.8430  208.4420  153.6610 C   0  0  0  0  0  0  0  0  0  0  0  0
  161.4330  209.8050  151.6350 C   0  0  0  0  0  3  0  0  0  0  0  0
  162.2970  208.7500  149.6420 C   0  0  0  0  0  3  0  0  0  0  0  0
  160.8670  207.1250  154.3190 C   0  0  0  0  0  0  0  0  0  0  0  0
  161.7220  206.1110  152.2490 N   0  0  0  0  0  0  0  0  0  0  0  0
  161.7870  207.3980  151.5990 C   0  0  0  0  0  0  0  0  0  0  0  0
  162.2400  207.5080  150.2740 C   0  0  0  0  0  3  0  0  0  0  0  0
  160.2960  206.9470  155.4280 O   0  0  0  0  0  0  0  0  0  0  0  0
  160.3180  209.4930  154.2890 C   0  0  0  0  0  2  0  0  0  0  0  0
  161.8950  209.9070  150.3220 C   0  0  0  0  0  0  0  0  0  0  0  0
  161.3710  208.5600  152.2830 C   0  0  0  0  0  0  0  0  0  0  0  0
  161.6350  205.9960  153.7060 C   0  0  0  0  0  2  0  0  0  0  0  0
  161.9370  204.8830  151.4890 C   0  0  0  0  0  2  0  0  0  0  0  0
  160.6350  204.1140  151.3210 C   0  0  2  0  0  3  0  0  0  0  0  0
  160.7440  202.8590  151.9230 O   0  0  0  0  0  1  0  0  0  0  0  0
  160.3520  203.9520  149.9060 N   0  0  0  0  0  2  0  0  0  0  0  0
  161.6350  203.9170  149.2120 C   0  0  0  0  0  2  0  0  0  0  0  0
  160.6740  202.9520  145.7140 C   0  0  0  0  0  0  0  0  0  0  0  0
  162.8850  205.7620  146.1070 C   0  0  0  0  0  2  0  0  0  0  0  0
  162.8710  204.8400  147.3220 C   0  0  0  0  0  2  0  0  0  0  0  0
  161.1400  203.0630  146.9660 C   0  0  0  0  0  3  0  0  0  0  0  0
  160.2980  201.5940  145.2400 C   0  0  0  0  0  1  0  0  0  0  0  0
  162.6970  204.9870  144.8210 C   0  0  0  0  0  2  0  0  0  0  0  0
  160.3750  204.0860  144.8230 C   0  0  0  0  0  3  0  0  0  0  0  0
  161.2590  205.0010  144.4270 C   0  0  0  0  0  3  0  0  0  0  0  0
  160.4110  205.3830  147.6400 C   0  0  0  0  0  1  0  0  0  0  0  0
  161.4950  204.3080  147.7430 C   0  0  1  0  0  0  0  0  0  0  0  0
  161.9500  211.1930  149.6990 N   0  0  0  0  0  2  0  0  0  0  0  0
  162.2170  211.3950  148.2800 C   0  0  0  0  0  2  0  0  0  0  0  0
  160.6190  212.3090  146.8150 O   0  0  0  0  0  0  0  0  0  0  0  0
  161.4540  213.8620  148.3670 C   0  0  0  0  0  1  0  0  0  0  0  0
  161.3800  212.5100  147.7470 C   0  0  0  0  0  0  0  0  0  0  0  0
  1  9  2  0  0  0  0
  1  4  1  0  0  0  0
  2 11  1  0  0  0  0
  3  7  2  0  0  0  0
  3 10  1  0  0  0  0
  4  8  2  0  0  0  0
  5 12  1  0  0  0  0
  6  5  1  0  0  0  0
  6 11  2  0  0  0  0
  7  6  1  0  0  0  0
 10  2  2  0  0  0  0
 11  1  1  0  0  0  0
 12  4  1  0  0  0  0
 13  5  1  0  0  0  0
 14 13  1  0  0  0  0
 14 15  1  6  0  0  0
 16 14  1  0  0  0  0
 17 16  1  0  0  0  0
 18 21  2  0  0  0  0
 19 20  1  0  0  0  0
 20 27  1  0  0  0  0
 21 27  1  0  0  0  0
 22 18  1  0  0  0  0
 23 19  1  0  0  0  0
 24 18  1  0  0  0  0
 25 23  1  0  0  0  0
 25 24  2  0  0  0  0
 27 26  1  6  0  0  0
 27 17  1  0  0  0  0
 28 10  1  0  0  0  0
 29 28  1  0  0  0  0
 30 32  2  0  0  0  0
 32 29  1  0  0  0  0
 32 31  1  0  0  0  0
M  END
>  <MODEL>
2

>  <REMARK>
 VINA RESULT:      -7.9      3.339      9.287
  Name = 
  8 active torsions:
  status: ('A' for Active; 'I' for Inactive)
    1  A    between atoms: C_2  and  N_12
    2  A    between atoms: C_2  and  C_17
    3  A    between atoms: C_6  and  N_14
    4  A    between atoms: C_6  and  C_32
    5  A    between atoms: C_7  and  C_16
    6  A    between atoms: C_7  and  N_26
    7  A    between atoms: N_14  and  C_17
    8  A    between atoms: C_25  and  N_26
                            x       y       z     vdW  Elec       q    Type
                         _______ _______ _______ _____ _____    ______ ____

>  <TORSDO>
F 8

$$$$
=
 OpenBabel11052411523D

 32 34  0  0  1  0  0  0  0  0999 V2000
  161.0440  203.8480  150.6380 C   0  0  0  0  0  0  0  0  0  0  0  0
  161.1850  203.2340  148.2080 C   0  0  0  0  0  3  0  0  0  0  0  0
  161.7670  204.8850  146.5440 C   0  0  0  0  0  3  0  0  0  0  0  0
  161.0690  204.9180  151.6510 C   0  0  0  0  0  0  0  0  0  0  0  0
  161.6860  206.5430  149.9120 N   0  0  0  0  0  0  0  0  0  0  0  0
  161.5930  205.5350  148.8820 C   0  0  0  0  0  0  0  0  0  0  0  0
  161.8500  205.8580  147.5400 C   0  0  0  0  0  3  0  0  0  0  0  0
  161.0350  204.6440  152.8800 O   0  0  0  0  0  0  0  0  0  0  0  0
  160.8640  202.5810  151.0100 C   0  0  0  0  0  2  0  0  0  0  0  0
  161.4310  203.5660  146.8740 C   0  0  0  0  0  0  0  0  0  0  0  0
  161.2640  204.2050  149.2190 C   0  0  0  0  0  0  0  0  0  0  0  0
  161.0650  206.3520  151.2240 C   0  0  0  0  0  2  0  0  0  0  0  0
  162.2360  207.8620  149.6130 C   0  0  0  0  0  2  0  0  0  0  0  0
  161.6020  208.9260  150.4950 C   0  0  2  0  0  3  0  0  0  0  0  0
  161.8270  210.1920  149.9500 O   0  0  0  0  0  1  0  0  0  0  0  0
  162.1860  208.8590  151.8240 N   0  0  0  0  0  2  0  0  0  0  0  0
  161.7520  210.0500  152.5450 C   0  0  0  0  0  2  0  0  0  0  0  0
  162.2590  210.3620  156.2520 C   0  0  0  0  0  0  0  0  0  0  0  0
  160.2410  207.6230  155.0820 C   0  0  0  0  0  2  0  0  0  0  0  0
  161.1630  208.1860  154.0060 C   0  0  0  0  0  2  0  0  0  0  0  0
  162.3370  210.2010  154.9230 C   0  0  0  0  0  3  0  0  0  0  0  0
  163.4270  210.9730  156.9390 C   0  0  0  0  0  1  0  0  0  0  0  0
  160.8770  207.7010  156.4530 C   0  0  0  0  0  2  0  0  0  0  0  0
  161.0540  210.1090  157.0600 C   0  0  0  0  0  3  0  0  0  0  0  0
  160.4260  208.9380  157.1520 C   0  0  0  0  0  3  0  0  0  0  0  0
  159.9320  210.4000  154.1840 C   0  0  0  0  0  1  0  0  0  0  0  0
  161.2810  209.7150  153.9590 C   0  0  1  0  0  0  0  0  0  0  0  0
  161.3320  202.5500  145.8720 N   0  0  0  0  0  2  0  0  0  0  0  0
  160.4200  201.4170  145.9570 C   0  0  0  0  0  2  0  0  0  0  0  0
  161.5950  200.1650  147.5670 O   0  0  0  0  0  0  0  0  0  0  0  0
  161.2940  199.0210  145.5380 C   0  0  0  0  0  1  0  0  0  0  0  0
  161.1440  200.2010  146.4350 C   0  0  0  0  0  0  0  0  0  0  0  0
  1  9  2  0  0  0  0
  1  4  1  0  0  0  0
  2 11  1  0  0  0  0
  3 10  1  0  0  0  0
  3  7  2  0  0  0  0
  4  8  2  0  0  0  0
  5 12  1  0  0  0  0
  6 11  2  0  0  0  0
  6  5  1  0  0  0  0
  7  6  1  0  0  0  0
 10  2  2  0  0  0  0
 11  1  1  0  0  0  0
 12  4  1  0  0  0  0
 13  5  1  0  0  0  0
 13 14  1  0  0  0  0
 14 15  1  6  0  0  0
 14 16  1  0  0  0  0
 16 17  1  0  0  0  0
 17 27  1  0  0  0  0
 18 22  1  0  0  0  0
 18 24  1  0  0  0  0
 19 23  1  0  0  0  0
 20 19  1  0  0  0  0
 21 18  2  0  0  0  0
 23 25  1  0  0  0  0
 24 25  2  0  0  0  0
 27 20  1  0  0  0  0
 27 26  1  1  0  0  0
 27 21  1  0  0  0  0
 28 29  1  0  0  0  0
 28 10  1  0  0  0  0
 29 32  1  0  0  0  0
 31 32  1  0  0  0  0
 32 30  2  0  0  0  0
M  END
>  <MODEL>
3

>  <REMARK>
 VINA RESULT:      -7.9      2.757      4.720
  Name = 
  8 active torsions:
  status: ('A' for Active; 'I' for Inactive)
    1  A    between atoms: C_2  and  N_12
    2  A    between atoms: C_2  and  C_17
    3  A    between atoms: C_6  and  N_14
    4  A    between atoms: C_6  and  C_32
    5  A    between atoms: C_7  and  C_16
    6  A    between atoms: C_7  and  N_26
    7  A    between atoms: N_14  and  C_17
    8  A    between atoms: C_25  and  N_26
                            x       y       z     vdW  Elec       q    Type
                         _______ _______ _______ _____ _____    ______ ____

>  <TORSDO>
F 8

$$$$
=
 OpenBabel11052411523D

 32 34  0  0  1  0  0  0  0  0999 V2000
  161.1340  204.0650  150.7280 C   0  0  0  0  0  0  0  0  0  0  0  0
  161.2080  203.3620  148.3190 C   0  0  0  0  0  3  0  0  0  0  0  0
  161.6390  204.9730  146.5720 C   0  0  0  0  0  3  0  0  0  0  0  0
  161.1450  205.1740  151.6980 C   0  0  0  0  0  0  0  0  0  0  0  0
  161.6090  206.7570  149.8760 N   0  0  0  0  0  0  0  0  0  0  0  0
  161.5250  205.7060  148.8890 C   0  0  0  0  0  0  0  0  0  0  0  0
  161.7120  205.9880  147.5260 C   0  0  0  0  0  3  0  0  0  0  0  0
  161.1730  204.9470  152.9370 O   0  0  0  0  0  0  0  0  0  0  0  0
  161.0330  202.8060  151.1550 C   0  0  0  0  0  2  0  0  0  0  0  0
  161.3840  203.6530  146.9640 C   0  0  0  0  0  0  0  0  0  0  0  0
  161.2780  204.3750  149.2890 C   0  0  0  0  0  0  0  0  0  0  0  0
  161.0500  206.5880  151.2180 C   0  0  0  0  0  2  0  0  0  0  0  0
  162.0790  208.0880  149.5040 C   0  0  0  0  0  2  0  0  0  0  0  0
  161.5880  209.1320  150.4960 C   0  0  2  0  0  3  0  0  0  0  0  0
  161.9570  210.4080  150.0650 O   0  0  0  0  0  1  0  0  0  0  0  0
  162.1760  208.8710  151.7980 N   0  0  0  0  0  2  0  0  0  0  0  0
  162.3060  210.1550  152.4770 C   0  0  0  0  0  2  0  0  0  0  0  0
  159.1930  211.4720  154.1120 C   0  0  0  0  0  0  0  0  0  0  0  0
  161.8580  210.3750  156.2670 C   0  0  0  0  0  2  0  0  0  0  0  0
  162.3310  210.7040  154.8550 C   0  0  0  0  0  2  0  0  0  0  0  0
  160.3330  211.2500  153.4420 C   0  0  0  0  0  3  0  0  0  0  0  0
  158.2480  212.4690  153.5460 C   0  0  0  0  0  1  0  0  0  0  0  0
  160.7190  211.2760  156.6940 C   0  0  0  0  0  2  0  0  0  0  0  0
  158.7460  210.7060  155.2880 C   0  0  0  0  0  3  0  0  0  0  0  0
  159.4150  210.6020  156.4340 C   0  0  0  0  0  3  0  0  0  0  0  0
  160.8470  208.8380  153.9800 C   0  0  0  0  0  1  0  0  0  0  0  0
  161.4160  210.2330  153.7160 C   0  0  1  0  0  0  0  0  0  0  0  0
  161.2960  202.5950  146.0060 N   0  0  0  0  0  2  0  0  0  0  0  0
  160.3760  201.4710  146.1240 C   0  0  0  0  0  2  0  0  0  0  0  0
  161.5820  200.1830  147.6830 O   0  0  0  0  0  0  0  0  0  0  0  0
  161.2370  199.0840  145.6360 C   0  0  0  0  0  1  0  0  0  0  0  0
  161.1070  200.2440  146.5610 C   0  0  0  0  0  0  0  0  0  0  0  0
  1  9  2  0  0  0  0
  1  4  1  0  0  0  0
  2 11  1  0  0  0  0
  3 10  1  0  0  0  0
  3  7  2  0  0  0  0
  4  8  2  0  0  0  0
  5 12  1  0  0  0  0
  6 11  2  0  0  0  0
  6  5  1  0  0  0  0
  7  6  1  0  0  0  0
 10  2  2  0  0  0  0
 11  1  1  0  0  0  0
 12  4  1  0  0  0  0
 13  5  1  0  0  0  0
 13 14  1  0  0  0  0
 14 15  1  6  0  0  0
 14 16  1  0  0  0  0
 16 17  1  0  0  0  0
 17 27  1  0  0  0  0
 18 24  1  0  0  0  0
 19 23  1  0  0  0  0
 20 19  1  0  0  0  0
 21 27  1  0  0  0  0
 21 18  2  0  0  0  0
 22 18  1  0  0  0  0
 24 25  2  0  0  0  0
 25 23  1  0  0  0  0
 27 26  1  1  0  0  0
 27 20  1  0  0  0  0
 28 29  1  0  0  0  0
 28 10  1  0  0  0  0
 29 32  1  0  0  0  0
 31 32  1  0  0  0  0
 32 30  2  0  0  0  0
M  END
>  <MODEL>
4

>  <REMARK>
 VINA RESULT:      -7.7      2.037      3.999
  Name = 
  8 active torsions:
  status: ('A' for Active; 'I' for Inactive)
    1  A    between atoms: C_2  and  N_12
    2  A    between atoms: C_2  and  C_17
    3  A    between atoms: C_6  and  N_14
    4  A    between atoms: C_6  and  C_32
    5  A    between atoms: C_7  and  C_16
    6  A    between atoms: C_7  and  N_26
    7  A    between atoms: N_14  and  C_17
    8  A    between atoms: C_25  and  N_26
                            x       y       z     vdW  Elec       q    Type
                         _______ _______ _______ _____ _____    ______ ____

>  <TORSDO>
F 8

$$$$
=
 OpenBabel11052411523D

 32 34  0  0  1  0  0  0  0  0999 V2000
  161.3360  205.5610  151.4780 C   0  0  0  0  0  0  0  0  0  0  0  0
  161.5750  206.1100  149.0390 C   0  0  0  0  0  3  0  0  0  0  0  0
  161.9270  208.3850  148.3100 C   0  0  0  0  0  3  0  0  0  0  0  0
  161.2030  206.0650  152.8550 C   0  0  0  0  0  0  0  0  0  0  0  0
  161.5940  208.3550  152.0500 N   0  0  0  0  0  0  0  0  0  0  0  0
  161.6500  207.9050  150.6790 C   0  0  0  0  0  0  0  0  0  0  0  0
  161.8660  208.8180  149.6350 C   0  0  0  0  0  3  0  0  0  0  0  0
  161.2010  205.2730  153.8350 O   0  0  0  0  0  0  0  0  0  0  0  0
  161.3350  204.2490  151.2440 C   0  0  0  0  0  2  0  0  0  0  0  0
  161.7800  207.0260  148.0060 C   0  0  0  0  0  0  0  0  0  0  0  0
  161.5110  206.5330  150.3770 C   0  0  0  0  0  0  0  0  0  0  0  0
  160.9980  207.5270  153.1000 C   0  0  0  0  0  2  0  0  0  0  0  0
  161.9530  209.7270  152.3960 C   0  0  0  0  0  2  0  0  0  0  0  0
  160.7170  210.5330  152.7680 C   0  0  2  0  0  3  0  0  0  0  0  0
  160.5020  211.5360  151.8210 O   0  0  0  0  0  1  0  0  0  0  0  0
  160.9120  211.1340  154.0760 N   0  0  0  0  0  2  0  0  0  0  0  0
  160.0100  210.4560  155.0000 C   0  0  0  0  0  2  0  0  0  0  0  0
  156.3460  211.0990  155.5010 C   0  0  0  0  0  0  0  0  0  0  0  0
  158.5390  213.9520  155.4730 C   0  0  0  0  0  2  0  0  0  0  0  0
  159.1440  212.7280  154.7940 C   0  0  0  0  0  2  0  0  0  0  0  0
  157.5810  210.7900  155.0820 C   0  0  0  0  0  3  0  0  0  0  0  0
  155.2230  210.2630  155.0030 C   0  0  0  0  0  1  0  0  0  0  0  0
  157.0400  214.0140  155.2690 C   0  0  0  0  0  2  0  0  0  0  0  0
  156.0340  212.1130  156.5240 C   0  0  0  0  0  3  0  0  0  0  0  0
  156.3430  213.4050  156.4390 C   0  0  0  0  0  3  0  0  0  0  0  0
  159.0350  211.5050  157.0170 C   0  0  0  0  0  1  0  0  0  0  0  0
  158.9050  211.3850  155.4970 C   0  0  1  0  0  0  0  0  0  0  0  0
  161.8310  206.5560  146.6550 N   0  0  0  0  0  2  0  0  0  0  0  0
  160.9630  205.5100  146.1300 C   0  0  0  0  0  2  0  0  0  0  0  0
  161.2060  203.2830  145.4070 O   0  0  0  0  0  0  0  0  0  0  0  0
  163.2550  204.3760  145.7580 C   0  0  0  0  0  1  0  0  0  0  0  0
  161.7670  204.3110  145.7480 C   0  0  0  0  0  0  0  0  0  0  0  0
  1  4  1  0  0  0  0
  2 11  1  0  0  0  0
  3  7  2  0  0  0  0
  4 12  1  0  0  0  0
  4  8  2  0  0  0  0
  5 13  1  0  0  0  0
  5 12  1  0  0  0  0
  6  5  1  0  0  0  0
  7  6  1  0  0  0  0
  9  1  2  0  0  0  0
 10  3  1  0  0  0  0
 10  2  2  0  0  0  0
 11  6  2  0  0  0  0
 11  1  1  0  0  0  0
 13 14  1  0  0  0  0
 14 15  1  6  0  0  0
 14 16  1  0  0  0  0
 16 17  1  0  0  0  0
 17 27  1  0  0  0  0
 18 24  1  0  0  0  0
 20 19  1  0  0  0  0
 20 27  1  0  0  0  0
 21 27  1  0  0  0  0
 21 18  2  0  0  0  0
 22 18  1  0  0  0  0
 23 19  1  0  0  0  0
 23 25  1  0  0  0  0
 25 24  2  0  0  0  0
 27 26  1  1  0  0  0
 28 10  1  0  0  0  0
 29 28  1  0  0  0  0
 30 32  2  0  0  0  0
 32 31  1  0  0  0  0
 32 29  1  0  0  0  0
M  END
>  <MODEL>
5

>  <REMARK>
 VINA RESULT:      -7.5      2.201      3.272
  Name = 
  8 active torsions:
  status: ('A' for Active; 'I' for Inactive)
    1  A    between atoms: C_2  and  N_12
    2  A    between atoms: C_2  and  C_17
    3  A    between atoms: C_6  and  N_14
    4  A    between atoms: C_6  and  C_32
    5  A    between atoms: C_7  and  C_16
    6  A    between atoms: C_7  and  N_26
    7  A    between atoms: N_14  and  C_17
    8  A    between atoms: C_25  and  N_26
                            x       y       z     vdW  Elec       q    Type
                         _______ _______ _______ _____ _____    ______ ____

>  <TORSDO>
F 8

$$$$
=
 OpenBabel11052411523D

 32 34  0  0  1  0  0  0  0  0999 V2000
  161.0360  204.4190  150.6870 C   0  0  0  0  0  0  0  0  0  0  0  0
  161.1740  204.8550  148.2180 C   0  0  0  0  0  3  0  0  0  0  0  0
  161.8790  207.0070  147.3780 C   0  0  0  0  0  3  0  0  0  0  0  0
  161.1120  204.9720  152.0500 C   0  0  0  0  0  0  0  0  0  0  0  0
  161.8500  207.1280  151.1310 N   0  0  0  0  0  0  0  0  0  0  0  0
  161.7110  206.6430  149.7780 C   0  0  0  0  0  0  0  0  0  0  0  0
  162.0060  207.4760  148.6860 C   0  0  0  0  0  3  0  0  0  0  0  0
  161.0430  204.2170  153.0580 O   0  0  0  0  0  0  0  0  0  0  0  0
  160.7750  203.1250  150.5050 C   0  0  0  0  0  2  0  0  0  0  0  0
  161.4590  205.6930  147.1380 C   0  0  0  0  0  0  0  0  0  0  0  0
  161.2980  205.3150  149.5390 C   0  0  0  0  0  0  0  0  0  0  0  0
  161.1990  206.4520  152.2540 C   0  0  0  0  0  2  0  0  0  0  0  0
  162.4830  208.4170  151.3960 C   0  0  0  0  0  2  0  0  0  0  0  0
  161.4380  209.4840  151.6870 C   0  0  2  0  0  3  0  0  0  0  0  0
  161.5310  210.5100  150.7440 O   0  0  0  0  0  1  0  0  0  0  0  0
  161.6630  210.0250  153.0160 N   0  0  0  0  0  2  0  0  0  0  0  0
  160.5710  209.5550  153.8620 C   0  0  0  0  0  2  0  0  0  0  0  0
  158.3730  212.5750  153.4860 C   0  0  0  0  0  0  0  0  0  0  0  0
  160.3190  212.3080  156.5020 C   0  0  0  0  0  2  0  0  0  0  0  0
  160.8670  211.4580  155.3610 C   0  0  0  0  0  2  0  0  0  0  0  0
  159.2910  211.6000  153.4170 C   0  0  0  0  0  3  0  0  0  0  0  0
  157.9530  213.2120  152.2120 C   0  0  0  0  0  1  0  0  0  0  0  0
  159.6960  213.5880  155.9880 C   0  0  0  0  0  2  0  0  0  0  0  0
  157.6520  212.9650  154.7100 C   0  0  0  0  0  3  0  0  0  0  0  0
  158.2240  213.4070  155.8280 C   0  0  0  0  0  3  0  0  0  0  0  0
  158.7050  210.1270  155.3810 C   0  0  0  0  0  1  0  0  0  0  0  0
  159.8240  210.7130  154.5180 C   0  0  1  0  0  0  0  0  0  0  0  0
  161.3130  205.1890  145.8070 N   0  0  0  0  0  2  0  0  0  0  0  0
  161.7280  203.8530  145.3970 C   0  0  0  0  0  2  0  0  0  0  0  0
  159.6380  203.5030  144.3720 O   0  0  0  0  0  0  0  0  0  0  0  0
  160.4560  201.6050  145.4880 C   0  0  0  0  0  1  0  0  0  0  0  0
  160.5370  203.0250  145.0430 C   0  0  0  0  0  0  0  0  0  0  0  0
  1  4  1  0  0  0  0
  2 11  1  0  0  0  0
  3  7  2  0  0  0  0
  4 12  1  0  0  0  0
  4  8  2  0  0  0  0
  5 13  1  0  0  0  0
  5 12  1  0  0  0  0
  6  5  1  0  0  0  0
  7  6  1  0  0  0  0
  9  1  2  0  0  0  0
 10  3  1  0  0  0  0
 10  2  2  0  0  0  0
 11  6  2  0  0  0  0
 11  1  1  0  0  0  0
 13 14  1  0  0  0  0
 14 15  1  6  0  0  0
 14 16  1  0  0  0  0
 16 17  1  0  0  0  0
 17 27  1  0  0  0  0
 18 24  1  0  0  0  0
 20 19  1  0  0  0  0
 21 18  2  0  0  0  0
 21 27  1  0  0  0  0
 22 18  1  0  0  0  0
 23 19  1  0  0  0  0
 24 25  2  0  0  0  0
 25 23  1  0  0  0  0
 27 20  1  0  0  0  0
 27 26  1  1  0  0  0
 28 10  1  0  0  0  0
 29 28  1  0  0  0  0
 30 32  2  0  0  0  0
 32 29  1  0  0  0  0
 32 31  1  0  0  0  0
M  END
>  <MODEL>
6

>  <REMARK>
 VINA RESULT:      -7.5      2.206      3.640
  Name = 
  8 active torsions:
  status: ('A' for Active; 'I' for Inactive)
    1  A    between atoms: C_2  and  N_12
    2  A    between atoms: C_2  and  C_17
    3  A    between atoms: C_6  and  N_14
    4  A    between atoms: C_6  and  C_32
    5  A    between atoms: C_7  and  C_16
    6  A    between atoms: C_7  and  N_26
    7  A    between atoms: N_14  and  C_17
    8  A    between atoms: C_25  and  N_26
                            x       y       z     vdW  Elec       q    Type
                         _______ _______ _______ _____ _____    ______ ____

>  <TORSDO>
F 8

$$$$
=
 OpenBabel11052411523D

 32 34  0  0  1  0  0  0  0  0999 V2000
  160.9100  207.0600  153.7390 C   0  0  0  0  0  0  0  0  0  0  0  0
  160.5510  209.4760  154.3230 C   0  0  0  0  0  3  0  0  0  0  0  0
  160.7370  211.1980  152.6390 C   0  0  0  0  0  3  0  0  0  0  0  0
  161.3260  206.0780  152.7230 C   0  0  0  0  0  0  0  0  0  0  0  0
  161.4700  207.8750  151.0520 N   0  0  0  0  0  0  0  0  0  0  0  0
  161.1420  208.8740  152.0410 C   0  0  0  0  0  0  0  0  0  0  0  0
  161.0600  210.2310  151.6870 C   0  0  0  0  0  3  0  0  0  0  0  0
  161.2290  204.8410  152.9420 O   0  0  0  0  0  0  0  0  0  0  0  0
  160.5360  206.6490  154.9500 C   0  0  0  0  0  2  0  0  0  0  0  0
  160.4820  210.8240  153.9640 C   0  0  0  0  0  0  0  0  0  0  0  0
  160.8770  208.4930  153.3730 C   0  0  0  0  0  0  0  0  0  0  0  0
  161.9390  206.5440  151.4390 C   0  0  0  0  0  2  0  0  0  0  0  0
  161.5300  208.2240  149.6350 C   0  0  0  0  0  2  0  0  0  0  0  0
  161.9450  207.0230  148.7980 C   0  0  2  0  0  3  0  0  0  0  0  0
  162.9780  207.3830  147.9300 O   0  0  0  0  0  1  0  0  0  0  0  0
  160.8050  206.5570  148.0290 N   0  0  0  0  0  2  0  0  0  0  0  0
  161.3240  205.7130  146.9580 C   0  0  0  0  0  2  0  0  0  0  0  0
  160.5080  202.1480  146.1100 C   0  0  0  0  0  0  0  0  0  0  0  0
  161.0010  202.9530  149.5820 C   0  0  0  0  0  2  0  0  0  0  0  0
  160.6630  204.1720  148.7300 C   0  0  0  0  0  2  0  0  0  0  0  0
  160.5550  203.4710  146.3260 C   0  0  0  0  0  3  0  0  0  0  0  0
  159.7260  201.6720  144.9400 C   0  0  0  0  0  1  0  0  0  0  0  0
  160.2990  201.7110  149.0760 C   0  0  0  0  0  2  0  0  0  0  0  0
  161.2830  201.1460  146.8600 C   0  0  0  0  0  3  0  0  0  0  0  0
  161.2080  200.9470  148.1750 C   0  0  0  0  0  3  0  0  0  0  0  0
  162.8060  203.7880  147.4230 C   0  0  0  0  0  1  0  0  0  0  0  0
  161.3460  204.2400  147.3580 C   0  0  1  0  0  0  0  0  0  0  0  0
  160.1560  211.7950  154.9620 N   0  0  0  0  0  2  0  0  0  0  0  0
  158.8880  211.8230  155.6800 C   0  0  0  0  0  2  0  0  0  0  0  0
  156.9030  211.0930  154.6470 O   0  0  0  0  0  0  0  0  0  0  0  0
  157.6380  213.1860  153.8740 C   0  0  0  0  0  1  0  0  0  0  0  0
  157.7510  211.9660  154.7220 C   0  0  0  0  0  0  0  0  0  0  0  0
  1  9  2  0  0  0  0
  3 10  2  0  0  0  0
  4  8  2  0  0  0  0
  4  1  1  0  0  0  0
  5 12  1  0  0  0  0
  5  6  1  0  0  0  0
  6 11  1  0  0  0  0
  7  6  2  0  0  0  0
  7  3  1  0  0  0  0
 10  2  1  0  0  0  0
 10 28  1  0  0  0  0
 11  1  1  0  0  0  0
 11  2  2  0  0  0  0
 12  4  1  0  0  0  0
 13  5  1  0  0  0  0
 14 15  1  6  0  0  0
 14 13  1  0  0  0  0
 16 14  1  0  0  0  0
 17 27  1  0  0  0  0
 17 16  1  0  0  0  0
 18 21  2  0  0  0  0
 18 24  1  0  0  0  0
 20 19  1  0  0  0  0
 21 27  1  0  0  0  0
 22 18  1  0  0  0  0
 23 19  1  0  0  0  0
 24 25  2  0  0  0  0
 25 23  1  0  0  0  0
 27 26  1  1  0  0  0
 27 20  1  0  0  0  0
 28 29  1  0  0  0  0
 30 32  2  0  0  0  0
 31 32  1  0  0  0  0
 32 29  1  0  0  0  0
M  END
>  <MODEL>
7

>  <REMARK>
 VINA RESULT:      -7.5      2.204      9.756
  Name = 
  8 active torsions:
  status: ('A' for Active; 'I' for Inactive)
    1  A    between atoms: C_2  and  N_12
    2  A    between atoms: C_2  and  C_17
    3  A    between atoms: C_6  and  N_14
    4  A    between atoms: C_6  and  C_32
    5  A    between atoms: C_7  and  C_16
    6  A    between atoms: C_7  and  N_26
    7  A    between atoms: N_14  and  C_17
    8  A    between atoms: C_25  and  N_26
                            x       y       z     vdW  Elec       q    Type
                         _______ _______ _______ _____ _____    ______ ____

>  <TORSDO>
F 8

$$$$
=
 OpenBabel11052411523D

 32 34  0  0  1  0  0  0  0  0999 V2000
  161.2110  205.2340  151.8180 C   0  0  0  0  0  0  0  0  0  0  0  0
  161.3850  205.0110  149.3230 C   0  0  0  0  0  3  0  0  0  0  0  0
  161.9480  206.9130  147.9450 C   0  0  0  0  0  3  0  0  0  0  0  0
  161.2060  206.1330  152.9850 C   0  0  0  0  0  0  0  0  0  0  0  0
  161.8050  208.0200  151.5300 N   0  0  0  0  0  0  0  0  0  0  0  0
  161.7410  207.1850  150.3540 C   0  0  0  0  0  0  0  0  0  0  0  0
  162.0030  207.7190  149.0820 C   0  0  0  0  0  3  0  0  0  0  0  0
  161.1660  205.6690  154.1570 O   0  0  0  0  0  0  0  0  0  0  0  0
  161.0530  203.9210  151.9850 C   0  0  0  0  0  2  0  0  0  0  0  0
  161.6360  205.5520  148.0610 C   0  0  0  0  0  0  0  0  0  0  0  0
  161.4360  205.8130  150.4750 C   0  0  0  0  0  0  0  0  0  0  0  0
  161.1760  207.6160  152.7880 C   0  0  0  0  0  2  0  0  0  0  0  0
  162.3310  209.3800  151.4470 C   0  0  0  0  0  2  0  0  0  0  0  0
  161.2030  210.4000  151.4670 C   0  0  2  0  0  3  0  0  0  0  0  0
  161.4490  211.4000  150.5250 O   0  0  0  0  0  1  0  0  0  0  0  0
  161.1150  210.9920  152.7910 N   0  0  0  0  0  2  0  0  0  0  0  0
  160.0740  212.0120  152.7380 C   0  0  0  0  0  2  0  0  0  0  0  0
  159.3900  210.6090  156.1520 C   0  0  0  0  0  0  0  0  0  0  0  0
  156.6620  212.2200  154.4470 C   0  0  0  0  0  2  0  0  0  0  0  0
  157.7700  211.7670  153.5030 C   0  0  0  0  0  2  0  0  0  0  0  0
  159.6680  210.8570  154.8640 C   0  0  0  0  0  3  0  0  0  0  0  0
  160.0820  209.4620  156.7940 C   0  0  0  0  0  1  0  0  0  0  0  0
  156.5080  211.2710  155.6160 C   0  0  0  0  0  2  0  0  0  0  0  0
  158.5590  211.4670  157.0140 C   0  0  0  0  0  3  0  0  0  0  0  0
  157.2840  211.7770  156.7850 C   0  0  0  0  0  3  0  0  0  0  0  0
  159.3570  213.3550  154.6870 C   0  0  0  0  0  1  0  0  0  0  0  0
  159.2050  212.0010  153.9930 C   0  0  1  0  0  0  0  0  0  0  0  0
  161.5660  204.7050  146.9110 N   0  0  0  0  0  2  0  0  0  0  0  0
  162.2780  204.9680  145.6670 C   0  0  0  0  0  2  0  0  0  0  0  0
  161.5430  205.7970  143.5900 O   0  0  0  0  0  0  0  0  0  0  0  0
  160.1010  204.1880  144.5130 C   0  0  0  0  0  1  0  0  0  0  0  0
  161.3190  205.0460  144.5250 C   0  0  0  0  0  0  0  0  0  0  0  0
  1  9  2  0  0  0  0
  1  4  1  0  0  0  0
  2 11  1  0  0  0  0
  3 10  1  0  0  0  0
  3  7  2  0  0  0  0
  4  8  2  0  0  0  0
  5 12  1  0  0  0  0
  6 11  2  0  0  0  0
  6  5  1  0  0  0  0
  7  6  1  0  0  0  0
 10  2  2  0  0  0  0
 11  1  1  0  0  0  0
 12  4  1  0  0  0  0
 13 14  1  0  0  0  0
 13  5  1  0  0  0  0
 14 15  1  6  0  0  0
 14 16  1  0  0  0  0
 17 16  1  0  0  0  0
 17 27  1  0  0  0  0
 18 22  1  0  0  0  0
 18 24  1  0  0  0  0
 19 23  1  0  0  0  0
 20 27  1  0  0  0  0
 20 19  1  0  0  0  0
 21 18  2  0  0  0  0
 23 25  1  0  0  0  0
 25 24  2  0  0  0  0
 27 26  1  1  0  0  0
 27 21  1  0  0  0  0
 28 10  1  0  0  0  0
 29 28  1  0  0  0  0
 30 32  2  0  0  0  0
 31 32  1  0  0  0  0
 32 29  1  0  0  0  0
M  END
>  <MODEL>
8

>  <REMARK>
 VINA RESULT:      -7.5      2.322      3.657
  Name = 
  8 active torsions:
  status: ('A' for Active; 'I' for Inactive)
    1  A    between atoms: C_2  and  N_12
    2  A    between atoms: C_2  and  C_17
    3  A    between atoms: C_6  and  N_14
    4  A    between atoms: C_6  and  C_32
    5  A    between atoms: C_7  and  C_16
    6  A    between atoms: C_7  and  N_26
    7  A    between atoms: N_14  and  C_17
    8  A    between atoms: C_25  and  N_26
                            x       y       z     vdW  Elec       q    Type
                         _______ _______ _______ _____ _____    ______ ____

>  <TORSDO>
F 8

$$$$
=
 OpenBabel11052411523D

 32 34  0  0  1  0  0  0  0  0999 V2000
  161.7480  208.3830  150.1870 C   0  0  0  0  0  0  0  0  0  0  0  0
  161.5700  205.9320  149.6720 C   0  0  0  0  0  3  0  0  0  0  0  0
  160.9990  204.3420  151.3980 C   0  0  0  0  0  3  0  0  0  0  0  0
  161.7520  209.4370  151.2170 C   0  0  0  0  0  0  0  0  0  0  0  0
  161.1450  207.7720  152.9190 N   0  0  0  0  0  0  0  0  0  0  0  0
  161.2100  206.7020  151.9510 C   0  0  0  0  0  0  0  0  0  0  0  0
  160.9440  205.3760  152.3320 C   0  0  0  0  0  3  0  0  0  0  0  0
  161.7960  210.6550  150.8930 O   0  0  0  0  0  0  0  0  0  0  0  0
  161.9090  208.7030  148.9040 C   0  0  0  0  0  2  0  0  0  0  0  0
  161.3150  204.6160  150.0610 C   0  0  0  0  0  0  0  0  0  0  0  0
  161.5190  206.9820  150.6040 C   0  0  0  0  0  0  0  0  0  0  0  0
  161.7780  209.0670  152.6660 C   0  0  0  0  0  2  0  0  0  0  0  0
  160.6150  207.5310  154.2580 C   0  0  0  0  0  2  0  0  0  0  0  0
  161.2870  208.4380  155.2780 C   0  0  2  0  0  3  0  0  0  0  0  0
  161.8200  207.6720  156.3170 O   0  0  0  0  0  1  0  0  0  0  0  0
  160.3070  209.3670  155.8130 N   0  0  0  0  0  2  0  0  0  0  0  0
  160.7380  210.7090  155.4390 C   0  0  0  0  0  2  0  0  0  0  0  0
  158.8370  212.8180  152.9830 C   0  0  0  0  0  0  0  0  0  0  0  0
  158.3190  213.4790  156.4820 C   0  0  0  0  0  2  0  0  0  0  0  0
  159.6250  212.7420  156.2010 C   0  0  0  0  0  2  0  0  0  0  0  0
  159.7280  212.1850  153.7590 C   0  0  0  0  0  3  0  0  0  0  0  0
  159.2550  213.1610  151.5990 C   0  0  0  0  0  1  0  0  0  0  0  0
  157.9720  214.4370  155.3620 C   0  0  0  0  0  2  0  0  0  0  0  0
  157.4340  213.0730  153.3500 C   0  0  0  0  0  3  0  0  0  0  0  0
  157.0350  213.7810  154.4060 C   0  0  0  0  0  3  0  0  0  0  0  0
  158.2710  210.7990  155.2840 C   0  0  0  0  0  1  0  0  0  0  0  0
  159.5510  211.6260  155.1510 C   0  0  1  0  0  0  0  0  0  0  0  0
  161.3850  203.5730  149.0840 N   0  0  0  0  0  2  0  0  0  0  0  0
  160.4470  202.4590  149.0210 C   0  0  0  0  0  2  0  0  0  0  0  0
  161.4960  200.4200  148.4910 O   0  0  0  0  0  0  0  0  0  0  0  0
  160.7260  201.5870  146.6040 C   0  0  0  0  0  1  0  0  0  0  0  0
  160.9380  201.4190  148.0690 C   0  0  0  0  0  0  0  0  0  0  0  0
  1 11  1  0  0  0  0
  1  4  1  0  0  0  0
  2 10  2  0  0  0  0
  2 11  1  0  0  0  0
  3  7  2  0  0  0  0
  4 12  1  0  0  0  0
  5 13  1  0  0  0  0
  6  7  1  0  0  0  0
  6  5  1  0  0  0  0
  8  4  2  0  0  0  0
  9  1  2  0  0  0  0
 10  3  1  0  0  0  0
 11  6  2  0  0  0  0
 12  5  1  0  0  0  0
 13 14  1  0  0  0  0
 14 16  1  0  0  0  0
 14 15  1  1  0  0  0
 17 16  1  0  0  0  0
 18 24  1  0  0  0  0
 18 21  2  0  0  0  0
 20 19  1  0  0  0  0
 21 27  1  0  0  0  0
 22 18  1  0  0  0  0
 23 19  1  0  0  0  0
 24 25  2  0  0  0  0
 25 23  1  0  0  0  0
 27 26  1  1  0  0  0
 27 17  1  0  0  0  0
 27 20  1  0  0  0  0
 28 10  1  0  0  0  0
 29 28  1  0  0  0  0
 31 32  1  0  0  0  0
 32 30  2  0  0  0  0
 32 29  1  0  0  0  0
M  END
>  <MODEL>
9

>  <REMARK>
 VINA RESULT:      -7.3      1.464      2.347
  Name = 
  8 active torsions:
  status: ('A' for Active; 'I' for Inactive)
    1  A    between atoms: C_2  and  N_12
    2  A    between atoms: C_2  and  C_17
    3  A    between atoms: C_6  and  N_14
    4  A    between atoms: C_6  and  C_32
    5  A    between atoms: C_7  and  C_16
    6  A    between atoms: C_7  and  N_26
    7  A    between atoms: N_14  and  C_17
    8  A    between atoms: C_25  and  N_26
                            x       y       z     vdW  Elec       q    Type
                         _______ _______ _______ _____ _____    ______ ____

>  <TORSDO>
F 8

$$$$
