=
 OpenBabel11042421093D

 28 31  0  0  1  0  0  0  0  0999 V2000
  159.6680  212.1300  153.2580 C   0  0  0  0  0  2  0  0  0  0  0  0
  160.4750  211.6760  156.7370 C   0  0  0  0  0  3  0  0  0  0  0  0
  162.5510  210.3720  155.1580 C   0  0  0  0  0  2  0  0  0  0  0  0
  160.4030  212.2840  154.4520 O   0  0  0  0  0  0  0  0  0  0  0  0
  161.0740  209.9950  155.0060 C   0  0  1  0  0  3  0  0  0  0  0  0
  158.1780  212.3690  153.5100 C   0  0  0  0  0  2  0  0  0  0  0  0
  162.8000  210.9640  156.5120 C   0  0  0  0  0  0  0  0  0  0  0  0
  163.9590  210.9450  157.0000 O   0  0  0  0  0  0  0  0  0  0  0  0
  160.1580  211.1960  155.3420 C   0  0  1  0  0  0  0  0  0  0  0  0
  157.7590  211.8430  154.8840 C   0  0  2  0  0  3  0  0  0  0  0  0
  158.6870  210.7260  155.3560 C   0  0  0  0  0  2  0  0  0  0  0  0
  161.7020  211.5950  157.2600 C   0  0  0  0  0  3  0  0  0  0  0  0
  155.3740  212.1670  154.2480 O   0  0  0  0  0  0  0  0  0  0  0  0
  156.0110  210.2920  155.4000 O   0  0  0  0  0  1  0  0  0  0  0  0
  156.3400  211.3830  154.8650 C   0  0  0  0  0  0  0  0  0  0  0  0
  160.8250  209.5040  153.6930 O   0  0  0  0  0  0  0  0  0  0  0  0
  161.2510  202.2180  150.9260 N   0  0  0  0  0  1  0  0  0  0  0  0
  161.1730  205.8870  150.3660 C   0  0  0  0  0  3  0  0  0  0  0  0
  161.0310  205.4050  152.7300 C   0  0  0  0  0  0  0  0  0  0  0  0
  161.0920  204.0750  152.4530 N   0  0  0  0  0  0  0  0  0  0  0  0
  161.2330  204.5170  150.1090 C   0  0  0  0  0  3  0  0  0  0  0  0
  160.9350  205.8370  154.0520 C   0  0  0  0  0  3  0  0  0  0  0  0
  161.1900  203.6170  151.1750 C   0  0  0  0  0  0  0  0  0  0  0  0
  161.0760  208.6430  150.9250 O   0  0  0  0  0  1  0  0  0  0  0  0
  161.0090  207.7250  151.9700 C   0  0  0  0  0  0  0  0  0  0  0  0
  160.8700  207.2010  154.3380 C   0  0  0  0  0  3  0  0  0  0  0  0
  160.8980  208.1540  153.3140 C   0  0  0  0  0  0  0  0  0  0  0  0
  161.0690  206.3500  151.6820 C   0  0  0  0  0  0  0  0  0  0  0  0
  1  6  1  0  0  0  0
  1  4  1  0  0  0  0
  2 12  2  0  0  0  0
  3  7  1  0  0  0  0
  4  9  1  0  0  0  0
  5 16  1  6  0  0  0
  5  3  1  0  0  0  0
  5  9  1  0  0  0  0
  6 10  1  0  0  0  0
  7  8  2  0  0  0  0
  7 12  1  0  0  0  0
  9 11  1  6  0  0  0
  9  2  1  0  0  0  0
 10 15  1  6  0  0  0
 10 11  1  0  0  0  0
 13 15  2  0  0  0  0
 15 14  1  0  0  0  0
 17 23  1  0  0  0  0
 18 28  1  0  0  0  0
 19 22  1  0  0  0  0
 20 19  1  0  0  0  0
 21 18  2  0  0  0  0
 21 23  1  0  0  0  0
 22 26  2  0  0  0  0
 23 20  2  0  0  0  0
 24 25  1  0  0  0  0
 25 27  2  0  0  0  0
 27 16  1  0  0  0  0
 27 26  1  0  0  0  0
 28 25  1  0  0  0  0
 28 19  2  0  0  0  0
M  END
>  <MODEL>
1

>  <REMARK>
 VINA RESULT:      -7.5      0.000      0.000
  Name = 
  3 active torsions:
  status: ('A' for Active; 'I' for Inactive)
    1  A    between atoms: O_12  and  C_17
    2  A    between atoms: O_12  and  C_23
    3  A    between atoms: C_18  and  C_25
                            x       y       z     vdW  Elec       q    Type
                         _______ _______ _______ _____ _____    ______ ____

>  <TORSDO>
F 3

$$$$
=
 OpenBabel11042421093D

 28 31  0  0  1  0  0  0  0  0999 V2000
  162.2930  210.1630  152.9460 C   0  0  0  0  0  2  0  0  0  0  0  0
  159.7950  209.6380  155.4840 C   0  0  0  0  0  3  0  0  0  0  0  0
  161.0810  207.0760  154.9490 C   0  0  0  0  0  2  0  0  0  0  0  0
  161.7860  209.8600  154.2260 O   0  0  0  0  0  0  0  0  0  0  0  0
  160.4010  207.8790  153.8350 C   0  0  1  0  0  3  0  0  0  0  0  0
  161.6430  211.4360  152.3990 C   0  0  0  0  0  2  0  0  0  0  0  0
  160.5000  207.4400  156.2810 C   0  0  0  0  0  0  0  0  0  0  0  0
  160.5900  206.6350  157.2440 O   0  0  0  0  0  0  0  0  0  0  0  0
  160.4390  209.3950  154.1420 C   0  0  1  0  0  0  0  0  0  0  0  0
  160.1750  211.5300  152.8170 C   0  0  2  0  0  3  0  0  0  0  0  0
  159.5890  210.1480  153.0960 C   0  0  0  0  0  2  0  0  0  0  0  0
  159.8520  208.7460  156.4770 C   0  0  0  0  0  3  0  0  0  0  0  0
  160.0270  212.9450  150.7740 O   0  0  0  0  0  0  0  0  0  0  0  0
  158.1170  212.2280  151.8160 O   0  0  0  0  0  1  0  0  0  0  0  0
  159.3750  212.2490  151.7830 C   0  0  0  0  0  0  0  0  0  0  0  0
  161.0060  207.5870  152.5790 O   0  0  0  0  0  0  0  0  0  0  0  0
  161.0790  200.8880  148.5770 N   0  0  0  0  0  1  0  0  0  0  0  0
  161.0680  204.5990  148.6630 C   0  0  0  0  0  3  0  0  0  0  0  0
  161.0470  203.7150  150.9130 C   0  0  0  0  0  0  0  0  0  0  0  0
  161.0560  202.4530  150.4080 N   0  0  0  0  0  0  0  0  0  0  0  0
  161.0770  203.2930  148.1710 C   0  0  0  0  0  3  0  0  0  0  0  0
  161.0360  203.9120  152.2930 C   0  0  0  0  0  3  0  0  0  0  0  0
  161.0700  202.2230  149.0670 C   0  0  0  0  0  0  0  0  0  0  0  0
  161.0770  207.2170  149.6950 O   0  0  0  0  0  1  0  0  0  0  0  0
  161.0450  206.1320  150.5670 C   0  0  0  0  0  0  0  0  0  0  0  0
  161.0250  205.2070  152.8140 C   0  0  0  0  0  3  0  0  0  0  0  0
  161.0210  206.3230  151.9700 C   0  0  0  0  0  0  0  0  0  0  0  0
  161.0510  204.8270  150.0440 C   0  0  0  0  0  0  0  0  0  0  0  0
  1  4  1  0  0  0  0
  2 12  2  0  0  0  0
  3  7  1  0  0  0  0
  5 16  1  6  0  0  0
  5  9  1  0  0  0  0
  5  3  1  0  0  0  0
  6 10  1  0  0  0  0
  6  1  1  0  0  0  0
  7 12  1  0  0  0  0
  7  8  2  0  0  0  0
  9 11  1  6  0  0  0
  9  4  1  0  0  0  0
  9  2  1  0  0  0  0
 10 15  1  6  0  0  0
 10 11  1  0  0  0  0
 13 15  2  0  0  0  0
 15 14  1  0  0  0  0
 17 23  1  0  0  0  0
 18 28  1  0  0  0  0
 19 22  1  0  0  0  0
 20 19  1  0  0  0  0
 21 18  2  0  0  0  0
 21 23  1  0  0  0  0
 22 26  2  0  0  0  0
 23 20  2  0  0  0  0
 24 25  1  0  0  0  0
 25 27  2  0  0  0  0
 27 16  1  0  0  0  0
 27 26  1  0  0  0  0
 28 25  1  0  0  0  0
 28 19  2  0  0  0  0
M  END
>  <MODEL>
2

>  <REMARK>
 VINA RESULT:      -6.6      2.263      3.202
  Name = 
  3 active torsions:
  status: ('A' for Active; 'I' for Inactive)
    1  A    between atoms: O_12  and  C_17
    2  A    between atoms: O_12  and  C_23
    3  A    between atoms: C_18  and  C_25
                            x       y       z     vdW  Elec       q    Type
                         _______ _______ _______ _____ _____    ______ ____

>  <TORSDO>
F 3

$$$$
=
 OpenBabel11042421093D

 28 31  0  0  1  0  0  0  0  0999 V2000
  160.1970  206.4260  148.5080 C   0  0  0  0  0  2  0  0  0  0  0  0
  160.9100  202.9960  149.3350 C   0  0  0  0  0  3  0  0  0  0  0  0
  161.1010  204.5670  151.7850 C   0  0  0  0  0  2  0  0  0  0  0  0
  159.9940  205.1640  149.1040 O   0  0  0  0  0  0  0  0  0  0  0  0
  161.9500  204.8980  150.5530 C   0  0  1  0  0  3  0  0  0  0  0  0
  160.5520  206.2700  147.0290 C   0  0  0  0  0  2  0  0  0  0  0  0
  160.6960  203.1240  151.7640 C   0  0  0  0  0  0  0  0  0  0  0  0
  160.3820  202.5470  152.8370 O   0  0  0  0  0  0  0  0  0  0  0  0
  161.2300  204.4680  149.2520 C   0  0  1  0  0  0  0  0  0  0  0  0
  161.4150  205.0290  146.7960 C   0  0  2  0  0  3  0  0  0  0  0  0
  162.1890  204.6490  148.0560 C   0  0  0  0  0  2  0  0  0  0  0  0
  160.6350  202.3870  150.4930 C   0  0  0  0  0  3  0  0  0  0  0  0
  161.8540  205.7750  144.4610 O   0  0  0  0  0  0  0  0  0  0  0  0
  163.5590  204.9310  145.7370 O   0  0  0  0  0  1  0  0  0  0  0  0
  162.3410  205.2370  145.6440 C   0  0  0  0  0  0  0  0  0  0  0  0
  162.2700  206.2860  150.5350 O   0  0  0  0  0  0  0  0  0  0  0  0
  159.8270  211.9890  155.2700 N   0  0  0  0  0  1  0  0  0  0  0  0
  160.9550  210.8240  151.9300 C   0  0  0  0  0  3  0  0  0  0  0  0
  160.9190  208.9740  153.4870 C   0  0  0  0  0  0  0  0  0  0  0  0
  160.4860  209.8170  154.4630 N   0  0  0  0  0  0  0  0  0  0  0  0
  160.5110  211.6660  152.9500 C   0  0  0  0  0  3  0  0  0  0  0  0
  161.1150  207.6240  153.7700 C   0  0  0  0  0  3  0  0  0  0  0  0
  160.2800  211.1400  154.2230 C   0  0  0  0  0  0  0  0  0  0  0  0
  161.8250  209.0880  149.8940 O   0  0  0  0  0  1  0  0  0  0  0  0
  161.6120  208.5930  151.1770 C   0  0  0  0  0  0  0  0  0  0  0  0
  161.5610  206.7580  152.7700 C   0  0  0  0  0  3  0  0  0  0  0  0
  161.8210  207.2250  151.4760 C   0  0  0  0  0  0  0  0  0  0  0  0
  161.1670  209.4640  152.1860 C   0  0  0  0  0  0  0  0  0  0  0  0
  1  4  1  0  0  0  0
  2 12  2  0  0  0  0
  4  9  1  0  0  0  0
  5 16  1  6  0  0  0
  5  3  1  0  0  0  0
  6  1  1  0  0  0  0
  7  3  1  0  0  0  0
  7  8  2  0  0  0  0
  9 11  1  6  0  0  0
  9  2  1  0  0  0  0
  9  5  1  0  0  0  0
 10 15  1  6  0  0  0
 10  6  1  0  0  0  0
 10 11  1  0  0  0  0
 12  7  1  0  0  0  0
 13 15  2  0  0  0  0
 15 14  1  0  0  0  0
 16 27  1  0  0  0  0
 18 28  2  0  0  0  0
 18 21  1  0  0  0  0
 19 22  1  0  0  0  0
 19 20  2  0  0  0  0
 21 23  2  0  0  0  0
 23 20  1  0  0  0  0
 23 17  1  0  0  0  0
 24 25  1  0  0  0  0
 25 27  2  0  0  0  0
 25 28  1  0  0  0  0
 26 22  2  0  0  0  0
 27 26  1  0  0  0  0
 28 19  1  0  0  0  0
M  END
>  <MODEL>
3

>  <REMARK>
 VINA RESULT:      -6.4      3.959      8.367
  Name = 
  3 active torsions:
  status: ('A' for Active; 'I' for Inactive)
    1  A    between atoms: O_12  and  C_17
    2  A    between atoms: O_12  and  C_23
    3  A    between atoms: C_18  and  C_25
                            x       y       z     vdW  Elec       q    Type
                         _______ _______ _______ _____ _____    ______ ____

>  <TORSDO>
F 3

$$$$
=
 OpenBabel11042421093D

 28 31  0  0  1  0  0  0  0  0999 V2000
  162.3740  210.3790  153.3590 C   0  0  0  0  0  2  0  0  0  0  0  0
  159.5500  209.5060  155.4140 C   0  0  0  0  0  3  0  0  0  0  0  0
  161.1950  207.1190  155.0910 C   0  0  0  0  0  2  0  0  0  0  0  0
  161.6910  209.9840  154.5280 O   0  0  0  0  0  0  0  0  0  0  0  0
  160.6320  207.8730  153.8820 C   0  0  1  0  0  3  0  0  0  0  0  0
  161.6880  211.5860  152.7180 C   0  0  0  0  0  2  0  0  0  0  0  0
  160.3530  207.3780  156.3040 C   0  0  0  0  0  0  0  0  0  0  0  0
  160.3660  206.5610  157.2600 O   0  0  0  0  0  0  0  0  0  0  0  0
  160.4420  209.3750  154.2040 C   0  0  1  0  0  0  0  0  0  0  0  0
  160.1690  211.5050  152.8730 C   0  0  2  0  0  3  0  0  0  0  0  0
  159.7060  210.0580  153.0320 C   0  0  0  0  0  2  0  0  0  0  0  0
  159.5360  208.5970  156.3940 C   0  0  0  0  0  3  0  0  0  0  0  0
  160.2270  212.5560  150.6170 O   0  0  0  0  0  0  0  0  0  0  0  0
  158.2400  212.3530  151.7380 O   0  0  0  0  0  1  0  0  0  0  0  0
  159.4840  212.1590  151.7200 C   0  0  0  0  0  0  0  0  0  0  0  0
  161.4750  207.6870  152.7500 O   0  0  0  0  0  0  0  0  0  0  0  0
  160.5680  201.6850  147.8450 N   0  0  0  0  0  1  0  0  0  0  0  0
  161.0500  203.0040  151.2810 C   0  0  0  0  0  3  0  0  0  0  0  0
  160.9490  204.8270  149.6980 C   0  0  0  0  0  0  0  0  0  0  0  0
  160.7820  203.9300  148.6900 N   0  0  0  0  0  0  0  0  0  0  0  0
  160.8780  202.1040  150.2280 C   0  0  0  0  0  3  0  0  0  0  0  0
  160.9790  206.1920  149.4170 C   0  0  0  0  0  3  0  0  0  0  0  0
  160.7450  202.5910  148.9260 C   0  0  0  0  0  0  0  0  0  0  0  0
  161.3690  204.8490  153.3810 O   0  0  0  0  0  1  0  0  0  0  0  0
  161.2600  205.3070  152.0710 C   0  0  0  0  0  0  0  0  0  0  0  0
  161.1520  207.1150  150.4500 C   0  0  0  0  0  3  0  0  0  0  0  0
  161.3020  206.6920  151.7760 C   0  0  0  0  0  0  0  0  0  0  0  0
  161.0900  204.3790  151.0290 C   0  0  0  0  0  0  0  0  0  0  0  0
  1  4  1  0  0  0  0
  2 12  2  0  0  0  0
  3  7  1  0  0  0  0
  5 16  1  6  0  0  0
  5  9  1  0  0  0  0
  5  3  1  0  0  0  0
  6 10  1  0  0  0  0
  6  1  1  0  0  0  0
  7 12  1  0  0  0  0
  7  8  2  0  0  0  0
  9 11  1  6  0  0  0
  9  4  1  0  0  0  0
  9  2  1  0  0  0  0
 10 15  1  6  0  0  0
 10 11  1  0  0  0  0
 13 15  2  0  0  0  0
 15 14  1  0  0  0  0
 17 23  1  0  0  0  0
 19 28  1  0  0  0  0
 20 23  2  0  0  0  0
 20 19  1  0  0  0  0
 21 18  2  0  0  0  0
 22 19  2  0  0  0  0
 22 26  1  0  0  0  0
 23 21  1  0  0  0  0
 25 24  1  0  0  0  0
 26 27  2  0  0  0  0
 27 25  1  0  0  0  0
 27 16  1  0  0  0  0
 28 18  1  0  0  0  0
 28 25  2  0  0  0  0
M  END
>  <MODEL>
4

>  <REMARK>
 VINA RESULT:      -5.8      2.402      3.565
  Name = 
  3 active torsions:
  status: ('A' for Active; 'I' for Inactive)
    1  A    between atoms: O_12  and  C_17
    2  A    between atoms: O_12  and  C_23
    3  A    between atoms: C_18  and  C_25
                            x       y       z     vdW  Elec       q    Type
                         _______ _______ _______ _____ _____    ______ ____

>  <TORSDO>
F 3

$$$$
=
 OpenBabel11042421093D

 28 31  0  0  1  0  0  0  0  0999 V2000
  162.9900  206.3210  152.1670 C   0  0  0  0  0  2  0  0  0  0  0  0
  161.9100  207.2020  148.8480 C   0  0  0  0  0  3  0  0  0  0  0  0
  161.9390  209.6350  150.4560 C   0  0  0  0  0  2  0  0  0  0  0  0
  163.0610  206.9300  150.8970 O   0  0  0  0  0  0  0  0  0  0  0  0
  161.1120  208.4130  150.8680 C   0  0  1  0  0  3  0  0  0  0  0  0
  162.5950  204.8500  152.0370 C   0  0  0  0  0  2  0  0  0  0  0  0
  162.1790  209.6250  148.9770 C   0  0  0  0  0  0  0  0  0  0  0  0
  162.4450  210.7000  148.3790 O   0  0  0  0  0  0  0  0  0  0  0  0
  161.7560  207.1060  150.3460 C   0  0  1  0  0  0  0  0  0  0  0  0
  161.5930  204.6460  150.8990 C   0  0  2  0  0  3  0  0  0  0  0  0
  160.8030  205.9230  150.6220 C   0  0  0  0  0  2  0  0  0  0  0  0
  162.1350  208.3620  148.2240 C   0  0  0  0  0  3  0  0  0  0  0  0
  160.0710  202.8220  150.1530 O   0  0  0  0  0  0  0  0  0  0  0  0
  160.4490  203.1610  152.3870 O   0  0  0  0  0  1  0  0  0  0  0  0
  160.6760  203.5070  151.1980 C   0  0  0  0  0  0  0  0  0  0  0  0
  160.9500  208.3830  152.2820 O   0  0  0  0  0  0  0  0  0  0  0  0
  159.2270  214.1840  157.2100 N   0  0  0  0  0  1  0  0  0  0  0  0
  160.7670  210.8760  156.5270 C   0  0  0  0  0  3  0  0  0  0  0  0
  159.7830  211.7680  154.5070 C   0  0  0  0  0  0  0  0  0  0  0  0
  159.3900  212.8720  155.1970 N   0  0  0  0  0  0  0  0  0  0  0  0
  160.3500  212.0180  157.2120 C   0  0  0  0  0  3  0  0  0  0  0  0
  159.4960  211.6580  153.1480 C   0  0  0  0  0  3  0  0  0  0  0  0
  159.6560  213.0150  156.5240 C   0  0  0  0  0  0  0  0  0  0  0  0
  161.6120  208.5990  155.1070 O   0  0  0  0  0  1  0  0  0  0  0  0
  160.8960  209.5950  154.4490 C   0  0  0  0  0  0  0  0  0  0  0  0
  159.8970  210.5250  152.4380 C   0  0  0  0  0  3  0  0  0  0  0  0
  160.5880  209.4850  153.0720 C   0  0  0  0  0  0  0  0  0  0  0  0
  160.4860  210.7350  155.1640 C   0  0  0  0  0  0  0  0  0  0  0  0
  3  5  1  0  0  0  0
  4  1  1  0  0  0  0
  5 16  1  1  0  0  0
  6  1  1  0  0  0  0
  7  3  1  0  0  0  0
  8  7  2  0  0  0  0
  9  2  1  6  0  0  0
  9 11  1  0  0  0  0
  9  5  1  0  0  0  0
  9  4  1  0  0  0  0
 10 15  1  1  0  0  0
 10  6  1  0  0  0  0
 11 10  1  0  0  0  0
 12  2  2  0  0  0  0
 12  7  1  0  0  0  0
 13 15  2  0  0  0  0
 15 14  1  0  0  0  0
 16 27  1  0  0  0  0
 18 21  1  0  0  0  0
 19 28  1  0  0  0  0
 19 20  2  0  0  0  0
 20 23  1  0  0  0  0
 22 19  1  0  0  0  0
 23 17  1  0  0  0  0
 23 21  2  0  0  0  0
 25 24  1  0  0  0  0
 25 28  1  0  0  0  0
 26 27  1  0  0  0  0
 26 22  2  0  0  0  0
 27 25  2  0  0  0  0
 28 18  2  0  0  0  0
M  END
>  <MODEL>
5

>  <REMARK>
 VINA RESULT:      -5.7      3.770      7.861
  Name = 
  3 active torsions:
  status: ('A' for Active; 'I' for Inactive)
    1  A    between atoms: O_12  and  C_17
    2  A    between atoms: O_12  and  C_23
    3  A    between atoms: C_18  and  C_25
                            x       y       z     vdW  Elec       q    Type
                         _______ _______ _______ _____ _____    ______ ____

>  <TORSDO>
F 3

$$$$
=
 OpenBabel11042421093D

 28 31  0  0  1  0  0  0  0  0999 V2000
  161.9010  209.0210  156.8750 C   0  0  0  0  0  2  0  0  0  0  0  0
  160.2170  211.9750  155.6950 C   0  0  0  0  0  3  0  0  0  0  0  0
  158.9620  209.6650  154.4350 C   0  0  0  0  0  2  0  0  0  0  0  0
  160.8360  209.9310  156.7110 O   0  0  0  0  0  0  0  0  0  0  0  0
  160.4620  209.9380  154.2910 C   0  0  1  0  0  3  0  0  0  0  0  0
  163.1840  209.7590  157.2600 C   0  0  0  0  0  2  0  0  0  0  0  0
  158.2280  210.9360  154.7330 C   0  0  0  0  0  0  0  0  0  0  0  0
  157.0000  211.0270  154.4710 O   0  0  0  0  0  0  0  0  0  0  0  0
  161.0070  210.7010  155.5220 C   0  0  1  0  0  0  0  0  0  0  0  0
  163.2750  211.1130  156.5550 C   0  0  2  0  0  3  0  0  0  0  0  0
  162.4700  211.1160  155.2580 C   0  0  0  0  0  2  0  0  0  0  0  0
  158.9270  212.0690  155.3580 C   0  0  0  0  0  3  0  0  0  0  0  0
  165.1910  211.4520  155.0020 O   0  0  0  0  0  0  0  0  0  0  0  0
  165.4540  211.8220  157.2480 O   0  0  0  0  0  1  0  0  0  0  0  0
  164.6980  211.4820  156.3000 C   0  0  0  0  0  0  0  0  0  0  0  0
  161.1660  208.7180  154.0830 O   0  0  0  0  0  0  0  0  0  0  0  0
  161.2650  204.1280  147.7720 N   0  0  0  0  0  1  0  0  0  0  0  0
  161.1780  204.5490  151.4590 C   0  0  0  0  0  3  0  0  0  0  0  0
  161.2260  206.7100  150.3770 C   0  0  0  0  0  0  0  0  0  0  0  0
  161.2490  206.0930  149.1660 N   0  0  0  0  0  0  0  0  0  0  0  0
  161.2030  203.9410  150.2030 C   0  0  0  0  0  3  0  0  0  0  0  0
  161.2330  208.1020  150.4490 C   0  0  0  0  0  3  0  0  0  0  0  0
  161.2400  204.7370  149.0570 C   0  0  0  0  0  0  0  0  0  0  0  0
  161.1010  205.8120  153.9720 O   0  0  0  0  0  1  0  0  0  0  0  0
  161.1640  206.5830  152.8150 C   0  0  0  0  0  0  0  0  0  0  0  0
  161.2110  208.7380  151.6920 C   0  0  0  0  0  3  0  0  0  0  0  0
  161.1840  207.9970  152.8790 C   0  0  0  0  0  0  0  0  0  0  0  0
  161.1910  205.9440  151.5630 C   0  0  0  0  0  0  0  0  0  0  0  0
  1  6  1  0  0  0  0
  3  7  1  0  0  0  0
  4  1  1  0  0  0  0
  5 16  1  1  0  0  0
  5  3  1  0  0  0  0
  5  9  1  0  0  0  0
  7 12  1  0  0  0  0
  8  7  2  0  0  0  0
  9 11  1  6  0  0  0
  9  2  1  0  0  0  0
  9  4  1  0  0  0  0
 10 15  1  6  0  0  0
 10  6  1  0  0  0  0
 11 10  1  0  0  0  0
 12  2  2  0  0  0  0
 13 15  2  0  0  0  0
 15 14  1  0  0  0  0
 17 23  1  0  0  0  0
 18 28  1  0  0  0  0
 19 22  2  0  0  0  0
 19 28  1  0  0  0  0
 20 19  1  0  0  0  0
 21 18  2  0  0  0  0
 22 26  1  0  0  0  0
 23 20  2  0  0  0  0
 23 21  1  0  0  0  0
 25 27  1  0  0  0  0
 25 24  1  0  0  0  0
 26 27  2  0  0  0  0
 27 16  1  0  0  0  0
 28 25  2  0  0  0  0
M  END
>  <MODEL>
6

>  <REMARK>
 VINA RESULT:      -5.4      1.799      4.621
  Name = 
  3 active torsions:
  status: ('A' for Active; 'I' for Inactive)
    1  A    between atoms: O_12  and  C_17
    2  A    between atoms: O_12  and  C_23
    3  A    between atoms: C_18  and  C_25
                            x       y       z     vdW  Elec       q    Type
                         _______ _______ _______ _____ _____    ______ ____

>  <TORSDO>
F 3

$$$$
=
 OpenBabel11042421093D

 28 31  0  0  1  0  0  0  0  0999 V2000
  160.3820  206.5230  148.4780 C   0  0  0  0  0  2  0  0  0  0  0  0
  160.8310  203.0470  149.2980 C   0  0  0  0  0  3  0  0  0  0  0  0
  160.9910  204.5790  151.7740 C   0  0  0  0  0  2  0  0  0  0  0  0
  160.0680  205.2720  149.0470 O   0  0  0  0  0  0  0  0  0  0  0  0
  161.9230  204.8670  150.5930 C   0  0  1  0  0  3  0  0  0  0  0  0
  160.8050  206.3590  147.0180 C   0  0  0  0  0  2  0  0  0  0  0  0
  160.4960  203.1650  151.7130 C   0  0  0  0  0  0  0  0  0  0  0  0
  160.0890  202.5990  152.7610 O   0  0  0  0  0  0  0  0  0  0  0  0
  161.2480  204.4960  149.2500 C   0  0  1  0  0  0  0  0  0  0  0  0
  161.5990  205.0670  146.8140 C   0  0  2  0  0  3  0  0  0  0  0  0
  162.2790  204.6270  148.1090 C   0  0  0  0  0  2  0  0  0  0  0  0
  160.4560  202.4460  150.4310 C   0  0  0  0  0  3  0  0  0  0  0  0
  163.8730  204.7030  145.8690 O   0  0  0  0  0  1  0  0  0  0  0  0
  162.2910  205.8280  144.6530 O   0  0  0  0  0  0  0  0  0  0  0  0
  162.5960  205.2270  145.7160 C   0  0  0  0  0  0  0  0  0  0  0  0
  162.3310  206.2310  150.6100 O   0  0  0  0  0  0  0  0  0  0  0  0
  159.5870  211.2490  155.9200 N   0  0  0  0  0  1  0  0  0  0  0  0
  161.1190  207.9810  155.0520 C   0  0  0  0  0  3  0  0  0  0  0  0
  160.7490  209.2820  153.0490 C   0  0  0  0  0  0  0  0  0  0  0  0
  160.2300  210.2850  153.8080 N   0  0  0  0  0  0  0  0  0  0  0  0
  160.5810  209.0240  155.8070 C   0  0  0  0  0  3  0  0  0  0  0  0
  160.8310  209.4280  151.6660 C   0  0  0  0  0  3  0  0  0  0  0  0
  160.1360  210.1790  155.1610 C   0  0  0  0  0  0  0  0  0  0  0  0
  162.2210  205.9100  153.4990 O   0  0  0  0  0  1  0  0  0  0  0  0
  161.7470  207.0610  152.8760 C   0  0  0  0  0  0  0  0  0  0  0  0
  161.3620  208.4000  150.8850 C   0  0  0  0  0  3  0  0  0  0  0  0
  161.8150  207.2120  151.4700 C   0  0  0  0  0  0  0  0  0  0  0  0
  161.2080  208.0960  153.6610 C   0  0  0  0  0  0  0  0  0  0  0  0
  1  4  1  0  0  0  0
  2 12  2  0  0  0  0
  4  9  1  0  0  0  0
  5 16  1  6  0  0  0
  5  3  1  0  0  0  0
  6  1  1  0  0  0  0
  7  3  1  0  0  0  0
  7  8  2  0  0  0  0
  9 11  1  6  0  0  0
  9  2  1  0  0  0  0
  9  5  1  0  0  0  0
 10 15  1  6  0  0  0
 10  6  1  0  0  0  0
 10 11  1  0  0  0  0
 12  7  1  0  0  0  0
 14 15  2  0  0  0  0
 15 13  1  0  0  0  0
 16 27  1  0  0  0  0
 18 21  1  0  0  0  0
 19 28  1  0  0  0  0
 19 20  2  0  0  0  0
 20 23  1  0  0  0  0
 22 19  1  0  0  0  0
 23 21  2  0  0  0  0
 23 17  1  0  0  0  0
 25 24  1  0  0  0  0
 25 28  1  0  0  0  0
 26 27  1  0  0  0  0
 26 22  2  0  0  0  0
 27 25  2  0  0  0  0
 28 18  2  0  0  0  0
M  END
>  <MODEL>
7

>  <REMARK>
 VINA RESULT:      -5.2      4.055      8.453
  Name = 
  3 active torsions:
  status: ('A' for Active; 'I' for Inactive)
    1  A    between atoms: O_12  and  C_17
    2  A    between atoms: O_12  and  C_23
    3  A    between atoms: C_18  and  C_25
                            x       y       z     vdW  Elec       q    Type
                         _______ _______ _______ _____ _____    ______ ____

>  <TORSDO>
F 3

$$$$
=
 OpenBabel11042421093D

 28 31  0  0  1  0  0  0  0  0999 V2000
  160.3170  206.9420  148.3910 C   0  0  0  0  0  2  0  0  0  0  0  0
  161.2090  204.0440  150.3310 C   0  0  0  0  0  3  0  0  0  0  0  0
  161.5520  206.3940  152.0230 C   0  0  0  0  0  2  0  0  0  0  0  0
  160.2050  205.9810  149.4180 O   0  0  0  0  0  0  0  0  0  0  0  0
  162.2830  206.2580  150.6830 C   0  0  1  0  0  3  0  0  0  0  0  0
  160.5520  206.2620  147.0420 C   0  0  0  0  0  2  0  0  0  0  0  0
  161.1940  205.0410  152.5590 C   0  0  0  0  0  0  0  0  0  0  0  0
  160.9890  204.8910  153.7920 O   0  0  0  0  0  0  0  0  0  0  0  0
  161.4720  205.3860  149.6950 C   0  0  1  0  0  0  0  0  0  0  0  0
  161.4330  205.0210  147.1950 C   0  0  2  0  0  3  0  0  0  0  0  0
  162.3220  205.1230  148.4330 C   0  0  0  0  0  2  0  0  0  0  0  0
  161.0510  203.8950  151.6490 C   0  0  0  0  0  3  0  0  0  0  0  0
  161.6270  204.7060  144.7330 O   0  0  0  0  0  0  0  0  0  0  0  0
  163.5060  204.6970  146.0430 O   0  0  0  0  0  1  0  0  0  0  0  0
  162.2530  204.7990  145.9680 C   0  0  0  0  0  0  0  0  0  0  0  0
  162.5550  207.5450  150.1390 O   0  0  0  0  0  0  0  0  0  0  0  0
  159.3600  214.4530  151.8650 N   0  0  0  0  0  1  0  0  0  0  0  0
  161.1240  212.2140  149.4870 C   0  0  0  0  0  3  0  0  0  0  0  0
  160.7040  211.0530  151.5660 C   0  0  0  0  0  0  0  0  0  0  0  0
  160.1030  212.1700  152.0570 N   0  0  0  0  0  0  0  0  0  0  0  0
  160.5040  213.3460  150.0160 C   0  0  0  0  0  3  0  0  0  0  0  0
  160.7930  209.9070  152.3530 C   0  0  0  0  0  3  0  0  0  0  0  0
  159.9950  213.3050  151.3150 C   0  0  0  0  0  0  0  0  0  0  0  0
  162.3450  209.9020  148.4470 O   0  0  0  0  0  1  0  0  0  0  0  0
  161.8520  209.8950  149.7490 C   0  0  0  0  0  0  0  0  0  0  0  0
  161.4100  208.7600  151.8520 C   0  0  0  0  0  3  0  0  0  0  0  0
  161.9500  208.7390  150.5600 C   0  0  0  0  0  0  0  0  0  0  0  0
  161.2340  211.0510  150.2570 C   0  0  0  0  0  0  0  0  0  0  0  0
  1  4  1  0  0  0  0
  2 12  2  0  0  0  0
  3  7  1  0  0  0  0
  4  9  1  0  0  0  0
  5 16  1  6  0  0  0
  5  3  1  0  0  0  0
  6 10  1  0  0  0  0
  6  1  1  0  0  0  0
  7  8  2  0  0  0  0
  9 11  1  6  0  0  0
  9  2  1  0  0  0  0
  9  5  1  0  0  0  0
 10 15  1  6  0  0  0
 10 11  1  0  0  0  0
 12  7  1  0  0  0  0
 13 15  2  0  0  0  0
 15 14  1  0  0  0  0
 16 27  1  0  0  0  0
 18 21  2  0  0  0  0
 18 28  1  0  0  0  0
 19 20  1  0  0  0  0
 19 22  1  0  0  0  0
 21 23  1  0  0  0  0
 23 17  1  0  0  0  0
 23 20  2  0  0  0  0
 24 25  1  0  0  0  0
 25 28  1  0  0  0  0
 25 27  2  0  0  0  0
 26 22  2  0  0  0  0
 27 26  1  0  0  0  0
 28 19  2  0  0  0  0
M  END
>  <MODEL>
8

>  <REMARK>
 VINA RESULT:      -5.0      4.734      8.298
  Name = 
  3 active torsions:
  status: ('A' for Active; 'I' for Inactive)
    1  A    between atoms: O_12  and  C_17
    2  A    between atoms: O_12  and  C_23
    3  A    between atoms: C_18  and  C_25
                            x       y       z     vdW  Elec       q    Type
                         _______ _______ _______ _____ _____    ______ ____

>  <TORSDO>
F 3

$$$$
=
 OpenBabel11042421093D

 28 31  0  0  1  0  0  0  0  0999 V2000
  160.1700  208.6380  152.9710 C   0  0  0  0  0  2  0  0  0  0  0  0
  161.2060  211.7080  151.4030 C   0  0  0  0  0  3  0  0  0  0  0  0
  161.9140  209.5090  149.6230 C   0  0  0  0  0  2  0  0  0  0  0  0
  160.1700  209.6700  152.0110 O   0  0  0  0  0  0  0  0  0  0  0  0
  162.4260  209.5680  151.0660 C   0  0  1  0  0  3  0  0  0  0  0  0
  160.1640  209.2200  154.3860 C   0  0  0  0  0  2  0  0  0  0  0  0
  161.5780  210.8850  149.1350 C   0  0  0  0  0  0  0  0  0  0  0  0
  161.5560  211.1230  147.8990 O   0  0  0  0  0  0  0  0  0  0  0  0
  161.4340  210.3310  151.9760 C   0  0  1  0  0  0  0  0  0  0  0  0
  160.9980  210.5000  154.4590 C   0  0  2  0  0  3  0  0  0  0  0  0
  162.0680  210.5260  153.3700 C   0  0  0  0  0  2  0  0  0  0  0  0
  161.2440  211.9520  150.0900 C   0  0  0  0  0  3  0  0  0  0  0  0
  162.9920  210.7030  155.9360 O   0  0  0  0  0  0  0  0  0  0  0  0
  160.8860  210.7490  156.8370 O   0  0  0  0  0  1  0  0  0  0  0  0
  161.6100  210.6570  155.8110 C   0  0  0  0  0  0  0  0  0  0  0  0
  162.6740  208.2530  151.5540 O   0  0  0  0  0  0  0  0  0  0  0  0
  160.1390  201.3920  148.8330 N   0  0  0  0  0  1  0  0  0  0  0  0
  161.2890  203.5260  151.6440 C   0  0  0  0  0  3  0  0  0  0  0  0
  161.2780  204.7960  149.5870 C   0  0  0  0  0  0  0  0  0  0  0  0
  160.8310  203.6970  148.9220 N   0  0  0  0  0  0  0  0  0  0  0  0
  160.8310  202.4130  150.9370 C   0  0  0  0  0  3  0  0  0  0  0  0
  161.4940  205.9880  148.8960 C   0  0  0  0  0  3  0  0  0  0  0  0
  160.6060  202.5190  149.5630 C   0  0  0  0  0  0  0  0  0  0  0  0
  162.1880  205.7990  153.0380 O   0  0  0  0  0  1  0  0  0  0  0  0
  161.9800  205.8710  151.6630 C   0  0  0  0  0  0  0  0  0  0  0  0
  161.9550  207.1160  149.5760 C   0  0  0  0  0  3  0  0  0  0  0  0
  162.2100  207.0740  150.9520 C   0  0  0  0  0  0  0  0  0  0  0  0
  161.5210  204.7340  150.9760 C   0  0  0  0  0  0  0  0  0  0  0  0
  1  6  1  0  0  0  0
  3  5  1  0  0  0  0
  4  1  1  0  0  0  0
  5 16  1  1  0  0  0
  5  9  1  0  0  0  0
  6 10  1  0  0  0  0
  7  3  1  0  0  0  0
  7 12  1  0  0  0  0
  8  7  2  0  0  0  0
  9  2  1  6  0  0  0
  9  4  1  0  0  0  0
  9 11  1  0  0  0  0
 10 15  1  1  0  0  0
 11 10  1  0  0  0  0
 12  2  2  0  0  0  0
 15 13  2  0  0  0  0
 15 14  1  0  0  0  0
 17 23  1  0  0  0  0
 19 28  1  0  0  0  0
 20 23  2  0  0  0  0
 20 19  1  0  0  0  0
 21 18  2  0  0  0  0
 22 26  1  0  0  0  0
 22 19  2  0  0  0  0
 23 21  1  0  0  0  0
 25 24  1  0  0  0  0
 26 27  2  0  0  0  0
 27 16  1  0  0  0  0
 27 25  1  0  0  0  0
 28 18  1  0  0  0  0
 28 25  2  0  0  0  0
M  END
>  <MODEL>
9

>  <REMARK>
 VINA RESULT:      -4.9      2.564      4.671
  Name = 
  3 active torsions:
  status: ('A' for Active; 'I' for Inactive)
    1  A    between atoms: O_12  and  C_17
    2  A    between atoms: O_12  and  C_23
    3  A    between atoms: C_18  and  C_25
                            x       y       z     vdW  Elec       q    Type
                         _______ _______ _______ _____ _____    ______ ____

>  <TORSDO>
F 3

$$$$
