=
 OpenBabel11042421033D

 28 32  0  0  1  0  0  0  0  0999 V2000
  161.3250  207.5240  149.3730 C   0  0  2  0  0  3  0  0  0  0  0  0
  160.9670  204.5430  151.8400 C   0  0  0  0  0  1  0  0  0  0  0  0
  160.8570  205.3710  148.1540 C   0  0  0  0  0  0  0  0  0  0  0  0
  160.7070  206.3300  144.7800 O   0  0  0  0  0  0  0  0  0  0  0  0
  161.0370  205.3570  150.5830 C   0  0  0  0  0  0  0  0  0  0  0  0
  160.7650  206.2030  146.0310 C   0  0  0  0  0  0  0  0  0  0  0  0
  161.1150  206.7170  150.6400 C   0  0  0  0  0  0  0  0  0  0  0  0
  160.9820  204.6370  149.2690 C   0  0  0  0  0  0  0  0  0  0  0  0
  160.8310  207.3130  146.9160 N   0  0  0  0  0  2  0  0  0  0  0  0
  160.8570  206.7880  148.2070 N   0  0  0  0  0  0  0  0  0  0  0  0
  160.7880  204.8850  146.7380 C   0  0  0  0  0  2  0  0  0  0  0  0
  162.7380  207.8290  149.2180 N   0  0  0  0  0  1  0  0  0  0  0  0
  161.0380  207.8920  155.4330 C   0  0  0  0  0  3  0  0  0  0  0  0
  160.2780  211.4370  156.0580 F   0  0  0  0  0  0  0  0  0  0  0  0
  160.4850  210.2730  153.9830 C   0  0  0  0  0  3  0  0  0  0  0  0
  161.0650  207.4380  151.8910 N   0  0  0  0  0  0  0  0  0  0  0  0
  161.1960  206.9030  153.1330 C   0  0  0  0  0  3  0  0  0  0  0  0
  160.7900  209.1000  156.1090 C   0  0  0  0  0  3  0  0  0  0  0  0
  160.5150  210.2840  155.3900 C   0  0  0  0  0  0  0  0  0  0  0  0
  161.0050  207.9170  154.0410 C   0  0  0  0  0  0  0  0  0  0  0  0
  160.7390  209.0630  153.3440 C   0  0  0  0  0  0  0  0  0  0  0  0
  160.7660  208.7580  152.0030 C   0  0  0  0  0  3  0  0  0  0  0  0
  160.9500  200.9860  150.2910 C   0  0  0  0  0  3  0  0  0  0  0  0
  160.8920  202.3800  150.3610 C   0  0  0  0  0  3  0  0  0  0  0  0
  161.1580  200.3560  149.0610 C   0  0  0  0  0  3  0  0  0  0  0  0
  161.3100  201.1220  147.9010 C   0  0  0  0  0  3  0  0  0  0  0  0
  161.0420  203.1570  149.2010 C   0  0  0  0  0  0  0  0  0  0  0  0
  161.2510  202.5160  147.9710 C   0  0  0  0  0  3  0  0  0  0  0  0
  1 12  1  6  0  0  0
  1  7  1  0  0  0  0
  3 10  1  0  0  0  0
  3  8  2  0  0  0  0
  4  6  2  0  0  0  0
  5  7  2  0  0  0  0
  5  2  1  0  0  0  0
  6 11  1  0  0  0  0
  6  9  1  0  0  0  0
  7 16  1  0  0  0  0
  8  5  1  0  0  0  0
  9 10  1  0  0  0  0
 10  1  1  0  0  0  0
 11  3  1  0  0  0  0
 13 18  2  0  0  0  0
 15 19  2  0  0  0  0
 16 22  1  0  0  0  0
 16 17  1  0  0  0  0
 17 20  2  0  0  0  0
 19 14  1  0  0  0  0
 19 18  1  0  0  0  0
 20 13  1  0  0  0  0
 21 15  1  0  0  0  0
 21 20  1  0  0  0  0
 22 21  2  0  0  0  0
 23 24  1  0  0  0  0
 25 23  2  0  0  0  0
 26 28  2  0  0  0  0
 26 25  1  0  0  0  0
 27  8  1  0  0  0  0
 27 24  2  0  0  0  0
 28 27  1  0  0  0  0
M  END
>  <MODEL>
1

>  <REMARK>
 VINA RESULT:     -10.4      0.000      0.000
  Name = 
  2 active torsions:
  status: ('A' for Active; 'I' for Inactive)
    1  A    between atoms: N_8  and  C_16
    2  A    between atoms: C_18  and  C_25
                            x       y       z     vdW  Elec       q    Type
                         _______ _______ _______ _____ _____    ______ ____

>  <TORSDO>
F 2

$$$$
=
 OpenBabel11042421033D

 28 32  0  0  1  0  0  0  0  0999 V2000
  161.2990  207.5590  149.2040 C   0  0  2  0  0  3  0  0  0  0  0  0
  160.8840  204.6700  151.7700 C   0  0  0  0  0  1  0  0  0  0  0  0
  160.8640  205.3620  148.0550 C   0  0  0  0  0  0  0  0  0  0  0  0
  160.7950  206.1970  144.6450 O   0  0  0  0  0  0  0  0  0  0  0  0
  160.9840  205.4370  150.4860 C   0  0  0  0  0  0  0  0  0  0  0  0
  160.8230  206.1150  145.9000 C   0  0  0  0  0  0  0  0  0  0  0  0
  161.0590  206.7990  150.4950 C   0  0  0  0  0  0  0  0  0  0  0  0
  160.9620  204.6700  149.1980 C   0  0  0  0  0  0  0  0  0  0  0  0
  160.8660  207.2580  146.7460 N   0  0  0  0  0  2  0  0  0  0  0  0
  160.8610  206.7800  148.0550 N   0  0  0  0  0  0  0  0  0  0  0  0
  160.8300  204.8250  146.6560 C   0  0  0  0  0  2  0  0  0  0  0  0
  162.7150  207.8620  149.0730 N   0  0  0  0  0  1  0  0  0  0  0  0
  160.7930  210.4800  153.7720 C   0  0  0  0  0  3  0  0  0  0  0  0
  161.1490  209.3620  157.2600 F   0  0  0  0  0  0  0  0  0  0  0  0
  161.1600  208.0770  155.2460 C   0  0  0  0  0  3  0  0  0  0  0  0
  160.9770  207.5650  151.7170 N   0  0  0  0  0  0  0  0  0  0  0  0
  160.8440  208.9130  151.8130 C   0  0  0  0  0  3  0  0  0  0  0  0
  160.8810  210.5080  155.1760 C   0  0  0  0  0  3  0  0  0  0  0  0
  161.0640  209.3150  155.9100 C   0  0  0  0  0  0  0  0  0  0  0  0
  160.8870  209.2390  153.1480 C   0  0  0  0  0  0  0  0  0  0  0  0
  161.0640  208.0830  153.8570 C   0  0  0  0  0  0  0  0  0  0  0  0
  161.1300  207.0430  152.9600 C   0  0  0  0  0  3  0  0  0  0  0  0
  160.9470  201.0600  150.3580 C   0  0  0  0  0  3  0  0  0  0  0  0
  160.8860  202.4560  150.3760 C   0  0  0  0  0  3  0  0  0  0  0  0
  161.1490  200.3850  149.1520 C   0  0  0  0  0  3  0  0  0  0  0  0
  161.2910  201.1060  147.9630 C   0  0  0  0  0  3  0  0  0  0  0  0
  161.0260  203.1890  149.1860 C   0  0  0  0  0  0  0  0  0  0  0  0
  161.2290  202.5020  147.9800 C   0  0  0  0  0  3  0  0  0  0  0  0
  1 12  1  6  0  0  0
  1  7  1  0  0  0  0
  3 10  1  0  0  0  0
  3  8  2  0  0  0  0
  4  6  2  0  0  0  0
  5  7  2  0  0  0  0
  5  2  1  0  0  0  0
  6 11  1  0  0  0  0
  6  9  1  0  0  0  0
  7 16  1  0  0  0  0
  8  5  1  0  0  0  0
  9 10  1  0  0  0  0
 10  1  1  0  0  0  0
 11  3  1  0  0  0  0
 13 18  2  0  0  0  0
 15 19  2  0  0  0  0
 16 17  1  0  0  0  0
 16 22  1  0  0  0  0
 17 20  2  0  0  0  0
 18 19  1  0  0  0  0
 19 14  1  0  0  0  0
 20 13  1  0  0  0  0
 20 21  1  0  0  0  0
 21 15  1  0  0  0  0
 22 21  2  0  0  0  0
 23 24  1  0  0  0  0
 25 23  2  0  0  0  0
 26 28  2  0  0  0  0
 26 25  1  0  0  0  0
 27  8  1  0  0  0  0
 27 24  2  0  0  0  0
 28 27  1  0  0  0  0
M  END
>  <MODEL>
2

>  <REMARK>
 VINA RESULT:     -10.3      0.528      1.216
  Name = 
  2 active torsions:
  status: ('A' for Active; 'I' for Inactive)
    1  A    between atoms: N_8  and  C_16
    2  A    between atoms: C_18  and  C_25
                            x       y       z     vdW  Elec       q    Type
                         _______ _______ _______ _____ _____    ______ ____

>  <TORSDO>
F 2

$$$$
=
 OpenBabel11042421033D

 28 32  0  0  1  0  0  0  0  0999 V2000
  160.7620  204.2510  151.3120 C   0  0  2  0  0  3  0  0  0  0  0  0
  161.4950  207.4230  149.1890 C   0  0  0  0  0  1  0  0  0  0  0  0
  161.3030  203.6580  148.9260 C   0  0  0  0  0  0  0  0  0  0  0  0
  161.1620  200.1500  148.8790 O   0  0  0  0  0  0  0  0  0  0  0  0
  161.2840  205.9980  149.6020 C   0  0  0  0  0  0  0  0  0  0  0  0
  161.1950  201.3860  149.1140 C   0  0  0  0  0  0  0  0  0  0  0  0
  161.1120  205.6740  150.9160 C   0  0  0  0  0  0  0  0  0  0  0  0
  161.3050  204.9420  148.5390 C   0  0  0  0  0  0  0  0  0  0  0  0
  161.1070  201.9230  150.4280 N   0  0  0  0  0  2  0  0  0  0  0  0
  161.2040  203.3070  150.2960 N   0  0  0  0  0  0  0  0  0  0  0  0
  161.3140  202.4370  148.0570 C   0  0  0  0  0  2  0  0  0  0  0  0
  159.3230  204.1350  151.4880 N   0  0  0  0  0  1  0  0  0  0  0  0
  161.2980  207.9110  155.3110 C   0  0  0  0  0  3  0  0  0  0  0  0
  161.0900  211.5780  155.0960 F   0  0  0  0  0  0  0  0  0  0  0  0
  161.0830  209.9520  153.3460 C   0  0  0  0  0  3  0  0  0  0  0  0
  161.1920  206.6600  151.9680 N   0  0  0  0  0  0  0  0  0  0  0  0
  161.2650  206.4100  153.3010 C   0  0  0  0  0  3  0  0  0  0  0  0
  161.2470  209.2650  155.6890 C   0  0  0  0  0  3  0  0  0  0  0  0
  161.1400  210.2800  154.7140 C   0  0  0  0  0  0  0  0  0  0  0  0
  161.2440  207.6210  153.9510 C   0  0  0  0  0  0  0  0  0  0  0  0
  161.1400  208.6040  153.0050 C   0  0  0  0  0  0  0  0  0  0  0  0
  161.0980  208.0000  151.7700 C   0  0  0  0  0  3  0  0  0  0  0  0
  160.2580  206.1560  145.1030 C   0  0  0  0  0  3  0  0  0  0  0  0
  160.2120  205.8190  146.4580 C   0  0  0  0  0  3  0  0  0  0  0  0
  161.4390  205.9760  144.3780 C   0  0  0  0  0  3  0  0  0  0  0  0
  162.5740  205.4580  145.0090 C   0  0  0  0  0  3  0  0  0  0  0  0
  161.3470  205.3010  147.1010 C   0  0  0  0  0  0  0  0  0  0  0  0
  162.5280  205.1230  146.3650 C   0  0  0  0  0  3  0  0  0  0  0  0
  1 12  1  6  0  0  0
  2  5  1  0  0  0  0
  3 10  1  0  0  0  0
  4  6  2  0  0  0  0
  5  7  2  0  0  0  0
  6  9  1  0  0  0  0
  7  1  1  0  0  0  0
  7 16  1  0  0  0  0
  8  3  2  0  0  0  0
  8  5  1  0  0  0  0
 10  9  1  0  0  0  0
 10  1  1  0  0  0  0
 11  3  1  0  0  0  0
 11  6  1  0  0  0  0
 13 18  2  0  0  0  0
 15 19  2  0  0  0  0
 16 17  1  0  0  0  0
 17 20  2  0  0  0  0
 19 14  1  0  0  0  0
 19 18  1  0  0  0  0
 20 13  1  0  0  0  0
 21 15  1  0  0  0  0
 21 20  1  0  0  0  0
 22 16  1  0  0  0  0
 22 21  2  0  0  0  0
 23 24  1  0  0  0  0
 24 27  2  0  0  0  0
 25 26  1  0  0  0  0
 25 23  2  0  0  0  0
 26 28  2  0  0  0  0
 27  8  1  0  0  0  0
 28 27  1  0  0  0  0
M  END
>  <MODEL>
3

>  <REMARK>
 VINA RESULT:     -10.3      2.224      3.837
  Name = 
  2 active torsions:
  status: ('A' for Active; 'I' for Inactive)
    1  A    between atoms: N_8  and  C_16
    2  A    between atoms: C_18  and  C_25
                            x       y       z     vdW  Elec       q    Type
                         _______ _______ _______ _____ _____    ______ ____

>  <TORSDO>
F 2

$$$$
=
 OpenBabel11042421033D

 28 32  0  0  1  0  0  0  0  0999 V2000
  161.3340  206.5100  152.3060 C   0  0  2  0  0  3  0  0  0  0  0  0
  161.2800  207.6880  148.6030 C   0  0  0  0  0  1  0  0  0  0  0  0
  161.1150  209.0120  152.1390 C   0  0  0  0  0  0  0  0  0  0  0  0
  160.8920  210.0610  155.4820 O   0  0  0  0  0  0  0  0  0  0  0  0
  161.2720  207.6860  150.1020 C   0  0  0  0  0  0  0  0  0  0  0  0
  160.9520  209.4820  154.3670 C   0  0  0  0  0  0  0  0  0  0  0  0
  161.2010  206.5130  150.7950 C   0  0  0  0  0  0  0  0  0  0  0  0
  161.3090  209.0060  150.8130 C   0  0  0  0  0  0  0  0  0  0  0  0
  160.8880  208.0690  154.2280 N   0  0  0  0  0  2  0  0  0  0  0  0
  160.9600  207.8020  152.8620 N   0  0  0  0  0  0  0  0  0  0  0  0
  161.1120  210.1940  153.0610 C   0  0  0  0  0  2  0  0  0  0  0  0
  162.7060  206.2030  152.6740 N   0  0  0  0  0  1  0  0  0  0  0  0
  160.6520  201.7020  149.8460 C   0  0  0  0  0  3  0  0  0  0  0  0
  161.0970  200.8500  146.2940 F   0  0  0  0  0  0  0  0  0  0  0  0
  161.2060  202.9810  147.3690 C   0  0  0  0  0  3  0  0  0  0  0  0
  161.0610  205.2380  150.1330 N   0  0  0  0  0  0  0  0  0  0  0  0
  160.8240  204.0420  150.7320 C   0  0  0  0  0  3  0  0  0  0  0  0
  160.7390  200.9530  148.6580 C   0  0  0  0  0  3  0  0  0  0  0  0
  161.0150  201.5870  147.4270 C   0  0  0  0  0  0  0  0  0  0  0  0
  160.8420  203.0780  149.7530 C   0  0  0  0  0  0  0  0  0  0  0  0
  161.1090  203.6930  148.5610 C   0  0  0  0  0  0  0  0  0  0  0  0
  161.2550  205.0390  148.8040 C   0  0  0  0  0  3  0  0  0  0  0  0
  161.0980  212.6440  149.7640 C   0  0  0  0  0  3  0  0  0  0  0  0
  160.8850  211.4540  150.4660 C   0  0  0  0  0  3  0  0  0  0  0  0
  161.9560  212.6600  148.6610 C   0  0  0  0  0  3  0  0  0  0  0  0
  162.6010  211.4870  148.2610 C   0  0  0  0  0  3  0  0  0  0  0  0
  161.5300  210.2710  150.0720 C   0  0  0  0  0  0  0  0  0  0  0  0
  162.3890  210.2970  148.9640 C   0  0  0  0  0  3  0  0  0  0  0  0
  1 12  1  6  0  0  0
  1 10  1  0  0  0  0
  2  5  1  0  0  0  0
  3 10  1  0  0  0  0
  3 11  1  0  0  0  0
  5  7  2  0  0  0  0
  5  8  1  0  0  0  0
  6  4  2  0  0  0  0
  7  1  1  0  0  0  0
  8  3  2  0  0  0  0
  9  6  1  0  0  0  0
 10  9  1  0  0  0  0
 11  6  1  0  0  0  0
 14 19  1  0  0  0  0
 15 19  2  0  0  0  0
 15 21  1  0  0  0  0
 16 17  1  0  0  0  0
 16  7  1  0  0  0  0
 18 13  2  0  0  0  0
 19 18  1  0  0  0  0
 20 13  1  0  0  0  0
 20 17  2  0  0  0  0
 21 22  2  0  0  0  0
 21 20  1  0  0  0  0
 22 16  1  0  0  0  0
 23 24  1  0  0  0  0
 25 23  2  0  0  0  0
 26 25  1  0  0  0  0
 26 28  2  0  0  0  0
 27 24  2  0  0  0  0
 27  8  1  0  0  0  0
 28 27  1  0  0  0  0
M  END
>  <MODEL>
4

>  <REMARK>
 VINA RESULT:      -9.3      4.043      8.075
  Name = 
  2 active torsions:
  status: ('A' for Active; 'I' for Inactive)
    1  A    between atoms: N_8  and  C_16
    2  A    between atoms: C_18  and  C_25
                            x       y       z     vdW  Elec       q    Type
                         _______ _______ _______ _____ _____    ______ ____

>  <TORSDO>
F 2

$$$$
=
 OpenBabel11042421033D

 28 32  0  0  1  0  0  0  0  0999 V2000
  161.3920  206.9520  148.5770 C   0  0  2  0  0  3  0  0  0  0  0  0
  160.8470  205.0870  151.9430 C   0  0  0  0  0  1  0  0  0  0  0  0
  161.7200  208.4880  150.5450 C   0  0  0  0  0  0  0  0  0  0  0  0
  162.5980  211.5550  149.0800 O   0  0  0  0  0  0  0  0  0  0  0  0
  161.1240  206.1580  150.9320 C   0  0  0  0  0  0  0  0  0  0  0  0
  162.3060  210.3750  149.4020 C   0  0  0  0  0  0  0  0  0  0  0  0
  161.2510  205.8490  149.6090 C   0  0  0  0  0  0  0  0  0  0  0  0
  161.2910  207.5660  151.4190 C   0  0  0  0  0  0  0  0  0  0  0  0
  162.2630  209.3080  148.4620 N   0  0  0  0  0  2  0  0  0  0  0  0
  161.9330  208.1610  149.1820 N   0  0  0  0  0  0  0  0  0  0  0  0
  161.9550  209.9470  150.7910 C   0  0  0  0  0  2  0  0  0  0  0  0
  160.0930  207.2420  147.9930 N   0  0  0  0  0  1  0  0  0  0  0  0
  161.3120  200.9230  149.3140 C   0  0  0  0  0  3  0  0  0  0  0  0
  161.2370  199.6630  145.8580 F   0  0  0  0  0  0  0  0  0  0  0  0
  161.1980  201.9150  146.6530 C   0  0  0  0  0  3  0  0  0  0  0  0
  161.1980  204.4880  149.1300 N   0  0  0  0  0  0  0  0  0  0  0  0
  161.2660  203.3640  149.8900 C   0  0  0  0  0  3  0  0  0  0  0  0
  161.3010  200.0380  148.2210 C   0  0  0  0  0  3  0  0  0  0  0  0
  161.2440  200.5300  146.8980 C   0  0  0  0  0  0  0  0  0  0  0  0
  161.2610  202.2860  149.0380 C   0  0  0  0  0  0  0  0  0  0  0  0
  161.2060  202.7640  147.7570 C   0  0  0  0  0  0  0  0  0  0  0  0
  161.1780  204.1370  147.8190 C   0  0  0  0  0  3  0  0  0  0  0  0
  160.9930  207.3610  155.1930 C   0  0  0  0  0  3  0  0  0  0  0  0
  161.2580  207.0140  153.8650 C   0  0  0  0  0  3  0  0  0  0  0  0
  160.4800  208.6250  155.4960 C   0  0  0  0  0  3  0  0  0  0  0  0
  160.2310  209.5420  154.4700 C   0  0  0  0  0  3  0  0  0  0  0  0
  161.0130  207.9290  152.8290 C   0  0  0  0  0  0  0  0  0  0  0  0
  160.4970  209.1950  153.1420 C   0  0  0  0  0  3  0  0  0  0  0  0
  1 12  1  1  0  0  0
  1 10  1  0  0  0  0
  1  7  1  0  0  0  0
  3 11  1  0  0  0  0
  3  8  2  0  0  0  0
  4  6  2  0  0  0  0
  5  8  1  0  0  0  0
  5  2  1  0  0  0  0
  6 11  1  0  0  0  0
  7  5  2  0  0  0  0
  8 27  1  0  0  0  0
  9 10  1  0  0  0  0
  9  6  1  0  0  0  0
 10  3  1  0  0  0  0
 14 19  1  0  0  0  0
 15 19  2  0  0  0  0
 15 21  1  0  0  0  0
 16  7  1  0  0  0  0
 16 17  1  0  0  0  0
 18 13  2  0  0  0  0
 19 18  1  0  0  0  0
 20 13  1  0  0  0  0
 20 17  2  0  0  0  0
 21 22  2  0  0  0  0
 21 20  1  0  0  0  0
 22 16  1  0  0  0  0
 23 25  1  0  0  0  0
 24 23  2  0  0  0  0
 26 25  2  0  0  0  0
 27 28  2  0  0  0  0
 27 24  1  0  0  0  0
 28 26  1  0  0  0  0
M  END
>  <MODEL>
5

>  <REMARK>
 VINA RESULT:      -9.3      3.462      7.519
  Name = 
  2 active torsions:
  status: ('A' for Active; 'I' for Inactive)
    1  A    between atoms: N_8  and  C_16
    2  A    between atoms: C_18  and  C_25
                            x       y       z     vdW  Elec       q    Type
                         _______ _______ _______ _____ _____    ______ ____

>  <TORSDO>
F 2

$$$$
=
 OpenBabel11042421033D

 28 32  0  0  1  0  0  0  0  0999 V2000
  161.4400  205.7960  152.9240 C   0  0  2  0  0  3  0  0  0  0  0  0
  160.9120  207.5240  149.4830 C   0  0  0  0  0  1  0  0  0  0  0  0
  161.0140  208.2630  153.1880 C   0  0  0  0  0  0  0  0  0  0  0  0
  161.0610  208.7570  156.6640 O   0  0  0  0  0  0  0  0  0  0  0  0
  161.0600  207.2890  150.9560 C   0  0  0  0  0  0  0  0  0  0  0  0
  161.0480  208.3660  155.4680 C   0  0  0  0  0  0  0  0  0  0  0  0
  161.1510  206.0210  151.4520 C   0  0  0  0  0  0  0  0  0  0  0  0
  161.0690  208.4800  151.8660 C   0  0  0  0  0  0  0  0  0  0  0  0
  161.0790  206.9910  155.1070 N   0  0  0  0  0  2  0  0  0  0  0  0
  161.0280  206.9470  153.7150 N   0  0  0  0  0  0  0  0  0  0  0  0
  161.0170  209.2820  154.2860 C   0  0  0  0  0  2  0  0  0  0  0  0
  162.8630  205.5630  153.1110 N   0  0  0  0  0  1  0  0  0  0  0  0
  160.7470  201.3910  149.7920 C   0  0  0  0  0  3  0  0  0  0  0  0
  161.1470  201.1040  146.1460 F   0  0  0  0  0  0  0  0  0  0  0  0
  161.2060  203.0490  147.5300 C   0  0  0  0  0  3  0  0  0  0  0  0
  161.0410  204.8560  150.6060 N   0  0  0  0  0  0  0  0  0  0  0  0
  160.8570  203.5760  151.0210 C   0  0  0  0  0  3  0  0  0  0  0  0
  160.8350  200.8350  148.5030 C   0  0  0  0  0  3  0  0  0  0  0  0
  161.0630  201.6570  147.3780 C   0  0  0  0  0  0  0  0  0  0  0  0
  160.8880  202.7710  149.9070 C   0  0  0  0  0  0  0  0  0  0  0  0
  161.1090  203.5690  148.8180 C   0  0  0  0  0  0  0  0  0  0  0  0
  161.2140  204.8670  149.2590 C   0  0  0  0  0  3  0  0  0  0  0  0
  161.9960  211.4800  149.7410 C   0  0  0  0  0  3  0  0  0  0  0  0
  161.9570  210.1780  150.2470 C   0  0  0  0  0  3  0  0  0  0  0  0
  161.1950  212.4750  150.3090 C   0  0  0  0  0  3  0  0  0  0  0  0
  160.3560  212.1670  151.3830 C   0  0  0  0  0  3  0  0  0  0  0  0
  161.1150  209.8600  151.3250 C   0  0  0  0  0  0  0  0  0  0  0  0
  160.3160  210.8650  151.8890 C   0  0  0  0  0  3  0  0  0  0  0  0
  1 12  1  6  0  0  0
  1 10  1  0  0  0  0
  2  5  1  0  0  0  0
  3 10  1  0  0  0  0
  3 11  1  0  0  0  0
  5  7  2  0  0  0  0
  5  8  1  0  0  0  0
  6  4  2  0  0  0  0
  7  1  1  0  0  0  0
  8  3  2  0  0  0  0
  9  6  1  0  0  0  0
 10  9  1  0  0  0  0
 11  6  1  0  0  0  0
 13 20  1  0  0  0  0
 14 19  1  0  0  0  0
 15 21  1  0  0  0  0
 16 17  1  0  0  0  0
 16  7  1  0  0  0  0
 18 13  2  0  0  0  0
 19 15  2  0  0  0  0
 19 18  1  0  0  0  0
 20 17  2  0  0  0  0
 21 22  2  0  0  0  0
 21 20  1  0  0  0  0
 22 16  1  0  0  0  0
 23 24  2  0  0  0  0
 23 25  1  0  0  0  0
 24 27  1  0  0  0  0
 25 26  2  0  0  0  0
 26 28  1  0  0  0  0
 27  8  1  0  0  0  0
 27 28  2  0  0  0  0
M  END
>  <MODEL>
6

>  <REMARK>
 VINA RESULT:      -9.0      3.999      8.234
  Name = 
  2 active torsions:
  status: ('A' for Active; 'I' for Inactive)
    1  A    between atoms: N_8  and  C_16
    2  A    between atoms: C_18  and  C_25
                            x       y       z     vdW  Elec       q    Type
                         _______ _______ _______ _____ _____    ______ ____

>  <TORSDO>
F 2

$$$$
=
 OpenBabel11042421033D

 28 32  0  0  1  0  0  0  0  0999 V2000
  161.6230  207.7390  148.7720 C   0  0  2  0  0  3  0  0  0  0  0  0
  160.7260  206.8610  152.4490 C   0  0  0  0  0  1  0  0  0  0  0  0
  161.8970  209.7310  150.2880 C   0  0  0  0  0  0  0  0  0  0  0  0
  163.0590  212.2610  148.1490 O   0  0  0  0  0  0  0  0  0  0  0  0
  161.1380  207.6120  151.2200 C   0  0  0  0  0  0  0  0  0  0  0  0
  162.6750  211.2210  148.7430 C   0  0  0  0  0  0  0  0  0  0  0  0
  161.3430  206.9570  150.0410 C   0  0  0  0  0  0  0  0  0  0  0  0
  161.3520  209.0920  151.3330 C   0  0  0  0  0  0  0  0  0  0  0  0
  162.6380  209.9450  148.1170 N   0  0  0  0  0  2  0  0  0  0  0  0
  162.1890  209.0440  149.0820 N   0  0  0  0  0  0  0  0  0  0  0  0
  162.2000  211.1930  150.1610 C   0  0  0  0  0  2  0  0  0  0  0  0
  160.3890  207.9110  148.0230 N   0  0  0  0  0  1  0  0  0  0  0  0
  161.1830  202.1300  151.0520 C   0  0  0  0  0  3  0  0  0  0  0  0
  161.1840  200.0050  148.0480 F   0  0  0  0  0  0  0  0  0  0  0  0
  161.2200  202.3870  148.2220 C   0  0  0  0  0  3  0  0  0  0  0  0
  161.2440  205.5210  149.9340 N   0  0  0  0  0  0  0  0  0  0  0  0
  161.2300  204.6370  150.9650 C   0  0  0  0  0  3  0  0  0  0  0  0
  161.1730  200.9880  150.2300 C   0  0  0  0  0  3  0  0  0  0  0  0
  161.1920  201.1140  148.8240 C   0  0  0  0  0  0  0  0  0  0  0  0
  161.2070  203.3720  150.4250 C   0  0  0  0  0  0  0  0  0  0  0  0
  161.2250  203.4960  149.0630 C   0  0  0  0  0  0  0  0  0  0  0  0
  161.2590  204.8370  148.7610 C   0  0  0  0  0  3  0  0  0  0  0  0
  159.3760  211.0610  153.9000 C   0  0  0  0  0  3  0  0  0  0  0  0
  159.7080  210.3690  152.7330 C   0  0  0  0  0  3  0  0  0  0  0  0
  160.3260  211.2200  154.9130 C   0  0  0  0  0  3  0  0  0  0  0  0
  161.6080  210.6870  154.7570 C   0  0  0  0  0  3  0  0  0  0  0  0
  160.9930  209.8280  152.5690 C   0  0  0  0  0  0  0  0  0  0  0  0
  161.9400  209.9930  153.5900 C   0  0  0  0  0  3  0  0  0  0  0  0
  1 12  1  1  0  0  0
  1 10  1  0  0  0  0
  1  7  1  0  0  0  0
  3  8  2  0  0  0  0
  4  6  2  0  0  0  0
  5  8  1  0  0  0  0
  5  2  1  0  0  0  0
  6 11  1  0  0  0  0
  7  5  2  0  0  0  0
  8 27  1  0  0  0  0
  9  6  1  0  0  0  0
  9 10  1  0  0  0  0
 10  3  1  0  0  0  0
 11  3  1  0  0  0  0
 14 19  1  0  0  0  0
 15 19  2  0  0  0  0
 15 21  1  0  0  0  0
 16  7  1  0  0  0  0
 16 17  1  0  0  0  0
 18 13  2  0  0  0  0
 19 18  1  0  0  0  0
 20 17  2  0  0  0  0
 20 13  1  0  0  0  0
 21 20  1  0  0  0  0
 22 21  2  0  0  0  0
 22 16  1  0  0  0  0
 23 25  1  0  0  0  0
 24 23  2  0  0  0  0
 26 25  2  0  0  0  0
 27 24  1  0  0  0  0
 27 28  2  0  0  0  0
 28 26  1  0  0  0  0
M  END
>  <MODEL>
7

>  <REMARK>
 VINA RESULT:      -8.9      3.337      7.443
  Name = 
  2 active torsions:
  status: ('A' for Active; 'I' for Inactive)
    1  A    between atoms: N_8  and  C_16
    2  A    between atoms: C_18  and  C_25
                            x       y       z     vdW  Elec       q    Type
                         _______ _______ _______ _____ _____    ______ ____

>  <TORSDO>
F 2

$$$$
=
 OpenBabel11042421033D

 28 32  0  0  1  0  0  0  0  0999 V2000
  161.5020  206.9190  151.5170 C   0  0  2  0  0  3  0  0  0  0  0  0
  161.8060  208.2730  147.8870 C   0  0  0  0  0  1  0  0  0  0  0  0
  161.2520  209.4230  151.4440 C   0  0  0  0  0  0  0  0  0  0  0  0
  160.6660  210.3070  154.7910 O   0  0  0  0  0  0  0  0  0  0  0  0
  161.6440  208.1990  149.3750 C   0  0  0  0  0  0  0  0  0  0  0  0
  160.8520  209.7830  153.6620 C   0  0  0  0  0  0  0  0  0  0  0  0
  161.5260  206.9930  150.0020 C   0  0  0  0  0  0  0  0  0  0  0  0
  161.5810  209.4830  150.1460 C   0  0  0  0  0  0  0  0  0  0  0  0
  160.8310  208.3770  153.4530 N   0  0  0  0  0  2  0  0  0  0  0  0
  161.0480  208.1770  152.0900 N   0  0  0  0  0  0  0  0  0  0  0  0
  161.1310  210.5580  152.4140 C   0  0  0  0  0  2  0  0  0  0  0  0
  162.8360  206.6150  152.0110 N   0  0  0  0  0  1  0  0  0  0  0  0
  161.4360  203.6050  146.4150 C   0  0  0  0  0  3  0  0  0  0  0  0
  160.7380  200.2030  147.6320 F   0  0  0  0  0  0  0  0  0  0  0  0
  160.9390  202.2430  148.8590 C   0  0  0  0  0  3  0  0  0  0  0  0
  161.4800  205.7490  149.2710 N   0  0  0  0  0  0  0  0  0  0  0  0
  161.5920  205.6020  147.9250 C   0  0  0  0  0  3  0  0  0  0  0  0
  161.2060  202.2170  146.4270 C   0  0  0  0  0  3  0  0  0  0  0  0
  160.9590  201.5390  147.6400 C   0  0  0  0  0  0  0  0  0  0  0  0
  161.4130  204.2700  147.6370 C   0  0  0  0  0  0  0  0  0  0  0  0
  161.1740  203.6140  148.8140 C   0  0  0  0  0  0  0  0  0  0  0  0
  161.2060  204.5410  149.8290 C   0  0  0  0  0  3  0  0  0  0  0  0
  163.2660  212.2040  148.1130 C   0  0  0  0  0  3  0  0  0  0  0  0
  163.0150  210.9740  148.7270 C   0  0  0  0  0  3  0  0  0  0  0  0
  162.3560  213.2560  148.2570 C   0  0  0  0  0  3  0  0  0  0  0  0
  161.1970  213.0770  149.0170 C   0  0  0  0  0  3  0  0  0  0  0  0
  161.8520  210.7850  149.4910 C   0  0  0  0  0  0  0  0  0  0  0  0
  160.9460  211.8470  149.6310 C   0  0  0  0  0  3  0  0  0  0  0  0
  1 12  1  1  0  0  0
  1 10  1  0  0  0  0
  2  5  1  0  0  0  0
  3 10  1  0  0  0  0
  3 11  1  0  0  0  0
  5  7  2  0  0  0  0
  5  8  1  0  0  0  0
  6  4  2  0  0  0  0
  7  1  1  0  0  0  0
  8  3  2  0  0  0  0
  9  6  1  0  0  0  0
 10  9  1  0  0  0  0
 11  6  1  0  0  0  0
 13 18  2  0  0  0  0
 13 20  1  0  0  0  0
 14 19  1  0  0  0  0
 16 22  1  0  0  0  0
 16  7  1  0  0  0  0
 17 16  1  0  0  0  0
 18 19  1  0  0  0  0
 19 15  2  0  0  0  0
 20 17  2  0  0  0  0
 20 21  1  0  0  0  0
 21 15  1  0  0  0  0
 21 22  2  0  0  0  0
 23 25  2  0  0  0  0
 23 24  1  0  0  0  0
 24 27  2  0  0  0  0
 25 26  1  0  0  0  0
 26 28  2  0  0  0  0
 27 28  1  0  0  0  0
 27  8  1  0  0  0  0
M  END
>  <MODEL>
8

>  <REMARK>
 VINA RESULT:      -8.7      4.133      8.304
  Name = 
  2 active torsions:
  status: ('A' for Active; 'I' for Inactive)
    1  A    between atoms: N_8  and  C_16
    2  A    between atoms: C_18  and  C_25
                            x       y       z     vdW  Elec       q    Type
                         _______ _______ _______ _____ _____    ______ ____

>  <TORSDO>
F 2

$$$$
=
 OpenBabel11042421033D

 28 32  0  0  1  0  0  0  0  0999 V2000
  161.1050  208.0530  151.9040 C   0  0  2  0  0  3  0  0  0  0  0  0
  161.9150  208.2410  148.1070 C   0  0  0  0  0  1  0  0  0  0  0  0
  161.0080  210.4220  151.0570 C   0  0  0  0  0  0  0  0  0  0  0  0
  160.0790  212.2870  153.8830 O   0  0  0  0  0  0  0  0  0  0  0  0
  161.5730  208.6230  149.5160 C   0  0  0  0  0  0  0  0  0  0  0  0
  160.3680  211.4430  152.9960 C   0  0  0  0  0  0  0  0  0  0  0  0
  161.3130  207.6650  150.4520 C   0  0  0  0  0  0  0  0  0  0  0  0
  161.4920  210.0810  149.8550 C   0  0  0  0  0  0  0  0  0  0  0  0
  160.2920  210.0400  153.2130 N   0  0  0  0  0  2  0  0  0  0  0  0
  160.6570  209.4340  152.0120 N   0  0  0  0  0  0  0  0  0  0  0  0
  160.8370  211.8000  151.6210 C   0  0  0  0  0  2  0  0  0  0  0  0
  162.3500  207.8880  152.6350 N   0  0  0  0  0  1  0  0  0  0  0  0
  161.1770  203.3650  148.0350 C   0  0  0  0  0  3  0  0  0  0  0  0
  160.7070  200.4590  150.2440 F   0  0  0  0  0  0  0  0  0  0  0  0
  160.8820  202.7760  150.8000 C   0  0  0  0  0  3  0  0  0  0  0  0
  161.2830  206.2600  150.1240 N   0  0  0  0  0  0  0  0  0  0  0  0
  161.3260  205.7230  148.8770 C   0  0  0  0  0  3  0  0  0  0  0  0
  161.0130  202.0370  148.4710 C   0  0  0  0  0  3  0  0  0  0  0  0
  160.8660  201.7430  149.8440 C   0  0  0  0  0  0  0  0  0  0  0  0
  161.1930  204.3620  149.0070 C   0  0  0  0  0  0  0  0  0  0  0  0
  161.0510  204.0780  150.3370 C   0  0  0  0  0  0  0  0  0  0  0  0
  161.0970  205.2650  151.0300 C   0  0  0  0  0  3  0  0  0  0  0  0
  163.6550  212.4610  147.8460 C   0  0  0  0  0  3  0  0  0  0  0  0
  163.2650  211.4810  148.7630 C   0  0  0  0  0  3  0  0  0  0  0  0
  162.6990  213.0880  147.0430 C   0  0  0  0  0  3  0  0  0  0  0  0
  161.3510  212.7360  147.1580 C   0  0  0  0  0  3  0  0  0  0  0  0
  161.9130  211.1200  148.8840 C   0  0  0  0  0  0  0  0  0  0  0  0
  160.9600  211.7550  148.0740 C   0  0  0  0  0  3  0  0  0  0  0  0
  1 10  1  0  0  0  0
  1 12  1  1  0  0  0
  2  5  1  0  0  0  0
  3 11  1  0  0  0  0
  3 10  1  0  0  0  0
  5  8  1  0  0  0  0
  5  7  2  0  0  0  0
  6  9  1  0  0  0  0
  6  4  2  0  0  0  0
  7  1  1  0  0  0  0
  8  3  2  0  0  0  0
 10  9  1  0  0  0  0
 11  6  1  0  0  0  0
 13 18  2  0  0  0  0
 13 20  1  0  0  0  0
 16  7  1  0  0  0  0
 16 22  1  0  0  0  0
 17 20  2  0  0  0  0
 17 16  1  0  0  0  0
 18 19  1  0  0  0  0
 19 14  1  0  0  0  0
 19 15  2  0  0  0  0
 20 21  1  0  0  0  0
 21 15  1  0  0  0  0
 21 22  2  0  0  0  0
 23 24  1  0  0  0  0
 24 27  2  0  0  0  0
 25 26  1  0  0  0  0
 25 23  2  0  0  0  0
 26 28  2  0  0  0  0
 27  8  1  0  0  0  0
 28 27  1  0  0  0  0
M  END
>  <MODEL>
9

>  <REMARK>
 VINA RESULT:      -8.6      4.140      7.944
  Name = 
  2 active torsions:
  status: ('A' for Active; 'I' for Inactive)
    1  A    between atoms: N_8  and  C_16
    2  A    between atoms: C_18  and  C_25
                            x       y       z     vdW  Elec       q    Type
                         _______ _______ _______ _____ _____    ______ ____

>  <TORSDO>
F 2

$$$$
