=
 OpenBabel11042421483D

 44 48  0  0  1  0  0  0  0  0999 V2000
  161.8560  206.5480  142.3670 N   0  0  0  0  0  2  0  0  0  0  0  0
  161.8700  206.1760  140.9650 C   0  0  0  0  0  2  0  0  0  0  0  0
  162.5270  207.2760  140.1540 C   0  0  0  0  0  2  0  0  0  0  0  0
  161.5080  208.1510  139.5990 N   0  0  0  0  0  2  0  0  0  0  0  0
  161.7470  209.4850  140.1290 C   0  0  0  0  0  2  0  0  0  0  0  0
  160.7840  210.4520  139.5210 C   0  0  0  0  0  3  0  0  0  0  0  0
  159.6090  212.5610  139.3120 C   0  0  0  0  0  1  0  0  0  0  0  0
  160.5930  211.6800  140.0040 C   0  0  0  0  0  0  0  0  0  0  0  0
  159.5090  212.1360  142.8010 N   0  0  0  0  0  0  0  0  0  0  0  0
  161.3090  212.1180  141.1690 N   0  0  0  0  0  2  0  0  0  0  0  0
  160.7730  212.2950  142.4850 C   0  0  0  0  0  0  0  0  0  0  0  0
  160.6740  212.7770  144.6520 C   0  0  0  0  0  0  0  0  0  0  0  0
  160.9880  213.1450  145.9370 C   0  0  0  0  0  0  0  0  0  0  0  0
  162.8680  213.0100  143.8410 N   0  0  0  0  0  0  0  0  0  0  0  0
  161.5570  212.7110  143.6500 C   0  0  0  0  0  0  0  0  0  0  0  0
  158.6120  212.8210  146.4250 C   0  0  0  0  0  3  0  0  0  0  0  0
  159.4460  212.4440  144.2010 C   0  0  0  0  0  0  0  0  0  0  0  0
  162.3420  213.4620  146.1820 C   0  0  0  0  0  0  0  0  0  0  0  0
  162.9080  213.9590  147.8060 S   0  0  0  0  0  1  0  0  0  0  0  0
  159.9230  213.1670  146.8610 C   0  0  0  0  0  3  0  0  0  0  0  0
  163.2720  213.3860  145.1030 C   0  0  0  0  0  3  0  0  0  0  0  0
  158.3580  212.4540  145.0760 C   0  0  0  0  0  3  0  0  0  0  0  0
  161.2300  205.4510  143.0830 C   0  0  0  0  0  2  0  0  0  0  0  0
  160.3370  206.2240  145.2890 C   0  0  0  0  0  3  0  0  0  0  0  0
  162.5480  205.2440  145.1950 C   0  0  0  0  0  3  0  0  0  0  0  0
  162.6820  205.4120  146.5770 C   0  0  0  0  0  3  0  0  0  0  0  0
  161.6430  205.9880  147.3240 C   0  0  0  0  0  0  0  0  0  0  0  0
  161.3790  205.6550  144.5500 C   0  0  0  0  0  0  0  0  0  0  0  0
  160.4700  206.3920  146.6710 C   0  0  0  0  0  3  0  0  0  0  0  0
  161.4030  205.2420  149.5630 O   0  0  0  0  0  0  0  0  0  0  0  0
  161.7790  206.1580  148.7810 C   0  0  0  0  0  0  0  0  0  0  0  0
  162.3320  207.3650  149.3150 N   0  0  0  0  0  2  0  0  0  0  0  0
  162.4160  207.5940  150.6970 N   0  0  0  0  0  2  0  0  0  0  0  0
  161.0830  207.9450  151.1690 C   0  0  0  0  0  2  0  0  0  0  0  0
  160.9290  207.6040  152.6540 C   0  0  2  0  0  3  0  0  0  0  0  0
  160.2730  209.2290  155.6310 C   0  0  0  0  0  0  0  0  0  0  0  0
  160.0400  209.1550  156.8650 O   0  0  0  0  0  0  0  0  0  0  0  0
  160.1410  209.9210  153.4400 C   0  0  1  0  0  3  0  0  0  0  0  0
  161.1980  208.8000  153.5740 C   0  0  1  0  0  3  0  0  0  0  0  0
  159.6290  210.1550  154.7830 N   0  0  0  0  0  2  0  0  0  0  0  0
  160.7960  211.1850  152.9160 C   0  0  0  0  0  1  0  0  0  0  0  0
  161.1960  208.3910  154.9730 N   0  0  0  0  0  2  0  0  0  0  0  0
  161.0790  205.1330  152.9700 C   0  0  0  0  0  1  0  0  0  0  0  0
  161.8400  206.4450  153.0270 C   0  0  0  0  0  2  0  0  0  0  0  0
  1 23  1  0  0  0  0
  2  1  1  0  0  0  0
  3  2  1  0  0  0  0
  4  5  1  0  0  0  0
  4  3  1  0  0  0  0
  6  8  2  0  0  0  0
  6  5  1  0  0  0  0
  7  8  1  0  0  0  0
  8 10  1  0  0  0  0
  9 17  1  0  0  0  0
 10 11  1  0  0  0  0
 11  9  2  0  0  0  0
 11 15  1  0  0  0  0
 12 13  1  0  0  0  0
 13 18  1  0  0  0  0
 13 20  2  0  0  0  0
 14 21  1  0  0  0  0
 15 14  2  0  0  0  0
 15 12  1  0  0  0  0
 16 20  1  0  0  0  0
 17 12  2  0  0  0  0
 17 22  1  0  0  0  0
 18 19  1  0  0  0  0
 21 18  2  0  0  0  0
 22 16  2  0  0  0  0
 23 28  1  0  0  0  0
 24 29  1  0  0  0  0
 25 26  2  0  0  0  0
 26 27  1  0  0  0  0
 27 31  1  0  0  0  0
 28 25  1  0  0  0  0
 28 24  2  0  0  0  0
 29 27  2  0  0  0  0
 31 32  1  0  0  0  0
 31 30  2  0  0  0  0
 32 33  1  0  0  0  0
 33 34  1  0  0  0  0
 35 34  1  6  0  0  0
 35 44  1  0  0  0  0
 36 37  2  0  0  0  0
 38 41  1  1  0  0  0
 38 39  1  0  0  0  0
 38 40  1  0  0  0  0
 39 35  1  6  0  0  0
 39 42  1  0  0  0  0
 40 36  1  0  0  0  0
 42 36  1  0  0  0  0
 43 44  1  0  0  0  0
M  END
>  <MODEL>
1

>  <REMARK>
 VINA RESULT:      -6.7      0.000      0.000
  Name = 
  14 active torsions:
  status: ('A' for Active; 'I' for Inactive)
    1  A    between atoms: C_5  and  C_12
    2  A    between atoms: C_5  and  N_31
    3  A    between atoms: N_8  and  C_33
    4  A    between atoms: C_11  and  C_44
    5  A    between atoms: C_18  and  N_27
    6  A    between atoms: C_18  and  C_44
    7  A    between atoms: C_19  and  C_44
    8  A    between atoms: C_21  and  C_29
    9  A    between atoms: N_27  and  N_34
   10  A    between atoms: N_31  and  C_38
   11  A    between atoms: C_35  and  C_42
   12  A    between atoms: C_37  and  C_38
   13  A    between atoms: C_37  and  N_40
   14  A    between atoms: N_40  and  C_42
                            x       y       z     vdW  Elec       q    Type
                         _______ _______ _______ _____ _____    ______ ____

>  <TORSDO>
F 14

$$$$
=
 OpenBabel11042421483D

 44 48  0  0  1  0  0  0  0  0999 V2000
  161.8760  204.8710  145.1390 N   0  0  0  0  0  2  0  0  0  0  0  0
  161.1840  205.0900  143.8830 C   0  0  0  0  0  2  0  0  0  0  0  0
  161.9210  206.1400  143.0730 C   0  0  0  0  0  2  0  0  0  0  0  0
  161.7530  205.8720  141.6550 N   0  0  0  0  0  2  0  0  0  0  0  0
  162.0320  207.1110  140.9440 C   0  0  0  0  0  2  0  0  0  0  0  0
  162.0630  206.8560  139.4720 C   0  0  0  0  0  3  0  0  0  0  0  0
  161.7460  207.3950  137.1310 C   0  0  0  0  0  1  0  0  0  0  0  0
  161.6650  207.7580  138.5750 C   0  0  0  0  0  0  0  0  0  0  0  0
  158.8410  208.8330  138.3060 N   0  0  0  0  0  0  0  0  0  0  0  0
  161.1590  209.0310  139.0060 N   0  0  0  0  0  2  0  0  0  0  0  0
  159.8110  209.4970  138.8900 C   0  0  0  0  0  0  0  0  0  0  0  0
  158.0420  210.8360  139.0460 C   0  0  0  0  0  0  0  0  0  0  0  0
  157.2090  211.8940  139.3110 C   0  0  0  0  0  0  0  0  0  0  0  0
  159.9360  211.8290  140.0240 N   0  0  0  0  0  0  0  0  0  0  0  0
  159.3380  210.7950  139.3790 C   0  0  0  0  0  0  0  0  0  0  0  0
  155.4700  210.5760  138.2020 C   0  0  0  0  0  3  0  0  0  0  0  0
  157.6990  209.6960  138.4100 C   0  0  0  0  0  0  0  0  0  0  0  0
  157.7890  212.9920  139.9840 C   0  0  0  0  0  0  0  0  0  0  0  0
  156.8320  214.4470  140.3990 S   0  0  0  0  0  1  0  0  0  0  0  0
  155.8740  211.7640  138.8770 C   0  0  0  0  0  3  0  0  0  0  0  0
  159.1710  212.9330  140.3310 C   0  0  0  0  0  3  0  0  0  0  0  0
  156.3900  209.5210  137.9580 C   0  0  0  0  0  3  0  0  0  0  0  0
  161.2460  203.7220  145.7660 C   0  0  0  0  0  2  0  0  0  0  0  0
  161.3640  205.1670  147.8060 C   0  0  0  0  0  3  0  0  0  0  0  0
  161.0950  202.7750  148.0730 C   0  0  0  0  0  3  0  0  0  0  0  0
  161.0710  202.9330  149.4620 C   0  0  0  0  0  3  0  0  0  0  0  0
  161.1930  204.2080  150.0330 C   0  0  0  0  0  0  0  0  0  0  0  0
  161.2470  203.8910  147.2450 C   0  0  0  0  0  0  0  0  0  0  0  0
  161.3390  205.3240  149.1960 C   0  0  0  0  0  3  0  0  0  0  0  0
  160.7530  203.4370  152.2320 O   0  0  0  0  0  0  0  0  0  0  0  0
  161.1590  204.3770  151.4960 C   0  0  0  0  0  0  0  0  0  0  0  0
  161.5840  205.6100  152.0870 N   0  0  0  0  0  2  0  0  0  0  0  0
  161.5040  205.8350  153.4690 N   0  0  0  0  0  2  0  0  0  0  0  0
  160.5080  206.8740  153.6920 C   0  0  0  0  0  2  0  0  0  0  0  0
  161.1640  208.2570  153.7080 C   0  0  2  0  0  3  0  0  0  0  0  0
  160.5090  211.3580  155.0830 C   0  0  0  0  0  0  0  0  0  0  0  0
  159.9940  212.4990  154.9600 O   0  0  0  0  0  0  0  0  0  0  0  0
  162.0120  209.7110  155.6520 C   0  0  1  0  0  3  0  0  0  0  0  0
  160.7880  209.0840  154.9440 C   0  0  1  0  0  3  0  0  0  0  0  0
  161.7440  211.1400  155.7300 N   0  0  0  0  0  2  0  0  0  0  0  0
  162.1430  209.1390  157.0510 C   0  0  0  0  0  1  0  0  0  0  0  0
  159.9060  210.1860  154.5830 N   0  0  0  0  0  2  0  0  0  0  0  0
  162.0700  209.5380  151.7670 C   0  0  0  0  0  1  0  0  0  0  0  0
  160.8120  209.0240  152.4430 C   0  0  0  0  0  2  0  0  0  0  0  0
  1 23  1  0  0  0  0
  2  1  1  0  0  0  0
  3  2  1  0  0  0  0
  4  3  1  0  0  0  0
  5  4  1  0  0  0  0
  6  5  1  0  0  0  0
  7  8  1  0  0  0  0
  8 10  1  0  0  0  0
  8  6  2  0  0  0  0
  9 17  1  0  0  0  0
  9 11  2  0  0  0  0
 11 10  1  0  0  0  0
 11 15  1  0  0  0  0
 12 13  1  0  0  0  0
 12 15  1  0  0  0  0
 13 18  1  0  0  0  0
 14 21  1  0  0  0  0
 15 14  2  0  0  0  0
 16 20  1  0  0  0  0
 17 12  2  0  0  0  0
 18 21  2  0  0  0  0
 18 19  1  0  0  0  0
 20 13  2  0  0  0  0
 22 16  2  0  0  0  0
 22 17  1  0  0  0  0
 23 28  1  0  0  0  0
 24 29  1  0  0  0  0
 25 26  2  0  0  0  0
 26 27  1  0  0  0  0
 27 31  1  0  0  0  0
 28 24  2  0  0  0  0
 28 25  1  0  0  0  0
 29 27  2  0  0  0  0
 31 32  1  0  0  0  0
 31 30  2  0  0  0  0
 32 33  1  0  0  0  0
 33 34  1  0  0  0  0
 34 35  1  0  0  0  0
 35 44  1  6  0  0  0
 36 40  1  0  0  0  0
 37 36  2  0  0  0  0
 38 40  1  0  0  0  0
 38 41  1  1  0  0  0
 39 35  1  6  0  0  0
 39 38  1  0  0  0  0
 42 39  1  0  0  0  0
 42 36  1  0  0  0  0
 43 44  1  0  0  0  0
M  END
>  <MODEL>
2

>  <REMARK>
 VINA RESULT:      -6.7      3.406      4.838
  Name = 
  14 active torsions:
  status: ('A' for Active; 'I' for Inactive)
    1  A    between atoms: C_5  and  C_12
    2  A    between atoms: C_5  and  N_31
    3  A    between atoms: N_8  and  C_33
    4  A    between atoms: C_11  and  C_44
    5  A    between atoms: C_18  and  N_27
    6  A    between atoms: C_18  and  C_44
    7  A    between atoms: C_19  and  C_44
    8  A    between atoms: C_21  and  C_29
    9  A    between atoms: N_27  and  N_34
   10  A    between atoms: N_31  and  C_38
   11  A    between atoms: C_35  and  C_42
   12  A    between atoms: C_37  and  C_38
   13  A    between atoms: C_37  and  N_40
   14  A    between atoms: N_40  and  C_42
                            x       y       z     vdW  Elec       q    Type
                         _______ _______ _______ _____ _____    ______ ____

>  <TORSDO>
F 14

$$$$
=
 OpenBabel11042421483D

 44 48  0  0  1  0  0  0  0  0999 V2000
  159.4640  210.9270  156.1560 N   0  0  0  0  0  2  0  0  0  0  0  0
  158.5070  210.8980  155.0650 C   0  0  0  0  0  2  0  0  0  0  0  0
  158.8540  211.9760  154.0560 C   0  0  0  0  0  2  0  0  0  0  0  0
  159.1620  211.3660  152.7740 N   0  0  0  0  0  2  0  0  0  0  0  0
  158.9690  212.3840  151.7520 C   0  0  0  0  0  2  0  0  0  0  0  0
  157.7570  213.1990  152.0700 C   0  0  0  0  0  3  0  0  0  0  0  0
  155.7460  214.4530  151.5680 C   0  0  0  0  0  1  0  0  0  0  0  0
  156.9260  213.6540  151.1320 C   0  0  0  0  0  0  0  0  0  0  0  0
  159.5330  214.0110  149.6220 N   0  0  0  0  0  0  0  0  0  0  0  0
  157.1880  213.3880  149.7450 N   0  0  0  0  0  2  0  0  0  0  0  0
  158.4400  213.5400  149.0680 C   0  0  0  0  0  0  0  0  0  0  0  0
  159.9440  213.5320  147.4310 C   0  0  0  0  0  0  0  0  0  0  0  0
  160.5720  213.3960  146.2180 C   0  0  0  0  0  0  0  0  0  0  0  0
  157.8690  212.7330  146.6680 N   0  0  0  0  0  0  0  0  0  0  0  0
  158.6620  213.2210  147.6560 C   0  0  0  0  0  0  0  0  0  0  0  0
  162.5560  214.2850  147.3410 C   0  0  0  0  0  3  0  0  0  0  0  0
  160.5040  214.0030  148.5650 C   0  0  0  0  0  0  0  0  0  0  0  0
  159.7840  212.8880  145.1610 C   0  0  0  0  0  0  0  0  0  0  0  0
  160.4590  212.6540  143.5200 S   0  0  0  0  0  1  0  0  0  0  0  0
  161.9260  213.7830  146.1660 C   0  0  0  0  0  3  0  0  0  0  0  0
  158.4190  212.5620  145.4170 C   0  0  0  0  0  3  0  0  0  0  0  0
  161.8430  214.4020  148.5650 C   0  0  0  0  0  3  0  0  0  0  0  0
  159.5640  209.5680  156.6580 C   0  0  0  0  0  2  0  0  0  0  0  0
  161.0070  209.2080  154.6460 C   0  0  0  0  0  3  0  0  0  0  0  0
  159.8400  207.3180  155.6090 C   0  0  0  0  0  3  0  0  0  0  0  0
  160.3980  206.4790  154.6400 C   0  0  0  0  0  3  0  0  0  0  0  0
  161.2650  206.9990  153.6670 C   0  0  0  0  0  0  0  0  0  0  0  0
  160.1390  208.6830  155.6090 C   0  0  0  0  0  0  0  0  0  0  0  0
  161.5660  208.3690  153.6760 C   0  0  0  0  0  3  0  0  0  0  0  0
  162.8180  206.5260  151.9370 O   0  0  0  0  0  0  0  0  0  0  0  0
  161.8610  206.1150  152.6490 C   0  0  0  0  0  0  0  0  0  0  0  0
  161.3530  204.7900  152.4630 N   0  0  0  0  0  2  0  0  0  0  0  0
  161.8470  203.9420  151.4610 N   0  0  0  0  0  2  0  0  0  0  0  0
  160.7220  203.5410  150.6250 C   0  0  0  0  0  2  0  0  0  0  0  0
  161.1770  203.3120  149.1810 C   0  0  2  0  0  3  0  0  0  0  0  0
  162.2890  205.3050  146.5880 C   0  0  0  0  0  0  0  0  0  0  0  0
  162.8520  205.3910  145.4660 O   0  0  0  0  0  0  0  0  0  0  0  0
  161.7010  205.7930  148.7580 C   0  0  1  0  0  3  0  0  0  0  0  0
  160.9450  204.5310  148.2810 C   0  0  1  0  0  3  0  0  0  0  0  0
  162.5000  206.2380  147.6250 N   0  0  0  0  0  2  0  0  0  0  0  0
  160.7070  206.8750  149.1370 C   0  0  0  0  0  1  0  0  0  0  0  0
  161.3960  204.2660  146.9200 N   0  0  0  0  0  2  0  0  0  0  0  0
  161.3680  200.8680  148.7170 C   0  0  0  0  0  1  0  0  0  0  0  0
  160.4810  202.0930  148.5960 C   0  0  0  0  0  2  0  0  0  0  0  0
  1 23  1  0  0  0  0
  2  1  1  0  0  0  0
  3  2  1  0  0  0  0
  4  3  1  0  0  0  0
  5  6  1  0  0  0  0
  5  4  1  0  0  0  0
  8  7  1  0  0  0  0
  8  6  2  0  0  0  0
 10  8  1  0  0  0  0
 11  9  2  0  0  0  0
 11 10  1  0  0  0  0
 12 15  2  0  0  0  0
 12 17  1  0  0  0  0
 13 12  1  0  0  0  0
 14 15  1  0  0  0  0
 15 11  1  0  0  0  0
 16 22  1  0  0  0  0
 17 22  2  0  0  0  0
 17  9  1  0  0  0  0
 18 21  1  0  0  0  0
 18 13  2  0  0  0  0
 19 18  1  0  0  0  0
 20 13  1  0  0  0  0
 20 16  2  0  0  0  0
 21 14  2  0  0  0  0
 24 28  1  0  0  0  0
 26 25  1  0  0  0  0
 27 29  1  0  0  0  0
 27 26  2  0  0  0  0
 28 25  2  0  0  0  0
 28 23  1  0  0  0  0
 29 24  2  0  0  0  0
 30 31  2  0  0  0  0
 31 27  1  0  0  0  0
 32 31  1  0  0  0  0
 33 32  1  0  0  0  0
 34 33  1  0  0  0  0
 35 44  1  6  0  0  0
 35 34  1  0  0  0  0
 36 42  1  0  0  0  0
 36 40  1  0  0  0  0
 37 36  2  0  0  0  0
 38 41  1  6  0  0  0
 39 38  1  0  0  0  0
 39 35  1  1  0  0  0
 40 38  1  0  0  0  0
 42 39  1  0  0  0  0
 44 43  1  0  0  0  0
M  END
>  <MODEL>
3

>  <REMARK>
 VINA RESULT:      -6.6      3.645      8.696
  Name = 
  14 active torsions:
  status: ('A' for Active; 'I' for Inactive)
    1  A    between atoms: C_5  and  C_12
    2  A    between atoms: C_5  and  N_31
    3  A    between atoms: N_8  and  C_33
    4  A    between atoms: C_11  and  C_44
    5  A    between atoms: C_18  and  N_27
    6  A    between atoms: C_18  and  C_44
    7  A    between atoms: C_19  and  C_44
    8  A    between atoms: C_21  and  C_29
    9  A    between atoms: N_27  and  N_34
   10  A    between atoms: N_31  and  C_38
   11  A    between atoms: C_35  and  C_42
   12  A    between atoms: C_37  and  C_38
   13  A    between atoms: C_37  and  N_40
   14  A    between atoms: N_40  and  C_42
                            x       y       z     vdW  Elec       q    Type
                         _______ _______ _______ _____ _____    ______ ____

>  <TORSDO>
F 14

$$$$
=
 OpenBabel11042421483D

 44 48  0  0  1  0  0  0  0  0999 V2000
  160.7070  206.5490  149.0590 N   0  0  0  0  0  2  0  0  0  0  0  0
  161.6690  206.7080  147.9850 C   0  0  0  0  0  2  0  0  0  0  0  0
  162.4910  207.9600  148.2220 C   0  0  0  0  0  2  0  0  0  0  0  0
  161.6160  209.0590  148.5930 N   0  0  0  0  0  2  0  0  0  0  0  0
  162.4120  210.2760  148.5640 C   0  0  0  0  0  2  0  0  0  0  0  0
  161.6750  211.3820  149.2490 C   0  0  0  0  0  3  0  0  0  0  0  0
  160.7870  213.6230  149.4940 C   0  0  0  0  0  1  0  0  0  0  0  0
  161.5510  212.6010  148.7230 C   0  0  0  0  0  0  0  0  0  0  0  0
  160.1980  212.8890  146.0230 N   0  0  0  0  0  0  0  0  0  0  0  0
  162.1580  212.9070  147.4580 N   0  0  0  0  0  2  0  0  0  0  0  0
  161.4860  213.0660  146.2040 C   0  0  0  0  0  0  0  0  0  0  0  0
  161.1710  213.4300  144.0340 C   0  0  0  0  0  0  0  0  0  0  0  0
  161.3600  213.7040  142.7020 C   0  0  0  0  0  0  0  0  0  0  0  0
  163.4380  213.6760  144.6060 N   0  0  0  0  0  0  0  0  0  0  0  0
  162.1500  213.4130  144.9460 C   0  0  0  0  0  0  0  0  0  0  0  0
  158.9490  213.3530  142.4680 C   0  0  0  0  0  3  0  0  0  0  0  0
  159.9950  213.1280  144.6230 C   0  0  0  0  0  0  0  0  0  0  0  0
  162.6850  213.9870  142.3040 C   0  0  0  0  0  0  0  0  0  0  0  0
  163.0920  214.3630  140.6020 S   0  0  0  0  0  1  0  0  0  0  0  0
  160.2110  213.6680  141.8860 C   0  0  0  0  0  3  0  0  0  0  0  0
  163.7180  213.9640  143.2890 C   0  0  0  0  0  3  0  0  0  0  0  0
  158.8280  213.0760  143.8560 C   0  0  0  0  0  3  0  0  0  0  0  0
  161.2960  205.6230  150.0120 C   0  0  0  0  0  2  0  0  0  0  0  0
  160.9590  207.5610  151.5600 C   0  0  0  0  0  3  0  0  0  0  0  0
  161.4060  205.3730  152.4950 C   0  0  0  0  0  3  0  0  0  0  0  0
  161.3210  205.9060  153.7840 C   0  0  0  0  0  3  0  0  0  0  0  0
  161.0540  207.2710  153.9700 C   0  0  0  0  0  0  0  0  0  0  0  0
  161.2300  206.2000  151.3820 C   0  0  0  0  0  0  0  0  0  0  0  0
  160.8730  208.0950  152.8490 C   0  0  0  0  0  3  0  0  0  0  0  0
  161.6660  207.3650  156.2600 O   0  0  0  0  0  0  0  0  0  0  0  0
  160.9560  207.8340  155.3280 C   0  0  0  0  0  0  0  0  0  0  0  0
  160.0530  208.9110  155.5960 N   0  0  0  0  0  2  0  0  0  0  0  0
  159.8810  209.4290  156.8880 N   0  0  0  0  0  2  0  0  0  0  0  0
  159.2380  210.7310  156.7610 C   0  0  0  0  0  2  0  0  0  0  0  0
  160.2620  211.8040  156.3820 C   0  0  2  0  0  3  0  0  0  0  0  0
  157.7250  213.3250  154.5960 C   0  0  0  0  0  0  0  0  0  0  0  0
  156.6510  213.9800  154.6030 O   0  0  0  0  0  0  0  0  0  0  0  0
  159.3060  211.7640  153.9950 C   0  0  1  0  0  3  0  0  0  0  0  0
  159.8390  212.6300  155.1600 C   0  0  1  0  0  3  0  0  0  0  0  0
  157.9840  212.2860  153.6770 N   0  0  0  0  0  2  0  0  0  0  0  0
  160.2160  211.9090  152.7900 C   0  0  0  0  0  1  0  0  0  0  0  0
  158.7750  213.5630  155.5070 N   0  0  0  0  0  2  0  0  0  0  0  0
  162.5810  211.5260  157.2600 C   0  0  0  0  0  1  0  0  0  0  0  0
  161.6230  211.1730  156.1380 C   0  0  0  0  0  2  0  0  0  0  0  0
  1 23  1  0  0  0  0
  2  3  1  0  0  0  0
  2  1  1  0  0  0  0
  3  4  1  0  0  0  0
  5  4  1  0  0  0  0
  5  6  1  0  0  0  0
  8  6  2  0  0  0  0
  8  7  1  0  0  0  0
  9 11  2  0  0  0  0
 10  8  1  0  0  0  0
 11 10  1  0  0  0  0
 12 17  1  0  0  0  0
 12 15  2  0  0  0  0
 13 12  1  0  0  0  0
 14 15  1  0  0  0  0
 15 11  1  0  0  0  0
 16 22  1  0  0  0  0
 17  9  1  0  0  0  0
 18 13  2  0  0  0  0
 18 21  1  0  0  0  0
 19 18  1  0  0  0  0
 20 16  2  0  0  0  0
 20 13  1  0  0  0  0
 21 14  2  0  0  0  0
 22 17  2  0  0  0  0
 23 28  1  0  0  0  0
 24 29  1  0  0  0  0
 25 26  2  0  0  0  0
 26 27  1  0  0  0  0
 27 31  1  0  0  0  0
 28 24  2  0  0  0  0
 28 25  1  0  0  0  0
 29 27  2  0  0  0  0
 31 32  1  0  0  0  0
 31 30  2  0  0  0  0
 32 33  1  0  0  0  0
 34 33  1  0  0  0  0
 35 44  1  6  0  0  0
 35 34  1  0  0  0  0
 36 37  2  0  0  0  0
 36 42  1  0  0  0  0
 38 41  1  6  0  0  0
 38 39  1  0  0  0  0
 39 42  1  0  0  0  0
 39 35  1  1  0  0  0
 40 38  1  0  0  0  0
 40 36  1  0  0  0  0
 44 43  1  0  0  0  0
M  END
>  <MODEL>
4

>  <REMARK>
 VINA RESULT:      -6.4      3.401      6.059
  Name = 
  14 active torsions:
  status: ('A' for Active; 'I' for Inactive)
    1  A    between atoms: C_5  and  C_12
    2  A    between atoms: C_5  and  N_31
    3  A    between atoms: N_8  and  C_33
    4  A    between atoms: C_11  and  C_44
    5  A    between atoms: C_18  and  N_27
    6  A    between atoms: C_18  and  C_44
    7  A    between atoms: C_19  and  C_44
    8  A    between atoms: C_21  and  C_29
    9  A    between atoms: N_27  and  N_34
   10  A    between atoms: N_31  and  C_38
   11  A    between atoms: C_35  and  C_42
   12  A    between atoms: C_37  and  C_38
   13  A    between atoms: C_37  and  N_40
   14  A    between atoms: N_40  and  C_42
                            x       y       z     vdW  Elec       q    Type
                         _______ _______ _______ _____ _____    ______ ____

>  <TORSDO>
F 14

$$$$
=
 OpenBabel11042421483D

 44 48  0  0  1  0  0  0  0  0999 V2000
  160.4710  206.6490  149.0040 N   0  0  0  0  0  2  0  0  0  0  0  0
  161.4210  206.6520  147.9090 C   0  0  0  0  0  2  0  0  0  0  0  0
  162.4590  207.7340  148.1390 C   0  0  0  0  0  2  0  0  0  0  0  0
  161.8360  208.8820  148.7750 N   0  0  0  0  0  2  0  0  0  0  0  0
  162.3690  210.0750  148.1350 C   0  0  0  0  0  2  0  0  0  0  0  0
  162.0310  211.2830  148.9480 C   0  0  0  0  0  3  0  0  0  0  0  0
  160.9960  213.4290  149.3880 C   0  0  0  0  0  1  0  0  0  0  0  0
  161.2720  212.2760  148.4840 C   0  0  0  0  0  0  0  0  0  0  0  0
  162.5730  213.3190  145.9500 N   0  0  0  0  0  0  0  0  0  0  0  0
  160.7600  212.2280  147.1430 N   0  0  0  0  0  2  0  0  0  0  0  0
  161.4140  212.7040  145.9620 C   0  0  0  0  0  0  0  0  0  0  0  0
  161.7700  213.1850  143.8210 C   0  0  0  0  0  0  0  0  0  0  0  0
  161.6420  213.3170  142.4610 C   0  0  0  0  0  0  0  0  0  0  0  0
  159.7150  212.0780  144.1020 N   0  0  0  0  0  0  0  0  0  0  0  0
  160.8610  212.5990  144.6100 C   0  0  0  0  0  0  0  0  0  0  0  0
  163.8090  214.4530  142.5440 C   0  0  0  0  0  3  0  0  0  0  0  0
  162.8040  213.6260  144.5680 C   0  0  0  0  0  0  0  0  0  0  0  0
  160.4660  212.7850  141.8890 C   0  0  0  0  0  0  0  0  0  0  0  0
  160.1540  212.8800  140.1290 S   0  0  0  0  0  1  0  0  0  0  0  0
  162.6980  213.9720  141.7930 C   0  0  0  0  0  3  0  0  0  0  0  0
  159.5060  212.1640  142.7440 C   0  0  0  0  0  3  0  0  0  0  0  0
  163.8720  214.2840  143.9540 C   0  0  0  0  0  3  0  0  0  0  0  0
  160.9860  205.7260  150.0010 C   0  0  0  0  0  2  0  0  0  0  0  0
  160.8360  207.7710  151.4350 C   0  0  0  0  0  3  0  0  0  0  0  0
  161.1960  205.6210  152.4870 C   0  0  0  0  0  3  0  0  0  0  0  0
  161.2040  206.2360  153.7430 C   0  0  0  0  0  3  0  0  0  0  0  0
  161.0270  207.6240  153.8530 C   0  0  0  0  0  0  0  0  0  0  0  0
  161.0190  206.3880  151.3330 C   0  0  0  0  0  0  0  0  0  0  0  0
  160.8430  208.3870  152.6910 C   0  0  0  0  0  3  0  0  0  0  0  0
  161.7880  207.8510  156.0880 O   0  0  0  0  0  0  0  0  0  0  0  0
  161.0260  208.2730  155.1750 C   0  0  0  0  0  0  0  0  0  0  0  0
  160.1570  209.3810  155.4310 N   0  0  0  0  0  2  0  0  0  0  0  0
  160.0770  209.9840  156.6950 N   0  0  0  0  0  2  0  0  0  0  0  0
  158.7720  210.6240  156.7990 C   0  0  0  0  0  2  0  0  0  0  0  0
  158.9200  212.1460  156.8630 C   0  0  2  0  0  3  0  0  0  0  0  0
  156.1950  213.3860  155.1380 C   0  0  0  0  0  0  0  0  0  0  0  0
  155.0860  213.9780  155.1670 O   0  0  0  0  0  0  0  0  0  0  0  0
  157.8290  211.8750  154.5510 C   0  0  1  0  0  3  0  0  0  0  0  0
  158.3770  212.8530  155.6150 C   0  0  1  0  0  3  0  0  0  0  0  0
  156.4620  212.2970  154.2810 N   0  0  0  0  0  2  0  0  0  0  0  0
  158.6550  211.9800  153.2830 C   0  0  0  0  0  1  0  0  0  0  0  0
  157.2810  213.7490  155.9610 N   0  0  0  0  0  2  0  0  0  0  0  0
  160.5350  214.0350  157.0840 C   0  0  0  0  0  1  0  0  0  0  0  0
  160.3750  212.5270  157.0850 C   0  0  0  0  0  2  0  0  0  0  0  0
  1 23  1  0  0  0  0
  2  3  1  0  0  0  0
  2  1  1  0  0  0  0
  3  4  1  0  0  0  0
  5  4  1  0  0  0  0
  5  6  1  0  0  0  0
  8  6  2  0  0  0  0
  8  7  1  0  0  0  0
  9 11  2  0  0  0  0
 10  8  1  0  0  0  0
 11 10  1  0  0  0  0
 12 17  1  0  0  0  0
 12 15  2  0  0  0  0
 13 12  1  0  0  0  0
 14 15  1  0  0  0  0
 15 11  1  0  0  0  0
 16 22  1  0  0  0  0
 17  9  1  0  0  0  0
 18 13  2  0  0  0  0
 18 21  1  0  0  0  0
 19 18  1  0  0  0  0
 20 13  1  0  0  0  0
 20 16  2  0  0  0  0
 21 14  2  0  0  0  0
 22 17  2  0  0  0  0
 23 28  1  0  0  0  0
 24 29  1  0  0  0  0
 25 26  2  0  0  0  0
 26 27  1  0  0  0  0
 27 31  1  0  0  0  0
 28 24  2  0  0  0  0
 28 25  1  0  0  0  0
 29 27  2  0  0  0  0
 31 32  1  0  0  0  0
 31 30  2  0  0  0  0
 32 33  1  0  0  0  0
 33 34  1  0  0  0  0
 35 34  1  6  0  0  0
 35 44  1  0  0  0  0
 36 37  2  0  0  0  0
 36 42  1  0  0  0  0
 38 41  1  6  0  0  0
 38 39  1  0  0  0  0
 39 42  1  0  0  0  0
 39 35  1  1  0  0  0
 40 38  1  0  0  0  0
 40 36  1  0  0  0  0
 43 44  1  0  0  0  0
M  END
>  <MODEL>
5

>  <REMARK>
 VINA RESULT:      -6.3      3.209      6.497
  Name = 
  14 active torsions:
  status: ('A' for Active; 'I' for Inactive)
    1  A    between atoms: C_5  and  C_12
    2  A    between atoms: C_5  and  N_31
    3  A    between atoms: N_8  and  C_33
    4  A    between atoms: C_11  and  C_44
    5  A    between atoms: C_18  and  N_27
    6  A    between atoms: C_18  and  C_44
    7  A    between atoms: C_19  and  C_44
    8  A    between atoms: C_21  and  C_29
    9  A    between atoms: N_27  and  N_34
   10  A    between atoms: N_31  and  C_38
   11  A    between atoms: C_35  and  C_42
   12  A    between atoms: C_37  and  C_38
   13  A    between atoms: C_37  and  N_40
   14  A    between atoms: N_40  and  C_42
                            x       y       z     vdW  Elec       q    Type
                         _______ _______ _______ _____ _____    ______ ____

>  <TORSDO>
F 14

$$$$
=
 OpenBabel11042421483D

 44 48  0  0  1  0  0  0  0  0999 V2000
  161.8520  210.3420  153.1710 N   0  0  0  0  0  2  0  0  0  0  0  0
  160.5010  210.1270  153.6540 C   0  0  0  0  0  2  0  0  0  0  0  0
  159.5530  211.0790  152.9520 C   0  0  0  0  0  2  0  0  0  0  0  0
  158.9560  211.9830  153.9210 N   0  0  0  0  0  2  0  0  0  0  0  0
  159.0710  213.3300  153.3860 C   0  0  0  0  0  2  0  0  0  0  0  0
  157.7840  213.7320  152.7410 C   0  0  0  0  0  3  0  0  0  0  0  0
  156.3490  214.4070  150.9090 C   0  0  0  0  0  1  0  0  0  0  0  0
  157.6870  214.0250  151.4440 C   0  0  0  0  0  0  0  0  0  0  0  0
  157.8490  213.2970  148.5030 N   0  0  0  0  0  0  0  0  0  0  0  0
  158.8520  213.9860  150.6060 N   0  0  0  0  0  2  0  0  0  0  0  0
  158.8910  213.6670  149.2110 C   0  0  0  0  0  0  0  0  0  0  0  0
  159.7020  213.2960  147.1740 C   0  0  0  0  0  0  0  0  0  0  0  0
  160.5340  213.1580  146.0920 C   0  0  0  0  0  0  0  0  0  0  0  0
  161.4080  213.9640  148.6480 N   0  0  0  0  0  0  0  0  0  0  0  0
  160.1050  213.6760  148.3920 C   0  0  0  0  0  0  0  0  0  0  0  0
  158.5310  212.4800  144.8590 C   0  0  0  0  0  3  0  0  0  0  0  0
  158.3730  213.0610  147.1880 C   0  0  0  0  0  0  0  0  0  0  0  0
  161.8980  213.4500  146.3110 C   0  0  0  0  0  0  0  0  0  0  0  0
  163.1080  213.3180  144.9980 S   0  0  0  0  0  1  0  0  0  0  0  0
  159.9320  212.7380  144.8880 C   0  0  0  0  0  3  0  0  0  0  0  0
  162.3130  213.8550  147.6150 C   0  0  0  0  0  3  0  0  0  0  0  0
  157.7300  212.6390  146.0220 C   0  0  0  0  0  3  0  0  0  0  0  0
  161.8310  210.0730  151.7440 C   0  0  0  0  0  2  0  0  0  0  0  0
  161.1860  208.1860  150.2330 C   0  0  0  0  0  3  0  0  0  0  0  0
  161.7050  207.7120  152.5500 C   0  0  0  0  0  3  0  0  0  0  0  0
  161.4720  206.3520  152.3240 C   0  0  0  0  0  3  0  0  0  0  0  0
  161.0940  205.8990  151.0510 C   0  0  0  0  0  0  0  0  0  0  0  0
  161.5570  208.6300  151.5070 C   0  0  0  0  0  0  0  0  0  0  0  0
  160.9530  206.8250  150.0070 C   0  0  0  0  0  3  0  0  0  0  0  0
  160.6530  203.6860  151.7800 O   0  0  0  0  0  0  0  0  0  0  0  0
  160.8550  204.4660  150.8090 C   0  0  0  0  0  0  0  0  0  0  0  0
  160.8560  203.9530  149.4730 N   0  0  0  0  0  2  0  0  0  0  0  0
  160.7010  202.5850  149.2050 N   0  0  0  0  0  2  0  0  0  0  0  0
  160.2450  202.4530  147.8270 C   0  0  0  0  0  2  0  0  0  0  0  0
  161.4310  202.2260  146.8850 C   0  0  2  0  0  3  0  0  0  0  0  0
  162.2790  205.5730  146.7510 C   0  0  0  0  0  0  0  0  0  0  0  0
  162.9310  206.5340  147.2330 O   0  0  0  0  0  0  0  0  0  0  0  0
  160.5450  204.3870  145.8100 C   0  0  1  0  0  3  0  0  0  0  0  0
  161.7600  203.4560  146.0300 C   0  0  1  0  0  3  0  0  0  0  0  0
  160.9630  205.7080  146.2590 N   0  0  0  0  0  2  0  0  0  0  0  0
  160.1960  204.4360  144.3350 C   0  0  0  0  0  1  0  0  0  0  0  0
  162.7960  204.2640  146.6590 N   0  0  0  0  0  2  0  0  0  0  0  0
  159.7170  200.9800  145.5680 C   0  0  0  0  0  1  0  0  0  0  0  0
  161.1730  201.0240  145.9910 C   0  0  0  0  0  2  0  0  0  0  0  0
  1  2  1  0  0  0  0
  3  2  1  0  0  0  0
  3  4  1  0  0  0  0
  5  4  1  0  0  0  0
  6  5  1  0  0  0  0
  7  8  1  0  0  0  0
  8  6  2  0  0  0  0
  9 11  2  0  0  0  0
 10  8  1  0  0  0  0
 11 10  1  0  0  0  0
 12 17  1  0  0  0  0
 12 15  2  0  0  0  0
 13 18  2  0  0  0  0
 13 12  1  0  0  0  0
 15 14  1  0  0  0  0
 15 11  1  0  0  0  0
 16 20  2  0  0  0  0
 16 22  1  0  0  0  0
 17  9  1  0  0  0  0
 18 21  1  0  0  0  0
 19 18  1  0  0  0  0
 20 13  1  0  0  0  0
 21 14  2  0  0  0  0
 22 17  2  0  0  0  0
 23  1  1  0  0  0  0
 24 28  1  0  0  0  0
 26 25  1  0  0  0  0
 27 26  2  0  0  0  0
 28 23  1  0  0  0  0
 28 25  2  0  0  0  0
 29 24  2  0  0  0  0
 29 27  1  0  0  0  0
 31 27  1  0  0  0  0
 31 30  2  0  0  0  0
 32 31  1  0  0  0  0
 33 32  1  0  0  0  0
 34 33  1  0  0  0  0
 35 44  1  6  0  0  0
 35 34  1  0  0  0  0
 36 37  2  0  0  0  0
 38 41  1  6  0  0  0
 38 39  1  0  0  0  0
 38 40  1  0  0  0  0
 39 42  1  0  0  0  0
 39 35  1  1  0  0  0
 40 36  1  0  0  0  0
 42 36  1  0  0  0  0
 43 44  1  0  0  0  0
M  END
>  <MODEL>
6

>  <REMARK>
 VINA RESULT:      -6.0      3.465      8.247
  Name = 
  14 active torsions:
  status: ('A' for Active; 'I' for Inactive)
    1  A    between atoms: C_5  and  C_12
    2  A    between atoms: C_5  and  N_31
    3  A    between atoms: N_8  and  C_33
    4  A    between atoms: C_11  and  C_44
    5  A    between atoms: C_18  and  N_27
    6  A    between atoms: C_18  and  C_44
    7  A    between atoms: C_19  and  C_44
    8  A    between atoms: C_21  and  C_29
    9  A    between atoms: N_27  and  N_34
   10  A    between atoms: N_31  and  C_38
   11  A    between atoms: C_35  and  C_42
   12  A    between atoms: C_37  and  C_38
   13  A    between atoms: C_37  and  N_40
   14  A    between atoms: N_40  and  C_42
                            x       y       z     vdW  Elec       q    Type
                         _______ _______ _______ _____ _____    ______ ____

>  <TORSDO>
F 14

$$$$
=
 OpenBabel11042421483D

 44 48  0  0  1  0  0  0  0  0999 V2000
  160.9030  204.8990  145.5970 N   0  0  0  0  0  2  0  0  0  0  0  0
  161.8900  205.0580  144.5460 C   0  0  0  0  0  2  0  0  0  0  0  0
  161.3770  206.0410  143.5120 C   0  0  0  0  0  2  0  0  0  0  0  0
  161.9680  205.7440  142.2180 N   0  0  0  0  0  2  0  0  0  0  0  0
  161.5970  206.8220  141.3140 C   0  0  0  0  0  2  0  0  0  0  0  0
  162.2120  206.5940  139.9710 C   0  0  0  0  0  3  0  0  0  0  0  0
  162.5450  206.9750  137.6020 C   0  0  0  0  0  1  0  0  0  0  0  0
  161.8590  207.2870  138.8880 C   0  0  0  0  0  0  0  0  0  0  0  0
  162.1290  210.1690  139.7950 N   0  0  0  0  0  0  0  0  0  0  0  0
  160.8320  208.2860  138.9730 N   0  0  0  0  0  2  0  0  0  0  0  0
  160.9980  209.6490  139.3780 C   0  0  0  0  0  0  0  0  0  0  0  0
  160.4960  211.7580  139.8710 C   0  0  0  0  0  0  0  0  0  0  0  0
  159.8340  212.9430  140.0720 C   0  0  0  0  0  0  0  0  0  0  0  0
  158.5980  210.6010  139.1060 N   0  0  0  0  0  0  0  0  0  0  0  0
  159.9200  210.6410  139.4140 C   0  0  0  0  0  0  0  0  0  0  0  0
  161.9890  213.8180  140.8330 C   0  0  0  0  0  3  0  0  0  0  0  0
  161.8050  211.5310  140.1100 C   0  0  0  0  0  0  0  0  0  0  0  0
  158.4560  212.9490  139.7610 C   0  0  0  0  0  0  0  0  0  0  0  0
  157.4550  214.4190  139.9690 S   0  0  0  0  0  1  0  0  0  0  0  0
  160.6030  214.0150  140.5680 C   0  0  0  0  0  3  0  0  0  0  0  0
  157.8570  211.7490  139.2750 C   0  0  0  0  0  3  0  0  0  0  0  0
  162.6090  212.5600  140.6050 C   0  0  0  0  0  3  0  0  0  0  0  0
  161.5780  204.2510  146.7080 C   0  0  0  0  0  2  0  0  0  0  0  0
  162.0160  206.4870  147.7420 C   0  0  0  0  0  3  0  0  0  0  0  0
  161.1670  204.6960  149.1320 C   0  0  0  0  0  3  0  0  0  0  0  0
  161.1630  205.5540  150.2350 C   0  0  0  0  0  3  0  0  0  0  0  0
  161.5850  206.8850  150.1000 C   0  0  0  0  0  0  0  0  0  0  0  0
  161.5990  205.1600  147.8860 C   0  0  0  0  0  0  0  0  0  0  0  0
  162.0110  207.3460  148.8450 C   0  0  0  0  0  3  0  0  0  0  0  0
  161.7140  209.0350  151.0920 O   0  0  0  0  0  0  0  0  0  0  0  0
  161.5740  207.7930  151.2600 C   0  0  0  0  0  0  0  0  0  0  0  0
  161.4070  207.2690  152.5810 N   0  0  0  0  0  2  0  0  0  0  0  0
  161.4570  208.0920  153.7160 N   0  0  0  0  0  2  0  0  0  0  0  0
  160.3350  207.7330  154.5730 C   0  0  0  0  0  2  0  0  0  0  0  0
  160.0800  208.8240  155.6160 C   0  0  2  0  0  3  0  0  0  0  0  0
  160.3040  212.2140  156.2480 C   0  0  0  0  0  0  0  0  0  0  0  0
  160.4560  213.1420  157.0830 O   0  0  0  0  0  0  0  0  0  0  0  0
  159.5000  211.0370  154.4420 C   0  0  1  0  0  3  0  0  0  0  0  0
  160.5790  210.2050  155.1720 C   0  0  1  0  0  3  0  0  0  0  0  0
  159.4080  212.2990  155.1610 N   0  0  0  0  0  2  0  0  0  0  0  0
  159.9310  211.2940  153.0100 C   0  0  0  0  0  1  0  0  0  0  0  0
  161.0100  210.9960  156.3170 N   0  0  0  0  0  2  0  0  0  0  0  0
  160.4490  206.9840  157.2610 C   0  0  0  0  0  1  0  0  0  0  0  0
  160.7150  208.4440  156.9450 C   0  0  0  0  0  2  0  0  0  0  0  0
  1 23  1  0  0  0  0
  2  1  1  0  0  0  0
  3  2  1  0  0  0  0
  4  3  1  0  0  0  0
  5  4  1  0  0  0  0
  6  5  1  0  0  0  0
  7  8  1  0  0  0  0
  8 10  1  0  0  0  0
  8  6  2  0  0  0  0
  9 17  1  0  0  0  0
 10 11  1  0  0  0  0
 11 15  1  0  0  0  0
 11  9  2  0  0  0  0
 12 13  1  0  0  0  0
 12 17  1  0  0  0  0
 13 20  1  0  0  0  0
 14 21  2  0  0  0  0
 14 15  1  0  0  0  0
 15 12  2  0  0  0  0
 17 22  2  0  0  0  0
 18 19  1  0  0  0  0
 18 13  2  0  0  0  0
 20 16  2  0  0  0  0
 21 18  1  0  0  0  0
 22 16  1  0  0  0  0
 23 28  1  0  0  0  0
 24 28  2  0  0  0  0
 24 29  1  0  0  0  0
 25 26  2  0  0  0  0
 27 26  1  0  0  0  0
 27 31  1  0  0  0  0
 28 25  1  0  0  0  0
 29 27  2  0  0  0  0
 30 31  2  0  0  0  0
 31 32  1  0  0  0  0
 32 33  1  0  0  0  0
 33 34  1  0  0  0  0
 35 34  1  6  0  0  0
 35 44  1  0  0  0  0
 36 42  1  0  0  0  0
 36 37  2  0  0  0  0
 38 41  1  6  0  0  0
 38 40  1  0  0  0  0
 38 39  1  0  0  0  0
 39 35  1  1  0  0  0
 39 42  1  0  0  0  0
 40 36  1  0  0  0  0
 44 43  1  0  0  0  0
M  END
>  <MODEL>
7

>  <REMARK>
 VINA RESULT:      -5.9      3.271      4.617
  Name = 
  14 active torsions:
  status: ('A' for Active; 'I' for Inactive)
    1  A    between atoms: C_5  and  C_12
    2  A    between atoms: C_5  and  N_31
    3  A    between atoms: N_8  and  C_33
    4  A    between atoms: C_11  and  C_44
    5  A    between atoms: C_18  and  N_27
    6  A    between atoms: C_18  and  C_44
    7  A    between atoms: C_19  and  C_44
    8  A    between atoms: C_21  and  C_29
    9  A    between atoms: N_27  and  N_34
   10  A    between atoms: N_31  and  C_38
   11  A    between atoms: C_35  and  C_42
   12  A    between atoms: C_37  and  C_38
   13  A    between atoms: C_37  and  N_40
   14  A    between atoms: N_40  and  C_42
                            x       y       z     vdW  Elec       q    Type
                         _______ _______ _______ _____ _____    ______ ____

>  <TORSDO>
F 14

$$$$
=
 OpenBabel11042421483D

 44 48  0  0  1  0  0  0  0  0999 V2000
  160.9380  205.1770  145.5110 N   0  0  0  0  0  2  0  0  0  0  0  0
  161.9110  205.5530  144.5020 C   0  0  0  0  0  2  0  0  0  0  0  0
  161.2050  205.8050  143.1840 C   0  0  0  0  0  2  0  0  0  0  0  0
  162.1690  205.7790  142.0980 N   0  0  0  0  0  2  0  0  0  0  0  0
  161.9160  206.9450  141.2660 C   0  0  0  0  0  2  0  0  0  0  0  0
  162.2130  206.6230  139.8370 C   0  0  0  0  0  3  0  0  0  0  0  0
  162.3150  207.0470  137.4530 C   0  0  0  0  0  1  0  0  0  0  0  0
  161.9730  207.4760  138.8400 C   0  0  0  0  0  0  0  0  0  0  0  0
  159.2470  208.4950  137.9820 N   0  0  0  0  0  0  0  0  0  0  0  0
  161.3830  208.7560  139.1100 N   0  0  0  0  0  2  0  0  0  0  0  0
  160.0790  209.1970  138.7160 C   0  0  0  0  0  0  0  0  0  0  0  0
  158.3040  210.5120  138.4690 C   0  0  0  0  0  0  0  0  0  0  0  0
  157.4270  211.5670  138.5220 C   0  0  0  0  0  0  0  0  0  0  0  0
  159.9630  211.5730  139.7540 N   0  0  0  0  0  0  0  0  0  0  0  0
  159.5100  210.5050  139.0490 C   0  0  0  0  0  0  0  0  0  0  0  0
  155.9480  210.1800  137.1530 C   0  0  0  0  0  3  0  0  0  0  0  0
  158.1000  209.3430  137.8260 C   0  0  0  0  0  0  0  0  0  0  0  0
  157.8570  212.7000  139.2480 C   0  0  0  0  0  0  0  0  0  0  0  0
  156.8260  214.1550  139.4090 S   0  0  0  0  0  1  0  0  0  0  0  0
  156.2030  211.3990  137.8430 C   0  0  0  0  0  3  0  0  0  0  0  0
  159.1450  212.6760  139.8600 C   0  0  0  0  0  3  0  0  0  0  0  0
  156.9050  209.1300  137.1360 C   0  0  0  0  0  3  0  0  0  0  0  0
  161.6540  204.4060  146.5130 C   0  0  0  0  0  2  0  0  0  0  0  0
  160.9710  204.4010  148.9200 C   0  0  0  0  0  3  0  0  0  0  0  0
  162.0490  206.3670  148.0090 C   0  0  0  0  0  3  0  0  0  0  0  0
  161.9690  206.9900  149.2580 C   0  0  0  0  0  3  0  0  0  0  0  0
  161.3900  206.3220  150.3470 C   0  0  0  0  0  0  0  0  0  0  0  0
  161.5450  205.0750  147.8380 C   0  0  0  0  0  0  0  0  0  0  0  0
  160.8920  205.0230  150.1700 C   0  0  0  0  0  3  0  0  0  0  0  0
  161.6030  206.3250  152.7100 O   0  0  0  0  0  0  0  0  0  0  0  0
  161.3130  206.9730  151.6670 C   0  0  0  0  0  0  0  0  0  0  0  0
  160.9060  208.3410  151.7700 N   0  0  0  0  0  2  0  0  0  0  0  0
  160.7550  208.9780  153.0110 N   0  0  0  0  0  2  0  0  0  0  0  0
  161.3210  210.3150  152.8950 C   0  0  0  0  0  2  0  0  0  0  0  0
  160.5130  211.3180  153.7230 C   0  0  2  0  0  3  0  0  0  0  0  0
  161.5400  209.3860  156.3970 C   0  0  0  0  0  0  0  0  0  0  0  0
  162.3120  208.5000  156.8470 O   0  0  0  0  0  0  0  0  0  0  0  0
  159.6220  210.6010  156.0260 C   0  0  1  0  0  3  0  0  0  0  0  0
  160.7950  211.2150  155.2270 C   0  0  1  0  0  3  0  0  0  0  0  0
  160.1800  209.4750  156.7610 N   0  0  0  0  0  2  0  0  0  0  0  0
  159.0720  211.6250  157.0010 C   0  0  0  0  0  1  0  0  0  0  0  0
  161.9570  210.3740  155.4830 N   0  0  0  0  0  2  0  0  0  0  0  0
  158.6040  211.9620  152.2520 C   0  0  0  0  0  1  0  0  0  0  0  0
  159.0260  211.1450  153.4590 C   0  0  0  0  0  2  0  0  0  0  0  0
  1 23  1  0  0  0  0
  2  1  1  0  0  0  0
  3  2  1  0  0  0  0
  4  3  1  0  0  0  0
  5  4  1  0  0  0  0
  6  5  1  0  0  0  0
  7  8  1  0  0  0  0
  8 10  1  0  0  0  0
  8  6  2  0  0  0  0
  9 11  2  0  0  0  0
 11 15  1  0  0  0  0
 11 10  1  0  0  0  0
 12 13  1  0  0  0  0
 12 15  1  0  0  0  0
 13 18  1  0  0  0  0
 14 21  1  0  0  0  0
 15 14  2  0  0  0  0
 16 20  1  0  0  0  0
 17  9  1  0  0  0  0
 17 12  2  0  0  0  0
 18 19  1  0  0  0  0
 18 21  2  0  0  0  0
 20 13  2  0  0  0  0
 22 16  2  0  0  0  0
 22 17  1  0  0  0  0
 23 28  1  0  0  0  0
 24 29  1  0  0  0  0
 25 26  2  0  0  0  0
 26 27  1  0  0  0  0
 27 31  1  0  0  0  0
 28 25  1  0  0  0  0
 28 24  2  0  0  0  0
 29 27  2  0  0  0  0
 31 32  1  0  0  0  0
 31 30  2  0  0  0  0
 32 33  1  0  0  0  0
 34 33  1  0  0  0  0
 35 34  1  6  0  0  0
 36 40  1  0  0  0  0
 36 37  2  0  0  0  0
 38 40  1  0  0  0  0
 38 41  1  1  0  0  0
 39 35  1  6  0  0  0
 39 42  1  0  0  0  0
 39 38  1  0  0  0  0
 42 36  1  0  0  0  0
 43 44  1  0  0  0  0
 44 35  1  0  0  0  0
M  END
>  <MODEL>
8

>  <REMARK>
 VINA RESULT:      -5.9      3.492      5.271
  Name = 
  14 active torsions:
  status: ('A' for Active; 'I' for Inactive)
    1  A    between atoms: C_5  and  C_12
    2  A    between atoms: C_5  and  N_31
    3  A    between atoms: N_8  and  C_33
    4  A    between atoms: C_11  and  C_44
    5  A    between atoms: C_18  and  N_27
    6  A    between atoms: C_18  and  C_44
    7  A    between atoms: C_19  and  C_44
    8  A    between atoms: C_21  and  C_29
    9  A    between atoms: N_27  and  N_34
   10  A    between atoms: N_31  and  C_38
   11  A    between atoms: C_35  and  C_42
   12  A    between atoms: C_37  and  C_38
   13  A    between atoms: C_37  and  N_40
   14  A    between atoms: N_40  and  C_42
                            x       y       z     vdW  Elec       q    Type
                         _______ _______ _______ _____ _____    ______ ____

>  <TORSDO>
F 14

$$$$
=
 OpenBabel11042421483D

 44 48  0  0  1  0  0  0  0  0999 V2000
  161.8640  206.5180  142.4630 N   0  0  0  0  0  2  0  0  0  0  0  0
  161.9550  206.2670  141.0370 C   0  0  0  0  0  2  0  0  0  0  0  0
  162.8120  207.3360  140.3870 C   0  0  0  0  0  2  0  0  0  0  0  0
  162.0260  208.0630  139.4040 N   0  0  0  0  0  2  0  0  0  0  0  0
  161.4700  209.2300  140.0720 C   0  0  0  0  0  2  0  0  0  0  0  0
  161.9120  210.4750  139.3720 C   0  0  0  0  0  3  0  0  0  0  0  0
  162.1020  212.8650  139.0290 C   0  0  0  0  0  1  0  0  0  0  0  0
  161.6000  211.6960  139.8060 C   0  0  0  0  0  0  0  0  0  0  0  0
  162.4750  212.5750  142.5750 N   0  0  0  0  0  0  0  0  0  0  0  0
  160.7880  211.8610  140.9790 N   0  0  0  0  0  2  0  0  0  0  0  0
  161.2270  212.3070  142.2660 C   0  0  0  0  0  0  0  0  0  0  0  0
  161.1600  212.8840  144.4120 C   0  0  0  0  0  0  0  0  0  0  0  0
  160.7450  213.1600  145.6910 C   0  0  0  0  0  0  0  0  0  0  0  0
  159.0150  212.3350  143.6240 N   0  0  0  0  0  0  0  0  0  0  0  0
  160.3490  212.4910  143.4240 C   0  0  0  0  0  0  0  0  0  0  0  0
  163.0970  213.6370  146.1660 C   0  0  0  0  0  3  0  0  0  0  0  0
  162.4300  212.9510  143.9590 C   0  0  0  0  0  0  0  0  0  0  0  0
  159.3630  213.0140  145.9430 C   0  0  0  0  0  0  0  0  0  0  0  0
  158.6670  213.3360  147.5610 S   0  0  0  0  0  1  0  0  0  0  0  0
  161.7440  213.5530  146.6040 C   0  0  0  0  0  3  0  0  0  0  0  0
  158.5110  212.5930  144.8790 C   0  0  0  0  0  3  0  0  0  0  0  0
  163.4570  213.3320  144.8260 C   0  0  0  0  0  3  0  0  0  0  0  0
  161.2080  205.3620  143.0480 C   0  0  0  0  0  2  0  0  0  0  0  0
  162.3300  204.7140  145.1890 C   0  0  0  0  0  3  0  0  0  0  0  0
  160.4230  206.2030  145.2660 C   0  0  0  0  0  3  0  0  0  0  0  0
  160.5360  206.2770  146.6570 C   0  0  0  0  0  3  0  0  0  0  0  0
  161.5470  205.5690  147.3250 C   0  0  0  0  0  0  0  0  0  0  0  0
  161.3160  205.4170  144.5320 C   0  0  0  0  0  0  0  0  0  0  0  0
  162.4440  204.7880  146.5810 C   0  0  0  0  0  3  0  0  0  0  0  0
  161.3830  204.6560  149.5070 O   0  0  0  0  0  0  0  0  0  0  0  0
  161.6730  205.6520  148.7900 C   0  0  0  0  0  0  0  0  0  0  0  0
  162.1220  206.8650  149.4050 N   0  0  0  0  0  2  0  0  0  0  0  0
  162.1920  207.0060  150.7990 N   0  0  0  0  0  2  0  0  0  0  0  0
  160.8310  207.1640  151.2960 C   0  0  0  0  0  2  0  0  0  0  0  0
  160.8400  207.6110  152.7610 C   0  0  2  0  0  3  0  0  0  0  0  0
  160.5960  210.7520  154.1780 C   0  0  0  0  0  0  0  0  0  0  0  0
  160.2700  211.4620  155.1640 O   0  0  0  0  0  0  0  0  0  0  0  0
  160.8640  210.0660  151.9980 C   0  0  1  0  0  3  0  0  0  0  0  0
  161.4490  209.0040  152.9580 C   0  0  1  0  0  3  0  0  0  0  0  0
  160.3770  211.1480  152.8410 N   0  0  0  0  0  2  0  0  0  0  0  0
  161.9550  210.5850  151.0810 C   0  0  0  0  0  1  0  0  0  0  0  0
  161.2090  209.4900  154.3110 N   0  0  0  0  0  2  0  0  0  0  0  0
  161.1580  205.1840  153.2460 C   0  0  0  0  0  1  0  0  0  0  0  0
  161.5760  206.5940  153.6190 C   0  0  0  0  0  2  0  0  0  0  0  0
  1 23  1  0  0  0  0
  2  1  1  0  0  0  0
  3  2  1  0  0  0  0
  4  5  1  0  0  0  0
  4  3  1  0  0  0  0
  6  8  2  0  0  0  0
  6  5  1  0  0  0  0
  7  8  1  0  0  0  0
  8 10  1  0  0  0  0
  9 17  1  0  0  0  0
 10 11  1  0  0  0  0
 11  9  2  0  0  0  0
 11 15  1  0  0  0  0
 12 13  1  0  0  0  0
 13 18  1  0  0  0  0
 13 20  2  0  0  0  0
 14 21  1  0  0  0  0
 15 14  2  0  0  0  0
 15 12  1  0  0  0  0
 16 20  1  0  0  0  0
 17 12  2  0  0  0  0
 17 22  1  0  0  0  0
 18 19  1  0  0  0  0
 21 18  2  0  0  0  0
 22 16  2  0  0  0  0
 23 28  1  0  0  0  0
 24 29  1  0  0  0  0
 25 26  2  0  0  0  0
 26 27  1  0  0  0  0
 27 31  1  0  0  0  0
 28 24  2  0  0  0  0
 28 25  1  0  0  0  0
 29 27  2  0  0  0  0
 31 32  1  0  0  0  0
 31 30  2  0  0  0  0
 32 33  1  0  0  0  0
 33 34  1  0  0  0  0
 35 34  1  6  0  0  0
 35 44  1  0  0  0  0
 36 42  1  0  0  0  0
 36 37  2  0  0  0  0
 38 41  1  6  0  0  0
 38 40  1  0  0  0  0
 38 39  1  0  0  0  0
 39 35  1  1  0  0  0
 39 42  1  0  0  0  0
 40 36  1  0  0  0  0
 43 44  1  0  0  0  0
M  END
>  <MODEL>
9

>  <REMARK>
 VINA RESULT:      -5.9      1.188      2.143
  Name = 
  14 active torsions:
  status: ('A' for Active; 'I' for Inactive)
    1  A    between atoms: C_5  and  C_12
    2  A    between atoms: C_5  and  N_31
    3  A    between atoms: N_8  and  C_33
    4  A    between atoms: C_11  and  C_44
    5  A    between atoms: C_18  and  N_27
    6  A    between atoms: C_18  and  C_44
    7  A    between atoms: C_19  and  C_44
    8  A    between atoms: C_21  and  C_29
    9  A    between atoms: N_27  and  N_34
   10  A    between atoms: N_31  and  C_38
   11  A    between atoms: C_35  and  C_42
   12  A    between atoms: C_37  and  C_38
   13  A    between atoms: C_37  and  N_40
   14  A    between atoms: N_40  and  C_42
                            x       y       z     vdW  Elec       q    Type
                         _______ _______ _______ _____ _____    ______ ____

>  <TORSDO>
F 14

$$$$
