=
 OpenBabel11052411193D

 68 73  0  0  1  0  0  0  0  0999 V2000
  160.9330  201.7430  152.4290 C   0  0  0  0  0  2  0  0  0  0  0  0
  161.1070  204.6250  148.2850 C   0  0  0  0  0  2  0  0  0  0  0  0
  160.3970  204.7400  152.3380 C   0  0  0  0  0  0  0  0  0  0  0  0
  160.9900  206.0250  150.3720 C   0  0  0  0  0  0  0  0  0  0  0  0
  159.5810  202.4410  152.3330 C   0  0  0  0  0  2  0  0  0  0  0  0
  162.0260  203.4830  148.6970 C   0  0  0  0  0  2  0  0  0  0  0  0
  162.2870  201.0100  148.9410 C   0  0  0  0  0  2  0  0  0  0  0  0
  159.6380  203.8270  152.8840 C   0  0  0  0  0  3  0  0  0  0  0  0
  161.1670  205.6450  151.7910 C   0  0  0  0  0  0  0  0  0  0  0  0
  161.3040  202.1320  148.7260 C   0  0  1  0  0  0  0  0  0  0  0  0
  161.2300  201.2980  149.9970 C   0  0  2  0  0  3  0  0  0  0  0  0
  160.2400  205.1010  149.4410 C   0  0  0  0  0  2  0  0  0  0  0  0
  163.0950  201.6380  151.4810 F   0  0  0  0  0  0  0  0  0  0  0  0
  161.3990  207.2360  149.9680 C   0  0  0  0  0  3  0  0  0  0  0  0
  161.7980  202.0320  151.2140 C   0  0  2  0  0  3  0  0  0  0  0  0
  162.0670  206.4220  152.6940 C   0  0  0  0  0  2  0  0  0  0  0  0
  161.6630  206.2680  154.1560 C   0  0  0  0  0  2  0  0  0  0  0  0
  160.8140  207.4370  154.6550 C   0  0  0  0  0  2  0  0  0  0  0  0
  161.1240  208.7190  153.8990 C   0  0  0  0  0  2  0  0  0  0  0  0
  160.1390  211.1360  156.0090 N   0  0  0  0  0  0  0  0  0  0  0  0
  161.6210  209.7750  154.8660 C   0  0  1  0  0  3  0  0  0  0  0  0
  160.7190  210.9620  154.8670 C   0  0  0  0  0  0  0  0  0  0  0  0
  161.3750  209.3510  156.2740 C   0  0  0  0  0  0  0  0  0  0  0  0
  160.5580  210.1360  156.8900 N   0  0  0  0  0  0  0  0  0  0  0  0
  162.0270  208.2570  156.9130 N   0  0  0  0  0  1  0  0  0  0  0  0
  160.4990  211.8090  153.7360 N   0  0  0  0  0  2  0  0  0  0  0  0
  159.6350  212.9830  153.7910 C   0  0  1  0  0  3  0  0  0  0  0  0
  158.2380  212.7070  153.2410 C   0  0  2  0  0  0  0  0  0  0  0  0
  158.1840  213.1120  151.7780 C   0  0  0  0  0  1  0  0  0  0  0  0
  157.4510  212.5030  156.1700 O   0  0  0  0  0  1  0  0  0  0  0  0
  157.3380  213.5500  154.0370 N   0  0  2  0  0  0  0  0  0  0  0  0
  157.9170  213.5730  155.3910 C   0  0  2  0  0  3  0  0  0  0  0  0
  159.4190  213.4300  155.2250 C   0  0  0  0  0  2  0  0  0  0  0  0
  157.9080  211.3470  153.3690 O   0  0  0  0  0  1  0  0  0  0  0  0
  155.0510  214.1470  153.4170 C   0  0  0  0  0  2  0  0  0  0  0  0
  155.1020  213.9780  154.9170 C   0  0  0  0  0  2  0  0  0  0  0  0
  155.9460  213.0810  154.0290 C   0  0  0  0  0  3  0  0  0  0  0  0
  160.2740  201.7800  147.6630 C   0  0  0  0  0  2  0  0  0  0  0  0
  160.4670  200.4490  147.2060 O   0  0  0  0  0  0  0  0  0  0  0  0
  161.4150  199.0560  145.4920 O   0  0  0  0  0  1  0  0  0  0  0  0
  160.6680  200.1670  145.8550 C   0  0  0  0  0  0  0  0  0  0  0  0
  160.1640  200.8990  144.9580 O   0  0  0  0  0  0  0  0  0  0  0  0
  161.2110  207.7590  148.5710 C   0  0  1  0  0  3  0  0  0  0  0  0
  162.7530  209.7480  148.4050 C   0  0  0  0  0  3  0  0  0  0  0  0
  162.4150  208.5030  148.0550 C   0  0  0  0  0  3  0  0  0  0  0  0
  162.0280  210.6220  149.3540 C   0  0  0  0  0  0  0  0  0  0  0  0
  161.7480  211.9820  149.0140 N   0  0  0  0  0  2  0  0  0  0  0  0
  161.6330  210.1800  150.4660 O   0  0  0  0  0  0  0  0  0  0  0  0
  162.0680  212.5500  147.7120 C   0  0  0  0  0  2  0  0  0  0  0  0
  160.8040  212.7120  146.8950 C   0  0  1  0  0  3  0  0  0  0  0  0
  159.9650  214.4510  148.2940 O   0  0  0  0  0  1  0  0  0  0  0  0
  159.7410  213.3450  147.7370 C   0  0  0  0  0  0  0  0  0  0  0  0
  158.5080  212.7240  147.9040 O   0  0  0  0  0  0  0  0  0  0  0  0
  161.1170  213.5440  145.6400 C   0  0  0  0  0  2  0  0  0  0  0  0
  162.3980  213.5700  140.9330 C   0  0  0  0  0  1  0  0  0  0  0  0
  162.2400  212.7000  142.1650 C   0  0  2  0  0  3  0  0  0  0  0  0
  159.8190  212.0150  142.4240 C   0  0  0  0  0  2  0  0  0  0  0  0
  159.8680  212.3360  143.9310 C   0  0  0  0  0  2  0  0  0  0  0  0
  161.2030  212.7730  144.3920 N   0  0  0  0  0  0  0  0  0  0  0  0
  161.1960  211.6060  141.9070 C   0  0  0  0  0  2  0  0  0  0  0  0
  161.8850  213.5740  143.3720 C   0  0  0  0  0  2  0  0  0  0  0  0
  160.7290  206.7760  147.6780 O   0  0  0  0  0  0  0  0  0  0  0  0
  161.2860  206.9800  146.4000 C   0  0  0  0  0  2  0  0  0  0  0  0
  160.3030  206.5470  145.3220 C   0  0  0  0  0  2  0  0  0  0  0  0
  160.7470  205.2590  144.6420 C   0  0  0  0  0  2  0  0  0  0  0  0
  161.6660  204.4400  145.5430 C   0  0  0  0  0  2  0  0  0  0  0  0
  163.1060  204.4890  145.0530 C   0  0  0  0  0  2  0  0  0  0  0  0
  163.9820  204.5880  146.1320 O   0  0  0  0  0  1  0  0  0  0  0  0
  2  6  1  0  0  0  0
  2 12  1  0  0  0  0
  3  8  2  0  0  0  0
  4  9  1  0  0  0  0
  5  1  1  0  0  0  0
  5  8  1  0  0  0  0
  6 10  1  0  0  0  0
  9  3  2  0  0  0  0
  9 16  1  0  0  0  0
 10 38  1  6  0  0  0
 10  7  1  0  0  0  0
 10 11  1  0  0  0  0
 11  7  1  6  0  0  0
 11 15  1  0  0  0  0
 12  4  1  0  0  0  0
 14  4  2  0  0  0  0
 15 13  1  1  0  0  0
 15  1  1  0  0  0  0
 16 17  1  0  0  0  0
 17 18  1  0  0  0  0
 19 18  1  0  0  0  0
 20 24  1  0  0  0  0
 21 19  1  6  0  0  0
 21 22  1  0  0  0  0
 21 23  1  0  0  0  0
 22 20  2  0  0  0  0
 23 24  2  0  0  0  0
 23 25  1  0  0  0  0
 26 22  1  0  0  0  0
 27 26  1  1  0  0  0
 27 33  1  0  0  0  0
 28 29  1  6  0  0  0
 28 34  1  0  0  0  0
 28 27  1  0  0  0  0
 28 31  1  0  0  0  0
 31 37  1  1  0  0  0
 31 32  1  0  0  0  0
 32 30  1  1  0  0  0
 33 32  1  0  0  0  0
 35 37  1  0  0  0  0
 35 36  1  0  0  0  0
 37 36  1  0  0  0  0
 39 38  1  0  0  0  0
 40 41  1  0  0  0  0
 41 39  1  0  0  0  0
 42 41  2  0  0  0  0
 43 45  1  6  0  0  0
 43 14  1  0  0  0  0
 44 46  1  0  0  0  0
 45 44  2  0  0  0  0
 46 48  2  0  0  0  0
 47 46  1  0  0  0  0
 49 47  1  0  0  0  0
 50 54  1  6  0  0  0
 50 49  1  0  0  0  0
 50 52  1  0  0  0  0
 52 53  2  0  0  0  0
 52 51  1  0  0  0  0
 56 55  1  6  0  0  0
 56 61  1  0  0  0  0
 57 58  1  0  0  0  0
 58 59  1  0  0  0  0
 59 54  1  0  0  0  0
 60 56  1  0  0  0  0
 60 57  1  0  0  0  0
 61 59  1  0  0  0  0
 62 43  1  0  0  0  0
 63 62  1  0  0  0  0
 64 63  1  0  0  0  0
 65 64  1  0  0  0  0
 65 66  1  0  0  0  0
 67 66  1  0  0  0  0
 67 68  1  0  0  0  0
M  END
>  <MODEL>
1

>  <REMARK>
 VINA RESULT:      -2.8      0.000      0.000
  Name = 
  24 active torsions:
  status: ('A' for Active; 'I' for Inactive)
    1  A    between atoms: C_1  and  C_38
    2  A    between atoms: C_1  and  O_52
    3  A    between atoms: C_2  and  C_4
    4  A    between atoms: C_3  and  N_61
    5  A    between atoms: C_5  and  C_35
    6  A    between atoms: C_5  and  N_42
    7  A    between atoms: C_10  and  C_31
    8  A    between atoms: C_10  and  C_58
    9  A    between atoms: C_16  and  C_18
   10  A    between atoms: C_16  and  C_25
   11  A    between atoms: C_18  and  C_27
   12  A    between atoms: C_22  and  C_33
   13  A    between atoms: C_27  and  C_33
   14  A    between atoms: C_29  and  O_52
   15  A    between atoms: C_31  and  C_34
   16  A    between atoms: C_32  and  C_58
   17  A    between atoms: C_34  and  O_56
   18  A    between atoms: C_35  and  C_37
   19  A    between atoms: C_35  and  C_47
   20  A    between atoms: N_36  and  C_67
   21  A    between atoms: C_37  and  N_60
   22  A    between atoms: C_55  and  C_57
   23  A    between atoms: O_56  and  C_57
   24  A    between atoms: C_57  and  C_64
                            x       y       z     vdW  Elec       q    Type
                         _______ _______ _______ _____ _____    ______ ____

>  <TORSDO>
F 24

$$$$
=
 OpenBabel11052411193D

 68 73  0  0  1  0  0  0  0  0999 V2000
  161.8230  202.3200  146.3820 C   0  0  0  0  0  2  0  0  0  0  0  0
  161.3000  205.9480  149.8570 C   0  0  0  0  0  2  0  0  0  0  0  0
  162.5860  205.2460  146.0110 C   0  0  0  0  0  0  0  0  0  0  0  0
  161.8280  206.9140  147.5950 C   0  0  0  0  0  0  0  0  0  0  0  0
  163.2000  202.9490  146.5580 C   0  0  0  0  0  2  0  0  0  0  0  0
  160.3580  204.8010  149.5210 C   0  0  0  0  0  2  0  0  0  0  0  0
  159.9300  202.3440  149.6920 C   0  0  0  0  0  2  0  0  0  0  0  0
  163.3380  204.2050  145.7630 C   0  0  0  0  0  3  0  0  0  0  0  0
  161.8240  206.2790  146.2580 C   0  0  0  0  0  0  0  0  0  0  0  0
  160.9620  203.4310  149.8500 C   0  0  1  0  0  0  0  0  0  0  0  0
  161.1470  202.3660  148.7780 C   0  0  2  0  0  3  0  0  0  0  0  0
  162.3590  206.1450  148.7830 C   0  0  0  0  0  2  0  0  0  0  0  0
  159.5460  202.5170  146.9860 F   0  0  0  0  0  0  0  0  0  0  0  0
  161.4680  208.2000  147.7050 C   0  0  0  0  0  3  0  0  0  0  0  0
  160.8200  202.8840  147.3750 C   0  0  2  0  0  3  0  0  0  0  0  0
  161.1280  206.9170  145.1010 C   0  0  0  0  0  2  0  0  0  0  0  0
  160.7390  205.8870  144.0460 C   0  0  0  0  0  2  0  0  0  0  0  0
  161.6970  205.8770  142.8550 C   0  0  0  0  0  2  0  0  0  0  0  0
  161.8030  207.2490  142.2080 C   0  0  0  0  0  2  0  0  0  0  0  0
  162.3610  208.5980  139.1850 N   0  0  0  0  0  0  0  0  0  0  0  0
  161.4430  207.1490  140.7390 C   0  0  1  0  0  3  0  0  0  0  0  0
  161.4500  208.4940  140.0970 C   0  0  0  0  0  0  0  0  0  0  0  0
  162.5720  206.5640  139.9630 C   0  0  0  0  0  0  0  0  0  0  0  0
  163.0540  207.3880  139.0950 N   0  0  0  0  0  0  0  0  0  0  0  0
  163.0270  205.2190  140.0870 N   0  0  0  0  0  1  0  0  0  0  0  0
  160.5680  209.5630  140.4520 N   0  0  0  0  0  2  0  0  0  0  0  0
  160.5850  210.8540  139.7720 C   0  0  1  0  0  3  0  0  0  0  0  0
  159.3150  211.1040  138.9630 C   0  0  2  0  0  0  0  0  0  0  0  0
  159.5450  210.6840  137.5220 C   0  0  0  0  0  1  0  0  0  0  0  0
  158.5070  212.8290  141.3320 O   0  0  0  0  0  1  0  0  0  0  0  0
  159.0900  212.5520  139.0420 N   0  0  2  0  0  0  0  0  0  0  0  0
  159.5380  212.9470  140.3880 C   0  0  2  0  0  3  0  0  0  0  0  0
  160.6540  211.9920  140.7730 C   0  0  0  0  0  2  0  0  0  0  0  0
  158.2300  210.3900  139.4980 O   0  0  0  0  0  1  0  0  0  0  0  0
  157.6260  213.7600  137.5020 C   0  0  0  0  0  2  0  0  0  0  0  0
  157.5650  214.4490  138.8460 C   0  0  0  0  0  2  0  0  0  0  0  0
  157.6960  212.9370  138.7800 C   0  0  0  0  0  3  0  0  0  0  0  0
  161.7980  203.2330  151.1060 C   0  0  0  0  0  2  0  0  0  0  0  0
  162.0280  204.4780  151.7510 O   0  0  0  0  0  0  0  0  0  0  0  0
  161.6270  206.0390  153.5330 O   0  0  0  0  0  1  0  0  0  0  0  0
  161.3480  204.8280  152.9170 C   0  0  0  0  0  0  0  0  0  0  0  0
  160.4690  204.0670  153.4080 O   0  0  0  0  0  0  0  0  0  0  0  0
  161.4970  208.9700  148.9950 C   0  0  1  0  0  3  0  0  0  0  0  0
  162.0570  208.5460  151.4170 C   0  0  0  0  0  3  0  0  0  0  0  0
  161.7510  208.0970  150.1960 C   0  0  0  0  0  3  0  0  0  0  0  0
  162.2000  209.9620  151.8230 C   0  0  0  0  0  0  0  0  0  0  0  0
  161.2520  210.5580  152.7110 N   0  0  0  0  0  2  0  0  0  0  0  0
  163.1640  210.6580  151.4070 O   0  0  0  0  0  0  0  0  0  0  0  0
  160.1690  209.8060  153.3270 C   0  0  0  0  0  2  0  0  0  0  0  0
  160.1200  210.0960  154.8130 C   0  0  1  0  0  3  0  0  0  0  0  0
  162.4730  209.9580  155.1690 O   0  0  0  0  0  0  0  0  0  0  0  0
  161.3330  209.5230  155.4760 C   0  0  0  0  0  0  0  0  0  0  0  0
  161.2100  208.5180  156.4290 O   0  0  0  0  0  1  0  0  0  0  0  0
  160.0100  211.6150  155.0280 C   0  0  0  0  0  2  0  0  0  0  0  0
  155.2610  210.5270  155.2800 C   0  0  0  0  0  1  0  0  0  0  0  0
  156.3090  211.5690  155.6200 C   0  0  2  0  0  3  0  0  0  0  0  0
  156.7870  212.9960  153.5870 C   0  0  0  0  0  2  0  0  0  0  0  0
  158.3040  212.8930  153.8460 C   0  0  0  0  0  2  0  0  0  0  0  0
  158.6360  212.1360  155.0720 N   0  0  0  0  0  0  0  0  0  0  0  0
  156.0010  212.8830  154.8900 C   0  0  0  0  0  2  0  0  0  0  0  0
  157.7020  211.0280  155.2870 C   0  0  0  0  0  2  0  0  0  0  0  0
  162.3350  210.1060  148.9370 O   0  0  0  0  0  0  0  0  0  0  0  0
  161.5530  211.2760  148.9270 C   0  0  0  0  0  2  0  0  0  0  0  0
  161.5000  211.8640  147.5250 C   0  0  0  0  0  2  0  0  0  0  0  0
  161.6750  213.3760  147.5420 C   0  0  0  0  0  2  0  0  0  0  0  0
  160.4730  214.0840  146.9260 C   0  0  0  0  0  2  0  0  0  0  0  0
  160.1120  213.4860  145.5740 C   0  0  0  0  0  2  0  0  0  0  0  0
  158.7380  213.2690  145.4910 O   0  0  0  0  0  1  0  0  0  0  0  0
  1  5  1  0  0  0  0
  1 15  1  0  0  0  0
  3  9  2  0  0  0  0
  4 14  2  0  0  0  0
  4 12  1  0  0  0  0
  6 10  1  0  0  0  0
  6  2  1  0  0  0  0
  7 10  1  0  0  0  0
  8  3  2  0  0  0  0
  8  5  1  0  0  0  0
  9  4  1  0  0  0  0
 10 38  1  1  0  0  0
 11  7  1  1  0  0  0
 11 10  1  0  0  0  0
 12  2  1  0  0  0  0
 15 13  1  6  0  0  0
 15 11  1  0  0  0  0
 16  9  1  0  0  0  0
 17 16  1  0  0  0  0
 18 17  1  0  0  0  0
 19 18  1  0  0  0  0
 20 22  2  0  0  0  0
 21 19  1  1  0  0  0
 22 26  1  0  0  0  0
 22 21  1  0  0  0  0
 23 25  1  0  0  0  0
 23 21  1  0  0  0  0
 24 20  1  0  0  0  0
 24 23  2  0  0  0  0
 27 26  1  1  0  0  0
 27 33  1  0  0  0  0
 28 29  1  6  0  0  0
 28 31  1  0  0  0  0
 28 34  1  0  0  0  0
 28 27  1  0  0  0  0
 31 37  1  1  0  0  0
 31 32  1  0  0  0  0
 32 33  1  0  0  0  0
 32 30  1  1  0  0  0
 35 37  1  0  0  0  0
 35 36  1  0  0  0  0
 37 36  1  0  0  0  0
 38 39  1  0  0  0  0
 39 41  1  0  0  0  0
 41 42  2  0  0  0  0
 41 40  1  0  0  0  0
 43 14  1  6  0  0  0
 43 45  1  0  0  0  0
 44 46  1  0  0  0  0
 45 44  2  0  0  0  0
 46 47  1  0  0  0  0
 47 49  1  0  0  0  0
 48 46  2  0  0  0  0
 50 49  1  6  0  0  0
 50 54  1  0  0  0  0
 50 52  1  0  0  0  0
 51 52  2  0  0  0  0
 52 53  1  0  0  0  0
 54 59  1  0  0  0  0
 56 55  1  6  0  0  0
 57 58  1  0  0  0  0
 57 60  1  0  0  0  0
 58 59  1  0  0  0  0
 59 61  1  0  0  0  0
 60 56  1  0  0  0  0
 61 56  1  0  0  0  0
 62 43  1  0  0  0  0
 63 62  1  0  0  0  0
 64 65  1  0  0  0  0
 64 63  1  0  0  0  0
 66 65  1  0  0  0  0
 67 66  1  0  0  0  0
 68 67  1  0  0  0  0
M  END
>  <MODEL>
2

>  <REMARK>
 VINA RESULT:       0.1      3.498     10.501
  Name = 
  24 active torsions:
  status: ('A' for Active; 'I' for Inactive)
    1  A    between atoms: C_1  and  C_38
    2  A    between atoms: C_1  and  O_52
    3  A    between atoms: C_2  and  C_4
    4  A    between atoms: C_3  and  N_61
    5  A    between atoms: C_5  and  C_35
    6  A    between atoms: C_5  and  N_42
    7  A    between atoms: C_10  and  C_31
    8  A    between atoms: C_10  and  C_58
    9  A    between atoms: C_16  and  C_18
   10  A    between atoms: C_16  and  C_25
   11  A    between atoms: C_18  and  C_27
   12  A    between atoms: C_22  and  C_33
   13  A    between atoms: C_27  and  C_33
   14  A    between atoms: C_29  and  O_52
   15  A    between atoms: C_31  and  C_34
   16  A    between atoms: C_32  and  C_58
   17  A    between atoms: C_34  and  O_56
   18  A    between atoms: C_35  and  C_37
   19  A    between atoms: C_35  and  C_47
   20  A    between atoms: N_36  and  C_67
   21  A    between atoms: C_37  and  N_60
   22  A    between atoms: C_55  and  C_57
   23  A    between atoms: O_56  and  C_57
   24  A    between atoms: C_57  and  C_64
                            x       y       z     vdW  Elec       q    Type
                         _______ _______ _______ _____ _____    ______ ____

>  <TORSDO>
F 24

$$$$
