=
 OpenBabel11042421353D

 45 50  0  0  1  0  0  0  0  0999 V2000
  161.0040  207.1800  152.6040 C   0  0  2  0  0  3  0  0  0  0  0  0
  160.9230  208.2390  151.5130 C   0  0  0  0  0  2  0  0  0  0  0  0
  162.2440  208.3470  150.7730 C   0  0  0  0  0  2  0  0  0  0  0  0
  161.8260  208.4300  148.4350 O   0  0  0  0  0  0  0  0  0  0  0  0
  162.0470  209.0780  149.4940 C   0  0  0  0  0  0  0  0  0  0  0  0
  162.0780  210.5050  149.4800 N   0  0  0  0  0  2  0  0  0  0  0  0
  161.8540  211.2590  148.2560 C   0  0  0  0  0  2  0  0  0  0  0  0
  158.7660  213.0510  147.4680 C   0  0  0  0  0  3  0  0  0  0  0  0
  160.9200  212.3970  148.5200 C   0  0  0  0  0  0  0  0  0  0  0  0
  160.1580  214.4530  151.4280 F   0  0  0  0  0  0  0  0  0  0  0  0
  158.0660  213.5130  148.5020 C   0  0  0  0  0  3  0  0  0  0  0  0
  160.7590  212.7800  149.7880 C   0  0  0  0  0  3  0  0  0  0  0  0
  160.2540  213.1500  147.3940 C   0  0  1  0  0  3  0  0  0  0  0  0
  158.6450  214.1070  149.7230 C   0  0  0  0  0  3  0  0  0  0  0  0
  159.8410  213.8350  150.2660 C   0  0  0  0  0  0  0  0  0  0  0  0
  160.0650  211.9870  145.3250 O   0  0  0  0  0  0  0  0  0  0  0  0
  161.9630  213.3370  145.5220 N   0  0  0  0  0  2  0  0  0  0  0  0
  160.7470  212.7780  146.0300 C   0  0  0  0  0  0  0  0  0  0  0  0
  162.4510  213.0680  144.1770 C   0  0  0  0  0  2  0  0  0  0  0  0
  163.5230  214.0740  143.8010 C   0  0  0  0  0  1  0  0  0  0  0  0
  161.6440  207.7210  153.7530 O   0  0  0  0  0  0  0  0  0  0  0  0
  160.9280  208.2570  154.8310 C   0  0  0  0  0  0  0  0  0  0  0  0
  159.9750  207.6100  155.3460 O   0  0  0  0  0  0  0  0  0  0  0  0
  161.3110  209.7870  156.6750 C   0  0  0  0  0  2  0  0  0  0  0  0
  161.2920  209.5790  155.3660 C   0  0  0  0  0  0  0  0  0  0  0  0
  161.6320  210.7170  154.4550 C   0  0  0  0  0  2  0  0  0  0  0  0
  158.2940  212.2440  153.3680 N   0  0  0  0  0  4  0  0  0  0  0  0
  156.2280  211.7440  154.8390 S   0  0  0  0  0  1  0  0  0  0  0  0
  157.5180  213.4920  153.2320 C   0  0  0  0  0  2  0  0  0  0  0  0
  158.9540  212.4360  155.0720 N   0  0  0  0  0  0  0  0  0  0  0  0
  160.5370  210.9920  153.5360 N   0  0  0  0  0  0  0  0  0  0  0  0
  159.4110  211.7760  153.9250 C   0  0  0  0  0  0  0  0  0  0  0  0
  157.6220  212.8290  154.4040 C   0  0  2  0  0  0  0  0  0  0  0  0
  161.8150  206.0010  152.1030 C   0  0  0  0  0  2  0  0  0  0  0  0
  160.9700  204.7390  152.1040 C   0  0  0  0  0  2  0  0  0  0  0  0
  161.1930  204.8670  149.6170 C   0  0  0  0  0  3  0  0  0  0  0  0
  161.0200  204.0870  150.7660 C   0  0  0  0  0  0  0  0  0  0  0  0
  160.9520  202.0900  149.3950 C   0  0  0  0  0  3  0  0  0  0  0  0
  160.8950  202.6970  150.6510 C   0  0  0  0  0  3  0  0  0  0  0  0
  161.2460  204.2580  148.3590 C   0  0  0  0  0  3  0  0  0  0  0  0
  161.1300  202.8700  148.2420 C   0  0  0  0  0  0  0  0  0  0  0  0
  161.2030  202.2670  146.9460 N   0  0  0  0  0  2  0  0  0  0  0  0
  160.0300  201.6500  144.9440 C   0  0  0  0  0  2  0  0  0  0  0  0
  160.6960  200.5300  145.4750 O   0  0  0  0  0  0  0  0  0  0  0  0
  160.1420  201.4330  146.4010 C   0  0  1  0  0  3  0  0  0  0  0  0
  1  2  1  6  0  0  0
  1 21  1  0  0  0  0
  3  2  1  0  0  0  0
  4  5  2  0  0  0  0
  5  3  1  0  0  0  0
  6  5  1  0  0  0  0
  7  9  1  0  0  0  0
  7  6  1  0  0  0  0
  8 11  2  0  0  0  0
  9 12  2  0  0  0  0
 11 14  1  0  0  0  0
 12 15  1  0  0  0  0
 13 18  1  6  0  0  0
 13  8  1  0  0  0  0
 13  9  1  0  0  0  0
 14 15  2  0  0  0  0
 15 10  1  0  0  0  0
 16 18  2  0  0  0  0
 17 18  1  0  0  0  0
 19 17  1  0  0  0  0
 20 19  1  0  0  0  0
 21 22  1  0  0  0  0
 22 23  2  0  0  0  0
 22 25  1  0  0  0  0
 25 24  2  0  0  0  0
 26 25  1  0  0  0  0
 27 32  1  0  0  0  0
 27 33  1  0  0  0  0
 27 30  1  0  0  0  0
 29 27  1  0  0  0  0
 29 33  1  0  0  0  0
 31 32  2  0  0  0  0
 31 26  1  0  0  0  0
 32 30  1  0  0  0  0
 33 28  1  1  0  0  0
 33 30  1  0  0  0  0
 34 35  1  0  0  0  0
 34  1  1  0  0  0  0
 36 37  1  0  0  0  0
 37 35  1  0  0  0  0
 38 39  1  0  0  0  0
 39 37  2  0  0  0  0
 40 36  2  0  0  0  0
 41 40  1  0  0  0  0
 41 38  2  0  0  0  0
 42 41  1  0  0  0  0
 43 44  1  0  0  0  0
 43 45  1  0  0  0  0
 44 45  1  0  0  0  0
 45 42  1  1  0  0  0
M  END
>  <MODEL>
1

>  <REMARK>
 VINA RESULT:      -7.7      0.000      0.000
  Name = 
  17 active torsions:
  status: ('A' for Active; 'I' for Inactive)
    1  A    between atoms: C_3  and  C_21
    2  A    between atoms: C_4  and  C_22
    3  A    between atoms: C_4  and  O_24
    4  A    between atoms: C_4  and  C_44
    5  A    between atoms: C_9  and  C_13
    6  A    between atoms: C_13  and  C_44
    7  A    between atoms: C_15  and  N_25
    8  A    between atoms: C_15  and  C_34
    9  A    between atoms: C_16  and  O_24
   10  A    between atoms: C_16  and  C_34
   11  A    between atoms: C_17  and  N_29
   12  A    between atoms: N_20  and  C_43
   13  A    between atoms: N_20  and  C_45
   14  A    between atoms: C_21  and  N_32
   15  A    between atoms: C_22  and  C_35
   16  A    between atoms: C_30  and  C_35
   17  A    between atoms: C_36  and  C_42
                            x       y       z     vdW  Elec       q    Type
                         _______ _______ _______ _____ _____    ______ ____

>  <TORSDO>
F 17

$$$$
=
 OpenBabel11042421353D

 45 50  0  0  1  0  0  0  0  0999 V2000
  160.9000  207.4570  153.0970 C   0  0  2  0  0  3  0  0  0  0  0  0
  160.8650  208.5450  152.0310 C   0  0  0  0  0  2  0  0  0  0  0  0
  162.1880  208.6090  151.2890 C   0  0  0  0  0  2  0  0  0  0  0  0
  161.8750  208.8800  148.9490 O   0  0  0  0  0  0  0  0  0  0  0  0
  162.0400  209.4410  150.0660 C   0  0  0  0  0  0  0  0  0  0  0  0
  162.0560  210.8640  150.1700 N   0  0  0  0  0  2  0  0  0  0  0  0
  161.8780  211.7140  149.0020 C   0  0  0  0  0  2  0  0  0  0  0  0
  158.9740  213.6370  147.8910 C   0  0  0  0  0  3  0  0  0  0  0  0
  160.8360  212.7510  149.2770 C   0  0  0  0  0  0  0  0  0  0  0  0
  159.2420  214.0320  152.2910 F   0  0  0  0  0  0  0  0  0  0  0  0
  158.0100  213.8310  148.7890 C   0  0  0  0  0  3  0  0  0  0  0  0
  160.3400  212.8110  150.5140 C   0  0  0  0  0  3  0  0  0  0  0  0
  160.4240  213.7540  148.2280 C   0  0  1  0  0  3  0  0  0  0  0  0
  158.2270  214.1090  150.2220 C   0  0  0  0  0  3  0  0  0  0  0  0
  159.2650  213.7160  150.9740 C   0  0  0  0  0  0  0  0  0  0  0  0
  162.4020  214.2690  147.0080 O   0  0  0  0  0  0  0  0  0  0  0  0
  160.7930  213.0730  145.8070 N   0  0  0  0  0  2  0  0  0  0  0  0
  161.2640  213.7290  146.9890 C   0  0  0  0  0  0  0  0  0  0  0  0
  161.5960  212.9550  144.5990 C   0  0  0  0  0  2  0  0  0  0  0  0
  160.7610  212.3790  143.4720 C   0  0  0  0  0  1  0  0  0  0  0  0
  161.3990  207.9940  154.3160 O   0  0  0  0  0  0  0  0  0  0  0  0
  160.7290  208.9970  155.0260 C   0  0  0  0  0  0  0  0  0  0  0  0
  159.6490  208.7400  155.6250 O   0  0  0  0  0  0  0  0  0  0  0  0
  162.3020  210.6340  155.8840 C   0  0  0  0  0  2  0  0  0  0  0  0
  161.2900  210.3580  155.0760 C   0  0  0  0  0  0  0  0  0  0  0  0
  160.7270  211.4580  154.2320 C   0  0  0  0  0  2  0  0  0  0  0  0
  157.3940  212.8860  155.4610 N   0  0  0  0  0  4  0  0  0  0  0  0
  155.7570  213.7800  153.6720 S   0  0  0  0  0  1  0  0  0  0  0  0
  156.0850  212.5650  156.0640 C   0  0  0  0  0  2  0  0  0  0  0  0
  157.4890  211.6050  154.1480 N   0  0  0  0  0  0  0  0  0  0  0  0
  159.8680  212.3310  155.0210 N   0  0  0  0  0  0  0  0  0  0  0  0
  158.4480  212.2930  154.9020 C   0  0  0  0  0  0  0  0  0  0  0  0
  156.3280  212.4240  154.7420 C   0  0  2  0  0  0  0  0  0  0  0  0
  161.8160  206.3370  152.6440 C   0  0  0  0  0  2  0  0  0  0  0  0
  161.0360  205.0440  152.4940 C   0  0  0  0  0  2  0  0  0  0  0  0
  161.1920  205.5350  150.0470 C   0  0  0  0  0  3  0  0  0  0  0  0
  161.0550  204.5940  151.0740 C   0  0  0  0  0  0  0  0  0  0  0  0
  160.9660  202.8170  149.4290 C   0  0  0  0  0  3  0  0  0  0  0  0
  160.9370  203.2350  150.7610 C   0  0  0  0  0  3  0  0  0  0  0  0
  161.2170  205.1170  148.7130 C   0  0  0  0  0  3  0  0  0  0  0  0
  161.1080  203.7590  148.3980 C   0  0  0  0  0  0  0  0  0  0  0  0
  161.1520  203.3520  147.0270 N   0  0  0  0  0  2  0  0  0  0  0  0
  160.9860  204.1090  144.7540 C   0  0  0  0  0  2  0  0  0  0  0  0
  160.9570  205.2100  145.6300 O   0  0  0  0  0  0  0  0  0  0  0  0
  161.7980  204.1410  145.9870 C   0  0  1  0  0  3  0  0  0  0  0  0
  1  2  1  6  0  0  0
  1 21  1  0  0  0  0
  3  2  1  0  0  0  0
  4  5  2  0  0  0  0
  5  6  1  0  0  0  0
  5  3  1  0  0  0  0
  7  9  1  0  0  0  0
  7  6  1  0  0  0  0
  8 13  1  0  0  0  0
  8 11  2  0  0  0  0
  9 12  2  0  0  0  0
 11 14  1  0  0  0  0
 12 15  1  0  0  0  0
 13 18  1  6  0  0  0
 13  9  1  0  0  0  0
 14 15  2  0  0  0  0
 15 10  1  0  0  0  0
 17 18  1  0  0  0  0
 18 16  2  0  0  0  0
 19 17  1  0  0  0  0
 20 19  1  0  0  0  0
 21 22  1  0  0  0  0
 22 25  1  0  0  0  0
 22 23  2  0  0  0  0
 25 24  2  0  0  0  0
 26 31  1  0  0  0  0
 26 25  1  0  0  0  0
 27 29  1  0  0  0  0
 30 33  1  0  0  0  0
 30 32  1  0  0  0  0
 30 27  1  0  0  0  0
 32 31  2  0  0  0  0
 32 27  1  0  0  0  0
 33 28  1  6  0  0  0
 33 27  1  0  0  0  0
 33 29  1  0  0  0  0
 34  1  1  0  0  0  0
 35 34  1  0  0  0  0
 36 37  1  0  0  0  0
 37 35  1  0  0  0  0
 38 39  1  0  0  0  0
 39 37  2  0  0  0  0
 40 36  2  0  0  0  0
 41 40  1  0  0  0  0
 41 38  2  0  0  0  0
 42 41  1  0  0  0  0
 43 44  1  0  0  0  0
 43 45  1  0  0  0  0
 44 45  1  0  0  0  0
 45 42  1  1  0  0  0
M  END
>  <MODEL>
2

>  <REMARK>
 VINA RESULT:      -7.6      1.518      1.662
  Name = 
  17 active torsions:
  status: ('A' for Active; 'I' for Inactive)
    1  A    between atoms: C_3  and  C_21
    2  A    between atoms: C_4  and  C_22
    3  A    between atoms: C_4  and  O_24
    4  A    between atoms: C_4  and  C_44
    5  A    between atoms: C_9  and  C_13
    6  A    between atoms: C_13  and  C_44
    7  A    between atoms: C_15  and  N_25
    8  A    between atoms: C_15  and  C_34
    9  A    between atoms: C_16  and  O_24
   10  A    between atoms: C_16  and  C_34
   11  A    between atoms: C_17  and  N_29
   12  A    between atoms: N_20  and  C_43
   13  A    between atoms: N_20  and  C_45
   14  A    between atoms: C_21  and  N_32
   15  A    between atoms: C_22  and  C_35
   16  A    between atoms: C_30  and  C_35
   17  A    between atoms: C_36  and  C_42
                            x       y       z     vdW  Elec       q    Type
                         _______ _______ _______ _____ _____    ______ ____

>  <TORSDO>
F 17

$$$$
=
 OpenBabel11042421353D

 45 50  0  0  1  0  0  0  0  0999 V2000
  161.5190  213.3010  148.4590 C   0  0  2  0  0  3  0  0  0  0  0  0
  162.2790  211.9810  148.4780 C   0  0  0  0  0  2  0  0  0  0  0  0
  161.8040  211.1070  149.6250 C   0  0  0  0  0  2  0  0  0  0  0  0
  162.0800  209.2880  148.1210 O   0  0  0  0  0  0  0  0  0  0  0  0
  162.0840  209.6800  149.3190 C   0  0  0  0  0  0  0  0  0  0  0  0
  162.3850  208.7730  150.3800 N   0  0  0  0  0  2  0  0  0  0  0  0
  162.7000  207.3770  150.1200 C   0  0  0  0  0  2  0  0  0  0  0  0
  161.2580  204.0800  150.7670 C   0  0  0  0  0  3  0  0  0  0  0  0
  161.8260  206.4920  150.9510 C   0  0  0  0  0  0  0  0  0  0  0  0
  160.7440  206.5110  154.4290 F   0  0  0  0  0  0  0  0  0  0  0  0
  161.1950  203.6970  152.0410 C   0  0  0  0  0  3  0  0  0  0  0  0
  161.8180  206.6980  152.2690 C   0  0  0  0  0  3  0  0  0  0  0  0
  160.9170  205.4640  150.3230 C   0  0  1  0  0  3  0  0  0  0  0  0
  160.8600  204.5790  153.1770 C   0  0  0  0  0  3  0  0  0  0  0  0
  161.0780  205.8990  153.2680 C   0  0  0  0  0  0  0  0  0  0  0  0
  160.1780  206.4740  148.2980 O   0  0  0  0  0  0  0  0  0  0  0  0
  161.5310  204.5890  148.0170 N   0  0  0  0  0  2  0  0  0  0  0  0
  160.8390  205.5420  148.8300 C   0  0  0  0  0  0  0  0  0  0  0  0
  161.5490  204.6600  146.5630 C   0  0  0  0  0  2  0  0  0  0  0  0
  162.9790  204.7390  146.0630 C   0  0  0  0  0  1  0  0  0  0  0  0
  160.1870  213.0960  148.9120 O   0  0  0  0  0  0  0  0  0  0  0  0
  159.6710  213.7350  150.0460 C   0  0  0  0  0  0  0  0  0  0  0  0
  160.4170  214.4530  150.7660 O   0  0  0  0  0  0  0  0  0  0  0  0
  157.3530  213.3310  149.4540 C   0  0  0  0  0  2  0  0  0  0  0  0
  158.2510  213.5680  150.3980 C   0  0  0  0  0  0  0  0  0  0  0  0
  157.7880  213.6740  151.8170 C   0  0  0  0  0  2  0  0  0  0  0  0
  159.0550  210.9440  154.1830 N   0  0  0  0  0  4  0  0  0  0  0  0
  161.5200  210.2110  153.9320 S   0  0  0  0  0  1  0  0  0  0  0  0
  159.4150  210.6180  155.5770 C   0  0  0  0  0  2  0  0  0  0  0  0
  159.9340  212.5430  153.9680 N   0  0  0  0  0  0  0  0  0  0  0  0
  157.7780  212.3680  152.4600 N   0  0  0  0  0  0  0  0  0  0  0  0
  158.7780  211.9890  153.4040 C   0  0  0  0  0  0  0  0  0  0  0  0
  160.2650  211.2510  154.7390 C   0  0  2  0  0  0  0  0  0  0  0  0
  161.4770  213.8370  147.0410 C   0  0  0  0  0  2  0  0  0  0  0  0
  160.4010  213.1260  146.2390 C   0  0  0  0  0  2  0  0  0  0  0  0
  160.0800  212.1330  143.9670 C   0  0  0  0  0  3  0  0  0  0  0  0
  160.9060  212.8030  144.8760 C   0  0  0  0  0  0  0  0  0  0  0  0
  162.6700  212.8720  143.2150 C   0  0  0  0  0  3  0  0  0  0  0  0
  162.2040  213.1680  144.4980 C   0  0  0  0  0  3  0  0  0  0  0  0
  160.5490  211.8330  142.6840 C   0  0  0  0  0  3  0  0  0  0  0  0
  161.8410  212.2040  142.3010 C   0  0  0  0  0  0  0  0  0  0  0  0
  162.2940  211.9010  140.9780 N   0  0  0  0  0  2  0  0  0  0  0  0
  162.3690  213.1760  138.9450 C   0  0  0  0  0  2  0  0  0  0  0  0
  162.2400  211.8060  138.6480 O   0  0  0  0  0  0  0  0  0  0  0  0
  161.5520  212.2740  139.7820 C   0  0  1  0  0  3  0  0  0  0  0  0
  1 34  1  6  0  0  0
  1  2  1  0  0  0  0
  1 21  1  0  0  0  0
  2  3  1  0  0  0  0
  4  5  2  0  0  0  0
  5  3  1  0  0  0  0
  5  6  1  0  0  0  0
  7  6  1  0  0  0  0
  7  9  1  0  0  0  0
  8 11  2  0  0  0  0
  9 12  2  0  0  0  0
 11 14  1  0  0  0  0
 12 15  1  0  0  0  0
 13 18  1  6  0  0  0
 13  8  1  0  0  0  0
 13  9  1  0  0  0  0
 14 15  2  0  0  0  0
 15 10  1  0  0  0  0
 16 18  2  0  0  0  0
 17 18  1  0  0  0  0
 19 17  1  0  0  0  0
 20 19  1  0  0  0  0
 21 22  1  0  0  0  0
 22 25  1  0  0  0  0
 22 23  2  0  0  0  0
 24 25  2  0  0  0  0
 25 26  1  0  0  0  0
 26 31  1  0  0  0  0
 27 33  1  0  0  0  0
 27 29  1  0  0  0  0
 30 27  1  0  0  0  0
 30 33  1  0  0  0  0
 31 32  2  0  0  0  0
 32 30  1  0  0  0  0
 32 27  1  0  0  0  0
 33 28  1  6  0  0  0
 33 29  1  0  0  0  0
 35 34  1  0  0  0  0
 36 37  1  0  0  0  0
 37 35  1  0  0  0  0
 38 39  1  0  0  0  0
 39 37  2  0  0  0  0
 40 36  2  0  0  0  0
 41 40  1  0  0  0  0
 41 38  2  0  0  0  0
 42 41  1  0  0  0  0
 43 45  1  0  0  0  0
 44 43  1  0  0  0  0
 44 45  1  0  0  0  0
 45 42  1  1  0  0  0
M  END
>  <MODEL>
3

>  <REMARK>
 VINA RESULT:      -7.1      2.901      8.237
  Name = 
  17 active torsions:
  status: ('A' for Active; 'I' for Inactive)
    1  A    between atoms: C_3  and  C_21
    2  A    between atoms: C_4  and  C_22
    3  A    between atoms: C_4  and  O_24
    4  A    between atoms: C_4  and  C_44
    5  A    between atoms: C_9  and  C_13
    6  A    between atoms: C_13  and  C_44
    7  A    between atoms: C_15  and  N_25
    8  A    between atoms: C_15  and  C_34
    9  A    between atoms: C_16  and  O_24
   10  A    between atoms: C_16  and  C_34
   11  A    between atoms: C_17  and  N_29
   12  A    between atoms: N_20  and  C_43
   13  A    between atoms: N_20  and  C_45
   14  A    between atoms: C_21  and  N_32
   15  A    between atoms: C_22  and  C_35
   16  A    between atoms: C_30  and  C_35
   17  A    between atoms: C_36  and  C_42
                            x       y       z     vdW  Elec       q    Type
                         _______ _______ _______ _____ _____    ______ ____

>  <TORSDO>
F 17

$$$$
=
 OpenBabel11042421353D

 45 50  0  0  1  0  0  0  0  0999 V2000
  161.9120  208.4870  152.1840 C   0  0  2  0  0  3  0  0  0  0  0  0
  162.0580  208.8660  150.7160 C   0  0  0  0  0  2  0  0  0  0  0  0
  162.2310  210.3660  150.5640 C   0  0  0  0  0  2  0  0  0  0  0  0
  161.9070  209.8680  148.2630 O   0  0  0  0  0  0  0  0  0  0  0  0
  161.9980  210.7600  149.1500 C   0  0  0  0  0  0  0  0  0  0  0  0
  161.8490  212.1390  148.8120 N   0  0  0  0  0  2  0  0  0  0  0  0
  161.5840  212.5630  147.4460 C   0  0  0  0  0  2  0  0  0  0  0  0
  158.3850  212.5780  145.6760 C   0  0  0  0  0  3  0  0  0  0  0  0
  160.1790  213.0600  147.3280 C   0  0  0  0  0  0  0  0  0  0  0  0
  157.7070  214.3180  149.6890 F   0  0  0  0  0  0  0  0  0  0  0  0
  157.2880  212.5760  146.4300 C   0  0  0  0  0  3  0  0  0  0  0  0
  159.4970  213.2520  148.4580 C   0  0  0  0  0  3  0  0  0  0  0  0
  159.5780  213.4190  145.9910 C   0  0  1  0  0  3  0  0  0  0  0  0
  157.1220  213.3280  147.6900 C   0  0  0  0  0  3  0  0  0  0  0  0
  158.0830  213.6750  148.5580 C   0  0  0  0  0  0  0  0  0  0  0  0
  161.3960  214.3410  144.7600 O   0  0  0  0  0  0  0  0  0  0  0  0
  160.5490  212.3370  143.9060 N   0  0  0  0  0  2  0  0  0  0  0  0
  160.5540  213.4080  144.8550 C   0  0  0  0  0  0  0  0  0  0  0  0
  161.5200  212.2380  142.8260 C   0  0  0  0  0  2  0  0  0  0  0  0
  160.8940  211.5600  141.6220 C   0  0  0  0  0  1  0  0  0  0  0  0
  160.8920  207.5080  152.3290 O   0  0  0  0  0  0  0  0  0  0  0  0
  161.1730  206.1590  152.5770 C   0  0  0  0  0  0  0  0  0  0  0  0
  161.4600  205.7730  153.7430 O   0  0  0  0  0  0  0  0  0  0  0  0
  161.5790  203.9530  151.6510 C   0  0  0  0  0  2  0  0  0  0  0  0
  161.1320  205.1870  151.4720 C   0  0  0  0  0  0  0  0  0  0  0  0
  160.6010  205.5680  150.1250 C   0  0  0  0  0  2  0  0  0  0  0  0
  162.0850  204.5190  146.7560 N   0  0  0  0  0  4  0  0  0  0  0  0
  160.9830  205.4820  144.6250 S   0  0  0  0  0  1  0  0  0  0  0  0
  163.2420  204.6450  145.8480 C   0  0  0  0  0  2  0  0  0  0  0  0
  161.8090  206.2800  147.2020 N   0  0  0  0  0  0  0  0  0  0  0  0
  161.0440  204.6260  149.1070 N   0  0  0  0  0  0  0  0  0  0  0  0
  161.5710  205.0650  147.8570 C   0  0  0  0  0  0  0  0  0  0  0  0
  162.2670  205.5780  145.9100 C   0  0  2  0  0  0  0  0  0  0  0  0
  161.5280  209.7160  152.9850 C   0  0  0  0  0  2  0  0  0  0  0  0
  160.8580  209.3110  154.2860 C   0  0  0  0  0  2  0  0  0  0  0  0
  158.9790  210.1180  155.7240 C   0  0  0  0  0  3  0  0  0  0  0  0
  159.9470  210.3930  154.7530 C   0  0  0  0  0  0  0  0  0  0  0  0
  159.2070  212.7000  154.6740 C   0  0  0  0  0  3  0  0  0  0  0  0
  160.0570  211.6860  154.2250 C   0  0  0  0  0  3  0  0  0  0  0  0
  158.1260  211.1330  156.1700 C   0  0  0  0  0  3  0  0  0  0  0  0
  158.2380  212.4260  155.6510 C   0  0  0  0  0  0  0  0  0  0  0  0
  157.3650  213.4530  156.1340 N   0  0  0  0  0  2  0  0  0  0  0  0
  155.3160  214.4530  155.3850 C   0  0  0  0  0  2  0  0  0  0  0  0
  155.4710  213.1830  154.8000 O   0  0  0  0  0  0  0  0  0  0  0  0
  155.9150  213.3260  156.1270 C   0  0  1  0  0  3  0  0  0  0  0  0
  1  2  1  6  0  0  0
  1 21  1  0  0  0  0
  1 34  1  0  0  0  0
  3  2  1  0  0  0  0
  4  5  2  0  0  0  0
  5  3  1  0  0  0  0
  6  5  1  0  0  0  0
  7  6  1  0  0  0  0
  8 13  1  0  0  0  0
  8 11  2  0  0  0  0
  9  7  1  0  0  0  0
  9 12  2  0  0  0  0
 11 14  1  0  0  0  0
 12 15  1  0  0  0  0
 13 18  1  6  0  0  0
 13  9  1  0  0  0  0
 14 15  2  0  0  0  0
 15 10  1  0  0  0  0
 16 18  2  0  0  0  0
 17 18  1  0  0  0  0
 19 17  1  0  0  0  0
 20 19  1  0  0  0  0
 21 22  1  0  0  0  0
 22 23  2  0  0  0  0
 25 24  2  0  0  0  0
 25 22  1  0  0  0  0
 26 25  1  0  0  0  0
 27 30  1  0  0  0  0
 27 32  1  0  0  0  0
 29 33  1  0  0  0  0
 29 27  1  0  0  0  0
 30 32  1  0  0  0  0
 31 26  1  0  0  0  0
 32 31  2  0  0  0  0
 33 28  1  6  0  0  0
 33 27  1  0  0  0  0
 33 30  1  0  0  0  0
 34 35  1  0  0  0  0
 35 37  1  0  0  0  0
 36 40  1  0  0  0  0
 37 36  2  0  0  0  0
 38 41  1  0  0  0  0
 39 38  2  0  0  0  0
 39 37  1  0  0  0  0
 41 42  1  0  0  0  0
 41 40  2  0  0  0  0
 43 45  1  0  0  0  0
 44 43  1  0  0  0  0
 44 45  1  0  0  0  0
 45 42  1  6  0  0  0
M  END
>  <MODEL>
4

>  <REMARK>
 VINA RESULT:      -7.1      3.175      7.933
  Name = 
  17 active torsions:
  status: ('A' for Active; 'I' for Inactive)
    1  A    between atoms: C_3  and  C_21
    2  A    between atoms: C_4  and  C_22
    3  A    between atoms: C_4  and  O_24
    4  A    between atoms: C_4  and  C_44
    5  A    between atoms: C_9  and  C_13
    6  A    between atoms: C_13  and  C_44
    7  A    between atoms: C_15  and  N_25
    8  A    between atoms: C_15  and  C_34
    9  A    between atoms: C_16  and  O_24
   10  A    between atoms: C_16  and  C_34
   11  A    between atoms: C_17  and  N_29
   12  A    between atoms: N_20  and  C_43
   13  A    between atoms: N_20  and  C_45
   14  A    between atoms: C_21  and  N_32
   15  A    between atoms: C_22  and  C_35
   16  A    between atoms: C_30  and  C_35
   17  A    between atoms: C_36  and  C_42
                            x       y       z     vdW  Elec       q    Type
                         _______ _______ _______ _____ _____    ______ ____

>  <TORSDO>
F 17

$$$$
=
 OpenBabel11042421353D

 45 50  0  0  1  0  0  0  0  0999 V2000
  161.1010  212.6970  147.9610 C   0  0  2  0  0  3  0  0  0  0  0  0
  162.2960  212.0710  148.6670 C   0  0  0  0  0  2  0  0  0  0  0  0
  161.8370  211.1190  149.7570 C   0  0  0  0  0  2  0  0  0  0  0  0
  162.0590  209.4250  148.1050 O   0  0  0  0  0  0  0  0  0  0  0  0
  162.0740  209.7150  149.3320 C   0  0  0  0  0  0  0  0  0  0  0  0
  162.3470  208.7130  150.3120 N   0  0  0  0  0  2  0  0  0  0  0  0
  162.6200  207.3350  149.9350 C   0  0  0  0  0  2  0  0  0  0  0  0
  161.3490  203.9640  150.5590 C   0  0  0  0  0  3  0  0  0  0  0  0
  161.7740  206.4050  150.7450 C   0  0  0  0  0  0  0  0  0  0  0  0
  160.5890  206.3780  154.1890 F   0  0  0  0  0  0  0  0  0  0  0  0
  161.2690  203.5840  151.8320 C   0  0  0  0  0  3  0  0  0  0  0  0
  161.7150  206.6160  152.0610 C   0  0  0  0  0  3  0  0  0  0  0  0
  160.9430  205.3250  150.0970 C   0  0  1  0  0  3  0  0  0  0  0  0
  160.8510  204.4500  152.9530 C   0  0  0  0  0  3  0  0  0  0  0  0
  160.9910  205.7800  153.0430 C   0  0  0  0  0  0  0  0  0  0  0  0
  160.1130  206.1970  148.0440 O   0  0  0  0  0  0  0  0  0  0  0  0
  161.7790  204.5740  147.8160 N   0  0  0  0  0  2  0  0  0  0  0  0
  160.9050  205.3930  148.6020 C   0  0  0  0  0  0  0  0  0  0  0  0
  161.8360  204.6510  146.3640 C   0  0  0  0  0  2  0  0  0  0  0  0
  161.2520  203.3920  145.7530 C   0  0  0  0  0  1  0  0  0  0  0  0
  161.4910  213.1630  146.6750 O   0  0  0  0  0  0  0  0  0  0  0  0
  160.8500  212.7520  145.5000 C   0  0  0  0  0  0  0  0  0  0  0  0
  159.7140  212.2060  145.5520 O   0  0  0  0  0  0  0  0  0  0  0  0
  162.8250  213.0600  144.1230 C   0  0  0  0  0  2  0  0  0  0  0  0
  161.5050  212.9610  144.1980 C   0  0  0  0  0  0  0  0  0  0  0  0
  160.7050  213.0810  142.9390 C   0  0  0  0  0  2  0  0  0  0  0  0
  161.2330  210.2440  140.4230 N   0  0  0  0  0  4  0  0  0  0  0  0
  161.0020  210.8270  137.9160 S   0  0  0  0  0  1  0  0  0  0  0  0
  162.2210  209.3340  139.8100 C   0  0  0  0  0  2  0  0  0  0  0  0
  162.1210  211.8470  140.2960 N   0  0  0  0  0  0  0  0  0  0  0  0
  160.4680  211.7710  142.3480 N   0  0  0  0  0  0  0  0  0  0  0  0
  161.1660  211.3360  141.1830 C   0  0  0  0  0  0  0  0  0  0  0  0
  162.0480  210.6060  139.3870 C   0  0  2  0  0  0  0  0  0  0  0  0
  160.5940  213.8720  148.7740 C   0  0  0  0  0  2  0  0  0  0  0  0
  159.0760  213.8890  148.7900 C   0  0  0  0  0  2  0  0  0  0  0  0
  157.2460  214.1500  150.4740 C   0  0  0  0  0  3  0  0  0  0  0  0
  158.5770  213.8240  150.1920 C   0  0  0  0  0  0  0  0  0  0  0  0
  158.9580  213.3650  152.5410 C   0  0  0  0  0  3  0  0  0  0  0  0
  159.4330  213.4350  151.2300 C   0  0  0  0  0  3  0  0  0  0  0  0
  156.7720  214.0840  151.7880 C   0  0  0  0  0  3  0  0  0  0  0  0
  157.6220  213.6880  152.8250 C   0  0  0  0  0  0  0  0  0  0  0  0
  157.1110  213.6120  154.1600 N   0  0  0  0  0  2  0  0  0  0  0  0
  156.3130  211.6550  155.2990 C   0  0  0  0  0  2  0  0  0  0  0  0
  155.7950  212.8110  155.9110 O   0  0  0  0  0  0  0  0  0  0  0  0
  155.9260  212.8420  154.5110 C   0  0  1  0  0  3  0  0  0  0  0  0
  1  2  1  1  0  0  0
  1 34  1  0  0  0  0
  2  3  1  0  0  0  0
  4  5  2  0  0  0  0
  5  3  1  0  0  0  0
  5  6  1  0  0  0  0
  7  6  1  0  0  0  0
  7  9  1  0  0  0  0
  8 11  2  0  0  0  0
  9 12  2  0  0  0  0
 11 14  1  0  0  0  0
 12 15  1  0  0  0  0
 13 18  1  6  0  0  0
 13  8  1  0  0  0  0
 13  9  1  0  0  0  0
 14 15  2  0  0  0  0
 15 10  1  0  0  0  0
 16 18  2  0  0  0  0
 17 18  1  0  0  0  0
 19 17  1  0  0  0  0
 20 19  1  0  0  0  0
 21  1  1  0  0  0  0
 22 23  2  0  0  0  0
 22 21  1  0  0  0  0
 24 25  2  0  0  0  0
 25 22  1  0  0  0  0
 26 25  1  0  0  0  0
 27 32  1  0  0  0  0
 29 27  1  0  0  0  0
 30 27  1  0  0  0  0
 30 32  1  0  0  0  0
 31 26  1  0  0  0  0
 32 31  2  0  0  0  0
 33 28  1  6  0  0  0
 33 29  1  0  0  0  0
 33 30  1  0  0  0  0
 33 27  1  0  0  0  0
 34 35  1  0  0  0  0
 35 37  1  0  0  0  0
 36 40  1  0  0  0  0
 37 36  2  0  0  0  0
 37 39  1  0  0  0  0
 38 41  1  0  0  0  0
 39 38  2  0  0  0  0
 40 41  2  0  0  0  0
 41 42  1  0  0  0  0
 43 44  1  0  0  0  0
 45 42  1  1  0  0  0
 45 43  1  0  0  0  0
 45 44  1  0  0  0  0
M  END
>  <MODEL>
5

>  <REMARK>
 VINA RESULT:      -6.7      3.909     10.731
  Name = 
  17 active torsions:
  status: ('A' for Active; 'I' for Inactive)
    1  A    between atoms: C_3  and  C_21
    2  A    between atoms: C_4  and  C_22
    3  A    between atoms: C_4  and  O_24
    4  A    between atoms: C_4  and  C_44
    5  A    between atoms: C_9  and  C_13
    6  A    between atoms: C_13  and  C_44
    7  A    between atoms: C_15  and  N_25
    8  A    between atoms: C_15  and  C_34
    9  A    between atoms: C_16  and  O_24
   10  A    between atoms: C_16  and  C_34
   11  A    between atoms: C_17  and  N_29
   12  A    between atoms: N_20  and  C_43
   13  A    between atoms: N_20  and  C_45
   14  A    between atoms: C_21  and  N_32
   15  A    between atoms: C_22  and  C_35
   16  A    between atoms: C_30  and  C_35
   17  A    between atoms: C_36  and  C_42
                            x       y       z     vdW  Elec       q    Type
                         _______ _______ _______ _____ _____    ______ ____

>  <TORSDO>
F 17

$$$$
=
 OpenBabel11042421353D

 45 50  0  0  1  0  0  0  0  0999 V2000
  161.7170  209.5020  149.2610 C   0  0  2  0  0  3  0  0  0  0  0  0
  162.0180  208.0210  149.0720 C   0  0  0  0  0  2  0  0  0  0  0  0
  162.2000  207.6950  147.6000 C   0  0  0  0  0  2  0  0  0  0  0  0
  160.4160  206.2550  146.9770 O   0  0  0  0  0  0  0  0  0  0  0  0
  161.6290  206.3550  147.3060 C   0  0  0  0  0  0  0  0  0  0  0  0
  162.4630  205.1990  147.3690 N   0  0  0  0  0  2  0  0  0  0  0  0
  161.9510  203.8740  147.0540 C   0  0  0  0  0  2  0  0  0  0  0  0
  161.2330  200.9740  149.1620 C   0  0  0  0  0  3  0  0  0  0  0  0
  161.2780  203.2870  148.2530 C   0  0  0  0  0  0  0  0  0  0  0  0
  160.1870  204.6030  151.4690 F   0  0  0  0  0  0  0  0  0  0  0  0
  161.2410  201.1780  150.4780 C   0  0  0  0  0  3  0  0  0  0  0  0
  161.2150  204.0390  149.3530 C   0  0  0  0  0  3  0  0  0  0  0  0
  160.6110  201.9340  148.2020 C   0  0  1  0  0  3  0  0  0  0  0  0
  160.7180  202.3820  151.1540 C   0  0  0  0  0  3  0  0  0  0  0  0
  160.6520  203.6250  150.6570 C   0  0  0  0  0  0  0  0  0  0  0  0
  159.8860  201.9490  145.9340 O   0  0  0  0  0  0  0  0  0  0  0  0
  161.2010  200.1110  146.5310 N   0  0  0  0  0  2  0  0  0  0  0  0
  160.5300  201.3400  146.8300 C   0  0  0  0  0  0  0  0  0  0  0  0
  161.2160  199.5260  145.1980 C   0  0  0  0  0  2  0  0  0  0  0  0
  161.2040  198.0120  145.2930 C   0  0  0  0  0  1  0  0  0  0  0  0
  162.4180  210.2630  148.2840 O   0  0  0  0  0  0  0  0  0  0  0  0
  162.3790  211.6620  148.2520 C   0  0  0  0  0  0  0  0  0  0  0  0
  163.4500  212.3290  148.2870 O   0  0  0  0  0  0  0  0  0  0  0  0
  160.5890  212.9680  149.2400 C   0  0  0  0  0  2  0  0  0  0  0  0
  161.0840  212.3580  148.1730 C   0  0  0  0  0  0  0  0  0  0  0  0
  160.2930  212.3810  146.9030 C   0  0  0  0  0  2  0  0  0  0  0  0
  161.0260  213.2850  143.2560 N   0  0  0  0  0  4  0  0  0  0  0  0
  160.5670  211.4730  141.4710 S   0  0  0  0  0  1  0  0  0  0  0  0
  160.6050  214.1010  142.1000 C   0  0  0  0  0  2  0  0  0  0  0  0
  159.4120  212.5900  143.7900 N   0  0  0  0  0  0  0  0  0  0  0  0
  161.1110  212.8430  145.7900 N   0  0  0  0  0  0  0  0  0  0  0  0
  160.6020  212.9000  144.4590 C   0  0  0  0  0  0  0  0  0  0  0  0
  160.0120  212.9270  142.4120 C   0  0  2  0  0  0  0  0  0  0  0  0
  162.1740  209.9370  150.6390 C   0  0  0  0  0  2  0  0  0  0  0  0
  161.8230  208.8790  151.6710 C   0  0  0  0  0  2  0  0  0  0  0  0
  160.2510  210.6380  152.5020 C   0  0  0  0  0  3  0  0  0  0  0  0
  160.9860  209.4740  152.7510 C   0  0  0  0  0  0  0  0  0  0  0  0
  160.1380  209.4280  155.0210 C   0  0  0  0  0  3  0  0  0  0  0  0
  160.9320  208.8730  154.0140 C   0  0  0  0  0  3  0  0  0  0  0  0
  159.4590  211.1960  153.5120 C   0  0  0  0  0  3  0  0  0  0  0  0
  159.3960  210.5930  154.7710 C   0  0  0  0  0  0  0  0  0  0  0  0
  158.5680  211.1720  155.7840 N   0  0  0  0  0  2  0  0  0  0  0  0
  156.4960  211.7850  156.8310 C   0  0  0  0  0  2  0  0  0  0  0  0
  156.9880  212.8640  156.0730 O   0  0  0  0  0  0  0  0  0  0  0  0
  157.1900  211.5760  155.5440 C   0  0  1  0  0  3  0  0  0  0  0  0
  1  2  1  6  0  0  0
  1 34  1  0  0  0  0
  3  2  1  0  0  0  0
  4  5  2  0  0  0  0
  5  6  1  0  0  0  0
  5  3  1  0  0  0  0
  7  6  1  0  0  0  0
  7  9  1  0  0  0  0
  8 11  2  0  0  0  0
  9 12  2  0  0  0  0
 11 14  1  0  0  0  0
 12 15  1  0  0  0  0
 13 18  1  6  0  0  0
 13  9  1  0  0  0  0
 13  8  1  0  0  0  0
 15 14  2  0  0  0  0
 15 10  1  0  0  0  0
 16 18  2  0  0  0  0
 17 18  1  0  0  0  0
 19 20  1  0  0  0  0
 19 17  1  0  0  0  0
 21  1  1  0  0  0  0
 22 21  1  0  0  0  0
 22 23  2  0  0  0  0
 25 22  1  0  0  0  0
 25 24  2  0  0  0  0
 26 25  1  0  0  0  0
 27 30  1  0  0  0  0
 27 32  1  0  0  0  0
 29 33  1  0  0  0  0
 29 27  1  0  0  0  0
 30 32  1  0  0  0  0
 31 26  1  0  0  0  0
 32 31  2  0  0  0  0
 33 28  1  6  0  0  0
 33 27  1  0  0  0  0
 33 30  1  0  0  0  0
 34 35  1  0  0  0  0
 35 37  1  0  0  0  0
 36 37  2  0  0  0  0
 36 40  1  0  0  0  0
 37 39  1  0  0  0  0
 39 38  2  0  0  0  0
 40 41  2  0  0  0  0
 41 38  1  0  0  0  0
 41 42  1  0  0  0  0
 44 43  1  0  0  0  0
 45 42  1  1  0  0  0
 45 44  1  0  0  0  0
 45 43  1  0  0  0  0
M  END
>  <MODEL>
6

>  <REMARK>
 VINA RESULT:      -6.4      3.407     10.026
  Name = 
  17 active torsions:
  status: ('A' for Active; 'I' for Inactive)
    1  A    between atoms: C_3  and  C_21
    2  A    between atoms: C_4  and  C_22
    3  A    between atoms: C_4  and  O_24
    4  A    between atoms: C_4  and  C_44
    5  A    between atoms: C_9  and  C_13
    6  A    between atoms: C_13  and  C_44
    7  A    between atoms: C_15  and  N_25
    8  A    between atoms: C_15  and  C_34
    9  A    between atoms: C_16  and  O_24
   10  A    between atoms: C_16  and  C_34
   11  A    between atoms: C_17  and  N_29
   12  A    between atoms: N_20  and  C_43
   13  A    between atoms: N_20  and  C_45
   14  A    between atoms: C_21  and  N_32
   15  A    between atoms: C_22  and  C_35
   16  A    between atoms: C_30  and  C_35
   17  A    between atoms: C_36  and  C_42
                            x       y       z     vdW  Elec       q    Type
                         _______ _______ _______ _____ _____    ______ ____

>  <TORSDO>
F 17

$$$$
=
 OpenBabel11042421353D

 45 50  0  0  1  0  0  0  0  0999 V2000
  162.1620  205.8470  151.6330 C   0  0  2  0  0  3  0  0  0  0  0  0
  161.6780  206.8440  150.5880 C   0  0  0  0  0  2  0  0  0  0  0  0
  162.2640  208.2200  150.8490 C   0  0  0  0  0  2  0  0  0  0  0  0
  161.8230  208.5460  148.5370 O   0  0  0  0  0  0  0  0  0  0  0  0
  162.0870  209.0780  149.6490 C   0  0  0  0  0  0  0  0  0  0  0  0
  162.1870  210.4970  149.7700 N   0  0  0  0  0  2  0  0  0  0  0  0
  161.9850  211.3740  148.6270 C   0  0  0  0  0  2  0  0  0  0  0  0
  159.6020  213.9970  147.7280 C   0  0  0  0  0  3  0  0  0  0  0  0
  161.1500  212.5490  149.0250 C   0  0  0  0  0  0  0  0  0  0  0  0
  159.6250  213.6610  152.1400 F   0  0  0  0  0  0  0  0  0  0  0  0
  158.6330  214.2470  148.6050 C   0  0  0  0  0  3  0  0  0  0  0  0
  160.5880  212.5240  150.2350 C   0  0  0  0  0  3  0  0  0  0  0  0
  161.0190  213.7620  148.1370 C   0  0  1  0  0  3  0  0  0  0  0  0
  158.7970  214.2560  150.0730 C   0  0  0  0  0  3  0  0  0  0  0  0
  159.6810  213.5490  150.7920 C   0  0  0  0  0  0  0  0  0  0  0  0
  163.0760  214.2540  147.0440 O   0  0  0  0  0  0  0  0  0  0  0  0
  161.4990  213.1530  145.7150 N   0  0  0  0  0  2  0  0  0  0  0  0
  161.9250  213.7520  146.9440 C   0  0  0  0  0  0  0  0  0  0  0  0
  162.3630  213.0510  144.5490 C   0  0  0  0  0  2  0  0  0  0  0  0
  161.5600  212.6000  143.3440 C   0  0  0  0  0  1  0  0  0  0  0  0
  161.2000  204.8110  151.7910 O   0  0  0  0  0  0  0  0  0  0  0  0
  160.5390  204.2250  150.7050 C   0  0  0  0  0  0  0  0  0  0  0  0
  159.7100  204.8930  150.0290 O   0  0  0  0  0  0  0  0  0  0  0  0
  161.6090  202.0850  151.1110 C   0  0  0  0  0  2  0  0  0  0  0  0
  160.8160  202.8240  150.3490 C   0  0  0  0  0  0  0  0  0  0  0  0
  160.2260  202.2060  149.1200 C   0  0  0  0  0  2  0  0  0  0  0  0
  162.3960  203.6950  146.3400 N   0  0  0  0  0  4  0  0  0  0  0  0
  161.1970  205.0750  144.5120 S   0  0  0  0  0  1  0  0  0  0  0  0
  163.4170  204.7090  146.0090 C   0  0  0  0  0  2  0  0  0  0  0  0
  161.2100  204.7090  147.3100 N   0  0  0  0  0  0  0  0  0  0  0  0
  161.1980  202.1750  148.0360 N   0  0  0  0  0  0  0  0  0  0  0  0
  161.5580  203.3530  147.3180 C   0  0  0  0  0  0  0  0  0  0  0  0
  162.1010  205.0060  146.0890 C   0  0  2  0  0  0  0  0  0  0  0  0
  162.3390  206.5560  152.9610 C   0  0  0  0  0  2  0  0  0  0  0  0
  161.1780  206.2420  153.8870 C   0  0  0  0  0  2  0  0  0  0  0  0
  160.3300  207.3610  155.9570 C   0  0  0  0  0  3  0  0  0  0  0  0
  160.7720  207.4660  154.6340 C   0  0  0  0  0  0  0  0  0  0  0  0
  160.4600  209.8680  154.7250 C   0  0  0  0  0  3  0  0  0  0  0  0
  160.8310  208.7220  154.0170 C   0  0  0  0  0  3  0  0  0  0  0  0
  159.9550  208.5080  156.6640 C   0  0  0  0  0  3  0  0  0  0  0  0
  160.0210  209.7640  156.0540 C   0  0  0  0  0  0  0  0  0  0  0  0
  159.6470  210.9260  156.8010 N   0  0  0  0  0  2  0  0  0  0  0  0
  159.6320  213.3240  156.6870 C   0  0  0  0  0  2  0  0  0  0  0  0
  159.9450  212.7860  155.4250 O   0  0  0  0  0  0  0  0  0  0  0  0
  159.0020  212.0820  156.1950 C   0  0  1  0  0  3  0  0  0  0  0  0
  1  2  1  6  0  0  0
  1 21  1  0  0  0  0
  1 34  1  0  0  0  0
  2  3  1  0  0  0  0
  4  5  2  0  0  0  0
  5  6  1  0  0  0  0
  5  3  1  0  0  0  0
  7  9  1  0  0  0  0
  7  6  1  0  0  0  0
  8 13  1  0  0  0  0
  8 11  2  0  0  0  0
  9 12  2  0  0  0  0
 11 14  1  0  0  0  0
 12 15  1  0  0  0  0
 13 18  1  6  0  0  0
 13  9  1  0  0  0  0
 14 15  2  0  0  0  0
 15 10  1  0  0  0  0
 17 18  1  0  0  0  0
 18 16  2  0  0  0  0
 19 17  1  0  0  0  0
 20 19  1  0  0  0  0
 22 21  1  0  0  0  0
 23 22  2  0  0  0  0
 25 22  1  0  0  0  0
 25 24  2  0  0  0  0
 26 25  1  0  0  0  0
 27 30  1  0  0  0  0
 27 32  1  0  0  0  0
 29 33  1  0  0  0  0
 29 27  1  0  0  0  0
 30 32  1  0  0  0  0
 31 26  1  0  0  0  0
 32 31  2  0  0  0  0
 33 28  1  6  0  0  0
 33 27  1  0  0  0  0
 33 30  1  0  0  0  0
 34 35  1  0  0  0  0
 35 37  1  0  0  0  0
 36 40  1  0  0  0  0
 37 36  2  0  0  0  0
 38 41  1  0  0  0  0
 39 37  1  0  0  0  0
 39 38  2  0  0  0  0
 41 40  2  0  0  0  0
 41 42  1  0  0  0  0
 44 45  1  0  0  0  0
 44 43  1  0  0  0  0
 45 43  1  0  0  0  0
 45 42  1  1  0  0  0
M  END
>  <MODEL>
7

>  <REMARK>
 VINA RESULT:      -6.4      2.883      7.738
  Name = 
  17 active torsions:
  status: ('A' for Active; 'I' for Inactive)
    1  A    between atoms: C_3  and  C_21
    2  A    between atoms: C_4  and  C_22
    3  A    between atoms: C_4  and  O_24
    4  A    between atoms: C_4  and  C_44
    5  A    between atoms: C_9  and  C_13
    6  A    between atoms: C_13  and  C_44
    7  A    between atoms: C_15  and  N_25
    8  A    between atoms: C_15  and  C_34
    9  A    between atoms: C_16  and  O_24
   10  A    between atoms: C_16  and  C_34
   11  A    between atoms: C_17  and  N_29
   12  A    between atoms: N_20  and  C_43
   13  A    between atoms: N_20  and  C_45
   14  A    between atoms: C_21  and  N_32
   15  A    between atoms: C_22  and  C_35
   16  A    between atoms: C_30  and  C_35
   17  A    between atoms: C_36  and  C_42
                            x       y       z     vdW  Elec       q    Type
                         _______ _______ _______ _____ _____    ______ ____

>  <TORSDO>
F 17

$$$$
=
 OpenBabel11042421353D

 45 50  0  0  1  0  0  0  0  0999 V2000
  160.0750  213.3300  148.2540 C   0  0  2  0  0  3  0  0  0  0  0  0
  161.5850  213.1500  148.3220 C   0  0  0  0  0  2  0  0  0  0  0  0
  161.9850  211.7790  147.8050 C   0  0  0  0  0  2  0  0  0  0  0  0
  162.0010  211.2010  150.1100 O   0  0  0  0  0  0  0  0  0  0  0  0
  161.9560  210.7940  148.9170 C   0  0  0  0  0  0  0  0  0  0  0  0
  161.8480  209.4000  148.6280 N   0  0  0  0  0  2  0  0  0  0  0  0
  161.7810  208.4070  149.6890 C   0  0  0  0  0  2  0  0  0  0  0  0
  160.8950  204.8600  149.6840 C   0  0  0  0  0  3  0  0  0  0  0  0
  161.9530  207.0360  149.1170 C   0  0  0  0  0  0  0  0  0  0  0  0
  162.9630  205.7310  145.8700 F   0  0  0  0  0  0  0  0  0  0  0  0
  160.7620  204.2810  148.4930 C   0  0  0  0  0  3  0  0  0  0  0  0
  162.1440  206.9370  147.8000 C   0  0  0  0  0  3  0  0  0  0  0  0
  162.0010  205.8120  149.9990 C   0  0  1  0  0  3  0  0  0  0  0  0
  161.6210  204.5440  147.3210 C   0  0  0  0  0  3  0  0  0  0  0  0
  162.2720  205.6800  147.0330 C   0  0  0  0  0  0  0  0  0  0  0  0
  163.1650  206.2010  152.0390 O   0  0  0  0  0  0  0  0  0  0  0  0
  160.8360  206.3250  152.2000 N   0  0  0  0  0  2  0  0  0  0  0  0
  162.0470  206.1130  151.4650 C   0  0  0  0  0  0  0  0  0  0  0  0
  160.8240  206.6910  153.6080 C   0  0  0  0  0  2  0  0  0  0  0  0
  160.8340  208.2010  153.7540 C   0  0  0  0  0  1  0  0  0  0  0  0
  159.7200  213.9630  147.0300 O   0  0  0  0  0  0  0  0  0  0  0  0
  158.8970  213.3510  146.0770 C   0  0  0  0  0  0  0  0  0  0  0  0
  157.8350  212.7700  146.4330 O   0  0  0  0  0  0  0  0  0  0  0  0
  158.5080  214.0250  143.7790 C   0  0  0  0  0  2  0  0  0  0  0  0
  159.2720  213.3880  144.6540 C   0  0  0  0  0  0  0  0  0  0  0  0
  160.5060  212.7020  144.1600 C   0  0  0  0  0  2  0  0  0  0  0  0
  161.1770  210.9690  140.8130 N   0  0  0  0  0  4  0  0  0  0  0  0
  161.7810  212.4750  138.8010 S   0  0  0  0  0  1  0  0  0  0  0  0
  162.1070  210.1050  140.0590 C   0  0  0  0  0  2  0  0  0  0  0  0
  162.3520  212.1750  141.5470 N   0  0  0  0  0  0  0  0  0  0  0  0
  160.2020  211.8310  143.0330 N   0  0  0  0  0  0  0  0  0  0  0  0
  161.1060  211.6730  141.9420 C   0  0  0  0  0  0  0  0  0  0  0  0
  162.3050  211.4340  140.1980 C   0  0  2  0  0  0  0  0  0  0  0  0
  159.6190  214.2040  149.4060 C   0  0  0  0  0  2  0  0  0  0  0  0
  158.2300  213.7940  149.8630 C   0  0  0  0  0  2  0  0  0  0  0  0
  158.9500  212.2130  151.6630 C   0  0  0  0  0  3  0  0  0  0  0  0
  158.2640  213.3750  151.2930 C   0  0  0  0  0  0  0  0  0  0  0  0
  157.6560  213.7490  153.6090 C   0  0  0  0  0  3  0  0  0  0  0  0
  157.6130  214.1400  152.2690 C   0  0  0  0  0  3  0  0  0  0  0  0
  158.9890  211.8200  153.0050 C   0  0  0  0  0  3  0  0  0  0  0  0
  158.3480  212.5860  153.9820 C   0  0  0  0  0  0  0  0  0  0  0  0
  158.4140  212.1730  155.3510 N   0  0  0  0  0  2  0  0  0  0  0  0
  160.2210  211.2100  156.6040 C   0  0  0  0  0  2  0  0  0  0  0  0
  158.9900  210.8390  157.1750 O   0  0  0  0  0  0  0  0  0  0  0  0
  159.0350  210.9250  155.7720 C   0  0  1  0  0  3  0  0  0  0  0  0
  1  2  1  6  0  0  0
  1 34  1  0  0  0  0
  3  2  1  0  0  0  0
  3  5  1  0  0  0  0
  5  4  2  0  0  0  0
  6  5  1  0  0  0  0
  6  7  1  0  0  0  0
  8 13  1  0  0  0  0
  9  7  1  0  0  0  0
  9 13  1  0  0  0  0
 10 15  1  0  0  0  0
 11  8  2  0  0  0  0
 12  9  2  0  0  0  0
 13 18  1  1  0  0  0
 14 11  1  0  0  0  0
 15 14  2  0  0  0  0
 15 12  1  0  0  0  0
 17 19  1  0  0  0  0
 18 16  2  0  0  0  0
 18 17  1  0  0  0  0
 19 20  1  0  0  0  0
 21  1  1  0  0  0  0
 22 23  2  0  0  0  0
 22 21  1  0  0  0  0
 24 25  2  0  0  0  0
 25 22  1  0  0  0  0
 26 25  1  0  0  0  0
 27 30  1  0  0  0  0
 27 32  1  0  0  0  0
 29 33  1  0  0  0  0
 29 27  1  0  0  0  0
 30 32  1  0  0  0  0
 31 26  1  0  0  0  0
 32 31  2  0  0  0  0
 33 28  1  6  0  0  0
 33 27  1  0  0  0  0
 33 30  1  0  0  0  0
 34 35  1  0  0  0  0
 35 37  1  0  0  0  0
 36 40  1  0  0  0  0
 37 36  2  0  0  0  0
 37 39  1  0  0  0  0
 38 41  1  0  0  0  0
 39 38  2  0  0  0  0
 40 41  2  0  0  0  0
 41 42  1  0  0  0  0
 43 44  1  0  0  0  0
 45 42  1  1  0  0  0
 45 43  1  0  0  0  0
 45 44  1  0  0  0  0
M  END
>  <MODEL>
8

>  <REMARK>
 VINA RESULT:      -6.2      3.941     10.591
  Name = 
  17 active torsions:
  status: ('A' for Active; 'I' for Inactive)
    1  A    between atoms: C_3  and  C_21
    2  A    between atoms: C_4  and  C_22
    3  A    between atoms: C_4  and  O_24
    4  A    between atoms: C_4  and  C_44
    5  A    between atoms: C_9  and  C_13
    6  A    between atoms: C_13  and  C_44
    7  A    between atoms: C_15  and  N_25
    8  A    between atoms: C_15  and  C_34
    9  A    between atoms: C_16  and  O_24
   10  A    between atoms: C_16  and  C_34
   11  A    between atoms: C_17  and  N_29
   12  A    between atoms: N_20  and  C_43
   13  A    between atoms: N_20  and  C_45
   14  A    between atoms: C_21  and  N_32
   15  A    between atoms: C_22  and  C_35
   16  A    between atoms: C_30  and  C_35
   17  A    between atoms: C_36  and  C_42
                            x       y       z     vdW  Elec       q    Type
                         _______ _______ _______ _____ _____    ______ ____

>  <TORSDO>
F 17

$$$$
=
 OpenBabel11042421353D

 45 50  0  0  1  0  0  0  0  0999 V2000
  161.4900  211.7820  149.2010 C   0  0  2  0  0  3  0  0  0  0  0  0
  161.5360  210.5030  148.3760 C   0  0  0  0  0  2  0  0  0  0  0  0
  162.6160  209.5700  148.8950 C   0  0  0  0  0  2  0  0  0  0  0  0
  162.2060  208.4280  150.9390 O   0  0  0  0  0  0  0  0  0  0  0  0
  161.9980  208.4810  149.6960 C   0  0  0  0  0  0  0  0  0  0  0  0
  161.1520  207.5230  149.0590 N   0  0  0  0  0  2  0  0  0  0  0  0
  160.5010  206.4640  149.8130 C   0  0  0  0  0  2  0  0  0  0  0  0
  160.4010  202.8160  150.0400 C   0  0  0  0  0  3  0  0  0  0  0  0
  160.9830  205.1290  149.3420 C   0  0  0  0  0  0  0  0  0  0  0  0
  162.3560  203.8700  146.2120 F   0  0  0  0  0  0  0  0  0  0  0  0
  160.4360  202.1470  148.8900 C   0  0  0  0  0  3  0  0  0  0  0  0
  161.2340  204.9900  148.0390 C   0  0  0  0  0  3  0  0  0  0  0  0
  161.2650  204.0040  150.3080 C   0  0  1  0  0  3  0  0  0  0  0  0
  161.2550  202.5140  147.7170 C   0  0  0  0  0  3  0  0  0  0  0  0
  161.6550  203.7440  147.3630 C   0  0  0  0  0  0  0  0  0  0  0  0
  160.5490  203.6790  152.5550 O   0  0  0  0  0  0  0  0  0  0  0  0
  161.8820  205.5690  152.2140 N   0  0  0  0  0  2  0  0  0  0  0  0
  161.1970  204.4010  151.7500 C   0  0  0  0  0  0  0  0  0  0  0  0
  161.9090  205.9600  153.6150 C   0  0  0  0  0  2  0  0  0  0  0  0
  160.8670  207.0310  153.8770 C   0  0  0  0  0  1  0  0  0  0  0  0
  160.1880  211.9570  149.7460 O   0  0  0  0  0  0  0  0  0  0  0  0
  159.9650  212.5920  150.9730 C   0  0  0  0  0  0  0  0  0  0  0  0
  160.5430  212.1810  152.0170 O   0  0  0  0  0  0  0  0  0  0  0  0
  158.7740  214.4450  149.9560 C   0  0  0  0  0  2  0  0  0  0  0  0
  159.0530  213.7450  151.0460 C   0  0  0  0  0  0  0  0  0  0  0  0
  158.4330  214.1620  152.3430 C   0  0  0  0  0  2  0  0  0  0  0  0
  157.4600  211.6880  155.0980 N   0  0  0  0  0  4  0  0  0  0  0  0
  159.3440  210.2270  156.0970 S   0  0  0  0  0  1  0  0  0  0  0  0
  157.0200  211.5450  156.5000 C   0  0  0  0  0  2  0  0  0  0  0  0
  158.8410  212.8850  155.2950 N   0  0  0  0  0  0  0  0  0  0  0  0
  157.6790  213.0660  152.9350 N   0  0  0  0  0  0  0  0  0  0  0  0
  157.9470  212.5990  154.2560 C   0  0  0  0  0  0  0  0  0  0  0  0
  158.3160  211.7260  156.1640 C   0  0  2  0  0  0  0  0  0  0  0  0
  161.8100  212.9670  148.3110 C   0  0  0  0  0  2  0  0  0  0  0  0
  160.6920  213.1940  147.3100 C   0  0  0  0  0  2  0  0  0  0  0  0
  160.3690  213.1370  144.8300 C   0  0  0  0  0  3  0  0  0  0  0  0
  161.2390  213.2140  145.9250 C   0  0  0  0  0  0  0  0  0  0  0  0
  163.1270  213.3390  144.4100 C   0  0  0  0  0  3  0  0  0  0  0  0
  162.6190  213.3100  145.7110 C   0  0  0  0  0  3  0  0  0  0  0  0
  160.8790  213.1620  143.5280 C   0  0  0  0  0  3  0  0  0  0  0  0
  162.2560  213.2670  143.3120 C   0  0  0  0  0  0  0  0  0  0  0  0
  162.7530  213.3060  141.9710 N   0  0  0  0  0  2  0  0  0  0  0  0
  162.8980  211.9780  139.9760 C   0  0  0  0  0  2  0  0  0  0  0  0
  162.0090  211.3790  140.8880 O   0  0  0  0  0  0  0  0  0  0  0  0
  162.0080  212.7850  140.8340 C   0  0  1  0  0  3  0  0  0  0  0  0
  1 34  1  6  0  0  0
  1 21  1  0  0  0  0
  2  3  1  0  0  0  0
  2  1  1  0  0  0  0
  3  5  1  0  0  0  0
  5  4  2  0  0  0  0
  6  5  1  0  0  0  0
  6  7  1  0  0  0  0
  8 13  1  0  0  0  0
  9  7  1  0  0  0  0
  9 13  1  0  0  0  0
 10 15  1  0  0  0  0
 11  8  2  0  0  0  0
 12  9  2  0  0  0  0
 13 18  1  1  0  0  0
 14 11  1  0  0  0  0
 15 14  2  0  0  0  0
 15 12  1  0  0  0  0
 17 19  1  0  0  0  0
 18 17  1  0  0  0  0
 18 16  2  0  0  0  0
 19 20  1  0  0  0  0
 21 22  1  0  0  0  0
 22 25  1  0  0  0  0
 22 23  2  0  0  0  0
 24 25  2  0  0  0  0
 25 26  1  0  0  0  0
 26 31  1  0  0  0  0
 27 30  1  0  0  0  0
 27 33  1  0  0  0  0
 27 29  1  0  0  0  0
 30 33  1  0  0  0  0
 31 32  2  0  0  0  0
 32 27  1  0  0  0  0
 32 30  1  0  0  0  0
 33 28  1  1  0  0  0
 33 29  1  0  0  0  0
 35 34  1  0  0  0  0
 36 37  1  0  0  0  0
 37 35  1  0  0  0  0
 38 39  1  0  0  0  0
 39 37  2  0  0  0  0
 40 36  2  0  0  0  0
 41 40  1  0  0  0  0
 41 38  2  0  0  0  0
 42 41  1  0  0  0  0
 43 45  1  0  0  0  0
 43 44  1  0  0  0  0
 45 44  1  0  0  0  0
 45 42  1  1  0  0  0
M  END
>  <MODEL>
9

>  <REMARK>
 VINA RESULT:      -5.7      3.084      8.649
  Name = 
  17 active torsions:
  status: ('A' for Active; 'I' for Inactive)
    1  A    between atoms: C_3  and  C_21
    2  A    between atoms: C_4  and  C_22
    3  A    between atoms: C_4  and  O_24
    4  A    between atoms: C_4  and  C_44
    5  A    between atoms: C_9  and  C_13
    6  A    between atoms: C_13  and  C_44
    7  A    between atoms: C_15  and  N_25
    8  A    between atoms: C_15  and  C_34
    9  A    between atoms: C_16  and  O_24
   10  A    between atoms: C_16  and  C_34
   11  A    between atoms: C_17  and  N_29
   12  A    between atoms: N_20  and  C_43
   13  A    between atoms: N_20  and  C_45
   14  A    between atoms: C_21  and  N_32
   15  A    between atoms: C_22  and  C_35
   16  A    between atoms: C_30  and  C_35
   17  A    between atoms: C_36  and  C_42
                            x       y       z     vdW  Elec       q    Type
                         _______ _______ _______ _____ _____    ______ ____

>  <TORSDO>
F 17

$$$$
