=
 OpenBabel11052409483D

 26 27  0  0  1  0  0  0  0  0999 V2000
  161.1670  206.9790  152.9030 N   0  0  0  0  0  2  0  0  0  0  0  0
  161.2700  209.2790  153.9880 C   0  0  1  0  0  3  0  0  0  0  0  0
  162.6890  210.1480  151.6400 C   0  0  0  0  0  2  0  0  0  0  0  0
  161.6020  208.3420  152.8500 C   0  0  0  0  0  0  0  0  0  0  0  0
  160.5480  211.4270  153.0430 N   0  0  0  0  0  2  0  0  0  0  0  0
  160.6650  211.5140  151.6470 N   0  0  0  0  0  0  0  0  0  0  0  0
  160.0910  210.2110  153.7010 C   0  0  0  0  0  2  0  0  0  0  0  0
  161.6120  210.9360  150.9670 C   0  0  0  0  0  0  0  0  0  0  0  0
  162.2570  208.7680  151.8100 N   0  0  0  0  0  0  0  0  0  0  0  0
  161.6280  203.5330  151.5740 C   0  0  0  0  0  2  0  0  0  0  0  0
  160.8170  204.6640  152.2010 C   0  0  0  0  0  2  0  0  0  0  0  0
  161.4230  203.3960  150.0630 C   0  0  2  0  0  3  0  0  0  0  0  0
  160.5810  205.5260  149.5720 N   0  0  0  0  0  0  0  0  0  0  0  0
  161.4610  206.0050  151.8620 C   0  0  1  0  0  3  0  0  0  0  0  0
  161.0050  206.5640  150.5090 C   0  0  0  0  0  2  0  0  0  0  0  0
  160.3090  206.1910  148.3110 C   0  0  0  0  0  1  0  0  0  0  0  0
  161.6650  204.6570  149.3460 N   0  0  0  0  0  2  0  0  0  0  0  0
  160.0710  202.7670  149.7240 C   0  0  0  0  0  2  0  0  0  0  0  0
  160.1950  201.2670  149.4890 C   0  0  0  0  0  2  0  0  0  0  0  0
  161.2270  200.9580  148.4170 C   0  0  0  0  0  2  0  0  0  0  0  0
  160.8100  201.5560  147.0860 C   0  0  0  0  0  1  0  0  0  0  0  0
  161.6430  211.0350  149.5740 O   0  0  0  0  0  0  0  0  0  0  0  0
  161.6470  212.2860  148.9000 C   0  0  0  0  0  1  0  0  0  0  0  0
  161.2360  208.6550  155.2580 O   0  0  0  0  0  0  0  0  0  0  0  0
  159.9170  208.6470  155.7420 C   0  0  0  0  0  2  0  0  0  0  0  0
  159.5470  207.2440  156.1750 C   0  0  0  0  0  1  0  0  0  0  0  0
  2 24  1  1  0  0  0
  3  9  1  0  0  0  0
  4  1  1  0  0  0  0
  4  2  1  0  0  0  0
  5  7  1  0  0  0  0
  6  5  1  0  0  0  0
  7  2  1  0  0  0  0
  8  3  1  0  0  0  0
  8  6  2  0  0  0  0
  9  4  2  0  0  0  0
 10 11  1  0  0  0  0
 12 18  1  1  0  0  0
 12 10  1  0  0  0  0
 13 15  1  0  0  0  0
 14 11  1  0  0  0  0
 14  1  1  1  0  0  0
 15 14  1  0  0  0  0
 16 13  1  0  0  0  0
 17 13  1  0  0  0  0
 17 12  1  0  0  0  0
 19 18  1  0  0  0  0
 20 19  1  0  0  0  0
 21 20  1  0  0  0  0
 22  8  1  0  0  0  0
 23 22  1  0  0  0  0
 24 25  1  0  0  0  0
 25 26  1  0  0  0  0
M  END
>  <MODEL>
1

>  <REMARK>
 VINA RESULT:      -6.3      0.000      0.000
  Name = 
  7 active torsions:
  status: ('A' for Active; 'I' for Inactive)
    1  A    between atoms: N_1  and  C_11
    2  A    between atoms: O_2  and  C_7
    3  A    between atoms: O_2  and  C_13
    4  A    between atoms: O_5  and  C_23
    5  A    between atoms: C_6  and  C_12
    6  A    between atoms: C_6  and  C_22
    7  A    between atoms: C_8  and  C_12
                            x       y       z     vdW  Elec       q    Type
                         _______ _______ _______ _____ _____    ______ ____

>  <TORSDO>
F 7

$$$$
=
 OpenBabel11052409483D

 26 27  0  0  1  0  0  0  0  0999 V2000
  160.8820  207.4490  152.6370 N   0  0  0  0  0  2  0  0  0  0  0  0
  161.0110  209.0200  154.6350 C   0  0  1  0  0  3  0  0  0  0  0  0
  160.5580  211.1680  152.7740 C   0  0  0  0  0  2  0  0  0  0  0  0
  160.8510  208.7850  153.1510 C   0  0  0  0  0  0  0  0  0  0  0  0
  159.3720  210.7070  155.3370 N   0  0  0  0  0  2  0  0  0  0  0  0
  158.6410  211.2790  154.2840 N   0  0  0  0  0  0  0  0  0  0  0  0
  159.6950  209.2880  155.3670 C   0  0  0  0  0  2  0  0  0  0  0  0
  159.1350  211.4920  153.0990 C   0  0  0  0  0  0  0  0  0  0  0  0
  160.6610  209.7820  152.3380 N   0  0  0  0  0  0  0  0  0  0  0  0
  161.5010  208.0230  149.0120 C   0  0  0  0  0  2  0  0  0  0  0  0
  161.9310  207.7280  150.4470 C   0  0  0  0  0  2  0  0  0  0  0  0
  161.3890  206.7720  148.1370 C   0  0  2  0  0  3  0  0  0  0  0  0
  161.2000  205.1300  149.7960 N   0  0  0  0  0  0  0  0  0  0  0  0
  160.7570  207.1350  151.2210 C   0  0  1  0  0  3  0  0  0  0  0  0
  160.6350  205.6160  151.0520 C   0  0  0  0  0  2  0  0  0  0  0  0
  160.8940  203.7140  149.7230 C   0  0  0  0  0  1  0  0  0  0  0  0
  160.5180  205.7470  148.7310 N   0  0  0  0  0  2  0  0  0  0  0  0
  162.7610  206.2300  147.7340 C   0  0  0  0  0  2  0  0  0  0  0  0
  162.6440  205.1250  146.6920 C   0  0  0  0  0  2  0  0  0  0  0  0
  162.1290  205.6660  145.3680 C   0  0  0  0  0  2  0  0  0  0  0  0
  161.0430  204.7680  144.8090 C   0  0  0  0  0  1  0  0  0  0  0  0
  158.3360  212.0290  152.0870 O   0  0  0  0  0  0  0  0  0  0  0  0
  158.7050  213.1960  151.3650 C   0  0  0  0  0  1  0  0  0  0  0  0
  161.8680  208.0950  155.2770 O   0  0  0  0  0  0  0  0  0  0  0  0
  161.7690  208.2520  156.6700 C   0  0  0  0  0  2  0  0  0  0  0  0
  162.5900  209.4480  157.1030 C   0  0  0  0  0  1  0  0  0  0  0  0
  1  4  1  0  0  0  0
  2 24  1  1  0  0  0
  2  7  1  0  0  0  0
  3  8  1  0  0  0  0
  4  2  1  0  0  0  0
  5  7  1  0  0  0  0
  6  5  1  0  0  0  0
  8  6  2  0  0  0  0
  9  3  1  0  0  0  0
  9  4  2  0  0  0  0
 10 11  1  0  0  0  0
 11 14  1  0  0  0  0
 12 18  1  1  0  0  0
 12 17  1  0  0  0  0
 12 10  1  0  0  0  0
 13 15  1  0  0  0  0
 14  1  1  1  0  0  0
 15 14  1  0  0  0  0
 16 13  1  0  0  0  0
 17 13  1  0  0  0  0
 19 18  1  0  0  0  0
 20 19  1  0  0  0  0
 21 20  1  0  0  0  0
 22  8  1  0  0  0  0
 23 22  1  0  0  0  0
 24 25  1  0  0  0  0
 25 26  1  0  0  0  0
M  END
>  <MODEL>
2

>  <REMARK>
 VINA RESULT:      -6.3      2.190      3.224
  Name = 
  7 active torsions:
  status: ('A' for Active; 'I' for Inactive)
    1  A    between atoms: N_1  and  C_11
    2  A    between atoms: O_2  and  C_7
    3  A    between atoms: O_2  and  C_13
    4  A    between atoms: O_5  and  C_23
    5  A    between atoms: C_6  and  C_12
    6  A    between atoms: C_6  and  C_22
    7  A    between atoms: C_8  and  C_12
                            x       y       z     vdW  Elec       q    Type
                         _______ _______ _______ _____ _____    ______ ____

>  <TORSDO>
F 7

$$$$
=
 OpenBabel11052409483D

 26 27  0  0  1  0  0  0  0  0999 V2000
  160.2390  209.5240  153.5390 N   0  0  0  0  0  2  0  0  0  0  0  0
  159.3870  210.8970  155.5050 C   0  0  1  0  0  3  0  0  0  0  0  0
  161.5070  209.7110  157.0480 C   0  0  0  0  0  2  0  0  0  0  0  0
  160.3460  209.8870  154.9200 C   0  0  0  0  0  0  0  0  0  0  0  0
  160.6560  212.4410  156.9310 N   0  0  0  0  0  2  0  0  0  0  0  0
  162.0090  212.1010  157.0920 N   0  0  0  0  0  0  0  0  0  0  0  0
  159.9770  212.3010  155.6510 C   0  0  0  0  0  2  0  0  0  0  0  0
  162.4420  210.8740  157.1350 C   0  0  0  0  0  0  0  0  0  0  0  0
  161.2840  209.3620  155.6520 N   0  0  0  0  0  0  0  0  0  0  0  0
  161.5860  206.0990  152.9860 C   0  0  0  0  0  2  0  0  0  0  0  0
  160.4840  207.1550  152.9900 C   0  0  0  0  0  2  0  0  0  0  0  0
  162.2130  205.8710  151.6080 C   0  0  2  0  0  3  0  0  0  0  0  0
  161.5940  207.8640  150.5460 N   0  0  0  0  0  0  0  0  0  0  0  0
  161.1070  208.5450  152.9010 C   0  0  1  0  0  3  0  0  0  0  0  0
  161.3860  208.9850  151.4590 C   0  0  0  0  0  2  0  0  0  0  0  0
  161.9730  208.4350  149.2670 C   0  0  0  0  0  1  0  0  0  0  0  0
  162.6980  207.1180  150.9990 N   0  0  0  0  0  2  0  0  0  0  0  0
  161.2900  205.0740  150.6840 C   0  0  0  0  0  2  0  0  0  0  0  0
  160.8150  203.7860  151.3430 C   0  0  0  0  0  2  0  0  0  0  0  0
  160.7690  202.6390  150.3460 C   0  0  0  0  0  2  0  0  0  0  0  0
  161.1350  203.1240  148.9560 C   0  0  0  0  0  1  0  0  0  0  0  0
  163.8080  210.6120  157.2600 O   0  0  0  0  0  0  0  0  0  0  0  0
  164.7840  211.6440  157.2610 C   0  0  0  0  0  1  0  0  0  0  0  0
  158.0900  210.8560  154.9410 O   0  0  0  0  0  0  0  0  0  0  0  0
  157.1940  211.5480  155.7730 C   0  0  0  0  0  2  0  0  0  0  0  0
  155.8290  210.8970  155.6980 C   0  0  0  0  0  1  0  0  0  0  0  0
  1  4  1  0  0  0  0
  2 24  1  6  0  0  0
  2  7  1  0  0  0  0
  3  8  1  0  0  0  0
  4  2  1  0  0  0  0
  4  9  2  0  0  0  0
  5  6  1  0  0  0  0
  6  8  2  0  0  0  0
  7  5  1  0  0  0  0
  8 22  1  0  0  0  0
  9  3  1  0  0  0  0
 10 11  1  0  0  0  0
 12 18  1  6  0  0  0
 12 10  1  0  0  0  0
 13 17  1  0  0  0  0
 13 15  1  0  0  0  0
 14 11  1  0  0  0  0
 14  1  1  6  0  0  0
 15 14  1  0  0  0  0
 16 13  1  0  0  0  0
 17 12  1  0  0  0  0
 18 19  1  0  0  0  0
 20 19  1  0  0  0  0
 21 20  1  0  0  0  0
 22 23  1  0  0  0  0
 24 25  1  0  0  0  0
 26 25  1  0  0  0  0
M  END
>  <MODEL>
3

>  <REMARK>
 VINA RESULT:      -6.3      2.792      4.226
  Name = 
  7 active torsions:
  status: ('A' for Active; 'I' for Inactive)
    1  A    between atoms: N_1  and  C_11
    2  A    between atoms: O_2  and  C_7
    3  A    between atoms: O_2  and  C_13
    4  A    between atoms: O_5  and  C_23
    5  A    between atoms: C_6  and  C_12
    6  A    between atoms: C_6  and  C_22
    7  A    between atoms: C_8  and  C_12
                            x       y       z     vdW  Elec       q    Type
                         _______ _______ _______ _____ _____    ______ ____

>  <TORSDO>
F 7

$$$$
=
 OpenBabel11052409483D

 26 27  0  0  1  0  0  0  0  0999 V2000
  160.4450  210.1320  152.1560 N   0  0  0  0  0  2  0  0  0  0  0  0
  159.0060  211.7010  153.5500 C   0  0  1  0  0  3  0  0  0  0  0  0
  159.7240  210.0850  155.8210 C   0  0  0  0  0  2  0  0  0  0  0  0
  159.8950  210.4860  153.4300 C   0  0  0  0  0  0  0  0  0  0  0  0
  159.6430  212.9350  155.5750 N   0  0  0  0  0  2  0  0  0  0  0  0
  160.6130  212.2950  156.3620 N   0  0  0  0  0  0  0  0  0  0  0  0
  159.7110  212.9330  154.1200 C   0  0  0  0  0  2  0  0  0  0  0  0
  160.6960  211.0030  156.4900 C   0  0  0  0  0  0  0  0  0  0  0  0
  160.1870  209.7720  154.4760 N   0  0  0  0  0  0  0  0  0  0  0  0
  161.5870  206.6570  152.8380 C   0  0  0  0  0  2  0  0  0  0  0  0
  160.5670  207.7030  152.3980 C   0  0  0  0  0  2  0  0  0  0  0  0
  162.3120  205.9800  151.6710 C   0  0  2  0  0  3  0  0  0  0  0  0
  161.9300  207.5580  149.9840 N   0  0  0  0  0  0  0  0  0  0  0  0
  161.2930  208.9680  151.9470 C   0  0  1  0  0  3  0  0  0  0  0  0
  161.7240  208.9180  150.4760 C   0  0  0  0  0  2  0  0  0  0  0  0
  162.4570  207.6800  148.6370 C   0  0  0  0  0  1  0  0  0  0  0  0
  162.9350  206.9500  150.7580 N   0  0  0  0  0  2  0  0  0  0  0  0
  161.4180  204.9700  150.9510 C   0  0  0  0  0  2  0  0  0  0  0  0
  160.8360  203.9470  151.9170 C   0  0  0  0  0  2  0  0  0  0  0  0
  161.3460  202.5470  151.6140 C   0  0  0  0  0  2  0  0  0  0  0  0
  160.8220  202.0660  150.2740 C   0  0  0  0  0  1  0  0  0  0  0  0
  161.7120  210.4330  157.2610 O   0  0  0  0  0  0  0  0  0  0  0  0
  163.0820  210.5110  156.8900 C   0  0  0  0  0  1  0  0  0  0  0  0
  158.2110  211.9510  152.4060 O   0  0  0  0  0  0  0  0  0  0  0  0
  158.5750  213.1850  151.8410 C   0  0  0  0  0  2  0  0  0  0  0  0
  157.3720  213.8040  151.1610 C   0  0  0  0  0  1  0  0  0  0  0  0
  1  4  1  0  0  0  0
  2 24  1  6  0  0  0
  2  7  1  0  0  0  0
  3  8  1  0  0  0  0
  4  2  1  0  0  0  0
  4  9  2  0  0  0  0
  5  6  1  0  0  0  0
  6  8  2  0  0  0  0
  7  5  1  0  0  0  0
  8 22  1  0  0  0  0
  9  3  1  0  0  0  0
 11 10  1  0  0  0  0
 12 18  1  6  0  0  0
 12 10  1  0  0  0  0
 13 15  1  0  0  0  0
 13 17  1  0  0  0  0
 14  1  1  6  0  0  0
 14 11  1  0  0  0  0
 15 14  1  0  0  0  0
 16 13  1  0  0  0  0
 17 12  1  0  0  0  0
 18 19  1  0  0  0  0
 20 19  1  0  0  0  0
 21 20  1  0  0  0  0
 23 22  1  0  0  0  0
 25 24  1  0  0  0  0
 26 25  1  0  0  0  0
M  END
>  <MODEL>
4

>  <REMARK>
 VINA RESULT:      -6.0      2.485      4.471
  Name = 
  7 active torsions:
  status: ('A' for Active; 'I' for Inactive)
    1  A    between atoms: N_1  and  C_11
    2  A    between atoms: O_2  and  C_7
    3  A    between atoms: O_2  and  C_13
    4  A    between atoms: O_5  and  C_23
    5  A    between atoms: C_6  and  C_12
    6  A    between atoms: C_6  and  C_22
    7  A    between atoms: C_8  and  C_12
                            x       y       z     vdW  Elec       q    Type
                         _______ _______ _______ _____ _____    ______ ____

>  <TORSDO>
F 7

$$$$
=
 OpenBabel11052409483D

 26 27  0  0  1  0  0  0  0  0999 V2000
  161.3480  208.2270  153.6820 N   0  0  0  0  0  2  0  0  0  0  0  0
  160.5420  209.9620  155.3610 C   0  0  1  0  0  3  0  0  0  0  0  0
  160.4500  211.8160  153.1620 C   0  0  0  0  0  2  0  0  0  0  0  0
  160.9430  209.5730  153.9570 C   0  0  0  0  0  0  0  0  0  0  0  0
  158.5310  211.3640  155.2360 N   0  0  0  0  0  2  0  0  0  0  0  0
  158.1350  211.6930  153.9300 N   0  0  0  0  0  0  0  0  0  0  0  0
  159.0290  210.0390  155.5760 C   0  0  0  0  0  2  0  0  0  0  0  0
  158.9720  211.8920  152.9530 C   0  0  0  0  0  0  0  0  0  0  0  0
  160.9020  210.4420  152.9910 N   0  0  0  0  0  0  0  0  0  0  0  0
  161.5070  205.7930  150.8710 C   0  0  0  0  0  2  0  0  0  0  0  0
  160.7850  206.7380  151.8270 C   0  0  0  0  0  2  0  0  0  0  0  0
  161.8040  206.4120  149.5030 C   0  0  2  0  0  3  0  0  0  0  0  0
  161.6390  208.6850  150.0410 N   0  0  0  0  0  0  0  0  0  0  0  0
  161.7690  207.7730  152.3650 C   0  0  1  0  0  3  0  0  0  0  0  0
  161.9260  208.9870  151.4410 C   0  0  0  0  0  2  0  0  0  0  0  0
  161.9560  209.8830  149.2850 C   0  0  0  0  0  1  0  0  0  0  0  0
  162.5310  207.6860  149.6080 N   0  0  0  0  0  2  0  0  0  0  0  0
  160.5480  206.5110  148.6350 C   0  0  0  0  0  2  0  0  0  0  0  0
  160.8270  206.0980  147.1960 C   0  0  0  0  0  2  0  0  0  0  0  0
  161.6300  204.8080  147.1360 C   0  0  0  0  0  2  0  0  0  0  0  0
  162.7430  204.9180  146.1120 C   0  0  0  0  0  1  0  0  0  0  0  0
  158.5030  212.1790  151.6690 O   0  0  0  0  0  0  0  0  0  0  0  0
  158.8860  213.3520  150.9650 C   0  0  0  0  0  1  0  0  0  0  0  0
  161.2500  209.2740  156.3750 O   0  0  0  0  0  0  0  0  0  0  0  0
  160.3370  208.6750  157.2610 C   0  0  0  0  0  2  0  0  0  0  0  0
  160.4660  207.1690  157.1760 C   0  0  0  0  0  1  0  0  0  0  0  0
  1  4  1  0  0  0  0
  2  7  1  0  0  0  0
  2 24  1  1  0  0  0
  4  2  1  0  0  0  0
  5  7  1  0  0  0  0
  6  5  1  0  0  0  0
  8  3  1  0  0  0  0
  8  6  2  0  0  0  0
  9  3  1  0  0  0  0
  9  4  2  0  0  0  0
 10 11  1  0  0  0  0
 11 14  1  0  0  0  0
 12 18  1  1  0  0  0
 12 17  1  0  0  0  0
 12 10  1  0  0  0  0
 13 15  1  0  0  0  0
 14  1  1  1  0  0  0
 15 14  1  0  0  0  0
 16 13  1  0  0  0  0
 17 13  1  0  0  0  0
 19 18  1  0  0  0  0
 20 19  1  0  0  0  0
 21 20  1  0  0  0  0
 22  8  1  0  0  0  0
 23 22  1  0  0  0  0
 24 25  1  0  0  0  0
 26 25  1  0  0  0  0
M  END
>  <MODEL>
5

>  <REMARK>
 VINA RESULT:      -5.6      2.336      3.053
  Name = 
  7 active torsions:
  status: ('A' for Active; 'I' for Inactive)
    1  A    between atoms: N_1  and  C_11
    2  A    between atoms: O_2  and  C_7
    3  A    between atoms: O_2  and  C_13
    4  A    between atoms: O_5  and  C_23
    5  A    between atoms: C_6  and  C_12
    6  A    between atoms: C_6  and  C_22
    7  A    between atoms: C_8  and  C_12
                            x       y       z     vdW  Elec       q    Type
                         _______ _______ _______ _____ _____    ______ ____

>  <TORSDO>
F 7

$$$$
=
 OpenBabel11052409483D

 26 27  0  0  1  0  0  0  0  0999 V2000
  162.3260  206.9980  147.8690 N   0  0  0  0  0  2  0  0  0  0  0  0
  161.5950  208.4080  149.8580 C   0  0  1  0  0  3  0  0  0  0  0  0
  160.4010  206.0130  150.9150 C   0  0  0  0  0  2  0  0  0  0  0  0
  161.6370  207.0900  149.1210 C   0  0  0  0  0  0  0  0  0  0  0  0
  162.0000  207.9820  152.2410 N   0  0  0  0  0  2  0  0  0  0  0  0
  162.0810  206.6220  152.5810 N   0  0  0  0  0  0  0  0  0  0  0  0
  162.5890  208.5040  151.0170 C   0  0  0  0  0  2  0  0  0  0  0  0
  161.3850  205.6920  151.9940 C   0  0  0  0  0  0  0  0  0  0  0  0
  161.0740  206.0310  149.6240 N   0  0  0  0  0  0  0  0  0  0  0  0
  161.9770  203.3290  147.3480 C   0  0  0  0  0  2  0  0  0  0  0  0
  161.4480  204.7270  147.6590 C   0  0  0  0  0  2  0  0  0  0  0  0
  161.7700  202.9060  145.8920 C   0  0  2  0  0  3  0  0  0  0  0  0
  161.4660  205.0040  144.8970 N   0  0  0  0  0  0  0  0  0  0  0  0
  162.3980  205.7740  147.0850 C   0  0  1  0  0  3  0  0  0  0  0  0
  162.1090  206.1020  145.6150 C   0  0  0  0  0  2  0  0  0  0  0  0
  161.3800  205.4110  143.5070 C   0  0  0  0  0  1  0  0  0  0  0  0
  162.3160  203.8840  144.9390 N   0  0  0  0  0  2  0  0  0  0  0  0
  160.3130  202.5410  145.6040 C   0  0  0  0  0  2  0  0  0  0  0  0
  160.1730  201.0830  145.1850 C   0  0  0  0  0  2  0  0  0  0  0  0
  160.9200  200.1610  146.1350 C   0  0  0  0  0  2  0  0  0  0  0  0
  161.1880  198.8200  145.4780 C   0  0  0  0  0  1  0  0  0  0  0  0
  161.5460  204.3530  152.3590 O   0  0  0  0  0  0  0  0  0  0  0  0
  160.8320  203.3010  151.7260 C   0  0  0  0  0  1  0  0  0  0  0  0
  161.5620  209.5420  149.0110 O   0  0  0  0  0  0  0  0  0  0  0  0
  162.0280  210.6660  149.7140 C   0  0  0  0  0  2  0  0  0  0  0  0
  162.1680  211.8350  148.7610 C   0  0  0  0  0  1  0  0  0  0  0  0
  1  4  1  0  0  0  0
  2 24  1  6  0  0  0
  2  7  1  0  0  0  0
  3  8  1  0  0  0  0
  4  9  2  0  0  0  0
  4  2  1  0  0  0  0
  5  6  1  0  0  0  0
  7  5  1  0  0  0  0
  8 22  1  0  0  0  0
  8  6  2  0  0  0  0
  9  3  1  0  0  0  0
 10 11  1  0  0  0  0
 12 18  1  6  0  0  0
 12 10  1  0  0  0  0
 13 17  1  0  0  0  0
 13 15  1  0  0  0  0
 14 11  1  0  0  0  0
 14  1  1  1  0  0  0
 15 14  1  0  0  0  0
 16 13  1  0  0  0  0
 17 12  1  0  0  0  0
 19 18  1  0  0  0  0
 19 20  1  0  0  0  0
 21 20  1  0  0  0  0
 23 22  1  0  0  0  0
 24 25  1  0  0  0  0
 26 25  1  0  0  0  0
M  END
>  <MODEL>
6

>  <REMARK>
 VINA RESULT:      -5.2      2.644      5.257
  Name = 
  7 active torsions:
  status: ('A' for Active; 'I' for Inactive)
    1  A    between atoms: N_1  and  C_11
    2  A    between atoms: O_2  and  C_7
    3  A    between atoms: O_2  and  C_13
    4  A    between atoms: O_5  and  C_23
    5  A    between atoms: C_6  and  C_12
    6  A    between atoms: C_6  and  C_22
    7  A    between atoms: C_8  and  C_12
                            x       y       z     vdW  Elec       q    Type
                         _______ _______ _______ _____ _____    ______ ____

>  <TORSDO>
F 7

$$$$
=
 OpenBabel11052409483D

 26 27  0  0  1  0  0  0  0  0999 V2000
  161.2530  205.4210  152.2250 N   0  0  0  0  0  2  0  0  0  0  0  0
  160.6640  204.3050  150.0150 C   0  0  1  0  0  3  0  0  0  0  0  0
  160.4630  206.9550  148.9120 C   0  0  0  0  0  2  0  0  0  0  0  0
  160.8870  205.5460  150.8460 C   0  0  0  0  0  0  0  0  0  0  0  0
  161.7300  204.6290  147.8280 N   0  0  0  0  0  2  0  0  0  0  0  0
  162.2610  205.9130  147.6270 N   0  0  0  0  0  0  0  0  0  0  0  0
  161.8410  203.9440  149.1080 C   0  0  0  0  0  2  0  0  0  0  0  0
  161.7260  206.9960  148.1140 C   0  0  0  0  0  0  0  0  0  0  0  0
  160.7750  206.7280  150.3160 N   0  0  0  0  0  0  0  0  0  0  0  0
  161.5860  209.0510  152.9740 C   0  0  0  0  0  2  0  0  0  0  0  0
  160.8310  207.8130  152.4990 C   0  0  0  0  0  2  0  0  0  0  0  0
  161.2790  209.4370  154.4240 C   0  0  2  0  0  3  0  0  0  0  0  0
  160.4310  207.4030  155.2160 N   0  0  0  0  0  0  0  0  0  0  0  0
  161.4670  206.5630  153.1020 C   0  0  1  0  0  3  0  0  0  0  0  0
  160.9280  206.2310  154.4990 C   0  0  0  0  0  2  0  0  0  0  0  0
  160.0830  206.9560  156.5520 C   0  0  0  0  0  1  0  0  0  0  0  0
  161.4880  208.3210  155.3590 N   0  0  0  0  0  2  0  0  0  0  0  0
  159.9010  210.0850  154.5640 C   0  0  0  0  0  2  0  0  0  0  0  0
  160.0090  211.5840  154.8120 C   0  0  0  0  0  2  0  0  0  0  0  0
  159.3870  212.3780  153.6750 C   0  0  0  0  0  2  0  0  0  0  0  0
  158.5890  211.4680  152.7610 C   0  0  0  0  0  1  0  0  0  0  0  0
  162.3320  208.2370  147.9050 O   0  0  0  0  0  0  0  0  0  0  0  0
  161.9590  209.3980  148.6350 C   0  0  0  0  0  1  0  0  0  0  0  0
  160.1180  203.2170  150.7380 O   0  0  0  0  0  0  0  0  0  0  0  0
  160.7170  202.0200  150.3070 C   0  0  0  0  0  2  0  0  0  0  0  0
  159.8000  201.3210  149.3260 C   0  0  0  0  0  1  0  0  0  0  0  0
  2 24  1  1  0  0  0
  2  4  1  0  0  0  0
  3  9  1  0  0  0  0
  4  1  1  0  0  0  0
  5  7  1  0  0  0  0
  6  5  1  0  0  0  0
  6  8  2  0  0  0  0
  7  2  1  0  0  0  0
  8  3  1  0  0  0  0
  9  4  2  0  0  0  0
 10 12  1  0  0  0  0
 11 10  1  0  0  0  0
 11 14  1  0  0  0  0
 12 18  1  6  0  0  0
 12 17  1  0  0  0  0
 13 17  1  0  0  0  0
 13 16  1  0  0  0  0
 14  1  1  6  0  0  0
 14 15  1  0  0  0  0
 15 13  1  0  0  0  0
 18 19  1  0  0  0  0
 20 19  1  0  0  0  0
 21 20  1  0  0  0  0
 22  8  1  0  0  0  0
 22 23  1  0  0  0  0
 25 24  1  0  0  0  0
 26 25  1  0  0  0  0
M  END
>  <MODEL>
7

>  <REMARK>
 VINA RESULT:      -5.2      2.533      7.083
  Name = 
  7 active torsions:
  status: ('A' for Active; 'I' for Inactive)
    1  A    between atoms: N_1  and  C_11
    2  A    between atoms: O_2  and  C_7
    3  A    between atoms: O_2  and  C_13
    4  A    between atoms: O_5  and  C_23
    5  A    between atoms: C_6  and  C_12
    6  A    between atoms: C_6  and  C_22
    7  A    between atoms: C_8  and  C_12
                            x       y       z     vdW  Elec       q    Type
                         _______ _______ _______ _____ _____    ______ ____

>  <TORSDO>
F 7

$$$$
=
 OpenBabel11052409483D

 26 27  0  0  1  0  0  0  0  0999 V2000
  161.0460  206.0470  147.4380 N   0  0  0  0  0  2  0  0  0  0  0  0
  161.7470  204.2960  145.7300 C   0  0  1  0  0  3  0  0  0  0  0  0
  162.0300  202.4790  147.9440 C   0  0  0  0  0  2  0  0  0  0  0  0
  161.4880  204.7140  147.1580 C   0  0  0  0  0  0  0  0  0  0  0  0
  160.8060  202.0540  145.3930 N   0  0  0  0  0  2  0  0  0  0  0  0
  160.2980  201.4570  146.5580 N   0  0  0  0  0  0  0  0  0  0  0  0
  160.6180  203.4700  145.1110 C   0  0  0  0  0  2  0  0  0  0  0  0
  160.8130  201.6360  147.7400 C   0  0  0  0  0  0  0  0  0  0  0  0
  161.6400  203.8690  148.1350 N   0  0  0  0  0  0  0  0  0  0  0  0
  160.4750  205.6540  151.0950 C   0  0  0  0  0  2  0  0  0  0  0  0
  161.2960  205.5300  149.8140 C   0  0  0  0  0  2  0  0  0  0  0  0
  160.8310  206.8830  151.9350 C   0  0  2  0  0  3  0  0  0  0  0  0
  161.8770  208.2000  150.3060 N   0  0  0  0  0  0  0  0  0  0  0  0
  160.7940  206.5390  148.7850 C   0  0  1  0  0  3  0  0  0  0  0  0
  161.4340  207.9240  148.9420 C   0  0  0  0  0  2  0  0  0  0  0  0
  162.3320  209.5780  150.3230 C   0  0  0  0  0  1  0  0  0  0  0  0
  160.7620  208.1310  151.1610 N   0  0  0  0  0  2  0  0  0  0  0  0
  162.1610  206.7080  152.6700 C   0  0  0  0  0  2  0  0  0  0  0  0
  161.9520  206.4900  154.1630 C   0  0  0  0  0  2  0  0  0  0  0  0
  160.5720  206.9540  154.6010 C   0  0  0  0  0  2  0  0  0  0  0  0
  160.6370  207.6060  155.9690 C   0  0  0  0  0  1  0  0  0  0  0  0
  160.2310  201.0400  148.8610 O   0  0  0  0  0  0  0  0  0  0  0  0
  160.8310  201.0910  150.1480 C   0  0  0  0  0  1  0  0  0  0  0  0
  162.2430  205.3330  144.9050 O   0  0  0  0  0  0  0  0  0  0  0  0
  161.2030  205.8310  144.1000 C   0  0  0  0  0  2  0  0  0  0  0  0
  161.6410  205.8290  142.6510 C   0  0  0  0  0  1  0  0  0  0  0  0
  2 24  1  6  0  0  0
  2  4  1  0  0  0  0
  3  9  1  0  0  0  0
  4  1  1  0  0  0  0
  4  9  2  0  0  0  0
  5  6  1  0  0  0  0
  6  8  2  0  0  0  0
  7  5  1  0  0  0  0
  7  2  1  0  0  0  0
  8  3  1  0  0  0  0
  8 22  1  0  0  0  0
 10 12  1  0  0  0  0
 11 10  1  0  0  0  0
 12 18  1  6  0  0  0
 13 16  1  0  0  0  0
 13 17  1  0  0  0  0
 14  1  1  6  0  0  0
 14 15  1  0  0  0  0
 14 11  1  0  0  0  0
 15 13  1  0  0  0  0
 17 12  1  0  0  0  0
 18 19  1  0  0  0  0
 19 20  1  0  0  0  0
 20 21  1  0  0  0  0
 22 23  1  0  0  0  0
 25 24  1  0  0  0  0
 26 25  1  0  0  0  0
M  END
>  <MODEL>
8

>  <REMARK>
 VINA RESULT:      -4.9      3.473      8.353
  Name = 
  7 active torsions:
  status: ('A' for Active; 'I' for Inactive)
    1  A    between atoms: N_1  and  C_11
    2  A    between atoms: O_2  and  C_7
    3  A    between atoms: O_2  and  C_13
    4  A    between atoms: O_5  and  C_23
    5  A    between atoms: C_6  and  C_12
    6  A    between atoms: C_6  and  C_22
    7  A    between atoms: C_8  and  C_12
                            x       y       z     vdW  Elec       q    Type
                         _______ _______ _______ _____ _____    ______ ____

>  <TORSDO>
F 7

$$$$
=
 OpenBabel11052409483D

 26 27  0  0  1  0  0  0  0  0999 V2000
  160.3660  210.6140  152.7250 N   0  0  0  0  0  2  0  0  0  0  0  0
  159.4020  212.9640  152.5640 C   0  0  1  0  0  3  0  0  0  0  0  0
  160.9040  213.2420  150.1250 C   0  0  0  0  0  2  0  0  0  0  0  0
  160.2880  211.8630  152.0300 C   0  0  0  0  0  0  0  0  0  0  0  0
  158.1940  213.9750  150.6820 N   0  0  0  0  0  2  0  0  0  0  0  0
  158.5780  213.4920  149.4210 N   0  0  0  0  0  0  0  0  0  0  0  0
  158.0650  213.0950  151.8340 C   0  0  0  0  0  2  0  0  0  0  0  0
  159.7950  213.1330  149.1290 C   0  0  0  0  0  0  0  0  0  0  0  0
  160.9630  212.0300  150.9310 N   0  0  0  0  0  0  0  0  0  0  0  0
  161.6740  207.1340  152.8940 C   0  0  0  0  0  2  0  0  0  0  0  0
  160.5800  208.1790  152.6970 C   0  0  0  0  0  2  0  0  0  0  0  0
  162.2600  206.6050  151.5810 C   0  0  2  0  0  3  0  0  0  0  0  0
  161.6240  208.3280  150.1290 N   0  0  0  0  0  0  0  0  0  0  0  0
  161.2090  209.5090  152.2920 C   0  0  1  0  0  3  0  0  0  0  0  0
  161.4490  209.6230  150.7820 C   0  0  0  0  0  2  0  0  0  0  0  0
  161.9700  208.6040  148.7460 C   0  0  0  0  0  1  0  0  0  0  0  0
  162.7360  207.6840  150.7040 N   0  0  0  0  0  2  0  0  0  0  0  0
  161.3060  205.6380  150.8770 C   0  0  0  0  0  2  0  0  0  0  0  0
  161.5790  204.1940  151.2740 C   0  0  0  0  0  2  0  0  0  0  0  0
  160.8470  203.2220  150.3630 C   0  0  0  0  0  2  0  0  0  0  0  0
  161.0440  203.6030  148.9080 C   0  0  0  0  0  1  0  0  0  0  0  0
  160.0960  212.6260  147.8630 O   0  0  0  0  0  0  0  0  0  0  0  0
  161.4320  212.4450  147.4140 C   0  0  0  0  0  1  0  0  0  0  0  0
  159.3110  212.9980  153.9760 O   0  0  0  0  0  0  0  0  0  0  0  0
  158.6120  214.1500  154.3750 C   0  0  0  0  0  2  0  0  0  0  0  0
  158.1940  214.0120  155.8230 C   0  0  0  0  0  1  0  0  0  0  0  0
  2 24  1  1  0  0  0
  3  9  1  0  0  0  0
  4  2  1  0  0  0  0
  4  1  1  0  0  0  0
  5  7  1  0  0  0  0
  6  5  1  0  0  0  0
  7  2  1  0  0  0  0
  8  6  2  0  0  0  0
  8  3  1  0  0  0  0
  9  4  2  0  0  0  0
 11 10  1  0  0  0  0
 12 18  1  6  0  0  0
 12 10  1  0  0  0  0
 13 17  1  0  0  0  0
 13 15  1  0  0  0  0
 14 11  1  0  0  0  0
 14  1  1  6  0  0  0
 15 14  1  0  0  0  0
 16 13  1  0  0  0  0
 17 12  1  0  0  0  0
 18 19  1  0  0  0  0
 20 19  1  0  0  0  0
 21 20  1  0  0  0  0
 22  8  1  0  0  0  0
 23 22  1  0  0  0  0
 24 25  1  0  0  0  0
 25 26  1  0  0  0  0
M  END
>  <MODEL>
9

>  <REMARK>
 VINA RESULT:      -4.8      2.513      3.846
  Name = 
  7 active torsions:
  status: ('A' for Active; 'I' for Inactive)
    1  A    between atoms: N_1  and  C_11
    2  A    between atoms: O_2  and  C_7
    3  A    between atoms: O_2  and  C_13
    4  A    between atoms: O_5  and  C_23
    5  A    between atoms: C_6  and  C_12
    6  A    between atoms: C_6  and  C_22
    7  A    between atoms: C_8  and  C_12
                            x       y       z     vdW  Elec       q    Type
                         _______ _______ _______ _____ _____    ______ ____

>  <TORSDO>
F 7

$$$$
