=
 OpenBabel11052411343D

 66 71  0  0  1  0  0  0  0  0999 V2000
  160.9970  208.5050  150.3210 C   0  0  0  0  0  0  0  0  0  0  0  0
  160.7730  205.8380  149.6060 C   0  0  2  0  0  3  0  0  0  0  0  0
  161.1100  209.7060  150.8350 C   0  0  0  0  0  0  0  0  0  0  0  0
  159.8870  206.8590  147.4960 C   0  0  0  0  0  1  0  0  0  0  0  0
  161.0720  206.5750  148.3980 C   0  0  1  0  0  0  0  0  0  0  0  0
  160.9330  207.3640  149.7000 C   0  0  0  0  0  0  0  0  0  0  0  0
  159.2230  211.2250  152.3960 S   0  0  0  0  0  0  0  0  0  0  0  0
  159.2300  210.9480  154.1570 N   0  0  0  0  0  0  0  0  0  0  0  0
  160.9110  209.4780  153.2900 C   0  0  0  0  0  3  0  0  0  0  0  0
  160.2110  209.9720  154.4130 N   0  0  0  0  0  2  0  0  0  0  0  0
  160.5090  210.0110  152.1570 C   0  0  0  0  0  0  0  0  0  0  0  0
  159.6800  212.1700  154.8130 C   0  0  0  0  0  2  0  0  0  0  0  0
  159.7140  212.0030  156.3270 C   0  0  1  0  0  3  0  0  0  0  0  0
  160.3430  213.2270  156.9770 C   0  0  0  0  0  1  0  0  0  0  0  0
  158.2930  211.8450  156.8330 C   0  0  0  0  0  2  0  0  0  0  0  0
  157.4920  212.9890  156.4160 N   0  0  0  0  0  2  0  0  0  0  0  0
  155.1510  213.1820  156.7360 C   0  0  0  0  0  2  0  0  0  0  0  0
  156.1560  212.8560  155.9360 C   0  0  0  0  0  0  0  0  0  0  0  0
  155.8820  212.4810  154.5080 C   0  0  0  0  0  2  0  0  0  0  0  0
  154.5580  214.2650  153.1560 C   0  0  0  0  0  1  0  0  0  0  0  0
  155.8520  213.6820  153.6090 C   0  0  0  0  0  0  0  0  0  0  0  0
  156.9790  214.3330  153.3470 C   0  0  0  0  0  2  0  0  0  0  0  0
  161.8030  210.7320  148.7020 C   0  0  0  0  0  3  0  0  0  0  0  0
  162.5030  212.7400  149.4040 C   0  0  0  0  0  3  0  0  0  0  0  0
  162.3000  211.9390  148.2870 C   0  0  0  0  0  0  0  0  0  0  0  0
  161.7410  210.7320  150.0470 N   0  0  0  0  0  0  0  0  0  0  0  0
  162.1530  211.9470  150.4850 C   0  0  0  0  0  3  0  0  0  0  0  0
  162.2730  212.3460  146.9090 N   0  0  0  0  0  0  0  0  0  0  0  0
  161.3530  212.9640  146.2110 C   0  0  0  0  0  0  0  0  0  0  0  0
  160.8500  212.4980  142.4620 N   0  0  0  0  0  0  0  0  0  0  0  0
  160.6990  212.2060  139.4450 C   0  0  0  0  0  0  0  0  0  0  0  0
  160.3250  210.8820  139.8510 N   0  0  0  0  0  0  0  0  0  0  0  0
  159.7250  211.7330  144.4000 F   0  0  0  0  0  0  0  0  0  0  0  0
  160.7590  212.4560  143.8920 C   0  0  2  0  0  3  0  0  0  0  0  0
  159.2560  210.2030  139.1320 C   0  0  0  0  0  1  0  0  0  0  0  0
  161.5910  213.0810  144.7500 C   0  0  0  0  0  0  0  0  0  0  0  0
  163.4430  214.4530  140.6740 C   0  0  0  0  0  3  0  0  0  0  0  0
  161.6880  212.9600  140.1650 N   0  0  0  0  0  0  0  0  0  0  0  0
  162.7700  213.9190  141.8970 C   0  0  0  0  0  0  0  0  0  0  0  0
  161.7910  213.1000  141.5750 C   0  0  0  0  0  0  0  0  0  0  0  0
  163.1670  214.3810  143.2180 C   0  0  0  0  0  3  0  0  0  0  0  0
  162.6200  213.8710  139.5260 C   0  0  0  0  0  3  0  0  0  0  0  0
  160.1950  212.7030  138.3980 O   0  0  0  0  0  0  0  0  0  0  0  0
  162.6720  214.0240  144.3980 C   0  0  0  0  0  3  0  0  0  0  0  0
  161.2110  210.0830  140.6910 C   0  0  0  0  0  2  0  0  0  0  0  0
  162.6630  210.3620  140.3510 C   0  0  0  0  0  1  0  0  0  0  0  0
  159.1500  213.8530  146.0620 O   0  0  0  0  0  0  0  0  0  0  0  0
  160.1070  213.5200  146.8060 C   0  0  0  0  0  0  0  0  0  0  0  0
  160.0080  213.7580  148.1730 O   0  0  0  0  0  1  0  0  0  0  0  0
  161.9420  205.1520  150.3090 C   0  0  0  0  0  2  0  0  0  0  0  0
  160.4510  201.1410  151.0850 O   0  0  0  0  0  0  0  0  0  0  0  0
  161.6330  202.6970  149.7900 N   0  0  0  0  0  2  0  0  0  0  0  0
  161.6000  203.7610  150.7470 C   0  0  0  0  0  0  0  0  0  0  0  0
  161.0760  201.3970  150.0190 C   0  0  0  0  0  0  0  0  0  0  0  0
  161.1950  203.5500  151.9260 O   0  0  0  0  0  0  0  0  0  0  0  0
  161.1850  200.3170  148.9870 C   0  0  0  0  0  2  0  0  0  0  0  0
  161.4820  200.8120  147.5650 C   0  0  0  0  0  2  0  0  0  0  0  0
  160.3840  201.4440  146.9610 O   0  0  0  0  0  0  0  0  0  0  0  0
  158.9270  203.3220  144.3180 S   0  0  0  0  0  0  0  0  0  0  0  0
  161.2040  203.3200  145.7470 C   0  0  0  0  0  2  0  0  0  0  0  0
  159.6510  201.6930  144.6700 C   0  0  0  0  0  2  0  0  0  0  0  0
  160.7880  201.8570  145.6810 C   0  0  2  0  0  3  0  0  0  0  0  0
  160.5620  204.0620  144.5910 C   0  0  0  0  0  2  0  0  0  0  0  0
  162.4520  206.8040  147.7390 C   0  0  0  0  0  2  0  0  0  0  0  0
  163.1040  204.8240  147.1400 O   0  0  0  0  0  1  0  0  0  0  0  0
  162.7280  205.9870  146.6350 O   0  0  0  0  0  0  0  0  0  0  0  0
  1  3  2  0  0  0  0
  2  6  1  0  0  0  0
  2 50  1  1  0  0  0
  3 11  1  0  0  0  0
  5  4  1  6  0  0  0
  5  2  1  0  0  0  0
  5  6  1  0  0  0  0
  6  1  2  0  0  0  0
  7  8  1  0  0  0  0
  8 10  1  0  0  0  0
  8 12  1  0  0  0  0
  9 10  1  0  0  0  0
 11  7  1  0  0  0  0
 11  9  2  0  0  0  0
 12 13  1  0  0  0  0
 13 15  1  0  0  0  0
 13 14  1  1  0  0  0
 16 15  1  0  0  0  0
 18 16  1  0  0  0  0
 18 17  2  0  0  0  0
 19 18  1  0  0  0  0
 20 21  1  0  0  0  0
 21 19  1  0  0  0  0
 22 21  2  0  0  0  0
 23 26  1  0  0  0  0
 24 27  2  0  0  0  0
 25 23  2  0  0  0  0
 25 24  1  0  0  0  0
 26 27  1  0  0  0  0
 26  3  1  0  0  0  0
 28 25  1  0  0  0  0
 29 48  1  0  0  0  0
 29 28  2  0  0  0  0
 30 34  1  0  0  0  0
 31 32  1  0  0  0  0
 31 38  1  0  0  0  0
 32 45  1  0  0  0  0
 34 33  1  6  0  0  0
 34 36  1  0  0  0  0
 35 32  1  0  0  0  0
 36 29  1  0  0  0  0
 37 39  1  0  0  0  0
 38 40  1  0  0  0  0
 39 41  2  0  0  0  0
 40 39  1  0  0  0  0
 40 30  2  0  0  0  0
 41 44  1  0  0  0  0
 42 38  1  0  0  0  0
 42 37  2  0  0  0  0
 43 31  2  0  0  0  0
 44 36  2  0  0  0  0
 46 45  1  0  0  0  0
 47 48  2  0  0  0  0
 48 49  1  0  0  0  0
 50 53  1  0  0  0  0
 52 54  1  0  0  0  0
 52 53  1  0  0  0  0
 53 55  2  0  0  0  0
 54 51  2  0  0  0  0
 56 54  1  0  0  0  0
 57 56  1  0  0  0  0
 58 57  1  0  0  0  0
 59 63  1  0  0  0  0
 59 61  1  0  0  0  0
 61 62  1  0  0  0  0
 62 60  1  0  0  0  0
 62 58  1  1  0  0  0
 63 60  1  0  0  0  0
 64  5  1  0  0  0  0
 66 65  1  0  0  0  0
 66 64  1  0  0  0  0
M  END
>  <MODEL>
1

>  <REMARK>
 VINA RESULT:      -3.6      0.000      0.000
  Name = 
  21 active torsions:
  status: ('A' for Active; 'I' for Inactive)
    1  A    between atoms: C_5  and  C_11
    2  A    between atoms: C_5  and  C_32
    3  A    between atoms: N_8  and  C_26
    4  A    between atoms: O_10  and  C_43
    5  A    between atoms: C_11  and  N_47
    6  A    between atoms: N_12  and  C_41
    7  A    between atoms: C_14  and  C_44
    8  A    between atoms: C_14  and  C_51
    9  A    between atoms: O_18  and  C_38
   10  A    between atoms: O_18  and  C_44
   11  A    between atoms: C_19  and  CA_54
   12  A    between atoms: C_20  and  C_62
   13  A    between atoms: C_20  and  C_65
   14  A    between atoms: C_31  and  C_36
   15  A    between atoms: C_31  and  C_37
   16  A    between atoms: N_34  and  C_62
   17  A    between atoms: N_40  and  C_49
   18  A    between atoms: C_43  and  C_57
   19  A    between atoms: C_45  and  CA_54
   20  A    between atoms: N_47  and  C_65
   21  A    between atoms: C_49  and  C_58
                            x       y       z     vdW  Elec       q    Type
                         _______ _______ _______ _____ _____    ______ ____

>  <TORSDO>
F 21

$$$$
=
 OpenBabel11052411343D

 66 71  0  0  1  0  0  0  0  0999 V2000
  160.1240  212.8970  150.2570 C   0  0  0  0  0  0  0  0  0  0  0  0
  159.9530  214.4440  147.9660 C   0  0  2  0  0  3  0  0  0  0  0  0
  160.0270  212.2090  151.3690 C   0  0  0  0  0  0  0  0  0  0  0  0
  162.4460  214.4490  148.2250 C   0  0  0  0  0  1  0  0  0  0  0  0
  161.1820  213.6880  147.8730 C   0  0  1  0  0  0  0  0  0  0  0  0
  160.3230  213.5040  149.1230 C   0  0  0  0  0  0  0  0  0  0  0  0
  158.8250  214.3950  152.8110 S   0  0  0  0  0  0  0  0  0  0  0  0
  157.7940  213.9700  154.2020 N   0  0  0  0  0  0  0  0  0  0  0  0
  158.5390  211.8720  153.3150 C   0  0  0  0  0  3  0  0  0  0  0  0
  157.7820  212.5650  154.2870 N   0  0  0  0  0  2  0  0  0  0  0  0
  159.1320  212.6740  152.4580 C   0  0  0  0  0  0  0  0  0  0  0  0
  158.4400  214.4530  155.4170 C   0  0  0  0  0  2  0  0  0  0  0  0
  158.5910  213.3350  156.4420 C   0  0  1  0  0  3  0  0  0  0  0  0
  157.4820  212.3070  156.2650 C   0  0  0  0  0  1  0  0  0  0  0  0
  159.9340  212.6600  156.2370 C   0  0  0  0  0  2  0  0  0  0  0  0
  159.8210  211.2380  156.5350 N   0  0  0  0  0  2  0  0  0  0  0  0
  161.8750  210.0560  156.5360 C   0  0  0  0  0  2  0  0  0  0  0  0
  160.6950  210.2630  155.9710 C   0  0  0  0  0  0  0  0  0  0  0  0
  160.2460  209.3880  154.8370 C   0  0  0  0  0  2  0  0  0  0  0  0
  159.5320  207.3240  156.2510 C   0  0  0  0  0  1  0  0  0  0  0  0
  160.3650  207.9300  155.1730 C   0  0  0  0  0  0  0  0  0  0  0  0
  161.0920  207.1350  154.3980 C   0  0  0  0  0  2  0  0  0  0  0  0
  160.4850  209.7870  151.3290 C   0  0  0  0  0  3  0  0  0  0  0  0
  162.7080  209.7690  151.6020 C   0  0  0  0  0  3  0  0  0  0  0  0
  161.5860  208.9750  151.3980 C   0  0  0  0  0  0  0  0  0  0  0  0
  160.8740  211.0580  151.5380 N   0  0  0  0  0  0  0  0  0  0  0  0
  162.2210  211.0630  151.6940 C   0  0  0  0  0  3  0  0  0  0  0  0
  161.5510  207.5970  150.9920 N   0  0  0  0  0  0  0  0  0  0  0  0
  161.5900  207.0480  149.8040 C   0  0  0  0  0  0  0  0  0  0  0  0
  161.4500  203.5150  148.3810 N   0  0  0  0  0  0  0  0  0  0  0  0
  161.1800  200.6390  147.4490 C   0  0  0  0  0  0  0  0  0  0  0  0
  160.7340  201.3330  146.2750 N   0  0  0  0  0  0  0  0  0  0  0  0
  162.0490  205.6350  147.5140 F   0  0  0  0  0  0  0  0  0  0  0  0
  161.6020  204.9250  148.5850 C   0  0  0  0  0  0  0  0  0  0  0  0
  161.1450  200.8380  144.9690 C   0  0  0  0  0  1  0  0  0  0  0  0
  161.3610  205.5820  149.7380 C   0  0  0  0  0  0  0  0  0  0  0  0
  160.3750  201.2030  151.0720 C   0  0  0  0  0  3  0  0  0  0  0  0
  160.8770  201.1240  148.7670 N   0  0  0  0  0  0  0  0  0  0  0  0
  160.6940  202.5500  150.5070 C   0  0  0  0  0  0  0  0  0  0  0  0
  160.9790  202.4660  149.2250 C   0  0  1  0  0  3  0  0  0  0  0  0
  160.7410  203.7200  151.3710 C   0  0  0  0  0  3  0  0  0  0  0  0
  160.6140  200.2540  149.8990 C   0  0  0  0  0  3  0  0  0  0  0  0
  161.8020  199.5460  147.3290 O   0  0  0  0  0  0  0  0  0  0  0  0
  161.0170  204.9760  151.0410 C   0  0  0  0  0  3  0  0  0  0  0  0
  159.6120  202.2630  146.3430 C   0  0  0  0  0  2  0  0  0  0  0  0
  158.8340  202.2570  145.0400 C   0  0  0  0  0  1  0  0  0  0  0  0
  160.8570  208.2130  147.8620 O   0  0  0  0  0  0  0  0  0  0  0  0
  161.8300  207.8170  148.5520 C   0  0  0  0  0  0  0  0  0  0  0  0
  163.1200  208.0390  148.0820 O   0  0  0  0  0  1  0  0  0  0  0  0
  158.7400  213.8930  147.2200 C   0  0  0  0  0  2  0  0  0  0  0  0
  159.4110  212.4420  143.1740 O   0  0  0  0  0  0  0  0  0  0  0  0
  159.6910  214.0250  144.8800 N   0  0  0  0  0  2  0  0  0  0  0  0
  159.1220  213.2340  145.9300 C   0  0  0  0  0  0  0  0  0  0  0  0
  159.8440  213.5730  143.5300 C   0  0  0  0  0  0  0  0  0  0  0  0
  158.8560  212.0130  145.7390 O   0  0  0  0  0  0  0  0  0  0  0  0
  160.4870  214.4410  142.4930 C   0  0  0  0  0  2  0  0  0  0  0  0
  162.0200  214.3710  142.4550 C   0  0  0  0  0  2  0  0  0  0  0  0
  162.5050  213.1290  142.0190 O   0  0  0  0  0  0  0  0  0  0  0  0
  163.7790  212.1190  138.8570 S   0  0  0  0  0  0  0  0  0  0  0  0
  161.8240  211.3840  140.5500 C   0  0  0  0  0  2  0  0  0  0  0  0
  162.8560  213.4680  139.6510 C   0  0  0  0  0  2  0  0  0  0  0  0
  161.9610  212.8870  140.7470 C   0  0  2  0  0  3  0  0  0  0  0  0
  162.3710  211.0200  139.1840 C   0  0  0  0  0  2  0  0  0  0  0  0
  161.4220  212.3450  147.1450 C   0  0  0  0  0  2  0  0  0  0  0  0
  162.5900  210.9940  148.3740 O   0  0  0  0  0  1  0  0  0  0  0  0
  161.3540  211.2060  147.9570 O   0  0  0  0  0  0  0  0  0  0  0  0
  1  3  2  0  0  0  0
  2 50  1  6  0  0  0
  2  6  1  0  0  0  0
  3 26  1  0  0  0  0
  3 11  1  0  0  0  0
  5  2  1  0  0  0  0
  5  4  1  1  0  0  0
  5  6  1  0  0  0  0
  6  1  2  0  0  0  0
  7  8  1  0  0  0  0
  8 10  1  0  0  0  0
  8 12  1  0  0  0  0
  9 10  1  0  0  0  0
 11  7  1  0  0  0  0
 11  9  2  0  0  0  0
 12 13  1  0  0  0  0
 13 14  1  6  0  0  0
 15 13  1  0  0  0  0
 15 16  1  0  0  0  0
 18 16  1  0  0  0  0
 18 17  2  0  0  0  0
 19 21  1  0  0  0  0
 19 18  1  0  0  0  0
 21 20  1  0  0  0  0
 22 21  2  0  0  0  0
 23 25  2  0  0  0  0
 23 26  1  0  0  0  0
 24 27  2  0  0  0  0
 25 24  1  0  0  0  0
 26 27  1  0  0  0  0
 28 25  1  0  0  0  0
 29 28  2  0  0  0  0
 30 34  2  0  0  0  0
 31 38  1  0  0  0  0
 32 45  1  0  0  0  0
 32 31  1  0  0  0  0
 33 34  1  0  0  0  0
 34 36  1  0  0  0  0
 35 32  1  0  0  0  0
 36 29  1  0  0  0  0
 36 44  2  0  0  0  0
 38 40  1  0  0  0  0
 38 42  1  0  0  0  0
 39 37  1  0  0  0  0
 39 41  2  0  0  0  0
 40 30  1  1  0  0  0
 40 39  1  0  0  0  0
 42 37  2  0  0  0  0
 43 31  2  0  0  0  0
 44 41  1  0  0  0  0
 46 45  1  0  0  0  0
 47 48  2  0  0  0  0
 48 29  1  0  0  0  0
 49 48  1  0  0  0  0
 51 54  2  0  0  0  0
 52 53  1  0  0  0  0
 53 50  1  0  0  0  0
 54 52  1  0  0  0  0
 55 53  2  0  0  0  0
 56 54  1  0  0  0  0
 57 56  1  0  0  0  0
 58 57  1  0  0  0  0
 59 63  1  0  0  0  0
 59 61  1  0  0  0  0
 60 62  1  0  0  0  0
 61 62  1  0  0  0  0
 62 58  1  1  0  0  0
 63 60  1  0  0  0  0
 64  5  1  0  0  0  0
 64 66  1  0  0  0  0
 66 65  1  0  0  0  0
M  END
>  <MODEL>
2

>  <REMARK>
 VINA RESULT:      -2.3      2.898      9.434
  Name = 
  21 active torsions:
  status: ('A' for Active; 'I' for Inactive)
    1  A    between atoms: C_5  and  C_11
    2  A    between atoms: C_5  and  C_32
    3  A    between atoms: N_8  and  C_26
    4  A    between atoms: O_10  and  C_43
    5  A    between atoms: C_11  and  N_47
    6  A    between atoms: N_12  and  C_41
    7  A    between atoms: C_14  and  C_44
    8  A    between atoms: C_14  and  C_51
    9  A    between atoms: O_18  and  C_38
   10  A    between atoms: O_18  and  C_44
   11  A    between atoms: C_19  and  CA_54
   12  A    between atoms: C_20  and  C_62
   13  A    between atoms: C_20  and  C_65
   14  A    between atoms: C_31  and  C_36
   15  A    between atoms: C_31  and  C_37
   16  A    between atoms: N_34  and  C_62
   17  A    between atoms: N_40  and  C_49
   18  A    between atoms: C_43  and  C_57
   19  A    between atoms: C_45  and  CA_54
   20  A    between atoms: N_47  and  C_65
   21  A    between atoms: C_49  and  C_58
                            x       y       z     vdW  Elec       q    Type
                         _______ _______ _______ _____ _____    ______ ____

>  <TORSDO>
F 21

$$$$
