=
 OpenBabel11042422533D

 29 32  0  0  1  0  0  0  0  0999 V2000
  161.7270  208.9080  149.2980 C   0  0  0  0  0  2  0  0  0  0  0  0
  161.4930  206.7210  151.2070 C   0  0  2  0  0  3  0  0  0  0  0  0
  163.3190  210.4070  151.2710 O   0  0  0  0  0  0  0  0  0  0  0  0
  162.0220  209.4150  153.0730 C   0  0  2  0  0  3  0  0  0  0  0  0
  162.3470  209.6970  151.6440 C   0  0  0  0  0  0  0  0  0  0  0  0
  161.4890  206.4190  149.7110 C   0  0  0  0  0  2  0  0  0  0  0  0
  160.8050  208.4710  152.9290 C   0  0  1  0  0  3  0  0  0  0  0  0
  162.2900  207.5120  148.9930 C   0  0  0  0  0  2  0  0  0  0  0  0
  161.4780  209.0480  150.7310 N   0  0  0  0  0  0  0  0  0  0  0  0
  160.9870  205.6110  152.1130 C   0  0  2  0  0  3  0  0  0  0  0  0
  161.3580  206.0160  153.5320 C   0  0  0  0  0  2  0  0  0  0  0  0
  160.7400  208.0330  151.4500 C   0  0  1  0  0  3  0  0  0  0  0  0
  160.6410  207.3040  153.9400 C   0  0  1  0  0  3  0  0  0  0  0  0
  160.9570  211.6260  155.8420 C   0  0  0  0  0  2  0  0  0  0  0  0
  160.2150  211.0490  153.6160 N   0  0  0  0  0  0  0  0  0  0  0  0
  161.9670  210.7080  155.2170 C   0  0  0  0  0  2  0  0  0  0  0  0
  159.7790  211.6150  154.8890 C   0  0  1  0  0  3  0  0  0  0  0  0
  161.6370  210.7450  153.7420 C   0  0  1  0  0  3  0  0  0  0  0  0
  160.1050  212.0340  152.6940 O   0  0  0  0  0  1  0  0  0  0  0  0
  156.9590  211.3610  154.8940 C   0  0  0  0  0  1  0  0  0  0  0  0
  158.4460  210.6090  155.5730 S   0  0  2  0  0  0  0  0  0  0  0  0
  158.4020  211.0220  157.0370 O   0  0  0  0  0  0  0  0  0  0  0  0
  161.0060  207.6820  155.3660 C   0  0  0  0  0  2  0  0  0  0  0  0
  159.9280  207.2260  156.3300 C   0  0  0  0  0  1  0  0  0  0  0  0
  161.6700  204.2880  151.7870 C   0  0  0  0  0  2  0  0  0  0  0  0
  160.7110  203.3160  151.3830 O   0  0  0  0  0  0  0  0  0  0  0  0
  161.0980  201.2500  150.4160 O   0  0  0  0  0  0  0  0  0  0  0  0
  160.9080  202.4880  150.2750 C   0  0  0  0  0  0  0  0  0  0  0  0
  160.8900  203.0760  148.9110 C   0  0  0  0  0  1  0  0  0  0  0  0
  1  9  1  0  0  0  0
  2  6  1  6  0  0  0
  2 12  1  0  0  0  0
  2 10  1  0  0  0  0
  3  5  2  0  0  0  0
  4  5  1  6  0  0  0
  4 18  1  0  0  0  0
  7  4  1  0  0  0  0
  7 13  1  0  0  0  0
  8  1  1  0  0  0  0
  8  6  1  0  0  0  0
  9 12  1  0  0  0  0
  9  5  1  0  0  0  0
 10 11  1  0  0  0  0
 11 13  1  0  0  0  0
 12  7  1  0  0  0  0
 13 23  1  0  0  0  0
 15 18  1  0  0  0  0
 15 17  1  0  0  0  0
 16 14  1  0  0  0  0
 17 21  1  0  0  0  0
 17 14  1  0  0  0  0
 18 16  1  0  0  0  0
 19 15  1  0  0  0  0
 20 21  1  0  0  0  0
 21 22  2  0  0  0  0
 23 24  1  0  0  0  0
 25 10  1  0  0  0  0
 26 25  1  0  0  0  0
 28 27  2  0  0  0  0
 28 26  1  0  0  0  0
 29 28  1  0  0  0  0
M  END
>  <MODEL>
1

>  <REMARK>
 VINA RESULT:      -7.4      0.000      0.000
  Name = 
  6 active torsions:
  status: ('A' for Active; 'I' for Inactive)
    1  A    between atoms: C_8  and  O_10
    2  A    between atoms: C_9  and  C_22
    3  A    between atoms: O_10  and  C_23
    4  A    between atoms: C_11  and  C_29
    5  A    between atoms: C_20  and  C_23
    6  A    between atoms: C_21  and  S_25
                            x       y       z     vdW  Elec       q    Type
                         _______ _______ _______ _____ _____    ______ ____

>  <TORSDO>
F 6

$$$$
=
 OpenBabel11042422533D

 29 32  0  0  1  0  0  0  0  0999 V2000
  161.4990  205.5030  153.4050 C   0  0  0  0  0  2  0  0  0  0  0  0
  161.4520  206.3660  150.6230 C   0  0  2  0  0  3  0  0  0  0  0  0
  159.8960  207.8670  154.1240 O   0  0  0  0  0  0  0  0  0  0  0  0
  161.0000  209.1490  152.3760 C   0  0  2  0  0  3  0  0  0  0  0  0
  160.7880  207.9480  153.2380 C   0  0  0  0  0  0  0  0  0  0  0  0
  161.5310  204.8770  150.9490 C   0  0  0  0  0  2  0  0  0  0  0  0
  162.1520  208.6700  151.4620 C   0  0  1  0  0  3  0  0  0  0  0  0
  160.8580  204.6410  152.3080 C   0  0  0  0  0  2  0  0  0  0  0  0
  161.6650  206.8770  152.9330 N   0  0  0  0  0  0  0  0  0  0  0  0
  161.8170  206.7580  149.2020 C   0  0  2  0  0  3  0  0  0  0  0  0
  161.3860  208.2080  149.0340 C   0  0  0  0  0  2  0  0  0  0  0  0
  162.2810  207.1430  151.6520 C   0  0  1  0  0  3  0  0  0  0  0  0
  162.1660  209.1240  149.9770 C   0  0  1  0  0  3  0  0  0  0  0  0
  161.8650  210.8090  155.5670 C   0  0  0  0  0  2  0  0  0  0  0  0
  160.3090  211.1190  153.7440 N   0  0  0  0  0  0  0  0  0  0  0  0
  162.1500  209.7850  154.5070 C   0  0  0  0  0  2  0  0  0  0  0  0
  160.5640  211.4580  155.1410 C   0  0  1  0  0  3  0  0  0  0  0  0
  161.4350  210.3120  153.2840 C   0  0  1  0  0  3  0  0  0  0  0  0
  160.3500  212.2800  153.0480 O   0  0  0  0  0  1  0  0  0  0  0  0
  157.7500  211.1430  155.1560 C   0  0  0  0  0  1  0  0  0  0  0  0
  159.2100  210.8480  156.1660 S   0  0  2  0  0  0  0  0  0  0  0  0
  159.0880  211.8990  157.2600 O   0  0  0  0  0  0  0  0  0  0  0  0
  161.7380  210.5700  149.7820 C   0  0  0  0  0  2  0  0  0  0  0  0
  162.1150  211.0530  148.3950 C   0  0  0  0  0  1  0  0  0  0  0  0
  161.0640  205.9030  148.1890 C   0  0  0  0  0  2  0  0  0  0  0  0
  161.9650  205.0680  147.4690 O   0  0  0  0  0  0  0  0  0  0  0  0
  161.6240  203.5050  145.7980 O   0  0  0  0  0  0  0  0  0  0  0  0
  161.6090  203.7930  147.0250 C   0  0  0  0  0  0  0  0  0  0  0  0
  161.2090  202.7600  148.0160 C   0  0  0  0  0  1  0  0  0  0  0  0
  2  6  1  6  0  0  0
  2 12  1  0  0  0  0
  4  5  1  1  0  0  0
  4 18  1  0  0  0  0
  5  3  2  0  0  0  0
  6  8  1  0  0  0  0
  7 12  1  0  0  0  0
  7  4  1  0  0  0  0
  8  1  1  0  0  0  0
  9  5  1  0  0  0  0
  9  1  1  0  0  0  0
 10  2  1  0  0  0  0
 11 10  1  0  0  0  0
 11 13  1  0  0  0  0
 12  9  1  0  0  0  0
 13  7  1  0  0  0  0
 15 17  1  0  0  0  0
 16 14  1  0  0  0  0
 17 14  1  0  0  0  0
 17 21  1  0  0  0  0
 18 15  1  0  0  0  0
 18 16  1  0  0  0  0
 19 15  1  0  0  0  0
 20 21  1  0  0  0  0
 21 22  2  0  0  0  0
 23 13  1  0  0  0  0
 24 23  1  0  0  0  0
 25 10  1  0  0  0  0
 26 25  1  0  0  0  0
 27 28  2  0  0  0  0
 28 26  1  0  0  0  0
 28 29  1  0  0  0  0
M  END
>  <MODEL>
2

>  <REMARK>
 VINA RESULT:      -6.8      1.918      3.572
  Name = 
  6 active torsions:
  status: ('A' for Active; 'I' for Inactive)
    1  A    between atoms: C_8  and  O_10
    2  A    between atoms: C_9  and  C_22
    3  A    between atoms: O_10  and  C_23
    4  A    between atoms: C_11  and  C_29
    5  A    between atoms: C_20  and  C_23
    6  A    between atoms: C_21  and  S_25
                            x       y       z     vdW  Elec       q    Type
                         _______ _______ _______ _____ _____    ______ ____

>  <TORSDO>
F 6

$$$$
=
 OpenBabel11042422533D

 29 32  0  0  1  0  0  0  0  0999 V2000
  160.3990  202.5650  149.8520 C   0  0  0  0  0  2  0  0  0  0  0  0
  161.2150  205.0230  151.1860 C   0  0  2  0  0  3  0  0  0  0  0  0
  162.4520  203.0470  147.7960 O   0  0  0  0  0  0  0  0  0  0  0  0
  162.1140  205.4450  148.0180 C   0  0  2  0  0  3  0  0  0  0  0  0
  161.8040  204.0100  148.2870 C   0  0  0  0  0  0  0  0  0  0  0  0
  160.6500  203.8700  152.0110 C   0  0  0  0  0  2  0  0  0  0  0  0
  161.0660  206.1560  148.9060 C   0  0  1  0  0  3  0  0  0  0  0  0
  160.9580  202.5550  151.2820 C   0  0  0  0  0  2  0  0  0  0  0  0
  160.7290  203.8270  149.1920 N   0  0  0  0  0  0  0  0  0  0  0  0
  161.2520  206.3780  151.8720 C   0  0  2  0  0  3  0  0  0  0  0  0
  162.1080  207.2790  150.9930 C   0  0  0  0  0  2  0  0  0  0  0  0
  160.4680  205.0890  149.8490 C   0  0  1  0  0  3  0  0  0  0  0  0
  161.4630  207.4760  149.6200 C   0  0  1  0  0  3  0  0  0  0  0  0
  160.1010  206.0090  144.9660 C   0  0  0  0  0  2  0  0  0  0  0  0
  161.8080  204.4820  145.7370 N   0  0  0  0  0  0  0  0  0  0  0  0
  160.5660  206.4470  146.3250 C   0  0  0  0  0  2  0  0  0  0  0  0
  160.7410  204.6520  144.7550 C   0  0  1  0  0  3  0  0  0  0  0  0
  161.8710  205.7100  146.5230 C   0  0  1  0  0  3  0  0  0  0  0  0
  162.9670  204.4020  145.0420 O   0  0  0  0  0  1  0  0  0  0  0  0
  160.4980  201.8720  145.2320 C   0  0  0  0  0  1  0  0  0  0  0  0
  159.5080  203.3520  144.9720 S   0  0  2  0  0  0  0  0  0  0  0  0
  158.9520  203.1500  143.5690 O   0  0  0  0  0  0  0  0  0  0  0  0
  162.3190  208.3940  148.7630 C   0  0  0  0  0  2  0  0  0  0  0  0
  161.9630  209.8460  149.0190 C   0  0  0  0  0  1  0  0  0  0  0  0
  161.9030  206.2750  153.2470 C   0  0  0  0  0  2  0  0  0  0  0  0
  160.9200  206.3560  154.2730 O   0  0  0  0  0  0  0  0  0  0  0  0
  161.2370  208.6130  154.6710 O   0  0  0  0  0  0  0  0  0  0  0  0
  160.7040  207.5230  155.0100 C   0  0  0  0  0  0  0  0  0  0  0  0
  159.8280  207.4770  156.2100 C   0  0  0  0  0  1  0  0  0  0  0  0
  1  8  1  0  0  0  0
  2 10  1  0  0  0  0
  2  6  1  1  0  0  0
  3  5  2  0  0  0  0
  4  5  1  6  0  0  0
  4  7  1  0  0  0  0
  5  9  1  0  0  0  0
  7 13  1  0  0  0  0
  7 12  1  0  0  0  0
  8  6  1  0  0  0  0
  9 12  1  0  0  0  0
  9  1  1  0  0  0  0
 10 25  1  0  0  0  0
 11 10  1  0  0  0  0
 12  2  1  0  0  0  0
 13 11  1  0  0  0  0
 14 16  1  0  0  0  0
 15 18  1  0  0  0  0
 16 18  1  0  0  0  0
 17 14  1  0  0  0  0
 17 21  1  0  0  0  0
 17 15  1  0  0  0  0
 18  4  1  0  0  0  0
 19 15  1  0  0  0  0
 21 20  1  0  0  0  0
 22 21  2  0  0  0  0
 23 24  1  0  0  0  0
 23 13  1  0  0  0  0
 25 26  1  0  0  0  0
 26 28  1  0  0  0  0
 27 28  2  0  0  0  0
 28 29  1  0  0  0  0
M  END
>  <MODEL>
3

>  <REMARK>
 VINA RESULT:      -6.8      4.085      8.261
  Name = 
  6 active torsions:
  status: ('A' for Active; 'I' for Inactive)
    1  A    between atoms: C_8  and  O_10
    2  A    between atoms: C_9  and  C_22
    3  A    between atoms: O_10  and  C_23
    4  A    between atoms: C_11  and  C_29
    5  A    between atoms: C_20  and  C_23
    6  A    between atoms: C_21  and  S_25
                            x       y       z     vdW  Elec       q    Type
                         _______ _______ _______ _____ _____    ______ ____

>  <TORSDO>
F 6

$$$$
=
 OpenBabel11042422533D

 29 32  0  0  1  0  0  0  0  0999 V2000
  162.3360  209.2450  150.3680 C   0  0  0  0  0  2  0  0  0  0  0  0
  161.2800  207.4790  152.4300 C   0  0  2  0  0  3  0  0  0  0  0  0
  160.9520  207.6290  148.3310 O   0  0  0  0  0  0  0  0  0  0  0  0
  161.3080  205.6310  149.6720 C   0  0  2  0  0  3  0  0  0  0  0  0
  161.4760  207.0760  149.3350 C   0  0  0  0  0  0  0  0  0  0  0  0
  161.5490  208.9450  152.7590 C   0  0  0  0  0  2  0  0  0  0  0  0
  162.0980  205.5330  150.9990 C   0  0  1  0  0  3  0  0  0  0  0  0
  161.4030  209.7660  151.4710 C   0  0  0  0  0  2  0  0  0  0  0  0
  162.2510  207.7880  150.2840 N   0  0  0  0  0  0  0  0  0  0  0  0
  161.1070  206.5500  153.6190 C   0  0  2  0  0  3  0  0  0  0  0  0
  160.5640  205.2410  153.0630 C   0  0  0  0  0  2  0  0  0  0  0  0
  162.3690  206.9760  151.4760 C   0  0  1  0  0  3  0  0  0  0  0  0
  161.5710  204.5900  152.1140 C   0  0  1  0  0  3  0  0  0  0  0  0
  162.8330  205.0380  146.3530 C   0  0  0  0  0  2  0  0  0  0  0  0
  160.9900  204.1850  147.6630 N   0  0  0  0  0  0  0  0  0  0  0  0
  162.8620  205.6820  147.7090 C   0  0  0  0  0  2  0  0  0  0  0  0
  161.5130  204.2950  146.3040 C   0  0  1  0  0  3  0  0  0  0  0  0
  161.9660  204.8050  148.5540 C   0  0  1  0  0  3  0  0  0  0  0  0
  160.9660  202.8650  147.9660 O   0  0  0  0  0  1  0  0  0  0  0  0
  161.2460  205.4830  143.7480 C   0  0  0  0  0  1  0  0  0  0  0  0
  160.3380  205.1980  145.2760 S   0  0  2  0  0  0  0  0  0  0  0  0
  160.2960  206.5810  145.9120 O   0  0  0  0  0  0  0  0  0  0  0  0
  161.0220  203.2750  151.5840 C   0  0  0  0  0  2  0  0  0  0  0  0
  162.1070  202.2150  151.5650 C   0  0  0  0  0  1  0  0  0  0  0  0
  160.0980  207.1160  154.6120 C   0  0  0  0  0  2  0  0  0  0  0  0
  160.6890  207.2600  155.8990 O   0  0  0  0  0  0  0  0  0  0  0  0
  162.2560  208.6500  156.8800 O   0  0  0  0  0  0  0  0  0  0  0  0
  161.1030  208.4980  156.3960 C   0  0  0  0  0  0  0  0  0  0  0  0
  160.1690  209.6530  156.3480 C   0  0  0  0  0  1  0  0  0  0  0  0
  1  8  1  0  0  0  0
  2  6  1  1  0  0  0
  2 10  1  0  0  0  0
  3  5  2  0  0  0  0
  4  5  1  6  0  0  0
  4  7  1  0  0  0  0
  5  9  1  0  0  0  0
  7 12  1  0  0  0  0
  7 13  1  0  0  0  0
  8  6  1  0  0  0  0
  9  1  1  0  0  0  0
  9 12  1  0  0  0  0
 10 25  1  0  0  0  0
 11 10  1  0  0  0  0
 12  2  1  0  0  0  0
 13 11  1  0  0  0  0
 14 16  1  0  0  0  0
 15 19  1  0  0  0  0
 15 18  1  0  0  0  0
 16 18  1  0  0  0  0
 17 14  1  0  0  0  0
 17 15  1  0  0  0  0
 18  4  1  0  0  0  0
 20 21  1  0  0  0  0
 21 22  2  0  0  0  0
 21 17  1  0  0  0  0
 23 13  1  0  0  0  0
 24 23  1  0  0  0  0
 25 26  1  0  0  0  0
 26 28  1  0  0  0  0
 28 27  2  0  0  0  0
 29 28  1  0  0  0  0
M  END
>  <MODEL>
4

>  <REMARK>
 VINA RESULT:      -6.4      3.589      7.441
  Name = 
  6 active torsions:
  status: ('A' for Active; 'I' for Inactive)
    1  A    between atoms: C_8  and  O_10
    2  A    between atoms: C_9  and  C_22
    3  A    between atoms: O_10  and  C_23
    4  A    between atoms: C_11  and  C_29
    5  A    between atoms: C_20  and  C_23
    6  A    between atoms: C_21  and  S_25
                            x       y       z     vdW  Elec       q    Type
                         _______ _______ _______ _____ _____    ______ ____

>  <TORSDO>
F 6

$$$$
=
 OpenBabel11042422533D

 29 32  0  0  1  0  0  0  0  0999 V2000
  161.2910  203.9550  152.3790 C   0  0  0  0  0  2  0  0  0  0  0  0
  161.2270  205.7060  150.0520 C   0  0  2  0  0  3  0  0  0  0  0  0
  160.0040  206.0790  153.9620 O   0  0  0  0  0  0  0  0  0  0  0  0
  161.1740  207.7640  152.6560 C   0  0  2  0  0  3  0  0  0  0  0  0
  160.8610  206.3690  153.0850 C   0  0  0  0  0  0  0  0  0  0  0  0
  161.1460  204.1940  149.8590 C   0  0  0  0  0  2  0  0  0  0  0  0
  162.2230  207.5150  151.5470 C   0  0  1  0  0  3  0  0  0  0  0  0
  160.5090  203.5790  151.1120 C   0  0  0  0  0  2  0  0  0  0  0  0
  161.5950  205.3850  152.3760 N   0  0  0  0  0  0  0  0  0  0  0  0
  161.5740  206.5170  148.8150 C   0  0  2  0  0  3  0  0  0  0  0  0
  161.3060  207.9730  149.1700 C   0  0  0  0  0  2  0  0  0  0  0  0
  162.1820  206.0090  151.2110 C   0  0  1  0  0  3  0  0  0  0  0  0
  162.2270  208.4390  150.3000 C   0  0  1  0  0  3  0  0  0  0  0  0
  161.4330  208.8370  156.1870 C   0  0  0  0  0  2  0  0  0  0  0  0
  161.2580  209.8620  154.0050 N   0  0  0  0  0  0  0  0  0  0  0  0
  161.4800  207.7620  155.1410 C   0  0  0  0  0  2  0  0  0  0  0  0
  161.0600  210.0970  155.4330 C   0  0  1  0  0  3  0  0  0  0  0  0
  161.7790  208.5060  153.8590 C   0  0  1  0  0  3  0  0  0  0  0  0
  162.2390  210.7040  153.6040 O   0  0  0  0  0  1  0  0  0  0  0  0
  159.2050  212.2260  155.2230 C   0  0  0  0  0  1  0  0  0  0  0  0
  159.3300  210.5080  155.7430 S   0  0  2  0  0  0  0  0  0  0  0  0
  159.2520  210.6020  157.2600 O   0  0  0  0  0  0  0  0  0  0  0  0
  161.9610  209.9000  150.6280 C   0  0  0  0  0  2  0  0  0  0  0  0
  162.2050  210.7710  149.4110 C   0  0  0  0  0  1  0  0  0  0  0  0
  160.6850  206.1290  147.6400 C   0  0  0  0  0  2  0  0  0  0  0  0
  161.2910  206.5040  146.4080 O   0  0  0  0  0  0  0  0  0  0  0  0
  161.4280  205.4450  144.3560 O   0  0  0  0  0  0  0  0  0  0  0  0
  161.8520  205.5680  145.5360 C   0  0  0  0  0  0  0  0  0  0  0  0
  162.9680  204.7080  146.0080 C   0  0  0  0  0  1  0  0  0  0  0  0
  2  6  1  6  0  0  0
  2 12  1  0  0  0  0
  4  5  1  1  0  0  0
  4 18  1  0  0  0  0
  5  3  2  0  0  0  0
  6  8  1  0  0  0  0
  7  4  1  0  0  0  0
  8  1  1  0  0  0  0
  9  1  1  0  0  0  0
  9  5  1  0  0  0  0
 10 11  1  0  0  0  0
 10  2  1  0  0  0  0
 11 13  1  0  0  0  0
 12  7  1  0  0  0  0
 12  9  1  0  0  0  0
 13 23  1  0  0  0  0
 13  7  1  0  0  0  0
 15 17  1  0  0  0  0
 16 14  1  0  0  0  0
 17 21  1  0  0  0  0
 17 14  1  0  0  0  0
 18 15  1  0  0  0  0
 18 16  1  0  0  0  0
 19 15  1  0  0  0  0
 20 21  1  0  0  0  0
 21 22  2  0  0  0  0
 24 23  1  0  0  0  0
 25 10  1  0  0  0  0
 26 25  1  0  0  0  0
 27 28  2  0  0  0  0
 28 29  1  0  0  0  0
 28 26  1  0  0  0  0
M  END
>  <MODEL>
5

>  <REMARK>
 VINA RESULT:      -6.2      2.570      4.141
  Name = 
  6 active torsions:
  status: ('A' for Active; 'I' for Inactive)
    1  A    between atoms: C_8  and  O_10
    2  A    between atoms: C_9  and  C_22
    3  A    between atoms: O_10  and  C_23
    4  A    between atoms: C_11  and  C_29
    5  A    between atoms: C_20  and  C_23
    6  A    between atoms: C_21  and  S_25
                            x       y       z     vdW  Elec       q    Type
                         _______ _______ _______ _____ _____    ______ ____

>  <TORSDO>
F 6

$$$$
=
 OpenBabel11042422533D

 29 32  0  0  1  0  0  0  0  0999 V2000
  161.0330  207.0230  147.4300 C   0  0  0  0  0  2  0  0  0  0  0  0
  161.1550  204.8270  149.3410 C   0  0  2  0  0  3  0  0  0  0  0  0
  163.0420  208.4700  149.0260 O   0  0  0  0  0  0  0  0  0  0  0  0
  162.1310  207.4940  151.0590 C   0  0  2  0  0  3  0  0  0  0  0  0
  162.1540  207.7790  149.5940 C   0  0  0  0  0  0  0  0  0  0  0  0
  160.8280  204.5360  147.8780 C   0  0  0  0  0  2  0  0  0  0  0  0
  160.8890  206.5790  151.1730 C   0  0  1  0  0  3  0  0  0  0  0  0
  161.4850  205.6160  147.0100 C   0  0  0  0  0  2  0  0  0  0  0  0
  161.0960  207.1570  148.8840 N   0  0  0  0  0  0  0  0  0  0  0  0
  160.8260  203.7220  150.3300 C   0  0  2  0  0  3  0  0  0  0  0  0
  161.4980  204.1070  151.6400 C   0  0  0  0  0  2  0  0  0  0  0  0
  160.5020  206.1540  149.7410 C   0  0  1  0  0  3  0  0  0  0  0  0
  160.9150  205.4090  152.1930 C   0  0  1  0  0  3  0  0  0  0  0  0
  160.3530  210.5930  152.0230 C   0  0  0  0  0  2  0  0  0  0  0  0
  162.4830  209.9650  151.0690 N   0  0  0  0  0  0  0  0  0  0  0  0
  160.4560  209.0950  152.0090 C   0  0  0  0  0  2  0  0  0  0  0  0
  161.5410  211.0710  151.2140 C   0  0  1  0  0  3  0  0  0  0  0  0
  161.9290  208.8280  151.7980 C   0  0  1  0  0  3  0  0  0  0  0  0
  163.6150  210.3310  151.7160 O   0  0  0  0  0  1  0  0  0  0  0  0
  162.5300  211.8290  148.6710 C   0  0  0  0  0  1  0  0  0  0  0  0
  160.9940  211.6150  149.5820 S   0  0  2  0  0  0  0  0  0  0  0  0
  160.5330  213.0460  149.8190 O   0  0  0  0  0  0  0  0  0  0  0  0
  161.5820  205.7680  153.5110 C   0  0  0  0  0  2  0  0  0  0  0  0
  160.6360  206.5680  154.3850 C   0  0  0  0  0  1  0  0  0  0  0  0
  161.3920  202.3860  149.8640 C   0  0  0  0  0  2  0  0  0  0  0  0
  160.5600  201.8110  148.8620 O   0  0  0  0  0  0  0  0  0  0  0  0
  161.7290  199.9720  148.0850 O   0  0  0  0  0  0  0  0  0  0  0  0
  161.0700  201.0160  147.8330 C   0  0  0  0  0  0  0  0  0  0  0  0
  160.8280  201.4070  146.4200 C   0  0  0  0  0  1  0  0  0  0  0  0
  1  9  1  0  0  0  0
  2  6  1  6  0  0  0
  2 12  1  0  0  0  0
  2 10  1  0  0  0  0
  3  5  2  0  0  0  0
  4  5  1  6  0  0  0
  4  7  1  0  0  0  0
  4 18  1  0  0  0  0
  7 13  1  0  0  0  0
  8  1  1  0  0  0  0
  8  6  1  0  0  0  0
  9  5  1  0  0  0  0
  9 12  1  0  0  0  0
 10 11  1  0  0  0  0
 11 13  1  0  0  0  0
 12  7  1  0  0  0  0
 13 23  1  0  0  0  0
 15 17  1  0  0  0  0
 15 19  1  0  0  0  0
 15 18  1  0  0  0  0
 16 14  1  0  0  0  0
 17 14  1  0  0  0  0
 18 16  1  0  0  0  0
 20 21  1  0  0  0  0
 21 22  2  0  0  0  0
 21 17  1  0  0  0  0
 23 24  1  0  0  0  0
 25 10  1  0  0  0  0
 26 25  1  0  0  0  0
 28 27  2  0  0  0  0
 28 26  1  0  0  0  0
 29 28  1  0  0  0  0
M  END
>  <MODEL>
6

>  <REMARK>
 VINA RESULT:      -5.5      2.744      3.748
  Name = 
  6 active torsions:
  status: ('A' for Active; 'I' for Inactive)
    1  A    between atoms: C_8  and  O_10
    2  A    between atoms: C_9  and  C_22
    3  A    between atoms: O_10  and  C_23
    4  A    between atoms: C_11  and  C_29
    5  A    between atoms: C_20  and  C_23
    6  A    between atoms: C_21  and  S_25
                            x       y       z     vdW  Elec       q    Type
                         _______ _______ _______ _____ _____    ______ ____

>  <TORSDO>
F 6

$$$$
=
 OpenBabel11042422533D

 29 32  0  0  1  0  0  0  0  0999 V2000
  162.4970  209.5230  149.6800 C   0  0  0  0  0  2  0  0  0  0  0  0
  161.4800  207.3780  151.3680 C   0  0  2  0  0  3  0  0  0  0  0  0
  160.8310  208.5190  147.4690 O   0  0  0  0  0  0  0  0  0  0  0  0
  161.1410  206.2420  148.2680 C   0  0  2  0  0  3  0  0  0  0  0  0
  161.3910  207.7150  148.2610 C   0  0  0  0  0  0  0  0  0  0  0  0
  161.8870  208.7070  152.0010 C   0  0  0  0  0  2  0  0  0  0  0  0
  162.0260  205.7880  149.4520 C   0  0  1  0  0  3  0  0  0  0  0  0
  161.7010  209.8170  150.9600 C   0  0  0  0  0  2  0  0  0  0  0  0
  162.2940  208.1350  149.2690 N   0  0  0  0  0  0  0  0  0  0  0  0
  161.3340  206.2040  152.3200 C   0  0  2  0  0  3  0  0  0  0  0  0
  160.6480  205.0970  151.5310 C   0  0  0  0  0  2  0  0  0  0  0  0
  162.4450  207.0580  150.2220 C   0  0  1  0  0  3  0  0  0  0  0  0
  161.5210  204.6360  150.3630 C   0  0  1  0  0  3  0  0  0  0  0  0
  160.8310  204.6340  144.9500 C   0  0  0  0  0  2  0  0  0  0  0  0
  162.0180  204.2650  147.0230 N   0  0  0  0  0  0  0  0  0  0  0  0
  160.5630  205.7860  145.8740 C   0  0  0  0  0  2  0  0  0  0  0  0
  161.5520  203.6100  145.8040 C   0  0  1  0  0  3  0  0  0  0  0  0
  161.6390  205.6720  146.9290 C   0  0  1  0  0  3  0  0  0  0  0  0
  163.3710  204.2200  146.9960 O   0  0  0  0  0  1  0  0  0  0  0  0
  161.5020  201.0360  146.9830 C   0  0  0  0  0  1  0  0  0  0  0  0
  160.4250  202.2670  146.2330 S   0  0  2  0  0  0  0  0  0  0  0  0
  160.0810  201.6460  144.8860 O   0  0  0  0  0  0  0  0  0  0  0  0
  160.8310  203.5180  149.5990 C   0  0  0  0  0  2  0  0  0  0  0  0
  160.8310  202.2380  150.4130 C   0  0  0  0  0  1  0  0  0  0  0  0
  160.4560  206.5720  153.5110 C   0  0  0  0  0  2  0  0  0  0  0  0
  161.2570  206.8960  154.6420 O   0  0  0  0  0  0  0  0  0  0  0  0
  160.8530  209.0540  155.3710 O   0  0  0  0  0  0  0  0  0  0  0  0
  160.8470  207.8170  155.6090 C   0  0  0  0  0  0  0  0  0  0  0  0
  160.3920  207.3280  156.9370 C   0  0  0  0  0  1  0  0  0  0  0  0
  1  8  1  0  0  0  0
  2  6  1  1  0  0  0
  2 10  1  0  0  0  0
  3  5  2  0  0  0  0
  4  5  1  6  0  0  0
  4  7  1  0  0  0  0
  5  9  1  0  0  0  0
  7 12  1  0  0  0  0
  7 13  1  0  0  0  0
  8  6  1  0  0  0  0
  9  1  1  0  0  0  0
  9 12  1  0  0  0  0
 10 25  1  0  0  0  0
 11 10  1  0  0  0  0
 12  2  1  0  0  0  0
 13 11  1  0  0  0  0
 14 17  1  0  0  0  0
 14 16  1  0  0  0  0
 16 18  1  0  0  0  0
 17 21  1  0  0  0  0
 17 15  1  0  0  0  0
 18 15  1  0  0  0  0
 18  4  1  0  0  0  0
 19 15  1  0  0  0  0
 21 20  1  0  0  0  0
 22 21  2  0  0  0  0
 23 13  1  0  0  0  0
 23 24  1  0  0  0  0
 25 26  1  0  0  0  0
 26 28  1  0  0  0  0
 27 28  2  0  0  0  0
 28 29  1  0  0  0  0
M  END
>  <MODEL>
7

>  <REMARK>
 VINA RESULT:      -5.4      3.692      7.903
  Name = 
  6 active torsions:
  status: ('A' for Active; 'I' for Inactive)
    1  A    between atoms: C_8  and  O_10
    2  A    between atoms: C_9  and  C_22
    3  A    between atoms: O_10  and  C_23
    4  A    between atoms: C_11  and  C_29
    5  A    between atoms: C_20  and  C_23
    6  A    between atoms: C_21  and  S_25
                            x       y       z     vdW  Elec       q    Type
                         _______ _______ _______ _____ _____    ______ ____

>  <TORSDO>
F 6

$$$$
=
 OpenBabel11042422533D

 29 32  0  0  1  0  0  0  0  0999 V2000
  160.9980  206.9910  147.9690 C   0  0  0  0  0  2  0  0  0  0  0  0
  161.2030  205.1170  150.1890 C   0  0  2  0  0  3  0  0  0  0  0  0
  162.8360  208.8060  149.3830 O   0  0  0  0  0  0  0  0  0  0  0  0
  161.9210  208.0750  151.5150 C   0  0  2  0  0  3  0  0  0  0  0  0
  161.9790  208.1420  150.0240 C   0  0  0  0  0  0  0  0  0  0  0  0
  160.9530  204.5890  148.7790 C   0  0  0  0  0  2  0  0  0  0  0  0
  160.7440  207.0950  151.7310 C   0  0  1  0  0  3  0  0  0  0  0  0
  161.5640  205.5770  147.7760 C   0  0  0  0  0  2  0  0  0  0  0  0
  160.9960  207.3430  149.3880 N   0  0  0  0  0  0  0  0  0  0  0  0
  160.9160  204.1480  151.3230 C   0  0  2  0  0  3  0  0  0  0  0  0
  161.5090  204.7730  152.5790 C   0  0  0  0  0  2  0  0  0  0  0  0
  160.4430  206.4350  150.3680 C   0  0  1  0  0  3  0  0  0  0  0  0
  160.8140  206.0930  152.9150 C   0  0  1  0  0  3  0  0  0  0  0  0
  162.0740  210.9290  153.8650 C   0  0  0  0  0  2  0  0  0  0  0  0
  160.3900  209.5140  152.8610 N   0  0  0  0  0  0  0  0  0  0  0  0
  162.7370  210.0070  152.8820 C   0  0  0  0  0  2  0  0  0  0  0  0
  160.6520  210.4170  153.9780 C   0  0  1  0  0  3  0  0  0  0  0  0
  161.5970  209.4840  152.0390 C   0  0  1  0  0  3  0  0  0  0  0  0
  159.4210  210.0920  152.1130 O   0  0  0  0  0  1  0  0  0  0  0  0
  159.1400  210.4430  156.3720 C   0  0  0  0  0  1  0  0  0  0  0  0
  160.4430  209.5280  155.5350 S   0  0  2  0  0  0  0  0  0  0  0  0
  161.6880  209.9000  156.3280 O   0  0  0  0  0  0  0  0  0  0  0  0
  161.4030  206.6920  154.1810 C   0  0  0  0  0  2  0  0  0  0  0  0
  160.3350  206.8390  155.2480 C   0  0  0  0  0  1  0  0  0  0  0  0
  161.5930  202.8050  151.0790 C   0  0  0  0  0  2  0  0  0  0  0  0
  160.6220  201.7840  150.8760 O   0  0  0  0  0  0  0  0  0  0  0  0
  158.9750  201.4140  149.2940 O   0  0  0  0  0  0  0  0  0  0  0  0
  160.1970  201.3990  149.6030 C   0  0  0  0  0  0  0  0  0  0  0  0
  161.2020  200.9700  148.5960 C   0  0  0  0  0  1  0  0  0  0  0  0
  1  9  1  0  0  0  0
  2  6  1  6  0  0  0
  2 12  1  0  0  0  0
  2 10  1  0  0  0  0
  3  5  2  0  0  0  0
  4  5  1  6  0  0  0
  4  7  1  0  0  0  0
  4 18  1  0  0  0  0
  7 13  1  0  0  0  0
  8  1  1  0  0  0  0
  8  6  1  0  0  0  0
  9  5  1  0  0  0  0
  9 12  1  0  0  0  0
 10 11  1  0  0  0  0
 11 13  1  0  0  0  0
 12  7  1  0  0  0  0
 13 23  1  0  0  0  0
 14 17  1  0  0  0  0
 15 17  1  0  0  0  0
 16 14  1  0  0  0  0
 17 21  1  0  0  0  0
 18 15  1  0  0  0  0
 18 16  1  0  0  0  0
 19 15  1  0  0  0  0
 21 22  2  0  0  0  0
 21 20  1  0  0  0  0
 23 24  1  0  0  0  0
 25 10  1  0  0  0  0
 26 25  1  0  0  0  0
 27 28  2  0  0  0  0
 28 26  1  0  0  0  0
 29 28  1  0  0  0  0
M  END
>  <MODEL>
8

>  <REMARK>
 VINA RESULT:      -5.3      1.654      2.119
  Name = 
  6 active torsions:
  status: ('A' for Active; 'I' for Inactive)
    1  A    between atoms: C_8  and  O_10
    2  A    between atoms: C_9  and  C_22
    3  A    between atoms: O_10  and  C_23
    4  A    between atoms: C_11  and  C_29
    5  A    between atoms: C_20  and  C_23
    6  A    between atoms: C_21  and  S_25
                            x       y       z     vdW  Elec       q    Type
                         _______ _______ _______ _____ _____    ______ ____

>  <TORSDO>
F 6

$$$$
=
 OpenBabel11042422533D

 29 32  0  0  1  0  0  0  0  0999 V2000
  161.5240  211.0340  150.9680 C   0  0  0  0  0  2  0  0  0  0  0  0
  161.7110  208.3060  149.9640 C   0  0  2  0  0  3  0  0  0  0  0  0
  163.0010  210.2060  153.3770 O   0  0  0  0  0  0  0  0  0  0  0  0
  161.9630  208.0100  153.2610 C   0  0  2  0  0  3  0  0  0  0  0  0
  162.1620  209.4310  152.8460 C   0  0  0  0  0  0  0  0  0  0  0  0
  161.6630  209.4700  148.9770 C   0  0  0  0  0  2  0  0  0  0  0  0
  160.8840  207.5460  152.2530 C   0  0  1  0  0  3  0  0  0  0  0  0
  162.2590  210.7080  149.6590 C   0  0  0  0  0  2  0  0  0  0  0  0
  161.3420  209.8180  151.7580 N   0  0  0  0  0  0  0  0  0  0  0  0
  161.4200  206.9320  149.3870 C   0  0  2  0  0  3  0  0  0  0  0  0
  161.8120  205.9260  150.4600 C   0  0  0  0  0  2  0  0  0  0  0  0
  160.7960  208.6240  151.1520 C   0  0  1  0  0  3  0  0  0  0  0  0
  160.9460  206.0930  151.7100 C   0  0  1  0  0  3  0  0  0  0  0  0
  159.3940  208.0160  155.9240 C   0  0  0  0  0  2  0  0  0  0  0  0
  161.2930  209.3520  155.2550 N   0  0  0  0  0  0  0  0  0  0  0  0
  160.0780  207.3430  154.7690 C   0  0  0  0  0  2  0  0  0  0  0  0
  160.0560  209.3750  156.0300 C   0  0  1  0  0  3  0  0  0  0  0  0
  161.4340  208.0080  154.7050 C   0  0  1  0  0  3  0  0  0  0  0  0
  162.3070  209.5240  156.1360 O   0  0  0  0  0  1  0  0  0  0  0  0
  160.0840  211.8740  154.7010 C   0  0  0  0  0  1  0  0  0  0  0  0
  158.9550  210.6450  155.3740 S   0  0  2  0  0  0  0  0  0  0  0  0
  158.4120  211.3260  156.6220 O   0  0  0  0  0  0  0  0  0  0  0  0
  161.3360  205.0690  152.7630 C   0  0  0  0  0  2  0  0  0  0  0  0
  161.0770  203.6620  152.2590 C   0  0  0  0  0  1  0  0  0  0  0  0
  162.2620  206.6720  148.1430 C   0  0  0  0  0  2  0  0  0  0  0  0
  161.4610  206.1220  147.1020 O   0  0  0  0  0  0  0  0  0  0  0  0
  161.9120  204.6340  145.3900 O   0  0  0  0  0  0  0  0  0  0  0  0
  161.6620  204.8310  146.6090 C   0  0  0  0  0  0  0  0  0  0  0  0
  161.5810  203.6730  147.5370 C   0  0  0  0  0  1  0  0  0  0  0  0
  1  9  1  0  0  0  0
  2  6  1  6  0  0  0
  2 12  1  0  0  0  0
  4  5  1  6  0  0  0
  4 18  1  0  0  0  0
  5  3  2  0  0  0  0
  6  8  1  0  0  0  0
  7  4  1  0  0  0  0
  8  1  1  0  0  0  0
  9  5  1  0  0  0  0
 10  2  1  0  0  0  0
 10 11  1  0  0  0  0
 11 13  1  0  0  0  0
 12  9  1  0  0  0  0
 12  7  1  0  0  0  0
 13  7  1  0  0  0  0
 13 23  1  0  0  0  0
 14 17  1  0  0  0  0
 15 17  1  0  0  0  0
 15 19  1  0  0  0  0
 16 14  1  0  0  0  0
 18 16  1  0  0  0  0
 18 15  1  0  0  0  0
 20 21  1  0  0  0  0
 21 17  1  0  0  0  0
 21 22  2  0  0  0  0
 24 23  1  0  0  0  0
 25 10  1  0  0  0  0
 26 25  1  0  0  0  0
 27 28  2  0  0  0  0
 28 26  1  0  0  0  0
 28 29  1  0  0  0  0
M  END
>  <MODEL>
9

>  <REMARK>
 VINA RESULT:      -5.2      2.123      3.242
  Name = 
  6 active torsions:
  status: ('A' for Active; 'I' for Inactive)
    1  A    between atoms: C_8  and  O_10
    2  A    between atoms: C_9  and  C_22
    3  A    between atoms: O_10  and  C_23
    4  A    between atoms: C_11  and  C_29
    5  A    between atoms: C_20  and  C_23
    6  A    between atoms: C_21  and  S_25
                            x       y       z     vdW  Elec       q    Type
                         _______ _______ _______ _____ _____    ______ ____

>  <TORSDO>
F 6

$$$$
