=
 OpenBabel11052410593D

 37 40  0  0  1  0  0  0  0  0999 V2000
  160.7470  207.8750  151.9660 C   0  0  0  0  0  3  0  0  0  0  0  0
  161.8450  208.1910  149.6200 C   0  0  0  0  0  0  0  0  0  0  0  0
  161.2900  208.0430  150.7940 C   0  0  0  0  0  0  0  0  0  0  0  0
  162.1670  205.5600  146.7800 C   0  0  1  0  0  3  0  0  0  0  0  0
  162.5060  207.0910  148.9790 N   0  0  0  0  0  2  0  0  0  0  0  0
  161.1790  206.4950  146.6530 N   0  0  0  0  0  0  0  0  0  0  0  0
  162.0610  206.5110  147.7520 C   0  0  0  0  0  0  0  0  0  0  0  0
  160.9230  201.9300  146.8290 C   0  0  0  0  0  0  0  0  0  0  0  0
  160.8220  202.8470  149.0780 C   0  0  0  0  0  3  0  0  0  0  0  0
  160.6260  201.7900  148.1910 C   0  0  0  0  0  3  0  0  0  0  0  0
  161.7570  203.3270  145.0150 O   0  0  0  0  0  1  0  0  0  0  0  0
  161.5940  204.2470  147.2500 C   0  0  0  0  0  0  0  0  0  0  0  0
  161.3090  204.0660  148.6110 C   0  0  0  0  0  3  0  0  0  0  0  0
  161.4230  203.1670  146.3580 C   0  0  0  0  0  0  0  0  0  0  0  0
  159.9450  200.8370  144.9420 O   0  0  0  0  0  0  0  0  0  0  0  0
  160.7090  200.7640  145.9410 C   0  0  0  0  0  0  0  0  0  0  0  0
  161.3590  199.5640  146.2040 O   0  0  0  0  0  1  0  0  0  0  0  0
  162.4650  210.7410  150.8870 O   0  0  0  0  0  0  0  0  0  0  0  0
  162.1270  210.7250  149.6730 C   0  0  0  0  0  0  0  0  0  0  0  0
  161.8280  209.4890  149.0120 N   0  0  0  0  0  2  0  0  0  0  0  0
  162.9850  212.3950  148.1510 N   0  0  0  0  0  0  0  0  0  0  0  0
  162.6400  213.6160  147.5720 N   0  0  0  0  0  2  0  0  0  0  0  0
  161.3300  214.0410  148.0390 C   0  0  2  0  0  3  0  0  0  0  0  0
  160.8840  212.9190  148.9800 C   0  0  0  0  0  2  0  0  0  0  0  0
  162.0450  211.9850  148.9280 C   0  0  0  0  0  0  0  0  0  0  0  0
  160.7810  213.9990  145.7070 O   0  0  0  0  0  0  0  0  0  0  0  0
  160.3830  214.1700  146.8910 C   0  0  0  0  0  0  0  0  0  0  0  0
  159.0470  214.4530  147.1340 O   0  0  0  0  0  1  0  0  0  0  0  0
  161.5410  207.2650  153.0650 C   0  0  0  0  0  2  0  0  0  0  0  0
  160.7340  207.2890  154.3490 C   0  0  0  0  0  2  0  0  0  0  0  0
  161.4690  208.0730  155.4250 C   0  0  0  0  0  2  0  0  0  0  0  0
  161.6350  210.4140  154.5710 C   0  0  0  0  0  2  0  0  0  0  0  0
  159.0530  210.7380  155.7490 C   0  0  0  0  0  2  0  0  0  0  0  0
  160.9090  209.4810  155.5510 C   0  0  1  0  0  3  0  0  0  0  0  0
  159.5210  209.4830  155.3150 O   0  0  0  0  0  0  0  0  0  0  0  0
  160.6660  211.3900  153.8960 C   0  0  0  0  0  2  0  0  0  0  0  0
  159.5900  211.8800  154.8700 C   0  0  0  0  0  2  0  0  0  0  0  0
  1 29  1  0  0  0  0
  2  3  2  0  0  0  0
  3  1  2  0  0  0  0
  4 12  1  1  0  0  0
  4  7  1  0  0  0  0
  5  2  1  0  0  0  0
  6  4  1  0  0  0  0
  6  7  2  0  0  0  0
  7  5  1  0  0  0  0
  8 10  1  0  0  0  0
 10  9  2  0  0  0  0
 11 14  1  0  0  0  0
 12 13  2  0  0  0  0
 13  9  1  0  0  0  0
 14  8  2  0  0  0  0
 14 12  1  0  0  0  0
 15 16  2  0  0  0  0
 16 17  1  0  0  0  0
 16  8  1  0  0  0  0
 19 18  2  0  0  0  0
 20  2  1  0  0  0  0
 20 19  1  0  0  0  0
 21 25  2  0  0  0  0
 22 23  1  0  0  0  0
 22 21  1  0  0  0  0
 23 27  1  6  0  0  0
 23 24  1  0  0  0  0
 25 24  1  0  0  0  0
 25 19  1  0  0  0  0
 26 27  2  0  0  0  0
 27 28  1  0  0  0  0
 29 30  1  0  0  0  0
 30 31  1  0  0  0  0
 32 34  1  0  0  0  0
 34 31  1  6  0  0  0
 35 34  1  0  0  0  0
 35 33  1  0  0  0  0
 36 32  1  0  0  0  0
 36 37  1  0  0  0  0
 37 33  1  0  0  0  0
M  END
>  <MODEL>
1

>  <REMARK>
 VINA RESULT:      -8.7      0.000      0.000
  Name = 
  10 active torsions:
  status: ('A' for Active; 'I' for Inactive)
    1  A    between atoms: C_1  and  C_15
    2  A    between atoms: C_6  and  C_36
    3  A    between atoms: C_7  and  C_26
    4  A    between atoms: C_8  and  C_24
    5  A    between atoms: C_9  and  C_34
    6  A    between atoms: N_11  and  C_13
    7  A    between atoms: C_13  and  N_20
    8  A    between atoms: C_16  and  C_26
    9  A    between atoms: C_16  and  C_34
   10  A    between atoms: C_18  and  C_29
                            x       y       z     vdW  Elec       q    Type
                         _______ _______ _______ _____ _____    ______ ____

>  <TORSDO>
F 10

$$$$
=
 OpenBabel11052410593D

 37 40  0  0  1  0  0  0  0  0999 V2000
  161.2800  207.0850  148.3900 C   0  0  0  0  0  3  0  0  0  0  0  0
  161.9940  209.3690  149.4280 C   0  0  0  0  0  0  0  0  0  0  0  0
  161.6320  208.2220  148.9180 C   0  0  0  0  0  0  0  0  0  0  0  0
  161.5840  212.9800  148.0550 C   0  0  1  0  0  3  0  0  0  0  0  0
  162.3880  210.4560  148.5780 N   0  0  0  0  0  2  0  0  0  0  0  0
  160.7690  212.6120  149.0880 N   0  0  0  0  0  0  0  0  0  0  0  0
  161.7380  211.7270  148.5710 C   0  0  0  0  0  0  0  0  0  0  0  0
  160.7950  212.9610  144.3000 C   0  0  0  0  0  0  0  0  0  0  0  0
  158.7470  212.5920  145.5560 C   0  0  0  0  0  3  0  0  0  0  0  0
  159.4130  212.7340  144.3400 C   0  0  0  0  0  3  0  0  0  0  0  0
  162.8920  213.2430  145.5080 O   0  0  0  0  0  1  0  0  0  0  0  0
  160.8340  212.9340  146.7480 C   0  0  0  0  0  0  0  0  0  0  0  0
  159.4550  212.6840  146.7520 C   0  0  0  0  0  3  0  0  0  0  0  0
  161.5130  213.0500  145.5150 C   0  0  0  0  0  0  0  0  0  0  0  0
  162.0460  212.1130  142.4490 O   0  0  0  0  0  1  0  0  0  0  0  0
  161.4470  213.0870  142.9760 C   0  0  0  0  0  0  0  0  0  0  0  0
  161.4030  214.2970  142.2940 O   0  0  0  0  0  0  0  0  0  0  0  0
  160.4700  207.8480  151.3920 O   0  0  0  0  0  0  0  0  0  0  0  0
  161.2630  208.7440  151.7890 C   0  0  0  0  0  0  0  0  0  0  0  0
  162.0410  209.5030  150.8540 N   0  0  0  0  0  2  0  0  0  0  0  0
  161.6190  210.1800  153.7010 N   0  0  0  0  0  0  0  0  0  0  0  0
  161.6980  210.1350  155.0920 N   0  0  0  0  0  2  0  0  0  0  0  0
  161.5100  208.7730  155.5630 C   0  0  2  0  0  3  0  0  0  0  0  0
  161.2900  207.9600  154.2840 C   0  0  0  0  0  2  0  0  0  0  0  0
  161.3980  209.0050  153.2260 C   0  0  0  0  0  0  0  0  0  0  0  0
  159.8850  209.7080  157.0550 O   0  0  0  0  0  1  0  0  0  0  0  0
  160.3130  208.6870  156.4520 C   0  0  0  0  0  0  0  0  0  0  0  0
  159.6510  207.4760  156.5940 O   0  0  0  0  0  0  0  0  0  0  0  0
  162.1650  206.4330  147.3880 C   0  0  0  0  0  2  0  0  0  0  0  0
  161.3620  205.4360  146.5740 C   0  0  0  0  0  2  0  0  0  0  0  0
  161.8950  204.0270  146.7830 C   0  0  0  0  0  2  0  0  0  0  0  0
  161.0210  201.7870  147.4570 C   0  0  0  0  0  2  0  0  0  0  0  0
  160.6270  203.0120  150.0070 C   0  0  0  0  0  2  0  0  0  0  0  0
  161.0700  203.2790  147.8180 C   0  0  1  0  0  3  0  0  0  0  0  0
  161.6070  203.4690  149.1060 O   0  0  0  0  0  0  0  0  0  0  0  0
  161.1630  200.9000  148.6980 C   0  0  0  0  0  2  0  0  0  0  0  0
  160.4210  201.4910  149.9010 C   0  0  0  0  0  2  0  0  0  0  0  0
  1  3  2  0  0  0  0
  2 20  1  0  0  0  0
  3  2  2  0  0  0  0
  4 12  1  6  0  0  0
  4  7  1  0  0  0  0
  4  6  1  0  0  0  0
  5  2  1  0  0  0  0
  7  5  1  0  0  0  0
  7  6  2  0  0  0  0
  8 10  2  0  0  0  0
  8 14  1  0  0  0  0
  9 13  2  0  0  0  0
 10  9  1  0  0  0  0
 11 14  1  0  0  0  0
 12 13  1  0  0  0  0
 14 12  2  0  0  0  0
 15 16  1  0  0  0  0
 16  8  1  0  0  0  0
 17 16  2  0  0  0  0
 18 19  2  0  0  0  0
 19 25  1  0  0  0  0
 20 19  1  0  0  0  0
 21 22  1  0  0  0  0
 22 23  1  0  0  0  0
 23 27  1  1  0  0  0
 24 23  1  0  0  0  0
 25 21  2  0  0  0  0
 25 24  1  0  0  0  0
 27 28  2  0  0  0  0
 27 26  1  0  0  0  0
 29  1  1  0  0  0  0
 30 31  1  0  0  0  0
 30 29  1  0  0  0  0
 32 34  1  0  0  0  0
 32 36  1  0  0  0  0
 34 31  1  6  0  0  0
 34 35  1  0  0  0  0
 35 33  1  0  0  0  0
 36 37  1  0  0  0  0
 37 33  1  0  0  0  0
M  END
>  <MODEL>
2

>  <REMARK>
 VINA RESULT:      -8.0      2.402      8.981
  Name = 
  10 active torsions:
  status: ('A' for Active; 'I' for Inactive)
    1  A    between atoms: C_1  and  C_15
    2  A    between atoms: C_6  and  C_36
    3  A    between atoms: C_7  and  C_26
    4  A    between atoms: C_8  and  C_24
    5  A    between atoms: C_9  and  C_34
    6  A    between atoms: N_11  and  C_13
    7  A    between atoms: C_13  and  N_20
    8  A    between atoms: C_16  and  C_26
    9  A    between atoms: C_16  and  C_34
   10  A    between atoms: C_18  and  C_29
                            x       y       z     vdW  Elec       q    Type
                         _______ _______ _______ _____ _____    ______ ____

>  <TORSDO>
F 10

$$$$
=
 OpenBabel11052410593D

 37 40  0  0  1  0  0  0  0  0999 V2000
  161.9400  211.5180  148.8210 C   0  0  0  0  0  3  0  0  0  0  0  0
  162.3690  209.3660  150.2320 C   0  0  0  0  0  0  0  0  0  0  0  0
  162.1530  210.4500  149.5350 C   0  0  0  0  0  0  0  0  0  0  0  0
  162.0600  206.4840  147.6460 C   0  0  1  0  0  3  0  0  0  0  0  0
  162.8520  208.1730  149.5990 N   0  0  0  0  0  2  0  0  0  0  0  0
  161.1120  207.4670  147.5980 N   0  0  0  0  0  0  0  0  0  0  0  0
  162.1730  207.5200  148.5260 C   0  0  0  0  0  0  0  0  0  0  0  0
  161.0000  202.8620  148.3460 C   0  0  0  0  0  0  0  0  0  0  0  0
  160.6470  204.2050  150.3410 C   0  0  0  0  0  3  0  0  0  0  0  0
  160.5870  202.9800  149.6800 C   0  0  0  0  0  3  0  0  0  0  0  0
  161.9260  203.9180  146.3550 O   0  0  0  0  0  1  0  0  0  0  0  0
  161.5130  205.2570  148.3310 C   0  0  0  0  0  0  0  0  0  0  0  0
  161.1140  205.3350  149.6730 C   0  0  0  0  0  3  0  0  0  0  0  0
  161.4780  204.0090  147.6710 C   0  0  0  0  0  0  0  0  0  0  0  0
  160.2020  201.3310  146.6940 O   0  0  0  0  0  0  0  0  0  0  0  0
  160.9270  201.5290  147.7040 C   0  0  0  0  0  0  0  0  0  0  0  0
  161.6690  200.4720  148.2170 O   0  0  0  0  0  1  0  0  0  0  0  0
  160.5140  207.6180  151.6440 O   0  0  0  0  0  0  0  0  0  0  0  0
  161.1300  208.5090  152.2890 C   0  0  0  0  0  0  0  0  0  0  0  0
  162.0620  209.3770  151.6320 N   0  0  0  0  0  2  0  0  0  0  0  0
  160.8340  207.6420  154.5260 N   0  0  0  0  0  0  0  0  0  0  0  0
  160.6070  208.0690  155.8340 N   0  0  0  0  0  2  0  0  0  0  0  0
  160.5060  209.5180  155.8790 C   0  0  2  0  0  3  0  0  0  0  0  0
  160.7130  209.9560  154.4270 C   0  0  0  0  0  2  0  0  0  0  0  0
  160.8970  208.6500  153.7300 C   0  0  0  0  0  0  0  0  0  0  0  0
  162.4590  209.3460  157.2580 O   0  0  0  0  0  1  0  0  0  0  0  0
  161.5730  210.0890  156.7560 C   0  0  0  0  0  0  0  0  0  0  0  0
  161.6020  211.4550  156.9970 O   0  0  0  0  0  0  0  0  0  0  0  0
  161.1150  211.4280  147.5880 C   0  0  0  0  0  2  0  0  0  0  0  0
  160.5910  212.8040  147.2250 C   0  0  0  0  0  2  0  0  0  0  0  0
  161.5630  213.5160  146.2980 C   0  0  0  0  0  2  0  0  0  0  0  0
  162.3390  213.4060  143.9270 C   0  0  0  0  0  2  0  0  0  0  0  0
  159.7170  212.4030  143.4010 C   0  0  0  0  0  2  0  0  0  0  0  0
  161.1120  213.4120  144.8500 C   0  0  1  0  0  3  0  0  0  0  0  0
  160.3320  212.2550  144.6590 O   0  0  0  0  0  0  0  0  0  0  0  0
  162.1830  212.3980  142.7840 C   0  0  0  0  0  2  0  0  0  0  0  0
  160.7450  212.3620  142.2570 C   0  0  0  0  0  2  0  0  0  0  0  0
  1  3  2  0  0  0  0
  2 20  1  0  0  0  0
  3  2  2  0  0  0  0
  4 12  1  1  0  0  0
  4  7  1  0  0  0  0
  5  2  1  0  0  0  0
  6  4  1  0  0  0  0
  6  7  2  0  0  0  0
  7  5  1  0  0  0  0
  8 10  1  0  0  0  0
 10  9  2  0  0  0  0
 11 14  1  0  0  0  0
 12 13  2  0  0  0  0
 13  9  1  0  0  0  0
 14 12  1  0  0  0  0
 14  8  2  0  0  0  0
 15 16  2  0  0  0  0
 16 17  1  0  0  0  0
 16  8  1  0  0  0  0
 18 19  2  0  0  0  0
 19 25  1  0  0  0  0
 20 19  1  0  0  0  0
 21 22  1  0  0  0  0
 22 23  1  0  0  0  0
 23 27  1  1  0  0  0
 24 23  1  0  0  0  0
 25 24  1  0  0  0  0
 25 21  2  0  0  0  0
 27 28  2  0  0  0  0
 27 26  1  0  0  0  0
 29  1  1  0  0  0  0
 30 29  1  0  0  0  0
 31 30  1  0  0  0  0
 32 34  1  0  0  0  0
 33 35  1  0  0  0  0
 34 31  1  1  0  0  0
 35 34  1  0  0  0  0
 36 32  1  0  0  0  0
 37 36  1  0  0  0  0
 37 33  1  0  0  0  0
M  END
>  <MODEL>
3

>  <REMARK>
 VINA RESULT:      -7.8      2.632      7.129
  Name = 
  10 active torsions:
  status: ('A' for Active; 'I' for Inactive)
    1  A    between atoms: C_1  and  C_15
    2  A    between atoms: C_6  and  C_36
    3  A    between atoms: C_7  and  C_26
    4  A    between atoms: C_8  and  C_24
    5  A    between atoms: C_9  and  C_34
    6  A    between atoms: N_11  and  C_13
    7  A    between atoms: C_13  and  N_20
    8  A    between atoms: C_16  and  C_26
    9  A    between atoms: C_16  and  C_34
   10  A    between atoms: C_18  and  C_29
                            x       y       z     vdW  Elec       q    Type
                         _______ _______ _______ _____ _____    ______ ____

>  <TORSDO>
F 10

$$$$
=
 OpenBabel11052410593D

 37 40  0  0  1  0  0  0  0  0999 V2000
  162.2980  210.2620  150.6530 C   0  0  0  0  0  3  0  0  0  0  0  0
  160.7220  209.3330  152.5130 C   0  0  0  0  0  0  0  0  0  0  0  0
  161.5130  209.8080  151.5880 C   0  0  0  0  0  0  0  0  0  0  0  0
  161.5770  205.5450  152.3880 C   0  0  1  0  0  3  0  0  0  0  0  0
  160.3500  207.9470  152.5170 N   0  0  0  0  0  2  0  0  0  0  0  0
  162.6270  206.4180  152.4480 N   0  0  0  0  0  0  0  0  0  0  0  0
  161.2940  206.8770  152.4660 C   0  0  0  0  0  0  0  0  0  0  0  0
  160.8810  203.2380  149.4020 C   0  0  0  0  0  0  0  0  0  0  0  0
  161.2170  205.5090  148.6040 C   0  0  0  0  0  3  0  0  0  0  0  0
  160.9490  204.1650  148.3540 C   0  0  0  0  0  3  0  0  0  0  0  0
  161.0000  202.7910  151.7940 O   0  0  0  0  0  1  0  0  0  0  0  0
  161.3920  205.0390  150.9800 C   0  0  0  0  0  0  0  0  0  0  0  0
  161.4300  205.9450  149.9100 C   0  0  0  0  0  3  0  0  0  0  0  0
  161.0920  203.6820  150.7280 C   0  0  0  0  0  0  0  0  0  0  0  0
  161.4430  201.0770  148.5500 O   0  0  0  0  0  0  0  0  0  0  0  0
  160.5760  201.8260  149.0720 C   0  0  0  0  0  0  0  0  0  0  0  0
  159.3140  201.3090  149.3390 O   0  0  0  0  0  1  0  0  0  0  0  0
  161.5660  209.6190  155.2880 O   0  0  0  0  0  0  0  0  0  0  0  0
  160.6240  210.3370  154.8550 C   0  0  0  0  0  0  0  0  0  0  0  0
  160.1910  210.2350  153.4920 N   0  0  0  0  0  2  0  0  0  0  0  0
  160.5440  212.3720  156.1570 N   0  0  0  0  0  0  0  0  0  0  0  0
  159.6940  213.0900  156.9970 N   0  0  0  0  0  2  0  0  0  0  0  0
  158.4320  212.3860  157.1560 C   0  0  2  0  0  3  0  0  0  0  0  0
  158.5900  211.1310  156.2940 C   0  0  0  0  0  2  0  0  0  0  0  0
  159.9710  211.2930  155.7550 C   0  0  0  0  0  0  0  0  0  0  0  0
  157.4840  214.0850  155.7570 O   0  0  0  0  0  0  0  0  0  0  0  0
  157.3000  213.2240  156.6600 C   0  0  0  0  0  0  0  0  0  0  0  0
  156.0280  213.0340  157.1800 O   0  0  0  0  0  1  0  0  0  0  0  0
  161.9800  209.9890  149.2270 C   0  0  0  0  0  2  0  0  0  0  0  0
  162.3230  211.2050  148.3880 C   0  0  0  0  0  2  0  0  0  0  0  0
  161.3710  212.3500  148.6940 C   0  0  0  0  0  2  0  0  0  0  0  0
  162.1920  213.5080  146.6410 C   0  0  0  0  0  2  0  0  0  0  0  0
  159.5500  213.0500  145.6550 C   0  0  0  0  0  2  0  0  0  0  0  0
  160.9460  213.0620  147.4200 C   0  0  1  0  0  3  0  0  0  0  0  0
  160.1340  212.2220  146.6330 O   0  0  0  0  0  0  0  0  0  0  0  0
  162.0270  213.2850  145.1340 C   0  0  0  0  0  2  0  0  0  0  0  0
  160.6000  213.5950  144.6710 C   0  0  0  0  0  2  0  0  0  0  0  0
  1  3  2  0  0  0  0
  2  5  1  0  0  0  0
  2 20  1  0  0  0  0
  3  2  2  0  0  0  0
  4 12  1  6  0  0  0
  4  6  1  0  0  0  0
  4  7  1  0  0  0  0
  6  7  2  0  0  0  0
  7  5  1  0  0  0  0
  8 14  1  0  0  0  0
  9 13  2  0  0  0  0
 10  9  1  0  0  0  0
 10  8  2  0  0  0  0
 13 12  1  0  0  0  0
 14 12  2  0  0  0  0
 14 11  1  0  0  0  0
 15 16  2  0  0  0  0
 16 17  1  0  0  0  0
 16  8  1  0  0  0  0
 19 18  2  0  0  0  0
 19 25  1  0  0  0  0
 20 19  1  0  0  0  0
 21 22  1  0  0  0  0
 22 23  1  0  0  0  0
 23 27  1  6  0  0  0
 24 23  1  0  0  0  0
 25 21  2  0  0  0  0
 25 24  1  0  0  0  0
 26 27  2  0  0  0  0
 27 28  1  0  0  0  0
 29  1  1  0  0  0  0
 30 31  1  0  0  0  0
 30 29  1  0  0  0  0
 32 34  1  0  0  0  0
 33 35  1  0  0  0  0
 34 31  1  1  0  0  0
 35 34  1  0  0  0  0
 36 32  1  0  0  0  0
 37 36  1  0  0  0  0
 37 33  1  0  0  0  0
M  END
>  <MODEL>
4

>  <REMARK>
 VINA RESULT:      -7.8      3.265      6.848
  Name = 
  10 active torsions:
  status: ('A' for Active; 'I' for Inactive)
    1  A    between atoms: C_1  and  C_15
    2  A    between atoms: C_6  and  C_36
    3  A    between atoms: C_7  and  C_26
    4  A    between atoms: C_8  and  C_24
    5  A    between atoms: C_9  and  C_34
    6  A    between atoms: N_11  and  C_13
    7  A    between atoms: C_13  and  N_20
    8  A    between atoms: C_16  and  C_26
    9  A    between atoms: C_16  and  C_34
   10  A    between atoms: C_18  and  C_29
                            x       y       z     vdW  Elec       q    Type
                         _______ _______ _______ _____ _____    ______ ____

>  <TORSDO>
F 10

$$$$
=
 OpenBabel11052410593D

 37 40  0  0  1  0  0  0  0  0999 V2000
  161.7040  210.0230  151.6460 C   0  0  0  0  0  3  0  0  0  0  0  0
  162.3160  209.7370  149.1260 C   0  0  0  0  0  0  0  0  0  0  0  0
  162.0110  209.8690  150.3900 C   0  0  0  0  0  0  0  0  0  0  0  0
  161.3630  213.2170  147.6870 C   0  0  1  0  0  3  0  0  0  0  0  0
  162.5800  210.8890  148.3130 N   0  0  0  0  0  2  0  0  0  0  0  0
  160.5300  212.6860  148.6310 N   0  0  0  0  0  0  0  0  0  0  0  0
  161.7000  212.0110  148.2260 C   0  0  0  0  0  0  0  0  0  0  0  0
  161.0360  212.8480  143.8810 C   0  0  0  0  0  0  0  0  0  0  0  0
  158.8510  212.5660  144.9090 C   0  0  0  0  0  3  0  0  0  0  0  0
  159.6600  212.6070  143.7750 C   0  0  0  0  0  3  0  0  0  0  0  0
  162.9700  213.2670  145.3030 O   0  0  0  0  0  1  0  0  0  0  0  0
  160.7770  213.0430  146.3090 C   0  0  0  0  0  0  0  0  0  0  0  0
  159.4080  212.7750  146.1690 C   0  0  0  0  0  3  0  0  0  0  0  0
  161.6000  213.0560  145.1610 C   0  0  0  0  0  0  0  0  0  0  0  0
  161.9520  211.8350  141.9200 O   0  0  0  0  0  0  0  0  0  0  0  0
  161.8440  212.8630  142.6400 C   0  0  0  0  0  0  0  0  0  0  0  0
  162.4980  214.0270  142.2520 O   0  0  0  0  0  1  0  0  0  0  0  0
  160.5630  207.5080  149.7980 O   0  0  0  0  0  0  0  0  0  0  0  0
  161.4570  207.3450  148.9250 C   0  0  0  0  0  0  0  0  0  0  0  0
  162.3280  208.4220  148.5570 N   0  0  0  0  0  2  0  0  0  0  0  0
  161.2030  204.9430  148.8150 N   0  0  0  0  0  0  0  0  0  0  0  0
  161.4610  203.8630  147.9730 N   0  0  0  0  0  2  0  0  0  0  0  0
  162.1020  204.3190  146.7510 C   0  0  2  0  0  3  0  0  0  0  0  0
  162.2050  205.8360  146.9240 C   0  0  0  0  0  2  0  0  0  0  0  0
  161.6000  206.0400  148.2710 C   0  0  0  0  0  0  0  0  0  0  0  0
  160.8300  202.8100  145.3910 O   0  0  0  0  0  1  0  0  0  0  0  0
  161.2610  203.9820  145.5630 C   0  0  0  0  0  0  0  0  0  0  0  0
  160.9290  204.9780  144.6550 O   0  0  0  0  0  0  0  0  0  0  0  0
  160.6210  210.9680  152.0290 C   0  0  0  0  0  2  0  0  0  0  0  0
  160.7370  211.3020  153.5040 C   0  0  0  0  0  2  0  0  0  0  0  0
  161.6170  210.2850  154.2130 C   0  0  0  0  0  2  0  0  0  0  0  0
  160.4420  208.0960  154.4630 C   0  0  0  0  0  2  0  0  0  0  0  0
  160.5690  208.6560  157.2610 C   0  0  0  0  0  2  0  0  0  0  0  0
  160.7970  209.4190  155.1570 C   0  0  1  0  0  3  0  0  0  0  0  0
  161.5040  209.1870  156.3530 O   0  0  0  0  0  0  0  0  0  0  0  0
  160.5650  206.9050  155.4190 C   0  0  0  0  0  2  0  0  0  0  0  0
  160.0840  207.2610  156.8290 C   0  0  0  0  0  2  0  0  0  0  0  0
  1 29  1  0  0  0  0
  2  3  2  0  0  0  0
  3  1  2  0  0  0  0
  4 12  1  6  0  0  0
  4  7  1  0  0  0  0
  4  6  1  0  0  0  0
  5  2  1  0  0  0  0
  7  5  1  0  0  0  0
  7  6  2  0  0  0  0
  8 14  1  0  0  0  0
  9 13  2  0  0  0  0
 10  8  2  0  0  0  0
 10  9  1  0  0  0  0
 13 12  1  0  0  0  0
 14 11  1  0  0  0  0
 14 12  2  0  0  0  0
 15 16  2  0  0  0  0
 16  8  1  0  0  0  0
 17 16  1  0  0  0  0
 19 18  2  0  0  0  0
 20 19  1  0  0  0  0
 20  2  1  0  0  0  0
 22 21  1  0  0  0  0
 23 27  1  6  0  0  0
 23 24  1  0  0  0  0
 23 22  1  0  0  0  0
 24 25  1  0  0  0  0
 25 21  2  0  0  0  0
 25 19  1  0  0  0  0
 26 27  1  0  0  0  0
 28 27  2  0  0  0  0
 29 30  1  0  0  0  0
 30 31  1  0  0  0  0
 32 34  1  0  0  0  0
 32 36  1  0  0  0  0
 34 31  1  6  0  0  0
 34 35  1  0  0  0  0
 35 33  1  0  0  0  0
 36 37  1  0  0  0  0
 37 33  1  0  0  0  0
M  END
>  <MODEL>
5

>  <REMARK>
 VINA RESULT:      -7.6      2.230      7.776
  Name = 
  10 active torsions:
  status: ('A' for Active; 'I' for Inactive)
    1  A    between atoms: C_1  and  C_15
    2  A    between atoms: C_6  and  C_36
    3  A    between atoms: C_7  and  C_26
    4  A    between atoms: C_8  and  C_24
    5  A    between atoms: C_9  and  C_34
    6  A    between atoms: N_11  and  C_13
    7  A    between atoms: C_13  and  N_20
    8  A    between atoms: C_16  and  C_26
    9  A    between atoms: C_16  and  C_34
   10  A    between atoms: C_18  and  C_29
                            x       y       z     vdW  Elec       q    Type
                         _______ _______ _______ _____ _____    ______ ____

>  <TORSDO>
F 10

$$$$
=
 OpenBabel11052410593D

 37 40  0  0  1  0  0  0  0  0999 V2000
  162.0520  211.9430  149.1260 C   0  0  0  0  0  3  0  0  0  0  0  0
  161.8380  209.8290  150.6410 C   0  0  0  0  0  0  0  0  0  0  0  0
  161.9410  210.8950  149.8910 C   0  0  0  0  0  0  0  0  0  0  0  0
  161.8980  206.4710  148.6890 C   0  0  1  0  0  3  0  0  0  0  0  0
  162.4650  208.5990  150.2530 N   0  0  0  0  0  2  0  0  0  0  0  0
  160.8430  207.3060  148.4560 N   0  0  0  0  0  0  0  0  0  0  0  0
  161.8790  207.6680  149.3410 C   0  0  0  0  0  0  0  0  0  0  0  0
  160.8260  203.0250  149.9940 C   0  0  0  0  0  0  0  0  0  0  0  0
  161.1950  204.5210  151.8750 C   0  0  0  0  0  3  0  0  0  0  0  0
  160.8450  203.2680  151.3740 C   0  0  0  0  0  3  0  0  0  0  0  0
  161.1860  203.8540  147.7320 O   0  0  0  0  0  1  0  0  0  0  0  0
  161.4910  205.3510  149.6120 C   0  0  0  0  0  0  0  0  0  0  0  0
  161.5230  205.5540  150.9990 C   0  0  0  0  0  3  0  0  0  0  0  0
  161.1650  204.0730  149.1070 C   0  0  0  0  0  0  0  0  0  0  0  0
  161.3440  200.8030  149.2830 O   0  0  0  0  0  0  0  0  0  0  0  0
  160.4620  201.6680  149.5260 C   0  0  0  0  0  0  0  0  0  0  0  0
  159.1250  201.3320  149.3480 O   0  0  0  0  0  1  0  0  0  0  0  0
  162.7670  210.3410  153.3550 O   0  0  0  0  0  0  0  0  0  0  0  0
  161.5390  210.1410  153.1530 C   0  0  0  0  0  0  0  0  0  0  0  0
  161.0430  209.9010  151.8300 N   0  0  0  0  0  2  0  0  0  0  0  0
  160.7900  209.4670  155.3510 N   0  0  0  0  0  0  0  0  0  0  0  0
  159.7550  209.6850  156.2580 N   0  0  0  0  0  2  0  0  0  0  0  0
  158.7930  210.6260  155.7080 C   0  0  2  0  0  3  0  0  0  0  0  0
  159.3640  210.9870  154.3340 C   0  0  0  0  0  2  0  0  0  0  0  0
  160.6070  210.1640  154.2850 C   0  0  0  0  0  0  0  0  0  0  0  0
  157.5750  212.3050  156.9080 O   0  0  0  0  0  0  0  0  0  0  0  0
  158.6980  211.8410  156.5720 C   0  0  0  0  0  0  0  0  0  0  0  0
  159.8590  212.4480  157.0300 O   0  0  0  0  0  1  0  0  0  0  0  0
  161.7300  211.8360  147.6790 C   0  0  0  0  0  2  0  0  0  0  0  0
  161.5380  213.2240  147.0970 C   0  0  0  0  0  2  0  0  0  0  0  0
  160.3160  213.2580  146.1920 C   0  0  0  0  0  2  0  0  0  0  0  0
  159.3380  212.5690  144.0010 C   0  0  0  0  0  2  0  0  0  0  0  0
  162.0470  212.5790  143.0970 C   0  0  0  0  0  2  0  0  0  0  0  0
  160.6240  212.6390  144.8380 C   0  0  1  0  0  3  0  0  0  0  0  0
  161.6180  213.3810  144.1720 O   0  0  0  0  0  0  0  0  0  0  0  0
  159.5940  212.9410  142.5370 C   0  0  0  0  0  2  0  0  0  0  0  0
  160.9390  212.3970  142.0450 C   0  0  0  0  0  2  0  0  0  0  0  0
  1  3  2  0  0  0  0
  2 20  1  0  0  0  0
  3  2  2  0  0  0  0
  4  7  1  0  0  0  0
  4 12  1  1  0  0  0
  5  2  1  0  0  0  0
  6  4  1  0  0  0  0
  6  7  2  0  0  0  0
  7  5  1  0  0  0  0
  8 10  1  0  0  0  0
 10  9  2  0  0  0  0
 11 14  1  0  0  0  0
 12 13  2  0  0  0  0
 13  9  1  0  0  0  0
 14 12  1  0  0  0  0
 14  8  2  0  0  0  0
 15 16  2  0  0  0  0
 16  8  1  0  0  0  0
 17 16  1  0  0  0  0
 19 18  2  0  0  0  0
 19 25  1  0  0  0  0
 20 19  1  0  0  0  0
 21 22  1  0  0  0  0
 23 22  1  0  0  0  0
 23 27  1  1  0  0  0
 24 23  1  0  0  0  0
 25 24  1  0  0  0  0
 25 21  2  0  0  0  0
 27 26  2  0  0  0  0
 27 28  1  0  0  0  0
 29  1  1  0  0  0  0
 30 29  1  0  0  0  0
 31 30  1  0  0  0  0
 32 34  1  0  0  0  0
 33 35  1  0  0  0  0
 34 31  1  1  0  0  0
 35 34  1  0  0  0  0
 36 32  1  0  0  0  0
 37 36  1  0  0  0  0
 37 33  1  0  0  0  0
M  END
>  <MODEL>
6

>  <REMARK>
 VINA RESULT:      -7.5      2.907      7.294
  Name = 
  10 active torsions:
  status: ('A' for Active; 'I' for Inactive)
    1  A    between atoms: C_1  and  C_15
    2  A    between atoms: C_6  and  C_36
    3  A    between atoms: C_7  and  C_26
    4  A    between atoms: C_8  and  C_24
    5  A    between atoms: C_9  and  C_34
    6  A    between atoms: N_11  and  C_13
    7  A    between atoms: C_13  and  N_20
    8  A    between atoms: C_16  and  C_26
    9  A    between atoms: C_16  and  C_34
   10  A    between atoms: C_18  and  C_29
                            x       y       z     vdW  Elec       q    Type
                         _______ _______ _______ _____ _____    ______ ____

>  <TORSDO>
F 10

$$$$
=
 OpenBabel11052410593D

 37 40  0  0  1  0  0  0  0  0999 V2000
  161.5530  210.0130  152.2300 C   0  0  0  0  0  3  0  0  0  0  0  0
  161.8550  209.2740  149.7460 C   0  0  0  0  0  0  0  0  0  0  0  0
  161.7020  209.6330  150.9930 C   0  0  0  0  0  0  0  0  0  0  0  0
  161.9500  212.8030  148.1230 C   0  0  1  0  0  3  0  0  0  0  0  0
  162.3360  210.2090  148.7700 N   0  0  0  0  0  2  0  0  0  0  0  0
  161.2120  212.6630  149.2640 N   0  0  0  0  0  0  0  0  0  0  0  0
  161.9330  211.5780  148.7240 C   0  0  0  0  0  0  0  0  0  0  0  0
  160.7310  212.9240  144.4860 C   0  0  0  0  0  0  0  0  0  0  0  0
  158.8320  212.5700  145.9620 C   0  0  0  0  0  3  0  0  0  0  0  0
  159.3570  212.7330  144.6810 C   0  0  0  0  0  3  0  0  0  0  0  0
  162.9620  213.1110  145.4490 O   0  0  0  0  0  1  0  0  0  0  0  0
  161.0530  212.8180  146.9120 C   0  0  0  0  0  0  0  0  0  0  0  0
  159.6760  212.6050  147.0700 C   0  0  0  0  0  3  0  0  0  0  0  0
  161.5870  212.9540  145.6120 C   0  0  0  0  0  0  0  0  0  0  0  0
  161.4180  214.2120  142.5950 O   0  0  0  0  0  1  0  0  0  0  0  0
  161.2290  213.0740  143.0990 C   0  0  0  0  0  0  0  0  0  0  0  0
  161.4960  211.9460  142.3320 O   0  0  0  0  0  0  0  0  0  0  0  0
  162.6000  206.7840  151.0630 O   0  0  0  0  0  0  0  0  0  0  0  0
  161.8800  206.7410  150.0300 C   0  0  0  0  0  0  0  0  0  0  0  0
  161.4800  207.9450  149.3630 N   0  0  0  0  0  2  0  0  0  0  0  0
  161.7690  205.0120  148.3440 N   0  0  0  0  0  0  0  0  0  0  0  0
  161.2140  203.7540  148.1150 N   0  0  0  0  0  2  0  0  0  0  0  0
  160.4320  203.3330  149.2650 C   0  0  2  0  0  3  0  0  0  0  0  0
  160.5750  204.4860  150.2610 C   0  0  0  0  0  2  0  0  0  0  0  0
  161.4390  205.4430  149.5100 C   0  0  0  0  0  0  0  0  0  0  0  0
  161.2070  201.9700  151.0770 O   0  0  0  0  0  1  0  0  0  0  0  0
  160.9870  202.0710  149.8400 C   0  0  0  0  0  0  0  0  0  0  0  0
  161.2360  200.9900  149.0060 O   0  0  0  0  0  0  0  0  0  0  0  0
  160.7860  211.2500  152.5340 C   0  0  0  0  0  2  0  0  0  0  0  0
  160.1420  211.1260  153.9010 C   0  0  0  0  0  2  0  0  0  0  0  0
  161.2050  211.0520  154.9860 C   0  0  0  0  0  2  0  0  0  0  0  0
  159.6020  209.2280  155.5650 C   0  0  0  0  0  2  0  0  0  0  0  0
  161.7030  208.2920  157.2590 C   0  0  0  0  0  2  0  0  0  0  0  0
  160.8820  209.9600  155.9930 C   0  0  1  0  0  3  0  0  0  0  0  0
  161.9610  209.0630  156.1110 O   0  0  0  0  0  0  0  0  0  0  0  0
  159.7170  207.7150  155.7800 C   0  0  0  0  0  2  0  0  0  0  0  0
  160.4740  207.3850  157.0710 C   0  0  0  0  0  2  0  0  0  0  0  0
  1 29  1  0  0  0  0
  2  3  2  0  0  0  0
  3  1  2  0  0  0  0
  4 12  1  6  0  0  0
  4  7  1  0  0  0  0
  4  6  1  0  0  0  0
  5  2  1  0  0  0  0
  7  5  1  0  0  0  0
  7  6  2  0  0  0  0
  8 10  2  0  0  0  0
  8 14  1  0  0  0  0
  9 13  2  0  0  0  0
 10  9  1  0  0  0  0
 11 14  1  0  0  0  0
 12 13  1  0  0  0  0
 14 12  2  0  0  0  0
 15 16  1  0  0  0  0
 16  8  1  0  0  0  0
 17 16  2  0  0  0  0
 19 18  2  0  0  0  0
 20  2  1  0  0  0  0
 20 19  1  0  0  0  0
 21 25  2  0  0  0  0
 22 21  1  0  0  0  0
 22 23  1  0  0  0  0
 23 27  1  1  0  0  0
 23 24  1  0  0  0  0
 25 19  1  0  0  0  0
 25 24  1  0  0  0  0
 27 26  1  0  0  0  0
 28 27  2  0  0  0  0
 29 30  1  0  0  0  0
 30 31  1  0  0  0  0
 32 36  1  0  0  0  0
 32 34  1  0  0  0  0
 34 31  1  6  0  0  0
 34 35  1  0  0  0  0
 35 33  1  0  0  0  0
 36 37  1  0  0  0  0
 37 33  1  0  0  0  0
M  END
>  <MODEL>
7

>  <REMARK>
 VINA RESULT:      -7.5      2.395      8.103
  Name = 
  10 active torsions:
  status: ('A' for Active; 'I' for Inactive)
    1  A    between atoms: C_1  and  C_15
    2  A    between atoms: C_6  and  C_36
    3  A    between atoms: C_7  and  C_26
    4  A    between atoms: C_8  and  C_24
    5  A    between atoms: C_9  and  C_34
    6  A    between atoms: N_11  and  C_13
    7  A    between atoms: C_13  and  N_20
    8  A    between atoms: C_16  and  C_26
    9  A    between atoms: C_16  and  C_34
   10  A    between atoms: C_18  and  C_29
                            x       y       z     vdW  Elec       q    Type
                         _______ _______ _______ _____ _____    ______ ____

>  <TORSDO>
F 10

$$$$
=
 OpenBabel11052410593D

 37 40  0  0  1  0  0  0  0  0999 V2000
  160.6820  203.3750  151.9270 C   0  0  0  0  0  3  0  0  0  0  0  0
  161.6420  205.7950  152.0890 C   0  0  0  0  0  0  0  0  0  0  0  0
  161.1550  204.5850  152.0180 C   0  0  0  0  0  0  0  0  0  0  0  0
  161.5680  207.3390  148.5250 C   0  0  1  0  0  3  0  0  0  0  0  0
  162.2800  206.3950  150.9530 N   0  0  0  0  0  2  0  0  0  0  0  0
  160.3650  207.0290  149.0930 N   0  0  0  0  0  0  0  0  0  0  0  0
  161.5750  206.8270  149.7890 C   0  0  0  0  0  0  0  0  0  0  0  0
  161.6280  205.1320  145.3860 C   0  0  0  0  0  0  0  0  0  0  0  0
  163.5510  204.6070  146.7780 C   0  0  0  0  0  3  0  0  0  0  0  0
  162.7970  204.3970  145.6250 C   0  0  0  0  0  3  0  0  0  0  0  0
  160.0760  206.8640  146.1130 O   0  0  0  0  0  1  0  0  0  0  0  0
  161.9630  206.2880  147.5190 C   0  0  0  0  0  0  0  0  0  0  0  0
  163.1410  205.5520  147.7150 C   0  0  0  0  0  3  0  0  0  0  0  0
  161.2160  206.0950  146.3370 C   0  0  0  0  0  0  0  0  0  0  0  0
  159.8750  204.1160  144.1200 O   0  0  0  0  0  1  0  0  0  0  0  0
  160.8800  204.8740  144.1340 C   0  0  0  0  0  0  0  0  0  0  0  0
  161.2860  205.4740  142.9480 O   0  0  0  0  0  0  0  0  0  0  0  0
  160.4890  208.4260  152.5850 O   0  0  0  0  0  0  0  0  0  0  0  0
  161.0100  207.7920  153.5420 C   0  0  0  0  0  0  0  0  0  0  0  0
  161.5740  206.4900  153.3400 N   0  0  0  0  0  2  0  0  0  0  0  0
  161.5750  207.8160  155.8930 N   0  0  0  0  0  0  0  0  0  0  0  0
  161.4500  208.6120  157.0310 N   0  0  0  0  0  2  0  0  0  0  0  0
  160.7370  209.8380  156.7110 C   0  0  2  0  0  3  0  0  0  0  0  0
  160.4380  209.7200  155.2150 C   0  0  0  0  0  2  0  0  0  0  0  0
  161.0310  208.3930  154.8800 C   0  0  0  0  0  0  0  0  0  0  0  0
  162.8550  210.9320  156.9590 O   0  0  0  0  0  0  0  0  0  0  0  0
  161.5980  211.0280  156.9820 C   0  0  0  0  0  0  0  0  0  0  0  0
  161.0070  212.2580  157.2330 O   0  0  0  0  0  1  0  0  0  0  0  0
  161.5440  202.2830  151.4030 C   0  0  0  0  0  2  0  0  0  0  0  0
  160.8510  201.6020  150.2380 C   0  0  0  0  0  2  0  0  0  0  0  0
  160.7040  202.5640  149.0700 C   0  0  0  0  0  2  0  0  0  0  0  0
  161.7870  200.5560  148.0570 C   0  0  0  0  0  2  0  0  0  0  0  0
  160.4770  201.3950  145.6610 C   0  0  0  0  0  2  0  0  0  0  0  0
  161.1030  201.8990  147.7620 C   0  0  1  0  0  3  0  0  0  0  0  0
  159.9770  201.7210  146.9360 O   0  0  0  0  0  0  0  0  0  0  0  0
  161.3420  199.4670  147.0740 C   0  0  0  0  0  2  0  0  0  0  0  0
  161.1730  200.0230  145.6560 C   0  0  0  0  0  2  0  0  0  0  0  0
  1  3  2  0  0  0  0
  2 20  1  0  0  0  0
  3  2  2  0  0  0  0
  4 12  1  6  0  0  0
  4  6  1  0  0  0  0
  4  7  1  0  0  0  0
  5  2  1  0  0  0  0
  6  7  2  0  0  0  0
  7  5  1  0  0  0  0
  8 10  2  0  0  0  0
  8 14  1  0  0  0  0
  9 13  2  0  0  0  0
 10  9  1  0  0  0  0
 11 14  1  0  0  0  0
 12 13  1  0  0  0  0
 14 12  2  0  0  0  0
 15 16  1  0  0  0  0
 16  8  1  0  0  0  0
 17 16  2  0  0  0  0
 18 19  2  0  0  0  0
 19 25  1  0  0  0  0
 20 19  1  0  0  0  0
 21 22  1  0  0  0  0
 23 27  1  6  0  0  0
 23 22  1  0  0  0  0
 24 23  1  0  0  0  0
 25 24  1  0  0  0  0
 25 21  2  0  0  0  0
 26 27  2  0  0  0  0
 27 28  1  0  0  0  0
 29  1  1  0  0  0  0
 30 29  1  0  0  0  0
 31 30  1  0  0  0  0
 33 35  1  0  0  0  0
 34 32  1  0  0  0  0
 34 31  1  1  0  0  0
 35 34  1  0  0  0  0
 36 32  1  0  0  0  0
 37 33  1  0  0  0  0
 37 36  1  0  0  0  0
M  END
>  <MODEL>
8

>  <REMARK>
 VINA RESULT:      -7.3      3.521      7.697
  Name = 
  10 active torsions:
  status: ('A' for Active; 'I' for Inactive)
    1  A    between atoms: C_1  and  C_15
    2  A    between atoms: C_6  and  C_36
    3  A    between atoms: C_7  and  C_26
    4  A    between atoms: C_8  and  C_24
    5  A    between atoms: C_9  and  C_34
    6  A    between atoms: N_11  and  C_13
    7  A    between atoms: C_13  and  N_20
    8  A    between atoms: C_16  and  C_26
    9  A    between atoms: C_16  and  C_34
   10  A    between atoms: C_18  and  C_29
                            x       y       z     vdW  Elec       q    Type
                         _______ _______ _______ _____ _____    ______ ____

>  <TORSDO>
F 10

$$$$
=
 OpenBabel11052410593D

 37 40  0  0  1  0  0  0  0  0999 V2000
  162.3190  209.5030  150.2280 C   0  0  0  0  0  3  0  0  0  0  0  0
  160.9540  208.8280  152.3470 C   0  0  0  0  0  0  0  0  0  0  0  0
  161.6410  209.1760  151.2910 C   0  0  0  0  0  0  0  0  0  0  0  0
  161.4880  204.9850  152.5490 C   0  0  1  0  0  3  0  0  0  0  0  0
  160.4690  207.4860  152.4940 N   0  0  0  0  0  2  0  0  0  0  0  0
  162.6070  205.7660  152.4890 N   0  0  0  0  0  0  0  0  0  0  0  0
  161.3190  206.3380  152.5100 C   0  0  0  0  0  0  0  0  0  0  0  0
  161.0460  202.4230  149.7260 C   0  0  0  0  0  0  0  0  0  0  0  0
  160.3650  204.6190  148.9360 C   0  0  0  0  0  3  0  0  0  0  0  0
  160.5510  203.2560  148.7140 C   0  0  0  0  0  3  0  0  0  0  0  0
  161.8260  202.1780  152.0220 O   0  0  0  0  0  1  0  0  0  0  0  0
  161.2010  204.3710  151.2020 C   0  0  0  0  0  0  0  0  0  0  0  0
  160.6810  205.1710  150.1750 C   0  0  0  0  0  3  0  0  0  0  0  0
  161.3620  202.9850  150.9850 C   0  0  0  0  0  0  0  0  0  0  0  0
  160.7750  200.1020  150.2260 O   0  0  0  0  0  1  0  0  0  0  0  0
  161.2060  200.9800  149.4330 C   0  0  0  0  0  0  0  0  0  0  0  0
  161.8390  200.5760  148.2630 O   0  0  0  0  0  0  0  0  0  0  0  0
  161.3720  208.6590  155.2260 O   0  0  0  0  0  0  0  0  0  0  0  0
  160.8560  209.7020  154.7400 C   0  0  0  0  0  0  0  0  0  0  0  0
  160.6490  209.8270  153.3270 N   0  0  0  0  0  2  0  0  0  0  0  0
  161.3350  211.5560  156.2150 N   0  0  0  0  0  0  0  0  0  0  0  0
  160.6920  212.5150  156.9960 N   0  0  0  0  0  2  0  0  0  0  0  0
  159.2510  212.3520  156.9070 C   0  0  2  0  0  3  0  0  0  0  0  0
  159.0640  211.1690  155.9540 C   0  0  0  0  0  2  0  0  0  0  0  0
  160.4730  210.8010  155.6310 C   0  0  0  0  0  0  0  0  0  0  0  0
  159.2910  214.3890  155.6460 O   0  0  0  0  0  0  0  0  0  0  0  0
  158.6190  213.5830  156.3440 C   0  0  0  0  0  0  0  0  0  0  0  0
  157.2720  213.8270  156.5710 O   0  0  0  0  0  1  0  0  0  0  0  0
  161.7770  209.1850  148.8810 C   0  0  0  0  0  2  0  0  0  0  0  0
  161.5830  207.6860  148.7520 C   0  0  0  0  0  2  0  0  0  0  0  0
  162.7200  207.0690  147.9530 C   0  0  0  0  0  2  0  0  0  0  0  0
  162.9020  205.1940  146.3140 C   0  0  0  0  0  2  0  0  0  0  0  0
  160.4350  206.2080  145.2930 C   0  0  0  0  0  2  0  0  0  0  0  0
  162.2230  206.5370  146.6180 C   0  0  1  0  0  3  0  0  0  0  0  0
  160.8210  206.4020  146.6330 O   0  0  0  0  0  0  0  0  0  0  0  0
  161.9180  204.1870  145.7100 C   0  0  0  0  0  2  0  0  0  0  0  0
  160.9410  204.8640  144.7430 C   0  0  0  0  0  2  0  0  0  0  0  0
  1  3  2  0  0  0  0
  2  5  1  0  0  0  0
  2 20  1  0  0  0  0
  3  2  2  0  0  0  0
  4 12  1  6  0  0  0
  5  7  1  0  0  0  0
  6  7  2  0  0  0  0
  6  4  1  0  0  0  0
  7  4  1  0  0  0  0
  8 14  1  0  0  0  0
  9 13  2  0  0  0  0
 10  9  1  0  0  0  0
 10  8  2  0  0  0  0
 13 12  1  0  0  0  0
 14 12  2  0  0  0  0
 14 11  1  0  0  0  0
 16  8  1  0  0  0  0
 16 15  1  0  0  0  0
 17 16  2  0  0  0  0
 19 18  2  0  0  0  0
 19 25  1  0  0  0  0
 20 19  1  0  0  0  0
 21 22  1  0  0  0  0
 23 27  1  6  0  0  0
 23 22  1  0  0  0  0
 24 23  1  0  0  0  0
 25 24  1  0  0  0  0
 25 21  2  0  0  0  0
 26 27  2  0  0  0  0
 27 28  1  0  0  0  0
 29  1  1  0  0  0  0
 30 29  1  0  0  0  0
 31 30  1  0  0  0  0
 32 34  1  0  0  0  0
 33 35  1  0  0  0  0
 34 35  1  0  0  0  0
 34 31  1  1  0  0  0
 36 32  1  0  0  0  0
 37 33  1  0  0  0  0
 37 36  1  0  0  0  0
M  END
>  <MODEL>
9

>  <REMARK>
 VINA RESULT:      -7.2      3.581      6.946
  Name = 
  10 active torsions:
  status: ('A' for Active; 'I' for Inactive)
    1  A    between atoms: C_1  and  C_15
    2  A    between atoms: C_6  and  C_36
    3  A    between atoms: C_7  and  C_26
    4  A    between atoms: C_8  and  C_24
    5  A    between atoms: C_9  and  C_34
    6  A    between atoms: N_11  and  C_13
    7  A    between atoms: C_13  and  N_20
    8  A    between atoms: C_16  and  C_26
    9  A    between atoms: C_16  and  C_34
   10  A    between atoms: C_18  and  C_29
                            x       y       z     vdW  Elec       q    Type
                         _______ _______ _______ _____ _____    ______ ____

>  <TORSDO>
F 10

$$$$
