=
 OpenBabel11052410103D

 54 57  0  0  1  0  0  0  0  0999 V2000
  160.8040  209.3850  154.2700 N   0  0  0  0  0  0  0  0  0  0  0  0
  161.8100  208.5290  153.6350 C   0  0  1  0  0  3  0  0  0  0  0  0
  162.2290  209.8130  151.4840 N   0  0  0  0  0  0  0  0  0  0  0  0
  161.3050  206.5310  152.2710 N   0  0  0  0  0  0  0  0  0  0  0  0
  161.4160  207.0070  153.6700 C   0  0  0  0  0  3  0  0  0  0  0  0
  161.7390  207.8580  150.1720 C   0  0  0  0  0  0  0  0  0  0  0  0
  162.1580  209.2680  150.1500 C   0  0  0  0  0  0  0  0  0  0  0  0
  161.8680  208.7940  152.1880 C   0  0  1  0  0  3  0  0  0  0  0  0
  162.3470  209.9760  149.0850 N   0  0  0  0  0  1  0  0  0  0  0  0
  161.5740  207.6540  151.4610 C   0  0  0  0  0  0  0  0  0  0  0  0
  160.9720  205.6360  149.2880 N   0  0  0  0  0  2  0  0  0  0  0  0
  161.6030  206.9030  149.0680 C   0  0  0  0  0  0  0  0  0  0  0  0
  162.0840  207.2010  147.9470 O   0  0  0  0  0  0  0  0  0  0  0  0
  161.0120  201.9180  146.7900 C   0  0  0  0  0  0  0  0  0  0  0  0
  160.4610  202.1130  147.9920 C   0  0  0  0  0  3  0  0  0  0  0  0
  159.8760  206.0850  146.5290 O   0  0  0  0  0  1  0  0  0  0  0  0
  160.6050  203.3570  148.7840 C   0  0  0  0  0  3  0  0  0  0  0  0
  161.8970  202.9590  146.1790 C   0  0  0  0  0  2  0  0  0  0  0  0
  160.5970  204.9420  146.8650 C   0  0  0  0  0  0  0  0  0  0  0  0
  161.1200  204.2020  145.8760 C   0  0  0  0  0  0  0  0  0  0  0  0
  160.7590  204.6040  148.3160 C   0  0  0  0  0  0  0  0  0  0  0  0
  160.7570  200.7780  144.7250 F   0  0  0  0  0  0  0  0  0  0  0  0
  160.8430  200.5920  146.0960 C   0  0  0  0  0  0  0  0  0  0  0  0
  159.6970  199.9530  146.5330 F   0  0  0  0  0  0  0  0  0  0  0  0
  161.9290  199.7780  146.3810 F   0  0  0  0  0  0  0  0  0  0  0  0
  162.0100  205.1330  143.7680 C   0  0  0  0  0  1  0  0  0  0  0  0
  160.9470  204.6250  144.5590 O   0  0  0  0  0  0  0  0  0  0  0  0
  159.8960  208.8800  155.2570 C   0  0  0  0  0  0  0  0  0  0  0  0
  158.6150  208.7270  154.9150 C   0  0  0  0  0  2  0  0  0  0  0  0
  160.1360  210.4520  157.2590 C   0  0  2  0  0  3  0  0  0  0  0  0
  161.4680  209.9790  156.8410 N   0  0  0  0  0  2  0  0  0  0  0  0
  160.2970  209.0900  156.6960 C   0  0  2  0  0  3  0  0  0  0  0  0
  159.6830  211.5560  156.3050 C   0  0  0  0  0  2  0  0  0  0  0  0
  159.1120  212.7470  157.0750 C   0  0  0  0  0  2  0  0  0  0  0  0
  157.7750  213.2410  156.5120 C   0  0  0  0  0  2  0  0  0  0  0  0
  156.7090  212.1460  156.5330 C   0  0  0  0  0  2  0  0  0  0  0  0
  156.7230  212.7310  154.2270 O   0  0  0  0  0  1  0  0  0  0  0  0
  155.9240  210.6790  154.8120 O   0  0  0  0  0  1  0  0  0  0  0  0
  156.0070  212.0210  155.1910 C   0  0  0  0  0  3  0  0  0  0  0  0
  160.6780  210.7610  153.8030 C   0  0  0  0  0  2  0  0  0  0  0  0
  159.3300  210.9650  153.1190 C   0  0  0  0  0  2  0  0  0  0  0  0
  159.5050  211.8100  151.9300 C   0  0  0  0  0  0  0  0  0  0  0  0
  159.6360  212.4880  150.9410 C   0  0  0  0  0  0  0  0  0  0  0  0
  159.7410  213.3120  149.7310 C   0  0  0  0  0  2  0  0  0  0  0  0
  157.4870  213.5160  148.9300 O   0  0  0  0  0  1  0  0  0  0  0  0
  158.7100  212.8730  148.6970 C   0  0  1  0  0  3  0  0  0  0  0  0
  159.1800  213.1210  147.2540 C   0  0  1  0  0  0  0  0  0  0  0  0
  159.6960  211.9270  146.7530 O   0  0  0  0  0  1  0  0  0  0  0  0
  158.0000  213.5230  146.3700 C   0  0  0  0  0  1  0  0  0  0  0  0
  160.3380  214.1430  147.2670 C   0  0  0  0  0  2  0  0  0  0  0  0
  162.4990  213.2660  147.7560 O   0  0  0  0  0  0  0  0  0  0  0  0
  161.6820  213.6240  146.8630 C   0  0  0  0  0  0  0  0  0  0  0  0
  161.4760  214.4530  144.5550 C   0  0  0  0  0  1  0  0  0  0  0  0
  162.0250  213.5590  145.5100 O   0  0  0  0  0  0  0  0  0  0  0  0
  1 28  1  0  0  0  0
  2  5  1  0  0  0  0
  2  1  1  1  0  0  0
  3  8  1  0  0  0  0
  4  5  2  0  0  0  0
  6 10  2  0  0  0  0
  7  6  1  0  0  0  0
  7  3  2  0  0  0  0
  8 10  1  6  0  0  0
  8  2  1  0  0  0  0
  9  7  1  0  0  0  0
 10  4  1  0  0  0  0
 12 11  1  0  0  0  0
 12  6  1  0  0  0  0
 13 12  2  0  0  0  0
 14 15  2  0  0  0  0
 15 17  1  0  0  0  0
 16 19  1  0  0  0  0
 18 14  1  0  0  0  0
 19 21  1  0  0  0  0
 20 18  1  0  0  0  0
 20 19  2  0  0  0  0
 21 17  2  0  0  0  0
 21 11  1  0  0  0  0
 22 23  1  0  0  0  0
 23 25  1  0  0  0  0
 23 24  1  0  0  0  0
 23 14  1  0  0  0  0
 26 27  1  0  0  0  0
 27 20  1  0  0  0  0
 29 28  2  0  0  0  0
 30 33  1  6  0  0  0
 31 30  1  0  0  0  0
 32 28  1  6  0  0  0
 32 31  1  0  0  0  0
 32 30  1  0  0  0  0
 33 34  1  0  0  0  0
 35 36  1  0  0  0  0
 35 34  1  0  0  0  0
 37 39  1  0  0  0  0
 38 39  1  0  0  0  0
 39 36  1  0  0  0  0
 40  1  1  0  0  0  0
 41 40  1  0  0  0  0
 42 41  1  0  0  0  0
 43 42  3  0  0  0  0
 44 43  1  0  0  0  0
 46 45  1  1  0  0  0
 46 44  1  0  0  0  0
 47 49  1  6  0  0  0
 47 50  1  0  0  0  0
 47 46  1  0  0  0  0
 48 47  1  0  0  0  0
 52 50  1  0  0  0  0
 52 51  2  0  0  0  0
 53 54  1  0  0  0  0
 54 52  1  0  0  0  0
M  END
>  <MODEL>
1

>  <REMARK>
 VINA RESULT:      -3.2      0.000      0.000
  Name = 
  21 active torsions:
  status: ('A' for Active; 'I' for Inactive)
    1  A    between atoms: C_2  and  N_10
    2  A    between atoms: C_2  and  C_41
    3  A    between atoms: N_3  and  C_52
    4  A    between atoms: C_4  and  N_10
    5  A    between atoms: O_6  and  C_50
    6  A    between atoms: O_7  and  C_49
    7  A    between atoms: C_8  and  C_27
    8  A    between atoms: C_9  and  C_35
    9  A    between atoms: C_9  and  C_39
   10  A    between atoms: N_10  and  C_42
   11  A    between atoms: C_13  and  C_25
   12  A    between atoms: C_17  and  C_28
   13  A    between atoms: C_17  and  C_35
   14  A    between atoms: C_25  and  C_45
   15  A    between atoms: C_28  and  C_49
   16  A    between atoms: C_31  and  C_36
   17  A    between atoms: C_33  and  C_37
   18  A    between atoms: C_33  and  C_43
   19  A    between atoms: C_38  and  C_54
   20  A    between atoms: C_42  and  C_54
   21  A    between atoms: C_43  and  C_45
                            x       y       z     vdW  Elec       q    Type
                         _______ _______ _______ _____ _____    ______ ____

>  <TORSDO>
F 21

$$$$
=
 OpenBabel11052410103D

 54 57  0  0  1  0  0  0  0  0999 V2000
  160.7680  209.7140  154.2530 N   0  0  0  0  0  0  0  0  0  0  0  0
  161.6920  208.7190  153.7020 C   0  0  1  0  0  3  0  0  0  0  0  0
  162.1190  209.7000  151.3980 N   0  0  0  0  0  0  0  0  0  0  0  0
  161.0080  206.6100  152.6090 N   0  0  0  0  0  0  0  0  0  0  0  0
  161.2010  207.2440  153.9350 C   0  0  0  0  0  3  0  0  0  0  0  0
  161.4550  207.6390  150.3510 C   0  0  0  0  0  0  0  0  0  0  0  0
  161.9650  209.0030  150.1440 C   0  0  0  0  0  0  0  0  0  0  0  0
  161.7160  208.8020  152.2320 C   0  0  1  0  0  3  0  0  0  0  0  0
  162.1630  209.5620  148.9950 N   0  0  0  0  0  1  0  0  0  0  0  0
  161.3220  207.6050  151.6600 C   0  0  0  0  0  0  0  0  0  0  0  0
  161.6020  205.2230  149.6820 N   0  0  0  0  0  2  0  0  0  0  0  0
  161.2170  206.5690  149.3780 C   0  0  0  0  0  0  0  0  0  0  0  0
  160.7100  206.8630  148.2670 O   0  0  0  0  0  0  0  0  0  0  0  0
  160.3860  202.2140  146.5950 C   0  0  0  0  0  0  0  0  0  0  0  0
  161.1620  203.2920  146.4530 C   0  0  0  0  0  3  0  0  0  0  0  0
  162.2780  202.4090  150.4820 O   0  0  0  0  0  1  0  0  0  0  0  0
  161.4100  204.2900  147.5210 C   0  0  0  0  0  3  0  0  0  0  0  0
  159.6380  201.9760  147.8700 C   0  0  0  0  0  2  0  0  0  0  0  0
  161.4090  202.6950  149.4320 C   0  0  0  0  0  0  0  0  0  0  0  0
  160.5860  201.7270  149.0000 C   0  0  0  0  0  0  0  0  0  0  0  0
  161.4330  204.0730  148.8440 C   0  0  0  0  0  0  0  0  0  0  0  0
  158.9740  200.5970  145.5840 F   0  0  0  0  0  0  0  0  0  0  0  0
  160.1620  201.2930  145.4250 C   0  0  0  0  0  0  0  0  0  0  0  0
  161.1990  200.3840  145.3110 F   0  0  0  0  0  0  0  0  0  0  0  0
  160.1060  202.0350  144.2550 F   0  0  0  0  0  0  0  0  0  0  0  0
  160.2340  200.3190  150.9990 C   0  0  0  0  0  1  0  0  0  0  0  0
  160.6130  200.4900  149.6430 O   0  0  0  0  0  0  0  0  0  0  0  0
  159.8660  209.3990  155.3200 C   0  0  0  0  0  0  0  0  0  0  0  0
  158.5590  209.3660  155.0530 C   0  0  0  0  0  2  0  0  0  0  0  0
  160.1510  211.0400  157.2610 C   0  0  2  0  0  3  0  0  0  0  0  0
  161.4750  210.6540  156.7430 N   0  0  0  0  0  2  0  0  0  0  0  0
  160.3670  209.6770  156.7160 C   0  0  2  0  0  3  0  0  0  0  0  0
  159.5390  212.0800  156.3240 C   0  0  0  0  0  2  0  0  0  0  0  0
  158.7280  213.1130  157.1070 C   0  0  0  0  0  2  0  0  0  0  0  0
  157.9440  214.0720  156.2020 C   0  0  0  0  0  2  0  0  0  0  0  0
  156.4800  214.1830  156.6230 C   0  0  0  0  0  2  0  0  0  0  0  0
  155.8880  213.2960  154.4970 O   0  0  0  0  0  1  0  0  0  0  0  0
  155.8340  211.9010  156.2980 O   0  0  0  0  0  1  0  0  0  0  0  0
  155.6010  213.2070  155.8580 C   0  0  0  0  0  3  0  0  0  0  0  0
  160.7150  211.0280  153.6210 C   0  0  0  0  0  2  0  0  0  0  0  0
  159.2870  211.3460  153.1860 C   0  0  0  0  0  2  0  0  0  0  0  0
  159.3160  212.1340  151.9460 C   0  0  0  0  0  0  0  0  0  0  0  0
  159.3220  212.7680  150.9190 C   0  0  0  0  0  0  0  0  0  0  0  0
  159.2760  213.5460  149.6760 C   0  0  0  0  0  2  0  0  0  0  0  0
  157.0170  213.5460  148.8620 O   0  0  0  0  0  1  0  0  0  0  0  0
  158.2690  212.9370  148.7050 C   0  0  1  0  0  3  0  0  0  0  0  0
  158.7320  213.0320  147.2420 C   0  0  1  0  0  0  0  0  0  0  0  0
  157.9350  212.1810  146.4770 O   0  0  0  0  0  1  0  0  0  0  0  0
  158.5350  214.4510  146.7100 C   0  0  0  0  0  1  0  0  0  0  0  0
  160.1820  212.5110  147.1330 C   0  0  0  0  0  2  0  0  0  0  0  0
  160.5300  213.5610  145.0220 O   0  0  0  0  0  0  0  0  0  0  0  0
  161.0470  213.1710  146.1060 C   0  0  0  0  0  0  0  0  0  0  0  0
  163.0280  212.8380  147.5260 C   0  0  0  0  0  1  0  0  0  0  0  0
  162.4130  213.3340  146.3490 O   0  0  0  0  0  0  0  0  0  0  0  0
  1 28  1  0  0  0  0
  2  5  1  0  0  0  0
  2  1  1  1  0  0  0
  4  5  2  0  0  0  0
  6 10  2  0  0  0  0
  7  6  1  0  0  0  0
  7  3  2  0  0  0  0
  8  3  1  6  0  0  0
  8  2  1  0  0  0  0
  9  7  1  0  0  0  0
 10  8  1  0  0  0  0
 10  4  1  0  0  0  0
 12 11  1  0  0  0  0
 12  6  1  0  0  0  0
 13 12  2  0  0  0  0
 14 18  1  0  0  0  0
 15 14  2  0  0  0  0
 15 17  1  0  0  0  0
 17 21  2  0  0  0  0
 18 20  1  0  0  0  0
 19 16  1  0  0  0  0
 20 19  2  0  0  0  0
 20 27  1  0  0  0  0
 21 19  1  0  0  0  0
 21 11  1  0  0  0  0
 23 22  1  0  0  0  0
 23 14  1  0  0  0  0
 24 23  1  0  0  0  0
 25 23  1  0  0  0  0
 27 26  1  0  0  0  0
 29 28  2  0  0  0  0
 30 33  1  6  0  0  0
 31 30  1  0  0  0  0
 32 28  1  6  0  0  0
 32 31  1  0  0  0  0
 32 30  1  0  0  0  0
 33 34  1  0  0  0  0
 35 36  1  0  0  0  0
 35 34  1  0  0  0  0
 37 39  1  0  0  0  0
 39 38  1  0  0  0  0
 39 36  1  0  0  0  0
 40  1  1  0  0  0  0
 41 40  1  0  0  0  0
 42 41  1  0  0  0  0
 43 42  3  0  0  0  0
 44 43  1  0  0  0  0
 46 45  1  6  0  0  0
 46 44  1  0  0  0  0
 47 49  1  6  0  0  0
 47 46  1  0  0  0  0
 48 47  1  0  0  0  0
 50 47  1  0  0  0  0
 51 52  2  0  0  0  0
 52 54  1  0  0  0  0
 52 50  1  0  0  0  0
 54 53  1  0  0  0  0
M  END
>  <MODEL>
2

>  <REMARK>
 VINA RESULT:      -3.1      1.540      2.276
  Name = 
  21 active torsions:
  status: ('A' for Active; 'I' for Inactive)
    1  A    between atoms: C_2  and  N_10
    2  A    between atoms: C_2  and  C_41
    3  A    between atoms: N_3  and  C_52
    4  A    between atoms: C_4  and  N_10
    5  A    between atoms: O_6  and  C_50
    6  A    between atoms: O_7  and  C_49
    7  A    between atoms: C_8  and  C_27
    8  A    between atoms: C_9  and  C_35
    9  A    between atoms: C_9  and  C_39
   10  A    between atoms: N_10  and  C_42
   11  A    between atoms: C_13  and  C_25
   12  A    between atoms: C_17  and  C_28
   13  A    between atoms: C_17  and  C_35
   14  A    between atoms: C_25  and  C_45
   15  A    between atoms: C_28  and  C_49
   16  A    between atoms: C_31  and  C_36
   17  A    between atoms: C_33  and  C_37
   18  A    between atoms: C_33  and  C_43
   19  A    between atoms: C_38  and  C_54
   20  A    between atoms: C_42  and  C_54
   21  A    between atoms: C_43  and  C_45
                            x       y       z     vdW  Elec       q    Type
                         _______ _______ _______ _____ _____    ______ ____

>  <TORSDO>
F 21

$$$$
=
 OpenBabel11052410103D

 54 57  0  0  1  0  0  0  0  0999 V2000
  160.9400  205.0240  145.8360 N   0  0  0  0  0  0  0  0  0  0  0  0
  160.2750  206.1300  146.5290 C   0  0  1  0  0  3  0  0  0  0  0  0
  162.2440  207.6830  146.9330 N   0  0  0  0  0  0  0  0  0  0  0  0
  159.8060  206.1970  148.9550 N   0  0  0  0  0  0  0  0  0  0  0  0
  159.3160  205.6370  147.6740 C   0  0  0  0  0  3  0  0  0  0  0  0
  161.7710  207.7410  149.2900 C   0  0  0  0  0  0  0  0  0  0  0  0
  162.6310  208.2400  148.2060 C   0  0  0  0  0  0  0  0  0  0  0  0
  161.2580  206.9280  147.2810 C   0  0  0  0  0  0  0  0  0  0  0  0
  163.6660  208.9990  148.3610 N   0  0  0  0  0  2  0  0  0  0  0  0
  160.9640  206.9350  148.6330 C   0  0  0  0  0  0  0  0  0  0  0  0
  160.7490  208.9650  151.2300 N   0  0  0  0  0  2  0  0  0  0  0  0
  161.7580  208.0890  150.7140 C   0  0  0  0  0  0  0  0  0  0  0  0
  162.6670  207.6390  151.4550 O   0  0  0  0  0  0  0  0  0  0  0  0
  160.7800  211.1260  155.1540 C   0  0  0  0  0  0  0  0  0  0  0  0
  160.0230  211.3560  154.0770 C   0  0  0  0  0  3  0  0  0  0  0  0
  160.3330  207.1250  153.5660 O   0  0  0  0  0  1  0  0  0  0  0  0
  160.1740  210.6490  152.7830 C   0  0  0  0  0  3  0  0  0  0  0  0
  161.9140  210.1500  155.0930 C   0  0  0  0  0  2  0  0  0  0  0  0
  160.7970  208.4290  153.7200 C   0  0  0  0  0  0  0  0  0  0  0  0
  161.4040  208.7610  154.8700 C   0  0  0  0  0  0  0  0  0  0  0  0
  160.6000  209.3930  152.5900 C   0  0  0  0  0  0  0  0  0  0  0  0
  159.5390  211.4080  157.1560 F   0  0  0  0  0  0  0  0  0  0  0  0
  160.5730  211.9410  156.4030 C   0  0  0  0  0  0  0  0  0  0  0  0
  160.2640  213.2520  156.0870 F   0  0  0  0  0  0  0  0  0  0  0  0
  161.7370  211.9390  157.1560 F   0  0  0  0  0  0  0  0  0  0  0  0
  160.6150  207.5280  156.8610 C   0  0  0  0  0  1  0  0  0  0  0  0
  161.5740  207.7780  155.8450 O   0  0  0  0  0  0  0  0  0  0  0  0
  161.6120  203.9790  146.5500 C   0  0  0  0  0  0  0  0  0  0  0  0
  162.7350  204.2830  147.2030 C   0  0  0  0  0  2  0  0  0  0  0  0
  160.5280  201.6970  146.9440 C   0  0  2  0  0  3  0  0  0  0  0  0
  161.9930  201.5480  146.9170 N   0  0  0  0  0  2  0  0  0  0  0  0
  161.3470  202.5730  146.0720 C   0  0  2  0  0  3  0  0  0  0  0  0
  160.1130  202.2540  148.3050 C   0  0  0  0  0  2  0  0  0  0  0  0
  160.4570  201.2740  149.4270 C   0  0  0  0  0  2  0  0  0  0  0  0
  161.0320  201.9620  150.6710 C   0  0  0  0  0  2  0  0  0  0  0  0
  161.1210  203.4760  150.4930 C   0  0  0  0  0  2  0  0  0  0  0  0
  160.6220  203.3000  152.8130 O   0  0  0  0  0  1  0  0  0  0  0  0
  162.2300  204.7800  152.1670 O   0  0  0  0  0  1  0  0  0  0  0  0
  161.0040  204.2040  151.8220 C   0  0  0  0  0  3  0  0  0  0  0  0
  160.9890  205.0560  144.3780 C   0  0  0  0  0  2  0  0  0  0  0  0
  162.1400  205.9400  143.9080 C   0  0  0  0  0  2  0  0  0  0  0  0
  162.0050  206.1970  142.4670 C   0  0  0  0  0  0  0  0  0  0  0  0
  161.9100  206.4250  141.2860 C   0  0  0  0  0  0  0  0  0  0  0  0
  161.8490  206.6990  139.8460 C   0  0  0  0  0  2  0  0  0  0  0  0
  162.4650  208.9950  140.1850 O   0  0  0  0  0  1  0  0  0  0  0  0
  161.5020  208.1630  139.5980 C   0  0  1  0  0  3  0  0  0  0  0  0
  161.3540  208.4870  138.1020 C   0  0  1  0  0  0  0  0  0  0  0  0
  162.1500  207.5980  137.3830 O   0  0  0  0  0  1  0  0  0  0  0  0
  159.9080  208.2810  137.6520 C   0  0  0  0  0  1  0  0  0  0  0  0
  161.9040  209.9050  137.8330 C   0  0  0  0  0  2  0  0  0  0  0  0
  160.3150  211.4800  137.0120 O   0  0  0  0  0  0  0  0  0  0  0  0
  160.9390  211.0350  138.0150 C   0  0  0  0  0  0  0  0  0  0  0  0
  159.4740  211.9870  139.7460 C   0  0  0  0  0  1  0  0  0  0  0  0
  160.7540  211.5940  139.2820 O   0  0  0  0  0  0  0  0  0  0  0  0
  1 28  1  0  0  0  0
  2  1  1  1  0  0  0
  2  8  1  0  0  0  0
  2  5  1  0  0  0  0
  3  8  2  0  0  0  0
  3  7  1  0  0  0  0
  5  4  2  0  0  0  0
  6 12  1  0  0  0  0
  7  9  2  0  0  0  0
  7  6  1  0  0  0  0
  8 10  1  0  0  0  0
 10  4  1  0  0  0  0
 10  6  2  0  0  0  0
 11 21  1  0  0  0  0
 12 11  1  0  0  0  0
 12 13  2  0  0  0  0
 14 23  1  0  0  0  0
 15 14  2  0  0  0  0
 16 19  1  0  0  0  0
 17 15  1  0  0  0  0
 18 14  1  0  0  0  0
 19 20  2  0  0  0  0
 20 18  1  0  0  0  0
 20 27  1  0  0  0  0
 21 17  2  0  0  0  0
 21 19  1  0  0  0  0
 23 25  1  0  0  0  0
 23 22  1  0  0  0  0
 24 23  1  0  0  0  0
 27 26  1  0  0  0  0
 28 29  2  0  0  0  0
 30 33  1  1  0  0  0
 31 30  1  0  0  0  0
 32 28  1  1  0  0  0
 32 31  1  0  0  0  0
 32 30  1  0  0  0  0
 33 34  1  0  0  0  0
 34 35  1  0  0  0  0
 36 35  1  0  0  0  0
 36 39  1  0  0  0  0
 39 38  1  0  0  0  0
 39 37  1  0  0  0  0
 40  1  1  0  0  0  0
 41 40  1  0  0  0  0
 42 41  1  0  0  0  0
 43 42  3  0  0  0  0
 44 43  1  0  0  0  0
 46 44  1  0  0  0  0
 46 45  1  6  0  0  0
 47 49  1  6  0  0  0
 47 46  1  0  0  0  0
 48 47  1  0  0  0  0
 50 52  1  0  0  0  0
 50 47  1  0  0  0  0
 51 52  2  0  0  0  0
 52 54  1  0  0  0  0
 54 53  1  0  0  0  0
M  END
>  <MODEL>
3

>  <REMARK>
 VINA RESULT:      -3.1      5.375     10.219
  Name = 
  21 active torsions:
  status: ('A' for Active; 'I' for Inactive)
    1  A    between atoms: C_2  and  N_10
    2  A    between atoms: C_2  and  C_41
    3  A    between atoms: N_3  and  C_52
    4  A    between atoms: C_4  and  N_10
    5  A    between atoms: O_6  and  C_50
    6  A    between atoms: O_7  and  C_49
    7  A    between atoms: C_8  and  C_27
    8  A    between atoms: C_9  and  C_35
    9  A    between atoms: C_9  and  C_39
   10  A    between atoms: N_10  and  C_42
   11  A    between atoms: C_13  and  C_25
   12  A    between atoms: C_17  and  C_28
   13  A    between atoms: C_17  and  C_35
   14  A    between atoms: C_25  and  C_45
   15  A    between atoms: C_28  and  C_49
   16  A    between atoms: C_31  and  C_36
   17  A    between atoms: C_33  and  C_37
   18  A    between atoms: C_33  and  C_43
   19  A    between atoms: C_38  and  C_54
   20  A    between atoms: C_42  and  C_54
   21  A    between atoms: C_43  and  C_45
                            x       y       z     vdW  Elec       q    Type
                         _______ _______ _______ _____ _____    ______ ____

>  <TORSDO>
F 21

$$$$
=
 OpenBabel11052410103D

 54 57  0  0  1  0  0  0  0  0999 V2000
  160.4050  210.8900  154.8850 N   0  0  0  0  0  0  0  0  0  0  0  0
  159.6680  209.7330  154.3720 C   0  0  1  0  0  3  0  0  0  0  0  0
  161.3530  207.8790  154.7930 N   0  0  0  0  0  0  0  0  0  0  0  0
  159.5960  209.0430  151.9990 N   0  0  0  0  0  0  0  0  0  0  0  0
  159.0170  210.0050  152.9670 C   0  0  0  0  0  3  0  0  0  0  0  0
  161.2670  207.2180  152.4820 C   0  0  0  0  0  0  0  0  0  0  0  0
  161.8320  206.9360  153.8110 C   0  0  0  0  0  0  0  0  0  0  0  0
  160.5950  208.6300  154.0680 C   0  0  1  0  0  3  0  0  0  0  0  0
  162.7180  206.0320  154.0720 N   0  0  0  0  0  1  0  0  0  0  0  0
  160.5280  208.2780  152.7310 C   0  0  0  0  0  0  0  0  0  0  0  0
  160.4890  205.4550  150.8720 N   0  0  0  0  0  2  0  0  0  0  0  0
  161.4220  206.4840  151.2230 C   0  0  0  0  0  0  0  0  0  0  0  0
  162.4040  206.7470  150.4860 O   0  0  0  0  0  0  0  0  0  0  0  0
  161.0410  202.3060  147.7350 C   0  0  0  0  0  0  0  0  0  0  0  0
  160.1970  202.3170  148.7710 C   0  0  0  0  0  3  0  0  0  0  0  0
  160.1920  206.5350  148.0860 O   0  0  0  0  0  1  0  0  0  0  0  0
  160.1750  203.3640  149.8200 C   0  0  0  0  0  3  0  0  0  0  0  0
  162.1000  203.3550  147.6040 C   0  0  0  0  0  2  0  0  0  0  0  0
  160.7480  205.2840  148.3430 C   0  0  0  0  0  0  0  0  0  0  0  0
  161.4850  204.7020  147.3850 C   0  0  0  0  0  0  0  0  0  0  0  0
  160.5010  204.6570  149.6820 C   0  0  0  0  0  0  0  0  0  0  0  0
  159.7030  200.7490  146.5450 F   0  0  0  0  0  0  0  0  0  0  0  0
  161.0090  201.1630  146.7550 C   0  0  0  0  0  0  0  0  0  0  0  0
  161.7450  200.0910  147.2280 F   0  0  0  0  0  0  0  0  0  0  0  0
  161.5610  201.5700  145.5500 F   0  0  0  0  0  0  0  0  0  0  0  0
  160.9130  205.1520  145.0240 C   0  0  0  0  0  1  0  0  0  0  0  0
  161.6890  205.3880  146.1880 O   0  0  0  0  0  0  0  0  0  0  0  0
  160.3740  211.2530  156.2710 C   0  0  0  0  0  0  0  0  0  0  0  0
  161.2310  210.6530  157.0990 C   0  0  0  0  0  2  0  0  0  0  0  0
  158.4320  212.8880  155.9680 C   0  0  2  0  0  3  0  0  0  0  0  0
  159.1860  213.2390  157.1840 N   0  0  0  0  0  2  0  0  0  0  0  0
  159.0730  211.8230  156.7780 C   0  0  2  0  0  3  0  0  0  0  0  0
  159.1970  213.3980  154.7490 C   0  0  0  0  0  2  0  0  0  0  0  0
  158.3060  214.2760  153.8690 C   0  0  0  0  0  2  0  0  0  0  0  0
  157.6080  213.4930  152.7510 C   0  0  0  0  0  2  0  0  0  0  0  0
  158.1840  213.8290  151.3760 C   0  0  0  0  0  2  0  0  0  0  0  0
  156.9100  213.1760  149.4760 O   0  0  0  0  0  1  0  0  0  0  0  0
  155.8940  214.4520  151.0660 O   0  0  0  0  0  1  0  0  0  0  0  0
  157.0930  214.2130  150.3900 C   0  0  0  0  0  3  0  0  0  0  0  0
  161.1080  211.7380  153.9270 C   0  0  0  0  0  2  0  0  0  0  0  0
  162.0960  210.9080  153.1140 C   0  0  0  0  0  2  0  0  0  0  0  0
  161.9010  211.1760  151.6820 C   0  0  0  0  0  0  0  0  0  0  0  0
  161.7620  211.3890  150.5030 C   0  0  0  0  0  0  0  0  0  0  0  0
  161.6130  211.5980  149.0580 C   0  0  0  0  0  2  0  0  0  0  0  0
  162.8460  213.6250  148.6890 O   0  0  0  0  0  1  0  0  0  0  0  0
  161.5530  213.0890  148.7400 C   0  0  1  0  0  3  0  0  0  0  0  0
  160.7990  213.3810  147.4320 C   0  0  1  0  0  0  0  0  0  0  0  0
  159.7770  214.2870  147.7110 O   0  0  0  0  0  1  0  0  0  0  0  0
  161.7320  214.0360  146.4130 C   0  0  0  0  0  1  0  0  0  0  0  0
  160.1280  212.0840  146.9310 C   0  0  0  0  0  2  0  0  0  0  0  0
  158.0610  212.4950  145.8190 O   0  0  0  0  0  0  0  0  0  0  0  0
  159.2840  212.2070  145.7020 C   0  0  0  0  0  0  0  0  0  0  0  0
  159.4480  212.7200  143.3010 C   0  0  0  0  0  1  0  0  0  0  0  0
  159.8520  211.9850  144.4440 O   0  0  0  0  0  0  0  0  0  0  0  0
  1 28  1  0  0  0  0
  2  1  1  6  0  0  0
  4 10  1  0  0  0  0
  4  5  2  0  0  0  0
  5  2  1  0  0  0  0
  6 10  2  0  0  0  0
  6  7  1  0  0  0  0
  7  9  1  0  0  0  0
  7  3  2  0  0  0  0
  8 10  1  1  0  0  0
  8  2  1  0  0  0  0
  8  3  1  0  0  0  0
 11 12  1  0  0  0  0
 12  6  1  0  0  0  0
 13 12  2  0  0  0  0
 14 15  2  0  0  0  0
 15 17  1  0  0  0  0
 16 19  1  0  0  0  0
 18 14  1  0  0  0  0
 19 21  1  0  0  0  0
 20 18  1  0  0  0  0
 20 19  2  0  0  0  0
 21 17  2  0  0  0  0
 21 11  1  0  0  0  0
 22 23  1  0  0  0  0
 23 24  1  0  0  0  0
 23 14  1  0  0  0  0
 25 23  1  0  0  0  0
 26 27  1  0  0  0  0
 27 20  1  0  0  0  0
 28 29  2  0  0  0  0
 30 33  1  6  0  0  0
 30 32  1  0  0  0  0
 30 31  1  0  0  0  0
 32 28  1  6  0  0  0
 32 31  1  0  0  0  0
 34 33  1  0  0  0  0
 35 34  1  0  0  0  0
 36 35  1  0  0  0  0
 37 39  1  0  0  0  0
 39 38  1  0  0  0  0
 39 36  1  0  0  0  0
 40  1  1  0  0  0  0
 41 40  1  0  0  0  0
 42 41  1  0  0  0  0
 43 42  3  0  0  0  0
 44 43  1  0  0  0  0
 46 45  1  6  0  0  0
 46 44  1  0  0  0  0
 47 49  1  6  0  0  0
 47 48  1  0  0  0  0
 47 46  1  0  0  0  0
 50 47  1  0  0  0  0
 52 51  2  0  0  0  0
 52 50  1  0  0  0  0
 53 54  1  0  0  0  0
 54 52  1  0  0  0  0
M  END
>  <MODEL>
4

>  <REMARK>
 VINA RESULT:      -1.8      1.887      3.099
  Name = 
  21 active torsions:
  status: ('A' for Active; 'I' for Inactive)
    1  A    between atoms: C_2  and  N_10
    2  A    between atoms: C_2  and  C_41
    3  A    between atoms: N_3  and  C_52
    4  A    between atoms: C_4  and  N_10
    5  A    between atoms: O_6  and  C_50
    6  A    between atoms: O_7  and  C_49
    7  A    between atoms: C_8  and  C_27
    8  A    between atoms: C_9  and  C_35
    9  A    between atoms: C_9  and  C_39
   10  A    between atoms: N_10  and  C_42
   11  A    between atoms: C_13  and  C_25
   12  A    between atoms: C_17  and  C_28
   13  A    between atoms: C_17  and  C_35
   14  A    between atoms: C_25  and  C_45
   15  A    between atoms: C_28  and  C_49
   16  A    between atoms: C_31  and  C_36
   17  A    between atoms: C_33  and  C_37
   18  A    between atoms: C_33  and  C_43
   19  A    between atoms: C_38  and  C_54
   20  A    between atoms: C_42  and  C_54
   21  A    between atoms: C_43  and  C_45
                            x       y       z     vdW  Elec       q    Type
                         _______ _______ _______ _____ _____    ______ ____

>  <TORSDO>
F 21

$$$$
=
 OpenBabel11052410103D

 54 57  0  0  1  0  0  0  0  0999 V2000
  160.2940  212.3690  151.0450 N   0  0  0  0  0  0  0  0  0  0  0  0
  160.0140  211.7540  149.7450 C   0  0  1  0  0  3  0  0  0  0  0  0
  162.3700  211.5060  148.8260 N   0  0  0  0  0  0  0  0  0  0  0  0
  159.4130  212.9980  147.6950 N   0  0  0  0  0  0  0  0  0  0  0  0
  158.8570  212.4820  148.9680 C   0  0  0  0  0  3  0  0  0  0  0  0
  161.7660  212.7140  146.8360 C   0  0  0  0  0  0  0  0  0  0  0  0
  162.8290  211.9860  147.5450 C   0  0  0  0  0  0  0  0  0  0  0  0
  161.1560  211.9420  148.8340 C   0  0  1  0  0  3  0  0  0  0  0  0
  164.0510  211.8630  147.1410 N   0  0  0  0  0  1  0  0  0  0  0  0
  160.7790  212.6470  147.7030 C   0  0  0  0  0  0  0  0  0  0  0  0
  161.2650  212.5570  144.3800 N   0  0  0  0  0  2  0  0  0  0  0  0
  161.7680  213.3040  145.4940 C   0  0  0  0  0  0  0  0  0  0  0  0
  162.2530  214.4520  145.3380 O   0  0  0  0  0  0  0  0  0  0  0  0
  160.3640  213.1720  140.0360 C   0  0  0  0  0  0  0  0  0  0  0  0
  159.6260  213.5040  141.0990 C   0  0  0  0  0  3  0  0  0  0  0  0
  163.4370  214.0590  142.9510 O   0  0  0  0  0  1  0  0  0  0  0  0
  159.9680  213.1500  142.4970 C   0  0  0  0  0  3  0  0  0  0  0  0
  161.5930  212.3320  140.1940 C   0  0  0  0  0  2  0  0  0  0  0  0
  162.4370  213.3690  142.2690 C   0  0  0  0  0  0  0  0  0  0  0  0
  162.6370  213.0660  140.9770 C   0  0  0  0  0  0  0  0  0  0  0  0
  161.1940  212.9930  143.0170 C   0  0  0  0  0  0  0  0  0  0  0  0
  159.4520  212.4090  137.9830 F   0  0  0  0  0  0  0  0  0  0  0  0
  159.8930  213.5390  138.6540 C   0  0  0  0  0  0  0  0  0  0  0  0
  160.9160  214.1200  137.9250 F   0  0  0  0  0  0  0  0  0  0  0  0
  158.8530  214.4520  138.7460 F   0  0  0  0  0  0  0  0  0  0  0  0
  164.1930  213.0530  139.0590 C   0  0  0  0  0  1  0  0  0  0  0  0
  163.8460  213.4240  140.3840 O   0  0  0  0  0  0  0  0  0  0  0  0
  159.6110  213.5490  151.4860 C   0  0  0  0  0  0  0  0  0  0  0  0
  160.2990  214.4520  152.1850 C   0  0  0  0  0  2  0  0  0  0  0  0
  157.5860  212.9010  152.9060 C   0  0  2  0  0  3  0  0  0  0  0  0
  157.6510  212.0330  151.7170 N   0  0  0  0  0  2  0  0  0  0  0  0
  158.1130  213.4330  151.6260 C   0  0  2  0  0  3  0  0  0  0  0  0
  158.6040  212.4090  153.9330 C   0  0  0  0  0  2  0  0  0  0  0  0
  158.8190  213.4490  155.0340 C   0  0  0  0  0  2  0  0  0  0  0  0
  159.3830  212.8470  156.3260 C   0  0  0  0  0  2  0  0  0  0  0  0
  160.7870  212.2790  156.1240 C   0  0  0  0  0  2  0  0  0  0  0  0
  159.7470  210.3250  156.9960 O   0  0  0  0  0  1  0  0  0  0  0  0
  161.8720  210.1460  156.1930 O   0  0  0  0  0  1  0  0  0  0  0  0
  160.9760  210.9720  156.8770 C   0  0  0  0  0  3  0  0  0  0  0  0
  161.3670  211.8050  151.8570 C   0  0  0  0  0  2  0  0  0  0  0  0
  160.8390  210.6460  152.6970 C   0  0  0  0  0  2  0  0  0  0  0  0
  161.1440  209.3750  152.0260 C   0  0  0  0  0  0  0  0  0  0  0  0
  161.3880  208.3400  151.4550 C   0  0  0  0  0  0  0  0  0  0  0  0
  161.7150  207.1100  150.7240 C   0  0  0  0  0  2  0  0  0  0  0  0
  162.6450  207.8620  148.6420 O   0  0  0  0  0  1  0  0  0  0  0  0
  161.4980  207.3080  149.2270 C   0  0  1  0  0  3  0  0  0  0  0  0
  161.1070  206.0050  148.5120 C   0  0  1  0  0  0  0  0  0  0  0  0
  161.0670  204.9830  149.4590 O   0  0  0  0  0  1  0  0  0  0  0  0
  159.7100  206.1280  147.9040 C   0  0  0  0  0  1  0  0  0  0  0  0
  162.2080  205.6330  147.4940 C   0  0  0  0  0  2  0  0  0  0  0  0
  161.6650  205.4450  145.1820 O   0  0  0  0  0  0  0  0  0  0  0  0
  161.7660  204.8570  146.2940 C   0  0  0  0  0  0  0  0  0  0  0  0
  161.2020  202.6840  145.2880 C   0  0  0  0  0  1  0  0  0  0  0  0
  161.4540  203.5010  146.4190 O   0  0  0  0  0  0  0  0  0  0  0  0
  1 28  1  0  0  0  0
  1 40  1  0  0  0  0
  2  1  1  1  0  0  0
  3  8  1  0  0  0  0
  4 10  1  0  0  0  0
  4  5  2  0  0  0  0
  5  2  1  0  0  0  0
  6  7  1  0  0  0  0
  6 10  2  0  0  0  0
  7  3  2  0  0  0  0
  8 10  1  6  0  0  0
  8  2  1  0  0  0  0
  9  7  1  0  0  0  0
 11 12  1  0  0  0  0
 12  6  1  0  0  0  0
 13 12  2  0  0  0  0
 14 18  1  0  0  0  0
 14 15  2  0  0  0  0
 15 17  1  0  0  0  0
 17 21  2  0  0  0  0
 18 20  1  0  0  0  0
 19 16  1  0  0  0  0
 19 21  1  0  0  0  0
 20 19  2  0  0  0  0
 21 11  1  0  0  0  0
 22 23  1  0  0  0  0
 23 25  1  0  0  0  0
 23 14  1  0  0  0  0
 24 23  1  0  0  0  0
 26 27  1  0  0  0  0
 27 20  1  0  0  0  0
 28 29  2  0  0  0  0
 30 33  1  1  0  0  0
 31 30  1  0  0  0  0
 32 28  1  1  0  0  0
 32 31  1  0  0  0  0
 32 30  1  0  0  0  0
 33 34  1  0  0  0  0
 34 35  1  0  0  0  0
 36 35  1  0  0  0  0
 36 39  1  0  0  0  0
 38 39  1  0  0  0  0
 39 37  1  0  0  0  0
 40 41  1  0  0  0  0
 42 41  1  0  0  0  0
 43 42  3  0  0  0  0
 44 43  1  0  0  0  0
 46 45  1  6  0  0  0
 46 44  1  0  0  0  0
 47 49  1  6  0  0  0
 47 46  1  0  0  0  0
 47 48  1  0  0  0  0
 50 47  1  0  0  0  0
 51 52  2  0  0  0  0
 52 54  1  0  0  0  0
 52 50  1  0  0  0  0
 53 54  1  0  0  0  0
M  END
>  <MODEL>
5

>  <REMARK>
 VINA RESULT:      -1.5      4.471      8.374
  Name = 
  21 active torsions:
  status: ('A' for Active; 'I' for Inactive)
    1  A    between atoms: C_2  and  N_10
    2  A    between atoms: C_2  and  C_41
    3  A    between atoms: N_3  and  C_52
    4  A    between atoms: C_4  and  N_10
    5  A    between atoms: O_6  and  C_50
    6  A    between atoms: O_7  and  C_49
    7  A    between atoms: C_8  and  C_27
    8  A    between atoms: C_9  and  C_35
    9  A    between atoms: C_9  and  C_39
   10  A    between atoms: N_10  and  C_42
   11  A    between atoms: C_13  and  C_25
   12  A    between atoms: C_17  and  C_28
   13  A    between atoms: C_17  and  C_35
   14  A    between atoms: C_25  and  C_45
   15  A    between atoms: C_28  and  C_49
   16  A    between atoms: C_31  and  C_36
   17  A    between atoms: C_33  and  C_37
   18  A    between atoms: C_33  and  C_43
   19  A    between atoms: C_38  and  C_54
   20  A    between atoms: C_42  and  C_54
   21  A    between atoms: C_43  and  C_45
                            x       y       z     vdW  Elec       q    Type
                         _______ _______ _______ _____ _____    ______ ____

>  <TORSDO>
F 21

$$$$
=
 OpenBabel11052410103D

 54 57  0  0  1  0  0  0  0  0999 V2000
  159.8330  213.1110  149.7470 N   0  0  0  0  0  0  0  0  0  0  0  0
  160.8820  212.4070  150.4890 C   0  0  1  0  0  3  0  0  0  0  0  0
  162.3550  211.6110  148.5790 N   0  0  0  0  0  0  0  0  0  0  0  0
  160.7340  210.0660  151.2680 N   0  0  0  0  0  0  0  0  0  0  0  0
  160.3040  211.4470  151.5910 C   0  0  0  0  0  3  0  0  0  0  0  0
  162.2030  209.3390  149.3530 C   0  0  0  0  0  0  0  0  0  0  0  0
  162.7840  210.2520  148.3560 C   0  0  0  0  0  0  0  0  0  0  0  0
  161.5890  211.4640  149.6060 C   0  0  1  0  0  3  0  0  0  0  0  0
  163.5060  209.8950  147.3450 N   0  0  0  0  0  1  0  0  0  0  0  0
  161.4770  210.1660  150.0730 C   0  0  0  0  0  0  0  0  0  0  0  0
  161.3880  206.9680  149.2050 N   0  0  0  0  0  2  0  0  0  0  0  0
  162.4190  207.9020  149.5470 C   0  0  0  0  0  0  0  0  0  0  0  0
  163.5030  207.5160  150.0510 O   0  0  0  0  0  0  0  0  0  0  0  0
  160.9240  202.5300  148.8160 C   0  0  0  0  0  0  0  0  0  0  0  0
  161.6190  203.3700  148.0440 C   0  0  0  0  0  3  0  0  0  0  0  0
  162.1660  205.5010  151.7070 O   0  0  0  0  0  1  0  0  0  0  0  0
  161.6130  204.8440  148.1970 C   0  0  0  0  0  3  0  0  0  0  0  0
  160.0100  203.0530  149.8800 C   0  0  0  0  0  2  0  0  0  0  0  0
  161.4500  204.8910  150.6800 C   0  0  0  0  0  0  0  0  0  0  0  0
  160.7890  203.7550  150.9480 C   0  0  0  0  0  0  0  0  0  0  0  0
  161.4490  205.5420  149.3300 C   0  0  0  0  0  0  0  0  0  0  0  0
  161.2620  200.3540  149.6980 F   0  0  0  0  0  0  0  0  0  0  0  0
  160.9630  201.0510  148.5380 C   0  0  0  0  0  0  0  0  0  0  0  0
  161.9200  200.7570  147.5830 F   0  0  0  0  0  0  0  0  0  0  0  0
  159.7300  200.6370  148.0580 F   0  0  0  0  0  0  0  0  0  0  0  0
  159.6450  203.0080  153.0060 C   0  0  0  0  0  1  0  0  0  0  0  0
  160.8190  203.2530  152.2480 O   0  0  0  0  0  0  0  0  0  0  0  0
  159.9340  213.3490  148.3380 C   0  0  0  0  0  0  0  0  0  0  0  0
  160.5660  214.4490  147.9280 C   0  0  0  0  0  2  0  0  0  0  0  0
  159.2660  212.3250  146.0910 C   0  0  2  0  0  3  0  0  0  0  0  0
  158.4600  213.5340  146.3410 N   0  0  0  0  0  2  0  0  0  0  0  0
  158.8840  212.6900  147.4780 C   0  0  2  0  0  3  0  0  0  0  0  0
  160.6540  212.7480  145.6130 C   0  0  0  0  0  2  0  0  0  0  0  0
  160.9970  212.0890  144.2760 C   0  0  0  0  0  2  0  0  0  0  0  0
  162.1850  212.7520  143.5680 C   0  0  0  0  0  2  0  0  0  0  0  0
  161.7350  213.6300  142.4020 C   0  0  0  0  0  2  0  0  0  0  0  0
  161.9650  212.1450  140.5580 O   0  0  0  0  0  1  0  0  0  0  0  0
  162.3910  214.3570  140.2180 O   0  0  0  0  0  1  0  0  0  0  0  0
  162.4950  213.3020  141.1280 C   0  0  0  0  0  3  0  0  0  0  0  0
  158.7080  213.6570  150.4980 C   0  0  0  0  0  2  0  0  0  0  0  0
  159.1940  214.2620  151.8110 C   0  0  0  0  0  2  0  0  0  0  0  0
  158.2220  213.9730  152.8750 C   0  0  0  0  0  0  0  0  0  0  0  0
  157.4080  213.7300  153.7320 C   0  0  0  0  0  0  0  0  0  0  0  0
  156.4100  213.3850  154.7500 C   0  0  0  0  0  2  0  0  0  0  0  0
  156.1640  212.7600  157.0550 O   0  0  0  0  0  1  0  0  0  0  0  0
  157.0940  212.8740  156.0140 C   0  0  1  0  0  3  0  0  0  0  0  0
  157.8170  211.5360  155.7910 C   0  0  1  0  0  0  0  0  0  0  0  0
  158.2250  211.0500  157.0320 O   0  0  0  0  0  1  0  0  0  0  0  0
  156.8630  210.5080  155.1830 C   0  0  0  0  0  1  0  0  0  0  0  0
  159.0960  211.7820  154.9610 C   0  0  0  0  0  2  0  0  0  0  0  0
  160.7820  212.2610  156.5740 O   0  0  0  0  0  0  0  0  0  0  0  0
  160.3960  211.4980  155.6460 C   0  0  0  0  0  0  0  0  0  0  0  0
  160.9200  209.0960  155.7140 C   0  0  0  0  0  1  0  0  0  0  0  0
  161.1720  210.4090  155.2420 O   0  0  0  0  0  0  0  0  0  0  0  0
  1 40  1  0  0  0  0
  2  1  1  6  0  0  0
  2  5  1  0  0  0  0
  4  5  2  0  0  0  0
  6 12  1  0  0  0  0
  6 10  2  0  0  0  0
  7  3  2  0  0  0  0
  7  6  1  0  0  0  0
  8  3  1  1  0  0  0
  8 10  1  0  0  0  0
  8  2  1  0  0  0  0
  9  7  1  0  0  0  0
 10  4  1  0  0  0  0
 11 21  1  0  0  0  0
 11 12  1  0  0  0  0
 12 13  2  0  0  0  0
 14 18  1  0  0  0  0
 15 17  1  0  0  0  0
 15 14  2  0  0  0  0
 17 21  2  0  0  0  0
 18 20  1  0  0  0  0
 19 20  2  0  0  0  0
 19 16  1  0  0  0  0
 20 27  1  0  0  0  0
 21 19  1  0  0  0  0
 23 14  1  0  0  0  0
 23 22  1  0  0  0  0
 24 23  1  0  0  0  0
 25 23  1  0  0  0  0
 27 26  1  0  0  0  0
 28  1  1  0  0  0  0
 29 28  2  0  0  0  0
 30 33  1  1  0  0  0
 30 31  1  0  0  0  0
 30 32  1  0  0  0  0
 31 32  1  0  0  0  0
 32 28  1  1  0  0  0
 34 33  1  0  0  0  0
 35 34  1  0  0  0  0
 36 35  1  0  0  0  0
 37 39  1  0  0  0  0
 38 39  1  0  0  0  0
 39 36  1  0  0  0  0
 40 41  1  0  0  0  0
 41 42  1  0  0  0  0
 42 43  3  0  0  0  0
 43 44  1  0  0  0  0
 44 46  1  0  0  0  0
 46 45  1  1  0  0  0
 47 49  1  6  0  0  0
 47 46  1  0  0  0  0
 47 48  1  0  0  0  0
 50 52  1  0  0  0  0
 50 47  1  0  0  0  0
 52 51  2  0  0  0  0
 54 52  1  0  0  0  0
 54 53  1  0  0  0  0
M  END
>  <MODEL>
6

>  <REMARK>
 VINA RESULT:      -1.3      2.925      7.915
  Name = 
  21 active torsions:
  status: ('A' for Active; 'I' for Inactive)
    1  A    between atoms: C_2  and  N_10
    2  A    between atoms: C_2  and  C_41
    3  A    between atoms: N_3  and  C_52
    4  A    between atoms: C_4  and  N_10
    5  A    between atoms: O_6  and  C_50
    6  A    between atoms: O_7  and  C_49
    7  A    between atoms: C_8  and  C_27
    8  A    between atoms: C_9  and  C_35
    9  A    between atoms: C_9  and  C_39
   10  A    between atoms: N_10  and  C_42
   11  A    between atoms: C_13  and  C_25
   12  A    between atoms: C_17  and  C_28
   13  A    between atoms: C_17  and  C_35
   14  A    between atoms: C_25  and  C_45
   15  A    between atoms: C_28  and  C_49
   16  A    between atoms: C_31  and  C_36
   17  A    between atoms: C_33  and  C_37
   18  A    between atoms: C_33  and  C_43
   19  A    between atoms: C_38  and  C_54
   20  A    between atoms: C_42  and  C_54
   21  A    between atoms: C_43  and  C_45
                            x       y       z     vdW  Elec       q    Type
                         _______ _______ _______ _____ _____    ______ ____

>  <TORSDO>
F 21

$$$$
=
 OpenBabel11052410103D

 54 57  0  0  1  0  0  0  0  0999 V2000
  161.6740  205.9260  147.3880 N   0  0  0  0  0  0  0  0  0  0  0  0
  162.3980  207.0770  147.9320 C   0  0  1  0  0  3  0  0  0  0  0  0
  162.8020  206.2940  150.3150 N   0  0  0  0  0  0  0  0  0  0  0  0
  161.3310  209.1100  148.8480 N   0  0  0  0  0  0  0  0  0  0  0  0
  161.7090  208.4460  147.5790 C   0  0  0  0  0  3  0  0  0  0  0  0
  161.7650  208.2800  151.1890 C   0  0  0  0  0  0  0  0  0  0  0  0
  162.4570  207.0220  151.5110 C   0  0  0  0  0  0  0  0  0  0  0  0
  162.3300  207.0750  149.4030 C   0  0  0  0  0  0  0  0  0  0  0  0
  162.6540  206.5600  152.7020 N   0  0  0  0  0  2  0  0  0  0  0  0
  161.7220  208.2250  149.8750 C   0  0  0  0  0  0  0  0  0  0  0  0
  160.6270  209.0270  153.2990 N   0  0  0  0  0  2  0  0  0  0  0  0
  161.3020  209.3500  152.0770 C   0  0  0  0  0  0  0  0  0  0  0  0
  161.4730  210.5440  151.7270 O   0  0  0  0  0  0  0  0  0  0  0  0
  158.8150  212.4740  155.5140 C   0  0  0  0  0  0  0  0  0  0  0  0
  158.2030  211.4990  154.8350 C   0  0  0  0  0  3  0  0  0  0  0  0
  161.5250  209.1620  156.1620 O   0  0  0  0  0  1  0  0  0  0  0  0
  158.9060  210.4650  154.0390 C   0  0  0  0  0  3  0  0  0  0  0  0
  160.3040  212.6250  155.4530 C   0  0  0  0  0  2  0  0  0  0  0  0
  160.8830  210.2260  155.5330 C   0  0  0  0  0  0  0  0  0  0  0  0
  160.9800  211.4460  156.0820 C   0  0  0  0  0  0  0  0  0  0  0  0
  160.1240  209.9530  154.2700 C   0  0  0  0  0  0  0  0  0  0  0  0
  157.2570  212.9000  157.2510 F   0  0  0  0  0  0  0  0  0  0  0  0
  157.9980  213.5030  156.2480 C   0  0  0  0  0  0  0  0  0  0  0  0
  157.1340  214.1500  155.3820 F   0  0  0  0  0  0  0  0  0  0  0  0
  158.8410  214.4520  156.8070 F   0  0  0  0  0  0  0  0  0  0  0  0
  163.1530  211.7800  157.2090 C   0  0  0  0  0  1  0  0  0  0  0  0
  161.7460  211.6020  157.2370 O   0  0  0  0  0  0  0  0  0  0  0  0
  161.4330  204.7470  148.1660 C   0  0  0  0  0  0  0  0  0  0  0  0
  161.8960  203.5830  147.7080 C   0  0  0  0  0  2  0  0  0  0  0  0
  160.4200  204.2240  150.4550 C   0  0  2  0  0  3  0  0  0  0  0  0
  159.7070  203.4610  149.4150 N   0  0  0  0  0  2  0  0  0  0  0  0
  160.2480  204.7990  149.0990 C   0  0  2  0  0  3  0  0  0  0  0  0
  161.7450  203.5270  150.7580 C   0  0  0  0  0  2  0  0  0  0  0  0
  161.5130  202.0960  151.2470 C   0  0  0  0  0  2  0  0  0  0  0  0
  160.6740  201.2590  150.2750 C   0  0  0  0  0  2  0  0  0  0  0  0
  161.5450  200.5300  149.2530 C   0  0  0  0  0  2  0  0  0  0  0  0
  159.9620  201.3480  147.6770 O   0  0  0  0  0  1  0  0  0  0  0  0
  161.6840  200.0700  146.9080 O   0  0  0  0  0  1  0  0  0  0  0  0
  160.7880  200.2620  147.9630 C   0  0  0  0  0  3  0  0  0  0  0  0
  161.2780  205.9620  145.9840 C   0  0  0  0  0  2  0  0  0  0  0  0
  162.4630  205.6020  145.0930 C   0  0  0  0  0  2  0  0  0  0  0  0
  162.1410  205.9220  143.6950 C   0  0  0  0  0  0  0  0  0  0  0  0
  161.8540  206.1800  142.5520 C   0  0  0  0  0  0  0  0  0  0  0  0
  161.4670  206.5290  141.1800 C   0  0  0  0  0  2  0  0  0  0  0  0
  163.4980  206.5500  139.8990 O   0  0  0  0  0  1  0  0  0  0  0  0
  162.5510  207.3750  140.5200 C   0  0  1  0  0  3  0  0  0  0  0  0
  161.9770  208.3850  139.5120 C   0  0  1  0  0  0  0  0  0  0  0  0
  162.9990  209.2540  139.1370 O   0  0  0  0  0  1  0  0  0  0  0  0
  161.4950  207.6660  138.2520 C   0  0  0  0  0  1  0  0  0  0  0  0
  160.8930  209.2360  140.2080 C   0  0  0  0  0  2  0  0  0  0  0  0
  161.8080  211.2470  141.1020 O   0  0  0  0  0  0  0  0  0  0  0  0
  161.1060  210.7170  140.1960 C   0  0  0  0  0  0  0  0  0  0  0  0
  160.3590  212.8990  139.3390 C   0  0  0  0  0  1  0  0  0  0  0  0
  160.5150  211.4970  139.1990 O   0  0  0  0  0  0  0  0  0  0  0  0
  1 28  1  0  0  0  0
  2  1  1  6  0  0  0
  2  8  1  0  0  0  0
  3  7  1  0  0  0  0
  4 10  1  0  0  0  0
  5  2  1  0  0  0  0
  5  4  2  0  0  0  0
  6  7  1  0  0  0  0
  6 12  1  0  0  0  0
  7  9  2  0  0  0  0
  8 10  1  0  0  0  0
  8  3  2  0  0  0  0
 10  6  2  0  0  0  0
 11 21  1  0  0  0  0
 12 11  1  0  0  0  0
 13 12  2  0  0  0  0
 14 23  1  0  0  0  0
 15 14  2  0  0  0  0
 17 21  2  0  0  0  0
 17 15  1  0  0  0  0
 18 14  1  0  0  0  0
 18 20  1  0  0  0  0
 19 20  2  0  0  0  0
 19 16  1  0  0  0  0
 20 27  1  0  0  0  0
 21 19  1  0  0  0  0
 23 25  1  0  0  0  0
 23 22  1  0  0  0  0
 24 23  1  0  0  0  0
 26 27  1  0  0  0  0
 29 28  2  0  0  0  0
 30 33  1  6  0  0  0
 31 30  1  0  0  0  0
 32 28  1  6  0  0  0
 32 31  1  0  0  0  0
 32 30  1  0  0  0  0
 33 34  1  0  0  0  0
 35 34  1  0  0  0  0
 36 35  1  0  0  0  0
 37 39  1  0  0  0  0
 38 39  1  0  0  0  0
 39 36  1  0  0  0  0
 40  1  1  0  0  0  0
 41 40  1  0  0  0  0
 42 41  1  0  0  0  0
 43 42  3  0  0  0  0
 44 43  1  0  0  0  0
 46 45  1  6  0  0  0
 46 44  1  0  0  0  0
 47 49  1  6  0  0  0
 47 50  1  0  0  0  0
 47 46  1  0  0  0  0
 48 47  1  0  0  0  0
 52 50  1  0  0  0  0
 52 51  2  0  0  0  0
 54 53  1  0  0  0  0
 54 52  1  0  0  0  0
M  END
>  <MODEL>
7

>  <REMARK>
 VINA RESULT:      -1.3      5.241     10.525
  Name = 
  21 active torsions:
  status: ('A' for Active; 'I' for Inactive)
    1  A    between atoms: C_2  and  N_10
    2  A    between atoms: C_2  and  C_41
    3  A    between atoms: N_3  and  C_52
    4  A    between atoms: C_4  and  N_10
    5  A    between atoms: O_6  and  C_50
    6  A    between atoms: O_7  and  C_49
    7  A    between atoms: C_8  and  C_27
    8  A    between atoms: C_9  and  C_35
    9  A    between atoms: C_9  and  C_39
   10  A    between atoms: N_10  and  C_42
   11  A    between atoms: C_13  and  C_25
   12  A    between atoms: C_17  and  C_28
   13  A    between atoms: C_17  and  C_35
   14  A    between atoms: C_25  and  C_45
   15  A    between atoms: C_28  and  C_49
   16  A    between atoms: C_31  and  C_36
   17  A    between atoms: C_33  and  C_37
   18  A    between atoms: C_33  and  C_43
   19  A    between atoms: C_38  and  C_54
   20  A    between atoms: C_42  and  C_54
   21  A    between atoms: C_43  and  C_45
                            x       y       z     vdW  Elec       q    Type
                         _______ _______ _______ _____ _____    ______ ____

>  <TORSDO>
F 21

$$$$
=
 OpenBabel11052410103D

 54 57  0  0  1  0  0  0  0  0999 V2000
  160.3060  212.3320  151.0340 N   0  0  0  0  0  0  0  0  0  0  0  0
  160.0170  211.6900  149.7500 C   0  0  1  0  0  3  0  0  0  0  0  0
  162.3600  211.4750  148.7940 N   0  0  0  0  0  0  0  0  0  0  0  0
  159.3550  212.8870  147.6910 N   0  0  0  0  0  0  0  0  0  0  0  0
  158.8320  212.3810  148.9820 C   0  0  0  0  0  3  0  0  0  0  0  0
  161.6980  212.6370  146.7960 C   0  0  0  0  0  0  0  0  0  0  0  0
  162.7880  211.9430  147.4980 C   0  0  0  0  0  0  0  0  0  0  0  0
  161.1380  211.8860  148.8160 C   0  0  1  0  0  3  0  0  0  0  0  0
  164.0050  211.8380  147.0740 N   0  0  0  0  0  1  0  0  0  0  0  0
  160.7280  212.5640  147.6810 C   0  0  0  0  0  0  0  0  0  0  0  0
  161.1750  212.4230  144.3490 N   0  0  0  0  0  2  0  0  0  0  0  0
  161.6650  213.2050  145.4450 C   0  0  0  0  0  0  0  0  0  0  0  0
  162.1090  214.3660  145.2650 O   0  0  0  0  0  0  0  0  0  0  0  0
  160.2140  212.9290  140.0030 C   0  0  0  0  0  0  0  0  0  0  0  0
  159.4690  213.2420  141.0670 C   0  0  0  0  0  3  0  0  0  0  0  0
  163.2630  214.0040  142.8800 O   0  0  0  0  0  1  0  0  0  0  0  0
  159.8380  212.9260  142.4670 C   0  0  0  0  0  3  0  0  0  0  0  0
  161.4830  212.1500  140.1640 C   0  0  0  0  0  2  0  0  0  0  0  0
  162.2920  213.2570  142.2160 C   0  0  0  0  0  0  0  0  0  0  0  0
  162.4960  212.9430  140.9280 C   0  0  0  0  0  0  0  0  0  0  0  0
  161.0740  212.8350  142.9800 C   0  0  0  0  0  0  0  0  0  0  0  0
  159.4770  212.0840  137.9120 F   0  0  0  0  0  0  0  0  0  0  0  0
  159.7160  213.2520  138.6190 C   0  0  0  0  0  0  0  0  0  0  0  0
  160.6460  214.0080  137.9280 F   0  0  0  0  0  0  0  0  0  0  0  0
  158.5420  213.9840  138.7080 F   0  0  0  0  0  0  0  0  0  0  0  0
  163.7490  213.7750  138.9680 C   0  0  0  0  0  1  0  0  0  0  0  0
  163.6830  213.3490  140.3200 O   0  0  0  0  0  0  0  0  0  0  0  0
  159.5750  213.4780  151.4880 C   0  0  0  0  0  0  0  0  0  0  0  0
  160.2480  214.4510  152.1050 C   0  0  0  0  0  2  0  0  0  0  0  0
  157.6270  213.4030  153.1430 C   0  0  2  0  0  3  0  0  0  0  0  0
  157.8300  212.0650  152.5600 N   0  0  0  0  0  2  0  0  0  0  0  0
  158.1040  213.2670  151.7450 C   0  0  2  0  0  3  0  0  0  0  0  0
  158.6820  213.6350  154.2230 C   0  0  0  0  0  2  0  0  0  0  0  0
  158.1680  213.1960  155.5960 C   0  0  0  0  0  2  0  0  0  0  0  0
  157.6830  211.7420  155.6180 C   0  0  0  0  0  2  0  0  0  0  0  0
  156.7050  211.4860  156.7640 C   0  0  0  0  0  2  0  0  0  0  0  0
  154.7860  212.8070  156.2840 O   0  0  0  0  0  1  0  0  0  0  0  0
  155.1820  210.9740  154.9900 O   0  0  0  0  0  1  0  0  0  0  0  0
  155.2640  211.4970  156.2830 C   0  0  0  0  0  3  0  0  0  0  0  0
  161.4340  211.8330  151.8140 C   0  0  0  0  0  2  0  0  0  0  0  0
  160.9800  210.7060  152.7370 C   0  0  0  0  0  2  0  0  0  0  0  0
  161.3870  209.4130  152.1690 C   0  0  0  0  0  0  0  0  0  0  0  0
  161.7020  208.3510  151.6900 C   0  0  0  0  0  0  0  0  0  0  0  0
  162.0760  207.0810  151.0570 C   0  0  0  0  0  2  0  0  0  0  0  0
  162.5190  207.7600  148.7970 O   0  0  0  0  0  1  0  0  0  0  0  0
  161.6150  207.0560  149.6030 C   0  0  1  0  0  3  0  0  0  0  0  0
  161.4250  205.6250  149.0720 C   0  0  1  0  0  0  0  0  0  0  0  0
  160.6430  205.6900  147.9200 O   0  0  0  0  0  1  0  0  0  0  0  0
  162.7720  205.0160  148.6840 C   0  0  0  0  0  1  0  0  0  0  0  0
  160.6320  204.8000  150.1090 C   0  0  0  0  0  2  0  0  0  0  0  0
  161.6500  203.2900  151.6460 O   0  0  0  0  0  0  0  0  0  0  0  0
  161.2110  203.4690  150.4770 C   0  0  0  0  0  0  0  0  0  0  0  0
  160.3400  201.3840  149.5030 C   0  0  0  0  0  1  0  0  0  0  0  0
  161.2740  202.4510  149.5220 O   0  0  0  0  0  0  0  0  0  0  0  0
  1 28  1  0  0  0  0
  1 40  1  0  0  0  0
  2  1  1  1  0  0  0
  3  8  1  0  0  0  0
  4  5  2  0  0  0  0
  5  2  1  0  0  0  0
  6  7  1  0  0  0  0
  6 10  2  0  0  0  0
  7  3  2  0  0  0  0
  8 10  1  6  0  0  0
  8  2  1  0  0  0  0
  9  7  1  0  0  0  0
 10  4  1  0  0  0  0
 11 12  1  0  0  0  0
 12  6  1  0  0  0  0
 13 12  2  0  0  0  0
 14 18  1  0  0  0  0
 14 15  2  0  0  0  0
 15 17  1  0  0  0  0
 17 21  2  0  0  0  0
 18 20  1  0  0  0  0
 19 16  1  0  0  0  0
 19 21  1  0  0  0  0
 20 19  2  0  0  0  0
 21 11  1  0  0  0  0
 22 23  1  0  0  0  0
 23 25  1  0  0  0  0
 23 14  1  0  0  0  0
 24 23  1  0  0  0  0
 26 27  1  0  0  0  0
 27 20  1  0  0  0  0
 28 29  2  0  0  0  0
 30 33  1  1  0  0  0
 31 30  1  0  0  0  0
 32 28  1  1  0  0  0
 32 31  1  0  0  0  0
 32 30  1  0  0  0  0
 33 34  1  0  0  0  0
 34 35  1  0  0  0  0
 35 36  1  0  0  0  0
 38 39  1  0  0  0  0
 39 37  1  0  0  0  0
 39 36  1  0  0  0  0
 40 41  1  0  0  0  0
 42 41  1  0  0  0  0
 43 42  3  0  0  0  0
 44 43  1  0  0  0  0
 46 45  1  6  0  0  0
 46 44  1  0  0  0  0
 47 49  1  6  0  0  0
 47 46  1  0  0  0  0
 47 50  1  0  0  0  0
 48 47  1  0  0  0  0
 50 52  1  0  0  0  0
 52 51  2  0  0  0  0
 53 54  1  0  0  0  0
 54 52  1  0  0  0  0
M  END
>  <MODEL>
8

>  <REMARK>
 VINA RESULT:      -1.0      4.432      8.470
  Name = 
  21 active torsions:
  status: ('A' for Active; 'I' for Inactive)
    1  A    between atoms: C_2  and  N_10
    2  A    between atoms: C_2  and  C_41
    3  A    between atoms: N_3  and  C_52
    4  A    between atoms: C_4  and  N_10
    5  A    between atoms: O_6  and  C_50
    6  A    between atoms: O_7  and  C_49
    7  A    between atoms: C_8  and  C_27
    8  A    between atoms: C_9  and  C_35
    9  A    between atoms: C_9  and  C_39
   10  A    between atoms: N_10  and  C_42
   11  A    between atoms: C_13  and  C_25
   12  A    between atoms: C_17  and  C_28
   13  A    between atoms: C_17  and  C_35
   14  A    between atoms: C_25  and  C_45
   15  A    between atoms: C_28  and  C_49
   16  A    between atoms: C_31  and  C_36
   17  A    between atoms: C_33  and  C_37
   18  A    between atoms: C_33  and  C_43
   19  A    between atoms: C_38  and  C_54
   20  A    between atoms: C_42  and  C_54
   21  A    between atoms: C_43  and  C_45
                            x       y       z     vdW  Elec       q    Type
                         _______ _______ _______ _____ _____    ______ ____

>  <TORSDO>
F 21

$$$$
=
 OpenBabel11052410103D

 54 57  0  0  1  0  0  0  0  0999 V2000
  161.1000  204.6880  145.8570 N   0  0  0  0  0  0  0  0  0  0  0  0
  160.5650  205.9990  146.2340 C   0  0  1  0  0  3  0  0  0  0  0  0
  162.6600  207.1200  147.1310 N   0  0  0  0  0  0  0  0  0  0  0  0
  159.4510  206.5040  148.3820 N   0  0  0  0  0  0  0  0  0  0  0  0
  159.2260  205.8930  147.0510 C   0  0  0  0  0  3  0  0  0  0  0  0
  161.5600  207.6070  149.2130 C   0  0  0  0  0  0  0  0  0  0  0  0
  162.7920  207.7490  148.4230 C   0  0  0  0  0  0  0  0  0  0  0  0
  161.4590  206.6560  147.2020 C   0  0  0  0  0  0  0  0  0  0  0  0
  163.8950  208.2760  148.8430 N   0  0  0  0  0  2  0  0  0  0  0  0
  160.8000  206.9160  148.3910 C   0  0  0  0  0  0  0  0  0  0  0  0
  161.3920  209.5410  150.8060 N   0  0  0  0  0  2  0  0  0  0  0  0
  161.2270  208.1440  150.5350 C   0  0  0  0  0  0  0  0  0  0  0  0
  160.8360  207.3530  151.4290 O   0  0  0  0  0  0  0  0  0  0  0  0
  160.5380  210.7100  155.0450 C   0  0  0  0  0  0  0  0  0  0  0  0
  161.7010  210.3520  154.4930 C   0  0  0  0  0  3  0  0  0  0  0  0
  160.0630  212.2250  151.0190 O   0  0  0  0  0  1  0  0  0  0  0  0
  161.8520  209.8730  153.0990 C   0  0  0  0  0  3  0  0  0  0  0  0
  159.2590  210.5780  154.2790 C   0  0  0  0  0  2  0  0  0  0  0  0
  160.1070  211.3310  152.0860 C   0  0  0  0  0  0  0  0  0  0  0  0
  159.2490  211.5040  153.1030 C   0  0  0  0  0  0  0  0  0  0  0  0
  161.1070  210.2150  152.0380 C   0  0  0  0  0  0  0  0  0  0  0  0
  159.5150  210.4220  157.1650 F   0  0  0  0  0  0  0  0  0  0  0  0
  160.4930  211.1330  156.4890 C   0  0  0  0  0  0  0  0  0  0  0  0
  160.2160  212.4850  156.5950 F   0  0  0  0  0  0  0  0  0  0  0  0
  161.7250  210.8960  157.0800 F   0  0  0  0  0  0  0  0  0  0  0  0
  157.7350  213.1300  154.1820 C   0  0  0  0  0  1  0  0  0  0  0  0
  158.3300  212.5490  153.0320 O   0  0  0  0  0  0  0  0  0  0  0  0
  161.2260  203.6210  146.8050 C   0  0  0  0  0  0  0  0  0  0  0  0
  162.1440  203.7380  147.7670 C   0  0  0  0  0  2  0  0  0  0  0  0
  160.1780  201.3580  147.3710 C   0  0  2  0  0  3  0  0  0  0  0  0
  161.5580  201.1570  146.8940 N   0  0  0  0  0  2  0  0  0  0  0  0
  160.7490  202.2660  146.3460 C   0  0  2  0  0  3  0  0  0  0  0  0
  160.2220  201.8270  148.8240 C   0  0  0  0  0  2  0  0  0  0  0  0
  161.1690  200.9570  149.6530 C   0  0  0  0  0  2  0  0  0  0  0  0
  161.5290  201.5820  151.0050 C   0  0  0  0  0  2  0  0  0  0  0  0
  160.6880  202.8220  151.3020 C   0  0  0  0  0  2  0  0  0  0  0  0
  162.1720  204.6740  151.1440 O   0  0  0  0  0  1  0  0  0  0  0  0
  160.6320  204.6700  152.8220 O   0  0  0  0  0  1  0  0  0  0  0  0
  161.4860  203.8730  152.0550 C   0  0  0  0  0  3  0  0  0  0  0  0
  161.5990  204.5130  144.4970 C   0  0  0  0  0  2  0  0  0  0  0  0
  162.4890  205.6890  144.1070 C   0  0  0  0  0  2  0  0  0  0  0  0
  162.1570  206.1260  142.7440 C   0  0  0  0  0  0  0  0  0  0  0  0
  161.8890  206.5060  141.6300 C   0  0  0  0  0  0  0  0  0  0  0  0
  161.6120  206.9950  140.2750 C   0  0  0  0  0  2  0  0  0  0  0  0
  163.4350  208.5540  140.1950 O   0  0  0  0  0  1  0  0  0  0  0  0
  162.0390  208.4520  140.1380 C   0  0  1  0  0  3  0  0  0  0  0  0
  161.5070  209.1030  138.8500 C   0  0  1  0  0  0  0  0  0  0  0  0
  162.5180  209.8970  138.3130 O   0  0  0  0  0  1  0  0  0  0  0  0
  161.1600  208.0330  137.8150 C   0  0  0  0  0  1  0  0  0  0  0  0
  160.3340  210.0440  139.2040 C   0  0  0  0  0  2  0  0  0  0  0  0
  161.0830  212.2510  138.7090 O   0  0  0  0  0  0  0  0  0  0  0  0
  160.2640  211.3300  138.4410 C   0  0  0  0  0  0  0  0  0  0  0  0
  158.3790  210.4680  137.1160 C   0  0  0  0  0  1  0  0  0  0  0  0
  159.2870  211.5020  137.4580 O   0  0  0  0  0  0  0  0  0  0  0  0
  1 28  1  0  0  0  0
  2  1  1  1  0  0  0
  2  5  1  0  0  0  0
  2  8  1  0  0  0  0
  3  8  2  0  0  0  0
  3  7  1  0  0  0  0
  4 10  1  0  0  0  0
  5  4  2  0  0  0  0
  6 12  1  0  0  0  0
  7  9  2  0  0  0  0
  7  6  1  0  0  0  0
  8 10  1  0  0  0  0
 10  6  2  0  0  0  0
 11 21  1  0  0  0  0
 12 11  1  0  0  0  0
 12 13  2  0  0  0  0
 14 23  1  0  0  0  0
 15 14  2  0  0  0  0
 16 19  1  0  0  0  0
 17 15  1  0  0  0  0
 18 14  1  0  0  0  0
 19 20  2  0  0  0  0
 20 18  1  0  0  0  0
 21 19  1  0  0  0  0
 21 17  2  0  0  0  0
 23 24  1  0  0  0  0
 23 25  1  0  0  0  0
 23 22  1  0  0  0  0
 27 20  1  0  0  0  0
 27 26  1  0  0  0  0
 28 29  2  0  0  0  0
 30 33  1  1  0  0  0
 31 30  1  0  0  0  0
 32 28  1  1  0  0  0
 32 31  1  0  0  0  0
 32 30  1  0  0  0  0
 33 34  1  0  0  0  0
 34 35  1  0  0  0  0
 35 36  1  0  0  0  0
 36 39  1  0  0  0  0
 37 39  1  0  0  0  0
 39 38  1  0  0  0  0
 40  1  1  0  0  0  0
 41 40  1  0  0  0  0
 42 41  1  0  0  0  0
 43 42  3  0  0  0  0
 44 43  1  0  0  0  0
 46 45  1  6  0  0  0
 46 44  1  0  0  0  0
 47 49  1  6  0  0  0
 47 50  1  0  0  0  0
 47 46  1  0  0  0  0
 48 47  1  0  0  0  0
 52 51  2  0  0  0  0
 52 50  1  0  0  0  0
 53 54  1  0  0  0  0
 54 52  1  0  0  0  0
M  END
>  <MODEL>
9

>  <REMARK>
 VINA RESULT:      -0.9      5.210     10.147
  Name = 
  21 active torsions:
  status: ('A' for Active; 'I' for Inactive)
    1  A    between atoms: C_2  and  N_10
    2  A    between atoms: C_2  and  C_41
    3  A    between atoms: N_3  and  C_52
    4  A    between atoms: C_4  and  N_10
    5  A    between atoms: O_6  and  C_50
    6  A    between atoms: O_7  and  C_49
    7  A    between atoms: C_8  and  C_27
    8  A    between atoms: C_9  and  C_35
    9  A    between atoms: C_9  and  C_39
   10  A    between atoms: N_10  and  C_42
   11  A    between atoms: C_13  and  C_25
   12  A    between atoms: C_17  and  C_28
   13  A    between atoms: C_17  and  C_35
   14  A    between atoms: C_25  and  C_45
   15  A    between atoms: C_28  and  C_49
   16  A    between atoms: C_31  and  C_36
   17  A    between atoms: C_33  and  C_37
   18  A    between atoms: C_33  and  C_43
   19  A    between atoms: C_38  and  C_54
   20  A    between atoms: C_42  and  C_54
   21  A    between atoms: C_43  and  C_45
                            x       y       z     vdW  Elec       q    Type
                         _______ _______ _______ _____ _____    ______ ____

>  <TORSDO>
F 21

$$$$
