=
 OpenBabel11052411473D

 40 45  0  0  1  0  0  0  0  0999 V2000
  162.1860  211.6880  148.4340 C   0  0  0  0  0  2  0  0  0  0  0  0
  160.3760  210.8230  152.7920 C   0  0  0  0  0  0  0  0  0  0  0  0
  160.5150  213.7920  146.9570 C   0  0  0  0  0  3  0  0  0  0  0  0
  160.5560  211.5290  151.6910 C   0  0  0  0  0  0  0  0  0  0  0  0
  159.5090  211.6040  153.7330 C   0  0  0  0  0  3  0  0  0  0  0  0
  161.3330  211.1750  150.5540 N   0  0  0  0  0  0  0  0  0  0  0  0
  161.3550  212.0430  149.4120 C   0  0  0  0  0  0  0  0  0  0  0  0
  162.3940  212.3000  147.1960 O   0  0  0  0  0  0  0  0  0  0  0  0
  161.4910  213.0480  146.4340 C   0  0  0  0  0  0  0  0  0  0  0  0
  159.9790  213.8310  150.7380 C   0  0  0  0  0  3  0  0  0  0  0  0
  160.1700  213.9950  148.3630 C   0  0  0  0  0  3  0  0  0  0  0  0
  159.8650  212.7740  151.7840 C   0  0  0  0  0  0  0  0  0  0  0  0
  159.2660  212.8740  152.9590 C   0  0  0  0  0  3  0  0  0  0  0  0
  160.5220  213.2900  149.4330 C   0  0  0  0  0  0  0  0  0  0  0  0
  160.5780  212.7740  144.1290 C   0  0  0  0  0  3  0  0  0  0  0  0
  161.6740  213.0430  144.9630 C   0  0  0  0  0  0  0  0  0  0  0  0
  162.9250  213.3090  144.3760 C   0  0  0  0  0  3  0  0  0  0  0  0
  160.7250  212.7700  142.7390 C   0  0  0  0  0  3  0  0  0  0  0  0
  161.9730  213.0350  142.1680 C   0  0  0  0  0  0  0  0  0  0  0  0
  163.0730  213.3040  142.9860 C   0  0  0  0  0  3  0  0  0  0  0  0
  161.5720  213.0600  139.3650 C   0  0  0  0  0  2  0  0  0  0  0  0
  162.1220  213.0380  140.7520 N   0  0  0  0  0  0  0  0  0  0  0  0
  162.9430  212.9820  139.5060 C   0  0  1  0  0  3  0  0  0  0  0  0
  162.6990  210.9450  138.1140 C   0  0  0  0  0  1  0  0  0  0  0  0
  163.4200  211.5580  139.3000 C   0  0  0  0  0  2  0  0  0  0  0  0
  160.9670  209.4800  153.1000 C   0  0  1  0  0  3  0  0  0  0  0  0
  160.7310  209.1090  154.5530 C   0  0  0  0  0  1  0  0  0  0  0  0
  160.4180  208.5020  152.2660 O   0  0  0  0  0  0  0  0  0  0  0  0
  161.1310  207.3820  152.5300 N   0  0  0  0  0  2  0  0  0  0  0  0
  162.2940  207.4100  151.6540 C   0  0  0  0  0  2  0  0  0  0  0  0
  160.9360  205.5560  150.6190 C   0  0  0  0  0  2  0  0  0  0  0  0
  160.8810  206.8300  148.1270 C   0  0  0  0  0  2  0  0  0  0  0  0
  161.1180  205.3230  148.0640 C   0  0  0  0  0  2  0  0  0  0  0  0
  161.7810  207.4840  149.1820 C   0  0  0  0  0  2  0  0  0  0  0  0
  160.7610  204.6420  149.3950 C   0  0  1  0  0  3  0  0  0  0  0  0
  162.0480  206.5820  150.3980 C   0  0  1  0  0  3  0  0  0  0  0  0
  161.5360  203.4910  149.5490 O   0  0  0  0  0  0  0  0  0  0  0  0
  160.7310  202.6090  150.2740 C   0  0  0  0  0  2  0  0  0  0  0  0
  161.1730  200.8950  148.5480 C   0  0  0  0  0  1  0  0  0  0  0  0
  160.0930  201.6160  149.3270 C   0  0  0  0  0  2  0  0  0  0  0  0
  1  7  1  0  0  0  0
  2 26  1  0  0  0  0
  2  5  1  0  0  0  0
  3 11  1  0  0  0  0
  4 12  1  0  0  0  0
  4  2  2  0  0  0  0
  6  4  1  0  0  0  0
  7 14  1  0  0  0  0
  7  6  2  0  0  0  0
  8  1  1  0  0  0  0
  9  3  2  0  0  0  0
  9  8  1  0  0  0  0
 10 12  2  0  0  0  0
 11 14  2  0  0  0  0
 12 13  1  0  0  0  0
 13  5  2  0  0  0  0
 14 10  1  0  0  0  0
 15 16  1  0  0  0  0
 16  9  1  0  0  0  0
 17 16  2  0  0  0  0
 18 15  2  0  0  0  0
 19 18  1  0  0  0  0
 19 20  2  0  0  0  0
 20 17  1  0  0  0  0
 21 23  1  0  0  0  0
 21 22  1  0  0  0  0
 22 19  1  0  0  0  0
 23 25  1  1  0  0  0
 23 22  1  0  0  0  0
 24 25  1  0  0  0  0
 26 27  1  1  0  0  0
 28 29  1  0  0  0  0
 28 26  1  0  0  0  0
 30 29  1  0  0  0  0
 32 34  1  0  0  0  0
 33 32  1  0  0  0  0
 33 35  1  0  0  0  0
 34 36  1  0  0  0  0
 35 37  1  1  0  0  0
 35 31  1  0  0  0  0
 36 31  1  0  0  0  0
 36 30  1  1  0  0  0
 37 38  1  0  0  0  0
 39 40  1  0  0  0  0
 40 38  1  0  0  0  0
M  END
>  <MODEL>
1

>  <REMARK>
 VINA RESULT:      -7.9      0.000      0.000
  Name = 
  11 active torsions:
  status: ('A' for Active; 'I' for Inactive)
    1  A    between atoms: C_2  and  C_3
    2  A    between atoms: C_3  and  O_24
    3  A    between atoms: N_6  and  O_24
    4  A    between atoms: N_6  and  C_37
    5  A    between atoms: C_11  and  C_18
    6  A    between atoms: C_20  and  C_23
    7  A    between atoms: C_20  and  O_36
    8  A    between atoms: N_21  and  C_34
    9  A    between atoms: C_30  and  C_38
   10  A    between atoms: C_31  and  O_36
   11  A    between atoms: C_35  and  C_37
                            x       y       z     vdW  Elec       q    Type
                         _______ _______ _______ _____ _____    ______ ____

>  <TORSDO>
F 11

$$$$
=
 OpenBabel11052411473D

 40 45  0  0  1  0  0  0  0  0999 V2000
  161.0640  212.9030  149.0340 C   0  0  0  0  0  2  0  0  0  0  0  0
  159.0580  212.6210  153.3820 C   0  0  0  0  0  0  0  0  0  0  0  0
  158.9630  213.5740  146.9050 C   0  0  0  0  0  3  0  0  0  0  0  0
  159.1210  212.9920  152.1170 C   0  0  0  0  0  0  0  0  0  0  0  0
  157.8100  213.1860  153.9920 C   0  0  0  0  0  3  0  0  0  0  0  0
  160.1490  212.6990  151.1800 N   0  0  0  0  0  0  0  0  0  0  0  0
  160.0130  213.1290  149.8190 C   0  0  0  0  0  0  0  0  0  0  0  0
  161.2120  213.1670  147.6710 O   0  0  0  0  0  0  0  0  0  0  0  0
  160.2250  213.2060  146.6810 C   0  0  0  0  0  0  0  0  0  0  0  0
  157.8430  214.4490  150.4500 C   0  0  0  0  0  3  0  0  0  0  0  0
  158.3400  213.9990  148.1570 C   0  0  0  0  0  3  0  0  0  0  0  0
  157.9870  213.7900  151.7790 C   0  0  0  0  0  0  0  0  0  0  0  0
  157.2140  213.9530  152.8400 C   0  0  0  0  0  3  0  0  0  0  0  0
  158.7620  213.8480  149.4080 C   0  0  0  0  0  0  0  0  0  0  0  0
  161.8770  213.3010  144.8150 C   0  0  0  0  0  3  0  0  0  0  0  0
  160.6340  212.8630  145.2980 C   0  0  0  0  0  0  0  0  0  0  0  0
  159.8080  212.0980  144.4540 C   0  0  0  0  0  3  0  0  0  0  0  0
  162.2870  212.9840  143.5160 C   0  0  0  0  0  3  0  0  0  0  0  0
  161.4570  212.2240  142.6870 C   0  0  0  0  0  0  0  0  0  0  0  0
  160.2180  211.7820  143.1550 C   0  0  0  0  0  3  0  0  0  0  0  0
  161.9600  212.1620  139.9020 C   0  0  0  0  0  2  0  0  0  0  0  0
  161.8780  211.8960  141.3680 N   0  0  0  0  0  0  0  0  0  0  0  0
  162.5430  211.0030  140.3730 C   0  0  1  0  0  3  0  0  0  0  0  0
  161.5650  209.5500  138.6190 C   0  0  0  0  0  1  0  0  0  0  0  0
  161.6450  209.8100  140.1110 C   0  0  0  0  0  2  0  0  0  0  0  0
  160.0740  211.8090  154.1280 C   0  0  1  0  0  3  0  0  0  0  0  0
  160.0050  212.0990  155.6170 C   0  0  0  0  0  1  0  0  0  0  0  0
  159.8710  210.4450  153.9010 O   0  0  0  0  0  0  0  0  0  0  0  0
  161.0750  209.9800  153.4910 N   0  0  0  0  0  2  0  0  0  0  0  0
  160.9000  209.5160  152.1220 C   0  0  0  0  0  2  0  0  0  0  0  0
  161.9100  207.4590  151.0730 C   0  0  0  0  0  2  0  0  0  0  0  0
  161.6980  205.9990  153.4510 C   0  0  0  0  0  2  0  0  0  0  0  0
  161.3180  205.2210  152.1940 C   0  0  0  0  0  2  0  0  0  0  0  0
  161.0330  207.3800  153.4640 C   0  0  0  0  0  2  0  0  0  0  0  0
  161.8120  205.9320  150.9230 C   0  0  1  0  0  3  0  0  0  0  0  0
  160.8750  207.9940  152.0640 C   0  0  1  0  0  3  0  0  0  0  0  0
  160.9690  205.6140  149.8570 O   0  0  0  0  0  0  0  0  0  0  0  0
  161.6820  205.9770  148.7120 C   0  0  0  0  0  2  0  0  0  0  0  0
  161.1220  205.7180  146.3190 C   0  0  0  0  0  1  0  0  0  0  0  0
  161.4060  204.9780  147.6090 C   0  0  0  0  0  2  0  0  0  0  0  0
  1  7  1  0  0  0  0
  2  5  1  0  0  0  0
  2 26  1  0  0  0  0
  3 11  1  0  0  0  0
  4  2  2  0  0  0  0
  6  4  1  0  0  0  0
  7  6  2  0  0  0  0
  8  1  1  0  0  0  0
  9  3  2  0  0  0  0
  9  8  1  0  0  0  0
 10 12  2  0  0  0  0
 11 14  2  0  0  0  0
 12  4  1  0  0  0  0
 12 13  1  0  0  0  0
 13  5  2  0  0  0  0
 14  7  1  0  0  0  0
 14 10  1  0  0  0  0
 15 16  1  0  0  0  0
 16  9  1  0  0  0  0
 17 16  2  0  0  0  0
 18 15  2  0  0  0  0
 19 20  2  0  0  0  0
 19 18  1  0  0  0  0
 20 17  1  0  0  0  0
 21 23  1  0  0  0  0
 21 22  1  0  0  0  0
 22 19  1  0  0  0  0
 23 25  1  6  0  0  0
 23 22  1  0  0  0  0
 24 25  1  0  0  0  0
 26 27  1  1  0  0  0
 28 26  1  0  0  0  0
 29 28  1  0  0  0  0
 30 29  1  0  0  0  0
 31 36  1  0  0  0  0
 32 34  1  0  0  0  0
 33 32  1  0  0  0  0
 35 37  1  6  0  0  0
 35 31  1  0  0  0  0
 35 33  1  0  0  0  0
 36 30  1  1  0  0  0
 36 34  1  0  0  0  0
 38 37  1  0  0  0  0
 39 40  1  0  0  0  0
 40 38  1  0  0  0  0
M  END
>  <MODEL>
2

>  <REMARK>
 VINA RESULT:      -7.5      1.734      2.674
  Name = 
  11 active torsions:
  status: ('A' for Active; 'I' for Inactive)
    1  A    between atoms: C_2  and  C_3
    2  A    between atoms: C_3  and  O_24
    3  A    between atoms: N_6  and  O_24
    4  A    between atoms: N_6  and  C_37
    5  A    between atoms: C_11  and  C_18
    6  A    between atoms: C_20  and  C_23
    7  A    between atoms: C_20  and  O_36
    8  A    between atoms: N_21  and  C_34
    9  A    between atoms: C_30  and  C_38
   10  A    between atoms: C_31  and  O_36
   11  A    between atoms: C_35  and  C_37
                            x       y       z     vdW  Elec       q    Type
                         _______ _______ _______ _____ _____    ______ ____

>  <TORSDO>
F 11

$$$$
=
 OpenBabel11052411473D

 40 45  0  0  1  0  0  0  0  0999 V2000
  160.4230  213.7770  147.0480 C   0  0  0  0  0  2  0  0  0  0  0  0
  158.2160  213.6450  151.3050 C   0  0  0  0  0  0  0  0  0  0  0  0
  158.4180  213.3670  144.7660 C   0  0  0  0  0  3  0  0  0  0  0  0
  158.2760  213.7880  149.9940 C   0  0  0  0  0  0  0  0  0  0  0  0
  156.8060  213.8860  151.7550 C   0  0  0  0  0  3  0  0  0  0  0  0
  159.4250  213.6750  149.1640 N   0  0  0  0  0  0  0  0  0  0  0  0
  159.2870  213.7940  147.7410 C   0  0  0  0  0  0  0  0  0  0  0  0
  160.6060  213.8300  145.6640 O   0  0  0  0  0  0  0  0  0  0  0  0
  159.7460  213.3820  144.6570 C   0  0  0  0  0  0  0  0  0  0  0  0
  156.7710  214.4520  148.0370 C   0  0  0  0  0  3  0  0  0  0  0  0
  157.5850  213.7860  145.8920 C   0  0  0  0  0  3  0  0  0  0  0  0
  156.9890  214.1160  149.4730 C   0  0  0  0  0  0  0  0  0  0  0  0
  156.1110  214.2100  150.4580 C   0  0  0  0  0  3  0  0  0  0  0  0
  157.9190  213.9980  147.1600 C   0  0  0  0  0  0  0  0  0  0  0  0
  159.5870  212.9160  142.2110 C   0  0  0  0  0  3  0  0  0  0  0  0
  160.3630  212.9480  143.3800 C   0  0  0  0  0  0  0  0  0  0  0  0
  161.7170  212.5720  143.3070 C   0  0  0  0  0  3  0  0  0  0  0  0
  160.1480  212.5170  140.9940 C   0  0  0  0  0  3  0  0  0  0  0  0
  161.4940  212.1450  140.9350 C   0  0  0  0  0  0  0  0  0  0  0  0
  162.2790  212.1720  142.0900 C   0  0  0  0  0  3  0  0  0  0  0  0
  162.3650  210.7310  138.6420 C   0  0  0  0  0  2  0  0  0  0  0  0
  162.0680  211.7460  139.6950 N   0  0  0  0  0  0  0  0  0  0  0  0
  162.8680  212.0030  138.4610 C   0  0  1  0  0  3  0  0  0  0  0  0
  164.8370  213.4830  138.7450 C   0  0  0  0  0  1  0  0  0  0  0  0
  164.3370  212.0540  138.8340 C   0  0  0  0  0  2  0  0  0  0  0  0
  159.3590  213.3390  152.2250 C   0  0  1  0  0  3  0  0  0  0  0  0
  158.8520  212.8190  153.5580 C   0  0  0  0  0  1  0  0  0  0  0  0
  160.2150  212.3990  151.6450 O   0  0  0  0  0  0  0  0  0  0  0  0
  160.1220  211.3080  152.4410 N   0  0  0  0  0  2  0  0  0  0  0  0
  161.0240  210.3080  151.8890 C   0  0  0  0  0  2  0  0  0  0  0  0
  161.8260  207.9250  152.0620 C   0  0  0  0  0  2  0  0  0  0  0  0
  161.2600  207.8110  154.8010 C   0  0  0  0  0  2  0  0  0  0  0  0
  160.8690  206.5580  154.0200 C   0  0  0  0  0  2  0  0  0  0  0  0
  160.7830  209.0770  154.0810 C   0  0  0  0  0  2  0  0  0  0  0  0
  161.5390  206.5280  152.6360 C   0  0  1  0  0  3  0  0  0  0  0  0
  160.8030  208.9530  152.5490 C   0  0  1  0  0  3  0  0  0  0  0  0
  160.7370  205.8070  151.7500 O   0  0  0  0  0  0  0  0  0  0  0  0
  161.4810  205.7310  150.5700 C   0  0  0  0  0  2  0  0  0  0  0  0
  161.3780  205.2610  148.1460 C   0  0  0  0  0  1  0  0  0  0  0  0
  160.5660  205.3730  149.4190 C   0  0  0  0  0  2  0  0  0  0  0  0
  1  7  1  0  0  0  0
  2  5  1  0  0  0  0
  2 26  1  0  0  0  0
  3 11  1  0  0  0  0
  4  2  2  0  0  0  0
  6  4  1  0  0  0  0
  7  6  2  0  0  0  0
  8  1  1  0  0  0  0
  9  3  2  0  0  0  0
  9  8  1  0  0  0  0
 10 12  2  0  0  0  0
 11 14  2  0  0  0  0
 12  4  1  0  0  0  0
 12 13  1  0  0  0  0
 13  5  2  0  0  0  0
 14  7  1  0  0  0  0
 14 10  1  0  0  0  0
 15 16  1  0  0  0  0
 16  9  1  0  0  0  0
 17 16  2  0  0  0  0
 18 15  2  0  0  0  0
 19 18  1  0  0  0  0
 19 20  2  0  0  0  0
 20 17  1  0  0  0  0
 21 22  1  0  0  0  0
 22 19  1  0  0  0  0
 23 21  1  0  0  0  0
 23 25  1  1  0  0  0
 23 22  1  0  0  0  0
 24 25  1  0  0  0  0
 26 27  1  1  0  0  0
 28 26  1  0  0  0  0
 28 29  1  0  0  0  0
 30 29  1  0  0  0  0
 31 36  1  0  0  0  0
 31 35  1  0  0  0  0
 33 32  1  0  0  0  0
 34 32  1  0  0  0  0
 35 37  1  6  0  0  0
 35 33  1  0  0  0  0
 36 30  1  6  0  0  0
 36 34  1  0  0  0  0
 38 37  1  0  0  0  0
 39 40  1  0  0  0  0
 40 38  1  0  0  0  0
M  END
>  <MODEL>
3

>  <REMARK>
 VINA RESULT:      -6.7      2.014      3.534
  Name = 
  11 active torsions:
  status: ('A' for Active; 'I' for Inactive)
    1  A    between atoms: C_2  and  C_3
    2  A    between atoms: C_3  and  O_24
    3  A    between atoms: N_6  and  O_24
    4  A    between atoms: N_6  and  C_37
    5  A    between atoms: C_11  and  C_18
    6  A    between atoms: C_20  and  C_23
    7  A    between atoms: C_20  and  O_36
    8  A    between atoms: N_21  and  C_34
    9  A    between atoms: C_30  and  C_38
   10  A    between atoms: C_31  and  O_36
   11  A    between atoms: C_35  and  C_37
                            x       y       z     vdW  Elec       q    Type
                         _______ _______ _______ _____ _____    ______ ____

>  <TORSDO>
F 11

$$$$
=
 OpenBabel11052411473D

 40 45  0  0  1  0  0  0  0  0999 V2000
  161.5030  207.1530  149.2210 C   0  0  0  0  0  2  0  0  0  0  0  0
  160.8440  204.2460  145.4610 C   0  0  0  0  0  0  0  0  0  0  0  0
  160.9710  205.6710  151.8500 C   0  0  0  0  0  3  0  0  0  0  0  0
  161.0690  204.5240  146.7310 C   0  0  0  0  0  0  0  0  0  0  0  0
  160.8760  202.7590  145.2770 C   0  0  0  0  0  3  0  0  0  0  0  0
  161.1520  205.8100  147.3340 N   0  0  0  0  0  0  0  0  0  0  0  0
  161.3340  205.9180  148.7530 C   0  0  0  0  0  0  0  0  0  0  0  0
  161.6590  207.5750  150.5420 O   0  0  0  0  0  0  0  0  0  0  0  0
  161.1630  206.9820  151.7080 C   0  0  0  0  0  0  0  0  0  0  0  0
  161.6460  203.3240  148.9140 C   0  0  0  0  0  3  0  0  0  0  0  0
  161.2150  204.5980  150.8880 C   0  0  0  0  0  3  0  0  0  0  0  0
  161.2590  203.3210  147.4750 C   0  0  0  0  0  0  0  0  0  0  0  0
  161.1830  202.2740  146.6700 C   0  0  0  0  0  3  0  0  0  0  0  0
  161.3950  204.6630  149.5740 C   0  0  0  0  0  0  0  0  0  0  0  0
  160.5180  209.2090  152.6290 C   0  0  0  0  0  3  0  0  0  0  0  0
  160.8860  207.8740  152.8590 C   0  0  0  0  0  0  0  0  0  0  0  0
  160.9760  207.4140  154.1860 C   0  0  0  0  0  3  0  0  0  0  0  0
  160.2450  210.0670  153.6990 C   0  0  0  0  0  3  0  0  0  0  0  0
  160.3390  209.5980  155.0120 C   0  0  0  0  0  0  0  0  0  0  0  0
  160.7040  208.2710  155.2560 C   0  0  0  0  0  3  0  0  0  0  0  0
  159.1960  210.9440  157.2250 C   0  0  0  0  0  2  0  0  0  0  0  0
  160.0550  210.4690  156.1010 N   0  0  0  0  0  0  0  0  0  0  0  0
  160.3640  211.6370  156.9790 C   0  0  1  0  0  3  0  0  0  0  0  0
  160.1150  214.0960  157.1600 C   0  0  0  0  0  1  0  0  0  0  0  0
  160.0750  212.9130  156.2130 C   0  0  0  0  0  2  0  0  0  0  0  0
  160.6340  205.2340  144.3530 C   0  0  1  0  0  3  0  0  0  0  0  0
  160.1570  206.5660  144.9030 C   0  0  0  0  0  1  0  0  0  0  0  0
  161.8160  205.4160  143.6300 O   0  0  0  0  0  0  0  0  0  0  0  0
  161.4140  205.6140  142.3530 N   0  0  0  0  0  2  0  0  0  0  0  0
  162.3460  206.5640  141.7630 C   0  0  0  0  0  2  0  0  0  0  0  0
  162.2090  208.5640  140.2350 C   0  0  0  0  0  2  0  0  0  0  0  0
  162.3680  206.9690  137.9400 C   0  0  0  0  0  2  0  0  0  0  0  0
  161.3490  208.1020  137.8550 C   0  0  0  0  0  2  0  0  0  0  0  0
  162.2350  206.2080  139.2640 C   0  0  0  0  0  2  0  0  0  0  0  0
  161.5760  209.1460  138.9600 C   0  0  1  0  0  3  0  0  0  0  0  0
  161.8110  207.1010  140.4410 C   0  0  1  0  0  3  0  0  0  0  0  0
  160.3620  209.7620  139.2720 O   0  0  0  0  0  0  0  0  0  0  0  0
  159.5270  209.4800  138.1890 C   0  0  0  0  0  2  0  0  0  0  0  0
  157.1800  209.4870  137.4140 C   0  0  0  0  0  1  0  0  0  0  0  0
  158.0810  209.5890  138.6260 C   0  0  0  0  0  2  0  0  0  0  0  0
  1  8  1  0  0  0  0
  2  4  2  0  0  0  0
  4  6  1  0  0  0  0
  4 12  1  0  0  0  0
  5  2  1  0  0  0  0
  5 13  2  0  0  0  0
  6  7  2  0  0  0  0
  7  1  1  0  0  0  0
  7 14  1  0  0  0  0
  8  9  1  0  0  0  0
  9  3  2  0  0  0  0
  9 16  1  0  0  0  0
 10 14  1  0  0  0  0
 11  3  1  0  0  0  0
 12 10  2  0  0  0  0
 13 12  1  0  0  0  0
 14 11  2  0  0  0  0
 15 16  2  0  0  0  0
 15 18  1  0  0  0  0
 16 17  1  0  0  0  0
 17 20  2  0  0  0  0
 18 19  2  0  0  0  0
 19 20  1  0  0  0  0
 19 22  1  0  0  0  0
 22 23  1  0  0  0  0
 22 21  1  0  0  0  0
 23 25  1  6  0  0  0
 23 21  1  0  0  0  0
 25 24  1  0  0  0  0
 26 27  1  1  0  0  0
 26  2  1  0  0  0  0
 28 26  1  0  0  0  0
 29 28  1  0  0  0  0
 30 29  1  0  0  0  0
 31 36  1  0  0  0  0
 32 34  1  0  0  0  0
 33 32  1  0  0  0  0
 33 35  1  0  0  0  0
 34 36  1  0  0  0  0
 35 37  1  1  0  0  0
 35 31  1  0  0  0  0
 36 30  1  1  0  0  0
 38 40  1  0  0  0  0
 38 37  1  0  0  0  0
 39 40  1  0  0  0  0
M  END
>  <MODEL>
4

>  <REMARK>
 VINA RESULT:      -6.1      4.171     11.638
  Name = 
  11 active torsions:
  status: ('A' for Active; 'I' for Inactive)
    1  A    between atoms: C_2  and  C_3
    2  A    between atoms: C_3  and  O_24
    3  A    between atoms: N_6  and  O_24
    4  A    between atoms: N_6  and  C_37
    5  A    between atoms: C_11  and  C_18
    6  A    between atoms: C_20  and  C_23
    7  A    between atoms: C_20  and  O_36
    8  A    between atoms: N_21  and  C_34
    9  A    between atoms: C_30  and  C_38
   10  A    between atoms: C_31  and  O_36
   11  A    between atoms: C_35  and  C_37
                            x       y       z     vdW  Elec       q    Type
                         _______ _______ _______ _____ _____    ______ ____

>  <TORSDO>
F 11

$$$$
=
 OpenBabel11052411473D

 40 45  0  0  1  0  0  0  0  0999 V2000
  160.8870  208.5680  151.3850 C   0  0  0  0  0  2  0  0  0  0  0  0
  159.7280  213.1790  152.0280 C   0  0  0  0  0  0  0  0  0  0  0  0
  161.7430  208.0530  148.4880 C   0  0  0  0  0  3  0  0  0  0  0  0
  160.3090  212.1680  151.4100 C   0  0  0  0  0  0  0  0  0  0  0  0
  160.0860  214.4510  151.3210 C   0  0  0  0  0  3  0  0  0  0  0  0
  160.2560  210.7910  151.7650 N   0  0  0  0  0  0  0  0  0  0  0  0
  160.8970  209.8180  150.9280 C   0  0  0  0  0  0  0  0  0  0  0  0
  161.3860  207.4110  150.7840 O   0  0  0  0  0  0  0  0  0  0  0  0
  161.5150  207.1280  149.4200 C   0  0  0  0  0  0  0  0  0  0  0  0
  161.9240  211.7380  149.4750 C   0  0  0  0  0  3  0  0  0  0  0  0
  161.9040  209.4970  148.6480 C   0  0  0  0  0  3  0  0  0  0  0  0
  161.0640  212.6380  150.2950 C   0  0  0  0  0  0  0  0  0  0  0  0
  160.9870  213.9570  150.2190 C   0  0  0  0  0  3  0  0  0  0  0  0
  161.5780  210.2770  149.6720 C   0  0  0  0  0  0  0  0  0  0  0  0
  160.8670  204.7630  149.8800 C   0  0  0  0  0  3  0  0  0  0  0  0
  161.4410  205.7050  149.0120 C   0  0  0  0  0  0  0  0  0  0  0  0
  161.9270  205.2700  147.7640 C   0  0  0  0  0  3  0  0  0  0  0  0
  160.7800  203.4170  149.5140 C   0  0  0  0  0  3  0  0  0  0  0  0
  161.2670  202.9980  148.2720 C   0  0  0  0  0  0  0  0  0  0  0  0
  161.8410  203.9240  147.3980 C   0  0  0  0  0  3  0  0  0  0  0  0
  161.6700  200.2210  147.8920 C   0  0  0  0  0  2  0  0  0  0  0  0
  161.1730  201.6280  147.8970 N   0  0  0  0  0  0  0  0  0  0  0  0
  160.5250  200.4940  147.1730 C   0  0  1  0  0  3  0  0  0  0  0  0
  159.7760  201.4540  145.0130 C   0  0  0  0  0  1  0  0  0  0  0  0
  160.8400  200.6160  145.6950 C   0  0  0  0  0  2  0  0  0  0  0  0
  158.8820  213.1050  153.2640 C   0  0  1  0  0  3  0  0  0  0  0  0
  157.8260  212.0210  153.1290 C   0  0  0  0  0  1  0  0  0  0  0  0
  159.6760  212.8550  154.3860 O   0  0  0  0  0  0  0  0  0  0  0  0
  158.8280  212.3290  155.3000 N   0  0  0  0  0  2  0  0  0  0  0  0
  159.5510  212.2800  156.5630 C   0  0  0  0  0  2  0  0  0  0  0  0
  160.2090  210.1250  155.4350 C   0  0  0  0  0  2  0  0  0  0  0  0
  162.7090  210.0930  156.6940 C   0  0  0  0  0  2  0  0  0  0  0  0
  162.0120  208.7360  156.6330 C   0  0  0  0  0  2  0  0  0  0  0  0
  161.7440  211.1840  157.1710 C   0  0  0  0  0  2  0  0  0  0  0  0
  160.8570  208.7430  155.6180 C   0  0  1  0  0  3  0  0  0  0  0  0
  160.2930  210.9580  156.7150 C   0  0  1  0  0  3  0  0  0  0  0  0
  159.8900  207.8140  156.0100 O   0  0  0  0  0  0  0  0  0  0  0  0
  160.3610  206.5850  155.5430 C   0  0  0  0  0  2  0  0  0  0  0  0
  161.2080  205.4900  153.4960 C   0  0  0  0  0  1  0  0  0  0  0  0
  161.1300  206.7960  154.2570 C   0  0  0  0  0  2  0  0  0  0  0  0
  2 26  1  0  0  0  0
  3 11  1  0  0  0  0
  3  9  2  0  0  0  0
  4  6  1  0  0  0  0
  4  2  2  0  0  0  0
  5  2  1  0  0  0  0
  7  1  1  0  0  0  0
  7  6  2  0  0  0  0
  8  1  1  0  0  0  0
  9  8  1  0  0  0  0
 10 14  1  0  0  0  0
 10 12  2  0  0  0  0
 11 14  2  0  0  0  0
 12  4  1  0  0  0  0
 13 12  1  0  0  0  0
 13  5  2  0  0  0  0
 14  7  1  0  0  0  0
 16  9  1  0  0  0  0
 16 15  2  0  0  0  0
 17 16  1  0  0  0  0
 18 15  1  0  0  0  0
 19 18  2  0  0  0  0
 20 17  2  0  0  0  0
 20 19  1  0  0  0  0
 21 22  1  0  0  0  0
 22 19  1  0  0  0  0
 23 25  1  6  0  0  0
 23 21  1  0  0  0  0
 23 22  1  0  0  0  0
 24 25  1  0  0  0  0
 26 27  1  6  0  0  0
 26 28  1  0  0  0  0
 28 29  1  0  0  0  0
 29 30  1  0  0  0  0
 31 35  1  0  0  0  0
 31 36  1  0  0  0  0
 32 34  1  0  0  0  0
 33 32  1  0  0  0  0
 35 37  1  1  0  0  0
 35 33  1  0  0  0  0
 36 30  1  6  0  0  0
 36 34  1  0  0  0  0
 38 37  1  0  0  0  0
 39 40  1  0  0  0  0
 40 38  1  0  0  0  0
M  END
>  <MODEL>
5

>  <REMARK>
 VINA RESULT:      -5.2      4.734      8.030
  Name = 
  11 active torsions:
  status: ('A' for Active; 'I' for Inactive)
    1  A    between atoms: C_2  and  C_3
    2  A    between atoms: C_3  and  O_24
    3  A    between atoms: N_6  and  O_24
    4  A    between atoms: N_6  and  C_37
    5  A    between atoms: C_11  and  C_18
    6  A    between atoms: C_20  and  C_23
    7  A    between atoms: C_20  and  O_36
    8  A    between atoms: N_21  and  C_34
    9  A    between atoms: C_30  and  C_38
   10  A    between atoms: C_31  and  O_36
   11  A    between atoms: C_35  and  C_37
                            x       y       z     vdW  Elec       q    Type
                         _______ _______ _______ _____ _____    ______ ____

>  <TORSDO>
F 11

$$$$
