=
 OpenBabel11052410073D

 54 61  0  0  1  0  0  0  0  0999 V2000
  160.8690  214.3690  146.6880 N   0  0  0  0  0  0  0  0  0  0  0  0
  160.8540  211.9610  146.8380 C   0  0  0  0  0  0  0  0  0  0  0  0
  161.4930  207.9670  152.7860 C   0  0  2  0  0  3  0  0  0  0  0  0
  161.0210  214.4530  148.0860 N   0  0  0  0  0  2  0  0  0  0  0  0
  160.7030  205.6790  146.5870 C   0  0  0  0  0  2  0  0  0  0  0  0
  161.9670  209.3320  152.2410 C   0  0  0  0  0  2  0  0  0  0  0  0
  160.6740  210.7050  146.2350 C   0  0  0  0  0  3  0  0  0  0  0  0
  160.8050  209.5260  146.9770 C   0  0  0  0  0  0  0  0  0  0  0  0
  161.3280  207.0370  146.9900 C   0  0  2  0  0  3  0  0  0  0  0  0
  161.2540  210.9280  150.4260 C   0  0  0  0  0  0  0  0  0  0  0  0
  160.5420  205.1210  149.1150 C   0  0  2  0  0  3  0  0  0  0  0  0
  160.8810  204.5950  147.6770 C   0  0  2  0  0  3  0  0  0  0  0  0
  161.0540  205.2900  151.9310 S   0  0  0  0  0  0  0  0  0  0  0  0
  161.3270  207.1410  148.5160 C   0  0  2  0  0  3  0  0  0  0  0  0
  160.7650  213.2390  146.0620 C   0  0  0  0  0  0  0  0  0  0  0  0
  161.3870  212.3860  152.5070 C   0  0  0  0  0  1  0  0  0  0  0  0
  161.1490  213.2710  148.8660 C   0  0  0  0  0  0  0  0  0  0  0  0
  161.1180  209.5990  148.3420 C   0  0  0  0  0  0  0  0  0  0  0  0
  160.2110  206.4930  149.0770 O   0  0  0  0  0  0  0  0  0  0  0  0
  161.3030  213.3580  150.2480 C   0  0  0  0  0  3  0  0  0  0  0  0
  160.5570  208.1910  146.3180 C   0  0  0  0  0  2  0  0  0  0  0  0
  161.1370  207.0790  151.5920 C   0  0  0  0  0  2  0  0  0  0  0  0
  161.0870  209.7690  151.2000 O   0  0  0  0  0  0  0  0  0  0  0  0
  161.5840  204.8110  150.2240 C   0  0  0  0  0  2  0  0  0  0  0  0
  160.6850  213.2870  144.6280 N   0  0  0  0  0  2  0  0  0  0  0  0
  161.1590  210.8410  149.0040 C   0  0  0  0  0  0  0  0  0  0  0  0
  161.4670  208.4470  149.0330 O   0  0  0  0  0  0  0  0  0  0  0  0
  161.3670  212.1980  151.0270 C   0  0  0  0  0  0  0  0  0  0  0  0
  161.0670  212.0240  148.2330 C   0  0  0  0  0  0  0  0  0  0  0  0
  161.2660  212.2690  142.5820 C   0  0  0  0  0  0  0  0  0  0  0  0
  161.4680  211.0430  141.7800 C   0  0  0  0  0  3  0  0  0  0  0  0
  160.8300  212.1640  143.8000 N   0  0  0  0  0  0  0  0  0  0  0  0
  162.6480  212.3620  140.0560 C   0  0  0  0  0  2  0  0  0  0  0  0
  162.0770  211.0860  140.5890 C   0  0  0  0  0  3  0  0  0  0  0  0
  161.6790  213.6100  142.0140 C   0  0  0  0  0  2  0  0  0  0  0  0
  161.7700  213.5490  140.4820 C   0  0  0  0  0  2  0  0  0  0  0  0
  162.1600  203.8280  147.5410 C   0  0  0  0  0  0  0  0  0  0  0  0
  163.1780  204.3500  146.9970 O   0  0  0  0  0  0  0  0  0  0  0  0
  162.2350  202.5460  148.1060 O   0  0  0  0  0  0  0  0  0  0  0  0
  161.2400  200.7610  149.1970 O   0  0  0  0  0  1  0  0  0  0  0  0
  161.1230  201.6460  148.1230 C   0  0  2  0  0  3  0  0  0  0  0  0
  160.8390  201.7570  145.6800 N   0  0  0  0  0  1  0  0  0  0  0  0
  161.0160  200.8590  146.8170 C   0  0  0  0  0  2  0  0  0  0  0  0
  160.2510  208.1860  153.6410 C   0  0  0  0  0  2  0  0  0  0  0  0
  159.3720  209.8110  155.4280 C   0  0  0  0  0  0  0  0  0  0  0  0
  161.1510  212.4220  157.2290 O   0  0  0  0  0  0  0  0  0  0  0  0
  158.1930  209.4190  155.1930 O   0  0  0  0  0  0  0  0  0  0  0  0
  160.9460  211.3600  156.5780 C   0  0  0  0  0  0  0  0  0  0  0  0
  158.4720  211.5860  156.9560 C   0  0  0  0  0  1  0  0  0  0  0  0
  162.1240  210.5540  156.0910 C   0  0  2  0  0  3  0  0  0  0  0  0
  159.6020  210.9050  156.3350 N   0  0  0  0  0  0  0  0  0  0  0  0
  160.5090  209.1820  154.7290 C   0  0  0  0  0  0  0  0  0  0  0  0
  161.7670  209.5590  155.0130 C   0  0  0  0  0  3  0  0  0  0  0  0
  162.7850  209.8410  157.2610 C   0  0  0  0  0  1  0  0  0  0  0  0
  1  4  1  0  0  0  0
  2 29  1  0  0  0  0
  3 44  1  1  0  0  0
  4 17  1  0  0  0  0
  5  9  1  0  0  0  0
  5 12  1  0  0  0  0
  6  3  1  0  0  0  0
  7  2  2  0  0  0  0
  7  8  1  0  0  0  0
  8 18  2  0  0  0  0
  9 21  1  6  0  0  0
  9 14  1  0  0  0  0
 10 28  1  0  0  0  0
 10 23  1  0  0  0  0
 11 24  1  1  0  0  0
 12 37  1  1  0  0  0
 12 11  1  0  0  0  0
 14 27  1  6  0  0  0
 14 19  1  0  0  0  0
 15  1  2  0  0  0  0
 15  2  1  0  0  0  0
 17 20  1  0  0  0  0
 18 26  1  0  0  0  0
 18 27  1  0  0  0  0
 19 11  1  0  0  0  0
 20 28  2  0  0  0  0
 21  8  1  0  0  0  0
 22 13  1  0  0  0  0
 22  3  1  0  0  0  0
 23  6  1  0  0  0  0
 24 13  1  0  0  0  0
 25 15  1  0  0  0  0
 26 10  2  0  0  0  0
 28 16  1  0  0  0  0
 29 17  2  0  0  0  0
 29 26  1  0  0  0  0
 30 32  2  0  0  0  0
 31 30  1  0  0  0  0
 32 25  1  0  0  0  0
 33 36  1  0  0  0  0
 33 34  1  0  0  0  0
 34 31  2  0  0  0  0
 35 30  1  0  0  0  0
 36 35  1  0  0  0  0
 37 39  1  0  0  0  0
 38 37  2  0  0  0  0
 39 41  1  0  0  0  0
 41 40  1  1  0  0  0
 42 43  1  0  0  0  0
 43 41  1  0  0  0  0
 44 52  1  0  0  0  0
 45 51  1  0  0  0  0
 47 45  2  0  0  0  0
 48 46  2  0  0  0  0
 50 48  1  0  0  0  0
 50 54  1  1  0  0  0
 51 48  1  0  0  0  0
 51 49  1  0  0  0  0
 52 53  2  0  0  0  0
 52 45  1  0  0  0  0
 53 50  1  0  0  0  0
M  END
>  <MODEL>
1

>  <REMARK>
 VINA RESULT:       6.8      0.000      0.000
  Name = 
  7 active torsions:
  status: ('A' for Active; 'I' for Inactive)
    1  A    between atoms: C_4  and  C_45
    2  A    between atoms: C_10  and  C_15
    3  A    between atoms: N_11  and  N_46
    4  A    between atoms: C_14  and  C_23
    5  A    between atoms: C_14  and  O_42
    6  A    between atoms: C_15  and  O_42
    7  A    between atoms: C_45  and  C_47
                            x       y       z     vdW  Elec       q    Type
                         _______ _______ _______ _____ _____    ______ ____

>  <TORSDO>
F 7

$$$$
=
 OpenBabel11052410073D

 54 61  0  0  1  0  0  0  0  0999 V2000
  159.9040  212.1490  156.7940 N   0  0  0  0  0  0  0  0  0  0  0  0
  160.6950  211.0410  154.8020 C   0  0  0  0  0  0  0  0  0  0  0  0
  158.6750  212.3200  148.0180 C   0  0  2  0  0  3  0  0  0  0  0  0
  159.0660  212.9620  156.0070 N   0  0  0  0  0  2  0  0  0  0  0  0
  163.1630  207.8220  149.9970 C   0  0  0  0  0  2  0  0  0  0  0  0
  158.0820  212.3830  149.4420 C   0  0  0  0  0  2  0  0  0  0  0  0
  161.5790  210.1470  154.1760 C   0  0  0  0  0  3  0  0  0  0  0  0
  161.5270  209.9340  152.7950 C   0  0  0  0  0  0  0  0  0  0  0  0
  161.9870  208.3740  150.8380 C   0  0  2  0  0  3  0  0  0  0  0  0
  158.9780  212.4950  151.7960 C   0  0  0  0  0  0  0  0  0  0  0  0
  162.2450  209.2000  148.0000 C   0  0  2  0  0  3  0  0  0  0  0  0
  162.8690  207.8420  148.4770 C   0  0  2  0  0  3  0  0  0  0  0  0
  160.3920  210.7130  146.4190 S   0  0  0  0  0  0  0  0  0  0  0  0
  161.1990  209.3690  149.9830 C   0  0  2  0  0  3  0  0  0  0  0  0
  160.6940  211.2580  156.2850 C   0  0  0  0  0  0  0  0  0  0  0  0
  157.3320  214.4320  151.6730 C   0  0  0  0  0  1  0  0  0  0  0  0
  158.9990  212.7720  154.5990 C   0  0  0  0  0  0  0  0  0  0  0  0
  160.5810  210.6230  152.0230 C   0  0  0  0  0  0  0  0  0  0  0  0
  162.0410  210.0660  149.0960 O   0  0  0  0  0  0  0  0  0  0  0  0
  158.1650  213.5770  153.8230 C   0  0  0  0  0  3  0  0  0  0  0  0
  162.5220  209.0060  152.1390 C   0  0  0  0  0  2  0  0  0  0  0  0
  159.8590  211.3520  148.0400 C   0  0  0  0  0  2  0  0  0  0  0  0
  159.1400  212.4920  150.4020 O   0  0  0  0  0  0  0  0  0  0  0  0
  160.9800  209.0980  147.1040 C   0  0  0  0  0  2  0  0  0  0  0  0
  161.4470  210.4460  157.2000 N   0  0  0  0  0  2  0  0  0  0  0  0
  159.7830  211.6310  152.5980 C   0  0  0  0  0  0  0  0  0  0  0  0
  160.3720  210.2600  150.7000 O   0  0  0  0  0  0  0  0  0  0  0  0
  158.1420  213.4360  152.4320 C   0  0  0  0  0  0  0  0  0  0  0  0
  159.8160  211.8050  154.0010 C   0  0  0  0  0  0  0  0  0  0  0  0
  161.5360  208.2990  156.2290 C   0  0  0  0  0  0  0  0  0  0  0  0
  162.3280  207.1280  155.7930 C   0  0  0  0  0  3  0  0  0  0  0  0
  162.1360  209.2820  156.8260 N   0  0  0  0  0  0  0  0  0  0  0  0
  160.3910  206.2930  154.5070 C   0  0  0  0  0  2  0  0  0  0  0  0
  161.7900  206.1750  155.0230 C   0  0  0  0  0  3  0  0  0  0  0  0
  160.0680  208.3830  155.8690 C   0  0  0  0  0  2  0  0  0  0  0  0
  159.5040  206.9910  155.5490 C   0  0  0  0  0  2  0  0  0  0  0  0
  162.1890  206.5990  147.9930 C   0  0  0  0  0  0  0  0  0  0  0  0
  161.4870  205.8920  148.7750 O   0  0  0  0  0  0  0  0  0  0  0  0
  162.2760  206.2770  146.6300 O   0  0  0  0  0  0  0  0  0  0  0  0
  163.5560  205.0810  145.1140 O   0  0  0  0  0  1  0  0  0  0  0  0
  162.6460  204.9740  146.1680 C   0  0  2  0  0  3  0  0  0  0  0  0
  160.4870  205.0160  144.9860 N   0  0  0  0  0  1  0  0  0  0  0  0
  161.4270  204.1700  145.7160 C   0  0  0  0  0  2  0  0  0  0  0  0
  159.1650  213.7100  147.6300 C   0  0  0  0  0  2  0  0  0  0  0  0
  161.2800  213.7620  146.1700 C   0  0  0  0  0  0  0  0  0  0  0  0
  161.5890  214.3800  142.5990 O   0  0  0  0  0  0  0  0  0  0  0  0
  161.9920  213.6980  147.2130 O   0  0  0  0  0  0  0  0  0  0  0  0
  161.0780  214.0440  143.7040 C   0  0  0  0  0  0  0  0  0  0  0  0
  163.3460  214.0990  144.7870 C   0  0  0  0  0  1  0  0  0  0  0  0
  159.6090  213.7080  143.7680 C   0  0  2  0  0  3  0  0  0  0  0  0
  161.8980  213.9480  144.8840 N   0  0  0  0  0  0  0  0  0  0  0  0
  159.8090  213.7010  146.2780 C   0  0  0  0  0  0  0  0  0  0  0  0
  159.0510  213.7170  145.1700 C   0  0  0  0  0  3  0  0  0  0  0  0
  159.3560  212.3580  143.1130 C   0  0  0  0  0  1  0  0  0  0  0  0
  2 15  1  0  0  0  0
  3 44  1  1  0  0  0
  3 22  1  0  0  0  0
  3  6  1  0  0  0  0
  4  1  1  0  0  0  0
  6 23  1  0  0  0  0
  7  2  1  0  0  0  0
  8  7  2  0  0  0  0
  9  5  1  6  0  0  0
  9 21  1  0  0  0  0
 10 28  2  0  0  0  0
 10 26  1  0  0  0  0
 11 24  1  1  0  0  0
 11 12  1  0  0  0  0
 11 19  1  0  0  0  0
 12 37  1  1  0  0  0
 12  5  1  0  0  0  0
 13 24  1  0  0  0  0
 13 22  1  0  0  0  0
 14 19  1  1  0  0  0
 14 27  1  0  0  0  0
 14  9  1  0  0  0  0
 15  1  2  0  0  0  0
 15 25  1  0  0  0  0
 16 28  1  0  0  0  0
 17  4  1  0  0  0  0
 18 26  2  0  0  0  0
 18  8  1  0  0  0  0
 20 17  2  0  0  0  0
 21  8  1  0  0  0  0
 23 10  1  0  0  0  0
 26 29  1  0  0  0  0
 27 18  1  0  0  0  0
 28 20  1  0  0  0  0
 29 17  1  0  0  0  0
 29  2  2  0  0  0  0
 30 32  2  0  0  0  0
 31 30  1  0  0  0  0
 32 25  1  0  0  0  0
 33 34  1  0  0  0  0
 33 36  1  0  0  0  0
 34 31  2  0  0  0  0
 35 30  1  0  0  0  0
 36 35  1  0  0  0  0
 37 38  2  0  0  0  0
 39 37  1  0  0  0  0
 41 40  1  6  0  0  0
 41 39  1  0  0  0  0
 42 43  1  0  0  0  0
 43 41  1  0  0  0  0
 45 52  1  0  0  0  0
 45 47  2  0  0  0  0
 46 48  2  0  0  0  0
 48 50  1  0  0  0  0
 48 51  1  0  0  0  0
 49 51  1  0  0  0  0
 50 54  1  1  0  0  0
 50 53  1  0  0  0  0
 51 45  1  0  0  0  0
 52 44  1  0  0  0  0
 53 52  2  0  0  0  0
M  END
>  <MODEL>
2

>  <REMARK>
 VINA RESULT:       8.7      2.754      9.044
  Name = 
  7 active torsions:
  status: ('A' for Active; 'I' for Inactive)
    1  A    between atoms: C_4  and  C_45
    2  A    between atoms: C_10  and  C_15
    3  A    between atoms: N_11  and  N_46
    4  A    between atoms: C_14  and  C_23
    5  A    between atoms: C_14  and  O_42
    6  A    between atoms: C_15  and  O_42
    7  A    between atoms: C_45  and  C_47
                            x       y       z     vdW  Elec       q    Type
                         _______ _______ _______ _____ _____    ______ ____

>  <TORSDO>
F 7

$$$$
=
 OpenBabel11052410073D

 54 61  0  0  1  0  0  0  0  0999 V2000
  162.0110  203.6430  151.0150 N   0  0  0  0  0  0  0  0  0  0  0  0
  161.8510  205.9500  150.3280 C   0  0  0  0  0  0  0  0  0  0  0  0
  159.1910  211.4480  154.1300 C   0  0  2  0  0  3  0  0  0  0  0  0
  161.4380  203.9750  152.2590 N   0  0  0  0  0  2  0  0  0  0  0  0
  161.7370  211.7870  147.9900 C   0  0  0  0  0  2  0  0  0  0  0  0
  158.9820  209.9250  153.9790 C   0  0  0  0  0  2  0  0  0  0  0  0
  162.1400  206.9680  149.4050 C   0  0  0  0  0  3  0  0  0  0  0  0
  161.7240  208.2840  149.6320 C   0  0  0  0  0  0  0  0  0  0  0  0
  161.0910  210.5430  148.6470 C   0  0  2  0  0  3  0  0  0  0  0  0
  160.3060  207.9730  153.0890 C   0  0  0  0  0  0  0  0  0  0  0  0
  161.0780  213.1210  150.1150 C   0  0  2  0  0  3  0  0  0  0  0  0
  161.1720  213.1150  148.5490 C   0  0  2  0  0  3  0  0  0  0  0  0
  159.7290  213.7600  152.5640 S   0  0  0  0  0  0  0  0  0  0  0  0
  160.6250  210.9200  150.0550 C   0  0  2  0  0  3  0  0  0  0  0  0
  162.2430  204.5230  150.0930 C   0  0  0  0  0  0  0  0  0  0  0  0
  159.6130  207.2320  155.4230 C   0  0  0  0  0  1  0  0  0  0  0  0
  161.0130  205.3070  152.5190 C   0  0  0  0  0  0  0  0  0  0  0  0
  161.0090  208.5920  150.7980 C   0  0  0  0  0  0  0  0  0  0  0  0
  161.4770  211.8730  150.6420 O   0  0  0  0  0  0  0  0  0  0  0  0
  160.4430  205.6310  153.7490 C   0  0  0  0  0  3  0  0  0  0  0  0
  162.0920  209.3700  148.6500 C   0  0  0  0  0  2  0  0  0  0  0  0
  159.8500  211.9640  152.8500 C   0  0  0  0  0  2  0  0  0  0  0  0
  160.1630  209.3260  153.4330 O   0  0  0  0  0  0  0  0  0  0  0  0
  159.7290  213.5960  150.7210 C   0  0  0  0  0  2  0  0  0  0  0  0
  162.7650  204.0450  148.8430 N   0  0  0  0  0  2  0  0  0  0  0  0
  160.8310  207.6270  151.8070 C   0  0  0  0  0  0  0  0  0  0  0  0
  160.4020  209.8340  150.9290 O   0  0  0  0  0  0  0  0  0  0  0  0
  160.0800  206.9510  154.0340 C   0  0  0  0  0  0  0  0  0  0  0  0
  161.2190  206.2920  151.5460 C   0  0  0  0  0  0  0  0  0  0  0  0
  162.1120  204.5260  146.6300 C   0  0  0  0  0  0  0  0  0  0  0  0
  162.1590  205.4190  145.4510 C   0  0  0  0  0  3  0  0  0  0  0  0
  162.8240  204.8190  147.6740 N   0  0  0  0  0  0  0  0  0  0  0  0
  160.2430  204.2170  144.4590 C   0  0  0  0  0  2  0  0  0  0  0  0
  161.3170  205.2570  144.4240 C   0  0  0  0  0  3  0  0  0  0  0  0
  161.1520  203.3560  146.6410 C   0  0  0  0  0  2  0  0  0  0  0  0
  160.7410  202.9730  145.2130 C   0  0  0  0  0  2  0  0  0  0  0  0
  159.9590  213.5950  147.8150 C   0  0  0  0  0  0  0  0  0  0  0  0
  158.7980  213.4150  148.2870 O   0  0  0  0  0  0  0  0  0  0  0  0
  160.1400  214.3260  146.6310 O   0  0  0  0  0  0  0  0  0  0  0  0
  159.4720  212.4580  145.4350 O   0  0  0  0  0  1  0  0  0  0  0  0
  160.0450  213.7270  145.3340 C   0  0  2  0  0  3  0  0  0  0  0  0
  161.2720  213.3190  143.2400 N   0  0  0  0  0  1  0  0  0  0  0  0
  161.4130  213.6210  144.6610 C   0  0  0  0  0  2  0  0  0  0  0  0
  160.1170  211.6990  155.3130 C   0  0  0  0  0  2  0  0  0  0  0  0
  162.5360  211.2390  156.0520 C   0  0  0  0  0  0  0  0  0  0  0  0
  165.5670  211.1260  154.0450 O   0  0  0  0  0  0  0  0  0  0  0  0
  162.1690  211.2990  157.2610 O   0  0  0  0  0  0  0  0  0  0  0  0
  164.3420  211.0650  154.3470 C   0  0  0  0  0  0  0  0  0  0  0  0
  164.9290  211.0780  156.7910 C   0  0  0  0  0  1  0  0  0  0  0  0
  163.3180  210.9100  153.2510 C   0  0  2  0  0  3  0  0  0  0  0  0
  163.9320  211.1080  155.7270 N   0  0  0  0  0  0  0  0  0  0  0  0
  161.5360  211.3620  154.9730 C   0  0  0  0  0  0  0  0  0  0  0  0
  161.9130  211.2480  153.6890 C   0  0  0  0  0  3  0  0  0  0  0  0
  163.3640  209.4960  152.6920 C   0  0  0  0  0  1  0  0  0  0  0  0
  1  4  1  0  0  0  0
  2 29  1  0  0  0  0
  3 44  1  1  0  0  0
  4 17  1  0  0  0  0
  5 12  1  0  0  0  0
  6  3  1  0  0  0  0
  7  8  1  0  0  0  0
  7  2  2  0  0  0  0
  8 18  2  0  0  0  0
  9  5  1  1  0  0  0
  9 21  1  0  0  0  0
  9 14  1  0  0  0  0
 10 23  1  0  0  0  0
 10 28  1  0  0  0  0
 11 19  1  0  0  0  0
 11 24  1  6  0  0  0
 12 37  1  6  0  0  0
 12 11  1  0  0  0  0
 13 22  1  0  0  0  0
 14 19  1  1  0  0  0
 14 27  1  0  0  0  0
 15  2  1  0  0  0  0
 15  1  2  0  0  0  0
 17 20  1  0  0  0  0
 18 27  1  0  0  0  0
 18 26  1  0  0  0  0
 20 28  2  0  0  0  0
 21  8  1  0  0  0  0
 22  3  1  0  0  0  0
 23  6  1  0  0  0  0
 24 13  1  0  0  0  0
 25 15  1  0  0  0  0
 26 10  2  0  0  0  0
 28 16  1  0  0  0  0
 29 26  1  0  0  0  0
 29 17  2  0  0  0  0
 30 35  1  0  0  0  0
 30 32  2  0  0  0  0
 31 30  1  0  0  0  0
 32 25  1  0  0  0  0
 33 36  1  0  0  0  0
 34 33  1  0  0  0  0
 34 31  2  0  0  0  0
 36 35  1  0  0  0  0
 37 38  2  0  0  0  0
 39 37  1  0  0  0  0
 41 40  1  1  0  0  0
 41 39  1  0  0  0  0
 42 43  1  0  0  0  0
 43 41  1  0  0  0  0
 45 47  2  0  0  0  0
 46 48  2  0  0  0  0
 48 51  1  0  0  0  0
 50 54  1  1  0  0  0
 50 53  1  0  0  0  0
 50 48  1  0  0  0  0
 51 45  1  0  0  0  0
 51 49  1  0  0  0  0
 52 44  1  0  0  0  0
 52 45  1  0  0  0  0
 53 52  2  0  0  0  0
M  END
>  <MODEL>
3

>  <REMARK>
 VINA RESULT:       9.7      3.236      7.584
  Name = 
  7 active torsions:
  status: ('A' for Active; 'I' for Inactive)
    1  A    between atoms: C_4  and  C_45
    2  A    between atoms: C_10  and  C_15
    3  A    between atoms: N_11  and  N_46
    4  A    between atoms: C_14  and  C_23
    5  A    between atoms: C_14  and  O_42
    6  A    between atoms: C_15  and  O_42
    7  A    between atoms: C_45  and  C_47
                            x       y       z     vdW  Elec       q    Type
                         _______ _______ _______ _____ _____    ______ ____

>  <TORSDO>
F 7

$$$$
