=
 OpenBabel11042421143D

 32 36  0  0  1  0  0  0  0  0999 V2000
  159.8390  212.3100  154.9280 C   0  0  0  0  0  2  0  0  0  0  0  0
  161.5710  209.6020  153.2250 C   0  0  1  0  0  3  0  0  0  0  0  0
  161.7660  209.8160  150.8320 O   0  0  0  0  0  0  0  0  0  0  0  0
  161.2250  205.2720  150.9620 C   0  0  0  0  0  0  0  0  0  0  0  0
  159.6140  208.5870  156.8650 O   0  0  0  0  0  1  0  0  0  0  0  0
  159.3690  210.9940  157.1150 C   0  0  0  0  0  2  0  0  0  0  0  0
  160.2680  209.7560  157.2610 C   0  0  2  0  0  3  0  0  0  0  0  0
  158.9020  211.3690  155.6990 C   0  0  2  0  0  3  0  0  0  0  0  0
  161.0830  211.6680  154.5190 N   0  0  0  0  0  2  0  0  0  0  0  0
  160.8320  210.9480  153.2820 C   0  0  1  0  0  3  0  0  0  0  0  0
  162.4460  210.8410  157.1510 C   0  0  0  0  0  3  0  0  0  0  0  0
  161.1660  206.8420  150.1130 S   0  0  0  0  0  0  0  0  0  0  0  0
  162.1580  208.9400  155.6040 C   0  0  0  0  0  2  0  0  0  0  0  0
  161.4390  207.1710  154.1170 C   0  0  0  0  0  2  0  0  0  0  0  0
  161.6280  207.5760  151.7070 C   0  0  2  0  0  3  0  0  0  0  0  0
  161.2260  211.8130  152.0830 C   0  0  0  0  0  2  0  0  0  0  0  0
  161.6320  209.9070  156.6360 C   0  0  0  0  0  0  0  0  0  0  0  0
  161.0630  205.3210  152.4420 C   0  0  1  0  0  3  0  0  0  0  0  0
  161.2290  208.6640  154.4240 C   0  0  2  0  0  3  0  0  0  0  0  0
  161.4380  211.8390  149.6050 C   0  0  0  0  0  1  0  0  0  0  0  0
  161.4980  204.2360  150.3780 O   0  0  0  0  0  0  0  0  0  0  0  0
  161.0140  211.0070  150.7970 C   0  0  1  0  0  3  0  0  0  0  0  0
  160.8830  206.7920  152.7620 C   0  0  1  0  0  3  0  0  0  0  0  0
  159.9210  204.6160  152.8210 O   0  0  0  0  0  1  0  0  0  0  0  0
  161.1940  209.0200  151.8410 C   0  0  1  0  0  3  0  0  0  0  0  0
  158.3170  210.2170  154.8720 C   0  0  2  0  0  3  0  0  0  0  0  0
  157.7760  210.7360  153.6050 N   0  0  0  0  0  2  0  0  0  0  0  0
  156.8570  210.2530  154.6470 C   0  0  2  0  0  3  0  0  0  0  0  0
  155.2330  210.9710  156.3070 N   0  0  0  0  0  1  0  0  0  0  0  0
  156.1190  211.4390  155.2570 C   0  0  0  0  0  2  0  0  0  0  0  0
  163.8520  211.0520  156.6850 C   0  0  0  0  0  2  0  0  0  0  0  0
  164.3820  212.3500  157.2580 C   0  0  0  0  0  1  0  0  0  0  0  0
  1  8  1  0  0  0  0
  2 10  1  0  0  0  0
  2 19  1  0  0  0  0
  3 25  1  0  0  0  0
  4 18  1  0  0  0  0
  5  7  1  0  0  0  0
  6  7  1  0  0  0  0
  8  6  1  0  0  0  0
  9  1  1  0  0  0  0
 10  9  1  0  0  0  0
 12  4  1  0  0  0  0
 12 15  1  0  0  0  0
 13 17  1  0  0  0  0
 14 19  1  0  0  0  0
 15 25  1  0  0  0  0
 15 23  1  0  0  0  0
 16 10  1  0  0  0  0
 17 11  2  0  0  0  0
 17  7  1  0  0  0  0
 18 23  1  0  0  0  0
 18 24  1  0  0  0  0
 19 13  1  0  0  0  0
 20 22  1  0  0  0  0
 21  4  2  0  0  0  0
 22  3  1  0  0  0  0
 22 16  1  0  0  0  0
 23 14  1  0  0  0  0
 25  2  1  0  0  0  0
 26  8  1  0  0  0  0
 27 28  1  0  0  0  0
 27 26  1  0  0  0  0
 28 26  1  0  0  0  0
 28 30  1  0  0  0  0
 30 29  1  0  0  0  0
 31 11  1  0  0  0  0
 31 32  1  0  0  0  0
M  END
>  <MODEL>
1

>  <REMARK>
 VINA RESULT:      -1.3      0.000      0.000
  Name = 
  3 active torsions:
  status: ('A' for Active; 'I' for Inactive)
    1  A    between atoms: C_7  and  C_11
    2  A    between atoms: C_9  and  C_27
    3  A    between atoms: C_14  and  C_18
                            x       y       z     vdW  Elec       q    Type
                         _______ _______ _______ _____ _____    ______ ____

>  <TORSDO>
F 3

$$$$
=
 OpenBabel11042421143D

 32 36  0  0  1  0  0  0  0  0999 V2000
  159.9650  209.6760  156.3030 C   0  0  0  0  0  2  0  0  0  0  0  0
  159.7040  210.2830  152.7260 C   0  0  1  0  0  3  0  0  0  0  0  0
  160.8990  208.7450  151.3070 O   0  0  0  0  0  0  0  0  0  0  0  0
  161.5680  212.5040  148.7780 C   0  0  0  0  0  0  0  0  0  0  0  0
  159.2880  213.6870  155.2460 O   0  0  0  0  0  1  0  0  0  0  0  0
  159.1850  212.0410  157.0340 C   0  0  0  0  0  2  0  0  0  0  0  0
  158.4490  212.7900  155.9120 C   0  0  2  0  0  3  0  0  0  0  0  0
  160.3520  211.1260  156.6290 C   0  0  2  0  0  3  0  0  0  0  0  0
  159.2250  209.5500  155.0530 N   0  0  0  0  0  2  0  0  0  0  0  0
  160.1850  209.5100  153.9640 C   0  0  1  0  0  3  0  0  0  0  0  0
  156.6600  211.1940  155.4870 C   0  0  0  0  0  3  0  0  0  0  0  0
  161.9990  210.8430  149.2790 S   0  0  0  0  0  0  0  0  0  0  0  0
  157.9060  211.9100  153.4810 C   0  0  0  0  0  2  0  0  0  0  0  0
  159.4620  212.6930  151.8010 C   0  0  0  0  0  2  0  0  0  0  0  0
  160.6600  211.0000  150.4940 C   0  0  2  0  0  3  0  0  0  0  0  0
  160.4920  208.0590  153.5890 C   0  0  0  0  0  2  0  0  0  0  0  0
  157.6820  211.8950  154.9730 C   0  0  0  0  0  0  0  0  0  0  0  0
  160.8510  213.3270  149.7910 C   0  0  1  0  0  3  0  0  0  0  0  0
  159.3600  211.7750  153.0300 C   0  0  2  0  0  3  0  0  0  0  0  0
  161.7350  206.6150  151.9900 C   0  0  0  0  0  1  0  0  0  0  0  0
  161.7480  212.8970  147.6380 O   0  0  0  0  0  0  0  0  0  0  0  0
  161.4540  208.0460  152.3960 C   0  0  1  0  0  3  0  0  0  0  0  0
  160.7180  212.4230  151.0000 C   0  0  1  0  0  3  0  0  0  0  0  0
  161.6150  214.4460  150.1240 O   0  0  0  0  0  1  0  0  0  0  0  0
  160.8420  210.0960  151.6940 C   0  0  1  0  0  3  0  0  0  0  0  0
  161.3800  211.7510  155.6770 C   0  0  2  0  0  3  0  0  0  0  0  0
  162.1420  210.6910  154.9970 N   0  0  0  0  0  2  0  0  0  0  0  0
  162.8010  211.5250  156.0150 C   0  0  2  0  0  3  0  0  0  0  0  0
  163.0760  209.2800  156.9060 N   0  0  0  0  0  1  0  0  0  0  0  0
  163.0640  210.6870  157.2610 C   0  0  0  0  0  2  0  0  0  0  0  0
  155.7630  210.3260  154.6620 C   0  0  0  0  0  2  0  0  0  0  0  0
  154.7740  209.6220  155.5670 C   0  0  0  0  0  1  0  0  0  0  0  0
  1  8  1  0  0  0  0
  2 19  1  0  0  0  0
  2 10  1  0  0  0  0
  3 25  1  0  0  0  0
  3 22  1  0  0  0  0
  4 12  1  0  0  0  0
  4 18  1  0  0  0  0
  5  7  1  0  0  0  0
  7  6  1  0  0  0  0
  8  6  1  0  0  0  0
  9  1  1  0  0  0  0
 10  9  1  0  0  0  0
 12 15  1  0  0  0  0
 13 17  1  0  0  0  0
 14 19  1  0  0  0  0
 15 23  1  0  0  0  0
 15 25  1  0  0  0  0
 16 10  1  0  0  0  0
 17 11  2  0  0  0  0
 17  7  1  0  0  0  0
 18 24  1  0  0  0  0
 18 23  1  0  0  0  0
 19 13  1  0  0  0  0
 20 22  1  0  0  0  0
 21  4  2  0  0  0  0
 22 16  1  0  0  0  0
 23 14  1  0  0  0  0
 25  2  1  0  0  0  0
 26 28  1  0  0  0  0
 26  8  1  0  0  0  0
 27 26  1  0  0  0  0
 27 28  1  0  0  0  0
 28 30  1  0  0  0  0
 29 30  1  0  0  0  0
 31 11  1  0  0  0  0
 31 32  1  0  0  0  0
M  END
>  <MODEL>
2

>  <REMARK>
 VINA RESULT:       0.2      2.269      5.667
  Name = 
  3 active torsions:
  status: ('A' for Active; 'I' for Inactive)
    1  A    between atoms: C_7  and  C_11
    2  A    between atoms: C_9  and  C_27
    3  A    between atoms: C_14  and  C_18
                            x       y       z     vdW  Elec       q    Type
                         _______ _______ _______ _____ _____    ______ ____

>  <TORSDO>
F 3

$$$$
=
 OpenBabel11042421143D

 32 36  0  0  1  0  0  0  0  0999 V2000
  158.0000  213.5580  154.3900 C   0  0  0  0  0  2  0  0  0  0  0  0
  160.6330  211.1920  153.5510 C   0  0  1  0  0  3  0  0  0  0  0  0
  161.2430  211.0780  151.2220 O   0  0  0  0  0  0  0  0  0  0  0  0
  161.7930  206.6350  152.1820 C   0  0  0  0  0  0  0  0  0  0  0  0
  158.2920  210.2620  156.9810 O   0  0  0  0  0  1  0  0  0  0  0  0
  157.4330  212.5200  156.7000 C   0  0  0  0  0  2  0  0  0  0  0  0
  158.5550  211.6110  157.2270 C   0  0  2  0  0  3  0  0  0  0  0  0
  157.1810  212.5290  155.1840 C   0  0  2  0  0  3  0  0  0  0  0  0
  159.4170  213.2230  154.3130 N   0  0  0  0  0  2  0  0  0  0  0  0
  159.5970  212.2790  153.2230 C   0  0  1  0  0  3  0  0  0  0  0  0
  160.3860  213.2160  157.2330 C   0  0  0  0  0  3  0  0  0  0  0  0
  161.5290  207.9780  151.0340 S   0  0  0  0  0  0  0  0  0  0  0  0
  160.8760  211.0920  156.0760 C   0  0  0  0  0  2  0  0  0  0  0  0
  160.9130  208.9860  154.8850 C   0  0  0  0  0  2  0  0  0  0  0  0
  161.4750  209.0490  152.4990 C   0  0  2  0  0  3  0  0  0  0  0  0
  160.0030  213.0220  151.9480 C   0  0  0  0  0  2  0  0  0  0  0  0
  159.9390  212.0280  156.8000 C   0  0  0  0  0  0  0  0  0  0  0  0
  161.3320  206.8670  153.5790 C   0  0  1  0  0  3  0  0  0  0  0  0
  160.2940  210.3940  154.8480 C   0  0  2  0  0  3  0  0  0  0  0  0
  160.6910  212.7190  149.5770 C   0  0  0  0  0  1  0  0  0  0  0  0
  162.4160  205.6350  151.8670 O   0  0  0  0  0  0  0  0  0  0  0  0
  160.2500  211.9990  150.8340 C   0  0  1  0  0  3  0  0  0  0  0  0
  160.7450  208.2640  153.5650 C   0  0  1  0  0  3  0  0  0  0  0  0
  160.3400  205.9460  153.9150 O   0  0  0  0  0  1  0  0  0  0  0  0
  160.6900  210.3230  152.2720 C   0  0  1  0  0  3  0  0  0  0  0  0
  157.0660  211.1470  154.5270 C   0  0  2  0  0  3  0  0  0  0  0  0
  155.9000  211.1160  153.6290 N   0  0  0  0  0  2  0  0  0  0  0  0
  155.8740  210.3530  154.8870 C   0  0  2  0  0  3  0  0  0  0  0  0
  154.7920  210.2060  157.0590 N   0  0  0  0  0  1  0  0  0  0  0  0
  154.9020  211.0130  155.8580 C   0  0  0  0  0  2  0  0  0  0  0  0
  161.7640  213.7270  156.9530 C   0  0  0  0  0  2  0  0  0  0  0  0
  162.7740  212.6410  157.2570 C   0  0  0  0  0  1  0  0  0  0  0  0
  1  8  1  0  0  0  0
  2 19  1  0  0  0  0
  3 25  1  0  0  0  0
  4 18  1  0  0  0  0
  5  7  1  0  0  0  0
  6  7  1  0  0  0  0
  8  6  1  0  0  0  0
  9  1  1  0  0  0  0
 10  2  1  0  0  0  0
 10  9  1  0  0  0  0
 12  4  1  0  0  0  0
 12 15  1  0  0  0  0
 13 17  1  0  0  0  0
 15 23  1  0  0  0  0
 16 10  1  0  0  0  0
 17  7  1  0  0  0  0
 17 11  2  0  0  0  0
 18 24  1  0  0  0  0
 19 14  1  0  0  0  0
 19 13  1  0  0  0  0
 20 22  1  0  0  0  0
 21  4  2  0  0  0  0
 22  3  1  0  0  0  0
 22 16  1  0  0  0  0
 23 18  1  0  0  0  0
 23 14  1  0  0  0  0
 25 15  1  0  0  0  0
 25  2  1  0  0  0  0
 26 28  1  0  0  0  0
 26  8  1  0  0  0  0
 27 26  1  0  0  0  0
 27 28  1  0  0  0  0
 28 30  1  0  0  0  0
 30 29  1  0  0  0  0
 31 11  1  0  0  0  0
 31 32  1  0  0  0  0
M  END
>  <MODEL>
3

>  <REMARK>
 VINA RESULT:       1.7      1.607      2.011
  Name = 
  3 active torsions:
  status: ('A' for Active; 'I' for Inactive)
    1  A    between atoms: C_7  and  C_11
    2  A    between atoms: C_9  and  C_27
    3  A    between atoms: C_14  and  C_18
                            x       y       z     vdW  Elec       q    Type
                         _______ _______ _______ _____ _____    ______ ____

>  <TORSDO>
F 3

$$$$
