=
 OpenBabel11042420103D

 30 34  0  0  1  0  0  0  0  0999 V2000
  157.9200  214.2260  153.0410 C   0  0  2  0  0  3  0  0  0  0  0  0
  158.4730  214.0360  151.6340 C   0  0  0  0  0  2  0  0  0  0  0  0
  158.6140  212.8400  154.9630 C   0  0  2  0  0  3  0  0  0  0  0  0
  162.1610  209.5960  150.4540 C   0  0  1  0  0  3  0  0  0  0  0  0
  160.8550  210.1500  153.5060 N   0  0  0  0  0  0  0  0  0  0  0  0
  161.3150  208.9700  156.0390 C   0  0  1  0  0  3  0  0  0  0  0  0
  159.2920  213.0710  156.3140 C   0  0  0  0  0  2  0  0  0  0  0  0
  159.0140  211.5170  154.3720 C   0  0  0  0  0  0  0  0  0  0  0  0
  160.3920  210.9730  154.6290 C   0  0  1  0  0  3  0  0  0  0  0  0
  161.0730  210.4680  151.0550 C   0  0  1  0  0  3  0  0  0  0  0  0
  158.9490  213.9420  154.0580 N   0  0  0  0  0  2  0  0  0  0  0  0
  161.6140  210.8040  152.4280 C   0  0  2  0  0  3  0  0  0  0  0  0
  161.0370  208.0260  154.8840 C   0  0  2  0  0  3  0  0  0  0  0  0
  160.4650  210.2350  155.9620 C   0  0  0  0  0  0  0  0  0  0  0  0
  163.0670  209.2230  151.4590 O   0  0  0  0  0  0  0  0  0  0  0  0
  160.7220  208.7210  153.5930 C   0  0  0  0  0  0  0  0  0  0  0  0
  159.9330  207.1370  156.8230 N   0  0  0  0  0  2  0  0  0  0  0  0
  158.1820  210.8360  153.7960 O   0  0  0  0  0  0  0  0  0  0  0  0
  159.0360  212.6400  151.4400 C   0  0  0  0  0  2  0  0  0  0  0  0
  160.0590  212.6660  150.3610 C   0  0  0  0  0  3  0  0  0  0  0  0
  158.9920  211.9150  157.2610 C   0  0  0  0  0  2  0  0  0  0  0  0
  163.0310  210.2740  152.3860 C   0  0  0  0  0  2  0  0  0  0  0  0
  160.9640  211.6970  150.1970 C   0  0  0  0  0  3  0  0  0  0  0  0
  159.9010  207.1490  155.3630 C   0  0  0  0  0  2  0  0  0  0  0  0
  156.5620  213.5440  153.2300 C   0  0  0  0  0  1  0  0  0  0  0  0
  160.9520  208.1030  157.2380 C   0  0  0  0  0  2  0  0  0  0  0  0
  160.3860  208.0460  152.5840 O   0  0  0  0  0  0  0  0  0  0  0  0
  159.9270  210.7380  157.1020 C   0  0  0  0  0  3  0  0  0  0  0  0
  161.1260  207.4250  149.2920 C   0  0  0  0  0  3  0  0  0  0  0  0
  161.5840  208.4080  149.8180 C   0  0  0  0  0  0  0  0  0  0  0  0
  1 25  1  1  0  0  0
  1 11  1  0  0  0  0
  2  1  1  0  0  0  0
  3  7  1  1  0  0  0
  4 30  1  1  0  0  0
  4 10  1  0  0  0  0
  4 15  1  0  0  0  0
  5 16  1  0  0  0  0
  5  9  1  0  0  0  0
  6 26  1  1  0  0  0
  7 21  1  0  0  0  0
  8  3  1  0  0  0  0
  9  8  1  6  0  0  0
  9 14  1  0  0  0  0
 10 23  1  6  0  0  0
 10 12  1  0  0  0  0
 11  3  1  0  0  0  0
 12 22  1  6  0  0  0
 12  5  1  0  0  0  0
 13 24  1  1  0  0  0
 13  6  1  0  0  0  0
 14  6  1  0  0  0  0
 14 28  2  0  0  0  0
 15 22  1  0  0  0  0
 16 13  1  0  0  0  0
 17 26  1  0  0  0  0
 18  8  2  0  0  0  0
 19  2  1  0  0  0  0
 20 19  1  0  0  0  0
 23 20  2  0  0  0  0
 24 17  1  0  0  0  0
 27 16  2  0  0  0  0
 28 21  1  0  0  0  0
 29 30  3  0  0  0  0
M  END
>  <MODEL>
1

>  <REMARK>
 VINA RESULT:      -3.2      0.000      0.000
  Name = 
  1 active torsions:
  status: ('A' for Active; 'I' for Inactive)
    1  A    between atoms: C_4  and  C_30
                            x       y       z     vdW  Elec       q    Type
                         _______ _______ _______ _____ _____    ______ ____

>  <TORSDO>
F 1

$$$$
=
 OpenBabel11042420103D

 30 34  0  0  1  0  0  0  0  0999 V2000
  161.4160  207.9900  154.4450 C   0  0  2  0  0  3  0  0  0  0  0  0
  160.8400  208.2880  155.8240 C   0  0  0  0  0  2  0  0  0  0  0  0
  161.3360  209.5970  152.5730 C   0  0  2  0  0  3  0  0  0  0  0  0
  157.9130  213.3030  156.8130 C   0  0  1  0  0  3  0  0  0  0  0  0
  159.2440  212.5010  153.8280 N   0  0  0  0  0  0  0  0  0  0  0  0
  159.5190  213.9270  151.3980 C   0  0  1  0  0  3  0  0  0  0  0  0
  162.3500  210.3370  151.6980 C   0  0  0  0  0  2  0  0  0  0  0  0
  160.1180  210.4410  152.8280 C   0  0  0  0  0  0  0  0  0  0  0  0
  160.2540  211.9350  152.9280 C   0  0  1  0  0  3  0  0  0  0  0  0
  158.5220  212.0740  156.1630 C   0  0  1  0  0  3  0  0  0  0  0  0
  161.9780  209.2070  153.8310 N   0  0  0  0  0  2  0  0  0  0  0  0
  159.5830  212.6510  155.2520 C   0  0  2  0  0  3  0  0  0  0  0  0
  158.1360  213.8990  152.0230 C   0  0  2  0  0  3  0  0  0  0  0  0
  160.2430  212.5930  151.5510 C   0  0  0  0  0  0  0  0  0  0  0  0
  158.3520  214.4530  156.1370 O   0  0  0  0  0  0  0  0  0  0  0  0
  158.0470  213.0590  153.2620 C   0  0  0  0  0  0  0  0  0  0  0  0
  157.8550  213.7230  149.6450 N   0  0  0  0  0  2  0  0  0  0  0  0
  159.0140  209.9230  152.8260 O   0  0  0  0  0  0  0  0  0  0  0  0
  159.7900  209.3820  155.7650 C   0  0  0  0  0  2  0  0  0  0  0  0
  159.6990  210.0500  157.0900 C   0  0  0  0  0  3  0  0  0  0  0  0
  161.6940  210.7900  150.3990 C   0  0  0  0  0  2  0  0  0  0  0  0
  159.6160  214.1150  155.6340 C   0  0  0  0  0  2  0  0  0  0  0  0
  159.1350  211.2490  157.2610 C   0  0  0  0  0  3  0  0  0  0  0  0
  157.2210  213.4100  150.9230 C   0  0  0  0  0  2  0  0  0  0  0  0
  160.4610  207.1630  153.5810 C   0  0  0  0  0  1  0  0  0  0  0  0
  159.1910  214.2400  149.9430 C   0  0  0  0  0  2  0  0  0  0  0  0
  156.9320  212.8860  153.8220 O   0  0  0  0  0  0  0  0  0  0  0  0
  160.9690  212.1130  150.5100 C   0  0  0  0  0  3  0  0  0  0  0  0
  155.2460  213.1620  156.8040 C   0  0  0  0  0  3  0  0  0  0  0  0
  156.4490  213.2290  156.7990 C   0  0  0  0  0  0  0  0  0  0  0  0
  1 25  1  6  0  0  0
  1  2  1  0  0  0  0
  3  7  1  6  0  0  0
  3  8  1  0  0  0  0
  3 11  1  0  0  0  0
  4 30  1  6  0  0  0
  5 12  1  0  0  0  0
  6 26  1  6  0  0  0
  6 14  1  0  0  0  0
  6 13  1  0  0  0  0
  8  9  1  0  0  0  0
  9 14  1  6  0  0  0
  9  5  1  0  0  0  0
 10  4  1  0  0  0  0
 10 23  1  1  0  0  0
 11  1  1  0  0  0  0
 12 22  1  1  0  0  0
 12 10  1  0  0  0  0
 13 24  1  6  0  0  0
 13 16  1  0  0  0  0
 15  4  1  0  0  0  0
 16 27  2  0  0  0  0
 16  5  1  0  0  0  0
 17 26  1  0  0  0  0
 17 24  1  0  0  0  0
 18  8  2  0  0  0  0
 19  2  1  0  0  0  0
 19 20  1  0  0  0  0
 20 23  2  0  0  0  0
 21 28  1  0  0  0  0
 21  7  1  0  0  0  0
 22 15  1  0  0  0  0
 28 14  2  0  0  0  0
 30 29  3  0  0  0  0
M  END
>  <MODEL>
2

>  <REMARK>
 VINA RESULT:      -3.2      1.887      6.873
  Name = 
  1 active torsions:
  status: ('A' for Active; 'I' for Inactive)
    1  A    between atoms: C_4  and  C_30
                            x       y       z     vdW  Elec       q    Type
                         _______ _______ _______ _____ _____    ______ ____

>  <TORSDO>
F 1

$$$$
=
 OpenBabel11042420103D

 30 34  0  0  1  0  0  0  0  0999 V2000
  162.0020  211.5170  148.4620 C   0  0  2  0  0  3  0  0  0  0  0  0
  161.2320  212.7830  148.8140 C   0  0  0  0  0  2  0  0  0  0  0  0
  161.9600  209.4790  149.8540 C   0  0  2  0  0  3  0  0  0  0  0  0
  158.2610  213.1500  153.8880 C   0  0  1  0  0  3  0  0  0  0  0  0
  160.0090  210.4260  152.9660 N   0  0  0  0  0  0  0  0  0  0  0  0
  160.2730  207.8380  154.0840 C   0  0  1  0  0  3  0  0  0  0  0  0
  161.5250  208.0220  149.6810 C   0  0  0  0  0  2  0  0  0  0  0  0
  161.7010  209.9610  151.2540 C   0  0  0  0  0  0  0  0  0  0  0  0
  160.5230  209.4290  152.0200 C   0  0  1  0  0  3  0  0  0  0  0  0
  159.2670  212.7880  152.8100 C   0  0  1  0  0  3  0  0  0  0  0  0
  161.2590  210.3120  148.8740 N   0  0  0  0  0  2  0  0  0  0  0  0
  158.9490  211.3390  152.5090 C   0  0  2  0  0  3  0  0  0  0  0  0
  160.4900  209.0140  155.0190 C   0  0  2  0  0  3  0  0  0  0  0  0
  160.8460  208.0980  152.6940 C   0  0  0  0  0  0  0  0  0  0  0  0
  157.6510  211.9790  154.3670 O   0  0  0  0  0  0  0  0  0  0  0  0
  160.4160  210.3500  154.3420 C   0  0  0  0  0  0  0  0  0  0  0  0
  162.0920  207.3230  155.6030 N   0  0  0  0  0  2  0  0  0  0  0  0
  162.5160  210.6830  151.8030 O   0  0  0  0  0  0  0  0  0  0  0  0
  160.9070  212.8430  150.2950 C   0  0  0  0  0  2  0  0  0  0  0  0
  159.7070  213.6970  150.5030 C   0  0  0  0  0  3  0  0  0  0  0  0
  162.2100  207.1400  150.7190 C   0  0  0  0  0  2  0  0  0  0  0  0
  157.6720  211.0920  153.2820 C   0  0  0  0  0  2  0  0  0  0  0  0
  158.9800  213.6660  151.6230 C   0  0  0  0  0  3  0  0  0  0  0  0
  161.8380  208.7600  155.6560 C   0  0  0  0  0  2  0  0  0  0  0  0
  163.4720  211.5940  148.8820 C   0  0  0  0  0  1  0  0  0  0  0  0
  161.0140  206.7250  154.8140 C   0  0  0  0  0  2  0  0  0  0  0  0
  160.6680  211.3980  154.9950 O   0  0  0  0  0  0  0  0  0  0  0  0
  161.4930  207.0940  152.0490 C   0  0  0  0  0  3  0  0  0  0  0  0
  159.4460  214.4530  155.8960 C   0  0  0  0  0  3  0  0  0  0  0  0
  158.9110  213.8730  154.9850 C   0  0  0  0  0  0  0  0  0  0  0  0
  1  2  1  0  0  0  0
  1 11  1  0  0  0  0
  1 25  1  1  0  0  0
  2 19  1  0  0  0  0
  3  7  1  1  0  0  0
  3  8  1  0  0  0  0
  4 15  1  0  0  0  0
  4 30  1  1  0  0  0
  5 16  1  0  0  0  0
  6 26  1  1  0  0  0
  6 13  1  0  0  0  0
  7 21  1  0  0  0  0
  8 18  2  0  0  0  0
  9  8  1  1  0  0  0
  9 14  1  0  0  0  0
  9  5  1  0  0  0  0
 10 23  1  6  0  0  0
 10  4  1  0  0  0  0
 11  3  1  0  0  0  0
 12 10  1  0  0  0  0
 12  5  1  0  0  0  0
 12 22  1  1  0  0  0
 13 24  1  6  0  0  0
 14  6  1  0  0  0  0
 16 27  2  0  0  0  0
 16 13  1  0  0  0  0
 17 24  1  0  0  0  0
 19 20  1  0  0  0  0
 20 23  2  0  0  0  0
 21 28  1  0  0  0  0
 22 15  1  0  0  0  0
 26 17  1  0  0  0  0
 28 14  2  0  0  0  0
 30 29  3  0  0  0  0
M  END
>  <MODEL>
3

>  <REMARK>
 VINA RESULT:      -3.1      1.732      5.305
  Name = 
  1 active torsions:
  status: ('A' for Active; 'I' for Inactive)
    1  A    between atoms: C_4  and  C_30
                            x       y       z     vdW  Elec       q    Type
                         _______ _______ _______ _____ _____    ______ ____

>  <TORSDO>
F 1

$$$$
=
 OpenBabel11042420103D

 30 34  0  0  1  0  0  0  0  0999 V2000
  161.7480  205.3490  151.8310 C   0  0  2  0  0  3  0  0  0  0  0  0
  161.5250  205.3520  153.3380 C   0  0  0  0  0  2  0  0  0  0  0  0
  161.8620  207.4110  150.4790 C   0  0  2  0  0  3  0  0  0  0  0  0
  160.4900  210.4020  156.1890 C   0  0  1  0  0  3  0  0  0  0  0  0
  161.0010  210.2290  152.8670 N   0  0  0  0  0  0  0  0  0  0  0  0
  161.3020  212.2040  150.8600 C   0  0  1  0  0  3  0  0  0  0  0  0
  162.8960  208.1020  149.5880 C   0  0  0  0  0  2  0  0  0  0  0  0
  161.0220  208.4160  151.2180 C   0  0  0  0  0  0  0  0  0  0  0  0
  161.6260  209.7260  151.6390 C   0  0  1  0  0  3  0  0  0  0  0  0
  160.5750  209.3140  155.1330 C   0  0  1  0  0  3  0  0  0  0  0  0
  162.5490  206.5130  151.4110 N   0  0  0  0  0  2  0  0  0  0  0  0
  161.5990  209.8540  154.1580 C   0  0  2  0  0  3  0  0  0  0  0  0
  160.1000  212.3360  151.7770 C   0  0  2  0  0  3  0  0  0  0  0  0
  161.5940  210.7490  150.5060 C   0  0  0  0  0  0  0  0  0  0  0  0
  161.1450  211.5540  155.7240 O   0  0  0  0  0  0  0  0  0  0  0  0
  159.9590  211.2130  152.7610 C   0  0  0  0  0  0  0  0  0  0  0  0
  159.3920  212.9600  149.5690 N   0  0  0  0  0  2  0  0  0  0  0  0
  159.8280  208.2150  151.3600 O   0  0  0  0  0  0  0  0  0  0  0  0
  160.8690  206.6390  153.8020 C   0  0  0  0  0  2  0  0  0  0  0  0
  161.2060  206.8790  155.2310 C   0  0  0  0  0  3  0  0  0  0  0  0
  162.2090  209.0730  148.6370 C   0  0  0  0  0  2  0  0  0  0  0  0
  162.1430  211.0780  154.8620 C   0  0  0  0  0  2  0  0  0  0  0  0
  161.0750  208.0720  155.8170 C   0  0  0  0  0  3  0  0  0  0  0  0
  158.9110  212.4460  150.8490 C   0  0  0  0  0  2  0  0  0  0  0  0
  160.4560  205.0870  151.0530 C   0  0  0  0  0  1  0  0  0  0  0  0
  160.8530  213.0120  149.6480 C   0  0  0  0  0  2  0  0  0  0  0  0
  158.9520  211.1640  153.5170 O   0  0  0  0  0  0  0  0  0  0  0  0
  161.9560  210.4380  149.2360 C   0  0  0  0  0  3  0  0  0  0  0  0
  157.9480  210.9710  156.7790 C   0  0  0  0  0  3  0  0  0  0  0  0
  159.0930  210.7050  156.5140 C   0  0  0  0  0  0  0  0  0  0  0  0
  1 25  1  6  0  0  0
  1  2  1  0  0  0  0
  2 19  1  0  0  0  0
  3  7  1  1  0  0  0
  3  8  1  0  0  0  0
  3 11  1  0  0  0  0
  4 30  1  6  0  0  0
  5 12  1  0  0  0  0
  6 26  1  6  0  0  0
  6 13  1  0  0  0  0
  8 18  2  0  0  0  0
  8  9  1  0  0  0  0
  9 14  1  6  0  0  0
  9  5  1  0  0  0  0
 10 23  1  1  0  0  0
 10  4  1  0  0  0  0
 11  1  1  0  0  0  0
 12 22  1  1  0  0  0
 12 10  1  0  0  0  0
 13 24  1  6  0  0  0
 13 16  1  0  0  0  0
 14  6  1  0  0  0  0
 15  4  1  0  0  0  0
 16  5  1  0  0  0  0
 16 27  2  0  0  0  0
 17 26  1  0  0  0  0
 17 24  1  0  0  0  0
 19 20  1  0  0  0  0
 20 23  2  0  0  0  0
 21 28  1  0  0  0  0
 21  7  1  0  0  0  0
 22 15  1  0  0  0  0
 28 14  2  0  0  0  0
 30 29  3  0  0  0  0
M  END
>  <MODEL>
4

>  <REMARK>
 VINA RESULT:      -2.3      2.068      6.868
  Name = 
  1 active torsions:
  status: ('A' for Active; 'I' for Inactive)
    1  A    between atoms: C_4  and  C_30
                            x       y       z     vdW  Elec       q    Type
                         _______ _______ _______ _____ _____    ______ ____

>  <TORSDO>
F 1

$$$$
=
 OpenBabel11042420103D

 30 34  0  0  1  0  0  0  0  0999 V2000
  159.6790  213.5360  149.7440 C   0  0  2  0  0  3  0  0  0  0  0  0
  158.3520  214.1840  150.1190 C   0  0  0  0  0  2  0  0  0  0  0  0
  160.7360  211.7530  151.0850 C   0  0  2  0  0  3  0  0  0  0  0  0
  155.6580  212.7650  155.1610 C   0  0  1  0  0  3  0  0  0  0  0  0
  158.5890  211.4240  154.1940 N   0  0  0  0  0  0  0  0  0  0  0  0
  160.1980  209.3480  155.2520 C   0  0  1  0  0  3  0  0  0  0  0  0
  161.1480  210.2950  150.8710 C   0  0  0  0  0  2  0  0  0  0  0  0
  160.2630  211.9840  152.4940 C   0  0  0  0  0  0  0  0  0  0  0  0
  159.5540  210.8830  153.2310 C   0  0  1  0  0  3  0  0  0  0  0  0
  156.6980  213.0270  154.0870 C   0  0  1  0  0  3  0  0  0  0  0  0
  159.6970  212.1100  150.1170 N   0  0  0  0  0  2  0  0  0  0  0  0
  157.2040  211.6420  153.7470 C   0  0  2  0  0  3  0  0  0  0  0  0
  159.7550  210.4320  156.2180 C   0  0  2  0  0  3  0  0  0  0  0  0
  160.5400  209.9130  153.8760 C   0  0  0  0  0  0  0  0  0  0  0  0
  155.7690  211.4370  155.6030 O   0  0  0  0  0  0  0  0  0  0  0  0
  158.9770  211.5390  155.5730 C   0  0  0  0  0  0  0  0  0  0  0  0
  162.0150  209.8440  156.7810 N   0  0  0  0  0  2  0  0  0  0  0  0
  160.5670  213.0140  153.0710 O   0  0  0  0  0  0  0  0  0  0  0  0
  158.0480  214.0200  151.5960 C   0  0  0  0  0  2  0  0  0  0  0  0
  156.5780  214.0940  151.8100 C   0  0  0  0  0  3  0  0  0  0  0  0
  162.2000  209.8880  151.8950 C   0  0  0  0  0  2  0  0  0  0  0  0
  156.2590  210.7280  154.4970 C   0  0  0  0  0  2  0  0  0  0  0  0
  155.9830  213.6480  152.9190 C   0  0  0  0  0  3  0  0  0  0  0  0
  161.0310  210.9200  156.8660 C   0  0  0  0  0  2  0  0  0  0  0  0
  160.8810  214.3760  150.1860 C   0  0  0  0  0  1  0  0  0  0  0  0
  161.4220  208.7840  155.9630 C   0  0  0  0  0  2  0  0  0  0  0  0
  158.6310  212.5410  156.2550 O   0  0  0  0  0  0  0  0  0  0  0  0
  161.6230  209.4290  153.2150 C   0  0  0  0  0  3  0  0  0  0  0  0
  155.9510  214.4440  157.2180 C   0  0  0  0  0  3  0  0  0  0  0  0
  155.8230  213.6930  156.2840 C   0  0  0  0  0  0  0  0  0  0  0  0
  1 11  1  0  0  0  0
  1  2  1  0  0  0  0
  1 25  1  1  0  0  0
  2 19  1  0  0  0  0
  3  7  1  1  0  0  0
  3  8  1  0  0  0  0
  4 15  1  0  0  0  0
  4 30  1  1  0  0  0
  5 16  1  0  0  0  0
  6 26  1  1  0  0  0
  6 13  1  0  0  0  0
  7 21  1  0  0  0  0
  8 18  2  0  0  0  0
  9  8  1  1  0  0  0
  9 14  1  0  0  0  0
  9  5  1  0  0  0  0
 10 23  1  6  0  0  0
 10  4  1  0  0  0  0
 11  3  1  0  0  0  0
 12 10  1  0  0  0  0
 12  5  1  0  0  0  0
 12 22  1  1  0  0  0
 13 24  1  6  0  0  0
 14  6  1  0  0  0  0
 16 13  1  0  0  0  0
 16 27  2  0  0  0  0
 17 24  1  0  0  0  0
 19 20  1  0  0  0  0
 20 23  2  0  0  0  0
 21 28  1  0  0  0  0
 22 15  1  0  0  0  0
 26 17  1  0  0  0  0
 28 14  2  0  0  0  0
 30 29  3  0  0  0  0
M  END
>  <MODEL>
5

>  <REMARK>
 VINA RESULT:      -1.3      2.113      5.381
  Name = 
  1 active torsions:
  status: ('A' for Active; 'I' for Inactive)
    1  A    between atoms: C_4  and  C_30
                            x       y       z     vdW  Elec       q    Type
                         _______ _______ _______ _____ _____    ______ ____

>  <TORSDO>
F 1

$$$$
