=
 OpenBabel11052410383D

 47 51  0  0  1  0  0  0  0  0999 V2000
  162.1760  209.0530  150.4770 C   0  0  2  0  0  3  0  0  0  0  0  0
  161.6890  205.8400  153.1550 C   0  0  0  0  0  1  0  0  0  0  0  0
  160.7160  206.9780  152.9060 C   0  0  2  0  0  3  0  0  0  0  0  0
  161.3180  208.6020  151.5660 N   0  0  0  0  0  0  0  0  0  0  0  0
  160.7730  207.3510  151.5400 O   0  0  0  0  0  0  0  0  0  0  0  0
  161.1270  208.1940  153.6600 C   0  0  0  0  0  0  0  0  0  0  0  0
  161.4860  209.1100  152.8510 N   0  0  0  0  0  0  0  0  0  0  0  0
  160.4200  207.5900  155.8370 O   0  0  0  0  0  0  0  0  0  0  0  0
  161.1010  208.3720  155.1210 C   0  0  0  0  0  0  0  0  0  0  0  0
  161.8730  209.4740  155.7660 C   0  0  0  0  0  2  0  0  0  0  0  0
  161.3200  211.6940  157.2340 O   0  0  0  0  0  1  0  0  0  0  0  0
  159.2280  210.3810  156.3640 O   0  0  0  0  0  0  0  0  0  0  0  0
  160.8020  210.9170  156.0440 P   0  0  2  0  0  0  0  0  0  0  0  0
  160.8210  211.9010  154.6610 O   0  0  0  0  0  0  0  0  0  0  0  0
  159.5960  212.5750  154.6660 C   0  0  0  0  0  2  0  0  0  0  0  0
  158.6590  211.4240  152.6900 C   0  0  0  0  0  1  0  0  0  0  0  0
  159.1150  212.7560  153.2410 C   0  0  0  0  0  2  0  0  0  0  0  0
  162.3980  210.4660  150.5340 O   0  0  0  0  0  0  0  0  0  0  0  0
  162.7830  211.5640  148.2750 C   0  0  0  0  0  2  0  0  0  0  0  0
  160.8440  212.0420  149.7560 C   0  0  0  0  0  3  0  0  0  0  0  0
  160.8640  212.9030  147.3990 C   0  0  2  0  0  3  0  0  0  0  0  0
  161.9900  211.3820  149.5540 C   0  0  0  0  0  0  0  0  0  0  0  0
  160.3250  213.0940  148.8170 C   0  0  0  0  0  2  0  0  0  0  0  0
  162.3860  212.8160  147.4920 C   0  0  0  0  0  2  0  0  0  0  0  0
  160.4380  214.0600  146.4890 C   0  0  2  0  0  3  0  0  0  0  0  0
  159.0400  213.8210  145.9350 C   0  0  0  0  0  1  0  0  0  0  0  0
  161.4080  214.2040  145.3250 C   0  0  0  0  0  2  0  0  0  0  0  0
  161.2380  213.0480  144.3570 C   0  0  0  0  0  2  0  0  0  0  0  0
  162.4330  212.3380  142.2060 N   0  0  0  0  0  2  0  0  0  0  0  0
  160.1110  212.0490  141.9940 O   0  0  0  0  0  0  0  0  0  0  0  0
  162.4720  212.8880  143.5300 C   0  0  0  0  0  0  0  0  0  0  0  0
  161.2630  211.9070  141.4970 C   0  0  0  0  0  0  0  0  0  0  0  0
  163.5750  213.2690  144.0030 O   0  0  0  0  0  0  0  0  0  0  0  0
  161.5740  209.8150  140.2230 C   0  0  0  0  0  2  0  0  0  0  0  0
  161.4090  211.3230  140.1280 C   0  0  0  0  0  3  0  0  0  0  0  0
  162.7820  210.6920  139.9800 C   0  0  0  0  0  2  0  0  0  0  0  0
  161.6040  208.6410  149.1240 C   0  0  0  0  0  2  0  0  0  0  0  0
  162.6280  207.8520  148.3230 C   0  0  0  0  0  2  0  0  0  0  0  0
  162.1740  206.4420  148.1400 C   0  0  0  0  0  0  0  0  0  0  0  0
  160.7280  203.5510  150.0300 C   0  0  0  0  0  3  0  0  0  0  0  0
  160.8940  202.2410  147.9860 S   0  0  0  0  0  0  0  0  0  0  0  0
  161.4270  203.8040  147.8160 C   0  0  0  0  0  0  0  0  0  0  0  0
  162.3310  205.8090  146.8880 C   0  0  0  0  0  3  0  0  0  0  0  0
  161.2680  204.4040  149.0510 C   0  0  0  0  0  0  0  0  0  0  0  0
  161.6440  205.7340  149.2350 C   0  0  0  0  0  3  0  0  0  0  0  0
  160.4570  202.2880  149.5960 N   0  0  0  0  0  0  0  0  0  0  0  0
  161.9520  204.4690  146.7130 C   0  0  0  0  0  3  0  0  0  0  0  0
  1 37  1  6  0  0  0
  1 18  1  0  0  0  0
  1  4  1  0  0  0  0
  3  2  1  6  0  0  0
  3  6  1  0  0  0  0
  4  7  1  0  0  0  0
  5  4  1  0  0  0  0
  5  3  1  0  0  0  0
  6  9  1  0  0  0  0
  7  6  2  0  0  0  0
  9 10  1  0  0  0  0
  9  8  2  0  0  0  0
 10 13  1  0  0  0  0
 13 12  2  1  0  0  0
 13 11  1  0  0  0  0
 14 15  1  0  0  0  0
 14 13  1  0  0  0  0
 16 17  1  0  0  0  0
 17 15  1  0  0  0  0
 19 22  1  0  0  0  0
 21 25  1  6  0  0  0
 21 24  1  0  0  0  0
 21 23  1  0  0  0  0
 22 20  2  0  0  0  0
 22 18  1  0  0  0  0
 23 20  1  0  0  0  0
 24 19  1  0  0  0  0
 25 26  1  6  0  0  0
 27 25  1  0  0  0  0
 28 27  1  0  0  0  0
 29 31  1  0  0  0  0
 31 33  2  0  0  0  0
 31 28  1  0  0  0  0
 32 30  2  0  0  0  0
 32 29  1  0  0  0  0
 35 34  1  0  0  0  0
 35 32  1  0  0  0  0
 36 35  1  0  0  0  0
 36 34  1  0  0  0  0
 38 37  1  0  0  0  0
 39 38  1  0  0  0  0
 39 45  1  0  0  0  0
 41 46  1  0  0  0  0
 42 41  1  0  0  0  0
 42 44  1  0  0  0  0
 43 39  2  0  0  0  0
 44 45  2  0  0  0  0
 44 40  1  0  0  0  0
 46 40  2  0  0  0  0
 47 43  1  0  0  0  0
 47 42  2  0  0  0  0
M  END
>  <MODEL>
1

>  <REMARK>
 VINA RESULT:      -7.5      0.000      0.000
  Name = 
  17 active torsions:
  status: ('A' for Active; 'I' for Inactive)
    1  A    between atoms: C_2  and  C_15
    2  A    between atoms: O_4  and  P_29
    3  A    between atoms: O_4  and  C_37
    4  A    between atoms: C_11  and  C_15
    5  A    between atoms: C_11  and  C_46
    6  A    between atoms: C_12  and  C_22
    7  A    between atoms: C_12  and  C_31
    8  A    between atoms: C_17  and  C_28
    9  A    between atoms: C_20  and  C_25
   10  A    between atoms: C_20  and  P_29
   11  A    between atoms: N_21  and  C_46
   12  A    between atoms: C_22  and  C_28
   13  A    between atoms: C_25  and  C_30
   14  A    between atoms: O_32  and  C_39
   15  A    between atoms: O_32  and  C_46
   16  A    between atoms: C_33  and  C_34
   17  A    between atoms: C_37  and  C_38
                            x       y       z     vdW  Elec       q    Type
                         _______ _______ _______ _____ _____    ______ ____

>  <TORSDO>
F 17

$$$$
=
 OpenBabel11052410383D

 47 51  0  0  1  0  0  0  0  0999 V2000
  161.9390  208.3950  152.0760 C   0  0  2  0  0  3  0  0  0  0  0  0
  161.2730  208.2580  147.9200 C   0  0  0  0  0  1  0  0  0  0  0  0
  162.5140  208.7680  148.6300 C   0  0  2  0  0  3  0  0  0  0  0  0
  162.5070  208.8670  150.8180 N   0  0  0  0  0  0  0  0  0  0  0  0
  162.7360  207.9920  149.7960 O   0  0  0  0  0  0  0  0  0  0  0  0
  162.3030  210.1580  149.1210 C   0  0  0  0  0  0  0  0  0  0  0  0
  162.2890  210.1750  150.3940 N   0  0  0  0  0  0  0  0  0  0  0  0
  163.1900  212.0550  148.0170 O   0  0  0  0  0  0  0  0  0  0  0  0
  162.1700  211.3690  148.2960 C   0  0  0  0  0  0  0  0  0  0  0  0
  160.8340  211.7980  147.7860 C   0  0  0  0  0  2  0  0  0  0  0  0
  161.6430  214.1320  146.6520 O   0  0  0  0  0  0  0  0  0  0  0  0
  161.2240  214.2320  149.2350 O   0  0  0  0  0  1  0  0  0  0  0  0
  160.7290  213.6120  147.7390 P   0  0  2  0  0  0  0  0  0  0  0  0
  159.1270  214.0690  147.4120 O   0  0  0  0  0  0  0  0  0  0  0  0
  158.3710  213.5690  148.4760 C   0  0  0  0  0  2  0  0  0  0  0  0
  157.3000  212.4560  146.5480 C   0  0  0  0  0  1  0  0  0  0  0  0
  157.0770  212.9880  147.9460 C   0  0  0  0  0  2  0  0  0  0  0  0
  160.7810  207.5830  151.8560 O   0  0  0  0  0  0  0  0  0  0  0  0
  161.2040  205.1580  152.4860 C   0  0  0  0  0  2  0  0  0  0  0  0
  160.4130  205.9120  150.2520 C   0  0  0  0  0  3  0  0  0  0  0  0
  160.3940  203.4690  150.8310 C   0  0  2  0  0  3  0  0  0  0  0  0
  160.8090  206.2300  151.4900 C   0  0  0  0  0  0  0  0  0  0  0  0
  160.4530  204.5100  149.7120 C   0  0  0  0  0  2  0  0  0  0  0  0
  161.4970  203.8070  151.8330 C   0  0  0  0  0  2  0  0  0  0  0  0
  160.5750  202.0530  150.2750 C   0  0  2  0  0  3  0  0  0  0  0  0
  162.0300  201.6180  150.3780 C   0  0  0  0  0  1  0  0  0  0  0  0
  160.1490  201.9990  148.8150 C   0  0  0  0  0  2  0  0  0  0  0  0
  161.3430  201.6870  147.9330 C   0  0  0  0  0  2  0  0  0  0  0  0
  161.2290  203.0570  145.7730 N   0  0  0  0  0  2  0  0  0  0  0  0
  162.3440  204.2590  147.4550 O   0  0  0  0  0  0  0  0  0  0  0  0
  160.9720  201.8450  146.4950 C   0  0  0  0  0  0  0  0  0  0  0  0
  161.8730  204.2320  146.2840 C   0  0  0  0  0  0  0  0  0  0  0  0
  160.4390  200.8750  145.8940 O   0  0  0  0  0  0  0  0  0  0  0  0
  160.6680  206.0280  145.0940 C   0  0  0  0  0  2  0  0  0  0  0  0
  162.0300  205.4270  145.3970 C   0  0  0  0  0  3  0  0  0  0  0  0
  161.3600  205.1680  144.0600 C   0  0  0  0  0  2  0  0  0  0  0  0
  161.6240  209.5630  153.0050 C   0  0  0  0  0  2  0  0  0  0  0  0
  160.5670  209.1700  154.0260 C   0  0  0  0  0  2  0  0  0  0  0  0
  159.5950  210.2860  154.2260 C   0  0  0  0  0  0  0  0  0  0  0  0
  157.4200  211.8570  156.8390 C   0  0  0  0  0  3  0  0  0  0  0  0
  156.5930  213.3680  155.1200 S   0  0  0  0  0  0  0  0  0  0  0  0
  157.7250  212.2890  154.5630 C   0  0  0  0  0  0  0  0  0  0  0  0
  159.2090  211.0870  153.1300 C   0  0  0  0  0  3  0  0  0  0  0  0
  158.0870  211.5130  155.6490 C   0  0  0  0  0  0  0  0  0  0  0  0
  159.0260  210.4940  155.4970 C   0  0  0  0  0  3  0  0  0  0  0  0
  156.5380  212.8870  156.7170 N   0  0  0  0  0  0  0  0  0  0  0  0
  158.2600  212.1100  153.2920 C   0  0  0  0  0  3  0  0  0  0  0  0
  1 37  1  1  0  0  0
  3  2  1  1  0  0  0
  3  6  1  0  0  0  0
  3  5  1  0  0  0  0
  4  1  1  0  0  0  0
  5  4  1  0  0  0  0
  6  7  2  0  0  0  0
  7  4  1  0  0  0  0
  8  9  2  0  0  0  0
  9  6  1  0  0  0  0
 10  9  1  0  0  0  0
 13 11  2  6  0  0  0
 13 10  1  0  0  0  0
 13 12  1  0  0  0  0
 14 13  1  0  0  0  0
 14 15  1  0  0  0  0
 16 17  1  0  0  0  0
 17 15  1  0  0  0  0
 18  1  1  0  0  0  0
 20 22  2  0  0  0  0
 21 25  1  6  0  0  0
 21 24  1  0  0  0  0
 22 18  1  0  0  0  0
 22 19  1  0  0  0  0
 23 20  1  0  0  0  0
 23 21  1  0  0  0  0
 24 19  1  0  0  0  0
 25 26  1  6  0  0  0
 27 25  1  0  0  0  0
 28 27  1  0  0  0  0
 29 32  1  0  0  0  0
 29 31  1  0  0  0  0
 31 28  1  0  0  0  0
 32 30  2  0  0  0  0
 33 31  2  0  0  0  0
 34 35  1  0  0  0  0
 35 32  1  0  0  0  0
 36 34  1  0  0  0  0
 36 35  1  0  0  0  0
 37 38  1  0  0  0  0
 38 39  1  0  0  0  0
 39 45  1  0  0  0  0
 41 46  1  0  0  0  0
 42 41  1  0  0  0  0
 42 44  1  0  0  0  0
 43 47  1  0  0  0  0
 43 39  2  0  0  0  0
 44 40  1  0  0  0  0
 45 44  2  0  0  0  0
 46 40  2  0  0  0  0
 47 42  2  0  0  0  0
M  END
>  <MODEL>
2

>  <REMARK>
 VINA RESULT:      -7.5      4.173      8.817
  Name = 
  17 active torsions:
  status: ('A' for Active; 'I' for Inactive)
    1  A    between atoms: C_2  and  C_15
    2  A    between atoms: O_4  and  P_29
    3  A    between atoms: O_4  and  C_37
    4  A    between atoms: C_11  and  C_15
    5  A    between atoms: C_11  and  C_46
    6  A    between atoms: C_12  and  C_22
    7  A    between atoms: C_12  and  C_31
    8  A    between atoms: C_17  and  C_28
    9  A    between atoms: C_20  and  C_25
   10  A    between atoms: C_20  and  P_29
   11  A    between atoms: N_21  and  C_46
   12  A    between atoms: C_22  and  C_28
   13  A    between atoms: C_25  and  C_30
   14  A    between atoms: O_32  and  C_39
   15  A    between atoms: O_32  and  C_46
   16  A    between atoms: C_33  and  C_34
   17  A    between atoms: C_37  and  C_38
                            x       y       z     vdW  Elec       q    Type
                         _______ _______ _______ _____ _____    ______ ____

>  <TORSDO>
F 17

$$$$
=
 OpenBabel11052410383D

 47 51  0  0  1  0  0  0  0  0999 V2000
  161.7840  208.2170  152.1960 C   0  0  2  0  0  3  0  0  0  0  0  0
  161.3650  208.4890  148.0150 C   0  0  0  0  0  1  0  0  0  0  0  0
  162.5530  208.9400  148.8460 C   0  0  2  0  0  3  0  0  0  0  0  0
  162.4160  208.8200  151.0280 N   0  0  0  0  0  0  0  0  0  0  0  0
  162.7210  208.0550  149.9400 O   0  0  0  0  0  0  0  0  0  0  0  0
  162.2880  210.2720  149.4580 C   0  0  0  0  0  0  0  0  0  0  0  0
  162.1980  210.1610  150.7240 N   0  0  0  0  0  0  0  0  0  0  0  0
  163.0440  211.8750  147.8890 O   0  0  0  0  0  0  0  0  0  0  0  0
  162.1800  211.5570  148.7510 C   0  0  0  0  0  0  0  0  0  0  0  0
  161.0560  212.4940  149.0450 C   0  0  0  0  0  2  0  0  0  0  0  0
  159.0370  213.8110  147.7890 O   0  0  0  0  0  1  0  0  0  0  0  0
  160.1670  211.9060  146.3910 O   0  0  0  0  0  0  0  0  0  0  0  0
  160.3760  213.1690  147.5000 P   0  0  2  0  0  0  0  0  0  0  0  0
  161.4480  214.3290  146.8780 O   0  0  0  0  0  0  0  0  0  0  0  0
  161.3800  214.1940  145.4880 C   0  0  0  0  0  2  0  0  0  0  0  0
  162.5930  212.9730  143.7150 C   0  0  0  0  0  1  0  0  0  0  0  0
  162.7480  213.8330  144.9490 C   0  0  0  0  0  2  0  0  0  0  0  0
  160.6540  207.4190  151.8280 O   0  0  0  0  0  0  0  0  0  0  0  0
  161.0650  204.9830  152.4270 C   0  0  0  0  0  2  0  0  0  0  0  0
  160.3980  205.7810  150.1680 C   0  0  0  0  0  3  0  0  0  0  0  0
  160.3690  203.3260  150.6900 C   0  0  2  0  0  3  0  0  0  0  0  0
  160.7170  206.0740  151.4340 C   0  0  0  0  0  0  0  0  0  0  0  0
  160.4830  204.3930  149.6000 C   0  0  0  0  0  2  0  0  0  0  0  0
  161.4080  203.6500  151.7630 C   0  0  0  0  0  2  0  0  0  0  0  0
  160.5960  201.9250  150.1140 C   0  0  2  0  0  3  0  0  0  0  0  0
  162.0730  201.5580  150.1600 C   0  0  0  0  0  1  0  0  0  0  0  0
  160.1200  201.8620  148.6700 C   0  0  0  0  0  2  0  0  0  0  0  0
  161.2650  201.4600  147.7590 C   0  0  0  0  0  2  0  0  0  0  0  0
  161.1630  202.9410  145.6720 N   0  0  0  0  0  2  0  0  0  0  0  0
  162.3040  204.0370  147.4090 O   0  0  0  0  0  0  0  0  0  0  0  0
  160.8910  201.6970  146.3330 C   0  0  0  0  0  0  0  0  0  0  0  0
  161.8280  204.0780  146.2400 C   0  0  0  0  0  0  0  0  0  0  0  0
  160.3400  200.7680  145.6850 O   0  0  0  0  0  0  0  0  0  0  0  0
  160.6760  206.0510  145.3040 C   0  0  0  0  0  2  0  0  0  0  0  0
  162.0000  205.3140  145.4150 C   0  0  0  0  0  3  0  0  0  0  0  0
  161.1690  205.2080  144.1490 C   0  0  0  0  0  2  0  0  0  0  0  0
  161.3960  209.2810  153.2180 C   0  0  0  0  0  2  0  0  0  0  0  0
  160.2180  210.1030  152.7180 C   0  0  0  0  0  2  0  0  0  0  0  0
  159.4200  210.6230  153.8680 C   0  0  0  0  0  0  0  0  0  0  0  0
  156.4020  212.6950  154.6560 C   0  0  0  0  0  3  0  0  0  0  0  0
  156.9430  212.4340  157.0130 S   0  0  0  0  0  0  0  0  0  0  0  0
  158.0080  211.6630  156.0010 C   0  0  0  0  0  0  0  0  0  0  0  0
  159.8570  210.3890  155.1900 C   0  0  0  0  0  3  0  0  0  0  0  0
  157.5650  211.9070  154.7140 C   0  0  0  0  0  0  0  0  0  0  0  0
  158.2680  211.3940  153.6250 C   0  0  0  0  0  3  0  0  0  0  0  0
  155.9160  213.0810  155.8680 N   0  0  0  0  0  0  0  0  0  0  0  0
  159.1450  210.9120  156.2810 C   0  0  0  0  0  3  0  0  0  0  0  0
  1 37  1  1  0  0  0
  3  2  1  6  0  0  0
  3  6  1  0  0  0  0
  3  5  1  0  0  0  0
  4  1  1  0  0  0  0
  5  4  1  0  0  0  0
  6  7  2  0  0  0  0
  7  4  1  0  0  0  0
  8  9  2  0  0  0  0
  9 10  1  0  0  0  0
  9  6  1  0  0  0  0
 13 12  2  6  0  0  0
 13 11  1  0  0  0  0
 13 10  1  0  0  0  0
 14 13  1  0  0  0  0
 15 14  1  0  0  0  0
 16 17  1  0  0  0  0
 17 15  1  0  0  0  0
 18  1  1  0  0  0  0
 20 22  2  0  0  0  0
 21 25  1  6  0  0  0
 21 24  1  0  0  0  0
 22 18  1  0  0  0  0
 22 19  1  0  0  0  0
 23 20  1  0  0  0  0
 23 21  1  0  0  0  0
 24 19  1  0  0  0  0
 25 26  1  6  0  0  0
 27 25  1  0  0  0  0
 28 27  1  0  0  0  0
 29 32  1  0  0  0  0
 29 31  1  0  0  0  0
 31 28  1  0  0  0  0
 32 30  2  0  0  0  0
 33 31  2  0  0  0  0
 34 35  1  0  0  0  0
 35 32  1  0  0  0  0
 36 34  1  0  0  0  0
 36 35  1  0  0  0  0
 38 37  1  0  0  0  0
 38 39  1  0  0  0  0
 39 43  1  0  0  0  0
 40 44  1  0  0  0  0
 40 46  2  0  0  0  0
 42 47  1  0  0  0  0
 42 41  1  0  0  0  0
 43 47  2  0  0  0  0
 44 42  2  0  0  0  0
 45 39  2  0  0  0  0
 45 44  1  0  0  0  0
 46 41  1  0  0  0  0
M  END
>  <MODEL>
3

>  <REMARK>
 VINA RESULT:      -7.3      3.781      9.095
  Name = 
  17 active torsions:
  status: ('A' for Active; 'I' for Inactive)
    1  A    between atoms: C_2  and  C_15
    2  A    between atoms: O_4  and  P_29
    3  A    between atoms: O_4  and  C_37
    4  A    between atoms: C_11  and  C_15
    5  A    between atoms: C_11  and  C_46
    6  A    between atoms: C_12  and  C_22
    7  A    between atoms: C_12  and  C_31
    8  A    between atoms: C_17  and  C_28
    9  A    between atoms: C_20  and  C_25
   10  A    between atoms: C_20  and  P_29
   11  A    between atoms: N_21  and  C_46
   12  A    between atoms: C_22  and  C_28
   13  A    between atoms: C_25  and  C_30
   14  A    between atoms: O_32  and  C_39
   15  A    between atoms: O_32  and  C_46
   16  A    between atoms: C_33  and  C_34
   17  A    between atoms: C_37  and  C_38
                            x       y       z     vdW  Elec       q    Type
                         _______ _______ _______ _____ _____    ______ ____

>  <TORSDO>
F 17

$$$$
=
 OpenBabel11052410383D

 47 51  0  0  1  0  0  0  0  0999 V2000
  161.6090  209.6640  150.6640 C   0  0  2  0  0  3  0  0  0  0  0  0
  160.8600  207.7220  154.3250 C   0  0  0  0  0  1  0  0  0  0  0  0
  160.3560  209.0890  153.8950 C   0  0  2  0  0  3  0  0  0  0  0  0
  161.0490  209.9120  151.9880 N   0  0  0  0  0  0  0  0  0  0  0  0
  160.1010  209.0750  152.5010 O   0  0  0  0  0  0  0  0  0  0  0  0
  161.4130  210.1210  154.0880 C   0  0  0  0  0  0  0  0  0  0  0  0
  161.8020  210.5640  152.9590 N   0  0  0  0  0  0  0  0  0  0  0  0
  163.1530  210.9030  155.4890 O   0  0  0  0  0  0  0  0  0  0  0  0
  161.9310  210.6170  155.3730 C   0  0  0  0  0  0  0  0  0  0  0  0
  161.0230  210.7840  156.5450 C   0  0  0  0  0  2  0  0  0  0  0  0
  159.9780  212.6460  154.8640 O   0  0  0  0  0  0  0  0  0  0  0  0
  160.5780  213.5170  157.2610 O   0  0  0  0  0  1  0  0  0  0  0  0
  159.9660  212.2460  156.3230 P   0  0  2  0  0  0  0  0  0  0  0  0
  158.3830  211.8680  156.8030 O   0  0  0  0  0  0  0  0  0  0  0  0
  157.5550  212.7260  156.0720 C   0  0  0  0  0  2  0  0  0  0  0  0
  155.9150  211.0400  155.3180 C   0  0  0  0  0  1  0  0  0  0  0  0
  157.0020  211.9910  154.8700 C   0  0  0  0  0  2  0  0  0  0  0  0
  162.4910  208.5370  150.6700 O   0  0  0  0  0  0  0  0  0  0  0  0
  162.6560  206.2630  151.7920 C   0  0  0  0  0  2  0  0  0  0  0  0
  161.1170  206.7930  149.9130 C   0  0  0  0  0  3  0  0  0  0  0  0
  160.8700  204.6310  151.1650 C   0  0  2  0  0  3  0  0  0  0  0  0
  162.0800  207.1980  150.7490 C   0  0  0  0  0  0  0  0  0  0  0  0
  160.6290  205.3730  149.8490 C   0  0  0  0  0  2  0  0  0  0  0  0
  162.3480  204.7900  151.5200 C   0  0  0  0  0  2  0  0  0  0  0  0
  160.4950  203.1510  151.0380 C   0  0  2  0  0  3  0  0  0  0  0  0
  161.6390  202.2640  151.5100 C   0  0  0  0  0  1  0  0  0  0  0  0
  160.1740  202.8080  149.5900 C   0  0  0  0  0  2  0  0  0  0  0  0
  161.3870  202.1950  148.9170 C   0  0  0  0  0  2  0  0  0  0  0  0
  161.1740  202.5600  146.3910 N   0  0  0  0  0  2  0  0  0  0  0  0
  162.1360  204.4410  147.4190 O   0  0  0  0  0  0  0  0  0  0  0  0
  161.0270  201.7230  147.5470 C   0  0  0  0  0  0  0  0  0  0  0  0
  161.6900  203.8980  146.3700 C   0  0  0  0  0  0  0  0  0  0  0  0
  160.6040  200.5460  147.4000 O   0  0  0  0  0  0  0  0  0  0  0  0
  160.7400  205.7860  145.0930 C   0  0  0  0  0  2  0  0  0  0  0  0
  161.7430  204.6430  145.0740 C   0  0  0  0  0  3  0  0  0  0  0  0
  160.4160  204.5100  144.3480 C   0  0  0  0  0  2  0  0  0  0  0  0
  162.3090  210.9080  150.1260 C   0  0  0  0  0  2  0  0  0  0  0  0
  161.2970  211.9880  149.7770 C   0  0  0  0  0  2  0  0  0  0  0  0
  161.4310  212.3840  148.3440 C   0  0  0  0  0  0  0  0  0  0  0  0
  159.4980  212.5230  145.1390 C   0  0  0  0  0  3  0  0  0  0  0  0
  161.5270  213.3050  144.0480 S   0  0  0  0  0  0  0  0  0  0  0  0
  161.7160  213.0250  145.6730 C   0  0  0  0  0  0  0  0  0  0  0  0
  162.6770  212.8250  147.8490 C   0  0  0  0  0  3  0  0  0  0  0  0
  160.4870  212.5910  146.1360 C   0  0  0  0  0  0  0  0  0  0  0  0
  160.3250  212.2580  147.4810 C   0  0  0  0  0  3  0  0  0  0  0  0
  159.9170  212.8930  143.8970 N   0  0  0  0  0  0  0  0  0  0  0  0
  162.8310  213.1550  146.4930 C   0  0  0  0  0  3  0  0  0  0  0  0
  1 37  1  1  0  0  0
  1 18  1  0  0  0  0
  1  4  1  0  0  0  0
  3  6  1  0  0  0  0
  3  2  1  6  0  0  0
  4  5  1  0  0  0  0
  4  7  1  0  0  0  0
  5  3  1  0  0  0  0
  6  9  1  0  0  0  0
  7  6  2  0  0  0  0
  9  8  2  0  0  0  0
  9 10  1  0  0  0  0
 13 11  2  6  0  0  0
 13 10  1  0  0  0  0
 13 14  1  0  0  0  0
 13 12  1  0  0  0  0
 15 14  1  0  0  0  0
 17 16  1  0  0  0  0
 17 15  1  0  0  0  0
 18 22  1  0  0  0  0
 20 22  2  0  0  0  0
 21 25  1  6  0  0  0
 21 24  1  0  0  0  0
 22 19  1  0  0  0  0
 23 20  1  0  0  0  0
 23 21  1  0  0  0  0
 24 19  1  0  0  0  0
 25 26  1  6  0  0  0
 27 25  1  0  0  0  0
 28 27  1  0  0  0  0
 29 31  1  0  0  0  0
 31 28  1  0  0  0  0
 32 29  1  0  0  0  0
 32 30  2  0  0  0  0
 33 31  2  0  0  0  0
 35 34  1  0  0  0  0
 35 32  1  0  0  0  0
 36 35  1  0  0  0  0
 36 34  1  0  0  0  0
 38 37  1  0  0  0  0
 39 38  1  0  0  0  0
 40 44  1  0  0  0  0
 41 42  1  0  0  0  0
 42 44  2  0  0  0  0
 42 47  1  0  0  0  0
 43 39  1  0  0  0  0
 44 45  1  0  0  0  0
 45 39  2  0  0  0  0
 46 41  1  0  0  0  0
 46 40  2  0  0  0  0
 47 43  2  0  0  0  0
M  END
>  <MODEL>
4

>  <REMARK>
 VINA RESULT:      -7.1      3.425      7.456
  Name = 
  17 active torsions:
  status: ('A' for Active; 'I' for Inactive)
    1  A    between atoms: C_2  and  C_15
    2  A    between atoms: O_4  and  P_29
    3  A    between atoms: O_4  and  C_37
    4  A    between atoms: C_11  and  C_15
    5  A    between atoms: C_11  and  C_46
    6  A    between atoms: C_12  and  C_22
    7  A    between atoms: C_12  and  C_31
    8  A    between atoms: C_17  and  C_28
    9  A    between atoms: C_20  and  C_25
   10  A    between atoms: C_20  and  P_29
   11  A    between atoms: N_21  and  C_46
   12  A    between atoms: C_22  and  C_28
   13  A    between atoms: C_25  and  C_30
   14  A    between atoms: O_32  and  C_39
   15  A    between atoms: O_32  and  C_46
   16  A    between atoms: C_33  and  C_34
   17  A    between atoms: C_37  and  C_38
                            x       y       z     vdW  Elec       q    Type
                         _______ _______ _______ _____ _____    ______ ____

>  <TORSDO>
F 17

$$$$
=
 OpenBabel11052410383D

 47 51  0  0  1  0  0  0  0  0999 V2000
  162.0700  209.5070  150.3900 C   0  0  2  0  0  3  0  0  0  0  0  0
  161.6870  206.6110  153.4240 C   0  0  0  0  0  1  0  0  0  0  0  0
  160.6970  207.7080  153.0770 C   0  0  2  0  0  3  0  0  0  0  0  0
  161.2460  209.1760  151.5480 N   0  0  0  0  0  0  0  0  0  0  0  0
  160.7130  207.9260  151.6770 O   0  0  0  0  0  0  0  0  0  0  0  0
  161.1180  209.0040  153.6790 C   0  0  0  0  0  0  0  0  0  0  0  0
  161.4450  209.8260  152.7620 N   0  0  0  0  0  0  0  0  0  0  0  0
  162.2280  209.5010  155.7090 O   0  0  0  0  0  0  0  0  0  0  0  0
  161.1300  209.3440  155.1100 C   0  0  0  0  0  0  0  0  0  0  0  0
  159.8530  209.5040  155.8650 C   0  0  0  0  0  2  0  0  0  0  0  0
  158.3380  211.0970  154.2670 O   0  0  0  0  0  0  0  0  0  0  0  0
  160.3870  212.2740  155.3970 O   0  0  0  0  0  1  0  0  0  0  0  0
  159.1350  211.1450  155.5510 P   0  0  2  0  0  0  0  0  0  0  0  0
  158.1180  211.5640  156.8440 O   0  0  0  0  0  0  0  0  0  0  0  0
  156.9260  211.9990  156.2560 C   0  0  0  0  0  2  0  0  0  0  0  0
  155.0690  213.2820  157.2600 C   0  0  0  0  0  1  0  0  0  0  0  0
  156.5240  213.3310  156.8550 C   0  0  0  0  0  2  0  0  0  0  0  0
  162.2100  210.9240  150.2360 O   0  0  0  0  0  0  0  0  0  0  0  0
  163.0610  211.7800  148.0000 C   0  0  0  0  0  2  0  0  0  0  0  0
  160.7420  212.1020  148.8360 C   0  0  0  0  0  3  0  0  0  0  0  0
  161.3030  212.6530  146.4530 C   0  0  2  0  0  3  0  0  0  0  0  0
  161.9750  211.6270  149.0450 C   0  0  0  0  0  0  0  0  0  0  0  0
  160.3720  212.9250  147.6350 C   0  0  0  0  0  2  0  0  0  0  0  0
  162.7380  212.8380  146.9440 C   0  0  0  0  0  2  0  0  0  0  0  0
  160.9990  213.5980  145.2850 C   0  0  2  0  0  3  0  0  0  0  0  0
  159.7770  214.4530  145.5900 C   0  0  0  0  0  1  0  0  0  0  0  0
  160.7360  212.8020  144.0150 C   0  0  0  0  0  2  0  0  0  0  0  0
  161.0070  213.6600  142.7940 C   0  0  0  0  0  2  0  0  0  0  0  0
  160.3680  212.4060  140.6540 N   0  0  0  0  0  2  0  0  0  0  0  0
  162.5090  211.7650  141.3790 O   0  0  0  0  0  0  0  0  0  0  0  0
  160.0400  213.3240  141.7070 C   0  0  0  0  0  0  0  0  0  0  0  0
  161.5990  211.6850  140.5070 C   0  0  0  0  0  0  0  0  0  0  0  0
  158.8940  213.8450  141.7300 O   0  0  0  0  0  0  0  0  0  0  0  0
  162.8320  211.3780  138.3900 C   0  0  0  0  0  2  0  0  0  0  0  0
  161.7870  210.7890  139.3240 C   0  0  0  0  0  3  0  0  0  0  0  0
  161.3630  211.5120  138.0580 C   0  0  0  0  0  2  0  0  0  0  0  0
  161.5130  208.8680  149.1230 C   0  0  0  0  0  2  0  0  0  0  0  0
  162.5800  208.0420  148.4220 C   0  0  0  0  0  2  0  0  0  0  0  0
  162.1430  206.6190  148.3020 C   0  0  0  0  0  0  0  0  0  0  0  0
  160.6810  203.8140  150.3070 C   0  0  0  0  0  3  0  0  0  0  0  0
  160.9070  202.4030  148.3380 S   0  0  0  0  0  0  0  0  0  0  0  0
  161.4290  203.9600  148.0990 C   0  0  0  0  0  0  0  0  0  0  0  0
  162.3340  205.9240  147.0880 C   0  0  0  0  0  3  0  0  0  0  0  0
  161.2360  204.6210  149.2980 C   0  0  0  0  0  0  0  0  0  0  0  0
  161.5950  205.9630  149.4210 C   0  0  0  0  0  3  0  0  0  0  0  0
  160.4320  202.5290  149.9330 N   0  0  0  0  0  0  0  0  0  0  0  0
  161.9730  204.5720  146.9750 C   0  0  0  0  0  3  0  0  0  0  0  0
  1 37  1  6  0  0  0
  1  4  1  0  0  0  0
  3  2  1  6  0  0  0
  3  6  1  0  0  0  0
  4  5  1  0  0  0  0
  4  7  1  0  0  0  0
  5  3  1  0  0  0  0
  6  9  1  0  0  0  0
  7  6  2  0  0  0  0
  9  8  2  0  0  0  0
  9 10  1  0  0  0  0
 12 13  1  0  0  0  0
 13 11  2  6  0  0  0
 13 10  1  0  0  0  0
 13 14  1  0  0  0  0
 15 14  1  0  0  0  0
 15 17  1  0  0  0  0
 17 16  1  0  0  0  0
 18  1  1  0  0  0  0
 19 22  1  0  0  0  0
 20 22  2  0  0  0  0
 21 25  1  6  0  0  0
 21 24  1  0  0  0  0
 21 23  1  0  0  0  0
 22 18  1  0  0  0  0
 23 20  1  0  0  0  0
 24 19  1  0  0  0  0
 25 26  1  1  0  0  0
 27 25  1  0  0  0  0
 28 27  1  0  0  0  0
 29 31  1  0  0  0  0
 31 33  2  0  0  0  0
 31 28  1  0  0  0  0
 32 29  1  0  0  0  0
 32 30  2  0  0  0  0
 34 35  1  0  0  0  0
 35 32  1  0  0  0  0
 36 34  1  0  0  0  0
 36 35  1  0  0  0  0
 38 37  1  0  0  0  0
 39 38  1  0  0  0  0
 39 45  1  0  0  0  0
 41 46  1  0  0  0  0
 42 41  1  0  0  0  0
 42 44  1  0  0  0  0
 43 39  2  0  0  0  0
 44 45  2  0  0  0  0
 44 40  1  0  0  0  0
 46 40  2  0  0  0  0
 47 43  1  0  0  0  0
 47 42  2  0  0  0  0
M  END
>  <MODEL>
5

>  <REMARK>
 VINA RESULT:      -6.6      1.592      2.080
  Name = 
  17 active torsions:
  status: ('A' for Active; 'I' for Inactive)
    1  A    between atoms: C_2  and  C_15
    2  A    between atoms: O_4  and  P_29
    3  A    between atoms: O_4  and  C_37
    4  A    between atoms: C_11  and  C_15
    5  A    between atoms: C_11  and  C_46
    6  A    between atoms: C_12  and  C_22
    7  A    between atoms: C_12  and  C_31
    8  A    between atoms: C_17  and  C_28
    9  A    between atoms: C_20  and  C_25
   10  A    between atoms: C_20  and  P_29
   11  A    between atoms: N_21  and  C_46
   12  A    between atoms: C_22  and  C_28
   13  A    between atoms: C_25  and  C_30
   14  A    between atoms: O_32  and  C_39
   15  A    between atoms: O_32  and  C_46
   16  A    between atoms: C_33  and  C_34
   17  A    between atoms: C_37  and  C_38
                            x       y       z     vdW  Elec       q    Type
                         _______ _______ _______ _____ _____    ______ ____

>  <TORSDO>
F 17

$$$$
=
 OpenBabel11052410383D

 47 51  0  0  1  0  0  0  0  0999 V2000
  161.5850  207.4700  152.6510 C   0  0  2  0  0  3  0  0  0  0  0  0
  161.5770  208.0490  148.4800 C   0  0  0  0  0  1  0  0  0  0  0  0
  162.5780  208.6040  149.4780 C   0  0  2  0  0  3  0  0  0  0  0  0
  162.2290  208.2670  151.6130 N   0  0  0  0  0  0  0  0  0  0  0  0
  162.7720  207.6600  150.5180 O   0  0  0  0  0  0  0  0  0  0  0  0
  162.0320  209.8170  150.1480 C   0  0  0  0  0  0  0  0  0  0  0  0
  161.8270  209.5790  151.3830 N   0  0  0  0  0  0  0  0  0  0  0  0
  160.9970  211.9440  150.0720 O   0  0  0  0  0  0  0  0  0  0  0  0
  161.7890  211.1280  149.5270 C   0  0  0  0  0  0  0  0  0  0  0  0
  162.4700  211.5050  148.2540 C   0  0  0  0  0  2  0  0  0  0  0  0
  162.3210  214.2060  147.9940 O   0  0  0  0  0  1  0  0  0  0  0  0
  160.0220  212.9520  147.9590 O   0  0  0  0  0  0  0  0  0  0  0  0
  161.6520  212.9430  147.5000 P   0  0  2  0  0  0  0  0  0  0  0  0
  161.7890  212.8420  145.8120 O   0  0  0  0  0  0  0  0  0  0  0  0
  162.2380  214.0990  145.3970 C   0  0  0  0  0  2  0  0  0  0  0  0
  162.3280  213.1020  143.1390 C   0  0  0  0  0  1  0  0  0  0  0  0
  163.0750  213.9480  144.1440 C   0  0  0  0  0  2  0  0  0  0  0  0
  160.4790  206.7260  152.1290 O   0  0  0  0  0  0  0  0  0  0  0  0
  160.8320  204.2210  152.3770 C   0  0  0  0  0  2  0  0  0  0  0  0
  160.3660  205.3670  150.2200 C   0  0  0  0  0  3  0  0  0  0  0  0
  160.2880  202.8620  150.3520 C   0  0  2  0  0  3  0  0  0  0  0  0
  160.5740  205.4570  151.5390 C   0  0  0  0  0  0  0  0  0  0  0  0
  160.4980  204.0820  149.4530 C   0  0  0  0  0  2  0  0  0  0  0  0
  161.2300  203.0010  151.5460 C   0  0  0  0  0  2  0  0  0  0  0  0
  160.5630  201.5630  149.5870 C   0  0  2  0  0  3  0  0  0  0  0  0
  162.0580  201.2780  149.5320 C   0  0  0  0  0  1  0  0  0  0  0  0
  160.0300  201.6620  148.1650 C   0  0  0  0  0  2  0  0  0  0  0  0
  161.1360  201.3640  147.1700 C   0  0  0  0  0  2  0  0  0  0  0  0
  161.0140  203.1030  145.2940 N   0  0  0  0  0  2  0  0  0  0  0  0
  162.2520  203.9330  147.1100 O   0  0  0  0  0  0  0  0  0  0  0  0
  160.7220  201.7940  145.8010 C   0  0  0  0  0  0  0  0  0  0  0  0
  161.7380  204.1370  145.9750 C   0  0  0  0  0  0  0  0  0  0  0  0
  160.1170  200.9720  145.0630 O   0  0  0  0  0  0  0  0  0  0  0  0
  160.5850  206.1670  145.1720 C   0  0  0  0  0  2  0  0  0  0  0  0
  161.9250  205.4630  145.3070 C   0  0  0  0  0  3  0  0  0  0  0  0
  161.1980  205.4760  143.9750 C   0  0  0  0  0  2  0  0  0  0  0  0
  161.1540  208.3450  153.8240 C   0  0  0  0  0  2  0  0  0  0  0  0
  161.9710  209.6280  153.8680 C   0  0  0  0  0  2  0  0  0  0  0  0
  161.2960  210.6470  154.7240 C   0  0  0  0  0  0  0  0  0  0  0  0
  158.7330  213.3730  154.5850 C   0  0  0  0  0  3  0  0  0  0  0  0
  159.2330  213.8460  156.9190 S   0  0  0  0  0  0  0  0  0  0  0  0
  160.1240  212.5940  156.2920 C   0  0  0  0  0  0  0  0  0  0  0  0
  161.6910  210.8070  156.0710 C   0  0  0  0  0  3  0  0  0  0  0  0
  159.7260  212.4560  154.9750 C   0  0  0  0  0  0  0  0  0  0  0  0
  160.3090  211.4820  154.1670 C   0  0  0  0  0  3  0  0  0  0  0  0
  158.3390  214.2340  155.5640 N   0  0  0  0  0  0  0  0  0  0  0  0
  161.1000  211.7930  156.8760 C   0  0  0  0  0  3  0  0  0  0  0  0
  1 37  1  1  0  0  0
  3  2  1  6  0  0  0
  3  6  1  0  0  0  0
  3  5  1  0  0  0  0
  4  1  1  0  0  0  0
  5  4  1  0  0  0  0
  6  7  2  0  0  0  0
  7  4  1  0  0  0  0
  9  8  2  0  0  0  0
  9  6  1  0  0  0  0
 10  9  1  0  0  0  0
 13 12  2  1  0  0  0
 13 11  1  0  0  0  0
 13 10  1  0  0  0  0
 14 13  1  0  0  0  0
 15 14  1  0  0  0  0
 16 17  1  0  0  0  0
 17 15  1  0  0  0  0
 18  1  1  0  0  0  0
 20 22  2  0  0  0  0
 21 25  1  6  0  0  0
 21 24  1  0  0  0  0
 22 18  1  0  0  0  0
 22 19  1  0  0  0  0
 23 20  1  0  0  0  0
 23 21  1  0  0  0  0
 24 19  1  0  0  0  0
 25 26  1  6  0  0  0
 27 25  1  0  0  0  0
 28 27  1  0  0  0  0
 29 31  1  0  0  0  0
 29 32  1  0  0  0  0
 31 28  1  0  0  0  0
 32 30  2  0  0  0  0
 33 31  2  0  0  0  0
 34 35  1  0  0  0  0
 35 32  1  0  0  0  0
 36 34  1  0  0  0  0
 36 35  1  0  0  0  0
 37 38  1  0  0  0  0
 38 39  1  0  0  0  0
 39 43  1  0  0  0  0
 40 44  1  0  0  0  0
 40 46  2  0  0  0  0
 42 47  1  0  0  0  0
 42 41  1  0  0  0  0
 43 47  2  0  0  0  0
 44 42  2  0  0  0  0
 45 39  2  0  0  0  0
 45 44  1  0  0  0  0
 46 41  1  0  0  0  0
M  END
>  <MODEL>
6

>  <REMARK>
 VINA RESULT:      -6.5      3.806      9.154
  Name = 
  17 active torsions:
  status: ('A' for Active; 'I' for Inactive)
    1  A    between atoms: C_2  and  C_15
    2  A    between atoms: O_4  and  P_29
    3  A    between atoms: O_4  and  C_37
    4  A    between atoms: C_11  and  C_15
    5  A    between atoms: C_11  and  C_46
    6  A    between atoms: C_12  and  C_22
    7  A    between atoms: C_12  and  C_31
    8  A    between atoms: C_17  and  C_28
    9  A    between atoms: C_20  and  C_25
   10  A    between atoms: C_20  and  P_29
   11  A    between atoms: N_21  and  C_46
   12  A    between atoms: C_22  and  C_28
   13  A    between atoms: C_25  and  C_30
   14  A    between atoms: O_32  and  C_39
   15  A    between atoms: O_32  and  C_46
   16  A    between atoms: C_33  and  C_34
   17  A    between atoms: C_37  and  C_38
                            x       y       z     vdW  Elec       q    Type
                         _______ _______ _______ _____ _____    ______ ____

>  <TORSDO>
F 17

$$$$
=
 OpenBabel11052410383D

 47 51  0  0  1  0  0  0  0  0999 V2000
  160.8490  209.3970  151.4080 C   0  0  2  0  0  3  0  0  0  0  0  0
  162.2250  210.6610  155.1820 C   0  0  0  0  0  1  0  0  0  0  0  0
  160.9820  209.8400  154.8910 C   0  0  2  0  0  3  0  0  0  0  0  0
  160.4300  209.4730  152.8040 N   0  0  0  0  0  0  0  0  0  0  0  0
  161.2360  208.9830  153.7900 O   0  0  0  0  0  0  0  0  0  0  0  0
  159.8640  210.7200  154.4510 C   0  0  0  0  0  0  0  0  0  0  0  0
  159.5820  210.4910  153.2300 N   0  0  0  0  0  0  0  0  0  0  0  0
  159.7730  212.5550  155.9430 O   0  0  0  0  0  0  0  0  0  0  0  0
  159.1350  211.6940  155.2780 C   0  0  0  0  0  0  0  0  0  0  0  0
  157.6450  211.6730  155.3420 C   0  0  0  0  0  2  0  0  0  0  0  0
  157.0120  214.1490  156.2680 O   0  0  0  0  0  1  0  0  0  0  0  0
  155.3720  213.1750  154.4730 O   0  0  0  0  0  0  0  0  0  0  0  0
  156.9740  213.3270  154.9980 P   0  0  2  0  0  0  0  0  0  0  0  0
  157.9190  214.0740  153.8020 O   0  0  0  0  0  0  0  0  0  0  0  0
  157.1290  214.0740  152.6480 C   0  0  0  0  0  2  0  0  0  0  0  0
  157.4870  213.9300  150.2080 C   0  0  0  0  0  1  0  0  0  0  0  0
  157.8470  213.3240  151.5460 C   0  0  0  0  0  2  0  0  0  0  0  0
  161.3970  208.1130  151.0940 O   0  0  0  0  0  0  0  0  0  0  0  0
  162.7020  207.8640  148.9280 C   0  0  0  0  0  2  0  0  0  0  0  0
  160.5240  206.7580  149.3900 C   0  0  0  0  0  3  0  0  0  0  0  0
  161.8680  206.0920  147.3770 C   0  0  2  0  0  3  0  0  0  0  0  0
  161.4970  207.5790  149.8010 C   0  0  0  0  0  0  0  0  0  0  0  0
  160.4770  206.1680  148.0090 C   0  0  0  0  0  2  0  0  0  0  0  0
  162.4900  207.4840  147.4630 C   0  0  0  0  0  2  0  0  0  0  0  0
  161.7850  205.6190  145.9220 C   0  0  2  0  0  3  0  0  0  0  0  0
  160.4700  206.0520  145.2890 C   0  0  0  0  0  1  0  0  0  0  0  0
  161.8860  204.1010  145.8510 C   0  0  0  0  0  2  0  0  0  0  0  0
  160.5080  203.4940  145.6620 C   0  0  0  0  0  2  0  0  0  0  0  0
  160.8190  201.3310  146.9970 N   0  0  0  0  0  2  0  0  0  0  0  0
  160.8380  203.1940  148.4280 O   0  0  0  0  0  0  0  0  0  0  0  0
  160.5890  202.0060  145.7520 C   0  0  0  0  0  0  0  0  0  0  0  0
  160.9690  201.9460  148.2840 C   0  0  0  0  0  0  0  0  0  0  0  0
  160.4280  201.3230  144.7070 O   0  0  0  0  0  0  0  0  0  0  0  0
  159.9770  200.9610  150.3190 C   0  0  0  0  0  2  0  0  0  0  0  0
  161.2380  201.0890  149.4800 C   0  0  0  0  0  3  0  0  0  0  0  0
  161.0760  201.9080  150.7480 C   0  0  0  0  0  2  0  0  0  0  0  0
  161.8340  210.5120  151.0720 C   0  0  0  0  0  2  0  0  0  0  0  0
  161.0960  211.7890  150.6980 C   0  0  0  0  0  2  0  0  0  0  0  0
  161.4930  212.2390  149.3310 C   0  0  0  0  0  0  0  0  0  0  0  0
  160.2460  214.2210  146.4090 C   0  0  0  0  0  3  0  0  0  0  0  0
  162.2810  213.6030  145.2290 S   0  0  0  0  0  0  0  0  0  0  0  0
  162.1940  212.9830  146.7660 C   0  0  0  0  0  0  0  0  0  0  0  0
  162.7140  211.8000  148.7730 C   0  0  0  0  0  3  0  0  0  0  0  0
  160.9920  213.4210  147.2920 C   0  0  0  0  0  0  0  0  0  0  0  0
  160.6200  213.0520  148.5840 C   0  0  0  0  0  3  0  0  0  0  0  0
  160.8290  214.4240  145.1960 N   0  0  0  0  0  0  0  0  0  0  0  0
  163.0800  212.1750  147.4710 C   0  0  0  0  0  3  0  0  0  0  0  0
  1 37  1  1  0  0  0
  1  4  1  0  0  0  0
  3  2  1  6  0  0  0
  4  7  1  0  0  0  0
  4  5  1  0  0  0  0
  5  3  1  0  0  0  0
  6  3  1  0  0  0  0
  6  9  1  0  0  0  0
  7  6  2  0  0  0  0
  9 10  1  0  0  0  0
  9  8  2  0  0  0  0
 13 12  2  6  0  0  0
 13 10  1  0  0  0  0
 13 11  1  0  0  0  0
 14 13  1  0  0  0  0
 15 14  1  0  0  0  0
 16 17  1  0  0  0  0
 17 15  1  0  0  0  0
 18  1  1  0  0  0  0
 19 22  1  0  0  0  0
 20 22  2  0  0  0  0
 21 25  1  6  0  0  0
 21 24  1  0  0  0  0
 21 23  1  0  0  0  0
 22 18  1  0  0  0  0
 23 20  1  0  0  0  0
 24 19  1  0  0  0  0
 25 26  1  1  0  0  0
 27 25  1  0  0  0  0
 28 31  1  0  0  0  0
 28 27  1  0  0  0  0
 29 32  1  0  0  0  0
 31 29  1  0  0  0  0
 32 30  2  0  0  0  0
 32 35  1  0  0  0  0
 33 31  2  0  0  0  0
 34 36  1  0  0  0  0
 35 34  1  0  0  0  0
 35 36  1  0  0  0  0
 38 37  1  0  0  0  0
 39 38  1  0  0  0  0
 40 44  1  0  0  0  0
 41 42  1  0  0  0  0
 42 44  2  0  0  0  0
 42 47  1  0  0  0  0
 43 39  1  0  0  0  0
 44 45  1  0  0  0  0
 45 39  2  0  0  0  0
 46 41  1  0  0  0  0
 46 40  2  0  0  0  0
 47 43  2  0  0  0  0
M  END
>  <MODEL>
7

>  <REMARK>
 VINA RESULT:      -6.0      3.734      7.799
  Name = 
  17 active torsions:
  status: ('A' for Active; 'I' for Inactive)
    1  A    between atoms: C_2  and  C_15
    2  A    between atoms: O_4  and  P_29
    3  A    between atoms: O_4  and  C_37
    4  A    between atoms: C_11  and  C_15
    5  A    between atoms: C_11  and  C_46
    6  A    between atoms: C_12  and  C_22
    7  A    between atoms: C_12  and  C_31
    8  A    between atoms: C_17  and  C_28
    9  A    between atoms: C_20  and  C_25
   10  A    between atoms: C_20  and  P_29
   11  A    between atoms: N_21  and  C_46
   12  A    between atoms: C_22  and  C_28
   13  A    between atoms: C_25  and  C_30
   14  A    between atoms: O_32  and  C_39
   15  A    between atoms: O_32  and  C_46
   16  A    between atoms: C_33  and  C_34
   17  A    between atoms: C_37  and  C_38
                            x       y       z     vdW  Elec       q    Type
                         _______ _______ _______ _____ _____    ______ ____

>  <TORSDO>
F 17

$$$$
=
 OpenBabel11052410383D

 47 51  0  0  1  0  0  0  0  0999 V2000
  159.7650  212.9550  150.5750 C   0  0  2  0  0  3  0  0  0  0  0  0
  155.6880  213.5380  151.4550 C   0  0  0  0  0  1  0  0  0  0  0  0
  156.8430  214.4530  151.8210 C   0  0  2  0  0  3  0  0  0  0  0  0
  158.8840  213.8030  151.3700 N   0  0  0  0  0  0  0  0  0  0  0  0
  157.8130  214.4170  150.7890 O   0  0  0  0  0  0  0  0  0  0  0  0
  157.5440  213.9510  153.0350 C   0  0  0  0  0  0  0  0  0  0  0  0
  158.7210  213.5670  152.7320 N   0  0  0  0  0  0  0  0  0  0  0  0
  155.8350  214.3060  154.6330 O   0  0  0  0  0  0  0  0  0  0  0  0
  157.0140  213.9220  154.4070 C   0  0  0  0  0  0  0  0  0  0  0  0
  157.8610  213.4430  155.5390 C   0  0  0  0  0  2  0  0  0  0  0  0
  156.8360  211.0650  154.7140 O   0  0  0  0  0  0  0  0  0  0  0  0
  156.4050  211.6540  157.2300 O   0  0  0  0  0  1  0  0  0  0  0  0
  157.4800  211.7070  155.9220 P   0  0  2  0  0  0  0  0  0  0  0  0
  158.9190  210.8930  156.3080 O   0  0  0  0  0  0  0  0  0  0  0  0
  159.9190  211.8700  156.2830 C   0  0  0  0  0  2  0  0  0  0  0  0
  162.0800  210.7240  155.9370 C   0  0  0  0  0  1  0  0  0  0  0  0
  161.1610  211.3380  156.9680 C   0  0  0  0  0  2  0  0  0  0  0  0
  160.8200  212.4040  151.3700 O   0  0  0  0  0  0  0  0  0  0  0  0
  159.7460  210.4600  152.6050 C   0  0  0  0  0  2  0  0  0  0  0  0
  161.9460  210.3470  151.4520 C   0  0  0  0  0  3  0  0  0  0  0  0
  160.8500  208.2430  152.2710 C   0  0  2  0  0  3  0  0  0  0  0  0
  160.8810  211.0740  151.8110 C   0  0  0  0  0  0  0  0  0  0  0  0
  162.1660  208.9320  151.9070 C   0  0  0  0  0  2  0  0  0  0  0  0
  160.1230  209.1380  153.2730 C   0  0  0  0  0  2  0  0  0  0  0  0
  161.1030  206.8520  152.8630 C   0  0  2  0  0  3  0  0  0  0  0  0
  161.2640  206.9330  154.3740 C   0  0  0  0  0  1  0  0  0  0  0  0
  162.3660  206.2450  152.2670 C   0  0  0  0  0  2  0  0  0  0  0  0
  162.1240  204.7940  151.8980 C   0  0  0  0  0  2  0  0  0  0  0  0
  160.9130  203.4570  150.0800 N   0  0  0  0  0  2  0  0  0  0  0  0
  161.8350  202.0150  151.6910 O   0  0  0  0  0  0  0  0  0  0  0  0
  161.2980  204.7130  150.6570 C   0  0  0  0  0  0  0  0  0  0  0  0
  161.2220  202.1540  150.5960 C   0  0  0  0  0  0  0  0  0  0  0  0
  160.9080  205.7800  150.1140 O   0  0  0  0  0  0  0  0  0  0  0  0
  161.7290  200.6500  148.7040 C   0  0  0  0  0  2  0  0  0  0  0  0
  160.7670  200.9420  149.8450 C   0  0  0  0  0  3  0  0  0  0  0  0
  160.4040  201.3240  148.4210 C   0  0  0  0  0  2  0  0  0  0  0  0
  160.3200  213.7160  149.3760 C   0  0  0  0  0  2  0  0  0  0  0  0
  161.4960  212.9710  148.7610 C   0  0  0  0  0  2  0  0  0  0  0  0
  161.5850  213.2560  147.2990 C   0  0  0  0  0  0  0  0  0  0  0  0
  159.4580  214.0630  144.3240 C   0  0  0  0  0  3  0  0  0  0  0  0
  161.4750  213.9800  142.9660 S   0  0  0  0  0  0  0  0  0  0  0  0
  161.7490  213.6820  144.5750 C   0  0  0  0  0  0  0  0  0  0  0  0
  162.8320  213.1730  146.6410 C   0  0  0  0  0  3  0  0  0  0  0  0
  160.5170  213.7640  145.1990 C   0  0  0  0  0  0  0  0  0  0  0  0
  160.4150  213.5480  146.5730 C   0  0  0  0  0  3  0  0  0  0  0  0
  159.8240  214.2160  143.0210 N   0  0  0  0  0  0  0  0  0  0  0  0
  162.9250  213.3900  145.2570 C   0  0  0  0  0  3  0  0  0  0  0  0
  1 37  1  6  0  0  0
  1  4  1  0  0  0  0
  1 18  1  0  0  0  0
  3  2  1  6  0  0  0
  3  6  1  0  0  0  0
  4  7  1  0  0  0  0
  5  4  1  0  0  0  0
  5  3  1  0  0  0  0
  6  9  1  0  0  0  0
  7  6  2  0  0  0  0
  9  8  2  0  0  0  0
  9 10  1  0  0  0  0
 10 13  1  0  0  0  0
 13 11  2  6  0  0  0
 13 14  1  0  0  0  0
 13 12  1  0  0  0  0
 15 14  1  0  0  0  0
 15 17  1  0  0  0  0
 16 17  1  0  0  0  0
 18 22  1  0  0  0  0
 19 24  1  0  0  0  0
 20 22  2  0  0  0  0
 20 23  1  0  0  0  0
 21 25  1  1  0  0  0
 21 24  1  0  0  0  0
 22 19  1  0  0  0  0
 23 21  1  0  0  0  0
 25 26  1  1  0  0  0
 27 25  1  0  0  0  0
 28 27  1  0  0  0  0
 29 32  1  0  0  0  0
 29 31  1  0  0  0  0
 31 28  1  0  0  0  0
 32 30  2  0  0  0  0
 33 31  2  0  0  0  0
 34 35  1  0  0  0  0
 35 32  1  0  0  0  0
 36 34  1  0  0  0  0
 36 35  1  0  0  0  0
 38 37  1  0  0  0  0
 39 38  1  0  0  0  0
 40 44  1  0  0  0  0
 41 46  1  0  0  0  0
 41 42  1  0  0  0  0
 42 44  2  0  0  0  0
 42 47  1  0  0  0  0
 43 39  1  0  0  0  0
 44 45  1  0  0  0  0
 45 39  2  0  0  0  0
 46 40  2  0  0  0  0
 47 43  2  0  0  0  0
M  END
>  <MODEL>
8

>  <REMARK>
 VINA RESULT:      -5.7      3.734      8.648
  Name = 
  17 active torsions:
  status: ('A' for Active; 'I' for Inactive)
    1  A    between atoms: C_2  and  C_15
    2  A    between atoms: O_4  and  P_29
    3  A    between atoms: O_4  and  C_37
    4  A    between atoms: C_11  and  C_15
    5  A    between atoms: C_11  and  C_46
    6  A    between atoms: C_12  and  C_22
    7  A    between atoms: C_12  and  C_31
    8  A    between atoms: C_17  and  C_28
    9  A    between atoms: C_20  and  C_25
   10  A    between atoms: C_20  and  P_29
   11  A    between atoms: N_21  and  C_46
   12  A    between atoms: C_22  and  C_28
   13  A    between atoms: C_25  and  C_30
   14  A    between atoms: O_32  and  C_39
   15  A    between atoms: O_32  and  C_46
   16  A    between atoms: C_33  and  C_34
   17  A    between atoms: C_37  and  C_38
                            x       y       z     vdW  Elec       q    Type
                         _______ _______ _______ _____ _____    ______ ____

>  <TORSDO>
F 17

$$$$
=
 OpenBabel11052410383D

 47 51  0  0  1  0  0  0  0  0999 V2000
  162.3600  210.1800  150.0970 C   0  0  2  0  0  3  0  0  0  0  0  0
  160.6970  206.3450  150.6110 C   0  0  0  0  0  1  0  0  0  0  0  0
  162.0160  206.6880  149.9420 C   0  0  2  0  0  3  0  0  0  0  0  0
  162.5440  208.7960  149.6760 N   0  0  0  0  0  0  0  0  0  0  0  0
  162.6010  207.7970  150.6040 O   0  0  0  0  0  0  0  0  0  0  0  0
  161.7920  207.1420  148.5420 C   0  0  0  0  0  0  0  0  0  0  0  0
  162.0930  208.3740  148.4280 N   0  0  0  0  0  0  0  0  0  0  0  0
  161.2920  206.8050  146.2530 O   0  0  0  0  0  0  0  0  0  0  0  0
  161.3320  206.3160  147.4140 C   0  0  0  0  0  0  0  0  0  0  0  0
  160.9080  204.9020  147.6310 C   0  0  0  0  0  2  0  0  0  0  0  0
  163.0080  204.0280  146.1430 O   0  0  0  0  0  1  0  0  0  0  0  0
  160.7560  204.3110  144.8370 O   0  0  0  0  0  0  0  0  0  0  0  0
  161.5130  203.8470  146.2790 P   0  0  2  0  0  0  0  0  0  0  0  0
  161.1600  202.2260  146.6360 O   0  0  0  0  0  0  0  0  0  0  0  0
  160.6230  202.2360  147.9270 C   0  0  0  0  0  2  0  0  0  0  0  0
  160.8740  201.3010  150.2000 C   0  0  0  0  0  1  0  0  0  0  0  0
  161.2720  201.1420  148.7500 C   0  0  0  0  0  2  0  0  0  0  0  0
  161.1200  210.3570  150.7900 O   0  0  0  0  0  0  0  0  0  0  0  0
  159.6790  209.7990  152.8080 C   0  0  0  0  0  2  0  0  0  0  0  0
  162.0140  210.6450  152.9400 C   0  0  0  0  0  3  0  0  0  0  0  0
  160.8800  209.7670  155.0000 C   0  0  2  0  0  3  0  0  0  0  0  0
  160.9650  210.3010  152.1830 C   0  0  0  0  0  0  0  0  0  0  0  0
  161.9640  210.6900  154.4410 C   0  0  0  0  0  2  0  0  0  0  0  0
  159.5690  210.1180  154.2990 C   0  0  0  0  0  2  0  0  0  0  0  0
  160.7490  209.9280  156.5180 C   0  0  2  0  0  3  0  0  0  0  0  0
  161.1180  208.6340  157.2300 C   0  0  0  0  0  1  0  0  0  0  0  0
  159.3220  210.3030  156.8890 C   0  0  0  0  0  2  0  0  0  0  0  0
  159.1730  211.8120  156.9400 C   0  0  0  0  0  2  0  0  0  0  0  0
  157.5190  212.9760  155.3680 N   0  0  0  0  0  2  0  0  0  0  0  0
  159.7080  213.1340  154.5280 O   0  0  0  0  0  0  0  0  0  0  0  0
  157.7860  212.2030  156.5470 C   0  0  0  0  0  0  0  0  0  0  0  0
  158.4880  213.4430  154.4190 C   0  0  0  0  0  0  0  0  0  0  0  0
  156.8220  211.8220  157.2610 O   0  0  0  0  0  0  0  0  0  0  0  0
  157.7590  213.3730  152.0620 C   0  0  0  0  0  2  0  0  0  0  0  0
  158.0370  214.2700  153.2570 C   0  0  0  0  0  3  0  0  0  0  0  0
  159.0460  214.1650  152.1280 C   0  0  0  0  0  2  0  0  0  0  0  0
  162.4660  211.1310  148.9090 C   0  0  0  0  0  2  0  0  0  0  0  0
  161.2650  212.0630  148.8560 C   0  0  0  0  0  2  0  0  0  0  0  0
  161.1570  212.6960  147.5080 C   0  0  0  0  0  0  0  0  0  0  0  0
  159.4000  212.3330  144.2210 C   0  0  0  0  0  3  0  0  0  0  0  0
  160.7110  214.2150  143.4090 S   0  0  0  0  0  0  0  0  0  0  0  0
  161.0360  213.8140  144.9860 C   0  0  0  0  0  0  0  0  0  0  0  0
  161.9840  213.7910  147.1770 C   0  0  0  0  0  3  0  0  0  0  0  0
  160.2190  212.7400  145.2890 C   0  0  0  0  0  0  0  0  0  0  0  0
  160.2700  212.1600  146.5550 C   0  0  0  0  0  3  0  0  0  0  0  0
  159.5510  213.0610  143.0800 N   0  0  0  0  0  0  0  0  0  0  0  0
  161.9290  214.3680  145.8980 C   0  0  0  0  0  3  0  0  0  0  0  0
  1 37  1  6  0  0  0
  1 18  1  0  0  0  0
  3  5  1  0  0  0  0
  3  2  1  1  0  0  0
  4  1  1  0  0  0  0
  4  5  1  0  0  0  0
  6  3  1  0  0  0  0
  7  6  2  0  0  0  0
  7  4  1  0  0  0  0
  8  9  2  0  0  0  0
  9 10  1  0  0  0  0
  9  6  1  0  0  0  0
 11 13  1  0  0  0  0
 13 12  2  6  0  0  0
 13 14  1  0  0  0  0
 13 10  1  0  0  0  0
 14 15  1  0  0  0  0
 15 17  1  0  0  0  0
 17 16  1  0  0  0  0
 18 22  1  0  0  0  0
 19 24  1  0  0  0  0
 20 23  1  0  0  0  0
 21 25  1  1  0  0  0
 22 19  1  0  0  0  0
 22 20  2  0  0  0  0
 23 21  1  0  0  0  0
 24 21  1  0  0  0  0
 25 27  1  0  0  0  0
 25 26  1  1  0  0  0
 27 28  1  0  0  0  0
 29 31  1  0  0  0  0
 31 28  1  0  0  0  0
 31 33  2  0  0  0  0
 32 30  2  0  0  0  0
 32 29  1  0  0  0  0
 34 36  1  0  0  0  0
 34 35  1  0  0  0  0
 35 32  1  0  0  0  0
 36 35  1  0  0  0  0
 38 37  1  0  0  0  0
 39 38  1  0  0  0  0
 40 44  1  0  0  0  0
 41 42  1  0  0  0  0
 42 44  2  0  0  0  0
 42 47  1  0  0  0  0
 43 39  1  0  0  0  0
 44 45  1  0  0  0  0
 45 39  2  0  0  0  0
 46 41  1  0  0  0  0
 46 40  2  0  0  0  0
 47 43  2  0  0  0  0
M  END
>  <MODEL>
9

>  <REMARK>
 VINA RESULT:      -5.3      3.853      9.917
  Name = 
  17 active torsions:
  status: ('A' for Active; 'I' for Inactive)
    1  A    between atoms: C_2  and  C_15
    2  A    between atoms: O_4  and  P_29
    3  A    between atoms: O_4  and  C_37
    4  A    between atoms: C_11  and  C_15
    5  A    between atoms: C_11  and  C_46
    6  A    between atoms: C_12  and  C_22
    7  A    between atoms: C_12  and  C_31
    8  A    between atoms: C_17  and  C_28
    9  A    between atoms: C_20  and  C_25
   10  A    between atoms: C_20  and  P_29
   11  A    between atoms: N_21  and  C_46
   12  A    between atoms: C_22  and  C_28
   13  A    between atoms: C_25  and  C_30
   14  A    between atoms: O_32  and  C_39
   15  A    between atoms: O_32  and  C_46
   16  A    between atoms: C_33  and  C_34
   17  A    between atoms: C_37  and  C_38
                            x       y       z     vdW  Elec       q    Type
                         _______ _______ _______ _____ _____    ______ ____

>  <TORSDO>
F 17

$$$$
