=
 OpenBabel11042420083D

 30 33  0  0  1  0  0  0  0  0999 V2000
  159.1540  211.9510  153.7140 N   0  0  0  0  0  0  0  0  0  0  0  0
  160.6500  207.8530  154.5890 C   0  0  0  0  0  3  0  0  0  0  0  0
  160.8160  208.9040  153.6930 C   0  0  0  0  0  0  0  0  0  0  0  0
  159.7730  212.8400  151.4510 C   0  0  0  0  0  1  0  0  0  0  0  0
  159.9660  211.9540  152.6320 C   0  0  2  0  0  3  0  0  0  0  0  0
  160.8480  210.9460  152.6920 N   0  0  0  0  0  0  0  0  0  0  0  0
  161.7600  207.4630  151.9940 C   0  0  0  0  0  0  0  0  0  0  0  0
  160.5160  210.3090  153.8090 C   0  0  0  0  0  0  0  0  0  0  0  0
  161.5550  206.3550  152.8690 C   0  0  0  0  0  0  0  0  0  0  0  0
  159.4780  210.8880  154.4440 N   0  0  0  0  0  0  0  0  0  0  0  0
  161.3370  208.7230  152.4250 C   0  0  0  0  0  0  0  0  0  0  0  0
  161.3670  210.0340  151.6760 C   0  0  0  0  0  3  0  0  0  0  0  0
  161.0280  206.5710  154.1610 C   0  0  0  0  0  3  0  0  0  0  0  0
  162.3830  207.3540  150.7440 O   0  0  0  0  0  0  0  0  0  0  0  0
  160.8020  205.9870  149.5070 C   0  0  0  0  0  2  0  0  0  0  0  0
  162.6400  207.3170  148.3520 C   0  0  0  0  0  2  0  0  0  0  0  0
  161.9140  207.0190  147.0360 C   0  0  0  0  0  2  0  0  0  0  0  0
  161.6610  207.2600  149.5210 C   0  0  2  0  0  3  0  0  0  0  0  0
  161.0860  205.7890  147.0660 N   0  0  0  0  0  0  0  0  0  0  0  0
  161.1570  205.0630  148.3420 C   0  0  0  0  0  2  0  0  0  0  0  0
  161.4910  204.8660  145.9970 C   0  0  2  0  0  3  0  0  0  0  0  0
  160.5960  204.9110  144.9130 O   0  0  0  0  0  0  0  0  0  0  0  0
  161.3060  205.5290  143.8770 C   0  0  0  0  0  1  0  0  0  0  0  0
  161.6060  203.4440  146.5420 C   0  0  0  0  0  2  0  0  0  0  0  0
  160.8820  202.4680  145.6310 C   0  0  0  0  0  2  0  0  0  0  0  0
  160.8070  201.2190  146.2500 O   0  0  0  0  0  1  0  0  0  0  0  0
  161.8230  205.0350  152.4950 O   0  0  0  0  0  0  0  0  0  0  0  0
  160.7890  204.0810  152.2910 C   0  0  0  0  0  2  0  0  0  0  0  0
  161.3400  202.8780  151.5500 C   0  0  0  0  0  2  0  0  0  0  0  0
  160.4350  202.4710  150.5700 O   0  0  0  0  0  1  0  0  0  0  0  0
  1 10  2  0  0  0  0
  3  8  2  0  0  0  0
  3  2  1  0  0  0  0
  5  4  1  6  0  0  0
  5  6  1  0  0  0  0
  5  1  1  0  0  0  0
  6  8  1  0  0  0  0
  7 11  1  0  0  0  0
  7  9  2  0  0  0  0
  8 10  1  0  0  0  0
  9 13  1  0  0  0  0
 11  3  1  0  0  0  0
 12 11  2  0  0  0  0
 12  6  1  0  0  0  0
 13  2  2  0  0  0  0
 14  7  1  0  0  0  0
 15 18  1  0  0  0  0
 16 18  1  0  0  0  0
 17 19  1  0  0  0  0
 17 16  1  0  0  0  0
 18 14  1  1  0  0  0
 19 20  1  0  0  0  0
 20 15  1  0  0  0  0
 21 24  1  1  0  0  0
 21 19  1  0  0  0  0
 22 21  1  0  0  0  0
 23 22  1  0  0  0  0
 25 26  1  0  0  0  0
 25 24  1  0  0  0  0
 27  9  1  0  0  0  0
 28 27  1  0  0  0  0
 29 28  1  0  0  0  0
 30 29  1  0  0  0  0
M  END
>  <MODEL>
1

>  <REMARK>
 VINA RESULT:      -7.8      0.000      0.000
  Name = 
  9 active torsions:
  status: ('A' for Active; 'I' for Inactive)
    1  A    between atoms: C_1  and  C_6
    2  A    between atoms: C_1  and  O_9
    3  A    between atoms: C_1  and  N_19
    4  A    between atoms: C_5  and  C_6
    5  A    between atoms: C_7  and  C_29
    6  A    between atoms: O_16  and  C_17
    7  A    between atoms: O_16  and  C_20
    8  A    between atoms: C_23  and  O_27
    9  A    between atoms: O_27  and  C_29
                            x       y       z     vdW  Elec       q    Type
                         _______ _______ _______ _____ _____    ______ ____

>  <TORSDO>
F 9

$$$$
=
 OpenBabel11042420083D

 30 33  0  0  1  0  0  0  0  0999 V2000
  160.6750  201.6270  147.5540 N   0  0  0  0  0  0  0  0  0  0  0  0
  162.1720  205.7900  147.0820 C   0  0  0  0  0  3  0  0  0  0  0  0
  161.6620  204.9190  148.0390 C   0  0  0  0  0  0  0  0  0  0  0  0
  159.4530  201.1810  149.6990 C   0  0  0  0  0  1  0  0  0  0  0  0
  160.4220  201.9260  148.8490 C   0  0  2  0  0  3  0  0  0  0  0  0
  161.0210  203.0730  149.2010 N   0  0  0  0  0  0  0  0  0  0  0  0
  160.9870  206.7280  149.4970 C   0  0  0  0  0  0  0  0  0  0  0  0
  161.5990  203.4800  148.0770 C   0  0  0  0  0  0  0  0  0  0  0  0
  161.4530  207.6490  148.5130 C   0  0  0  0  0  0  0  0  0  0  0  0
  161.3920  202.6290  147.0530 N   0  0  0  0  0  0  0  0  0  0  0  0
  161.0680  205.3640  149.2060 C   0  0  0  0  0  0  0  0  0  0  0  0
  160.5850  204.1940  150.0300 C   0  0  0  0  0  3  0  0  0  0  0  0
  162.0620  207.1660  147.3340 C   0  0  0  0  0  3  0  0  0  0  0  0
  160.4790  207.1200  150.7420 O   0  0  0  0  0  0  0  0  0  0  0  0
  161.3690  206.7180  152.9660 C   0  0  0  0  0  2  0  0  0  0  0  0
  160.7380  209.0480  152.1580 C   0  0  0  0  0  2  0  0  0  0  0  0
  161.4670  209.5850  153.3940 C   0  0  0  0  0  2  0  0  0  0  0  0
  161.2890  207.6790  151.7710 C   0  0  2  0  0  3  0  0  0  0  0  0
  161.5340  208.6240  154.5220 N   0  0  0  0  0  0  0  0  0  0  0  0
  160.8450  207.3540  154.2540 C   0  0  0  0  0  2  0  0  0  0  0  0
  160.9490  209.2090  155.7360 C   0  0  2  0  0  3  0  0  0  0  0  0
  159.5460  209.2470  155.6640 O   0  0  0  0  0  0  0  0  0  0  0  0
  159.1780  210.4430  156.2920 C   0  0  0  0  0  1  0  0  0  0  0  0
  161.5150  210.6070  155.9740 C   0  0  0  0  0  2  0  0  0  0  0  0
  162.8110  210.5260  156.7620 C   0  0  0  0  0  2  0  0  0  0  0  0
  163.8550  211.0490  155.9980 O   0  0  0  0  0  1  0  0  0  0  0  0
  161.3070  209.0330  148.6420 O   0  0  0  0  0  0  0  0  0  0  0  0
  162.4240  209.9090  148.7230 C   0  0  0  0  0  2  0  0  0  0  0  0
  161.9540  211.3490  148.6440 C   0  0  0  0  0  2  0  0  0  0  0  0
  163.0090  212.1680  148.2440 O   0  0  0  0  0  1  0  0  0  0  0  0
  1  5  1  0  0  0  0
  2 13  2  0  0  0  0
  2  3  1  0  0  0  0
  3  8  2  0  0  0  0
  3 11  1  0  0  0  0
  5  6  1  0  0  0  0
  5  4  1  6  0  0  0
  6 12  1  0  0  0  0
  7 14  1  0  0  0  0
  8  6  1  0  0  0  0
  9 27  1  0  0  0  0
  9  7  2  0  0  0  0
 10  1  2  0  0  0  0
 10  8  1  0  0  0  0
 11  7  1  0  0  0  0
 11 12  2  0  0  0  0
 13  9  1  0  0  0  0
 15 20  1  0  0  0  0
 16 17  1  0  0  0  0
 17 19  1  0  0  0  0
 18 14  1  6  0  0  0
 18 16  1  0  0  0  0
 18 15  1  0  0  0  0
 19 21  1  0  0  0  0
 20 19  1  0  0  0  0
 21 24  1  6  0  0  0
 22 21  1  0  0  0  0
 22 23  1  0  0  0  0
 24 25  1  0  0  0  0
 26 25  1  0  0  0  0
 27 28  1  0  0  0  0
 29 28  1  0  0  0  0
 30 29  1  0  0  0  0
M  END
>  <MODEL>
2

>  <REMARK>
 VINA RESULT:      -7.3      2.875      8.863
  Name = 
  9 active torsions:
  status: ('A' for Active; 'I' for Inactive)
    1  A    between atoms: C_1  and  C_6
    2  A    between atoms: C_1  and  O_9
    3  A    between atoms: C_1  and  N_19
    4  A    between atoms: C_5  and  C_6
    5  A    between atoms: C_7  and  C_29
    6  A    between atoms: O_16  and  C_17
    7  A    between atoms: O_16  and  C_20
    8  A    between atoms: C_23  and  O_27
    9  A    between atoms: O_27  and  C_29
                            x       y       z     vdW  Elec       q    Type
                         _______ _______ _______ _____ _____    ______ ____

>  <TORSDO>
F 9

$$$$
=
 OpenBabel11042420083D

 30 33  0  0  1  0  0  0  0  0999 V2000
  160.0750  209.4080  157.1030 N   0  0  0  0  0  0  0  0  0  0  0  0
  160.5160  211.1800  153.0460 C   0  0  0  0  0  3  0  0  0  0  0  0
  160.4700  209.9530  153.6970 C   0  0  0  0  0  0  0  0  0  0  0  0
  160.6630  206.9740  157.2610 C   0  0  0  0  0  1  0  0  0  0  0  0
  160.2280  208.1940  156.5260 C   0  0  2  0  0  3  0  0  0  0  0  0
  160.1080  208.2790  155.1930 N   0  0  0  0  0  0  0  0  0  0  0  0
  161.5990  208.8140  151.8850 C   0  0  0  0  0  0  0  0  0  0  0  0
  159.9280  209.5770  154.9790 C   0  0  0  0  0  0  0  0  0  0  0  0
  161.7080  210.0670  151.2130 C   0  0  0  0  0  0  0  0  0  0  0  0
  159.9200  210.2920  156.1210 N   0  0  0  0  0  0  0  0  0  0  0  0
  161.0080  208.8020  153.1520 C   0  0  0  0  0  0  0  0  0  0  0  0
  160.8350  207.6390  154.1000 C   0  0  0  0  0  3  0  0  0  0  0  0
  161.1420  211.2250  151.7910 C   0  0  0  0  0  3  0  0  0  0  0  0
  162.0270  207.6010  151.3320 O   0  0  0  0  0  0  0  0  0  0  0  0
  160.9250  205.4630  150.9890 C   0  0  0  0  0  2  0  0  0  0  0  0
  161.9790  206.7690  149.0740 C   0  0  0  0  0  2  0  0  0  0  0  0
  161.2590  205.8030  148.1280 C   0  0  0  0  0  2  0  0  0  0  0  0
  161.2450  206.8490  150.4090 C   0  0  2  0  0  3  0  0  0  0  0  0
  160.9570  204.4810  148.7280 N   0  0  0  0  0  0  0  0  0  0  0  0
  161.4510  204.3320  150.1040 C   0  0  0  0  0  2  0  0  0  0  0  0
  161.5400  203.4010  147.9190 C   0  0  2  0  0  3  0  0  0  0  0  0
  161.7900  203.8220  146.6020 O   0  0  0  0  0  0  0  0  0  0  0  0
  161.1080  202.9090  145.7880 C   0  0  0  0  0  1  0  0  0  0  0  0
  160.6230  202.1790  147.9300 C   0  0  0  0  0  2  0  0  0  0  0  0
  161.2510  201.0540  148.7340 C   0  0  0  0  0  2  0  0  0  0  0  0
  160.6140  200.9530  149.9710 O   0  0  0  0  0  1  0  0  0  0  0  0
  162.3900  210.2190  150.0020 O   0  0  0  0  0  0  0  0  0  0  0  0
  161.7090  210.3890  148.7660 C   0  0  0  0  0  2  0  0  0  0  0  0
  161.8370  211.8280  148.3030 C   0  0  0  0  0  2  0  0  0  0  0  0
  163.1830  212.1920  148.2620 O   0  0  0  0  0  1  0  0  0  0  0  0
  2  3  1  0  0  0  0
  3  8  2  0  0  0  0
  5  1  1  0  0  0  0
  5  4  1  6  0  0  0
  6  5  1  0  0  0  0
  7 11  1  0  0  0  0
  8  6  1  0  0  0  0
  8 10  1  0  0  0  0
  9 13  1  0  0  0  0
  9  7  2  0  0  0  0
 10  1  2  0  0  0  0
 11  3  1  0  0  0  0
 11 12  2  0  0  0  0
 12  6  1  0  0  0  0
 13  2  2  0  0  0  0
 14  7  1  0  0  0  0
 16 18  1  0  0  0  0
 17 19  1  0  0  0  0
 17 16  1  0  0  0  0
 18 15  1  0  0  0  0
 18 14  1  1  0  0  0
 19 20  1  0  0  0  0
 20 15  1  0  0  0  0
 21 24  1  6  0  0  0
 21 19  1  0  0  0  0
 22 21  1  0  0  0  0
 23 22  1  0  0  0  0
 24 25  1  0  0  0  0
 25 26  1  0  0  0  0
 27  9  1  0  0  0  0
 28 27  1  0  0  0  0
 29 28  1  0  0  0  0
 30 29  1  0  0  0  0
M  END
>  <MODEL>
3

>  <REMARK>
 VINA RESULT:      -7.1      2.162      4.332
  Name = 
  9 active torsions:
  status: ('A' for Active; 'I' for Inactive)
    1  A    between atoms: C_1  and  C_6
    2  A    between atoms: C_1  and  O_9
    3  A    between atoms: C_1  and  N_19
    4  A    between atoms: C_5  and  C_6
    5  A    between atoms: C_7  and  C_29
    6  A    between atoms: O_16  and  C_17
    7  A    between atoms: O_16  and  C_20
    8  A    between atoms: C_23  and  O_27
    9  A    between atoms: O_27  and  C_29
                            x       y       z     vdW  Elec       q    Type
                         _______ _______ _______ _____ _____    ______ ____

>  <TORSDO>
F 9

$$$$
=
 OpenBabel11042420083D

 30 33  0  0  1  0  0  0  0  0999 V2000
  161.4340  202.5610  147.1440 N   0  0  0  0  0  0  0  0  0  0  0  0
  160.7280  203.8210  151.3530 C   0  0  0  0  0  3  0  0  0  0  0  0
  161.0240  204.3390  150.0970 C   0  0  0  0  0  0  0  0  0  0  0  0
  162.4410  204.3230  145.6700 C   0  0  0  0  0  1  0  0  0  0  0  0
  161.6670  203.8620  146.8550 C   0  0  2  0  0  3  0  0  0  0  0  0
  161.2630  204.6550  147.8580 N   0  0  0  0  0  0  0  0  0  0  0  0
  161.9320  206.3820  151.0230 C   0  0  0  0  0  0  0  0  0  0  0  0
  160.8280  203.7990  148.7750 C   0  0  0  0  0  0  0  0  0  0  0  0
  161.6890  205.8570  152.3270 C   0  0  0  0  0  0  0  0  0  0  0  0
  160.9340  202.5160  148.3760 N   0  0  0  0  0  0  0  0  0  0  0  0
  161.6240  205.5730  149.9260 C   0  0  0  0  0  0  0  0  0  0  0  0
  161.8470  205.8520  148.4580 C   0  0  0  0  0  3  0  0  0  0  0  0
  161.0680  204.5970  152.4710 C   0  0  0  0  0  3  0  0  0  0  0  0
  162.4340  207.6680  150.7900 O   0  0  0  0  0  0  0  0  0  0  0  0
  161.6670  209.0120  148.9170 C   0  0  0  0  0  2  0  0  0  0  0  0
  162.0330  209.9990  151.2350 C   0  0  0  0  0  2  0  0  0  0  0  0
  161.2980  211.2450  150.7310 C   0  0  0  0  0  2  0  0  0  0  0  0
  161.6090  208.7720  150.4330 C   0  0  2  0  0  3  0  0  0  0  0  0
  161.3670  211.4350  149.2620 N   0  0  0  0  0  0  0  0  0  0  0  0
  162.1700  210.4150  148.5740 C   0  0  0  0  0  2  0  0  0  0  0  0
  161.9330  212.7510  148.9370 C   0  0  2  0  0  3  0  0  0  0  0  0
  160.9310  213.6610  148.5560 O   0  0  0  0  0  0  0  0  0  0  0  0
  160.5980  214.3520  149.7280 C   0  0  0  0  0  1  0  0  0  0  0  0
  162.9850  212.6180  147.8380 C   0  0  0  0  0  2  0  0  0  0  0  0
  162.7290  213.6290  146.7350 C   0  0  0  0  0  2  0  0  0  0  0  0
  162.2860  212.9670  145.5880 O   0  0  0  0  0  1  0  0  0  0  0  0
  162.0720  206.5240  153.4940 O   0  0  0  0  0  0  0  0  0  0  0  0
  161.1240  207.0740  154.3990 C   0  0  0  0  0  2  0  0  0  0  0  0
  161.2980  208.5790  154.4730 C   0  0  0  0  0  2  0  0  0  0  0  0
  160.1020  209.1740  154.8710 O   0  0  0  0  0  1  0  0  0  0  0  0
  1 10  2  0  0  0  0
  2 13  2  0  0  0  0
  3  2  1  0  0  0  0
  5  4  1  1  0  0  0
  5  1  1  0  0  0  0
  5  6  1  0  0  0  0
  6 12  1  0  0  0  0
  6  8  1  0  0  0  0
  7  9  2  0  0  0  0
  8  3  2  0  0  0  0
  9 13  1  0  0  0  0
  9 27  1  0  0  0  0
 10  8  1  0  0  0  0
 11  3  1  0  0  0  0
 11  7  1  0  0  0  0
 12 11  2  0  0  0  0
 14  7  1  0  0  0  0
 15 18  1  0  0  0  0
 17 16  1  0  0  0  0
 18 14  1  6  0  0  0
 18 16  1  0  0  0  0
 19 17  1  0  0  0  0
 20 15  1  0  0  0  0
 20 19  1  0  0  0  0
 21 24  1  6  0  0  0
 21 19  1  0  0  0  0
 22 21  1  0  0  0  0
 22 23  1  0  0  0  0
 25 24  1  0  0  0  0
 26 25  1  0  0  0  0
 27 28  1  0  0  0  0
 28 29  1  0  0  0  0
 29 30  1  0  0  0  0
M  END
>  <MODEL>
4

>  <REMARK>
 VINA RESULT:      -6.6      3.035      7.271
  Name = 
  9 active torsions:
  status: ('A' for Active; 'I' for Inactive)
    1  A    between atoms: C_1  and  C_6
    2  A    between atoms: C_1  and  O_9
    3  A    between atoms: C_1  and  N_19
    4  A    between atoms: C_5  and  C_6
    5  A    between atoms: C_7  and  C_29
    6  A    between atoms: O_16  and  C_17
    7  A    between atoms: O_16  and  C_20
    8  A    between atoms: C_23  and  O_27
    9  A    between atoms: O_27  and  C_29
                            x       y       z     vdW  Elec       q    Type
                         _______ _______ _______ _____ _____    ______ ____

>  <TORSDO>
F 9

$$$$
=
 OpenBabel11042420083D

 30 33  0  0  1  0  0  0  0  0999 V2000
  161.5070  203.4100  147.3330 N   0  0  0  0  0  0  0  0  0  0  0  0
  160.6480  204.3800  151.5890 C   0  0  0  0  0  3  0  0  0  0  0  0
  161.0200  204.9790  150.3910 C   0  0  0  0  0  0  0  0  0  0  0  0
  162.6450  205.2360  146.0430 C   0  0  0  0  0  1  0  0  0  0  0  0
  161.8000  204.7180  147.1530 C   0  0  2  0  0  3  0  0  0  0  0  0
  161.3770  205.4500  148.1950 N   0  0  0  0  0  0  0  0  0  0  0  0
  161.9550  206.9110  151.5090 C   0  0  0  0  0  0  0  0  0  0  0  0
  160.8680  204.5460  149.0240 C   0  0  0  0  0  0  0  0  0  0  0  0
  161.6320  206.3000  152.7570 C   0  0  0  0  0  0  0  0  0  0  0  0
  160.9480  203.2930  148.5340 N   0  0  0  0  0  0  0  0  0  0  0  0
  161.6710  206.1980  150.3410 C   0  0  0  0  0  0  0  0  0  0  0  0
  161.9730  206.5750  148.9100 C   0  0  0  0  0  3  0  0  0  0  0  0
  160.9610  205.0580  152.7770 C   0  0  0  0  0  3  0  0  0  0  0  0
  162.5130  208.1900  151.3960 O   0  0  0  0  0  0  0  0  0  0  0  0
  162.5920  210.3580  152.4890 C   0  0  0  0  0  2  0  0  0  0  0  0
  160.4320  209.0300  152.2650 C   0  0  0  0  0  2  0  0  0  0  0  0
  159.7010  210.3010  152.7080 C   0  0  0  0  0  2  0  0  0  0  0  0
  161.7730  209.3840  151.6290 C   0  0  2  0  0  3  0  0  0  0  0  0
  160.5280  211.2210  153.5250 N   0  0  0  0  0  0  0  0  0  0  0  0
  161.8800  210.7140  153.7940 C   0  0  0  0  0  2  0  0  0  0  0  0
  159.8800  211.4910  154.8150 C   0  0  2  0  0  3  0  0  0  0  0  0
  160.8030  211.4430  155.8740 O   0  0  0  0  0  0  0  0  0  0  0  0
  160.3810  212.4290  156.7750 C   0  0  0  0  0  1  0  0  0  0  0  0
  158.7380  210.5050  155.0510 C   0  0  0  0  0  2  0  0  0  0  0  0
  157.4460  211.2500  155.3340 C   0  0  0  0  0  2  0  0  0  0  0  0
  157.3190  212.3200  154.4460 O   0  0  0  0  0  1  0  0  0  0  0  0
  161.9830  206.8630  153.9870 O   0  0  0  0  0  0  0  0  0  0  0  0
  161.0570  206.9760  155.0600 C   0  0  0  0  0  2  0  0  0  0  0  0
  161.5940  207.9380  156.1030 C   0  0  0  0  0  2  0  0  0  0  0  0
  160.5500  208.3990  156.9030 O   0  0  0  0  0  1  0  0  0  0  0  0
  1 10  2  0  0  0  0
  2 13  2  0  0  0  0
  3  2  1  0  0  0  0
  5  4  1  1  0  0  0
  5  1  1  0  0  0  0
  5  6  1  0  0  0  0
  6 12  1  0  0  0  0
  6  8  1  0  0  0  0
  7  9  2  0  0  0  0
  8  3  2  0  0  0  0
  9 13  1  0  0  0  0
  9 27  1  0  0  0  0
 10  8  1  0  0  0  0
 11  3  1  0  0  0  0
 11  7  1  0  0  0  0
 12 11  2  0  0  0  0
 14  7  1  0  0  0  0
 15 20  1  0  0  0  0
 16 17  1  0  0  0  0
 17 19  1  0  0  0  0
 18 14  1  1  0  0  0
 18 16  1  0  0  0  0
 18 15  1  0  0  0  0
 19 20  1  0  0  0  0
 19 21  1  0  0  0  0
 21 24  1  1  0  0  0
 21 22  1  0  0  0  0
 22 23  1  0  0  0  0
 24 25  1  0  0  0  0
 26 25  1  0  0  0  0
 27 28  1  0  0  0  0
 28 29  1  0  0  0  0
 29 30  1  0  0  0  0
M  END
>  <MODEL>
5

>  <REMARK>
 VINA RESULT:      -6.5      2.772      8.149
  Name = 
  9 active torsions:
  status: ('A' for Active; 'I' for Inactive)
    1  A    between atoms: C_1  and  C_6
    2  A    between atoms: C_1  and  O_9
    3  A    between atoms: C_1  and  N_19
    4  A    between atoms: C_5  and  C_6
    5  A    between atoms: C_7  and  C_29
    6  A    between atoms: O_16  and  C_17
    7  A    between atoms: O_16  and  C_20
    8  A    between atoms: C_23  and  O_27
    9  A    between atoms: O_27  and  C_29
                            x       y       z     vdW  Elec       q    Type
                         _______ _______ _______ _____ _____    ______ ____

>  <TORSDO>
F 9

$$$$
=
 OpenBabel11042420083D

 30 33  0  0  1  0  0  0  0  0999 V2000
  160.7880  213.8200  148.5320 N   0  0  0  0  0  0  0  0  0  0  0  0
  160.7430  210.9320  151.9150 C   0  0  0  0  0  3  0  0  0  0  0  0
  161.2780  211.1100  150.6450 C   0  0  0  0  0  0  0  0  0  0  0  0
  161.7070  212.9130  146.3810 C   0  0  0  0  0  1  0  0  0  0  0  0
  161.5630  212.9360  147.8630 C   0  0  2  0  0  3  0  0  0  0  0  0
  162.0350  211.9920  148.6900 N   0  0  0  0  0  0  0  0  0  0  0  0
  161.6790  208.7420  150.3510 C   0  0  0  0  0  0  0  0  0  0  0  0
  161.4870  212.3010  149.8590 C   0  0  0  0  0  0  0  0  0  0  0  0
  161.0890  208.5190  151.6310 C   0  0  0  0  0  0  0  0  0  0  0  0
  160.7090  213.3990  149.7910 N   0  0  0  0  0  0  0  0  0  0  0  0
  161.7190  210.0530  149.8690 C   0  0  0  0  0  0  0  0  0  0  0  0
  162.2160  210.5510  148.5330 C   0  0  0  0  0  3  0  0  0  0  0  0
  160.6540  209.6190  152.4030 C   0  0  0  0  0  3  0  0  0  0  0  0
  162.2410  207.7230  149.5720 O   0  0  0  0  0  0  0  0  0  0  0  0
  160.7280  205.8320  149.3820 C   0  0  0  0  0  2  0  0  0  0  0  0
  162.4190  206.4040  147.5670 C   0  0  0  0  0  2  0  0  0  0  0  0
  161.6750  205.4060  146.6740 C   0  0  0  0  0  2  0  0  0  0  0  0
  161.4870  206.9470  148.6470 C   0  0  2  0  0  3  0  0  0  0  0  0
  160.9440  204.3540  147.4210 N   0  0  0  0  0  0  0  0  0  0  0  0
  161.1130  204.4410  148.8770 C   0  0  0  0  0  2  0  0  0  0  0  0
  161.3810  203.0180  146.9930 C   0  0  2  0  0  3  0  0  0  0  0  0
  161.3400  202.8860  145.5940 O   0  0  0  0  0  0  0  0  0  0  0  0
  160.2710  202.0190  145.3380 C   0  0  0  0  0  1  0  0  0  0  0  0
  160.5260  201.9430  147.6610 C   0  0  0  0  0  2  0  0  0  0  0  0
  161.3960  201.0210  148.4980 C   0  0  0  0  0  2  0  0  0  0  0  0
  160.8770  200.9360  149.7910 O   0  0  0  0  0  1  0  0  0  0  0  0
  160.8820  207.2410  152.1560 O   0  0  0  0  0  0  0  0  0  0  0  0
  161.9060  206.5280  152.8380 C   0  0  0  0  0  2  0  0  0  0  0  0
  161.3390  205.2480  153.4220 C   0  0  0  0  0  2  0  0  0  0  0  0
  161.1720  204.3020  152.4120 O   0  0  0  0  0  1  0  0  0  0  0  0
  1 10  2  0  0  0  0
  2 13  2  0  0  0  0
  3  2  1  0  0  0  0
  5  4  1  6  0  0  0
  5  1  1  0  0  0  0
  5  6  1  0  0  0  0
  6  8  1  0  0  0  0
  7  9  2  0  0  0  0
  8  3  2  0  0  0  0
  9 27  1  0  0  0  0
  9 13  1  0  0  0  0
 10  8  1  0  0  0  0
 11  7  1  0  0  0  0
 11  3  1  0  0  0  0
 12  6  1  0  0  0  0
 12 11  2  0  0  0  0
 14  7  1  0  0  0  0
 16 18  1  0  0  0  0
 17 19  1  0  0  0  0
 17 16  1  0  0  0  0
 18 15  1  0  0  0  0
 18 14  1  1  0  0  0
 19 20  1  0  0  0  0
 20 15  1  0  0  0  0
 21 19  1  0  0  0  0
 21 24  1  1  0  0  0
 22 21  1  0  0  0  0
 23 22  1  0  0  0  0
 24 25  1  0  0  0  0
 25 26  1  0  0  0  0
 27 28  1  0  0  0  0
 28 29  1  0  0  0  0
 30 29  1  0  0  0  0
M  END
>  <MODEL>
6

>  <REMARK>
 VINA RESULT:      -6.5      2.368      3.282
  Name = 
  9 active torsions:
  status: ('A' for Active; 'I' for Inactive)
    1  A    between atoms: C_1  and  C_6
    2  A    between atoms: C_1  and  O_9
    3  A    between atoms: C_1  and  N_19
    4  A    between atoms: C_5  and  C_6
    5  A    between atoms: C_7  and  C_29
    6  A    between atoms: O_16  and  C_17
    7  A    between atoms: O_16  and  C_20
    8  A    between atoms: C_23  and  O_27
    9  A    between atoms: O_27  and  C_29
                            x       y       z     vdW  Elec       q    Type
                         _______ _______ _______ _____ _____    ______ ____

>  <TORSDO>
F 9

$$$$
=
 OpenBabel11042420083D

 30 33  0  0  1  0  0  0  0  0999 V2000
  160.6210  203.7020  149.9190 N   0  0  0  0  0  0  0  0  0  0  0  0
  161.8620  207.6710  148.3360 C   0  0  0  0  0  3  0  0  0  0  0  0
  161.8400  206.9270  149.5100 C   0  0  0  0  0  0  0  0  0  0  0  0
  160.5560  203.5370  152.4210 C   0  0  0  0  0  1  0  0  0  0  0  0
  161.0280  204.1250  151.1380 C   0  0  2  0  0  3  0  0  0  0  0  0
  161.7640  205.2410  151.0350 N   0  0  0  0  0  0  0  0  0  0  0  0
  162.0090  208.8980  150.9030 C   0  0  0  0  0  0  0  0  0  0  0  0
  161.7500  205.5060  149.7340 C   0  0  0  0  0  0  0  0  0  0  0  0
  161.9830  209.6940  149.7190 C   0  0  0  0  0  0  0  0  0  0  0  0
  161.0480  204.5960  149.0300 N   0  0  0  0  0  0  0  0  0  0  0  0
  161.8920  207.5130  150.7620 C   0  0  0  0  0  0  0  0  0  0  0  0
  161.8180  206.4580  151.8410 C   0  0  0  0  0  3  0  0  0  0  0  0
  161.9360  209.0670  148.4550 C   0  0  0  0  0  3  0  0  0  0  0  0
  162.1720  209.4310  152.1880 O   0  0  0  0  0  0  0  0  0  0  0  0
  159.9090  210.2440  152.5310 C   0  0  0  0  0  2  0  0  0  0  0  0
  161.6250  210.1770  154.4090 C   0  0  0  0  0  2  0  0  0  0  0  0
  160.4630  210.4530  155.3690 C   0  0  0  0  0  2  0  0  0  0  0  0
  161.1130  209.5090  153.1370 C   0  0  2  0  0  3  0  0  0  0  0  0
  159.3150  211.1530  154.7440 N   0  0  0  0  0  0  0  0  0  0  0  0
  159.5310  211.4910  153.3310 C   0  0  0  0  0  2  0  0  0  0  0  0
  159.0120  212.3960  155.4650 C   0  0  2  0  0  3  0  0  0  0  0  0
  160.1450  212.8940  156.1320 O   0  0  0  0  0  0  0  0  0  0  0  0
  159.8270  214.2180  156.4590 C   0  0  0  0  0  1  0  0  0  0  0  0
  157.8640  212.1710  156.4480 C   0  0  0  0  0  2  0  0  0  0  0  0
  156.6340  212.9460  156.0100 C   0  0  0  0  0  2  0  0  0  0  0  0
  156.0390  212.3030  154.9230 O   0  0  0  0  0  1  0  0  0  0  0  0
  161.9660  211.0910  149.7470 O   0  0  0  0  0  0  0  0  0  0  0  0
  162.1950  211.8750  148.5830 C   0  0  0  0  0  2  0  0  0  0  0  0
  161.0420  212.8390  148.3790 C   0  0  0  0  0  2  0  0  0  0  0  0
  160.5480  213.2520  149.6160 O   0  0  0  0  0  1  0  0  0  0  0  0
  1  5  1  0  0  0  0
  2 13  2  0  0  0  0
  2  3  1  0  0  0  0
  3  8  2  0  0  0  0
  3 11  1  0  0  0  0
  5  4  1  1  0  0  0
  6  5  1  0  0  0  0
  6 12  1  0  0  0  0
  7 14  1  0  0  0  0
  8  6  1  0  0  0  0
  9 27  1  0  0  0  0
  9  7  2  0  0  0  0
 10  8  1  0  0  0  0
 10  1  2  0  0  0  0
 11  7  1  0  0  0  0
 11 12  2  0  0  0  0
 13  9  1  0  0  0  0
 15 18  1  0  0  0  0
 15 20  1  0  0  0  0
 16 17  1  0  0  0  0
 18 14  1  6  0  0  0
 18 16  1  0  0  0  0
 19 17  1  0  0  0  0
 19 21  1  0  0  0  0
 20 19  1  0  0  0  0
 21 22  1  0  0  0  0
 21 24  1  1  0  0  0
 22 23  1  0  0  0  0
 25 24  1  0  0  0  0
 26 25  1  0  0  0  0
 28 27  1  0  0  0  0
 29 28  1  0  0  0  0
 29 30  1  0  0  0  0
M  END
>  <MODEL>
7

>  <REMARK>
 VINA RESULT:      -6.1      3.538      9.024
  Name = 
  9 active torsions:
  status: ('A' for Active; 'I' for Inactive)
    1  A    between atoms: C_1  and  C_6
    2  A    between atoms: C_1  and  O_9
    3  A    between atoms: C_1  and  N_19
    4  A    between atoms: C_5  and  C_6
    5  A    between atoms: C_7  and  C_29
    6  A    between atoms: O_16  and  C_17
    7  A    between atoms: O_16  and  C_20
    8  A    between atoms: C_23  and  O_27
    9  A    between atoms: O_27  and  C_29
                            x       y       z     vdW  Elec       q    Type
                         _______ _______ _______ _____ _____    ______ ____

>  <TORSDO>
F 9

$$$$
=
 OpenBabel11042420083D

 30 33  0  0  1  0  0  0  0  0999 V2000
  160.4720  203.3630  149.9030 N   0  0  0  0  0  0  0  0  0  0  0  0
  161.5650  207.2820  148.1020 C   0  0  0  0  0  3  0  0  0  0  0  0
  161.7120  206.5430  149.2710 C   0  0  0  0  0  0  0  0  0  0  0  0
  160.8170  203.2080  152.3840 C   0  0  0  0  0  1  0  0  0  0  0  0
  161.0890  203.7760  151.0350 C   0  0  2  0  0  3  0  0  0  0  0  0
  161.8340  204.8660  150.8020 N   0  0  0  0  0  0  0  0  0  0  0  0
  162.1740  208.5120  150.5990 C   0  0  0  0  0  0  0  0  0  0  0  0
  161.6130  205.1260  149.5190 C   0  0  0  0  0  0  0  0  0  0  0  0
  161.9790  209.3040  149.4290 C   0  0  0  0  0  0  0  0  0  0  0  0
  160.7750  204.2380  148.9490 N   0  0  0  0  0  0  0  0  0  0  0  0
  161.9900  207.1310  150.4910 C   0  0  0  0  0  0  0  0  0  0  0  0
  162.0610  206.0830  151.5770 C   0  0  0  0  0  3  0  0  0  0  0  0
  161.7030  208.6750  148.1950 C   0  0  0  0  0  3  0  0  0  0  0  0
  162.5650  209.0430  151.8350 O   0  0  0  0  0  0  0  0  0  0  0  0
  162.4750  210.3610  153.8730 C   0  0  0  0  0  2  0  0  0  0  0  0
  160.4320  209.1630  152.9410 C   0  0  0  0  0  2  0  0  0  0  0  0
  159.6020  209.9750  153.9400 C   0  0  0  0  0  2  0  0  0  0  0  0
  161.7310  209.8940  152.6130 C   0  0  2  0  0  3  0  0  0  0  0  0
  160.3580  210.4180  155.1360 N   0  0  0  0  0  0  0  0  0  0  0  0
  161.7520  209.9520  155.1570 C   0  0  0  0  0  2  0  0  0  0  0  0
  159.7060  209.9470  156.3650 C   0  0  2  0  0  3  0  0  0  0  0  0
  159.4310  211.0110  157.2420 O   0  0  0  0  0  0  0  0  0  0  0  0
  158.2400  211.5770  156.7710 C   0  0  0  0  0  1  0  0  0  0  0  0
  160.5700  208.8920  157.0520 C   0  0  0  0  0  2  0  0  0  0  0  0
  159.9660  207.5110  156.8670 C   0  0  0  0  0  2  0  0  0  0  0  0
  160.4370  206.9510  155.6790 O   0  0  0  0  0  1  0  0  0  0  0  0
  162.0140  210.7010  149.4470 O   0  0  0  0  0  0  0  0  0  0  0  0
  162.3040  211.4660  148.2840 C   0  0  0  0  0  2  0  0  0  0  0  0
  161.2480  212.5400  148.1000 C   0  0  0  0  0  2  0  0  0  0  0  0
  160.7940  212.9730  149.3450 O   0  0  0  0  0  1  0  0  0  0  0  0
  1  5  1  0  0  0  0
  2 13  2  0  0  0  0
  2  3  1  0  0  0  0
  3  8  2  0  0  0  0
  3 11  1  0  0  0  0
  5  4  1  1  0  0  0
  6  5  1  0  0  0  0
  6 12  1  0  0  0  0
  7 14  1  0  0  0  0
  8  6  1  0  0  0  0
  9 27  1  0  0  0  0
  9  7  2  0  0  0  0
 10  8  1  0  0  0  0
 10  1  2  0  0  0  0
 11  7  1  0  0  0  0
 11 12  2  0  0  0  0
 13  9  1  0  0  0  0
 15 20  1  0  0  0  0
 16 17  1  0  0  0  0
 17 19  1  0  0  0  0
 18 14  1  1  0  0  0
 18 16  1  0  0  0  0
 18 15  1  0  0  0  0
 19 20  1  0  0  0  0
 19 21  1  0  0  0  0
 21 24  1  1  0  0  0
 21 22  1  0  0  0  0
 23 22  1  0  0  0  0
 25 24  1  0  0  0  0
 26 25  1  0  0  0  0
 28 27  1  0  0  0  0
 29 28  1  0  0  0  0
 29 30  1  0  0  0  0
M  END
>  <MODEL>
8

>  <REMARK>
 VINA RESULT:      -6.0      3.419      8.510
  Name = 
  9 active torsions:
  status: ('A' for Active; 'I' for Inactive)
    1  A    between atoms: C_1  and  C_6
    2  A    between atoms: C_1  and  O_9
    3  A    between atoms: C_1  and  N_19
    4  A    between atoms: C_5  and  C_6
    5  A    between atoms: C_7  and  C_29
    6  A    between atoms: O_16  and  C_17
    7  A    between atoms: O_16  and  C_20
    8  A    between atoms: C_23  and  O_27
    9  A    between atoms: O_27  and  C_29
                            x       y       z     vdW  Elec       q    Type
                         _______ _______ _______ _____ _____    ______ ____

>  <TORSDO>
F 9

$$$$
=
 OpenBabel11042420083D

 30 33  0  0  1  0  0  0  0  0999 V2000
  160.3990  211.3680  155.3670 N   0  0  0  0  0  0  0  0  0  0  0  0
  161.3450  207.0790  154.6540 C   0  0  0  0  0  3  0  0  0  0  0  0
  161.2320  208.2940  153.9870 C   0  0  0  0  0  0  0  0  0  0  0  0
  159.9560  212.7100  153.2940 C   0  0  0  0  0  1  0  0  0  0  0  0
  160.5460  211.5620  154.0360 C   0  0  2  0  0  3  0  0  0  0  0  0
  161.1350  210.5040  153.4610 N   0  0  0  0  0  0  0  0  0  0  0  0
  160.9150  207.2210  151.8410 C   0  0  0  0  0  0  0  0  0  0  0  0
  161.2950  209.6520  154.4670 C   0  0  0  0  0  0  0  0  0  0  0  0
  160.9750  205.9590  152.5030 C   0  0  0  0  0  0  0  0  0  0  0  0
  160.8410  210.1430  155.6370 N   0  0  0  0  0  0  0  0  0  0  0  0
  161.0050  208.3750  152.6250 C   0  0  0  0  0  0  0  0  0  0  0  0
  160.8990  209.8180  152.1940 C   0  0  0  0  0  3  0  0  0  0  0  0
  161.2140  205.9070  153.8940 C   0  0  0  0  0  3  0  0  0  0  0  0
  160.7980  207.3600  150.4530 O   0  0  0  0  0  0  0  0  0  0  0  0
  161.8730  207.3670  148.2740 C   0  0  0  0  0  2  0  0  0  0  0  0
  160.7010  205.3060  149.2030 C   0  0  0  0  0  2  0  0  0  0  0  0
  161.3590  204.5200  148.0640 C   0  0  0  0  0  2  0  0  0  0  0  0
  161.5190  206.5530  149.5280 C   0  0  2  0  0  3  0  0  0  0  0  0
  161.6960  205.3430  146.8770 N   0  0  0  0  0  0  0  0  0  0  0  0
  161.2910  206.7500  147.0020 C   0  0  0  0  0  2  0  0  0  0  0  0
  161.0620  204.7950  145.6700 C   0  0  2  0  0  3  0  0  0  0  0  0
  161.7280  203.6420  145.2190 O   0  0  0  0  0  0  0  0  0  0  0  0
  160.7820  202.6130  145.3070 C   0  0  0  0  0  1  0  0  0  0  0  0
  161.0130  205.8540  144.5710 C   0  0  0  0  0  2  0  0  0  0  0  0
  162.0890  205.5890  143.5330 C   0  0  0  0  0  2  0  0  0  0  0  0
  161.5770  205.8350  142.2580 O   0  0  0  0  0  1  0  0  0  0  0  0
  160.7700  204.7460  151.8390 O   0  0  0  0  0  0  0  0  0  0  0  0
  160.8560  203.4940  152.5060 C   0  0  0  0  0  2  0  0  0  0  0  0
  161.5480  202.4830  151.6110 C   0  0  0  0  0  2  0  0  0  0  0  0
  160.6750  202.0640  150.6080 O   0  0  0  0  0  1  0  0  0  0  0  0
  1 10  2  0  0  0  0
  3  8  2  0  0  0  0
  3  2  1  0  0  0  0
  5  4  1  6  0  0  0
  5  1  1  0  0  0  0
  6  5  1  0  0  0  0
  6  8  1  0  0  0  0
  7  9  2  0  0  0  0
  7 11  1  0  0  0  0
  8 10  1  0  0  0  0
  9 13  1  0  0  0  0
 11  3  1  0  0  0  0
 12 11  2  0  0  0  0
 12  6  1  0  0  0  0
 13  2  2  0  0  0  0
 14  7  1  0  0  0  0
 15 18  1  0  0  0  0
 16 18  1  0  0  0  0
 17 16  1  0  0  0  0
 18 14  1  1  0  0  0
 19 20  1  0  0  0  0
 19 17  1  0  0  0  0
 20 15  1  0  0  0  0
 21 24  1  6  0  0  0
 21 19  1  0  0  0  0
 22 23  1  0  0  0  0
 22 21  1  0  0  0  0
 25 24  1  0  0  0  0
 26 25  1  0  0  0  0
 27  9  1  0  0  0  0
 27 28  1  0  0  0  0
 29 28  1  0  0  0  0
 30 29  1  0  0  0  0
M  END
>  <MODEL>
9

>  <REMARK>
 VINA RESULT:      -5.7      1.163      2.084
  Name = 
  9 active torsions:
  status: ('A' for Active; 'I' for Inactive)
    1  A    between atoms: C_1  and  C_6
    2  A    between atoms: C_1  and  O_9
    3  A    between atoms: C_1  and  N_19
    4  A    between atoms: C_5  and  C_6
    5  A    between atoms: C_7  and  C_29
    6  A    between atoms: O_16  and  C_17
    7  A    between atoms: O_16  and  C_20
    8  A    between atoms: C_23  and  O_27
    9  A    between atoms: O_27  and  C_29
                            x       y       z     vdW  Elec       q    Type
                         _______ _______ _______ _____ _____    ______ ____

>  <TORSDO>
F 9

$$$$
