=
 OpenBabel11042423103D

 29 34  0  0  0  0  0  0  0  0999 V2000
  161.3030  210.0680  152.0860 C   0  0  0  0  0  0  0  0  0  0  0  0
  162.0720  208.2820  151.1600 C   0  0  0  0  0  0  0  0  0  0  0  0
  160.9360  210.8640  154.2950 O   0  0  0  0  0  0  0  0  0  0  0  0
  161.7840  207.1620  149.3280 C   0  0  0  0  0  0  0  0  0  0  0  0
  162.1270  209.2370  150.2060 C   0  0  0  0  0  0  0  0  0  0  0  0
  161.9010  208.6010  148.8830 C   0  0  0  0  0  3  0  0  0  0  0  0
  161.6110  210.3880  150.7700 C   0  0  0  0  0  0  0  0  0  0  0  0
  161.0830  208.5480  154.8360 C   0  0  0  0  0  2  0  0  0  0  0  0
  161.8500  206.9940  150.6160 N   0  0  0  0  0  2  0  0  0  0  0  0
  161.5650  208.7540  152.3190 N   0  0  0  0  0  0  0  0  0  0  0  0
  160.4710  210.9360  152.9810 C   0  0  0  0  0  2  0  0  0  0  0  0
  160.2300  209.8040  154.8730 C   0  0  0  0  0  2  0  0  0  0  0  0
  160.9740  206.7260  153.3260 O   0  0  0  0  0  0  0  0  0  0  0  0
  161.1700  207.9630  153.4580 C   0  0  0  0  0  0  0  0  0  0  0  0
  161.2300  204.0040  147.6670 C   0  0  0  0  0  0  0  0  0  0  0  0
  161.5500  206.0480  148.3980 C   0  0  0  0  0  0  0  0  0  0  0  0
  162.2890  205.8020  147.1390 C   0  0  0  0  0  3  0  0  0  0  0  0
  161.3330  202.8160  148.2380 C   0  0  0  0  0  3  0  0  0  0  0  0
  160.8780  203.0390  149.6350 C   0  0  0  0  0  3  0  0  0  0  0  0
  160.6520  204.2970  149.8890 N   0  0  0  0  0  0  0  0  0  0  0  0
  162.1160  204.5800  146.7200 N   0  0  0  0  0  0  0  0  0  0  0  0
  160.8740  204.9390  148.6480 C   0  0  0  0  0  0  0  0  0  0  0  0
  162.0710  213.4110  147.3100 C   0  0  0  0  0  0  0  0  0  0  0  0
  161.1270  211.5440  150.0760 N   0  0  0  0  0  2  0  0  0  0  0  0
  161.2060  213.0970  148.2380 O   0  0  0  0  0  0  0  0  0  0  0  0
  163.1990  212.6330  147.4520 C   0  0  0  0  0  3  0  0  0  0  0  0
  162.9970  211.8190  148.5100 N   0  0  0  0  0  0  0  0  0  0  0  0
  161.7630  212.1450  148.9440 C   0  0  0  0  0  0  0  0  0  0  0  0
  161.8550  214.4530  146.2710 C   0  0  0  0  0  1  0  0  0  0  0  0
  1 10  1  0  0  0  0
  1 11  1  0  0  0  0
  2 10  1  0  0  0  0
  3 12  1  0  0  0  0
  4  9  1  0  0  0  0
  5  7  1  0  0  0  0
  5  2  2  0  0  0  0
  6  4  2  0  0  0  0
  6  5  1  0  0  0  0
  7  1  2  0  0  0  0
  8 12  1  0  0  0  0
  9  2  1  0  0  0  0
 10 14  1  0  0  0  0
 11  3  1  0  0  0  0
 13 14  2  0  0  0  0
 14  8  1  0  0  0  0
 15 18  1  0  0  0  0
 15 22  1  0  0  0  0
 16 22  1  0  0  0  0
 16  4  1  0  0  0  0
 17 16  2  0  0  0  0
 18 19  2  0  0  0  0
 19 20  1  0  0  0  0
 21 17  1  0  0  0  0
 21 15  2  0  0  0  0
 22 20  2  0  0  0  0
 23 26  2  0  0  0  0
 23 25  1  0  0  0  0
 24  7  1  0  0  0  0
 25 28  1  0  0  0  0
 26 27  1  0  0  0  0
 27 28  2  0  0  0  0
 28 24  1  0  0  0  0
 29 23  1  0  0  0  0
M  END
>  <MODEL>
1

>  <REMARK>
 VINA RESULT:      -8.9      0.000      0.000
  Name = 
  2 active torsions:
  status: ('A' for Active; 'I' for Inactive)
    1  A    between atoms: C_3  and  C_6
    2  A    between atoms: C_10  and  N_15
                            x       y       z     vdW  Elec       q    Type
                         _______ _______ _______ _____ _____    ______ ____

>  <TORSDO>
F 2

$$$$
=
 OpenBabel11042423103D

 29 34  0  0  0  0  0  0  0  0999 V2000
  161.0960  203.9650  148.7540 C   0  0  0  0  0  0  0  0  0  0  0  0
  160.4530  205.1730  150.4170 C   0  0  0  0  0  0  0  0  0  0  0  0
  160.9910  201.6780  148.1200 O   0  0  0  0  0  0  0  0  0  0  0  0
  161.0860  206.9710  151.4470 C   0  0  0  0  0  0  0  0  0  0  0  0
  160.6800  206.0400  149.4070 C   0  0  0  0  0  0  0  0  0  0  0  0
  161.1660  207.3210  149.9790 C   0  0  0  0  0  3  0  0  0  0  0  0
  161.1220  205.2900  148.3340 C   0  0  0  0  0  0  0  0  0  0  0  0
  160.5780  201.3590  150.4450 C   0  0  0  0  0  2  0  0  0  0  0  0
  160.7130  205.7470  151.6840 N   0  0  0  0  0  2  0  0  0  0  0  0
  160.7060  203.8970  150.0550 N   0  0  0  0  0  0  0  0  0  0  0  0
  161.7510  202.8430  148.0070 C   0  0  0  0  0  2  0  0  0  0  0  0
  161.4760  201.0360  149.2630 C   0  0  0  0  0  2  0  0  0  0  0  0
  160.9190  202.9380  152.1780 O   0  0  0  0  0  0  0  0  0  0  0  0
  160.7750  202.7610  150.9390 C   0  0  0  0  0  0  0  0  0  0  0  0
  161.4460  208.9270  154.4610 C   0  0  0  0  0  0  0  0  0  0  0  0
  161.4590  207.9040  152.5190 C   0  0  0  0  0  0  0  0  0  0  0  0
  161.6670  209.3620  152.3640 C   0  0  0  0  0  3  0  0  0  0  0  0
  160.6050  208.9150  155.4800 C   0  0  0  0  0  3  0  0  0  0  0  0
  160.1050  207.5170  155.5280 C   0  0  0  0  0  3  0  0  0  0  0  0
  160.5290  206.8030  154.5240 N   0  0  0  0  0  0  0  0  0  0  0  0
  161.6350  209.9690  153.5170 N   0  0  0  0  0  0  0  0  0  0  0  0
  161.3870  207.6810  153.8210 C   0  0  0  0  0  0  0  0  0  0  0  0
  161.4470  205.5940  143.7380 C   0  0  0  0  0  0  0  0  0  0  0  0
  161.8260  205.7670  147.1810 N   0  0  0  0  0  2  0  0  0  0  0  0
  162.0220  206.0890  144.8030 O   0  0  0  0  0  0  0  0  0  0  0  0
  160.4990  204.6690  144.1160 C   0  0  0  0  0  3  0  0  0  0  0  0
  160.5070  204.6100  145.4640 N   0  0  0  0  0  0  0  0  0  0  0  0
  161.4520  205.5020  145.8260 C   0  0  0  0  0  0  0  0  0  0  0  0
  161.7820  205.9810  142.3420 C   0  0  0  0  0  1  0  0  0  0  0  0
  1 10  1  0  0  0  0
  2  9  1  0  0  0  0
  3 12  1  0  0  0  0
  4  9  1  0  0  0  0
  4 16  1  0  0  0  0
  5  6  1  0  0  0  0
  5  2  2  0  0  0  0
  6  4  2  0  0  0  0
  7  1  2  0  0  0  0
  7  5  1  0  0  0  0
  8 14  1  0  0  0  0
 10  2  1  0  0  0  0
 10 14  1  0  0  0  0
 11  3  1  0  0  0  0
 11  1  1  0  0  0  0
 12  8  1  0  0  0  0
 14 13  2  0  0  0  0
 15 18  1  0  0  0  0
 16 22  1  0  0  0  0
 17 16  2  0  0  0  0
 17 21  1  0  0  0  0
 18 19  2  0  0  0  0
 20 19  1  0  0  0  0
 21 15  2  0  0  0  0
 22 15  1  0  0  0  0
 22 20  2  0  0  0  0
 23 26  2  0  0  0  0
 23 25  1  0  0  0  0
 24  7  1  0  0  0  0
 25 28  1  0  0  0  0
 26 27  1  0  0  0  0
 27 28  2  0  0  0  0
 28 24  1  0  0  0  0
 29 23  1  0  0  0  0
M  END
>  <MODEL>
2

>  <REMARK>
 VINA RESULT:      -8.3      3.660      7.134
  Name = 
  2 active torsions:
  status: ('A' for Active; 'I' for Inactive)
    1  A    between atoms: C_3  and  C_6
    2  A    between atoms: C_10  and  N_15
                            x       y       z     vdW  Elec       q    Type
                         _______ _______ _______ _____ _____    ______ ____

>  <TORSDO>
F 2

$$$$
=
 OpenBabel11042423103D

 29 34  0  0  1  0  0  0  0  0999 V2000
  161.3890  207.3970  150.6330 C   0  0  0  0  0  0  0  0  0  0  0  0
  160.7480  205.9030  149.2200 C   0  0  0  0  0  0  0  0  0  0  0  0
  161.8130  209.7350  150.6220 O   0  0  0  0  0  0  0  0  0  0  0  0
  161.0300  203.7830  148.8720 C   0  0  0  0  0  0  0  0  0  0  0  0
  160.5360  205.3620  150.4390 C   0  0  1  0  0  3  0  0  0  0  0  0
  160.7400  203.8940  150.3510 C   0  0  0  0  0  3  0  0  0  0  0  0
  160.9680  206.2940  151.3650 C   0  0  0  0  0  0  0  0  0  0  0  0
  161.9360  209.4020  148.2660 C   0  0  0  0  0  2  0  0  0  0  0  0
  161.0640  204.9240  148.2480 N   0  0  0  0  0  0  0  0  0  0  0  0
  161.2770  207.1430  149.3010 N   0  0  0  0  0  0  0  0  0  0  0  0
  162.1840  208.5260  151.2140 C   0  0  0  0  0  2  0  0  0  0  0  0
  162.6580  209.8730  149.5170 C   0  0  0  0  0  2  0  0  0  0  0  0
  162.1320  207.3310  147.1320 O   0  0  0  0  0  0  0  0  0  0  0  0
  161.8210  207.9080  148.2080 C   0  0  0  0  0  0  0  0  0  0  0  0
  161.2710  200.9150  146.6920 C   0  0  0  0  0  0  0  0  0  0  0  0
  161.3160  202.5080  148.2010 C   0  0  0  0  0  0  0  0  0  0  0  0
  161.2630  201.1680  148.8300 C   0  0  0  0  0  3  0  0  0  0  0  0
  160.5200  200.7060  145.6240 C   0  0  0  0  0  3  0  0  0  0  0  0
  160.2680  202.0650  145.0800 C   0  0  0  0  0  3  0  0  0  0  0  0
  160.7340  203.0050  145.8540 N   0  0  0  0  0  0  0  0  0  0  0  0
  161.2120  200.2260  147.9300 N   0  0  0  0  0  0  0  0  0  0  0  0
  161.3770  202.2980  146.8960 C   0  0  0  0  0  0  0  0  0  0  0  0
  160.7320  207.6390  155.7760 C   0  0  0  0  0  0  0  0  0  0  0  0
  161.2880  206.0560  152.7400 N   0  0  0  0  0  2  0  0  0  0  0  0
  161.1180  206.6020  155.0790 O   0  0  0  0  0  0  0  0  0  0  0  0
  160.3240  208.6400  154.9210 C   0  0  0  0  0  3  0  0  0  0  0  0
  160.4720  208.1800  153.6610 N   0  0  0  0  0  0  0  0  0  0  0  0
  160.9550  206.9310  153.8220 C   0  0  0  0  0  0  0  0  0  0  0  0
  160.7410  207.7090  157.2610 C   0  0  0  0  0  1  0  0  0  0  0  0
  1 11  1  0  0  0  0
  1  7  2  0  0  0  0
  2 10  1  0  0  0  0
  2  5  1  0  0  0  0
  3 11  1  0  0  0  0
  4  6  2  0  0  0  0
  5  6  1  6  0  0  0
  5  7  1  0  0  0  0
  7 24  1  0  0  0  0
  8 12  1  0  0  0  0
  9  4  1  0  0  0  0
  9  2  2  0  0  0  0
 10  1  1  0  0  0  0
 12  3  1  0  0  0  0
 13 14  2  0  0  0  0
 14  8  1  0  0  0  0
 14 10  1  0  0  0  0
 15 22  1  0  0  0  0
 15 21  1  0  0  0  0
 16 17  1  0  0  0  0
 16  4  1  0  0  0  0
 18 15  2  0  0  0  0
 19 18  1  0  0  0  0
 19 20  2  0  0  0  0
 20 22  1  0  0  0  0
 21 17  2  0  0  0  0
 22 16  2  0  0  0  0
 23 29  1  0  0  0  0
 24 28  1  0  0  0  0
 25 23  1  0  0  0  0
 26 23  2  0  0  0  0
 27 28  2  0  0  0  0
 27 26  1  0  0  0  0
 28 25  1  0  0  0  0
M  END
>  <MODEL>
3

>  <REMARK>
 VINA RESULT:      -8.0      2.579      5.874
  Name = 
  2 active torsions:
  status: ('A' for Active; 'I' for Inactive)
    1  A    between atoms: C_3  and  C_6
    2  A    between atoms: C_10  and  N_15
                            x       y       z     vdW  Elec       q    Type
                         _______ _______ _______ _____ _____    ______ ____

>  <TORSDO>
F 2

$$$$
=
 OpenBabel11042423103D

 29 34  0  0  1  0  0  0  0  0999 V2000
  161.4960  208.6640  152.1270 C   0  0  0  0  0  0  0  0  0  0  0  0
  162.0150  207.2340  150.6030 C   0  0  0  0  0  0  0  0  0  0  0  0
  161.3700  208.7120  154.5000 O   0  0  0  0  0  0  0  0  0  0  0  0
  161.4870  206.8040  148.5460 C   0  0  0  0  0  0  0  0  0  0  0  0
  162.0960  208.4430  150.0070 C   0  0  1  0  0  3  0  0  0  0  0  0
  161.7140  208.2970  148.5790 C   0  0  0  0  0  3  0  0  0  0  0  0
  161.7390  209.3780  150.9600 C   0  0  0  0  0  0  0  0  0  0  0  0
  161.3240  206.3420  154.2480 C   0  0  0  0  0  2  0  0  0  0  0  0
  161.6280  206.2170  149.6990 N   0  0  0  0  0  0  0  0  0  0  0  0
  161.6430  207.3320  151.8970 N   0  0  0  0  0  0  0  0  0  0  0  0
  160.8210  209.2450  153.3320 C   0  0  0  0  0  2  0  0  0  0  0  0
  160.6050  207.5730  154.7730 C   0  0  0  0  0  2  0  0  0  0  0  0
  160.9270  205.1320  152.2510 O   0  0  0  0  0  0  0  0  0  0  0  0
  161.2540  206.2400  152.7540 C   0  0  0  0  0  0  0  0  0  0  0  0
  161.2190  204.9140  145.4810 C   0  0  0  0  0  0  0  0  0  0  0  0
  161.0770  206.0780  147.3360 C   0  0  0  0  0  0  0  0  0  0  0  0
  160.1220  206.5670  146.3160 C   0  0  0  0  0  3  0  0  0  0  0  0
  162.2350  204.5700  144.7080 C   0  0  0  0  0  3  0  0  0  0  0  0
  163.3560  204.3410  145.6550 C   0  0  0  0  0  3  0  0  0  0  0  0
  163.0440  204.6580  146.8800 N   0  0  0  0  0  0  0  0  0  0  0  0
  160.2250  205.8890  145.2070 N   0  0  0  0  0  0  0  0  0  0  0  0
  161.6830  205.0320  146.7980 C   0  0  0  0  0  0  0  0  0  0  0  0
  161.8260  213.1440  148.2890 C   0  0  0  0  0  0  0  0  0  0  0  0
  161.3230  210.7290  150.7270 N   0  0  0  0  0  2  0  0  0  0  0  0
  161.2030  212.7000  149.3500 O   0  0  0  0  0  0  0  0  0  0  0  0
  162.7710  212.2220  147.8920 C   0  0  0  0  0  3  0  0  0  0  0  0
  162.7090  211.1840  148.7520 N   0  0  0  0  0  0  0  0  0  0  0  0
  161.7310  211.5310  149.6150 C   0  0  0  0  0  0  0  0  0  0  0  0
  161.5450  214.4460  147.6280 C   0  0  0  0  0  1  0  0  0  0  0  0
  1 11  1  0  0  0  0
  2 10  1  0  0  0  0
  3 12  1  0  0  0  0
  4  6  2  0  0  0  0
  4  9  1  0  0  0  0
  5  6  1  6  0  0  0
  5  2  1  0  0  0  0
  5  7  1  0  0  0  0
  7  1  2  0  0  0  0
  8 12  1  0  0  0  0
  9  2  2  0  0  0  0
 10  1  1  0  0  0  0
 10 14  1  0  0  0  0
 11  3  1  0  0  0  0
 13 14  2  0  0  0  0
 14  8  1  0  0  0  0
 15 22  1  0  0  0  0
 16  4  1  0  0  0  0
 17 16  2  0  0  0  0
 18 15  1  0  0  0  0
 18 19  2  0  0  0  0
 19 20  1  0  0  0  0
 21 15  2  0  0  0  0
 21 17  1  0  0  0  0
 22 20  2  0  0  0  0
 22 16  1  0  0  0  0
 23 25  1  0  0  0  0
 24  7  1  0  0  0  0
 25 28  1  0  0  0  0
 26 23  2  0  0  0  0
 26 27  1  0  0  0  0
 27 28  2  0  0  0  0
 28 24  1  0  0  0  0
 29 23  1  0  0  0  0
M  END
>  <MODEL>
4

>  <REMARK>
 VINA RESULT:      -8.0      1.532      2.055
  Name = 
  2 active torsions:
  status: ('A' for Active; 'I' for Inactive)
    1  A    between atoms: C_3  and  C_6
    2  A    between atoms: C_10  and  N_15
                            x       y       z     vdW  Elec       q    Type
                         _______ _______ _______ _____ _____    ______ ____

>  <TORSDO>
F 2

$$$$
=
 OpenBabel11042423103D

 29 34  0  0  0  0  0  0  0  0999 V2000
  161.6270  207.5370  149.0090 C   0  0  0  0  0  0  0  0  0  0  0  0
  160.8100  207.7440  150.9910 C   0  0  0  0  0  0  0  0  0  0  0  0
  161.5550  205.9370  147.2530 O   0  0  0  0  0  0  0  0  0  0  0  0
  161.3470  208.6780  152.8700 C   0  0  0  0  0  0  0  0  0  0  0  0
  161.1750  208.9890  150.6190 C   0  0  0  0  0  0  0  0  0  0  0  0
  161.6120  209.7370  151.8250 C   0  0  0  0  0  3  0  0  0  0  0  0
  161.7300  208.8780  149.3580 C   0  0  0  0  0  0  0  0  0  0  0  0
  160.8550  204.4840  149.0070 C   0  0  0  0  0  2  0  0  0  0  0  0
  160.9240  207.5460  152.3870 N   0  0  0  0  0  2  0  0  0  0  0  0
  161.0790  206.8300  150.0340 N   0  0  0  0  0  0  0  0  0  0  0  0
  162.3460  206.9230  147.8460 C   0  0  0  0  0  2  0  0  0  0  0  0
  161.8840  204.7550  147.9230 C   0  0  0  0  0  2  0  0  0  0  0  0
  161.0130  204.8880  151.3360 O   0  0  0  0  0  0  0  0  0  0  0  0
  161.0180  205.3980  150.1840 C   0  0  0  0  0  0  0  0  0  0  0  0
  161.3730  208.7340  156.4800 C   0  0  0  0  0  0  0  0  0  0  0  0
  161.6050  208.8780  154.3020 C   0  0  0  0  0  0  0  0  0  0  0  0
  161.8650  210.1780  154.9610 C   0  0  0  0  0  3  0  0  0  0  0  0
  160.4100  208.2640  157.2550 C   0  0  0  0  0  3  0  0  0  0  0  0
  159.8750  207.0960  156.5090 C   0  0  0  0  0  3  0  0  0  0  0  0
  160.4050  206.9780  155.3250 N   0  0  0  0  0  0  0  0  0  0  0  0
  161.7030  210.0940  156.2530 N   0  0  0  0  0  0  0  0  0  0  0  0
  161.3640  208.0160  155.2770 C   0  0  0  0  0  0  0  0  0  0  0  0
  162.4040  213.1760  147.8110 C   0  0  0  0  0  0  0  0  0  0  0  0
  162.5780  209.8290  148.7040 N   0  0  0  0  0  2  0  0  0  0  0  0
  163.0780  212.0680  147.9710 O   0  0  0  0  0  0  0  0  0  0  0  0
  161.0890  212.9690  148.1660 C   0  0  0  0  0  3  0  0  0  0  0  0
  160.9740  211.6820  148.5560 N   0  0  0  0  0  0  0  0  0  0  0  0
  162.2210  211.1850  148.4200 C   0  0  0  0  0  0  0  0  0  0  0  0
  162.9840  214.4530  147.3170 C   0  0  0  0  0  1  0  0  0  0  0  0
  1  7  2  0  0  0  0
  1 10  1  0  0  0  0
  2  9  1  0  0  0  0
  3 11  1  0  0  0  0
  3 12  1  0  0  0  0
  4 16  1  0  0  0  0
  5  2  2  0  0  0  0
  5  6  1  0  0  0  0
  6  4  2  0  0  0  0
  7  5  1  0  0  0  0
  8 14  1  0  0  0  0
  9  4  1  0  0  0  0
 10 14  1  0  0  0  0
 10  2  1  0  0  0  0
 11  1  1  0  0  0  0
 12  8  1  0  0  0  0
 14 13  2  0  0  0  0
 15 18  1  0  0  0  0
 16 17  2  0  0  0  0
 16 22  1  0  0  0  0
 17 21  1  0  0  0  0
 19 18  2  0  0  0  0
 20 19  1  0  0  0  0
 21 15  2  0  0  0  0
 22 20  2  0  0  0  0
 22 15  1  0  0  0  0
 23 25  1  0  0  0  0
 23 26  2  0  0  0  0
 24  7  1  0  0  0  0
 25 28  1  0  0  0  0
 26 27  1  0  0  0  0
 28 27  2  0  0  0  0
 28 24  1  0  0  0  0
 29 23  1  0  0  0  0
M  END
>  <MODEL>
5

>  <REMARK>
 VINA RESULT:      -7.9      2.081      5.785
  Name = 
  2 active torsions:
  status: ('A' for Active; 'I' for Inactive)
    1  A    between atoms: C_3  and  C_6
    2  A    between atoms: C_10  and  N_15
                            x       y       z     vdW  Elec       q    Type
                         _______ _______ _______ _____ _____    ______ ____

>  <TORSDO>
F 2

$$$$
=
 OpenBabel11042423103D

 29 34  0  0  0  0  0  0  0  0999 V2000
  161.2260  210.2730  152.0570 C   0  0  0  0  0  0  0  0  0  0  0  0
  162.1300  208.4160  151.4490 C   0  0  0  0  0  0  0  0  0  0  0  0
  160.7430  211.3890  154.1000 O   0  0  0  0  0  0  0  0  0  0  0  0
  161.9690  206.9990  149.8180 C   0  0  0  0  0  0  0  0  0  0  0  0
  162.1560  209.2070  150.3540 C   0  0  0  0  0  0  0  0  0  0  0  0
  162.0110  208.3530  149.1480 C   0  0  0  0  0  3  0  0  0  0  0  0
  161.5540  210.3970  150.7130 C   0  0  0  0  0  0  0  0  0  0  0  0
  161.0150  209.2050  155.0130 C   0  0  0  0  0  2  0  0  0  0  0  0
  162.0050  207.0460  151.1180 N   0  0  0  0  0  2  0  0  0  0  0  0
  161.5610  209.0340  152.5060 N   0  0  0  0  0  0  0  0  0  0  0  0
  160.3150  211.2180  152.7820 C   0  0  0  0  0  2  0  0  0  0  0  0
  160.0860  210.3920  154.8280 C   0  0  0  0  0  2  0  0  0  0  0  0
  161.0650  207.1600  153.8170 O   0  0  0  0  0  0  0  0  0  0  0  0
  161.1810  208.4130  153.7500 C   0  0  0  0  0  0  0  0  0  0  0  0
  161.5160  204.3500  147.4060 C   0  0  0  0  0  0  0  0  0  0  0  0
  161.8320  205.7380  149.0770 C   0  0  0  0  0  0  0  0  0  0  0  0
  161.0000  204.5820  149.4840 C   0  0  0  0  0  3  0  0  0  0  0  0
  161.0990  204.5170  146.1630 C   0  0  0  0  0  3  0  0  0  0  0  0
  161.6580  205.8330  145.7610 C   0  0  0  0  0  3  0  0  0  0  0  0
  162.2480  206.4450  146.7490 N   0  0  0  0  0  0  0  0  0  0  0  0
  160.7950  203.7720  148.4830 N   0  0  0  0  0  0  0  0  0  0  0  0
  162.1680  205.5210  147.8170 C   0  0  0  0  0  0  0  0  0  0  0  0
  162.1250  213.1710  147.0650 C   0  0  0  0  0  0  0  0  0  0  0  0
  161.0210  211.3920  149.8310 N   0  0  0  0  0  2  0  0  0  0  0  0
  161.1720  212.7850  147.8730 O   0  0  0  0  0  0  0  0  0  0  0  0
  163.3200  212.6150  147.4680 C   0  0  0  0  0  3  0  0  0  0  0  0
  163.0680  211.8650  148.5610 N   0  0  0  0  0  0  0  0  0  0  0  0
  161.7410  212.0040  148.7570 C   0  0  0  0  0  0  0  0  0  0  0  0
  161.9310  214.0730  145.9000 C   0  0  0  0  0  1  0  0  0  0  0  0
  1 10  1  0  0  0  0
  1 11  1  0  0  0  0
  2 10  1  0  0  0  0
  3 12  1  0  0  0  0
  4  9  1  0  0  0  0
  5  7  1  0  0  0  0
  5  2  2  0  0  0  0
  6  4  2  0  0  0  0
  6  5  1  0  0  0  0
  7  1  2  0  0  0  0
  9  2  1  0  0  0  0
 10 14  1  0  0  0  0
 11  3  1  0  0  0  0
 12  8  1  0  0  0  0
 14 13  2  0  0  0  0
 14  8  1  0  0  0  0
 15 22  1  0  0  0  0
 15 21  1  0  0  0  0
 16 17  1  0  0  0  0
 16  4  1  0  0  0  0
 18 15  2  0  0  0  0
 19 18  1  0  0  0  0
 19 20  2  0  0  0  0
 20 22  1  0  0  0  0
 21 17  2  0  0  0  0
 22 16  2  0  0  0  0
 23 26  2  0  0  0  0
 23 25  1  0  0  0  0
 24  7  1  0  0  0  0
 25 28  1  0  0  0  0
 26 27  1  0  0  0  0
 27 28  2  0  0  0  0
 28 24  1  0  0  0  0
 29 23  1  0  0  0  0
M  END
>  <MODEL>
6

>  <REMARK>
 VINA RESULT:      -7.8      0.776      1.546
  Name = 
  2 active torsions:
  status: ('A' for Active; 'I' for Inactive)
    1  A    between atoms: C_3  and  C_6
    2  A    between atoms: C_10  and  N_15
                            x       y       z     vdW  Elec       q    Type
                         _______ _______ _______ _____ _____    ______ ____

>  <TORSDO>
F 2

$$$$
=
 OpenBabel11042423103D

 29 34  0  0  0  0  0  0  0  0999 V2000
  161.4020  208.6140  151.2810 C   0  0  0  0  0  0  0  0  0  0  0  0
  162.0510  206.5840  150.9760 C   0  0  0  0  0  0  0  0  0  0  0  0
  161.2000  210.1220  153.1060 O   0  0  0  0  0  0  0  0  0  0  0  0
  161.6130  204.9310  149.6460 C   0  0  0  0  0  0  0  0  0  0  0  0
  162.0780  207.1590  149.7540 C   0  0  0  0  0  0  0  0  0  0  0  0
  161.7490  206.1300  148.7360 C   0  0  0  0  0  3  0  0  0  0  0  0
  161.6370  208.4580  149.9200 C   0  0  0  0  0  0  0  0  0  0  0  0
  161.3040  208.1170  154.3890 C   0  0  0  0  0  2  0  0  0  0  0  0
  161.7540  205.2020  150.9100 N   0  0  0  0  0  2  0  0  0  0  0  0
  161.6340  207.4420  151.9310 N   0  0  0  0  0  0  0  0  0  0  0  0
  160.6570  209.7740  151.8680 C   0  0  0  0  0  2  0  0  0  0  0  0
  160.4970  209.3560  154.0410 C   0  0  0  0  0  2  0  0  0  0  0  0
  161.0410  205.9030  153.5900 O   0  0  0  0  0  0  0  0  0  0  0  0
  161.2860  207.1010  153.2870 C   0  0  0  0  0  0  0  0  0  0  0  0
  160.7920  201.9530  147.7750 C   0  0  0  0  0  0  0  0  0  0  0  0
  161.2840  203.5840  149.1590 C   0  0  0  0  0  0  0  0  0  0  0  0
  160.2470  202.6900  149.7230 C   0  0  0  0  0  3  0  0  0  0  0  0
  160.4590  201.9260  146.4960 C   0  0  0  0  0  3  0  0  0  0  0  0
  161.2550  203.0210  145.8850 C   0  0  0  0  0  3  0  0  0  0  0  0
  161.9060  203.7170  146.7740 N   0  0  0  0  0  0  0  0  0  0  0  0
  159.9400  201.7360  148.8880 N   0  0  0  0  0  0  0  0  0  0  0  0
  161.6250  203.0590  147.9940 C   0  0  0  0  0  0  0  0  0  0  0  0
  162.0680  212.3960  147.5480 C   0  0  0  0  0  0  0  0  0  0  0  0
  161.1480  209.3380  148.9010 N   0  0  0  0  0  2  0  0  0  0  0  0
  161.3510  211.3030  147.5250 O   0  0  0  0  0  0  0  0  0  0  0  0
  162.9040  212.3730  148.6430 C   0  0  0  0  0  3  0  0  0  0  0  0
  162.6760  211.2170  149.3000 N   0  0  0  0  0  0  0  0  0  0  0  0
  161.7230  210.6050  148.5680 C   0  0  0  0  0  0  0  0  0  0  0  0
  161.9780  213.4860  146.5400 C   0  0  0  0  0  1  0  0  0  0  0  0
  1 11  1  0  0  0  0
  1 10  1  0  0  0  0
  2 10  1  0  0  0  0
  3 12  1  0  0  0  0
  4  9  1  0  0  0  0
  5  7  1  0  0  0  0
  5  2  2  0  0  0  0
  6  4  2  0  0  0  0
  6  5  1  0  0  0  0
  7  1  2  0  0  0  0
  9  2  1  0  0  0  0
 10 14  1  0  0  0  0
 11  3  1  0  0  0  0
 12  8  1  0  0  0  0
 14 13  2  0  0  0  0
 14  8  1  0  0  0  0
 15 22  1  0  0  0  0
 15 21  1  0  0  0  0
 16  4  1  0  0  0  0
 16 17  1  0  0  0  0
 18 15  2  0  0  0  0
 19 18  1  0  0  0  0
 19 20  2  0  0  0  0
 20 22  1  0  0  0  0
 21 17  2  0  0  0  0
 22 16  2  0  0  0  0
 23 26  2  0  0  0  0
 24  7  1  0  0  0  0
 25 23  1  0  0  0  0
 25 28  1  0  0  0  0
 26 27  1  0  0  0  0
 28 24  1  0  0  0  0
 28 27  2  0  0  0  0
 29 23  1  0  0  0  0
M  END
>  <MODEL>
7

>  <REMARK>
 VINA RESULT:      -7.4      1.363      2.198
  Name = 
  2 active torsions:
  status: ('A' for Active; 'I' for Inactive)
    1  A    between atoms: C_3  and  C_6
    2  A    between atoms: C_10  and  N_15
                            x       y       z     vdW  Elec       q    Type
                         _______ _______ _______ _____ _____    ______ ____

>  <TORSDO>
F 2

$$$$
=
 OpenBabel11042423103D

 29 34  0  0  1  0  0  0  0  0999 V2000
  161.6120  207.4570  151.2210 C   0  0  0  0  0  0  0  0  0  0  0  0
  162.2210  208.8930  149.7360 C   0  0  0  0  0  0  0  0  0  0  0  0
  161.3130  205.1030  151.3480 O   0  0  0  0  0  0  0  0  0  0  0  0
  161.8390  210.9670  149.2440 C   0  0  0  0  0  0  0  0  0  0  0  0
  162.3620  209.5190  150.9240 C   0  0  1  0  0  3  0  0  0  0  0  0
  162.0840  210.9650  150.7350 C   0  0  0  0  0  3  0  0  0  0  0  0
  161.9490  208.6250  151.8930 C   0  0  0  0  0  0  0  0  0  0  0  0
  161.2540  205.2810  148.9730 C   0  0  0  0  0  2  0  0  0  0  0  0
  161.8880  209.7890  148.6930 N   0  0  0  0  0  0  0  0  0  0  0  0
  161.7570  207.6330  149.8800 N   0  0  0  0  0  0  0  0  0  0  0  0
  160.8590  206.3240  151.8490 C   0  0  0  0  0  2  0  0  0  0  0  0
  160.5150  204.8500  150.2280 C   0  0  0  0  0  2  0  0  0  0  0  0
  160.9870  207.2620  147.7020 O   0  0  0  0  0  0  0  0  0  0  0  0
  161.2910  206.7720  148.8220 C   0  0  0  0  0  0  0  0  0  0  0  0
  160.4260  213.9740  147.8270 C   0  0  0  0  0  0  0  0  0  0  0  0
  161.5090  212.1800  148.4830 C   0  0  0  0  0  0  0  0  0  0  0  0
  161.5110  212.3040  147.0070 C   0  0  0  0  0  3  0  0  0  0  0  0
  159.2260  214.4530  148.1030 C   0  0  0  0  0  3  0  0  0  0  0  0
  159.0100  214.1020  149.5300 C   0  0  0  0  0  3  0  0  0  0  0  0
  159.9650  213.3560  150.0090 N   0  0  0  0  0  0  0  0  0  0  0  0
  160.8470  213.3570  146.6200 N   0  0  0  0  0  0  0  0  0  0  0  0
  160.8840  213.2540  148.9390 C   0  0  0  0  0  0  0  0  0  0  0  0
  159.0670  210.7450  154.8120 C   0  0  0  0  0  0  0  0  0  0  0  0
  161.5700  208.9310  153.2400 N   0  0  0  0  0  2  0  0  0  0  0  0
  160.0590  209.8950  154.8480 O   0  0  0  0  0  0  0  0  0  0  0  0
  158.8680  211.1640  153.5140 C   0  0  0  0  0  3  0  0  0  0  0  0
  159.7800  210.5350  152.7430 N   0  0  0  0  0  0  0  0  0  0  0  0
  160.4740  209.7710  153.6120 C   0  0  0  0  0  0  0  0  0  0  0  0
  158.2870  211.1840  155.9990 C   0  0  0  0  0  1  0  0  0  0  0  0
  1 11  1  0  0  0  0
  1  7  2  0  0  0  0
  2 10  1  0  0  0  0
  2  5  1  0  0  0  0
  3 11  1  0  0  0  0
  4  6  2  0  0  0  0
  5  6  1  6  0  0  0
  5  7  1  0  0  0  0
  7 24  1  0  0  0  0
  8 12  1  0  0  0  0
  9  4  1  0  0  0  0
  9  2  2  0  0  0  0
 10  1  1  0  0  0  0
 12  3  1  0  0  0  0
 13 14  2  0  0  0  0
 14  8  1  0  0  0  0
 14 10  1  0  0  0  0
 15 18  1  0  0  0  0
 15 22  1  0  0  0  0
 16 22  1  0  0  0  0
 16  4  1  0  0  0  0
 17 16  2  0  0  0  0
 18 19  2  0  0  0  0
 19 20  1  0  0  0  0
 21 17  1  0  0  0  0
 21 15  2  0  0  0  0
 22 20  2  0  0  0  0
 23 25  1  0  0  0  0
 23 29  1  0  0  0  0
 24 28  1  0  0  0  0
 26 23  2  0  0  0  0
 27 26  1  0  0  0  0
 27 28  2  0  0  0  0
 28 25  1  0  0  0  0
M  END
>  <MODEL>
8

>  <REMARK>
 VINA RESULT:      -7.3      2.133      6.758
  Name = 
  2 active torsions:
  status: ('A' for Active; 'I' for Inactive)
    1  A    between atoms: C_3  and  C_6
    2  A    between atoms: C_10  and  N_15
                            x       y       z     vdW  Elec       q    Type
                         _______ _______ _______ _____ _____    ______ ____

>  <TORSDO>
F 2

$$$$
=
 OpenBabel11042423103D

 29 34  0  0  1  0  0  0  0  0999 V2000
  161.3450  207.2930  150.5820 C   0  0  0  0  0  0  0  0  0  0  0  0
  162.3040  208.8550  149.4520 C   0  0  0  0  0  0  0  0  0  0  0  0
  161.1660  204.9250  150.4750 O   0  0  0  0  0  0  0  0  0  0  0  0
  161.9720  210.9430  148.9790 C   0  0  0  0  0  0  0  0  0  0  0  0
  162.0230  209.3990  150.6550 C   0  0  1  0  0  3  0  0  0  0  0  0
  161.7300  210.8430  150.4680 C   0  0  0  0  0  3  0  0  0  0  0  0
  161.3790  208.4220  151.3900 C   0  0  0  0  0  0  0  0  0  0  0  0
  161.8520  205.2720  148.2200 C   0  0  0  0  0  2  0  0  0  0  0  0
  162.2640  209.8110  148.4090 N   0  0  0  0  0  0  0  0  0  0  0  0
  161.8960  207.5710  149.3700 N   0  0  0  0  0  0  0  0  0  0  0  0
  160.5020  206.0880  150.8710 C   0  0  0  0  0  2  0  0  0  0  0  0
  160.7810  204.7220  149.1460 C   0  0  0  0  0  2  0  0  0  0  0  0
  161.8810  207.3270  147.0430 O   0  0  0  0  0  0  0  0  0  0  0  0
  161.8440  206.7700  148.1720 C   0  0  0  0  0  0  0  0  0  0  0  0
  161.2450  213.5830  146.6250 C   0  0  0  0  0  0  0  0  0  0  0  0
  161.8260  212.1930  148.2220 C   0  0  0  0  0  0  0  0  0  0  0  0
  162.9130  213.1520  147.9160 C   0  0  0  0  0  3  0  0  0  0  0  0
  160.7390  213.4060  145.4160 C   0  0  0  0  0  3  0  0  0  0  0  0
  159.8310  212.2390  145.5650 C   0  0  0  0  0  3  0  0  0  0  0  0
  159.9080  211.6980  146.7480 N   0  0  0  0  0  0  0  0  0  0  0  0
  162.5730  213.9600  146.9510 N   0  0  0  0  0  0  0  0  0  0  0  0
  160.8090  212.5340  147.4470 C   0  0  0  0  0  0  0  0  0  0  0  0
  160.7630  210.4780  155.4790 C   0  0  0  0  0  0  0  0  0  0  0  0
  160.5750  208.6140  152.5600 N   0  0  0  0  0  2  0  0  0  0  0  0
  160.0990  209.7220  154.6430 O   0  0  0  0  0  0  0  0  0  0  0  0
  162.0440  210.6650  155.0090 C   0  0  0  0  0  3  0  0  0  0  0  0
  162.1490  209.9930  153.8430 N   0  0  0  0  0  0  0  0  0  0  0  0
  160.9290  209.4430  153.6700 C   0  0  0  0  0  0  0  0  0  0  0  0
  160.2040  211.0370  156.7380 C   0  0  0  0  0  1  0  0  0  0  0  0
  1 11  1  0  0  0  0
  1  7  2  0  0  0  0
  2  5  1  0  0  0  0
  3 11  1  0  0  0  0
  4  6  2  0  0  0  0
  5  6  1  6  0  0  0
  5  7  1  0  0  0  0
  7 24  1  0  0  0  0
  8 12  1  0  0  0  0
  9  4  1  0  0  0  0
  9  2  2  0  0  0  0
 10  2  1  0  0  0  0
 10  1  1  0  0  0  0
 12  3  1  0  0  0  0
 13 14  2  0  0  0  0
 14  8  1  0  0  0  0
 14 10  1  0  0  0  0
 15 21  1  0  0  0  0
 15 22  1  0  0  0  0
 16  4  1  0  0  0  0
 17 16  1  0  0  0  0
 18 19  1  0  0  0  0
 18 15  2  0  0  0  0
 19 20  2  0  0  0  0
 20 22  1  0  0  0  0
 21 17  2  0  0  0  0
 22 16  2  0  0  0  0
 23 29  1  0  0  0  0
 24 28  1  0  0  0  0
 25 23  1  0  0  0  0
 26 23  2  0  0  0  0
 27 26  1  0  0  0  0
 28 27  2  0  0  0  0
 28 25  1  0  0  0  0
M  END
>  <MODEL>
9

>  <REMARK>
 VINA RESULT:      -7.3      2.057      6.801
  Name = 
  2 active torsions:
  status: ('A' for Active; 'I' for Inactive)
    1  A    between atoms: C_3  and  C_6
    2  A    between atoms: C_10  and  N_15
                            x       y       z     vdW  Elec       q    Type
                         _______ _______ _______ _____ _____    ______ ____

>  <TORSDO>
F 2

$$$$
