=
 OpenBabel11052410003D

 39 43  0  0  1  0  0  0  0  0999 V2000
  162.4870  213.2740  146.3560 O   0  0  0  0  0  0  0  0  0  0  0  0
  160.6970  213.3640  147.8300 N   0  0  0  0  0  0  0  0  0  0  0  0
  161.9600  210.8900  149.0790 C   0  0  1  0  0  3  0  0  0  0  0  0
  161.6200  209.4840  148.7310 C   0  0  0  0  0  2  0  0  0  0  0  0
  160.8140  210.7230  151.2830 C   0  0  0  0  0  3  0  0  0  0  0  0
  158.4920  213.7100  150.8930 C   0  0  0  0  0  3  0  0  0  0  0  0
  162.5520  211.6710  148.0350 N   0  0  0  0  0  2  0  0  0  0  0  0
  161.9430  212.8040  147.3840 C   0  0  0  0  0  0  0  0  0  0  0  0
  161.3030  212.9530  150.2460 C   0  0  0  0  0  2  0  0  0  0  0  0
  162.1870  208.5000  149.6980 C   0  0  0  0  0  3  0  0  0  0  0  0
  157.9290  213.9060  148.6430 C   0  0  0  0  0  3  0  0  0  0  0  0
  161.8980  208.4710  151.0030 C   0  0  0  0  0  0  0  0  0  0  0  0
  156.8560  214.0600  149.3420 N   0  0  0  0  0  0  0  0  0  0  0  0
  160.3020  213.3640  149.2050 C   0  0  0  0  0  0  0  0  0  0  0  0
  161.4440  211.4670  150.1790 C   0  0  2  0  0  3  0  0  0  0  0  0
  157.1960  213.9410  150.7280 C   0  0  0  0  0  2  0  0  0  0  0  0
  160.9800  209.4460  151.6660 C   0  0  0  0  0  0  0  0  0  0  0  0
  159.0440  213.6620  149.5460 C   0  0  0  0  0  0  0  0  0  0  0  0
  160.6730  209.6880  154.1210 C   0  0  0  0  0  0  0  0  0  0  0  0
  160.3210  209.0750  152.8800 N   0  0  0  0  0  2  0  0  0  0  0  0
  161.8860  209.9250  154.3950 O   0  0  0  0  0  0  0  0  0  0  0  0
  159.5110  211.4150  155.3650 C   0  0  0  0  0  3  0  0  0  0  0  0
  159.6160  210.1270  155.0370 C   0  0  0  0  0  3  0  0  0  0  0  0
  158.3520  211.9520  156.1570 C   0  0  0  0  0  2  0  0  0  0  0  0
  156.6630  212.4150  154.3010 C   0  0  1  0  0  3  0  0  0  0  0  0
  156.7250  213.8320  156.2140 N   0  0  0  0  0  2  0  0  0  0  0  0
  155.5790  213.4470  154.1380 C   0  0  0  0  0  2  0  0  0  0  0  0
  157.5720  213.0060  155.3650 C   0  0  1  0  0  3  0  0  0  0  0  0
  155.7720  214.4220  155.2830 C   0  0  0  0  0  2  0  0  0  0  0  0
  156.0820  211.2200  154.7340 O   0  0  0  0  0  1  0  0  0  0  0  0
  162.3250  207.2580  151.7750 C   0  0  0  0  0  2  0  0  0  0  0  0
  161.2060  206.2250  151.9970 C   0  0  0  0  0  2  0  0  0  0  0  0
  161.9700  203.7390  151.7580 C   0  0  0  0  0  2  0  0  0  0  0  0
  161.1280  203.8880  148.8790 C   0  0  0  0  0  2  0  0  0  0  0  0
  161.1500  201.9310  150.3530 N   0  0  0  0  0  2  0  0  0  0  0  0
  160.9770  202.5840  151.6440 C   0  0  0  0  0  2  0  0  0  0  0  0
  161.4020  204.9970  151.1540 C   0  0  0  0  0  0  0  0  0  0  0  0
  160.3610  202.6520  149.3640 C   0  0  0  0  0  2  0  0  0  0  0  0
  161.0250  205.0500  149.8590 C   0  0  0  0  0  3  0  0  0  0  0  0
  1  8  2  0  0  0  0
  2 14  2  0  0  0  0
  3  4  1  6  0  0  0
  3 15  1  0  0  0  0
  4 10  1  0  0  0  0
  5 17  2  0  0  0  0
  7  3  1  0  0  0  0
  8  2  1  0  0  0  0
  8  7  1  0  0  0  0
 10 12  2  0  0  0  0
 11 13  2  0  0  0  0
 11 18  1  0  0  0  0
 12 17  1  0  0  0  0
 12 31  1  0  0  0  0
 13 16  1  0  0  0  0
 14 18  1  0  0  0  0
 14  9  1  0  0  0  0
 15  9  1  6  0  0  0
 15  5  1  0  0  0  0
 16  6  1  0  0  0  0
 17 20  1  0  0  0  0
 18  6  2  0  0  0  0
 19 21  2  0  0  0  0
 19 23  1  0  0  0  0
 20 19  1  0  0  0  0
 22 24  1  0  0  0  0
 23 22  2  0  0  0  0
 25 30  1  1  0  0  0
 25 28  1  0  0  0  0
 27 25  1  0  0  0  0
 27 29  1  0  0  0  0
 28 24  1  1  0  0  0
 28 26  1  0  0  0  0
 29 26  1  0  0  0  0
 31 32  1  0  0  0  0
 34 38  1  0  0  0  0
 34 39  1  0  0  0  0
 35 36  1  0  0  0  0
 36 33  1  0  0  0  0
 37 33  1  0  0  0  0
 37 32  1  0  0  0  0
 38 35  1  0  0  0  0
 39 37  2  0  0  0  0
M  END
>  <MODEL>
1

>  <REMARK>
 VINA RESULT:      -6.9      0.000      0.000
  Name = 
  7 active torsions:
  status: ('A' for Active; 'I' for Inactive)
    1  A    between atoms: C_11  and  C_23
    2  A    between atoms: C_11  and  C_35
    3  A    between atoms: C_12  and  C_28
    4  A    between atoms: C_12  and  C_30
    5  A    between atoms: C_17  and  C_37
    6  A    between atoms: N_18  and  C_32
    7  A    between atoms: C_22  and  C_35
                            x       y       z     vdW  Elec       q    Type
                         _______ _______ _______ _____ _____    ______ ____

>  <TORSDO>
F 7

$$$$
=
 OpenBabel11052410003D

 39 43  0  0  1  0  0  0  0  0999 V2000
  158.8020  212.9700  157.1570 O   0  0  0  0  0  0  0  0  0  0  0  0
  159.4150  210.8710  156.3790 N   0  0  0  0  0  2  0  0  0  0  0  0
  160.0070  212.3190  153.7660 C   0  0  1  0  0  3  0  0  0  0  0  0
  159.0530  212.4740  152.6350 C   0  0  0  0  0  2  0  0  0  0  0  0
  161.3820  210.6700  152.5060 C   0  0  0  0  0  3  0  0  0  0  0  0
  161.3150  207.8640  155.0720 C   0  0  0  0  0  3  0  0  0  0  0  0
  159.6400  212.9630  154.9910 N   0  0  0  0  0  2  0  0  0  0  0  0
  159.2900  212.2940  156.2200 C   0  0  0  0  0  0  0  0  0  0  0  0
  161.5310  210.8380  155.0030 C   0  0  0  0  0  2  0  0  0  0  0  0
  159.7100  212.9740  151.3930 C   0  0  0  0  0  3  0  0  0  0  0  0
  159.2740  207.9450  156.1880 C   0  0  0  0  0  3  0  0  0  0  0  0
  160.6960  212.3380  150.7520 C   0  0  0  0  0  0  0  0  0  0  0  0
  159.5240  206.7140  155.8920 N   0  0  0  0  0  0  0  0  0  0  0  0
  160.4310  210.1100  155.7210 C   0  0  0  0  0  0  0  0  0  0  0  0
  160.9640  211.3750  153.7290 C   0  0  2  0  0  3  0  0  0  0  0  0
  160.7790  206.6580  155.2060 C   0  0  0  0  0  3  0  0  0  0  0  0
  161.2850  211.0460  151.2190 C   0  0  0  0  0  0  0  0  0  0  0  0
  160.3630  208.7750  155.6920 C   0  0  0  0  0  0  0  0  0  0  0  0
  161.9250  208.7680  150.4580 C   0  0  0  0  0  0  0  0  0  0  0  0
  161.9250  210.1850  150.2740 N   0  0  0  0  0  2  0  0  0  0  0  0
  162.0930  208.2730  151.6110 O   0  0  0  0  0  0  0  0  0  0  0  0
  160.8530  206.8230  149.4830 C   0  0  0  0  0  3  0  0  0  0  0  0
  161.6350  207.8900  149.3200 C   0  0  0  0  0  3  0  0  0  0  0  0
  160.3810  205.9870  148.3280 C   0  0  0  0  0  2  0  0  0  0  0  0
  162.3370  204.7920  147.2060 C   0  0  1  0  0  3  0  0  0  0  0  0
  160.7680  205.9860  145.8710 N   0  0  0  0  0  2  0  0  0  0  0  0
  162.7440  204.6250  145.7660 C   0  0  0  0  0  2  0  0  0  0  0  0
  161.3990  205.9870  147.1830 C   0  0  1  0  0  3  0  0  0  0  0  0
  161.8280  205.5390  144.9770 C   0  0  0  0  0  2  0  0  0  0  0  0
  161.6750  203.6340  147.6210 O   0  0  0  0  0  1  0  0  0  0  0  0
  161.0510  212.8250  149.3780 C   0  0  0  0  0  2  0  0  0  0  0  0
  160.3650  214.1430  148.9790 C   0  0  0  0  0  2  0  0  0  0  0  0
  160.0040  213.7510  146.4230 C   0  0  0  0  0  2  0  0  0  0  0  0
  157.0500  213.7680  146.9650 C   0  0  0  0  0  2  0  0  0  0  0  0
  158.2620  212.5680  145.2050 N   0  0  0  0  0  2  0  0  0  0  0  0
  159.5570  212.4060  145.8550 C   0  0  0  0  0  2  0  0  0  0  0  0
  159.4450  213.9640  147.8050 C   0  0  0  0  0  0  0  0  0  0  0  0
  157.2220  212.4400  146.2170 C   0  0  0  0  0  2  0  0  0  0  0  0
  158.1140  213.9660  148.0360 C   0  0  0  0  0  3  0  0  0  0  0  0
  3  4  1  1  0  0  0
  3  7  1  0  0  0  0
  6 16  2  0  0  0  0
  6 18  1  0  0  0  0
  7  8  1  0  0  0  0
  8  2  1  0  0  0  0
  8  1  2  0  0  0  0
  9 14  1  0  0  0  0
 10  4  1  0  0  0  0
 12 17  1  0  0  0  0
 12 10  2  0  0  0  0
 13 11  2  0  0  0  0
 14  2  1  0  0  0  0
 15  5  1  1  0  0  0
 15  3  1  0  0  0  0
 15  9  1  0  0  0  0
 16 13  1  0  0  0  0
 17  5  2  0  0  0  0
 18 14  2  0  0  0  0
 18 11  1  0  0  0  0
 19 21  2  0  0  0  0
 20 19  1  0  0  0  0
 20 17  1  0  0  0  0
 23 22  2  0  0  0  0
 23 19  1  0  0  0  0
 24 22  1  0  0  0  0
 25 30  1  6  0  0  0
 26 28  1  0  0  0  0
 27 25  1  0  0  0  0
 28 25  1  0  0  0  0
 28 24  1  1  0  0  0
 29 27  1  0  0  0  0
 29 26  1  0  0  0  0
 31 12  1  0  0  0  0
 32 31  1  0  0  0  0
 33 37  1  0  0  0  0
 34 39  1  0  0  0  0
 35 36  1  0  0  0  0
 35 38  1  0  0  0  0
 36 33  1  0  0  0  0
 37 39  2  0  0  0  0
 37 32  1  0  0  0  0
 38 34  1  0  0  0  0
M  END
>  <MODEL>
2

>  <REMARK>
 VINA RESULT:      -6.7      2.956      9.004
  Name = 
  7 active torsions:
  status: ('A' for Active; 'I' for Inactive)
    1  A    between atoms: C_11  and  C_23
    2  A    between atoms: C_11  and  C_35
    3  A    between atoms: C_12  and  C_28
    4  A    between atoms: C_12  and  C_30
    5  A    between atoms: C_17  and  C_37
    6  A    between atoms: N_18  and  C_32
    7  A    between atoms: C_22  and  C_35
                            x       y       z     vdW  Elec       q    Type
                         _______ _______ _______ _____ _____    ______ ____

>  <TORSDO>
F 7

$$$$
=
 OpenBabel11052410003D

 39 43  0  0  1  0  0  0  0  0999 V2000
  161.5810  199.8080  148.2390 O   0  0  0  0  0  0  0  0  0  0  0  0
  161.0300  201.6080  146.8810 N   0  0  0  0  0  2  0  0  0  0  0  0
  161.2260  203.2430  149.4420 C   0  0  1  0  0  3  0  0  0  0  0  0
  160.0880  203.5620  150.3470 C   0  0  0  0  0  2  0  0  0  0  0  0
  161.3420  205.5870  148.6070 C   0  0  0  0  0  3  0  0  0  0  0  0
  161.0530  204.8320  144.8900 C   0  0  0  0  0  3  0  0  0  0  0  0
  161.5720  201.8590  149.3290 N   0  0  0  0  0  2  0  0  0  0  0  0
  161.4230  201.0490  148.1450 C   0  0  0  0  0  0  0  0  0  0  0  0
  162.3720  203.7010  147.3140 C   0  0  0  0  0  2  0  0  0  0  0  0
  160.4300  204.6070  151.3550 C   0  0  0  0  0  3  0  0  0  0  0  0
  159.7070  202.9510  144.6310 C   0  0  0  0  0  3  0  0  0  0  0  0
  160.8150  205.8510  151.0530 C   0  0  0  0  0  0  0  0  0  0  0  0
  159.3430  203.8310  143.7600 N   0  0  0  0  0  0  0  0  0  0  0  0
  161.3860  202.9340  146.4820 C   0  0  0  0  0  0  0  0  0  0  0  0
  161.6670  204.1510  148.5530 C   0  0  2  0  0  3  0  0  0  0  0  0
  160.1690  204.9910  143.9140 C   0  0  0  0  0  3  0  0  0  0  0  0
  160.9730  206.3470  149.6520 C   0  0  0  0  0  0  0  0  0  0  0  0
  160.7980  203.5010  145.4230 C   0  0  0  0  0  0  0  0  0  0  0  0
  161.9830  208.6190  149.6120 C   0  0  0  0  0  0  0  0  0  0  0  0
  160.8710  207.7490  149.3890 N   0  0  0  0  0  2  0  0  0  0  0  0
  162.7180  208.4680  150.6310 O   0  0  0  0  0  0  0  0  0  0  0  0
  162.1140  210.9200  148.8600 C   0  0  0  0  0  3  0  0  0  0  0  0
  162.3250  209.6290  148.6060 C   0  0  0  0  0  3  0  0  0  0  0  0
  162.5990  212.0100  147.9460 C   0  0  0  0  0  2  0  0  0  0  0  0
  160.8810  213.5460  146.8510 C   0  0  1  0  0  3  0  0  0  0  0  0
  160.8310  213.2200  149.2090 N   0  0  0  0  0  2  0  0  0  0  0  0
  159.7200  214.3350  147.3940 C   0  0  0  0  0  2  0  0  0  0  0  0
  161.7400  213.2720  148.0730 C   0  0  1  0  0  3  0  0  0  0  0  0
  159.8360  214.2390  148.9030 C   0  0  0  0  0  2  0  0  0  0  0  0
  160.3940  212.3600  146.2950 O   0  0  0  0  0  1  0  0  0  0  0  0
  160.8470  206.8510  152.1690 C   0  0  0  0  0  2  0  0  0  0  0  0
  160.8340  206.2280  153.5760 C   0  0  0  0  0  2  0  0  0  0  0  0
  161.5390  208.6200  154.3530 C   0  0  0  0  0  2  0  0  0  0  0  0
  160.4480  207.9250  157.0630 C   0  0  0  0  0  2  0  0  0  0  0  0
  160.5730  210.1290  155.9980 N   0  0  0  0  0  2  0  0  0  0  0  0
  160.5240  209.7350  154.5960 C   0  0  0  0  0  2  0  0  0  0  0  0
  160.9380  207.2720  154.6520 C   0  0  0  0  0  0  0  0  0  0  0  0
  159.7090  209.2340  156.7560 C   0  0  0  0  0  2  0  0  0  0  0  0
  160.4480  206.9730  155.8740 C   0  0  0  0  0  3  0  0  0  0  0  0
  2  8  1  0  0  0  0
  3  4  1  6  0  0  0
  4 10  1  0  0  0  0
  5 17  2  0  0  0  0
  6 18  1  0  0  0  0
  7  3  1  0  0  0  0
  8  1  2  0  0  0  0
  8  7  1  0  0  0  0
 11 18  1  0  0  0  0
 12 10  2  0  0  0  0
 12 31  1  0  0  0  0
 13 16  1  0  0  0  0
 13 11  2  0  0  0  0
 14  2  1  0  0  0  0
 14  9  1  0  0  0  0
 15  9  1  6  0  0  0
 15  5  1  0  0  0  0
 15  3  1  0  0  0  0
 16  6  2  0  0  0  0
 17 12  1  0  0  0  0
 18 14  2  0  0  0  0
 19 21  2  0  0  0  0
 20 19  1  0  0  0  0
 20 17  1  0  0  0  0
 23 22  2  0  0  0  0
 23 19  1  0  0  0  0
 24 22  1  0  0  0  0
 25 30  1  1  0  0  0
 25 27  1  0  0  0  0
 25 28  1  0  0  0  0
 27 29  1  0  0  0  0
 28 24  1  6  0  0  0
 28 26  1  0  0  0  0
 29 26  1  0  0  0  0
 31 32  1  0  0  0  0
 32 37  1  0  0  0  0
 33 36  1  0  0  0  0
 33 37  1  0  0  0  0
 35 38  1  0  0  0  0
 36 35  1  0  0  0  0
 37 39  2  0  0  0  0
 38 34  1  0  0  0  0
 39 34  1  0  0  0  0
M  END
>  <MODEL>
3

>  <REMARK>
 VINA RESULT:      -6.4      3.206      8.421
  Name = 
  7 active torsions:
  status: ('A' for Active; 'I' for Inactive)
    1  A    between atoms: C_11  and  C_23
    2  A    between atoms: C_11  and  C_35
    3  A    between atoms: C_12  and  C_28
    4  A    between atoms: C_12  and  C_30
    5  A    between atoms: C_17  and  C_37
    6  A    between atoms: N_18  and  C_32
    7  A    between atoms: C_22  and  C_35
                            x       y       z     vdW  Elec       q    Type
                         _______ _______ _______ _____ _____    ______ ____

>  <TORSDO>
F 7

$$$$
=
 OpenBabel11052410003D

 39 43  0  0  1  0  0  0  0  0999 V2000
  161.5810  199.4720  147.5110 O   0  0  0  0  0  0  0  0  0  0  0  0
  161.1220  201.5130  146.5060 N   0  0  0  0  0  2  0  0  0  0  0  0
  161.1490  202.6040  149.3490 C   0  0  1  0  0  3  0  0  0  0  0  0
  159.9550  202.7510  150.2250 C   0  0  0  0  0  2  0  0  0  0  0  0
  161.3210  205.0640  149.0080 C   0  0  0  0  0  3  0  0  0  0  0  0
  161.2780  205.0690  145.2050 C   0  0  0  0  0  3  0  0  0  0  0  0
  161.5020  201.2650  148.9850 N   0  0  0  0  0  2  0  0  0  0  0  0
  161.4310  200.7090  147.6560 C   0  0  0  0  0  0  0  0  0  0  0  0
  162.4340  203.4600  147.4350 C   0  0  0  0  0  2  0  0  0  0  0  0
  160.2300  203.5690  151.4410 C   0  0  0  0  0  3  0  0  0  0  0  0
  159.9510  203.2960  144.4890 C   0  0  0  0  0  3  0  0  0  0  0  0
  160.6340  204.8430  151.4180 C   0  0  0  0  0  0  0  0  0  0  0  0
  159.6460  204.3360  143.7900 N   0  0  0  0  0  0  0  0  0  0  0  0
  161.5040  202.8880  146.4040 C   0  0  0  0  0  0  0  0  0  0  0  0
  161.6490  203.6640  148.6900 C   0  0  2  0  0  3  0  0  0  0  0  0
  160.4600  205.4310  144.2260 C   0  0  0  0  0  3  0  0  0  0  0  0
  160.8850  205.6070  150.1580 C   0  0  0  0  0  0  0  0  0  0  0  0
  160.9880  203.6630  145.4440 C   0  0  0  0  0  0  0  0  0  0  0  0
  161.8910  207.8370  149.7180 C   0  0  0  0  0  0  0  0  0  0  0  0
  160.8010  207.0340  150.1740 N   0  0  0  0  0  2  0  0  0  0  0  0
  163.0830  207.5150  149.9980 O   0  0  0  0  0  0  0  0  0  0  0  0
  162.0590  210.1970  149.1900 C   0  0  0  0  0  3  0  0  0  0  0  0
  161.6300  208.9840  148.8440 C   0  0  0  0  0  3  0  0  0  0  0  0
  161.9740  211.3760  148.2620 C   0  0  0  0  0  2  0  0  0  0  0  0
  160.4670  213.4330  148.1590 C   0  0  1  0  0  3  0  0  0  0  0  0
  160.7720  212.3020  150.2320 N   0  0  0  0  0  2  0  0  0  0  0  0
  159.6260  214.1370  149.1890 C   0  0  0  0  0  2  0  0  0  0  0  0
  161.4510  212.6220  148.9850 C   0  0  1  0  0  3  0  0  0  0  0  0
  159.9870  213.4970  150.5140 C   0  0  0  0  0  2  0  0  0  0  0  0
  159.6400  212.6050  147.3950 O   0  0  0  0  0  1  0  0  0  0  0  0
  160.5940  205.6010  152.7120 C   0  0  0  0  0  2  0  0  0  0  0  0
  161.7450  206.6070  152.8900 C   0  0  0  0  0  2  0  0  0  0  0  0
  160.7280  207.7290  155.0180 C   0  0  0  0  0  2  0  0  0  0  0  0
  161.1030  210.3760  153.6480 C   0  0  0  0  0  2  0  0  0  0  0  0
  161.1410  209.8930  156.0500 N   0  0  0  0  0  2  0  0  0  0  0  0
  161.5790  208.5040  156.0220 C   0  0  0  0  0  2  0  0  0  0  0  0
  161.3030  207.8380  153.6300 C   0  0  0  0  0  0  0  0  0  0  0  0
  161.8230  210.6110  154.9820 C   0  0  0  0  0  2  0  0  0  0  0  0
  161.4700  209.0340  153.0260 C   0  0  0  0  0  3  0  0  0  0  0  0
  1  8  2  0  0  0  0
  2  8  1  0  0  0  0
  3  4  1  6  0  0  0
  4 10  1  0  0  0  0
  5 17  2  0  0  0  0
  6 18  1  0  0  0  0
  7  3  1  0  0  0  0
  8  7  1  0  0  0  0
 11 18  1  0  0  0  0
 12 10  2  0  0  0  0
 12 31  1  0  0  0  0
 13 16  1  0  0  0  0
 13 11  2  0  0  0  0
 14  2  1  0  0  0  0
 14  9  1  0  0  0  0
 15  9  1  6  0  0  0
 15  5  1  0  0  0  0
 15  3  1  0  0  0  0
 16  6  2  0  0  0  0
 17 20  1  0  0  0  0
 17 12  1  0  0  0  0
 18 14  2  0  0  0  0
 19 21  2  0  0  0  0
 19 20  1  0  0  0  0
 23 22  2  0  0  0  0
 23 19  1  0  0  0  0
 24 22  1  0  0  0  0
 25 30  1  1  0  0  0
 25 28  1  0  0  0  0
 25 27  1  0  0  0  0
 26 29  1  0  0  0  0
 27 29  1  0  0  0  0
 28 24  1  6  0  0  0
 28 26  1  0  0  0  0
 31 32  1  0  0  0  0
 32 37  1  0  0  0  0
 33 36  1  0  0  0  0
 34 38  1  0  0  0  0
 36 35  1  0  0  0  0
 37 33  1  0  0  0  0
 38 35  1  0  0  0  0
 39 37  2  0  0  0  0
 39 34  1  0  0  0  0
M  END
>  <MODEL>
4

>  <REMARK>
 VINA RESULT:      -6.2      3.277      8.248
  Name = 
  7 active torsions:
  status: ('A' for Active; 'I' for Inactive)
    1  A    between atoms: C_11  and  C_23
    2  A    between atoms: C_11  and  C_35
    3  A    between atoms: C_12  and  C_28
    4  A    between atoms: C_12  and  C_30
    5  A    between atoms: C_17  and  C_37
    6  A    between atoms: N_18  and  C_32
    7  A    between atoms: C_22  and  C_35
                            x       y       z     vdW  Elec       q    Type
                         _______ _______ _______ _____ _____    ______ ____

>  <TORSDO>
F 7

$$$$
=
 OpenBabel11052410003D

 39 43  0  0  1  0  0  0  0  0999 V2000
  157.5250  212.9170  157.2200 O   0  0  0  0  0  0  0  0  0  0  0  0
  158.6800  211.0840  156.3870 N   0  0  0  0  0  2  0  0  0  0  0  0
  158.8740  212.7210  153.8260 C   0  0  1  0  0  3  0  0  0  0  0  0
  157.9170  212.6520  152.6880 C   0  0  0  0  0  2  0  0  0  0  0  0
  160.6440  211.5390  152.5340 C   0  0  0  0  0  3  0  0  0  0  0  0
  161.3190  208.7360  155.0150 C   0  0  0  0  0  3  0  0  0  0  0  0
  158.3440  213.2030  155.0650 N   0  0  0  0  0  2  0  0  0  0  0  0
  158.1800  212.4260  156.2690 C   0  0  0  0  0  0  0  0  0  0  0  0
  160.7340  211.6610  155.0370 C   0  0  0  0  0  2  0  0  0  0  0  0
  158.4220  213.3480  151.4700 C   0  0  0  0  0  3  0  0  0  0  0  0
  159.3260  208.2340  156.1080 C   0  0  0  0  0  3  0  0  0  0  0  0
  159.5450  213.0190  150.8230 C   0  0  0  0  0  0  0  0  0  0  0  0
  159.8960  207.1250  155.7780 N   0  0  0  0  0  0  0  0  0  0  0  0
  159.8650  210.6430  155.7190 C   0  0  0  0  0  0  0  0  0  0  0  0
  160.0480  212.0680  153.7730 C   0  0  2  0  0  3  0  0  0  0  0  0
  161.1240  207.4270  155.1060 C   0  0  0  0  0  3  0  0  0  0  0  0
  160.4550  211.9160  151.2580 C   0  0  0  0  0  0  0  0  0  0  0  0
  160.1560  209.3400  155.6500 C   0  0  0  0  0  0  0  0  0  0  0  0
  161.9750  210.0620  150.6000 C   0  0  0  0  0  0  0  0  0  0  0  0
  161.3060  211.2880  150.2960 N   0  0  0  0  0  2  0  0  0  0  0  0
  162.4810  209.8780  151.7460 O   0  0  0  0  0  0  0  0  0  0  0  0
  161.4560  207.7970  149.9080 C   0  0  0  0  0  3  0  0  0  0  0  0
  161.9900  208.9810  149.6100 C   0  0  0  0  0  3  0  0  0  0  0  0
  161.2870  206.7100  148.8850 C   0  0  0  0  0  2  0  0  0  0  0  0
  160.8300  204.2150  148.6060 C   0  0  1  0  0  3  0  0  0  0  0  0
  161.4140  205.0700  150.7500 N   0  0  0  0  0  2  0  0  0  0  0  0
  160.8830  203.0520  149.5600 C   0  0  0  0  0  2  0  0  0  0  0  0
  160.7320  205.4280  149.5150 C   0  0  1  0  0  3  0  0  0  0  0  0
  161.0820  203.6630  150.9330 C   0  0  0  0  0  2  0  0  0  0  0  0
  162.0100  204.2330  147.8570 O   0  0  0  0  0  1  0  0  0  0  0  0
  159.7620  213.6260  149.4690 C   0  0  0  0  0  2  0  0  0  0  0  0
  158.9600  212.9540  148.3400 C   0  0  0  0  0  2  0  0  0  0  0  0
  160.8940  213.8700  146.8430 C   0  0  0  0  0  2  0  0  0  0  0  0
  159.1580  213.2920  144.4620 C   0  0  0  0  0  2  0  0  0  0  0  0
  161.6050  213.2830  144.5920 N   0  0  0  0  0  2  0  0  0  0  0  0
  161.7820  212.9560  146.0010 C   0  0  0  0  0  2  0  0  0  0  0  0
  159.5100  213.2940  146.9830 C   0  0  0  0  0  0  0  0  0  0  0  0
  160.4490  212.5510  144.0940 C   0  0  0  0  0  2  0  0  0  0  0  0
  158.7400  213.0360  145.9040 C   0  0  0  0  0  3  0  0  0  0  0  0
  3  4  1  1  0  0  0
  3  7  1  0  0  0  0
  6 16  2  0  0  0  0
  6 18  1  0  0  0  0
  7  8  1  0  0  0  0
  8  2  1  0  0  0  0
  8  1  2  0  0  0  0
  9 14  1  0  0  0  0
 10  4  1  0  0  0  0
 12 17  1  0  0  0  0
 12 10  2  0  0  0  0
 13 11  2  0  0  0  0
 14  2  1  0  0  0  0
 15  5  1  6  0  0  0
 15  3  1  0  0  0  0
 15  9  1  0  0  0  0
 16 13  1  0  0  0  0
 17  5  2  0  0  0  0
 18 14  2  0  0  0  0
 18 11  1  0  0  0  0
 19 21  2  0  0  0  0
 20 19  1  0  0  0  0
 20 17  1  0  0  0  0
 23 22  2  0  0  0  0
 23 19  1  0  0  0  0
 24 22  1  0  0  0  0
 25 30  1  1  0  0  0
 25 28  1  0  0  0  0
 25 27  1  0  0  0  0
 26 29  1  0  0  0  0
 27 29  1  0  0  0  0
 28 24  1  6  0  0  0
 28 26  1  0  0  0  0
 31 12  1  0  0  0  0
 32 31  1  0  0  0  0
 33 37  1  0  0  0  0
 34 39  1  0  0  0  0
 35 36  1  0  0  0  0
 36 33  1  0  0  0  0
 37 32  1  0  0  0  0
 38 34  1  0  0  0  0
 38 35  1  0  0  0  0
 39 37  2  0  0  0  0
M  END
>  <MODEL>
5

>  <REMARK>
 VINA RESULT:      -6.1      2.510      8.719
  Name = 
  7 active torsions:
  status: ('A' for Active; 'I' for Inactive)
    1  A    between atoms: C_11  and  C_23
    2  A    between atoms: C_11  and  C_35
    3  A    between atoms: C_12  and  C_28
    4  A    between atoms: C_12  and  C_30
    5  A    between atoms: C_17  and  C_37
    6  A    between atoms: N_18  and  C_32
    7  A    between atoms: C_22  and  C_35
                            x       y       z     vdW  Elec       q    Type
                         _______ _______ _______ _____ _____    ______ ____

>  <TORSDO>
F 7

$$$$
=
 OpenBabel11052410003D

 39 43  0  0  1  0  0  0  0  0999 V2000
  162.3930  205.8280  145.2140 O   0  0  0  0  0  0  0  0  0  0  0  0
  161.8410  204.5410  147.0650 N   0  0  0  0  0  0  0  0  0  0  0  0
  161.7980  207.1990  148.5520 C   0  0  1  0  0  3  0  0  0  0  0  0
  162.9470  207.7890  149.2900 C   0  0  0  0  0  2  0  0  0  0  0  0
  160.6040  206.6430  150.6660 C   0  0  0  0  0  3  0  0  0  0  0  0
  160.0810  202.9330  150.0110 C   0  0  0  0  0  3  0  0  0  0  0  0
  161.9620  207.0570  147.1370 N   0  0  0  0  0  2  0  0  0  0  0  0
  162.0540  205.8090  146.4220 C   0  0  0  0  0  0  0  0  0  0  0  0
  160.0100  205.5090  148.5090 C   0  0  0  0  0  2  0  0  0  0  0  0
  162.5490  208.9430  150.1470 C   0  0  0  0  0  3  0  0  0  0  0  0
  161.8870  202.1510  148.7680 C   0  0  0  0  0  3  0  0  0  0  0  0
  161.6690  208.8700  151.1500 C   0  0  0  0  0  0  0  0  0  0  0  0
  161.6420  201.2980  149.7040 N   0  0  0  0  0  0  0  0  0  0  0  0
  160.9290  204.3750  148.1540 C   0  0  0  0  0  0  0  0  0  0  0  0
  160.8230  206.5480  149.2120 C   0  0  2  0  0  3  0  0  0  0  0  0
  160.5310  201.7730  150.4730 C   0  0  0  0  0  2  0  0  0  0  0  0
  160.9500  207.6150  151.5270 C   0  0  0  0  0  0  0  0  0  0  0  0
  160.9430  203.2540  148.8820 C   0  0  0  0  0  0  0  0  0  0  0  0
  161.2410  206.8150  153.8630 C   0  0  0  0  0  0  0  0  0  0  0  0
  160.4560  207.4630  152.8600 N   0  0  0  0  0  2  0  0  0  0  0  0
  161.9140  205.7810  153.5780 O   0  0  0  0  0  0  0  0  0  0  0  0
  160.5250  208.4040  155.5480 C   0  0  0  0  0  3  0  0  0  0  0  0
  161.3380  207.4060  155.2010 C   0  0  0  0  0  3  0  0  0  0  0  0
  160.4580  208.9350  156.9530 C   0  0  0  0  0  2  0  0  0  0  0  0
  160.8800  211.4470  156.8030 C   0  0  1  0  0  3  0  0  0  0  0  0
  158.8400  210.5470  155.9670 N   0  0  0  0  0  2  0  0  0  0  0  0
  160.0830  212.5860  156.2270 C   0  0  0  0  0  2  0  0  0  0  0  0
  159.8540  210.3430  156.9920 C   0  0  1  0  0  3  0  0  0  0  0  0
  158.7320  211.9960  155.8710 C   0  0  0  0  0  2  0  0  0  0  0  0
  161.8630  211.0770  155.8810 O   0  0  0  0  0  1  0  0  0  0  0  0
  161.5920  210.0400  152.0850 C   0  0  0  0  0  2  0  0  0  0  0  0
  160.1620  210.4170  152.5080 C   0  0  0  0  0  2  0  0  0  0  0  0
  160.7440  212.6130  151.2190 C   0  0  0  0  0  2  0  0  0  0  0  0
  158.0240  213.6330  151.9800 C   0  0  0  0  0  2  0  0  0  0  0  0
  159.3460  214.1780  149.9890 N   0  0  0  0  0  2  0  0  0  0  0  0
  160.1290  212.9550  149.8640 C   0  0  0  0  0  2  0  0  0  0  0  0
  159.7880  211.8000  152.0520 C   0  0  0  0  0  0  0  0  0  0  0  0
  158.0130  213.8220  150.4580 C   0  0  0  0  0  2  0  0  0  0  0  0
  158.5670  212.2690  152.3850 C   0  0  0  0  0  3  0  0  0  0  0  0
  1  8  2  0  0  0  0
  2 14  2  0  0  0  0
  3 15  1  0  0  0  0
  3  4  1  1  0  0  0
  4 10  1  0  0  0  0
  5 17  2  0  0  0  0
  6 16  1  0  0  0  0
  7  3  1  0  0  0  0
  8  2  1  0  0  0  0
  8  7  1  0  0  0  0
 10 12  2  0  0  0  0
 11 18  1  0  0  0  0
 11 13  2  0  0  0  0
 12 17  1  0  0  0  0
 12 31  1  0  0  0  0
 13 16  1  0  0  0  0
 14  9  1  0  0  0  0
 14 18  1  0  0  0  0
 15  9  1  1  0  0  0
 15  5  1  0  0  0  0
 17 20  1  0  0  0  0
 18  6  2  0  0  0  0
 19 23  1  0  0  0  0
 20 19  1  0  0  0  0
 21 19  2  0  0  0  0
 22 24  1  0  0  0  0
 23 22  2  0  0  0  0
 25 30  1  6  0  0  0
 25 28  1  0  0  0  0
 26 28  1  0  0  0  0
 27 25  1  0  0  0  0
 28 24  1  6  0  0  0
 29 26  1  0  0  0  0
 29 27  1  0  0  0  0
 31 32  1  0  0  0  0
 33 37  1  0  0  0  0
 34 39  1  0  0  0  0
 35 38  1  0  0  0  0
 36 35  1  0  0  0  0
 36 33  1  0  0  0  0
 37 39  2  0  0  0  0
 37 32  1  0  0  0  0
 38 34  1  0  0  0  0
M  END
>  <MODEL>
6

>  <REMARK>
 VINA RESULT:      -6.1      2.510      7.293
  Name = 
  7 active torsions:
  status: ('A' for Active; 'I' for Inactive)
    1  A    between atoms: C_11  and  C_23
    2  A    between atoms: C_11  and  C_35
    3  A    between atoms: C_12  and  C_28
    4  A    between atoms: C_12  and  C_30
    5  A    between atoms: C_17  and  C_37
    6  A    between atoms: N_18  and  C_32
    7  A    between atoms: C_22  and  C_35
                            x       y       z     vdW  Elec       q    Type
                         _______ _______ _______ _____ _____    ______ ____

>  <TORSDO>
F 7

$$$$
=
 OpenBabel11052410003D

 39 43  0  0  1  0  0  0  0  0999 V2000
  162.3240  204.0640  145.5550 O   0  0  0  0  0  0  0  0  0  0  0  0
  161.8500  203.7700  147.8080 N   0  0  0  0  0  0  0  0  0  0  0  0
  161.9050  206.8130  147.9300 C   0  0  1  0  0  3  0  0  0  0  0  0
  163.0940  207.6370  148.2750 C   0  0  0  0  0  2  0  0  0  0  0  0
  160.8100  207.3090  150.1120 C   0  0  0  0  0  3  0  0  0  0  0  0
  160.2200  203.7220  151.2290 C   0  0  0  0  0  3  0  0  0  0  0  0
  161.9990  206.0420  146.7280 N   0  0  0  0  0  2  0  0  0  0  0  0
  162.0440  204.6030  146.6530 C   0  0  0  0  0  0  0  0  0  0  0  0
  160.1010  205.3420  148.7270 C   0  0  0  0  0  2  0  0  0  0  0  0
  162.7500  209.0660  148.5310 C   0  0  0  0  0  3  0  0  0  0  0  0
  161.9560  202.4070  150.4060 C   0  0  0  0  0  3  0  0  0  0  0  0
  161.9190  209.4810  149.4930 C   0  0  0  0  0  0  0  0  0  0  0  0
  161.7490  202.0780  151.6360 N   0  0  0  0  0  0  0  0  0  0  0  0
  160.9910  204.1430  148.8890 C   0  0  0  0  0  0  0  0  0  0  0  0
  160.9570  206.5610  148.8510 C   0  0  2  0  0  3  0  0  0  0  0  0
  160.6810  202.8840  152.1480 C   0  0  0  0  0  2  0  0  0  0  0  0
  161.2070  208.5540  150.4250 C   0  0  0  0  0  0  0  0  0  0  0  0
  161.0290  203.4720  150.0450 C   0  0  0  0  0  0  0  0  0  0  0  0
  161.4920  208.7000  152.8900 C   0  0  0  0  0  0  0  0  0  0  0  0
  160.7760  209.0370  151.7000 N   0  0  0  0  0  2  0  0  0  0  0  0
  161.9480  207.5300  153.0510 O   0  0  0  0  0  0  0  0  0  0  0  0
  160.7860  210.4930  154.3610 C   0  0  0  0  0  3  0  0  0  0  0  0
  161.7760  209.7400  153.8830 C   0  0  0  0  0  3  0  0  0  0  0  0
  160.9830  211.4540  155.5000 C   0  0  0  0  0  2  0  0  0  0  0  0
  159.1170  213.1090  156.0370 C   0  0  1  0  0  3  0  0  0  0  0  0
  158.6150  210.7880  155.8640 N   0  0  0  0  0  2  0  0  0  0  0  0
  157.6370  212.9470  156.2540 C   0  0  0  0  0  2  0  0  0  0  0  0
  159.6720  211.7120  156.2500 C   0  0  1  0  0  3  0  0  0  0  0  0
  157.3970  211.4520  156.3100 C   0  0  0  0  0  2  0  0  0  0  0  0
  159.3320  213.5480  154.7270 O   0  0  0  0  0  1  0  0  0  0  0  0
  161.8980  210.9490  149.7970 C   0  0  0  0  0  2  0  0  0  0  0  0
  162.3690  211.8420  148.6350 C   0  0  0  0  0  2  0  0  0  0  0  0
  161.0840  212.9420  146.6460 C   0  0  0  0  0  2  0  0  0  0  0  0
  159.2490  214.1780  148.6770 C   0  0  0  0  0  2  0  0  0  0  0  0
  158.7390  213.5270  146.3690 N   0  0  0  0  0  2  0  0  0  0  0  0
  159.7100  212.4560  146.1880 C   0  0  0  0  0  2  0  0  0  0  0  0
  161.2650  212.7250  148.1250 C   0  0  0  0  0  0  0  0  0  0  0  0
  158.2540  213.4790  147.7420 C   0  0  0  0  0  2  0  0  0  0  0  0
  160.4310  213.2840  149.0280 C   0  0  0  0  0  3  0  0  0  0  0  0
  1  8  2  0  0  0  0
  2 14  2  0  0  0  0
  3  4  1  1  0  0  0
  3 15  1  0  0  0  0
  4 10  1  0  0  0  0
  5 17  2  0  0  0  0
  6 16  1  0  0  0  0
  7  3  1  0  0  0  0
  8  7  1  0  0  0  0
  8  2  1  0  0  0  0
  9 14  1  0  0  0  0
 10 12  2  0  0  0  0
 11 13  2  0  0  0  0
 12 31  1  0  0  0  0
 12 17  1  0  0  0  0
 13 16  1  0  0  0  0
 14 18  1  0  0  0  0
 15  9  1  1  0  0  0
 15  5  1  0  0  0  0
 17 20  1  0  0  0  0
 18 11  1  0  0  0  0
 18  6  2  0  0  0  0
 19 21  2  0  0  0  0
 19 23  1  0  0  0  0
 20 19  1  0  0  0  0
 22 24  1  0  0  0  0
 23 22  2  0  0  0  0
 25 30  1  6  0  0  0
 25 28  1  0  0  0  0
 25 27  1  0  0  0  0
 26 28  1  0  0  0  0
 26 29  1  0  0  0  0
 27 29  1  0  0  0  0
 28 24  1  6  0  0  0
 32 31  1  0  0  0  0
 33 37  1  0  0  0  0
 34 39  1  0  0  0  0
 35 38  1  0  0  0  0
 36 35  1  0  0  0  0
 36 33  1  0  0  0  0
 37 32  1  0  0  0  0
 37 39  2  0  0  0  0
 38 34  1  0  0  0  0
M  END
>  <MODEL>
7

>  <REMARK>
 VINA RESULT:      -5.9      2.436      7.331
  Name = 
  7 active torsions:
  status: ('A' for Active; 'I' for Inactive)
    1  A    between atoms: C_11  and  C_23
    2  A    between atoms: C_11  and  C_35
    3  A    between atoms: C_12  and  C_28
    4  A    between atoms: C_12  and  C_30
    5  A    between atoms: C_17  and  C_37
    6  A    between atoms: N_18  and  C_32
    7  A    between atoms: C_22  and  C_35
                            x       y       z     vdW  Elec       q    Type
                         _______ _______ _______ _____ _____    ______ ____

>  <TORSDO>
F 7

$$$$
=
 OpenBabel11052410003D

 39 43  0  0  1  0  0  0  0  0999 V2000
  160.9630  200.2680  148.0960 O   0  0  0  0  0  0  0  0  0  0  0  0
  160.9340  202.2610  146.9070 N   0  0  0  0  0  2  0  0  0  0  0  0
  161.2410  203.5720  149.6390 C   0  0  1  0  0  3  0  0  0  0  0  0
  160.1200  204.0500  150.4930 C   0  0  0  0  0  2  0  0  0  0  0  0
  161.9290  205.8970  149.0740 C   0  0  0  0  0  3  0  0  0  0  0  0
  161.8250  205.5680  145.2860 C   0  0  0  0  0  3  0  0  0  0  0  0
  161.2930  202.1610  149.4000 N   0  0  0  0  0  2  0  0  0  0  0  0
  161.0830  201.5160  148.1270 C   0  0  0  0  0  0  0  0  0  0  0  0
  162.6470  203.9560  147.6580 C   0  0  0  0  0  2  0  0  0  0  0  0
  160.5840  204.8960  151.6300 C   0  0  0  0  0  3  0  0  0  0  0  0
  160.1380  204.0630  144.7320 C   0  0  0  0  0  3  0  0  0  0  0  0
  161.2510  206.0470  151.4920 C   0  0  0  0  0  0  0  0  0  0  0  0
  160.0510  205.0770  143.9390 N   0  0  0  0  0  0  0  0  0  0  0  0
  161.5990  203.5060  146.6810 C   0  0  0  0  0  0  0  0  0  0  0  0
  161.9450  204.4360  148.8870 C   0  0  2  0  0  3  0  0  0  0  0  0
  161.0870  206.0070  144.2750 C   0  0  0  0  0  3  0  0  0  0  0  0
  161.6380  206.6220  150.1680 C   0  0  0  0  0  0  0  0  0  0  0  0
  161.2450  204.2840  145.6520 C   0  0  0  0  0  0  0  0  0  0  0  0
  162.3320  208.5990  148.8290 C   0  0  0  0  0  0  0  0  0  0  0  0
  161.8620  208.0300  150.0530 N   0  0  0  0  0  2  0  0  0  0  0  0
  163.2210  208.0070  148.1490 O   0  0  0  0  0  0  0  0  0  0  0  0
  162.1820  211.0140  148.6890 C   0  0  0  0  0  3  0  0  0  0  0  0
  161.7120  209.8240  148.3160 C   0  0  0  0  0  3  0  0  0  0  0  0
  161.7050  212.2980  148.0680 C   0  0  0  0  0  2  0  0  0  0  0  0
  159.2550  212.5550  147.4020 C   0  0  1  0  0  3  0  0  0  0  0  0
  160.9450  212.6600  145.7280 N   0  0  0  0  0  2  0  0  0  0  0  0
  158.5750  212.8150  146.0850 C   0  0  0  0  0  2  0  0  0  0  0  0
  160.6290  212.0420  147.0080 C   0  0  1  0  0  3  0  0  0  0  0  0
  159.6630  212.6990  145.0370 C   0  0  0  0  0  2  0  0  0  0  0  0
  159.3440  213.7590  148.1060 O   0  0  0  0  0  1  0  0  0  0  0  0
  161.3950  206.9090  152.7100 C   0  0  0  0  0  2  0  0  0  0  0  0
  160.5340  208.1840  152.6870 C   0  0  0  0  0  2  0  0  0  0  0  0
  161.3340  210.4370  153.7380 C   0  0  0  0  0  2  0  0  0  0  0  0
  160.6030  209.3010  156.4200 C   0  0  0  0  0  2  0  0  0  0  0  0
  160.5890  211.6470  155.7130 N   0  0  0  0  0  2  0  0  0  0  0  0
  160.3590  211.4790  154.2830 C   0  0  0  0  0  2  0  0  0  0  0  0
  160.7760  209.0470  153.8940 C   0  0  0  0  0  0  0  0  0  0  0  0
  159.8310  210.6260  156.4230 C   0  0  0  0  0  2  0  0  0  0  0  0
  160.4490  208.5480  155.1050 C   0  0  0  0  0  3  0  0  0  0  0  0
  1  8  2  0  0  0  0
  2  8  1  0  0  0  0
  3  4  1  6  0  0  0
  4 10  1  0  0  0  0
  5 17  2  0  0  0  0
  6 18  1  0  0  0  0
  7  3  1  0  0  0  0
  8  7  1  0  0  0  0
 11 18  1  0  0  0  0
 12 10  2  0  0  0  0
 12 31  1  0  0  0  0
 13 16  1  0  0  0  0
 13 11  2  0  0  0  0
 14  2  1  0  0  0  0
 14  9  1  0  0  0  0
 15  9  1  6  0  0  0
 15  5  1  0  0  0  0
 15  3  1  0  0  0  0
 16  6  2  0  0  0  0
 17 12  1  0  0  0  0
 18 14  2  0  0  0  0
 19 20  1  0  0  0  0
 20 17  1  0  0  0  0
 21 19  2  0  0  0  0
 23 22  2  0  0  0  0
 23 19  1  0  0  0  0
 24 22  1  0  0  0  0
 25 30  1  1  0  0  0
 26 28  1  0  0  0  0
 27 25  1  0  0  0  0
 28 25  1  0  0  0  0
 28 24  1  1  0  0  0
 29 26  1  0  0  0  0
 29 27  1  0  0  0  0
 32 31  1  0  0  0  0
 32 37  1  0  0  0  0
 33 37  1  0  0  0  0
 33 36  1  0  0  0  0
 34 38  1  0  0  0  0
 35 38  1  0  0  0  0
 36 35  1  0  0  0  0
 37 39  2  0  0  0  0
 39 34  1  0  0  0  0
M  END
>  <MODEL>
8

>  <REMARK>
 VINA RESULT:      -5.8      3.249      8.495
  Name = 
  7 active torsions:
  status: ('A' for Active; 'I' for Inactive)
    1  A    between atoms: C_11  and  C_23
    2  A    between atoms: C_11  and  C_35
    3  A    between atoms: C_12  and  C_28
    4  A    between atoms: C_12  and  C_30
    5  A    between atoms: C_17  and  C_37
    6  A    between atoms: N_18  and  C_32
    7  A    between atoms: C_22  and  C_35
                            x       y       z     vdW  Elec       q    Type
                         _______ _______ _______ _____ _____    ______ ____

>  <TORSDO>
F 7

$$$$
=
 OpenBabel11052410003D

 39 43  0  0  1  0  0  0  0  0999 V2000
  162.2900  204.3830  144.4710 O   0  0  0  0  0  0  0  0  0  0  0  0
  161.7700  203.5450  146.5720 N   0  0  0  0  0  0  0  0  0  0  0  0
  161.8750  206.4590  147.4530 C   0  0  1  0  0  3  0  0  0  0  0  0
  163.0720  207.1460  148.0080 C   0  0  0  0  0  2  0  0  0  0  0  0
  160.7500  206.4170  149.6740 C   0  0  0  0  0  3  0  0  0  0  0  0
  160.0790  202.6780  149.8500 C   0  0  0  0  0  3  0  0  0  0  0  0
  161.9780  206.0120  146.0970 N   0  0  0  0  0  2  0  0  0  0  0  0
  161.9990  204.6360  145.6640 C   0  0  0  0  0  0  0  0  0  0  0  0
  160.0330  204.8740  147.8330 C   0  0  0  0  0  2  0  0  0  0  0  0
  162.7470  208.4720  148.6090 C   0  0  0  0  0  3  0  0  0  0  0  0
  161.8060  201.5740  148.7470 C   0  0  0  0  0  3  0  0  0  0  0  0
  161.9070  208.6510  149.6330 C   0  0  0  0  0  0  0  0  0  0  0  0
  161.5710  200.9530  149.8530 N   0  0  0  0  0  0  0  0  0  0  0  0
  160.8980  203.6540  147.7000 C   0  0  0  0  0  0  0  0  0  0  0  0
  160.9070  206.0050  148.2690 C   0  0  2  0  0  3  0  0  0  0  0  0
  160.5090  201.6270  150.5360 C   0  0  0  0  0  2  0  0  0  0  0  0
  161.1620  207.5360  150.2940 C   0  0  0  0  0  0  0  0  0  0  0  0
  160.9050  202.7140  148.6520 C   0  0  0  0  0  0  0  0  0  0  0  0
  161.1380  206.7860  152.6640 C   0  0  0  0  0  0  0  0  0  0  0  0
  160.7170  207.6930  151.6440 N   0  0  0  0  0  2  0  0  0  0  0  0
  161.2170  205.5450  152.4230 O   0  0  0  0  0  0  0  0  0  0  0  0
  160.6790  207.4780  154.9420 C   0  0  0  0  0  3  0  0  0  0  0  0
  161.5690  207.3070  153.9650 C   0  0  0  0  0  3  0  0  0  0  0  0
  161.0820  207.8440  156.3430 C   0  0  0  0  0  2  0  0  0  0  0  0
  161.4620  210.2860  156.9810 C   0  0  1  0  0  3  0  0  0  0  0  0
  159.4760  209.6700  155.8210 N   0  0  0  0  0  2  0  0  0  0  0  0
  160.6680  211.5410  156.7410 C   0  0  0  0  0  2  0  0  0  0  0  0
  160.4510  209.1700  156.7790 C   0  0  1  0  0  3  0  0  0  0  0  0
  159.3440  211.0800  156.1640 C   0  0  0  0  0  2  0  0  0  0  0  0
  162.4890  210.2180  156.0340 O   0  0  0  0  0  1  0  0  0  0  0  0
  161.9060  209.9960  150.2960 C   0  0  0  0  0  2  0  0  0  0  0  0
  162.6640  211.0840  149.5150 C   0  0  0  0  0  2  0  0  0  0  0  0
  161.8100  212.6140  147.5780 C   0  0  0  0  0  2  0  0  0  0  0  0
  159.8160  213.7450  149.5180 C   0  0  0  0  0  2  0  0  0  0  0  0
  159.6020  213.5100  147.0880 N   0  0  0  0  0  2  0  0  0  0  0  0
  160.4810  212.3690  146.8660 C   0  0  0  0  0  2  0  0  0  0  0  0
  161.7420  212.1590  149.0130 C   0  0  0  0  0  0  0  0  0  0  0  0
  158.9110  213.3170  148.3560 C   0  0  0  0  0  2  0  0  0  0  0  0
  160.8390  212.6740  149.8740 C   0  0  0  0  0  3  0  0  0  0  0  0
  1  8  2  0  0  0  0
  2 14  2  0  0  0  0
  3  4  1  1  0  0  0
  3 15  1  0  0  0  0
  4 10  1  0  0  0  0
  5 17  2  0  0  0  0
  6 16  1  0  0  0  0
  7  3  1  0  0  0  0
  8  7  1  0  0  0  0
  8  2  1  0  0  0  0
 10 12  2  0  0  0  0
 11 13  2  0  0  0  0
 12 17  1  0  0  0  0
 12 31  1  0  0  0  0
 13 16  1  0  0  0  0
 14  9  1  0  0  0  0
 14 18  1  0  0  0  0
 15  9  1  1  0  0  0
 15  5  1  0  0  0  0
 17 20  1  0  0  0  0
 18 11  1  0  0  0  0
 18  6  2  0  0  0  0
 19 23  1  0  0  0  0
 20 19  1  0  0  0  0
 21 19  2  0  0  0  0
 22 24  1  0  0  0  0
 23 22  2  0  0  0  0
 25 30  1  6  0  0  0
 26 29  1  0  0  0  0
 26 28  1  0  0  0  0
 27 25  1  0  0  0  0
 28 24  1  6  0  0  0
 28 25  1  0  0  0  0
 29 27  1  0  0  0  0
 32 31  1  0  0  0  0
 33 37  1  0  0  0  0
 34 39  1  0  0  0  0
 35 38  1  0  0  0  0
 36 35  1  0  0  0  0
 36 33  1  0  0  0  0
 37 32  1  0  0  0  0
 37 39  2  0  0  0  0
 38 34  1  0  0  0  0
M  END
>  <MODEL>
9

>  <REMARK>
 VINA RESULT:      -5.6      2.842      7.748
  Name = 
  7 active torsions:
  status: ('A' for Active; 'I' for Inactive)
    1  A    between atoms: C_11  and  C_23
    2  A    between atoms: C_11  and  C_35
    3  A    between atoms: C_12  and  C_28
    4  A    between atoms: C_12  and  C_30
    5  A    between atoms: C_17  and  C_37
    6  A    between atoms: N_18  and  C_32
    7  A    between atoms: C_22  and  C_35
                            x       y       z     vdW  Elec       q    Type
                         _______ _______ _______ _____ _____    ______ ____

>  <TORSDO>
F 7

$$$$
