=
 OpenBabel11052411293D

 57 57  0  0  1  0  0  0  0  0999 V2000
  161.1110  207.3250  149.3100 C   0  0  1  0  0  3  0  0  0  0  0  0
  162.2950  208.8520  150.7130 O   0  0  0  0  0  0  0  0  0  0  0  0
  160.6230  205.5660  151.0960 C   0  0  0  0  0  0  0  0  0  0  0  0
  159.7250  204.9910  150.4220 O   0  0  0  0  0  0  0  0  0  0  0  0
  161.1770  206.8160  150.6500 N   0  0  0  0  0  0  0  0  0  0  0  0
  162.0480  208.5360  149.3550 C   0  0  1  0  0  0  0  0  0  0  0  0
  161.8940  207.7470  151.4980 C   0  0  2  0  0  3  0  0  0  0  0  0
  163.2740  208.2820  148.7280 O   0  0  0  0  0  1  0  0  0  0  0  0
  160.9930  208.2200  152.6430 C   0  0  2  0  0  3  0  0  0  0  0  0
  160.2250  209.3100  152.2250 O   0  0  0  0  0  1  0  0  0  0  0  0
  161.8200  208.5720  153.8870 C   0  0  2  0  0  3  0  0  0  0  0  0
  161.8370  208.2740  156.4850 C   0  0  0  0  0  1  0  0  0  0  0  0
  160.2280  207.3030  155.0780 O   0  0  0  0  0  0  0  0  0  0  0  0
  161.2310  207.9980  155.1480 C   0  0  0  0  0  0  0  0  0  0  0  0
  162.1130  210.0780  154.0120 C   0  0  0  0  0  2  0  0  0  0  0  0
  160.9430  210.8840  154.5500 C   0  0  0  0  0  1  0  0  0  0  0  0
  161.3540  209.7060  148.6670 C   0  0  0  0  0  2  0  0  0  0  0  0
  162.3790  211.2650  148.7370 P   0  0  0  0  0  2  0  0  0  0  0  0
  160.9370  212.3840  148.3820 C   0  0  0  0  0  2  0  0  0  0  0  0
  161.3570  213.7170  148.3820 O   0  0  0  0  0  0  0  0  0  0  0  0
  160.4230  214.3830  147.5890 C   0  0  2  0  0  3  0  0  0  0  0  0
  158.3760  213.2450  147.9860 O   0  0  0  0  0  1  0  0  0  0  0  0
  159.0810  214.4070  148.2940 C   0  0  0  0  0  2  0  0  0  0  0  0
  160.2930  213.6760  146.2560 C   0  0  0  0  0  2  0  0  0  0  0  0
  160.9720  214.4040  145.2750 O   0  0  0  0  0  0  0  0  0  0  0  0
  162.7420  212.8540  143.7310 O   0  0  0  0  0  0  0  0  0  0  0  0
  161.1370  213.3680  143.9360 P   0  0  1  0  0  0  0  0  0  0  0  0
  160.2630  212.1540  144.1620 O   0  0  0  0  0  1  0  0  0  0  0  0
  160.5580  214.2280  142.4400 C   0  0  0  0  0  2  0  0  0  0  0  0
  160.7160  213.3430  141.2100 C   0  0  1  0  0  3  0  0  0  0  0  0
  162.1730  211.6720  140.2720 O   0  0  0  0  0  1  0  0  0  0  0  0
  162.1370  212.8050  141.0900 C   0  0  0  0  0  2  0  0  0  0  0  0
  159.7090  212.2030  141.2570 C   0  0  0  0  0  2  0  0  0  0  0  0
  158.5580  212.5020  140.3600 C   0  0  0  0  0  0  0  0  0  0  0  0
  157.8440  213.5170  140.5940 O   0  0  0  0  0  0  0  0  0  0  0  0
  158.2610  211.6440  139.3010 O   0  0  0  0  0  0  0  0  0  0  0  0
  159.2330  209.6210  138.7780 O   0  0  0  0  0  1  0  0  0  0  0  0
  159.2860  211.0000  138.5580 C   0  0  0  0  0  2  0  0  0  0  0  0
  161.1380  204.9130  152.3370 C   0  0  0  0  0  2  0  0  0  0  0  0
  161.7620  202.5860  151.6890 C   0  0  0  0  0  1  0  0  0  0  0  0
  160.7140  203.4520  152.3730 C   0  0  0  0  0  2  0  0  0  0  0  0
  161.4030  206.2340  148.2590 C   0  0  2  0  0  3  0  0  0  0  0  0
  161.9750  205.0620  148.8340 O   0  0  0  0  0  0  0  0  0  0  0  0
  162.7720  203.5540  147.2810 O   0  0  0  0  0  0  0  0  0  0  0  0
  161.9420  203.8230  148.1950 C   0  0  0  0  0  0  0  0  0  0  0  0
  160.9710  202.8970  148.5720 O   0  0  0  0  0  0  0  0  0  0  0  0
  161.0430  201.5320  148.1920 C   0  0  0  0  0  2  0  0  0  0  0  0
  161.0570  201.4180  146.6780 C   0  0  0  0  0  2  0  0  0  0  0  0
  160.5670  200.0470  146.2300 C   0  0  0  0  0  2  0  0  0  0  0  0
  161.3160  198.2460  145.1910 C   0  0  0  0  0  1  0  0  0  0  0  0
  161.6170  199.1250  146.2320 O   0  0  0  0  0  0  0  0  0  0  0  0
  162.1990  206.7530  147.0610 C   0  0  0  0  0  2  0  0  0  0  0  0
  162.0530  205.8700  145.9120 N   0  0  0  0  0  2  0  0  0  0  0  0
  160.8270  205.7570  145.1840 C   0  0  0  0  0  0  0  0  0  0  0  0
  159.8380  206.4860  145.4710 O   0  0  0  0  0  0  0  0  0  0  0  0
  160.7100  204.7720  144.0750 C   0  0  0  0  0  2  0  0  0  0  0  0
  160.3170  203.4210  144.6230 C   0  0  0  0  0  1  0  0  0  0  0  0
  1 42  1  6  0  0  0
  1  6  1  0  0  0  0
  1  5  1  0  0  0  0
  2  7  1  0  0  0  0
  3 39  1  0  0  0  0
  4  3  2  0  0  0  0
  5  3  1  0  0  0  0
  5  7  1  0  0  0  0
  6  8  1  6  0  0  0
  6  2  1  0  0  0  0
  7  9  1  1  0  0  0
  9 10  1  6  0  0  0
  9 11  1  0  0  0  0
 11 15  1  1  0  0  0
 11 14  1  0  0  0  0
 13 14  2  0  0  0  0
 14 12  1  0  0  0  0
 15 16  1  0  0  0  0
 17 18  1  0  0  0  0
 17  6  1  0  0  0  0
 19 18  1  0  0  0  0
 20 19  1  0  0  0  0
 21 24  1  6  0  0  0
 21 23  1  0  0  0  0
 21 20  1  0  0  0  0
 22 23  1  0  0  0  0
 25 24  1  0  0  0  0
 27 26  2  6  0  0  0
 27 28  1  0  0  0  0
 27 25  1  0  0  0  0
 29 27  1  0  0  0  0
 30 32  1  1  0  0  0
 30 33  1  0  0  0  0
 30 29  1  0  0  0  0
 31 32  1  0  0  0  0
 34 35  2  0  0  0  0
 34 33  1  0  0  0  0
 36 34  1  0  0  0  0
 38 37  1  0  0  0  0
 38 36  1  0  0  0  0
 39 41  1  0  0  0  0
 40 41  1  0  0  0  0
 42 52  1  6  0  0  0
 42 43  1  0  0  0  0
 44 45  2  0  0  0  0
 45 46  1  0  0  0  0
 45 43  1  0  0  0  0
 47 46  1  0  0  0  0
 48 47  1  0  0  0  0
 49 51  1  0  0  0  0
 49 48  1  0  0  0  0
 50 51  1  0  0  0  0
 53 52  1  0  0  0  0
 54 55  2  0  0  0  0
 54 53  1  0  0  0  0
 56 57  1  0  0  0  0
 56 54  1  0  0  0  0
M  END
>  <MODEL>
1

>  <REMARK>
 VINA RESULT:      -4.3      0.000      0.000
  Name = 
  33 active torsions:
  status: ('A' for Active; 'I' for Inactive)
    1  A    between atoms: C_2  and  C_19
    2  A    between atoms: C_2  and  C_38
    3  A    between atoms: C_2  and  O_44
    4  A    between atoms: C_4  and  C_14
    5  A    between atoms: C_5  and  O_10
    6  A    between atoms: C_5  and  C_26
    7  A    between atoms: C_6  and  P_8
    8  A    between atoms: C_6  and  C_27
    9  A    between atoms: P_8  and  O_13
   10  A    between atoms: C_9  and  C_31
   11  A    between atoms: O_10  and  C_17
   12  A    between atoms: O_13  and  C_19
   13  A    between atoms: C_14  and  C_35
   14  A    between atoms: C_14  and  O_36
   15  A    between atoms: O_16  and  C_28
   16  A    between atoms: O_16  and  C_30
   17  A    between atoms: C_17  and  O_36
   18  A    between atoms: C_18  and  C_23
   19  A    between atoms: C_20  and  C_56
   20  A    between atoms: C_23  and  C_43
   21  A    between atoms: C_23  and  C_46
   22  A    between atoms: C_26  and  C_39
   23  A    between atoms: C_27  and  C_42
   24  A    between atoms: C_27  and  C_50
   25  A    between atoms: N_29  and  C_35
   26  A    between atoms: C_30  and  C_42
   27  A    between atoms: C_37  and  C_54
   28  A    between atoms: C_39  and  O_45
   29  A    between atoms: C_40  and  O_44
   30  A    between atoms: C_40  and  P_49
   31  A    between atoms: C_41  and  C_46
   32  A    between atoms: P_49  and  C_54
   33  A    between atoms: C_51  and  C_56
                            x       y       z     vdW  Elec       q    Type
                         _______ _______ _______ _____ _____    ______ ____

>  <TORSDO>
F 33

$$$$
=
 OpenBabel11052411293D

 57 57  0  0  1  0  0  0  0  0999 V2000
  161.2070  207.6220  149.3840 C   0  0  1  0  0  3  0  0  0  0  0  0
  162.4520  209.2000  150.6740 O   0  0  0  0  0  0  0  0  0  0  0  0
  160.7750  205.9460  151.2630 C   0  0  0  0  0  0  0  0  0  0  0  0
  159.8500  205.3490  150.6480 O   0  0  0  0  0  0  0  0  0  0  0  0
  161.3200  207.1710  150.7420 N   0  0  0  0  0  0  0  0  0  0  0  0
  162.1520  208.8270  149.3410 C   0  0  1  0  0  0  0  0  0  0  0  0
  162.0730  208.1330  151.5210 C   0  0  2  0  0  3  0  0  0  0  0  0
  163.3520  208.5360  148.6810 O   0  0  0  0  0  1  0  0  0  0  0  0
  161.2190  208.6620  152.6760 C   0  0  2  0  0  3  0  0  0  0  0  0
  159.9200  208.9180  152.2300 O   0  0  0  0  0  1  0  0  0  0  0  0
  161.8470  209.9180  153.2970 C   0  0  2  0  0  3  0  0  0  0  0  0
  161.3360  208.6850  155.5470 C   0  0  0  0  0  1  0  0  0  0  0  0
  162.2670  210.8370  155.4280 O   0  0  0  0  0  0  0  0  0  0  0  0
  161.8390  209.8780  154.8020 C   0  0  0  0  0  0  0  0  0  0  0  0
  161.2530  211.2270  152.7450 C   0  0  0  0  0  2  0  0  0  0  0  0
  160.0670  211.7430  153.5420 C   0  0  0  0  0  1  0  0  0  0  0  0
  161.4390  209.9700  148.6290 C   0  0  0  0  0  2  0  0  0  0  0  0
  162.4590  211.5340  148.6260 P   0  0  0  0  0  2  0  0  0  0  0  0
  161.1070  212.5720  149.3690 C   0  0  0  0  0  2  0  0  0  0  0  0
  161.3120  213.9180  149.0540 O   0  0  0  0  0  0  0  0  0  0  0  0
  160.0300  214.4440  148.8970 C   0  0  2  0  0  3  0  0  0  0  0  0
  157.8980  213.3980  148.9720 O   0  0  0  0  0  1  0  0  0  0  0  0
  159.0440  213.6440  149.7260 C   0  0  0  0  0  2  0  0  0  0  0  0
  159.6370  214.3920  147.4350 C   0  0  0  0  0  2  0  0  0  0  0  0
  160.3200  213.3460  146.8070 O   0  0  0  0  0  0  0  0  0  0  0  0
  159.7710  211.3640  144.8850 O   0  0  0  0  0  0  0  0  0  0  0  0
  159.3990  212.9250  145.4400 P   0  0  1  0  0  0  0  0  0  0  0  0
  157.9350  212.9700  145.8180 O   0  0  0  0  0  1  0  0  0  0  0  0
  159.6940  214.1460  144.1220 C   0  0  0  0  0  2  0  0  0  0  0  0
  160.2820  213.4780  142.8850 C   0  0  1  0  0  3  0  0  0  0  0  0
  158.9370  214.1180  140.9940 O   0  0  0  0  0  1  0  0  0  0  0  0
  160.1430  214.3660  141.6540 C   0  0  0  0  0  2  0  0  0  0  0  0
  161.7400  213.1190  143.1310 C   0  0  0  0  0  2  0  0  0  0  0  0
  162.4460  212.9340  141.8320 C   0  0  0  0  0  0  0  0  0  0  0  0
  163.0770  213.9070  141.3320 O   0  0  0  0  0  0  0  0  0  0  0  0
  162.3730  211.7090  141.1710 O   0  0  0  0  0  0  0  0  0  0  0  0
  161.5870  210.3240  139.5050 O   0  0  0  0  0  1  0  0  0  0  0  0
  162.0010  211.6240  139.8020 C   0  0  0  0  0  2  0  0  0  0  0  0
  161.3330  205.3440  152.5110 C   0  0  0  0  0  2  0  0  0  0  0  0
  160.7840  202.9170  152.3220 C   0  0  0  0  0  1  0  0  0  0  0  0
  161.8890  203.9590  152.2190 C   0  0  0  0  0  2  0  0  0  0  0  0
  161.4530  206.4830  148.3730 C   0  0  2  0  0  3  0  0  0  0  0  0
  161.7900  205.2530  149.0070 O   0  0  0  0  0  0  0  0  0  0  0  0
  162.6110  203.8260  147.3910 O   0  0  0  0  0  0  0  0  0  0  0  0
  161.7880  204.0360  148.3260 C   0  0  0  0  0  0  0  0  0  0  0  0
  160.8550  203.0650  148.6880 O   0  0  0  0  0  0  0  0  0  0  0  0
  160.9760  201.7130  148.2750 C   0  0  0  0  0  2  0  0  0  0  0  0
  160.1050  201.4660  147.0550 C   0  0  0  0  0  2  0  0  0  0  0  0
  160.8840  201.7070  145.7690 C   0  0  0  0  0  2  0  0  0  0  0  0
  158.9090  201.3650  144.8380 C   0  0  0  0  0  1  0  0  0  0  0  0
  160.2650  201.0680  144.6920 O   0  0  0  0  0  0  0  0  0  0  0  0
  162.4360  206.8670  147.2660 C   0  0  0  0  0  2  0  0  0  0  0  0
  162.1800  206.1080  146.0500 N   0  0  0  0  0  2  0  0  0  0  0  0
  160.8600  205.8990  145.5420 C   0  0  0  0  0  0  0  0  0  0  0  0
  159.8630  206.4370  146.0980 O   0  0  0  0  0  0  0  0  0  0  0  0
  160.6510  205.0390  144.3450 C   0  0  0  0  0  2  0  0  0  0  0  0
  161.2810  205.6810  143.1330 C   0  0  0  0  0  1  0  0  0  0  0  0
  1 42  1  6  0  0  0
  1  5  1  0  0  0  0
  2  7  1  0  0  0  0
  3 39  1  0  0  0  0
  4  3  2  0  0  0  0
  5  3  1  0  0  0  0
  5  7  1  0  0  0  0
  6  8  1  6  0  0  0
  6  1  1  0  0  0  0
  6  2  1  0  0  0  0
  7  9  1  1  0  0  0
  9 10  1  6  0  0  0
  9 11  1  0  0  0  0
 11 15  1  1  0  0  0
 11 14  1  0  0  0  0
 14 13  2  0  0  0  0
 14 12  1  0  0  0  0
 15 16  1  0  0  0  0
 17  6  1  0  0  0  0
 18 17  1  0  0  0  0
 18 19  1  0  0  0  0
 20 19  1  0  0  0  0
 21 24  1  6  0  0  0
 21 20  1  0  0  0  0
 21 23  1  0  0  0  0
 22 23  1  0  0  0  0
 25 24  1  0  0  0  0
 27 26  2  6  0  0  0
 27 28  1  0  0  0  0
 27 25  1  0  0  0  0
 29 27  1  0  0  0  0
 30 32  1  6  0  0  0
 30 33  1  0  0  0  0
 30 29  1  0  0  0  0
 31 32  1  0  0  0  0
 34 33  1  0  0  0  0
 35 34  2  0  0  0  0
 36 34  1  0  0  0  0
 37 38  1  0  0  0  0
 38 36  1  0  0  0  0
 41 40  1  0  0  0  0
 41 39  1  0  0  0  0
 42 52  1  6  0  0  0
 42 43  1  0  0  0  0
 44 45  2  0  0  0  0
 45 46  1  0  0  0  0
 45 43  1  0  0  0  0
 47 46  1  0  0  0  0
 48 47  1  0  0  0  0
 49 48  1  0  0  0  0
 51 50  1  0  0  0  0
 51 49  1  0  0  0  0
 53 52  1  0  0  0  0
 54 53  1  0  0  0  0
 54 55  2  0  0  0  0
 56 54  1  0  0  0  0
 57 56  1  0  0  0  0
M  END
>  <MODEL>
2

>  <REMARK>
 VINA RESULT:      -3.3      1.433      2.025
  Name = 
  33 active torsions:
  status: ('A' for Active; 'I' for Inactive)
    1  A    between atoms: C_2  and  C_19
    2  A    between atoms: C_2  and  C_38
    3  A    between atoms: C_2  and  O_44
    4  A    between atoms: C_4  and  C_14
    5  A    between atoms: C_5  and  O_10
    6  A    between atoms: C_5  and  C_26
    7  A    between atoms: C_6  and  P_8
    8  A    between atoms: C_6  and  C_27
    9  A    between atoms: P_8  and  O_13
   10  A    between atoms: C_9  and  C_31
   11  A    between atoms: O_10  and  C_17
   12  A    between atoms: O_13  and  C_19
   13  A    between atoms: C_14  and  C_35
   14  A    between atoms: C_14  and  O_36
   15  A    between atoms: O_16  and  C_28
   16  A    between atoms: O_16  and  C_30
   17  A    between atoms: C_17  and  O_36
   18  A    between atoms: C_18  and  C_23
   19  A    between atoms: C_20  and  C_56
   20  A    between atoms: C_23  and  C_43
   21  A    between atoms: C_23  and  C_46
   22  A    between atoms: C_26  and  C_39
   23  A    between atoms: C_27  and  C_42
   24  A    between atoms: C_27  and  C_50
   25  A    between atoms: N_29  and  C_35
   26  A    between atoms: C_30  and  C_42
   27  A    between atoms: C_37  and  C_54
   28  A    between atoms: C_39  and  O_45
   29  A    between atoms: C_40  and  O_44
   30  A    between atoms: C_40  and  P_49
   31  A    between atoms: C_41  and  C_46
   32  A    between atoms: P_49  and  C_54
   33  A    between atoms: C_51  and  C_56
                            x       y       z     vdW  Elec       q    Type
                         _______ _______ _______ _____ _____    ______ ____

>  <TORSDO>
F 33

$$$$
=
 OpenBabel11052411293D

 57 57  0  0  1  0  0  0  0  0999 V2000
  161.1120  208.7290  150.5970 C   0  0  1  0  0  3  0  0  0  0  0  0
  162.2470  209.3780  148.5990 O   0  0  0  0  0  0  0  0  0  0  0  0
  160.5470  211.0810  151.4200 C   0  0  0  0  0  0  0  0  0  0  0  0
  159.6750  210.6880  152.2410 O   0  0  0  0  0  0  0  0  0  0  0  0
  161.1240  210.1600  150.4780 N   0  0  0  0  0  0  0  0  0  0  0  0
  162.0520  208.2810  149.4730 C   0  0  1  0  0  0  0  0  0  0  0  0
  161.8110  210.5480  149.2620 C   0  0  2  0  0  3  0  0  0  0  0  0
  163.3000  207.8720  149.9570 O   0  0  0  0  0  1  0  0  0  0  0  0
  160.8680  211.3420  148.3530 C   0  0  2  0  0  3  0  0  0  0  0  0
  160.7450  210.7000  147.1180 O   0  0  0  0  0  1  0  0  0  0  0  0
  161.3550  212.7870  148.1790 C   0  0  2  0  0  3  0  0  0  0  0  0
  159.3240  214.2150  147.3570 C   0  0  0  0  0  1  0  0  0  0  0  0
  161.0870  213.5420  145.9610 O   0  0  0  0  0  0  0  0  0  0  0  0
  160.6150  213.5140  147.0880 C   0  0  0  0  0  0  0  0  0  0  0  0
  162.8820  212.8950  148.0210 C   0  0  0  0  0  2  0  0  0  0  0  0
  163.4060  214.3180  148.1170 C   0  0  0  0  0  1  0  0  0  0  0  0
  161.3900  207.1310  148.7240 C   0  0  0  0  0  2  0  0  0  0  0  0
  162.3150  206.6890  147.1640 P   0  0  0  0  0  2  0  0  0  0  0  0
  160.7930  206.0990  146.2740 C   0  0  0  0  0  2  0  0  0  0  0  0
  160.7250  206.6840  145.0070 O   0  0  0  0  0  0  0  0  0  0  0  0
  161.0120  205.6470  144.1200 C   0  0  2  0  0  3  0  0  0  0  0  0
  160.8630  203.4010  144.8830 O   0  0  0  0  0  1  0  0  0  0  0  0
  161.6990  204.5170  144.8620 C   0  0  0  0  0  2  0  0  0  0  0  0
  161.9120  206.1600  143.0140 C   0  0  0  0  0  2  0  0  0  0  0  0
  161.2890  205.9620  141.7790 O   0  0  0  0  0  0  0  0  0  0  0  0
  163.4920  207.6630  141.3590 O   0  0  0  0  0  1  0  0  0  0  0  0
  162.2290  206.7930  140.6300 P   0  0  1  0  0  0  0  0  0  0  0  0
  162.8230  205.7800  139.6760 O   0  0  0  0  0  0  0  0  0  0  0  0
  161.1570  207.9190  139.6830 C   0  0  0  0  0  2  0  0  0  0  0  0
  161.9870  208.9330  138.9060 C   0  0  1  0  0  3  0  0  0  0  0  0
  160.9480  207.7190  137.1060 O   0  0  0  0  0  1  0  0  0  0  0  0
  161.9280  208.6690  137.4060 C   0  0  0  0  0  2  0  0  0  0  0  0
  161.5140  210.3450  139.2250 C   0  0  0  0  0  2  0  0  0  0  0  0
  162.5680  211.0760  139.9830 C   0  0  0  0  0  0  0  0  0  0  0  0
  163.5410  211.5790  139.3530 O   0  0  0  0  0  0  0  0  0  0  0  0
  162.4890  211.1660  141.3720 O   0  0  0  0  0  0  0  0  0  0  0  0
  160.8310  212.7560  141.1940 O   0  0  0  0  0  1  0  0  0  0  0  0
  161.8520  212.2630  142.0110 C   0  0  0  0  0  2  0  0  0  0  0  0
  161.0110  212.5000  151.4660 C   0  0  0  0  0  2  0  0  0  0  0  0
  159.1600  213.8260  152.4890 C   0  0  0  0  0  1  0  0  0  0  0  0
  159.8460  213.4380  151.1860 C   0  0  0  0  0  2  0  0  0  0  0  0
  161.4410  208.2650  152.0310 C   0  0  2  0  0  3  0  0  0  0  0  0
  162.1200  207.0130  152.0570 O   0  0  0  0  0  0  0  0  0  0  0  0
  161.4340  205.3350  153.4840 O   0  0  0  0  0  0  0  0  0  0  0  0
  161.4610  205.8110  152.3140 C   0  0  0  0  0  0  0  0  0  0  0  0
  160.8470  205.1410  151.2570 O   0  0  0  0  0  0  0  0  0  0  0  0
  160.6230  203.7400  151.2800 C   0  0  0  0  0  2  0  0  0  0  0  0
  160.8860  203.1520  149.9050 C   0  0  0  0  0  2  0  0  0  0  0  0
  160.5110  201.6770  149.8620 C   0  0  0  0  0  2  0  0  0  0  0  0
  160.8990  201.5630  147.6890 C   0  0  0  0  0  1  0  0  0  0  0  0
  159.9020  201.3600  148.6440 O   0  0  0  0  0  0  0  0  0  0  0  0
  160.2300  208.3010  152.9650 C   0  0  0  0  0  2  0  0  0  0  0  0
  160.6420  208.2350  154.3600 N   0  0  0  0  0  2  0  0  0  0  0  0
  161.4970  209.2150  154.9540 C   0  0  0  0  0  0  0  0  0  0  0  0
  161.8680  210.2280  154.2980 O   0  0  0  0  0  0  0  0  0  0  0  0
  161.9580  209.0480  156.3590 C   0  0  0  0  0  2  0  0  0  0  0  0
  161.2240  210.0100  157.2610 C   0  0  0  0  0  1  0  0  0  0  0  0
  1 42  1  1  0  0  0
  2  7  1  0  0  0  0
  2  6  1  0  0  0  0
  3 39  1  0  0  0  0
  3  4  2  0  0  0  0
  5  1  1  0  0  0  0
  5  3  1  0  0  0  0
  6  8  1  1  0  0  0
  6  1  1  0  0  0  0
  7  9  1  6  0  0  0
  7  5  1  0  0  0  0
  9 10  1  6  0  0  0
 11 15  1  6  0  0  0
 11  9  1  0  0  0  0
 13 14  2  0  0  0  0
 14 12  1  0  0  0  0
 14 11  1  0  0  0  0
 15 16  1  0  0  0  0
 17  6  1  0  0  0  0
 18 17  1  0  0  0  0
 19 18  1  0  0  0  0
 20 19  1  0  0  0  0
 21 24  1  6  0  0  0
 21 23  1  0  0  0  0
 21 20  1  0  0  0  0
 23 22  1  0  0  0  0
 25 24  1  0  0  0  0
 27 28  2  6  0  0  0
 27 26  1  0  0  0  0
 27 25  1  0  0  0  0
 29 27  1  0  0  0  0
 30 32  1  6  0  0  0
 30 33  1  0  0  0  0
 30 29  1  0  0  0  0
 31 32  1  0  0  0  0
 33 34  1  0  0  0  0
 34 36  1  0  0  0  0
 35 34  2  0  0  0  0
 36 38  1  0  0  0  0
 37 38  1  0  0  0  0
 41 39  1  0  0  0  0
 41 40  1  0  0  0  0
 42 43  1  0  0  0  0
 42 52  1  1  0  0  0
 43 45  1  0  0  0  0
 45 44  2  0  0  0  0
 46 47  1  0  0  0  0
 46 45  1  0  0  0  0
 48 47  1  0  0  0  0
 49 48  1  0  0  0  0
 50 51  1  0  0  0  0
 51 49  1  0  0  0  0
 52 53  1  0  0  0  0
 53 54  1  0  0  0  0
 54 56  1  0  0  0  0
 55 54  2  0  0  0  0
 56 57  1  0  0  0  0
M  END
>  <MODEL>
3

>  <REMARK>
 VINA RESULT:      -1.8      2.600      7.075
  Name = 
  33 active torsions:
  status: ('A' for Active; 'I' for Inactive)
    1  A    between atoms: C_2  and  C_19
    2  A    between atoms: C_2  and  C_38
    3  A    between atoms: C_2  and  O_44
    4  A    between atoms: C_4  and  C_14
    5  A    between atoms: C_5  and  O_10
    6  A    between atoms: C_5  and  C_26
    7  A    between atoms: C_6  and  P_8
    8  A    between atoms: C_6  and  C_27
    9  A    between atoms: P_8  and  O_13
   10  A    between atoms: C_9  and  C_31
   11  A    between atoms: O_10  and  C_17
   12  A    between atoms: O_13  and  C_19
   13  A    between atoms: C_14  and  C_35
   14  A    between atoms: C_14  and  O_36
   15  A    between atoms: O_16  and  C_28
   16  A    between atoms: O_16  and  C_30
   17  A    between atoms: C_17  and  O_36
   18  A    between atoms: C_18  and  C_23
   19  A    between atoms: C_20  and  C_56
   20  A    between atoms: C_23  and  C_43
   21  A    between atoms: C_23  and  C_46
   22  A    between atoms: C_26  and  C_39
   23  A    between atoms: C_27  and  C_42
   24  A    between atoms: C_27  and  C_50
   25  A    between atoms: N_29  and  C_35
   26  A    between atoms: C_30  and  C_42
   27  A    between atoms: C_37  and  C_54
   28  A    between atoms: C_39  and  O_45
   29  A    between atoms: C_40  and  O_44
   30  A    between atoms: C_40  and  P_49
   31  A    between atoms: C_41  and  C_46
   32  A    between atoms: P_49  and  C_54
   33  A    between atoms: C_51  and  C_56
                            x       y       z     vdW  Elec       q    Type
                         _______ _______ _______ _____ _____    ______ ____

>  <TORSDO>
F 33

$$$$
=
 OpenBabel11052411293D

 57 57  0  0  1  0  0  0  0  0999 V2000
  160.5900  211.0630  151.7510 C   0  0  1  0  0  3  0  0  0  0  0  0
  162.5150  211.0960  150.3380 O   0  0  0  0  0  0  0  0  0  0  0  0
  159.3390  212.9880  150.6300 C   0  0  0  0  0  0  0  0  0  0  0  0
  158.2290  212.6980  151.1540 O   0  0  0  0  0  0  0  0  0  0  0  0
  160.4580  212.0930  150.7600 N   0  0  0  0  0  0  0  0  0  0  0  0
  162.0400  210.6000  151.5760 C   0  0  1  0  0  0  0  0  0  0  0  0
  161.6270  212.1080  149.9040 C   0  0  2  0  0  3  0  0  0  0  0  0
  162.8740  211.0750  152.5950 O   0  0  0  0  0  1  0  0  0  0  0  0
  161.2200  211.8540  148.4500 C   0  0  2  0  0  3  0  0  0  0  0  0
  161.8690  210.7160  147.9650 O   0  0  0  0  0  1  0  0  0  0  0  0
  161.5180  213.0770  147.5710 C   0  0  2  0  0  3  0  0  0  0  0  0
  162.1160  213.0720  145.0250 C   0  0  0  0  0  1  0  0  0  0  0  0
  160.0060  212.4780  145.8640 O   0  0  0  0  0  0  0  0  0  0  0  0
  161.1360  212.8560  146.1320 C   0  0  0  0  0  0  0  0  0  0  0  0
  162.9620  213.5900  147.7200 C   0  0  0  0  0  2  0  0  0  0  0  0
  164.0000  212.4830  147.7810 C   0  0  0  0  0  1  0  0  0  0  0  0
  162.0590  209.0760  151.5670 C   0  0  0  0  0  2  0  0  0  0  0  0
  160.6770  208.3670  150.5310 P   0  0  0  0  0  2  0  0  0  0  0  0
  161.8040  207.8590  149.1420 C   0  0  0  0  0  2  0  0  0  0  0  0
  161.1030  207.0750  148.2220 O   0  0  0  0  0  0  0  0  0  0  0  0
  161.9180  205.9640  148.0070 C   0  0  2  0  0  3  0  0  0  0  0  0
  163.2670  205.0200  146.2940 O   0  0  0  0  0  1  0  0  0  0  0  0
  162.0960  205.7420  146.5180 C   0  0  0  0  0  2  0  0  0  0  0  0
  161.2860  204.7420  148.6400 C   0  0  0  0  0  2  0  0  0  0  0  0
  162.0130  204.3780  149.7770 O   0  0  0  0  0  0  0  0  0  0  0  0
  161.1670  203.9810  152.4320 O   0  0  0  0  0  1  0  0  0  0  0  0
  160.9250  203.5680  150.8030 P   0  0  1  0  0  0  0  0  0  0  0  0
  159.5170  203.9550  150.4070 O   0  0  0  0  0  0  0  0  0  0  0  0
  161.1150  201.7720  150.5770 C   0  0  0  0  0  2  0  0  0  0  0  0
  160.2260  201.2700  149.4460 C   0  0  1  0  0  3  0  0  0  0  0  0
  157.9360  200.8880  148.8100 O   0  0  0  0  0  1  0  0  0  0  0  0
  158.7550  201.5520  149.7270 C   0  0  0  0  0  2  0  0  0  0  0  0
  160.6550  201.9000  148.1280 C   0  0  0  0  0  2  0  0  0  0  0  0
  160.8130  200.8470  147.0870 C   0  0  0  0  0  0  0  0  0  0  0  0
  161.7700  200.0270  147.1820 O   0  0  0  0  0  0  0  0  0  0  0  0
  159.9320  200.8000  146.0070 O   0  0  0  0  0  0  0  0  0  0  0  0
  160.8150  202.8020  145.2850 O   0  0  0  0  0  1  0  0  0  0  0  0
  160.0540  201.6930  144.9090 C   0  0  0  0  0  2  0  0  0  0  0  0
  159.4950  214.2890  149.9140 C   0  0  0  0  0  2  0  0  0  0  0  0
  157.5310  213.2830  148.7500 C   0  0  0  0  0  1  0  0  0  0  0  0
  158.6740  214.2820  148.6340 C   0  0  0  0  0  2  0  0  0  0  0  0
  160.1570  211.5450  153.1510 C   0  0  2  0  0  3  0  0  0  0  0  0
  161.1840  211.3860  154.1250 O   0  0  0  0  0  0  0  0  0  0  0  0
  160.5950  211.3710  156.3550 O   0  0  0  0  0  0  0  0  0  0  0  0
  160.9710  210.7270  155.3350 C   0  0  0  0  0  0  0  0  0  0  0  0
  161.1930  209.3520  155.4000 O   0  0  0  0  0  0  0  0  0  0  0  0
  160.7440  208.4680  154.3860 C   0  0  0  0  0  2  0  0  0  0  0  0
  160.7110  207.0460  154.9190 C   0  0  0  0  0  2  0  0  0  0  0  0
  159.6030  206.8740  155.9500 C   0  0  0  0  0  2  0  0  0  0  0  0
  161.4610  207.2900  157.0730 C   0  0  0  0  0  1  0  0  0  0  0  0
  160.1250  206.9220  157.2450 O   0  0  0  0  0  0  0  0  0  0  0  0
  158.8190  210.9570  153.6010 C   0  0  0  0  0  2  0  0  0  0  0  0
  158.2840  211.6830  154.7440 N   0  0  0  0  0  2  0  0  0  0  0  0
  157.2630  212.6760  154.6110 C   0  0  0  0  0  0  0  0  0  0  0  0
  156.7290  212.9040  153.4910 O   0  0  0  0  0  0  0  0  0  0  0  0
  156.8190  213.4490  155.8020 C   0  0  0  0  0  2  0  0  0  0  0  0
  158.0160  214.0250  156.5190 C   0  0  0  0  0  1  0  0  0  0  0  0
  1 42  1  1  0  0  0
  2  6  1  0  0  0  0
  3  5  1  0  0  0  0
  3  4  2  0  0  0  0
  5  1  1  0  0  0  0
  6  1  1  0  0  0  0
  6  8  1  1  0  0  0
  7  9  1  6  0  0  0
  7  2  1  0  0  0  0
  7  5  1  0  0  0  0
  9 10  1  6  0  0  0
 11 15  1  6  0  0  0
 11  9  1  0  0  0  0
 12 14  1  0  0  0  0
 13 14  2  0  0  0  0
 14 11  1  0  0  0  0
 15 16  1  0  0  0  0
 17  6  1  0  0  0  0
 18 17  1  0  0  0  0
 19 18  1  0  0  0  0
 20 19  1  0  0  0  0
 21 23  1  6  0  0  0
 21 20  1  0  0  0  0
 21 24  1  0  0  0  0
 22 23  1  0  0  0  0
 24 25  1  0  0  0  0
 25 27  1  0  0  0  0
 27 28  2  6  0  0  0
 27 26  1  0  0  0  0
 29 27  1  0  0  0  0
 30 33  1  6  0  0  0
 30 32  1  0  0  0  0
 30 29  1  0  0  0  0
 31 32  1  0  0  0  0
 34 35  2  0  0  0  0
 34 33  1  0  0  0  0
 36 34  1  0  0  0  0
 38 37  1  0  0  0  0
 38 36  1  0  0  0  0
 39  3  1  0  0  0  0
 41 40  1  0  0  0  0
 41 39  1  0  0  0  0
 42 52  1  1  0  0  0
 42 43  1  0  0  0  0
 43 45  1  0  0  0  0
 45 46  1  0  0  0  0
 45 44  2  0  0  0  0
 47 48  1  0  0  0  0
 47 46  1  0  0  0  0
 48 49  1  0  0  0  0
 49 51  1  0  0  0  0
 50 51  1  0  0  0  0
 52 53  1  0  0  0  0
 54 53  1  0  0  0  0
 54 56  1  0  0  0  0
 55 54  2  0  0  0  0
 56 57  1  0  0  0  0
M  END
>  <MODEL>
4

>  <REMARK>
 VINA RESULT:      -1.7      3.430     10.361
  Name = 
  33 active torsions:
  status: ('A' for Active; 'I' for Inactive)
    1  A    between atoms: C_2  and  C_19
    2  A    between atoms: C_2  and  C_38
    3  A    between atoms: C_2  and  O_44
    4  A    between atoms: C_4  and  C_14
    5  A    between atoms: C_5  and  O_10
    6  A    between atoms: C_5  and  C_26
    7  A    between atoms: C_6  and  P_8
    8  A    between atoms: C_6  and  C_27
    9  A    between atoms: P_8  and  O_13
   10  A    between atoms: C_9  and  C_31
   11  A    between atoms: O_10  and  C_17
   12  A    between atoms: O_13  and  C_19
   13  A    between atoms: C_14  and  C_35
   14  A    between atoms: C_14  and  O_36
   15  A    between atoms: O_16  and  C_28
   16  A    between atoms: O_16  and  C_30
   17  A    between atoms: C_17  and  O_36
   18  A    between atoms: C_18  and  C_23
   19  A    between atoms: C_20  and  C_56
   20  A    between atoms: C_23  and  C_43
   21  A    between atoms: C_23  and  C_46
   22  A    between atoms: C_26  and  C_39
   23  A    between atoms: C_27  and  C_42
   24  A    between atoms: C_27  and  C_50
   25  A    between atoms: N_29  and  C_35
   26  A    between atoms: C_30  and  C_42
   27  A    between atoms: C_37  and  C_54
   28  A    between atoms: C_39  and  O_45
   29  A    between atoms: C_40  and  O_44
   30  A    between atoms: C_40  and  P_49
   31  A    between atoms: C_41  and  C_46
   32  A    between atoms: P_49  and  C_54
   33  A    between atoms: C_51  and  C_56
                            x       y       z     vdW  Elec       q    Type
                         _______ _______ _______ _____ _____    ______ ____

>  <TORSDO>
F 33

$$$$
=
 OpenBabel11052411293D

 57 57  0  0  1  0  0  0  0  0999 V2000
  160.6230  212.1450  151.9780 C   0  0  1  0  0  3  0  0  0  0  0  0
  158.8370  211.6260  153.4760 O   0  0  0  0  0  0  0  0  0  0  0  0
  159.4220  213.9870  150.6770 C   0  0  0  0  0  0  0  0  0  0  0  0
  160.4800  214.4530  150.1730 O   0  0  0  0  0  0  0  0  0  0  0  0
  159.4890  212.9830  151.7050 N   0  0  0  0  0  0  0  0  0  0  0  0
  160.0670  211.1300  152.9820 C   0  0  1  0  0  0  0  0  0  0  0  0
  158.4100  212.6670  152.6180 C   0  0  2  0  0  3  0  0  0  0  0  0
  159.8380  209.8780  152.3980 O   0  0  0  0  0  1  0  0  0  0  0  0
  158.0360  213.9020  153.4430 C   0  0  2  0  0  3  0  0  0  0  0  0
  159.1590  214.3780  154.1230 O   0  0  0  0  0  1  0  0  0  0  0  0
  156.8900  213.5900  154.4160 C   0  0  2  0  0  3  0  0  0  0  0  0
  158.4650  212.7420  156.3240 C   0  0  0  0  0  1  0  0  0  0  0  0
  156.7800  214.3440  156.6470 O   0  0  0  0  0  0  0  0  0  0  0  0
  157.3390  213.6030  155.8530 C   0  0  0  0  0  0  0  0  0  0  0  0
  156.1230  212.3050  154.0550 C   0  0  0  0  0  2  0  0  0  0  0  0
  155.6780  211.5010  155.2650 C   0  0  0  0  0  1  0  0  0  0  0  0
  161.0670  210.9880  154.1240 C   0  0  0  0  0  2  0  0  0  0  0  0
  160.6400  209.5610  155.2510 P   0  0  0  0  0  2  0  0  0  0  0  0
  162.2640  208.6970  154.9860 C   0  0  0  0  0  2  0  0  0  0  0  0
  162.1310  207.7290  153.9860 O   0  0  0  0  0  0  0  0  0  0  0  0
  160.7850  207.3670  154.0190 C   0  0  2  0  0  3  0  0  0  0  0  0
  159.7550  206.7450  156.0680 O   0  0  0  0  0  1  0  0  0  0  0  0
  160.5770  206.2720  155.0470 C   0  0  0  0  0  2  0  0  0  0  0  0
  160.3590  206.8780  152.6500 C   0  0  0  0  0  2  0  0  0  0  0  0
  161.4090  206.1670  152.0620 O   0  0  0  0  0  0  0  0  0  0  0  0
  159.6960  203.9570  152.3830 O   0  0  0  0  0  1  0  0  0  0  0  0
  160.7100  204.8060  151.3190 P   0  0  1  0  0  0  0  0  0  0  0  0
  159.8890  205.2760  150.1370 O   0  0  0  0  0  0  0  0  0  0  0  0
  162.0320  203.7150  150.7060 C   0  0  0  0  0  2  0  0  0  0  0  0
  161.5010  202.7660  149.6390 C   0  0  1  0  0  3  0  0  0  0  0  0
  160.4040  200.6910  150.1750 O   0  0  0  0  0  1  0  0  0  0  0  0
  160.2220  202.0740  150.0950 C   0  0  0  0  0  2  0  0  0  0  0  0
  161.2730  203.5220  148.3380 C   0  0  0  0  0  2  0  0  0  0  0  0
  161.2400  202.5690  147.1930 C   0  0  0  0  0  0  0  0  0  0  0  0
  161.1540  201.3300  147.4270 O   0  0  0  0  0  0  0  0  0  0  0  0
  161.3390  203.0480  145.8870 O   0  0  0  0  0  0  0  0  0  0  0  0
  161.3030  204.9610  144.6040 O   0  0  0  0  0  1  0  0  0  0  0  0
  162.0050  204.2680  145.5920 C   0  0  0  0  0  2  0  0  0  0  0  0
  158.0980  214.4530  150.1650 C   0  0  0  0  0  2  0  0  0  0  0  0
  157.5160  213.2900  148.0350 C   0  0  0  0  0  1  0  0  0  0  0  0
  157.3400  213.2880  149.5470 C   0  0  0  0  0  2  0  0  0  0  0  0
  161.2630  211.5970  150.6860 C   0  0  2  0  0  3  0  0  0  0  0  0
  161.0720  212.4630  149.5720 O   0  0  0  0  0  0  0  0  0  0  0  0
  163.1310  212.3840  148.5340 O   0  0  0  0  0  0  0  0  0  0  0  0
  161.8720  212.4010  148.4310 C   0  0  0  0  0  0  0  0  0  0  0  0
  161.2580  212.3710  147.1800 O   0  0  0  0  0  0  0  0  0  0  0  0
  161.5940  213.2910  146.1540 C   0  0  0  0  0  2  0  0  0  0  0  0
  160.8180  212.9600  144.8900 C   0  0  0  0  0  2  0  0  0  0  0  0
  159.4630  212.3510  145.2250 C   0  0  0  0  0  2  0  0  0  0  0  0
  158.9950  213.1580  143.2210 C   0  0  0  0  0  1  0  0  0  0  0  0
  158.4490  212.9740  144.4920 O   0  0  0  0  0  0  0  0  0  0  0  0
  160.8630  210.1510  150.3860 C   0  0  0  0  0  2  0  0  0  0  0  0
  161.9810  209.4030  149.8280 N   0  0  0  0  0  2  0  0  0  0  0  0
  161.8070  208.1500  149.1610 C   0  0  0  0  0  0  0  0  0  0  0  0
  160.6530  207.6810  148.9640 O   0  0  0  0  0  0  0  0  0  0  0  0
  162.9950  207.3880  148.6900 C   0  0  0  0  0  2  0  0  0  0  0  0
  162.6240  206.5350  147.5010 C   0  0  0  0  0  1  0  0  0  0  0  0
  1 42  1  6  0  0  0
  1  6  1  0  0  0  0
  3  5  1  0  0  0  0
  4  3  2  0  0  0  0
  5  1  1  0  0  0  0
  5  7  1  0  0  0  0
  6  8  1  6  0  0  0
  6  2  1  0  0  0  0
  6 17  1  0  0  0  0
  7  9  1  1  0  0  0
  7  2  1  0  0  0  0
  9 10  1  1  0  0  0
  9 11  1  0  0  0  0
 11 15  1  6  0  0  0
 11 14  1  0  0  0  0
 14 12  1  0  0  0  0
 14 13  2  0  0  0  0
 15 16  1  0  0  0  0
 17 18  1  0  0  0  0
 19 18  1  0  0  0  0
 20 21  1  0  0  0  0
 20 19  1  0  0  0  0
 21 24  1  6  0  0  0
 21 23  1  0  0  0  0
 23 22  1  0  0  0  0
 25 24  1  0  0  0  0
 27 28  2  6  0  0  0
 27 25  1  0  0  0  0
 27 26  1  0  0  0  0
 29 27  1  0  0  0  0
 30 33  1  6  0  0  0
 30 32  1  0  0  0  0
 30 29  1  0  0  0  0
 32 31  1  0  0  0  0
 34 35  2  0  0  0  0
 34 33  1  0  0  0  0
 36 34  1  0  0  0  0
 37 38  1  0  0  0  0
 38 36  1  0  0  0  0
 39  3  1  0  0  0  0
 40 41  1  0  0  0  0
 41 39  1  0  0  0  0
 42 52  1  6  0  0  0
 43 42  1  0  0  0  0
 45 44  2  0  0  0  0
 45 43  1  0  0  0  0
 46 45  1  0  0  0  0
 47 46  1  0  0  0  0
 48 49  1  0  0  0  0
 48 47  1  0  0  0  0
 50 51  1  0  0  0  0
 51 49  1  0  0  0  0
 53 52  1  0  0  0  0
 54 53  1  0  0  0  0
 55 54  2  0  0  0  0
 56 54  1  0  0  0  0
 57 56  1  0  0  0  0
M  END
>  <MODEL>
5

>  <REMARK>
 VINA RESULT:      -1.3      3.184      9.423
  Name = 
  33 active torsions:
  status: ('A' for Active; 'I' for Inactive)
    1  A    between atoms: C_2  and  C_19
    2  A    between atoms: C_2  and  C_38
    3  A    between atoms: C_2  and  O_44
    4  A    between atoms: C_4  and  C_14
    5  A    between atoms: C_5  and  O_10
    6  A    between atoms: C_5  and  C_26
    7  A    between atoms: C_6  and  P_8
    8  A    between atoms: C_6  and  C_27
    9  A    between atoms: P_8  and  O_13
   10  A    between atoms: C_9  and  C_31
   11  A    between atoms: O_10  and  C_17
   12  A    between atoms: O_13  and  C_19
   13  A    between atoms: C_14  and  C_35
   14  A    between atoms: C_14  and  O_36
   15  A    between atoms: O_16  and  C_28
   16  A    between atoms: O_16  and  C_30
   17  A    between atoms: C_17  and  O_36
   18  A    between atoms: C_18  and  C_23
   19  A    between atoms: C_20  and  C_56
   20  A    between atoms: C_23  and  C_43
   21  A    between atoms: C_23  and  C_46
   22  A    between atoms: C_26  and  C_39
   23  A    between atoms: C_27  and  C_42
   24  A    between atoms: C_27  and  C_50
   25  A    between atoms: N_29  and  C_35
   26  A    between atoms: C_30  and  C_42
   27  A    between atoms: C_37  and  C_54
   28  A    between atoms: C_39  and  O_45
   29  A    between atoms: C_40  and  O_44
   30  A    between atoms: C_40  and  P_49
   31  A    between atoms: C_41  and  C_46
   32  A    between atoms: P_49  and  C_54
   33  A    between atoms: C_51  and  C_56
                            x       y       z     vdW  Elec       q    Type
                         _______ _______ _______ _____ _____    ______ ____

>  <TORSDO>
F 33

$$$$
=
 OpenBabel11052411293D

 57 57  0  0  1  0  0  0  0  0999 V2000
  160.9210  209.3250  152.5090 C   0  0  1  0  0  3  0  0  0  0  0  0
  161.3430  211.3150  153.7590 O   0  0  0  0  0  0  0  0  0  0  0  0
  159.8710  207.9740  154.4060 C   0  0  0  0  0  0  0  0  0  0  0  0
  159.3580  207.1140  153.6390 O   0  0  0  0  0  0  0  0  0  0  0  0
  160.4770  209.1610  153.8640 N   0  0  0  0  0  0  0  0  0  0  0  0
  161.6820  210.6540  152.5540 C   0  0  1  0  0  0  0  0  0  0  0  0
  160.7320  210.3720  154.6170 C   0  0  2  0  0  3  0  0  0  0  0  0
  163.0700  210.4710  152.5230 O   0  0  0  0  0  1  0  0  0  0  0  0
  159.4200  210.9400  155.1650 C   0  0  2  0  0  3  0  0  0  0  0  0
  158.3410  210.4460  154.4270 O   0  0  0  0  0  1  0  0  0  0  0  0
  159.4360  212.4740  155.1600 C   0  0  2  0  0  3  0  0  0  0  0  0
  157.7180  212.2200  157.1150 C   0  0  0  0  0  1  0  0  0  0  0  0
  158.1680  214.2570  156.0380 O   0  0  0  0  0  0  0  0  0  0  0  0
  158.4180  213.0630  156.0990 C   0  0  0  0  0  0  0  0  0  0  0  0
  159.3420  213.0750  153.7450 C   0  0  0  0  0  2  0  0  0  0  0  0
  158.7000  214.4510  153.7080 C   0  0  0  0  0  1  0  0  0  0  0  0
  161.2490  211.4950  151.3590 C   0  0  0  0  0  2  0  0  0  0  0  0
  159.3900  211.6170  151.2290 P   0  0  0  0  0  2  0  0  0  0  0  0
  159.4380  212.8690  149.8550 C   0  0  0  0  0  2  0  0  0  0  0  0
  160.7640  213.1660  149.5280 O   0  0  0  0  0  0  0  0  0  0  0  0
  160.8950  212.7820  148.1940 C   0  0  2  0  0  3  0  0  0  0  0  0
  162.5130  212.9380  146.4600 O   0  0  0  0  0  1  0  0  0  0  0  0
  161.9400  213.6470  147.5150 C   0  0  0  0  0  2  0  0  0  0  0  0
  159.5620  212.9340  147.4900 C   0  0  0  0  0  2  0  0  0  0  0  0
  159.6840  213.8740  146.4620 O   0  0  0  0  0  0  0  0  0  0  0  0
  157.5100  212.2750  145.6620 O   0  0  0  0  0  1  0  0  0  0  0  0
  158.7890  213.2670  145.1490 P   0  0  1  0  0  0  0  0  0  0  0  0
  158.2180  214.4370  144.3790 O   0  0  0  0  0  0  0  0  0  0  0  0
  159.9010  212.3370  144.0480 C   0  0  0  0  0  2  0  0  0  0  0  0
  160.1660  213.1130  142.7640 C   0  0  1  0  0  3  0  0  0  0  0  0
  162.0870  211.9660  141.8740 O   0  0  0  0  0  1  0  0  0  0  0  0
  161.6550  213.1670  142.4430 C   0  0  0  0  0  2  0  0  0  0  0  0
  159.3880  212.4930  141.6120 C   0  0  0  0  0  2  0  0  0  0  0  0
  159.2150  213.4900  140.5180 C   0  0  0  0  0  0  0  0  0  0  0  0
  158.3490  214.4000  140.6470 O   0  0  0  0  0  0  0  0  0  0  0  0
  159.9810  213.3870  139.3570 O   0  0  0  0  0  0  0  0  0  0  0  0
  162.0540  213.6530  138.3850 O   0  0  0  0  0  1  0  0  0  0  0  0
  161.0280  214.3050  139.0740 C   0  0  0  0  0  2  0  0  0  0  0  0
  159.8860  207.7270  155.8790 C   0  0  0  0  0  2  0  0  0  0  0  0
  162.1620  208.1830  156.7950 C   0  0  0  0  0  1  0  0  0  0  0  0
  161.2120  207.1060  156.2900 C   0  0  0  0  0  2  0  0  0  0  0  0
  161.6800  208.0840  151.9930 C   0  0  2  0  0  3  0  0  0  0  0  0
  162.6420  208.4080  150.9950 O   0  0  0  0  0  0  0  0  0  0  0  0
  161.8700  209.0810  148.9280 O   0  0  0  0  0  0  0  0  0  0  0  0
  162.4140  208.1880  149.6370 C   0  0  0  0  0  0  0  0  0  0  0  0
  162.7830  206.9640  149.0820 O   0  0  0  0  0  0  0  0  0  0  0  0
  161.8710  206.1620  148.3490 C   0  0  0  0  0  2  0  0  0  0  0  0
  161.7750  206.6650  146.9190 C   0  0  0  0  0  2  0  0  0  0  0  0
  161.5550  205.5120  145.9490 C   0  0  0  0  0  2  0  0  0  0  0  0
  161.2580  205.1830  143.7830 C   0  0  0  0  0  1  0  0  0  0  0  0
  160.7770  205.9240  144.8640 O   0  0  0  0  0  0  0  0  0  0  0  0
  160.7490  206.9450  151.5710 C   0  0  0  0  0  2  0  0  0  0  0  0
  161.3190  205.6500  151.9110 N   0  0  0  0  0  2  0  0  0  0  0  0
  161.0720  204.4760  151.1320 C   0  0  0  0  0  0  0  0  0  0  0  0
  160.4030  204.5410  150.0640 O   0  0  0  0  0  0  0  0  0  0  0  0
  161.6070  203.1610  151.5780 C   0  0  0  0  0  2  0  0  0  0  0  0
  160.8970  202.7130  152.8320 C   0  0  0  0  0  1  0  0  0  0  0  0
  1 42  1  1  0  0  0
  1  6  1  0  0  0  0
  1  5  1  0  0  0  0
  2  7  1  0  0  0  0
  3 39  1  0  0  0  0
  4  3  2  0  0  0  0
  5  3  1  0  0  0  0
  5  7  1  0  0  0  0
  6  8  1  6  0  0  0
  6  2  1  0  0  0  0
  7  9  1  6  0  0  0
  9 10  1  6  0  0  0
 11 15  1  6  0  0  0
 11  9  1  0  0  0  0
 11 14  1  0  0  0  0
 13 14  2  0  0  0  0
 14 12  1  0  0  0  0
 16 15  1  0  0  0  0
 17  6  1  0  0  0  0
 18 17  1  0  0  0  0
 19 18  1  0  0  0  0
 20 19  1  0  0  0  0
 21 24  1  6  0  0  0
 21 20  1  0  0  0  0
 22 23  1  0  0  0  0
 23 21  1  0  0  0  0
 25 24  1  0  0  0  0
 27 28  2  6  0  0  0
 27 26  1  0  0  0  0
 27 25  1  0  0  0  0
 29 27  1  0  0  0  0
 30 33  1  6  0  0  0
 30 29  1  0  0  0  0
 31 32  1  0  0  0  0
 32 30  1  0  0  0  0
 34 35  2  0  0  0  0
 34 33  1  0  0  0  0
 36 34  1  0  0  0  0
 37 38  1  0  0  0  0
 38 36  1  0  0  0  0
 39 41  1  0  0  0  0
 41 40  1  0  0  0  0
 42 52  1  6  0  0  0
 43 42  1  0  0  0  0
 44 45  2  0  0  0  0
 45 43  1  0  0  0  0
 46 45  1  0  0  0  0
 47 46  1  0  0  0  0
 48 47  1  0  0  0  0
 49 48  1  0  0  0  0
 50 51  1  0  0  0  0
 51 49  1  0  0  0  0
 52 53  1  0  0  0  0
 54 56  1  0  0  0  0
 54 53  1  0  0  0  0
 55 54  2  0  0  0  0
 56 57  1  0  0  0  0
M  END
>  <MODEL>
6

>  <REMARK>
 VINA RESULT:      -1.3      2.538      4.516
  Name = 
  33 active torsions:
  status: ('A' for Active; 'I' for Inactive)
    1  A    between atoms: C_2  and  C_19
    2  A    between atoms: C_2  and  C_38
    3  A    between atoms: C_2  and  O_44
    4  A    between atoms: C_4  and  C_14
    5  A    between atoms: C_5  and  O_10
    6  A    between atoms: C_5  and  C_26
    7  A    between atoms: C_6  and  P_8
    8  A    between atoms: C_6  and  C_27
    9  A    between atoms: P_8  and  O_13
   10  A    between atoms: C_9  and  C_31
   11  A    between atoms: O_10  and  C_17
   12  A    between atoms: O_13  and  C_19
   13  A    between atoms: C_14  and  C_35
   14  A    between atoms: C_14  and  O_36
   15  A    between atoms: O_16  and  C_28
   16  A    between atoms: O_16  and  C_30
   17  A    between atoms: C_17  and  O_36
   18  A    between atoms: C_18  and  C_23
   19  A    between atoms: C_20  and  C_56
   20  A    between atoms: C_23  and  C_43
   21  A    between atoms: C_23  and  C_46
   22  A    between atoms: C_26  and  C_39
   23  A    between atoms: C_27  and  C_42
   24  A    between atoms: C_27  and  C_50
   25  A    between atoms: N_29  and  C_35
   26  A    between atoms: C_30  and  C_42
   27  A    between atoms: C_37  and  C_54
   28  A    between atoms: C_39  and  O_45
   29  A    between atoms: C_40  and  O_44
   30  A    between atoms: C_40  and  P_49
   31  A    between atoms: C_41  and  C_46
   32  A    between atoms: P_49  and  C_54
   33  A    between atoms: C_51  and  C_56
                            x       y       z     vdW  Elec       q    Type
                         _______ _______ _______ _____ _____    ______ ____

>  <TORSDO>
F 33

$$$$
