=
 OpenBabel11052409353D

 44 50  0  0  1  0  0  0  0  0999 V2000
  161.8190  210.2180  150.5040 C   0  0  0  0  0  0  0  0  0  0  0  0
  161.5050  207.6810  147.8450 S   0  0  0  0  0  0  0  0  0  0  0  0
  161.0120  207.9720  152.8460 C   0  0  2  0  0  3  0  0  0  0  0  0
  161.2600  206.9140  153.9580 C   0  0  2  0  0  0  0  0  0  0  0  0
  162.1740  205.7200  153.6890 C   0  0  1  0  0  3  0  0  0  0  0  0
  162.4960  210.3840  152.7570 F   0  0  0  0  0  0  0  0  0  0  0  0
  161.4850  212.1420  151.8090 F   0  0  0  0  0  0  0  0  0  0  0  0
  161.9080  209.0490  148.7120 C   0  0  0  0  0  0  0  0  0  0  0  0
  161.5050  210.7600  151.8680 C   0  0  0  0  0  0  0  0  0  0  0  0
  160.6630  205.5320  153.7870 C   0  0  0  0  0  2  0  0  0  0  0  0
  161.4060  207.3920  155.4010 C   0  0  0  0  0  2  0  0  0  0  0  0
  162.4260  210.2400  148.3870 N   0  0  0  0  0  0  0  0  0  0  0  0
  160.8100  206.9100  149.2100 C   0  0  0  0  0  3  0  0  0  0  0  0
  162.3780  210.9600  149.5070 N   0  0  0  0  0  0  0  0  0  0  0  0
  160.0900  209.1180  153.3060 C   0  0  2  0  0  3  0  0  0  0  0  0
  161.5280  208.9710  149.9850 C   0  0  2  0  0  3  0  0  0  0  0  0
  158.9820  207.7780  155.8640 C   0  0  0  0  0  1  0  0  0  0  0  0
  160.1130  210.2930  152.3180 C   0  0  0  0  0  2  0  0  0  0  0  0
  160.9070  207.7660  150.3190 C   0  0  0  0  0  0  0  0  0  0  0  0
  160.4830  207.3730  151.6250 N   0  0  0  0  0  2  0  0  0  0  0  0
  160.4000  209.5840  154.7420 C   0  0  2  0  0  3  0  0  0  0  0  0
  160.3550  208.4330  155.7590 C   0  0  2  0  0  3  0  0  0  0  0  0
  162.6390  205.5910  152.2460 C   0  0  0  0  0  2  0  0  0  0  0  0
  162.3570  204.1980  151.7030 C   0  0  0  0  0  2  0  0  0  0  0  0
  160.9850  204.1100  151.0450 C   0  0  0  0  0  2  0  0  0  0  0  0
  161.2740  202.9410  147.4520 C   0  0  0  0  0  0  0  0  0  0  0  0
  161.0040  203.2220  149.8460 C   0  0  0  0  0  0  0  0  0  0  0  0
  160.8380  201.0160  148.8550 C   0  0  0  0  0  3  0  0  0  0  0  0
  160.7990  201.8450  149.9790 C   0  0  0  0  0  3  0  0  0  0  0  0
  161.1010  200.7420  146.5080 F   0  0  0  0  0  0  0  0  0  0  0  0
  161.5150  203.5470  146.1070 C   0  0  0  0  0  1  0  0  0  0  0  0
  161.2480  203.7660  148.5820 C   0  0  0  0  0  3  0  0  0  0  0  0
  161.0740  201.5600  147.5890 C   0  0  0  0  0  0  0  0  0  0  0  0
  159.6200  210.8260  155.1990 C   0  0  0  0  0  2  0  0  0  0  0  0
  160.5150  211.9850  155.6210 C   0  0  0  0  0  2  0  0  0  0  0  0
  159.7460  213.2170  155.6400 N   0  0  0  0  0  2  0  0  0  0  0  0
  158.6250  213.0280  154.7390 C   0  0  0  0  0  2  0  0  0  0  0  0
  158.3170  214.3420  154.0370 C   0  0  0  0  0  2  0  0  0  0  0  0
  157.7350  212.9330  152.1850 O   0  0  0  0  0  0  0  0  0  0  0  0
  157.0240  214.0670  151.7520 C   0  0  1  0  0  3  0  0  0  0  0  0
  159.4990  214.3670  151.8460 O   0  0  0  0  0  1  0  0  0  0  0  0
  158.2930  214.1780  152.5250 C   0  0  1  0  0  0  0  0  0  0  0  0
  155.9600  213.9230  149.5200 C   0  0  0  0  0  1  0  0  0  0  0  0
  157.2370  214.2550  150.2600 C   0  0  0  0  0  2  0  0  0  0  0  0
  1  9  1  0  0  0  0
  2  8  1  0  0  0  0
  2 13  1  0  0  0  0
  3 20  1  6  0  0  0
  3 15  1  0  0  0  0
  3  4  1  0  0  0  0
  4 10  1  1  0  0  0
  4 11  1  0  0  0  0
  5 23  1  6  0  0  0
  5 10  1  0  0  0  0
  5  4  1  0  0  0  0
  7  9  1  0  0  0  0
  9 18  1  0  0  0  0
  9  6  1  0  0  0  0
 11 22  1  0  0  0  0
 12  8  2  0  0  0  0
 12 14  1  0  0  0  0
 13 19  2  0  0  0  0
 14  1  2  0  0  0  0
 15 18  1  6  0  0  0
 15 21  1  0  0  0  0
 16  8  1  6  0  0  0
 16 19  1  0  0  0  0
 16  1  1  0  0  0  0
 19 20  1  0  0  0  0
 21 34  1  1  0  0  0
 21 22  1  0  0  0  0
 22 17  1  6  0  0  0
 24 23  1  0  0  0  0
 25 24  1  0  0  0  0
 26 33  2  0  0  0  0
 26 32  1  0  0  0  0
 27 29  1  0  0  0  0
 27 25  1  0  0  0  0
 28 29  2  0  0  0  0
 30 33  1  0  0  0  0
 31 26  1  0  0  0  0
 32 27  2  0  0  0  0
 33 28  1  0  0  0  0
 34 35  1  0  0  0  0
 35 36  1  0  0  0  0
 37 36  1  0  0  0  0
 38 37  1  0  0  0  0
 39 42  1  0  0  0  0
 40 44  1  6  0  0  0
 40 39  1  0  0  0  0
 40 42  1  0  0  0  0
 42 41  1  6  0  0  0
 42 38  1  0  0  0  0
 43 44  1  0  0  0  0
M  END
>  <MODEL>
1

>  <REMARK>
 VINA RESULT:      -6.6      0.000      0.000
  Name = 
  11 active torsions:
  status: ('A' for Active; 'I' for Inactive)
    1  A    between atoms: C_3  and  C_39
    2  A    between atoms: C_6  and  C_38
    3  A    between atoms: C_7  and  C_12
    4  A    between atoms: C_7  and  C_13
    5  A    between atoms: C_8  and  C_36
    6  A    between atoms: C_8  and  C_40
    7  A    between atoms: C_13  and  C_39
    8  A    between atoms: C_25  and  C_41
    9  A    between atoms: C_31  and  N_37
   10  A    between atoms: C_31  and  C_41
   11  A    between atoms: C_36  and  N_37
                            x       y       z     vdW  Elec       q    Type
                         _______ _______ _______ _____ _____    ______ ____

>  <TORSDO>
F 11

$$$$
=
 OpenBabel11052409353D

 44 50  0  0  1  0  0  0  0  0999 V2000
  161.8490  210.1690  150.4560 C   0  0  0  0  0  0  0  0  0  0  0  0
  161.4930  207.6200  147.8130 S   0  0  0  0  0  0  0  0  0  0  0  0
  161.0300  207.9460  152.8150 C   0  0  2  0  0  3  0  0  0  0  0  0
  161.2730  206.8920  153.9320 C   0  0  2  0  0  0  0  0  0  0  0  0
  162.1720  205.6870  153.6650 C   0  0  1  0  0  3  0  0  0  0  0  0
  162.5400  210.3410  152.7040 F   0  0  0  0  0  0  0  0  0  0  0  0
  161.5430  212.1040  151.7510 F   0  0  0  0  0  0  0  0  0  0  0  0
  161.9150  208.9890  148.6700 C   0  0  0  0  0  0  0  0  0  0  0  0
  161.5490  210.7220  151.8180 C   0  0  0  0  0  0  0  0  0  0  0  0
  160.6590  205.5160  153.7720 C   0  0  0  0  0  2  0  0  0  0  0  0
  161.4310  207.3770  155.3710 C   0  0  0  0  0  2  0  0  0  0  0  0
  162.4450  210.1720  148.3360 N   0  0  0  0  0  0  0  0  0  0  0  0
  160.7970  206.8650  149.1860 C   0  0  0  0  0  3  0  0  0  0  0  0
  162.4110  210.9000  149.4510 N   0  0  0  0  0  0  0  0  0  0  0  0
  160.1240  209.1040  153.2730 C   0  0  2  0  0  3  0  0  0  0  0  0
  161.5420  208.9230  149.9460 C   0  0  2  0  0  3  0  0  0  0  0  0
  159.0140  207.7920  155.8450 C   0  0  0  0  0  1  0  0  0  0  0  0
  160.1540  210.2740  152.2780 C   0  0  0  0  0  2  0  0  0  0  0  0
  160.9100  207.7260  150.2900 C   0  0  0  0  0  0  0  0  0  0  0  0
  160.4890  207.3450  151.6010 N   0  0  0  0  0  2  0  0  0  0  0  0
  160.4460  209.5750  154.7050 C   0  0  2  0  0  3  0  0  0  0  0  0
  160.3940  208.4310  155.7290 C   0  0  2  0  0  3  0  0  0  0  0  0
  162.6280  205.5440  152.2210 C   0  0  0  0  0  2  0  0  0  0  0  0
  162.3510  204.1430  151.6950 C   0  0  0  0  0  2  0  0  0  0  0  0
  160.9760  204.0390  151.0470 C   0  0  0  0  0  2  0  0  0  0  0  0
  161.2630  202.8970  147.4460 C   0  0  0  0  0  0  0  0  0  0  0  0
  160.9990  203.1590  149.8420 C   0  0  0  0  0  0  0  0  0  0  0  0
  160.8480  200.9590  148.8370 C   0  0  0  0  0  3  0  0  0  0  0  0
  160.8050  201.7800  149.9660 C   0  0  0  0  0  3  0  0  0  0  0  0
  161.1060  200.7030  146.4870 F   0  0  0  0  0  0  0  0  0  0  0  0
  161.4950  203.5140  146.1040 C   0  0  0  0  0  1  0  0  0  0  0  0
  161.2340  203.7130  148.5810 C   0  0  0  0  0  3  0  0  0  0  0  0
  161.0760  201.5140  147.5740 C   0  0  0  0  0  0  0  0  0  0  0  0
  159.6820  210.8290  155.1590 C   0  0  0  0  0  2  0  0  0  0  0  0
  160.5230  211.7840  155.9970 C   0  0  0  0  0  2  0  0  0  0  0  0
  160.0120  213.1370  155.8610 N   0  0  0  0  0  2  0  0  0  0  0  0
  159.2910  213.1900  154.6030 C   0  0  0  0  0  2  0  0  0  0  0  0
  157.9860  213.9470  154.8040 C   0  0  0  0  0  2  0  0  0  0  0  0
  155.7000  213.2340  154.9410 O   0  0  0  0  0  0  0  0  0  0  0  0
  156.2670  211.9470  154.9220 C   0  0  1  0  0  3  0  0  0  0  0  0
  156.8540  213.3100  156.9270 O   0  0  0  0  0  1  0  0  0  0  0  0
  156.9610  213.1070  155.5500 C   0  0  1  0  0  0  0  0  0  0  0  0
  154.9780  209.8580  155.2560 C   0  0  0  0  0  1  0  0  0  0  0  0
  155.5630  211.0710  155.9440 C   0  0  0  0  0  2  0  0  0  0  0  0
  1  9  1  0  0  0  0
  2  8  1  0  0  0  0
  2 13  1  0  0  0  0
  3 20  1  6  0  0  0
  3 15  1  0  0  0  0
  3  4  1  0  0  0  0
  4 10  1  1  0  0  0
  4 11  1  0  0  0  0
  5 23  1  6  0  0  0
  5 10  1  0  0  0  0
  5  4  1  0  0  0  0
  7  9  1  0  0  0  0
  9 18  1  0  0  0  0
  9  6  1  0  0  0  0
 11 22  1  0  0  0  0
 12  8  2  0  0  0  0
 12 14  1  0  0  0  0
 13 19  2  0  0  0  0
 14  1  2  0  0  0  0
 15 18  1  6  0  0  0
 15 21  1  0  0  0  0
 16  8  1  6  0  0  0
 16 19  1  0  0  0  0
 16  1  1  0  0  0  0
 19 20  1  0  0  0  0
 21 34  1  1  0  0  0
 21 22  1  0  0  0  0
 22 17  1  6  0  0  0
 24 23  1  0  0  0  0
 25 24  1  0  0  0  0
 26 33  2  0  0  0  0
 26 32  1  0  0  0  0
 27 29  1  0  0  0  0
 27 25  1  0  0  0  0
 28 29  2  0  0  0  0
 30 33  1  0  0  0  0
 31 26  1  0  0  0  0
 32 27  2  0  0  0  0
 33 28  1  0  0  0  0
 34 35  1  0  0  0  0
 36 35  1  0  0  0  0
 37 38  1  0  0  0  0
 37 36  1  0  0  0  0
 38 42  1  0  0  0  0
 39 42  1  0  0  0  0
 40 39  1  0  0  0  0
 40 42  1  0  0  0  0
 40 44  1  1  0  0  0
 42 41  1  1  0  0  0
 43 44  1  0  0  0  0
M  END
>  <MODEL>
2

>  <REMARK>
 VINA RESULT:      -6.5      1.565      1.968
  Name = 
  11 active torsions:
  status: ('A' for Active; 'I' for Inactive)
    1  A    between atoms: C_3  and  C_39
    2  A    between atoms: C_6  and  C_38
    3  A    between atoms: C_7  and  C_12
    4  A    between atoms: C_7  and  C_13
    5  A    between atoms: C_8  and  C_36
    6  A    between atoms: C_8  and  C_40
    7  A    between atoms: C_13  and  C_39
    8  A    between atoms: C_25  and  C_41
    9  A    between atoms: C_31  and  N_37
   10  A    between atoms: C_31  and  C_41
   11  A    between atoms: C_36  and  N_37
                            x       y       z     vdW  Elec       q    Type
                         _______ _______ _______ _____ _____    ______ ____

>  <TORSDO>
F 11

$$$$
=
 OpenBabel11052409353D

 44 50  0  0  1  0  0  0  0  0999 V2000
  161.4730  207.7910  154.0290 C   0  0  0  0  0  0  0  0  0  0  0  0
  160.3470  211.2910  154.3270 S   0  0  0  0  0  0  0  0  0  0  0  0
  161.3550  207.9590  150.6910 C   0  0  2  0  0  3  0  0  0  0  0  0
  161.9020  208.1590  149.2500 C   0  0  2  0  0  0  0  0  0  0  0  0
  162.6750  209.4260  148.8920 C   0  0  1  0  0  3  0  0  0  0  0  0
  162.7880  206.4430  152.6080 F   0  0  0  0  0  0  0  0  0  0  0  0
  161.5720  205.4520  154.2050 F   0  0  0  0  0  0  0  0  0  0  0  0
  161.0100  209.7920  154.6390 C   0  0  0  0  0  0  0  0  0  0  0  0
  161.5850  206.4890  153.2910 C   0  0  0  0  0  0  0  0  0  0  0  0
  161.2570  209.2110  148.3720 C   0  0  0  0  0  2  0  0  0  0  0  0
  162.4740  206.9500  148.5130 C   0  0  0  0  0  2  0  0  0  0  0  0
  161.4300  209.1690  155.7470 N   0  0  0  0  0  0  0  0  0  0  0  0
  160.0720  210.9280  152.6740 C   0  0  0  0  0  3  0  0  0  0  0  0
  161.7270  207.9290  155.3610 N   0  0  0  0  0  2  0  0  0  0  0  0
  160.6300  206.6130  150.8750 C   0  0  2  0  0  3  0  0  0  0  0  0
  161.0220  209.0100  153.5610 C   0  0  0  0  0  0  0  0  0  0  0  0
  160.3020  205.8890  147.8850 C   0  0  0  0  0  1  0  0  0  0  0  0
  160.3800  206.3020  152.3580 C   0  0  0  0  0  2  0  0  0  0  0  0
  160.5070  209.6180  152.4140 C   0  0  0  0  0  0  0  0  0  0  0  0
  160.4800  209.0520  151.1030 N   0  0  0  0  0  2  0  0  0  0  0  0
  161.3570  205.4500  150.1710 C   0  0  2  0  0  3  0  0  0  0  0  0
  161.5940  205.7200  148.6780 C   0  0  2  0  0  3  0  0  0  0  0  0
  162.6920  210.4860  149.9830 C   0  0  0  0  0  2  0  0  0  0  0  0
  161.9980  211.7600  149.5200 C   0  0  0  0  0  2  0  0  0  0  0  0
  162.7420  212.4240  148.3670 C   0  0  0  0  0  2  0  0  0  0  0  0
  159.5930  212.8270  146.2980 C   0  0  0  0  0  0  0  0  0  0  0  0
  161.8340  212.7090  147.2170 C   0  0  0  0  0  0  0  0  0  0  0  0
  161.4970  213.4270  144.9270 C   0  0  0  0  0  3  0  0  0  0  0  0
  162.3540  213.1430  145.9930 C   0  0  0  0  0  3  0  0  0  0  0  0
  159.2990  213.5410  144.0260 F   0  0  0  0  0  0  0  0  0  0  0  0
  158.1210  212.6380  146.4740 C   0  0  0  0  0  1  0  0  0  0  0  0
  160.4540  212.5580  147.3680 C   0  0  0  0  0  3  0  0  0  0  0  0
  160.1150  213.2690  145.0740 C   0  0  0  0  0  0  0  0  0  0  0  0
  160.7670  204.0580  150.4490 C   0  0  0  0  0  2  0  0  0  0  0  0
  161.4910  203.3020  151.5570 C   0  0  0  0  0  2  0  0  0  0  0  0
  161.5220  201.8840  151.2420 N   0  0  0  0  0  2  0  0  0  0  0  0
  160.7140  201.6980  150.0510 C   0  0  0  0  0  2  0  0  0  0  0  0
  161.4560  200.7960  149.0770 C   0  0  0  0  0  2  0  0  0  0  0  0
  159.9800  201.9080  147.5480 O   0  0  0  0  0  0  0  0  0  0  0  0
  161.1450  202.6060  147.1810 C   0  0  1  0  0  3  0  0  0  0  0  0
  161.2000  200.1630  146.6830 O   0  0  0  0  0  1  0  0  0  0  0  0
  161.1840  201.1870  147.6330 C   0  0  1  0  0  0  0  0  0  0  0  0
  161.9880  203.9710  145.2940 C   0  0  0  0  0  1  0  0  0  0  0  0
  161.2010  202.7350  145.6690 C   0  0  0  0  0  2  0  0  0  0  0  0
  1 14  1  0  0  0  0
  2  8  1  0  0  0  0
  3 15  1  0  0  0  0
  3 20  1  6  0  0  0
  4 10  1  6  0  0  0
  4  3  1  0  0  0  0
  5  4  1  0  0  0  0
  5 23  1  1  0  0  0
  6  9  1  0  0  0  0
  8 12  2  0  0  0  0
  9  1  1  0  0  0  0
  9  7  1  0  0  0  0
 10  5  1  0  0  0  0
 11 22  1  0  0  0  0
 11  4  1  0  0  0  0
 13  2  1  0  0  0  0
 14 12  1  0  0  0  0
 15 18  1  1  0  0  0
 16  1  2  0  0  0  0
 16  8  1  0  0  0  0
 18  9  1  0  0  0  0
 19 13  2  0  0  0  0
 19 16  1  0  0  0  0
 20 19  1  0  0  0  0
 21 34  1  6  0  0  0
 21 15  1  0  0  0  0
 22 17  1  6  0  0  0
 22 21  1  0  0  0  0
 24 23  1  0  0  0  0
 25 24  1  0  0  0  0
 26 31  1  0  0  0  0
 26 32  1  0  0  0  0
 27 32  2  0  0  0  0
 27 25  1  0  0  0  0
 28 33  1  0  0  0  0
 28 29  2  0  0  0  0
 29 27  1  0  0  0  0
 30 33  1  0  0  0  0
 33 26  2  0  0  0  0
 34 35  1  0  0  0  0
 36 35  1  0  0  0  0
 37 36  1  0  0  0  0
 38 37  1  0  0  0  0
 39 42  1  0  0  0  0
 40 44  1  6  0  0  0
 40 39  1  0  0  0  0
 40 42  1  0  0  0  0
 42 41  1  6  0  0  0
 42 38  1  0  0  0  0
 43 44  1  0  0  0  0
M  END
>  <MODEL>
3

>  <REMARK>
 VINA RESULT:      -6.3      4.249      9.095
  Name = 
  11 active torsions:
  status: ('A' for Active; 'I' for Inactive)
    1  A    between atoms: C_3  and  C_39
    2  A    between atoms: C_6  and  C_38
    3  A    between atoms: C_7  and  C_12
    4  A    between atoms: C_7  and  C_13
    5  A    between atoms: C_8  and  C_36
    6  A    between atoms: C_8  and  C_40
    7  A    between atoms: C_13  and  C_39
    8  A    between atoms: C_25  and  C_41
    9  A    between atoms: C_31  and  N_37
   10  A    between atoms: C_31  and  C_41
   11  A    between atoms: C_36  and  N_37
                            x       y       z     vdW  Elec       q    Type
                         _______ _______ _______ _____ _____    ______ ____

>  <TORSDO>
F 11

$$$$
=
 OpenBabel11052409353D

 44 50  0  0  1  0  0  0  0  0999 V2000
  160.9360  210.0810  154.9540 C   0  0  0  0  0  0  0  0  0  0  0  0
  159.1750  213.1760  153.9880 S   0  0  0  0  0  0  0  0  0  0  0  0
  161.1780  209.1330  151.7560 C   0  0  2  0  0  3  0  0  0  0  0  0
  161.8450  208.9640  150.3620 C   0  0  2  0  0  0  0  0  0  0  0  0
  162.4160  210.1790  149.6340 C   0  0  1  0  0  3  0  0  0  0  0  0
  162.6260  208.6490  154.1430 F   0  0  0  0  0  0  0  0  0  0  0  0
  161.4290  207.9980  155.9200 F   0  0  0  0  0  0  0  0  0  0  0  0
  160.0550  212.0290  154.8230 C   0  0  0  0  0  0  0  0  0  0  0  0
  161.3640  208.6640  154.7090 C   0  0  0  0  0  0  0  0  0  0  0  0
  161.1290  209.5180  149.1470 C   0  0  0  0  0  2  0  0  0  0  0  0
  162.7060  207.7280  150.1100 C   0  0  0  0  0  2  0  0  0  0  0  0
  160.4470  211.8990  156.0970 N   0  0  0  0  0  0  0  0  0  0  0  0
  159.1640  212.2490  152.5460 C   0  0  0  0  0  3  0  0  0  0  0  0
  161.0040  210.6910  156.1710 N   0  0  0  0  0  2  0  0  0  0  0  0
  160.6890  207.7980  152.3510 C   0  0  2  0  0  3  0  0  0  0  0  0
  160.3310  210.9620  154.0780 C   0  0  0  0  0  0  0  0  0  0  0  0
  160.8460  206.0960  149.7730 C   0  0  0  0  0  1  0  0  0  0  0  0
  160.3280  207.9400  153.8370 C   0  0  0  0  0  2  0  0  0  0  0  0
  159.8530  211.0460  152.7680 C   0  0  0  0  0  0  0  0  0  0  0  0
  160.0800  210.0930  151.7280 N   0  0  0  0  0  2  0  0  0  0  0  0
  161.6890  206.6480  152.1210 C   0  0  2  0  0  3  0  0  0  0  0  0
  162.0460  206.4630  150.6390 C   0  0  2  0  0  3  0  0  0  0  0  0
  162.1160  211.5140  150.2990 C   0  0  0  0  0  2  0  0  0  0  0  0
  161.3760  212.4450  149.3490 C   0  0  0  0  0  2  0  0  0  0  0  0
  162.2980  213.0140  148.2770 C   0  0  0  0  0  2  0  0  0  0  0  0
  161.9210  213.0930  144.5070 C   0  0  0  0  0  0  0  0  0  0  0  0
  161.7040  212.8870  146.9140 C   0  0  0  0  0  0  0  0  0  0  0  0
  159.8500  212.2900  145.4710 C   0  0  0  0  0  3  0  0  0  0  0  0
  160.3940  212.4250  146.7510 C   0  0  0  0  0  3  0  0  0  0  0  0
  160.0640  212.4940  143.1120 F   0  0  0  0  0  0  0  0  0  0  0  0
  162.7480  213.4690  143.3200 C   0  0  0  0  0  1  0  0  0  0  0  0
  162.4670  213.2140  145.7900 C   0  0  0  0  0  3  0  0  0  0  0  0
  160.6100  212.6240  144.3460 C   0  0  0  0  0  0  0  0  0  0  0  0
  161.3290  205.3310  152.8260 C   0  0  0  0  0  2  0  0  0  0  0  0
  161.8080  204.0910  152.0810 C   0  0  0  0  0  2  0  0  0  0  0  0
  160.6820  203.2130  151.8150 N   0  0  0  0  0  2  0  0  0  0  0  0
  161.1910  202.0960  151.0410 C   0  0  0  0  0  2  0  0  0  0  0  0
  160.2050  201.7630  149.9320 C   0  0  0  0  0  2  0  0  0  0  0  0
  161.5740  200.9040  148.1580 O   0  0  0  0  0  0  0  0  0  0  0  0
  160.4470  201.1900  147.3660 C   0  0  1  0  0  3  0  0  0  0  0  0
  161.5330  203.1910  148.3840 O   0  0  0  0  0  1  0  0  0  0  0  0
  160.8050  202.0120  148.5560 C   0  0  1  0  0  0  0  0  0  0  0  0
  159.9340  201.4560  144.9580 C   0  0  0  0  0  1  0  0  0  0  0  0
  160.8950  201.8300  146.0640 C   0  0  0  0  0  2  0  0  0  0  0  0
  1 14  1  0  0  0  0
  2  8  1  0  0  0  0
  3 20  1  6  0  0  0
  3 15  1  0  0  0  0
  4 10  1  6  0  0  0
  4  3  1  0  0  0  0
  5 23  1  1  0  0  0
  5  4  1  0  0  0  0
  6  9  1  0  0  0  0
  8 12  2  0  0  0  0
  9  1  1  0  0  0  0
  9  7  1  0  0  0  0
 10  5  1  0  0  0  0
 11  4  1  0  0  0  0
 11 22  1  0  0  0  0
 12 14  1  0  0  0  0
 13 19  2  0  0  0  0
 13  2  1  0  0  0  0
 15 18  1  1  0  0  0
 16  8  1  0  0  0  0
 16  1  2  0  0  0  0
 18  9  1  0  0  0  0
 19 16  1  0  0  0  0
 20 19  1  0  0  0  0
 21 15  1  0  0  0  0
 21 34  1  6  0  0  0
 22 17  1  6  0  0  0
 22 21  1  0  0  0  0
 24 23  1  0  0  0  0
 25 24  1  0  0  0  0
 26 32  1  0  0  0  0
 27 25  1  0  0  0  0
 28 29  2  0  0  0  0
 29 27  1  0  0  0  0
 30 33  1  0  0  0  0
 31 26  1  0  0  0  0
 32 27  2  0  0  0  0
 33 26  2  0  0  0  0
 33 28  1  0  0  0  0
 35 34  1  0  0  0  0
 36 35  1  0  0  0  0
 37 36  1  0  0  0  0
 38 37  1  0  0  0  0
 39 42  1  0  0  0  0
 40 44  1  6  0  0  0
 40 39  1  0  0  0  0
 40 42  1  0  0  0  0
 42 41  1  6  0  0  0
 42 38  1  0  0  0  0
 43 44  1  0  0  0  0
M  END
>  <MODEL>
4

>  <REMARK>
 VINA RESULT:      -6.0      4.197      8.797
  Name = 
  11 active torsions:
  status: ('A' for Active; 'I' for Inactive)
    1  A    between atoms: C_3  and  C_39
    2  A    between atoms: C_6  and  C_38
    3  A    between atoms: C_7  and  C_12
    4  A    between atoms: C_7  and  C_13
    5  A    between atoms: C_8  and  C_36
    6  A    between atoms: C_8  and  C_40
    7  A    between atoms: C_13  and  C_39
    8  A    between atoms: C_25  and  C_41
    9  A    between atoms: C_31  and  N_37
   10  A    between atoms: C_31  and  C_41
   11  A    between atoms: C_36  and  N_37
                            x       y       z     vdW  Elec       q    Type
                         _______ _______ _______ _____ _____    ______ ____

>  <TORSDO>
F 11

$$$$
=
 OpenBabel11052409353D

 44 50  0  0  1  0  0  0  0  0999 V2000
  160.9890  209.9490  154.9820 C   0  0  0  0  0  0  0  0  0  0  0  0
  159.2000  213.0490  154.0880 S   0  0  0  0  0  0  0  0  0  0  0  0
  161.1940  209.0520  151.7680 C   0  0  2  0  0  3  0  0  0  0  0  0
  161.8430  208.9080  150.3620 C   0  0  2  0  0  0  0  0  0  0  0  0
  162.3980  210.1370  149.6460 C   0  0  1  0  0  3  0  0  0  0  0  0
  162.6760  208.5400  154.1280 F   0  0  0  0  0  0  0  0  0  0  0  0
  161.5060  207.8550  155.9100 F   0  0  0  0  0  0  0  0  0  0  0  0
  160.0960  211.8950  154.8940 C   0  0  0  0  0  0  0  0  0  0  0  0
  161.4210  208.5380  154.7100 C   0  0  0  0  0  0  0  0  0  0  0  0
  161.1080  209.4780  149.1660 C   0  0  0  0  0  2  0  0  0  0  0  0
  162.7070  207.6810  150.0790 C   0  0  0  0  0  2  0  0  0  0  0  0
  160.5060  211.7470  156.1590 N   0  0  0  0  0  0  0  0  0  0  0  0
  159.1740  212.1450  152.6320 C   0  0  0  0  0  3  0  0  0  0  0  0
  161.0700  210.5410  156.2080 N   0  0  0  0  0  2  0  0  0  0  0  0
  160.7200  207.7060  152.3480 C   0  0  2  0  0  3  0  0  0  0  0  0
  160.3680  210.8400  154.1280 C   0  0  0  0  0  0  0  0  0  0  0  0
  160.8510  206.0440  149.7420 C   0  0  0  0  0  1  0  0  0  0  0  0
  160.3770  207.8220  153.8410 C   0  0  0  0  0  2  0  0  0  0  0  0
  159.8720  210.9420  152.8270 C   0  0  0  0  0  0  0  0  0  0  0  0
  160.0910  210.0070  151.7690 N   0  0  0  0  0  2  0  0  0  0  0  0
  161.7220  206.5640  152.0870 C   0  0  2  0  0  3  0  0  0  0  0  0
  162.0610  206.4050  150.5980 C   0  0  2  0  0  3  0  0  0  0  0  0
  162.0990  211.4610  150.3350 C   0  0  0  0  0  2  0  0  0  0  0  0
  161.2430  212.3570  149.4520 C   0  0  0  0  0  2  0  0  0  0  0  0
  162.0260  212.8960  148.2610 C   0  0  0  0  0  2  0  0  0  0  0  0
  159.0570  212.7180  145.9120 C   0  0  0  0  0  0  0  0  0  0  0  0
  161.2170  212.8580  147.0070 C   0  0  0  0  0  0  0  0  0  0  0  0
  161.0740  212.9330  144.5880 C   0  0  0  0  0  3  0  0  0  0  0  0
  161.8390  212.9490  145.7570 C   0  0  0  0  0  3  0  0  0  0  0  0
  158.9560  212.7940  143.5160 F   0  0  0  0  0  0  0  0  0  0  0  0
  157.5730  212.5790  146.0130 C   0  0  0  0  0  1  0  0  0  0  0  0
  159.8260  212.7490  147.0810 C   0  0  0  0  0  3  0  0  0  0  0  0
  159.6820  212.8160  144.6610 C   0  0  0  0  0  0  0  0  0  0  0  0
  161.3790  205.2350  152.7760 C   0  0  0  0  0  2  0  0  0  0  0  0
  161.8540  204.0090  152.0050 C   0  0  0  0  0  2  0  0  0  0  0  0
  160.8010  203.0090  151.9790 N   0  0  0  0  0  2  0  0  0  0  0  0
  161.2270  201.9730  151.0570 C   0  0  0  0  0  2  0  0  0  0  0  0
  160.1850  201.8170  149.9600 C   0  0  0  0  0  2  0  0  0  0  0  0
  161.4510  200.9270  148.1270 O   0  0  0  0  0  0  0  0  0  0  0  0
  160.3360  201.3300  147.3690 C   0  0  1  0  0  3  0  0  0  0  0  0
  161.5930  203.1990  148.4410 O   0  0  0  0  0  1  0  0  0  0  0  0
  160.7770  202.0740  148.5830 C   0  0  1  0  0  0  0  0  0  0  0  0
  160.0820  201.3760  144.9060 C   0  0  0  0  0  1  0  0  0  0  0  0
  160.8100  201.9850  146.0840 C   0  0  0  0  0  2  0  0  0  0  0  0
  1 14  1  0  0  0  0
  2  8  1  0  0  0  0
  3 20  1  6  0  0  0
  3 15  1  0  0  0  0
  4 10  1  6  0  0  0
  4  3  1  0  0  0  0
  5 23  1  1  0  0  0
  5  4  1  0  0  0  0
  6  9  1  0  0  0  0
  8 12  2  0  0  0  0
  9  1  1  0  0  0  0
  9  7  1  0  0  0  0
 10  5  1  0  0  0  0
 11  4  1  0  0  0  0
 11 22  1  0  0  0  0
 12 14  1  0  0  0  0
 13 19  2  0  0  0  0
 13  2  1  0  0  0  0
 15 18  1  1  0  0  0
 16  8  1  0  0  0  0
 16  1  2  0  0  0  0
 18  9  1  0  0  0  0
 19 16  1  0  0  0  0
 20 19  1  0  0  0  0
 21 15  1  0  0  0  0
 21 34  1  6  0  0  0
 22 17  1  6  0  0  0
 22 21  1  0  0  0  0
 24 23  1  0  0  0  0
 25 24  1  0  0  0  0
 26 31  1  0  0  0  0
 26 32  1  0  0  0  0
 27 32  2  0  0  0  0
 27 25  1  0  0  0  0
 28 33  1  0  0  0  0
 28 29  2  0  0  0  0
 29 27  1  0  0  0  0
 30 33  1  0  0  0  0
 33 26  2  0  0  0  0
 35 34  1  0  0  0  0
 36 35  1  0  0  0  0
 37 36  1  0  0  0  0
 38 37  1  0  0  0  0
 39 42  1  0  0  0  0
 40 44  1  6  0  0  0
 40 39  1  0  0  0  0
 40 42  1  0  0  0  0
 42 41  1  6  0  0  0
 42 38  1  0  0  0  0
 43 44  1  0  0  0  0
M  END
>  <MODEL>
5

>  <REMARK>
 VINA RESULT:      -5.8      4.101      8.816
  Name = 
  11 active torsions:
  status: ('A' for Active; 'I' for Inactive)
    1  A    between atoms: C_3  and  C_39
    2  A    between atoms: C_6  and  C_38
    3  A    between atoms: C_7  and  C_12
    4  A    between atoms: C_7  and  C_13
    5  A    between atoms: C_8  and  C_36
    6  A    between atoms: C_8  and  C_40
    7  A    between atoms: C_13  and  C_39
    8  A    between atoms: C_25  and  C_41
    9  A    between atoms: C_31  and  N_37
   10  A    between atoms: C_31  and  C_41
   11  A    between atoms: C_36  and  N_37
                            x       y       z     vdW  Elec       q    Type
                         _______ _______ _______ _____ _____    ______ ____

>  <TORSDO>
F 11

$$$$
=
 OpenBabel11052409353D

 44 50  0  0  1  0  0  0  0  0999 V2000
  160.3270  211.7120  154.8120 C   0  0  0  0  0  0  0  0  0  0  0  0
  158.2120  214.4520  153.5350 S   0  0  0  0  0  0  0  0  0  0  0  0
  160.8340  210.5590  151.7150 C   0  0  2  0  0  3  0  0  0  0  0  0
  161.5770  210.3750  150.3620 C   0  0  2  0  0  0  0  0  0  0  0  0
  162.0120  211.5950  149.5540 C   0  0  1  0  0  3  0  0  0  0  0  0
  162.2270  210.4670  154.1800 F   0  0  0  0  0  0  0  0  0  0  0  0
  161.0520  209.7990  155.9650 F   0  0  0  0  0  0  0  0  0  0  0  0
  159.2000  213.5050  154.4910 C   0  0  0  0  0  0  0  0  0  0  0  0
  160.9510  210.3520  154.7010 C   0  0  0  0  0  0  0  0  0  0  0  0
  160.8480  210.7290  149.0830 C   0  0  0  0  0  2  0  0  0  0  0  0
  162.6060  209.2520  150.2420 C   0  0  0  0  0  2  0  0  0  0  0  0
  159.5500  213.5300  155.7830 N   0  0  0  0  0  0  0  0  0  0  0  0
  158.3880  213.4220  152.1750 C   0  0  0  0  0  3  0  0  0  0  0  0
  160.2590  212.4190  155.9760 N   0  0  0  0  0  2  0  0  0  0  0  0
  160.5020  209.2210  152.4020 C   0  0  2  0  0  3  0  0  0  0  0  0
  159.6490  212.4300  153.8470 C   0  0  0  0  0  0  0  0  0  0  0  0
  160.9980  207.3600  149.9820 C   0  0  0  0  0  1  0  0  0  0  0  0
  160.0600  209.4270  153.8590 C   0  0  0  0  0  2  0  0  0  0  0  0
  159.2210  212.3460  152.5200 C   0  0  0  0  0  0  0  0  0  0  0  0
  159.6200  211.3550  151.5710 N   0  0  0  0  0  2  0  0  0  0  0  0
  161.6560  208.2040  152.3020 C   0  0  2  0  0  3  0  0  0  0  0  0
  162.0990  207.9540  150.8530 C   0  0  2  0  0  3  0  0  0  0  0  0
  161.5070  212.9250  150.0950 C   0  0  0  0  0  2  0  0  0  0  0  0
  161.5110  213.9940  149.0120 C   0  0  0  0  0  2  0  0  0  0  0  0
  160.1920  214.0360  148.2500 C   0  0  0  0  0  2  0  0  0  0  0  0
  161.7470  213.1910  144.8980 C   0  0  0  0  0  0  0  0  0  0  0  0
  160.3500  213.5440  146.8490 C   0  0  0  0  0  0  0  0  0  0  0  0
  159.4330  212.4810  144.8730 C   0  0  0  0  0  3  0  0  0  0  0  0
  159.2730  212.9570  146.1770 C   0  0  0  0  0  3  0  0  0  0  0  0
  160.8030  212.1370  142.9610 F   0  0  0  0  0  0  0  0  0  0  0  0
  163.0740  213.3380  144.2260 C   0  0  0  0  0  1  0  0  0  0  0  0
  161.5870  213.6540  146.2090 C   0  0  0  0  0  3  0  0  0  0  0  0
  160.6680  212.5970  144.2300 C   0  0  0  0  0  0  0  0  0  0  0  0
  161.4450  206.9090  153.1030 C   0  0  0  0  0  2  0  0  0  0  0  0
  162.2380  205.7250  152.5640 C   0  0  0  0  0  2  0  0  0  0  0  0
  161.3710  204.5640  152.4540 N   0  0  0  0  0  2  0  0  0  0  0  0
  161.7280  203.8870  151.2210 C   0  0  0  0  0  2  0  0  0  0  0  0
  160.6810  204.1900  150.1600 C   0  0  0  0  0  2  0  0  0  0  0  0
  160.4910  204.6420  147.8120 O   0  0  0  0  0  0  0  0  0  0  0  0
  161.8710  204.8980  147.9130 C   0  0  1  0  0  3  0  0  0  0  0  0
  161.2170  202.5360  148.3780 O   0  0  0  0  0  1  0  0  0  0  0  0
  161.1930  203.8790  148.7630 C   0  0  1  0  0  0  0  0  0  0  0  0
  162.5890  205.2540  145.5690 C   0  0  0  0  0  1  0  0  0  0  0  0
  162.5870  204.2790  146.7250 C   0  0  0  0  0  2  0  0  0  0  0  0
  1 14  1  0  0  0  0
  2  8  1  0  0  0  0
  3 20  1  6  0  0  0
  3 15  1  0  0  0  0
  4 10  1  6  0  0  0
  4  3  1  0  0  0  0
  5 23  1  1  0  0  0
  5  4  1  0  0  0  0
  6  9  1  0  0  0  0
  8 12  2  0  0  0  0
  9  1  1  0  0  0  0
  9  7  1  0  0  0  0
 10  5  1  0  0  0  0
 11  4  1  0  0  0  0
 11 22  1  0  0  0  0
 12 14  1  0  0  0  0
 13 19  2  0  0  0  0
 13  2  1  0  0  0  0
 15 18  1  1  0  0  0
 16  8  1  0  0  0  0
 16  1  2  0  0  0  0
 18  9  1  0  0  0  0
 19 16  1  0  0  0  0
 20 19  1  0  0  0  0
 21 15  1  0  0  0  0
 21 34  1  6  0  0  0
 22 17  1  6  0  0  0
 22 21  1  0  0  0  0
 24 23  1  0  0  0  0
 25 24  1  0  0  0  0
 26 32  1  0  0  0  0
 27 25  1  0  0  0  0
 28 29  2  0  0  0  0
 29 27  1  0  0  0  0
 30 33  1  0  0  0  0
 31 26  1  0  0  0  0
 32 27  2  0  0  0  0
 33 28  1  0  0  0  0
 33 26  2  0  0  0  0
 35 34  1  0  0  0  0
 36 35  1  0  0  0  0
 37 36  1  0  0  0  0
 38 37  1  0  0  0  0
 39 40  1  0  0  0  0
 39 42  1  0  0  0  0
 40 44  1  6  0  0  0
 40 42  1  0  0  0  0
 42 41  1  6  0  0  0
 42 38  1  0  0  0  0
 43 44  1  0  0  0  0
M  END
>  <MODEL>
6

>  <REMARK>
 VINA RESULT:      -5.0      4.032      8.452
  Name = 
  11 active torsions:
  status: ('A' for Active; 'I' for Inactive)
    1  A    between atoms: C_3  and  C_39
    2  A    between atoms: C_6  and  C_38
    3  A    between atoms: C_7  and  C_12
    4  A    between atoms: C_7  and  C_13
    5  A    between atoms: C_8  and  C_36
    6  A    between atoms: C_8  and  C_40
    7  A    between atoms: C_13  and  C_39
    8  A    between atoms: C_25  and  C_41
    9  A    between atoms: C_31  and  N_37
   10  A    between atoms: C_31  and  C_41
   11  A    between atoms: C_36  and  N_37
                            x       y       z     vdW  Elec       q    Type
                         _______ _______ _______ _____ _____    ______ ____

>  <TORSDO>
F 11

$$$$
=
 OpenBabel11052409353D

 44 50  0  0  1  0  0  0  0  0999 V2000
  161.4960  207.6130  153.7460 C   0  0  0  0  0  0  0  0  0  0  0  0
  160.1430  210.9800  154.4080 S   0  0  0  0  0  0  0  0  0  0  0  0
  161.4360  208.1560  150.4470 C   0  0  2  0  0  3  0  0  0  0  0  0
  161.9990  208.5520  149.0530 C   0  0  2  0  0  0  0  0  0  0  0  0
  162.6970  209.8970  148.8630 C   0  0  1  0  0  3  0  0  0  0  0  0
  162.9220  206.5200  152.2190 F   0  0  0  0  0  0  0  0  0  0  0  0
  161.7390  205.2790  153.6590 F   0  0  0  0  0  0  0  0  0  0  0  0
  160.8930  209.4980  154.5660 C   0  0  0  0  0  0  0  0  0  0  0  0
  161.7060  206.4140  152.8680 C   0  0  0  0  0  0  0  0  0  0  0  0
  161.3070  209.6580  148.2820 C   0  0  0  0  0  2  0  0  0  0  0  0
  162.6620  207.4740  148.2000 C   0  0  0  0  0  2  0  0  0  0  0  0
  161.3290  208.7790  155.6070 N   0  0  0  0  0  0  0  0  0  0  0  0
  159.9260  210.7930  152.7170 C   0  0  0  0  0  3  0  0  0  0  0  0
  161.7120  207.6110  155.0920 N   0  0  0  0  0  2  0  0  0  0  0  0
  160.7940  206.7550  150.4560 C   0  0  2  0  0  3  0  0  0  0  0  0
  160.9770  208.8480  153.4070 C   0  0  0  0  0  0  0  0  0  0  0  0
  160.5750  206.3620  147.3960 C   0  0  0  0  0  1  0  0  0  0  0  0
  160.5340  206.2620  151.8870 C   0  0  0  0  0  2  0  0  0  0  0  0
  160.4480  209.5510  152.3230 C   0  0  0  0  0  0  0  0  0  0  0  0
  160.4850  209.1390  150.9560 N   0  0  0  0  0  2  0  0  0  0  0  0
  161.6080  205.7280  149.6450 C   0  0  2  0  0  3  0  0  0  0  0  0
  161.8590  206.1810  148.2000 C   0  0  2  0  0  3  0  0  0  0  0  0
  162.6230  210.8240  150.0680 C   0  0  0  0  0  2  0  0  0  0  0  0
  161.6980  212.0020  149.7960 C   0  0  0  0  0  2  0  0  0  0  0  0
  162.1590  212.8210  148.5960 C   0  0  0  0  0  2  0  0  0  0  0  0
  159.9890  213.4730  145.5580 C   0  0  0  0  0  0  0  0  0  0  0  0
  161.0080  213.2510  147.7480 C   0  0  0  0  0  0  0  0  0  0  0  0
  158.7840  214.1900  147.5330 C   0  0  0  0  0  3  0  0  0  0  0  0
  159.8660  213.8080  148.3310 C   0  0  0  0  0  3  0  0  0  0  0  0
  157.7860  214.4080  145.3860 F   0  0  0  0  0  0  0  0  0  0  0  0
  160.0790  213.3000  144.0770 C   0  0  0  0  0  1  0  0  0  0  0  0
  161.0640  213.0790  146.3620 C   0  0  0  0  0  3  0  0  0  0  0  0
  158.8420  214.0250  146.1450 C   0  0  0  0  0  0  0  0  0  0  0  0
  161.1030  204.2800  149.7480 C   0  0  0  0  0  2  0  0  0  0  0  0
  161.6210  203.5400  150.9750 C   0  0  0  0  0  2  0  0  0  0  0  0
  160.6710  202.5140  151.3660 N   0  0  0  0  0  2  0  0  0  0  0  0
  161.2270  201.2410  150.9460 C   0  0  0  0  0  2  0  0  0  0  0  0
  160.4250  200.7060  149.7700 C   0  0  0  0  0  2  0  0  0  0  0  0
  159.9840  201.4500  147.5320 O   0  0  0  0  0  0  0  0  0  0  0  0
  160.8190  202.5220  147.8950 C   0  0  1  0  0  3  0  0  0  0  0  0
  161.9480  200.2990  147.8440 O   0  0  0  0  0  1  0  0  0  0  0  0
  161.0150  201.1490  148.4400 C   0  0  1  0  0  0  0  0  0  0  0  0
  160.9800  203.0020  145.4710 C   0  0  0  0  0  1  0  0  0  0  0  0
  161.7680  202.8320  146.7510 C   0  0  0  0  0  2  0  0  0  0  0  0
  1 14  1  0  0  0  0
  2  8  1  0  0  0  0
  3 15  1  0  0  0  0
  3 20  1  6  0  0  0
  4 11  1  6  0  0  0
  4  3  1  0  0  0  0
  5  4  1  0  0  0  0
  5 23  1  1  0  0  0
  6  9  1  0  0  0  0
  8 12  2  0  0  0  0
  9  7  1  0  0  0  0
  9  1  1  0  0  0  0
 10  5  1  0  0  0  0
 10  4  1  0  0  0  0
 11 22  1  0  0  0  0
 13  2  1  0  0  0  0
 14 12  1  0  0  0  0
 15 18  1  1  0  0  0
 16  1  2  0  0  0  0
 16  8  1  0  0  0  0
 18  9  1  0  0  0  0
 19 13  2  0  0  0  0
 19 16  1  0  0  0  0
 20 19  1  0  0  0  0
 21 34  1  6  0  0  0
 21 15  1  0  0  0  0
 22 17  1  1  0  0  0
 22 21  1  0  0  0  0
 24 23  1  0  0  0  0
 25 24  1  0  0  0  0
 26 33  2  0  0  0  0
 26 32  1  0  0  0  0
 27 29  1  0  0  0  0
 27 25  1  0  0  0  0
 28 29  2  0  0  0  0
 30 33  1  0  0  0  0
 31 26  1  0  0  0  0
 32 27  2  0  0  0  0
 33 28  1  0  0  0  0
 34 35  1  0  0  0  0
 35 36  1  0  0  0  0
 37 36  1  0  0  0  0
 38 37  1  0  0  0  0
 39 40  1  0  0  0  0
 39 42  1  0  0  0  0
 40 44  1  6  0  0  0
 40 42  1  0  0  0  0
 42 41  1  6  0  0  0
 42 38  1  0  0  0  0
 43 44  1  0  0  0  0
M  END
>  <MODEL>
7

>  <REMARK>
 VINA RESULT:      -4.1      4.191      9.227
  Name = 
  11 active torsions:
  status: ('A' for Active; 'I' for Inactive)
    1  A    between atoms: C_3  and  C_39
    2  A    between atoms: C_6  and  C_38
    3  A    between atoms: C_7  and  C_12
    4  A    between atoms: C_7  and  C_13
    5  A    between atoms: C_8  and  C_36
    6  A    between atoms: C_8  and  C_40
    7  A    between atoms: C_13  and  C_39
    8  A    between atoms: C_25  and  C_41
    9  A    between atoms: C_31  and  N_37
   10  A    between atoms: C_31  and  C_41
   11  A    between atoms: C_36  and  N_37
                            x       y       z     vdW  Elec       q    Type
                         _______ _______ _______ _____ _____    ______ ____

>  <TORSDO>
F 11

$$$$
=
 OpenBabel11052409353D

 44 50  0  0  1  0  0  0  0  0999 V2000
  162.2200  208.3040  149.4000 C   0  0  0  0  0  0  0  0  0  0  0  0
  160.7390  205.9870  146.9420 S   0  0  0  0  0  0  0  0  0  0  0  0
  161.0670  206.4640  151.9430 C   0  0  2  0  0  3  0  0  0  0  0  0
  161.1140  205.3920  153.0680 C   0  0  2  0  0  0  0  0  0  0  0  0
  161.5470  203.9630  152.7470 C   0  0  1  0  0  3  0  0  0  0  0  0
  163.2220  208.2580  151.5350 F   0  0  0  0  0  0  0  0  0  0  0  0
  162.7090  210.2420  150.6340 F   0  0  0  0  0  0  0  0  0  0  0  0
  161.6770  207.1560  147.6760 C   0  0  0  0  0  0  0  0  0  0  0  0
  162.2920  208.9300  150.7620 C   0  0  0  0  0  0  0  0  0  0  0  0
  160.0850  204.2800  153.0480 C   0  0  0  0  0  2  0  0  0  0  0  0
  161.6050  205.8080  154.4520 C   0  0  0  0  0  2  0  0  0  0  0  0
  162.5010  208.1090  147.2250 N   0  0  0  0  0  0  0  0  0  0  0  0
  160.0300  205.4960  148.4240 C   0  0  0  0  0  3  0  0  0  0  0  0
  162.8450  208.8150  148.3010 N   0  0  0  0  0  0  0  0  0  0  0  0
  160.6380  207.8510  152.4560 C   0  0  2  0  0  3  0  0  0  0  0  0
  161.4740  207.2170  148.9900 C   0  0  2  0  0  3  0  0  0  0  0  0
  159.5250  206.9680  155.2030 C   0  0  0  0  0  1  0  0  0  0  0  0
  160.9000  208.9470  151.4120 C   0  0  0  0  0  2  0  0  0  0  0  0
  160.5510  206.2820  149.4640 C   0  0  0  0  0  0  0  0  0  0  0  0
  160.2090  206.0600  150.8340 N   0  0  0  0  0  2  0  0  0  0  0  0
  161.2780  208.2020  153.8140 C   0  0  2  0  0  3  0  0  0  0  0  0
  161.0070  207.1380  154.8870 C   0  0  2  0  0  3  0  0  0  0  0  0
  161.7400  203.6780  151.2650 C   0  0  0  0  0  2  0  0  0  0  0  0
  160.7510  202.6290  150.7760 C   0  0  0  0  0  2  0  0  0  0  0  0
  161.4550  201.4420  150.1290 C   0  0  0  0  0  2  0  0  0  0  0  0
  161.2090  200.1260  146.5840 C   0  0  0  0  0  0  0  0  0  0  0  0
  161.1880  201.3760  148.6620 C   0  0  0  0  0  0  0  0  0  0  0  0
  160.3810  202.4010  146.6180 C   0  0  0  0  0  3  0  0  0  0  0  0
  160.6480  202.4760  147.9880 C   0  0  0  0  0  3  0  0  0  0  0  0
  160.4040  201.1750  144.5820 F   0  0  0  0  0  0  0  0  0  0  0  0
  161.5290  198.8650  145.8460 C   0  0  0  0  0  1  0  0  0  0  0  0
  161.4610  200.2000  147.9580 C   0  0  0  0  0  3  0  0  0  0  0  0
  160.6610  201.2270  145.9120 C   0  0  0  0  0  0  0  0  0  0  0  0
  161.0120  209.6350  154.3010 C   0  0  0  0  0  2  0  0  0  0  0  0
  160.8670  209.7470  155.8130 C   0  0  0  0  0  2  0  0  0  0  0  0
  160.6230  211.1310  156.1820 N   0  0  0  0  0  2  0  0  0  0  0  0
  159.4360  211.1420  157.0170 C   0  0  0  0  0  2  0  0  0  0  0  0
  158.2000  211.1630  156.1310 C   0  0  0  0  0  2  0  0  0  0  0  0
  158.8490  212.5760  154.3040 O   0  0  0  0  0  0  0  0  0  0  0  0
  157.4640  212.6380  154.0690 C   0  0  1  0  0  3  0  0  0  0  0  0
  158.1960  213.6510  156.2280 O   0  0  0  0  0  1  0  0  0  0  0  0
  158.0260  212.5080  155.4420 C   0  0  1  0  0  0  0  0  0  0  0  0
  156.7250  214.1680  152.2670 C   0  0  0  0  0  1  0  0  0  0  0  0
  157.0730  214.0670  153.7350 C   0  0  0  0  0  2  0  0  0  0  0  0
  1  9  1  0  0  0  0
  2  8  1  0  0  0  0
  2 13  1  0  0  0  0
  3 20  1  6  0  0  0
  3 15  1  0  0  0  0
  3  4  1  0  0  0  0
  4 10  1  1  0  0  0
  4 11  1  0  0  0  0
  5 23  1  6  0  0  0
  5 10  1  0  0  0  0
  5  4  1  0  0  0  0
  7  9  1  0  0  0  0
  9 18  1  0  0  0  0
  9  6  1  0  0  0  0
 11 22  1  0  0  0  0
 12  8  2  0  0  0  0
 12 14  1  0  0  0  0
 13 19  2  0  0  0  0
 14  1  2  0  0  0  0
 15 18  1  6  0  0  0
 15 21  1  0  0  0  0
 16  8  1  6  0  0  0
 16  1  1  0  0  0  0
 16 19  1  0  0  0  0
 19 20  1  0  0  0  0
 21 34  1  1  0  0  0
 21 22  1  0  0  0  0
 22 17  1  6  0  0  0
 24 23  1  0  0  0  0
 25 24  1  0  0  0  0
 26 32  1  0  0  0  0
 27 25  1  0  0  0  0
 28 29  2  0  0  0  0
 29 27  1  0  0  0  0
 30 33  1  0  0  0  0
 31 26  1  0  0  0  0
 32 27  2  0  0  0  0
 33 26  2  0  0  0  0
 33 28  1  0  0  0  0
 34 35  1  0  0  0  0
 35 36  1  0  0  0  0
 36 37  1  0  0  0  0
 38 37  1  0  0  0  0
 39 42  1  0  0  0  0
 40 44  1  1  0  0  0
 40 39  1  0  0  0  0
 40 42  1  0  0  0  0
 42 38  1  0  0  0  0
 42 41  1  1  0  0  0
 43 44  1  0  0  0  0
M  END
>  <MODEL>
8

>  <REMARK>
 VINA RESULT:      -3.9      1.657      2.521
  Name = 
  11 active torsions:
  status: ('A' for Active; 'I' for Inactive)
    1  A    between atoms: C_3  and  C_39
    2  A    between atoms: C_6  and  C_38
    3  A    between atoms: C_7  and  C_12
    4  A    between atoms: C_7  and  C_13
    5  A    between atoms: C_8  and  C_36
    6  A    between atoms: C_8  and  C_40
    7  A    between atoms: C_13  and  C_39
    8  A    between atoms: C_25  and  C_41
    9  A    between atoms: C_31  and  N_37
   10  A    between atoms: C_31  and  C_41
   11  A    between atoms: C_36  and  N_37
                            x       y       z     vdW  Elec       q    Type
                         _______ _______ _______ _____ _____    ______ ____

>  <TORSDO>
F 11

$$$$
