=
 OpenBabel11052410483D

 37 40  0  0  1  0  0  0  0  0999 V2000
  161.3410  208.1240  152.5080 C   0  0  0  0  0  0  0  0  0  0  0  0
  160.9830  207.9860  153.8530 C   0  0  0  0  0  3  0  0  0  0  0  0
  161.6820  206.9720  151.7600 C   0  0  0  0  0  0  0  0  0  0  0  0
  161.9450  204.5050  151.7080 N   0  0  0  0  0  1  0  0  0  0  0  0
  161.2740  205.6280  153.7100 N   0  0  0  0  0  0  0  0  0  0  0  0
  160.9530  206.7250  154.4410 C   0  0  0  0  0  3  0  0  0  0  0  0
  161.6330  205.7100  152.4020 C   0  0  0  0  0  0  0  0  0  0  0  0
  161.4040  209.4820  151.9150 C   0  0  0  0  0  0  0  0  0  0  0  0
  162.1280  209.6790  150.9010 O   0  0  0  0  0  0  0  0  0  0  0  0
  158.2760  213.3240  151.8500 C   0  0  0  0  0  1  0  0  0  0  0  0
  160.6580  210.6260  152.4770 C   0  0  0  0  0  0  0  0  0  0  0  0
  160.7510  211.1870  154.0680 S   0  0  0  0  0  0  0  0  0  0  0  0
  159.7750  211.3510  151.7520 N   0  0  0  0  0  0  0  0  0  0  0  0
  159.6020  212.3830  153.8170 C   0  0  0  0  0  0  0  0  0  0  0  0
  159.1910  212.3360  152.4840 C   0  0  0  0  0  0  0  0  0  0  0  0
  159.2360  213.3530  154.8040 N   0  0  0  0  0  2  0  0  0  0  0  0
  157.7240  214.2780  156.3060 O   0  0  0  0  0  0  0  0  0  0  0  0
  158.1060  213.2570  155.6790 C   0  0  0  0  0  0  0  0  0  0  0  0
  157.4300  211.9450  155.9450 C   0  0  0  0  0  2  0  0  0  0  0  0
  155.5540  210.5010  155.2300 C   0  0  0  0  0  1  0  0  0  0  0  0
  155.8640  212.6440  154.2650 O   0  0  0  0  0  1  0  0  0  0  0  0
  155.1530  212.5010  156.4170 F   0  0  0  0  0  0  0  0  0  0  0  0
  155.9820  211.9350  155.4630 C   0  0  2  0  0  0  0  0  0  0  0  0
  162.0270  207.1250  150.3710 N   0  0  0  0  0  2  0  0  0  0  0  0
  161.1150  207.0520  149.2390 C   0  0  0  0  0  2  0  0  0  0  0  0
  161.2810  200.5700  147.9190 C   0  0  0  0  0  3  0  0  0  0  0  0
  161.0100  203.7760  146.1210 O   0  0  0  0  0  0  0  0  0  0  0  0
  161.2980  201.5300  146.9050 C   0  0  0  0  0  3  0  0  0  0  0  0
  160.6310  204.6100  148.9730 O   0  0  0  0  0  0  0  0  0  0  0  0
  161.0190  200.9490  149.2330 C   0  0  0  0  0  3  0  0  0  0  0  0
  162.6850  205.4890  146.3580 C   0  0  0  0  0  3  0  0  0  0  0  0
  160.8330  203.2790  148.5440 C   0  0  0  0  0  0  0  0  0  0  0  0
  162.0670  205.7180  147.4760 C   0  0  0  0  0  0  0  0  0  0  0  0
  161.0620  202.8800  147.1940 C   0  0  0  0  0  0  0  0  0  0  0  0
  162.2070  204.3200  145.5520 C   0  0  0  0  0  2  0  0  0  0  0  0
  160.7950  202.2930  149.5390 C   0  0  0  0  0  3  0  0  0  0  0  0
  161.3090  205.7590  148.5280 C   0  0  0  0  0  0  0  0  0  0  0  0
  1  2  1  0  0  0  0
  2  6  2  0  0  0  0
  3  7  1  0  0  0  0
  3  1  2  0  0  0  0
  4  7  1  0  0  0  0
  5  6  1  0  0  0  0
  7  5  2  0  0  0  0
  8 11  1  0  0  0  0
  8  1  1  0  0  0  0
  9  8  2  0  0  0  0
 10 15  1  0  0  0  0
 11 12  1  0  0  0  0
 13 11  2  0  0  0  0
 13 15  1  0  0  0  0
 14 12  1  0  0  0  0
 14 16  1  0  0  0  0
 15 14  2  0  0  0  0
 16 18  1  0  0  0  0
 18 19  1  0  0  0  0
 18 17  2  0  0  0  0
 21 23  1  0  0  0  0
 23 20  1  6  0  0  0
 23 19  1  0  0  0  0
 23 22  1  0  0  0  0
 24  3  1  0  0  0  0
 25 24  1  0  0  0  0
 26 30  1  0  0  0  0
 27 34  1  0  0  0  0
 28 34  1  0  0  0  0
 28 26  2  0  0  0  0
 30 36  2  0  0  0  0
 31 33  2  0  0  0  0
 32 29  1  0  0  0  0
 32 36  1  0  0  0  0
 33 37  2  0  0  0  0
 34 32  2  0  0  0  0
 35 27  1  0  0  0  0
 35 31  1  0  0  0  0
 37 29  1  0  0  0  0
 37 25  1  0  0  0  0
M  END
>  <MODEL>
1

>  <REMARK>
 VINA RESULT:      -9.0      0.000      0.000
  Name = 
  8 active torsions:
  status: ('A' for Active; 'I' for Inactive)
    1  A    between atoms: C_1  and  C_3
    2  A    between atoms: C_3  and  C_8
    3  A    between atoms: C_7  and  N_23
    4  A    between atoms: N_11  and  C_25
    5  A    between atoms: C_18  and  C_30
    6  A    between atoms: N_23  and  C_27
    7  A    between atoms: C_27  and  C_37
    8  A    between atoms: C_28  and  C_30
                            x       y       z     vdW  Elec       q    Type
                         _______ _______ _______ _____ _____    ______ ____

>  <TORSDO>
F 8

$$$$
=
 OpenBabel11052410483D

 37 40  0  0  1  0  0  0  0  0999 V2000
  161.6270  209.3380  152.3540 C   0  0  0  0  0  0  0  0  0  0  0  0
  161.8800  210.3580  153.2780 C   0  0  0  0  0  3  0  0  0  0  0  0
  161.1260  208.0960  152.8120 C   0  0  0  0  0  0  0  0  0  0  0  0
  160.3640  206.7200  154.7310 N   0  0  0  0  0  1  0  0  0  0  0  0
  161.1410  208.9580  155.0560 N   0  0  0  0  0  0  0  0  0  0  0  0
  161.6280  210.1510  154.6310 C   0  0  0  0  0  3  0  0  0  0  0  0
  160.8840  207.9350  154.1990 C   0  0  0  0  0  0  0  0  0  0  0  0
  161.9390  209.5700  150.9220 C   0  0  0  0  0  0  0  0  0  0  0  0
  162.5260  208.6660  150.2670 O   0  0  0  0  0  0  0  0  0  0  0  0
  159.7540  213.9800  150.3600 C   0  0  0  0  0  1  0  0  0  0  0  0
  161.6020  210.8310  150.2330 C   0  0  0  0  0  0  0  0  0  0  0  0
  162.1340  211.2980  148.7000 S   0  0  0  0  0  0  0  0  0  0  0  0
  160.8210  211.7840  150.7940 N   0  0  0  0  0  0  0  0  0  0  0  0
  161.3530  212.7820  148.7730 C   0  0  0  0  0  0  0  0  0  0  0  0
  160.6680  212.8670  149.9860 C   0  0  0  0  0  0  0  0  0  0  0  0
  161.3160  213.7150  147.6880 N   0  0  0  0  0  2  0  0  0  0  0  0
  160.8820  214.2660  145.4730 O   0  0  0  0  0  0  0  0  0  0  0  0
  160.6240  213.5170  146.4500 C   0  0  0  0  0  0  0  0  0  0  0  0
  159.5240  212.5050  146.3190 C   0  0  0  0  0  2  0  0  0  0  0  0
  157.1030  212.5910  145.8190 C   0  0  0  0  0  1  0  0  0  0  0  0
  158.2030  214.4520  146.7940 O   0  0  0  0  0  1  0  0  0  0  0  0
  157.8770  212.5890  148.0500 F   0  0  0  0  0  0  0  0  0  0  0  0
  158.1780  213.0560  146.7820 C   0  0  2  0  0  0  0  0  0  0  0  0
  160.8500  207.0630  151.8500 N   0  0  0  0  0  2  0  0  0  0  0  0
  161.3750  205.7050  151.8620 C   0  0  0  0  0  2  0  0  0  0  0  0
  160.8060  205.0650  145.3000 C   0  0  0  0  0  3  0  0  0  0  0  0
  161.9380  203.1010  148.2060 O   0  0  0  0  0  0  0  0  0  0  0  0
  161.1810  203.9960  146.1160 C   0  0  0  0  0  3  0  0  0  0  0  0
  161.6190  205.8410  149.3730 O   0  0  0  0  0  0  0  0  0  0  0  0
  160.7420  206.3540  145.8260 C   0  0  0  0  0  3  0  0  0  0  0  0
  160.4790  202.6720  150.0720 C   0  0  0  0  0  3  0  0  0  0  0  0
  161.3850  205.5100  148.0200 C   0  0  0  0  0  0  0  0  0  0  0  0
  160.7900  203.8910  150.3930 C   0  0  0  0  0  0  0  0  0  0  0  0
  161.4890  204.2000  147.4680 C   0  0  0  0  0  0  0  0  0  0  0  0
  161.0160  202.1600  148.7700 C   0  0  0  0  0  2  0  0  0  0  0  0
  161.0330  206.5710  147.1740 C   0  0  0  0  0  3  0  0  0  0  0  0
  161.2310  205.1050  150.5080 C   0  0  0  0  0  0  0  0  0  0  0  0
  1  3  2  0  0  0  0
  1  2  1  0  0  0  0
  2  6  2  0  0  0  0
  3  7  1  0  0  0  0
  6  5  1  0  0  0  0
  7  4  1  0  0  0  0
  7  5  2  0  0  0  0
  8  1  1  0  0  0  0
  9  8  2  0  0  0  0
 11 13  2  0  0  0  0
 11  8  1  0  0  0  0
 12 14  1  0  0  0  0
 12 11  1  0  0  0  0
 14 15  2  0  0  0  0
 15 10  1  0  0  0  0
 15 13  1  0  0  0  0
 16 14  1  0  0  0  0
 17 18  2  0  0  0  0
 18 16  1  0  0  0  0
 19 18  1  0  0  0  0
 19 23  1  0  0  0  0
 23 20  1  6  0  0  0
 23 21  1  0  0  0  0
 23 22  1  0  0  0  0
 24 25  1  0  0  0  0
 24  3  1  0  0  0  0
 26 30  2  0  0  0  0
 26 28  1  0  0  0  0
 27 35  1  0  0  0  0
 28 34  2  0  0  0  0
 29 37  1  0  0  0  0
 30 36  1  0  0  0  0
 31 33  2  0  0  0  0
 32 29  1  0  0  0  0
 33 37  2  0  0  0  0
 34 32  1  0  0  0  0
 34 27  1  0  0  0  0
 35 31  1  0  0  0  0
 36 32  2  0  0  0  0
 37 25  1  0  0  0  0
M  END
>  <MODEL>
2

>  <REMARK>
 VINA RESULT:      -8.5      3.604      5.260
  Name = 
  8 active torsions:
  status: ('A' for Active; 'I' for Inactive)
    1  A    between atoms: C_1  and  C_3
    2  A    between atoms: C_3  and  C_8
    3  A    between atoms: C_7  and  N_23
    4  A    between atoms: N_11  and  C_25
    5  A    between atoms: C_18  and  C_30
    6  A    between atoms: N_23  and  C_27
    7  A    between atoms: C_27  and  C_37
    8  A    between atoms: C_28  and  C_30
                            x       y       z     vdW  Elec       q    Type
                         _______ _______ _______ _____ _____    ______ ____

>  <TORSDO>
F 8

$$$$
=
 OpenBabel11052410483D

 37 40  0  0  1  0  0  0  0  0999 V2000
  160.8120  209.0580  154.8910 C   0  0  0  0  0  0  0  0  0  0  0  0
  160.0630  208.8650  156.0570 C   0  0  0  0  0  3  0  0  0  0  0  0
  161.1920  207.9360  154.1170 C   0  0  0  0  0  0  0  0  0  0  0  0
  161.1120  205.4750  153.8100 N   0  0  0  0  0  1  0  0  0  0  0  0
  160.0500  206.5140  155.6850 N   0  0  0  0  0  0  0  0  0  0  0  0
  159.6870  207.5810  156.4400 C   0  0  0  0  0  3  0  0  0  0  0  0
  160.7830  206.6490  154.5470 C   0  0  0  0  0  0  0  0  0  0  0  0
  161.2340  210.4330  154.5250 C   0  0  0  0  0  0  0  0  0  0  0  0
  162.3590  210.8540  154.9070 O   0  0  0  0  0  0  0  0  0  0  0  0
  158.0320  214.1420  153.7960 C   0  0  0  0  0  1  0  0  0  0  0  0
  160.3750  211.3400  153.7380 C   0  0  0  0  0  0  0  0  0  0  0  0
  160.1610  211.3010  152.0630 S   0  0  0  0  0  0  0  0  0  0  0  0
  159.6660  212.3460  154.3000 N   0  0  0  0  0  0  0  0  0  0  0  0
  159.1420  212.6350  152.0630 C   0  0  0  0  0  0  0  0  0  0  0  0
  158.9690  213.0640  153.3790 C   0  0  0  0  0  0  0  0  0  0  0  0
  158.4800  213.1290  150.8940 N   0  0  0  0  0  2  0  0  0  0  0  0
  158.4050  214.4530  148.9870 O   0  0  0  0  0  0  0  0  0  0  0  0
  159.1150  213.8300  149.8190 C   0  0  0  0  0  0  0  0  0  0  0  0
  160.5960  213.7550  149.6000 C   0  0  0  0  0  2  0  0  0  0  0  0
  162.2030  212.1060  148.6960 C   0  0  0  0  0  1  0  0  0  0  0  0
  161.2070  213.7250  147.2780 O   0  0  0  0  0  1  0  0  0  0  0  0
  159.9240  212.0330  148.0840 F   0  0  0  0  0  0  0  0  0  0  0  0
  160.9550  212.9070  148.3820 C   0  0  2  0  0  0  0  0  0  0  0  0
  161.9440  208.1490  152.9090 N   0  0  0  0  0  2  0  0  0  0  0  0
  161.4200  208.6190  151.6350 C   0  0  0  0  0  2  0  0  0  0  0  0
  161.0610  202.6110  148.8830 C   0  0  0  0  0  3  0  0  0  0  0  0
  160.8800  206.1540  147.8800 O   0  0  0  0  0  0  0  0  0  0  0  0
  161.0720  203.7760  148.1130 C   0  0  0  0  0  3  0  0  0  0  0  0
  160.7570  206.3290  150.8680 O   0  0  0  0  0  0  0  0  0  0  0  0
  160.9170  202.6920  150.2660 C   0  0  0  0  0  3  0  0  0  0  0  0
  162.6780  207.6820  148.3560 C   0  0  0  0  0  3  0  0  0  0  0  0
  160.8390  205.1240  150.1360 C   0  0  0  0  0  0  0  0  0  0  0  0
  162.1560  207.6790  149.5450 C   0  0  0  0  0  0  0  0  0  0  0  0
  160.9460  205.0340  148.7170 C   0  0  0  0  0  0  0  0  0  0  0  0
  162.0680  206.7540  147.3510 C   0  0  0  0  0  2  0  0  0  0  0  0
  160.8040  203.9390  150.8830 C   0  0  0  0  0  3  0  0  0  0  0  0
  161.4770  207.5150  150.6380 C   0  0  0  0  0  0  0  0  0  0  0  0
  1  2  1  0  0  0  0
  2  6  2  0  0  0  0
  3  7  1  0  0  0  0
  3  1  2  0  0  0  0
  4  7  1  0  0  0  0
  5  6  1  0  0  0  0
  7  5  2  0  0  0  0
  8  1  1  0  0  0  0
  8  9  2  0  0  0  0
 11 13  2  0  0  0  0
 11  8  1  0  0  0  0
 12 11  1  0  0  0  0
 14 12  1  0  0  0  0
 14 15  2  0  0  0  0
 15 10  1  0  0  0  0
 15 13  1  0  0  0  0
 16 14  1  0  0  0  0
 17 18  2  0  0  0  0
 18 16  1  0  0  0  0
 19 18  1  0  0  0  0
 21 23  1  0  0  0  0
 22 23  1  0  0  0  0
 23 20  1  1  0  0  0
 23 19  1  0  0  0  0
 24  3  1  0  0  0  0
 25 24  1  0  0  0  0
 26 30  1  0  0  0  0
 27 34  1  0  0  0  0
 28 34  1  0  0  0  0
 28 26  2  0  0  0  0
 30 36  2  0  0  0  0
 31 33  2  0  0  0  0
 32 29  1  0  0  0  0
 32 36  1  0  0  0  0
 33 37  2  0  0  0  0
 34 32  2  0  0  0  0
 35 27  1  0  0  0  0
 35 31  1  0  0  0  0
 37 29  1  0  0  0  0
 37 25  1  0  0  0  0
M  END
>  <MODEL>
3

>  <REMARK>
 VINA RESULT:      -8.5      2.905      4.309
  Name = 
  8 active torsions:
  status: ('A' for Active; 'I' for Inactive)
    1  A    between atoms: C_1  and  C_3
    2  A    between atoms: C_3  and  C_8
    3  A    between atoms: C_7  and  N_23
    4  A    between atoms: N_11  and  C_25
    5  A    between atoms: C_18  and  C_30
    6  A    between atoms: N_23  and  C_27
    7  A    between atoms: C_27  and  C_37
    8  A    between atoms: C_28  and  C_30
                            x       y       z     vdW  Elec       q    Type
                         _______ _______ _______ _____ _____    ______ ____

>  <TORSDO>
F 8

$$$$
=
 OpenBabel11052410483D

 37 40  0  0  1  0  0  0  0  0999 V2000
  160.9560  209.0030  153.5340 C   0  0  0  0  0  0  0  0  0  0  0  0
  161.0880  209.0980  154.9240 C   0  0  0  0  0  3  0  0  0  0  0  0
  161.0340  207.7330  152.9150 C   0  0  0  0  0  0  0  0  0  0  0  0
  161.3000  205.2800  153.1840 N   0  0  0  0  0  1  0  0  0  0  0  0
  161.3470  206.7360  155.0810 N   0  0  0  0  0  0  0  0  0  0  0  0
  161.2820  207.9490  155.6850 C   0  0  0  0  0  3  0  0  0  0  0  0
  161.2300  206.5930  153.7340 C   0  0  0  0  0  0  0  0  0  0  0  0
  160.7900  210.2450  152.7400 C   0  0  0  0  0  0  0  0  0  0  0  0
  161.4630  210.3960  151.6850 O   0  0  0  0  0  0  0  0  0  0  0  0
  159.2720  214.1380  155.4020 C   0  0  0  0  0  1  0  0  0  0  0  0
  159.8700  211.3260  153.1480 C   0  0  0  0  0  0  0  0  0  0  0  0
  158.3520  211.6440  152.4790 S   0  0  0  0  0  0  0  0  0  0  0  0
  160.1760  212.2190  154.1180 N   0  0  0  0  0  0  0  0  0  0  0  0
  158.0940  212.9840  153.4550 C   0  0  0  0  0  0  0  0  0  0  0  0
  159.1900  213.1370  154.3040 C   0  0  0  0  0  0  0  0  0  0  0  0
  156.8740  213.7340  153.4680 N   0  0  0  0  0  2  0  0  0  0  0  0
  154.6800  214.0660  154.1540 O   0  0  0  0  0  0  0  0  0  0  0  0
  155.8020  213.5530  154.4000 C   0  0  0  0  0  0  0  0  0  0  0  0
  156.0120  212.8540  155.7100 C   0  0  0  0  0  2  0  0  0  0  0  0
  154.9290  210.8670  156.7100 C   0  0  0  0  0  1  0  0  0  0  0  0
  157.0690  210.6990  155.7020 O   0  0  0  0  0  1  0  0  0  0  0  0
  155.2530  211.0210  154.3760 F   0  0  0  0  0  0  0  0  0  0  0  0
  155.8340  211.3430  155.5910 C   0  0  2  0  0  0  0  0  0  0  0  0
  160.8750  207.6460  151.4880 N   0  0  0  0  0  2  0  0  0  0  0  0
  161.9420  207.5380  150.5030 C   0  0  0  0  0  2  0  0  0  0  0  0
  161.0470  204.0990  144.9210 C   0  0  0  0  0  3  0  0  0  0  0  0
  161.8530  203.4990  148.4670 O   0  0  0  0  0  0  0  0  0  0  0  0
  161.2250  203.4690  146.1550 C   0  0  0  0  0  3  0  0  0  0  0  0
  162.1290  206.4740  148.2440 O   0  0  0  0  0  0  0  0  0  0  0  0
  161.2600  205.4700  144.8010 C   0  0  0  0  0  3  0  0  0  0  0  0
  160.3970  204.2600  150.2270 C   0  0  0  0  0  3  0  0  0  0  0  0
  161.7900  205.6140  147.1750 C   0  0  0  0  0  0  0  0  0  0  0  0
  160.9570  205.4050  149.9810 C   0  0  0  0  0  0  0  0  0  0  0  0
  161.6100  204.2040  147.2840 C   0  0  0  0  0  0  0  0  0  0  0  0
  160.7790  203.1180  149.3360 C   0  0  0  0  0  2  0  0  0  0  0  0
  161.6320  206.2180  145.9200 C   0  0  0  0  0  3  0  0  0  0  0  0
  161.6370  206.4270  149.5610 C   0  0  0  0  0  0  0  0  0  0  0  0
  1  2  1  0  0  0  0
  2  6  2  0  0  0  0
  3  1  2  0  0  0  0
  3  7  1  0  0  0  0
  4  7  1  0  0  0  0
  5  6  1  0  0  0  0
  7  5  2  0  0  0  0
  8 11  1  0  0  0  0
  8  1  1  0  0  0  0
  9  8  2  0  0  0  0
 11 13  2  0  0  0  0
 12 11  1  0  0  0  0
 12 14  1  0  0  0  0
 13 15  1  0  0  0  0
 14 16  1  0  0  0  0
 14 15  2  0  0  0  0
 15 10  1  0  0  0  0
 16 18  1  0  0  0  0
 17 18  2  0  0  0  0
 18 19  1  0  0  0  0
 22 23  1  0  0  0  0
 23 21  1  0  0  0  0
 23 19  1  0  0  0  0
 23 20  1  1  0  0  0
 24  3  1  0  0  0  0
 25 24  1  0  0  0  0
 26 28  1  0  0  0  0
 27 35  1  0  0  0  0
 28 34  2  0  0  0  0
 29 37  1  0  0  0  0
 30 26  2  0  0  0  0
 30 36  1  0  0  0  0
 32 34  1  0  0  0  0
 32 29  1  0  0  0  0
 33 31  2  0  0  0  0
 34 27  1  0  0  0  0
 35 31  1  0  0  0  0
 36 32  2  0  0  0  0
 37 33  2  0  0  0  0
 37 25  1  0  0  0  0
M  END
>  <MODEL>
4

>  <REMARK>
 VINA RESULT:      -8.3      1.688      2.750
  Name = 
  8 active torsions:
  status: ('A' for Active; 'I' for Inactive)
    1  A    between atoms: C_1  and  C_3
    2  A    between atoms: C_3  and  C_8
    3  A    between atoms: C_7  and  N_23
    4  A    between atoms: N_11  and  C_25
    5  A    between atoms: C_18  and  C_30
    6  A    between atoms: N_23  and  C_27
    7  A    between atoms: C_27  and  C_37
    8  A    between atoms: C_28  and  C_30
                            x       y       z     vdW  Elec       q    Type
                         _______ _______ _______ _____ _____    ______ ____

>  <TORSDO>
F 8

$$$$
=
 OpenBabel11052410483D

 37 40  0  0  1  0  0  0  0  0999 V2000
  161.4530  208.8080  151.3230 C   0  0  0  0  0  0  0  0  0  0  0  0
  161.9320  210.0850  151.0120 C   0  0  0  0  0  3  0  0  0  0  0  0
  161.3180  207.8480  150.2920 C   0  0  0  0  0  0  0  0  0  0  0  0
  161.5990  207.2950  147.8890 N   0  0  0  0  0  1  0  0  0  0  0  0
  162.1560  209.4660  148.7240 N   0  0  0  0  0  0  0  0  0  0  0  0
  162.2820  210.3980  149.7020 C   0  0  0  0  0  3  0  0  0  0  0  0
  161.6900  208.2140  148.9750 C   0  0  0  0  0  0  0  0  0  0  0  0
  161.0500  208.5110  152.7190 C   0  0  0  0  0  0  0  0  0  0  0  0
  160.8040  207.3180  153.0480 O   0  0  0  0  0  0  0  0  0  0  0  0
  161.8660  210.7390  157.0680 C   0  0  0  0  0  1  0  0  0  0  0  0
  160.9090  209.5650  153.7430 C   0  0  0  0  0  0  0  0  0  0  0  0
  159.9430  210.9450  153.6220 S   0  0  0  0  0  0  0  0  0  0  0  0
  161.5850  209.5400  154.9150 N   0  0  0  0  0  0  0  0  0  0  0  0
  160.4300  211.5370  155.1150 C   0  0  0  0  0  0  0  0  0  0  0  0
  161.3180  210.6260  155.6880 C   0  0  0  0  0  0  0  0  0  0  0  0
  159.8920  212.7200  155.7150 N   0  0  0  0  0  2  0  0  0  0  0  0
  158.1100  214.0730  156.3380 O   0  0  0  0  0  0  0  0  0  0  0  0
  158.5200  212.9130  156.0780 C   0  0  0  0  0  0  0  0  0  0  0  0
  157.5870  211.7530  156.2590 C   0  0  0  0  0  2  0  0  0  0  0  0
  155.6420  210.5530  155.3120 C   0  0  0  0  0  1  0  0  0  0  0  0
  156.6140  212.3820  154.1570 O   0  0  0  0  0  1  0  0  0  0  0  0
  155.4400  212.7840  156.0590 F   0  0  0  0  0  0  0  0  0  0  0  0
  156.3120  211.9070  155.4350 C   0  0  2  0  0  0  0  0  0  0  0  0
  160.8450  206.5310  150.6280 N   0  0  0  0  0  2  0  0  0  0  0  0
  161.6650  205.3590  150.8990 C   0  0  0  0  0  2  0  0  0  0  0  0
  160.5780  202.0950  145.2470 C   0  0  0  0  0  3  0  0  0  0  0  0
  161.4760  201.3830  148.7510 O   0  0  0  0  0  0  0  0  0  0  0  0
  160.7840  201.4270  146.4570 C   0  0  0  0  0  3  0  0  0  0  0  0
  161.7770  204.3600  148.6060 O   0  0  0  0  0  0  0  0  0  0  0  0
  160.8030  203.4660  145.1610 C   0  0  0  0  0  3  0  0  0  0  0  0
  160.0780  202.1060  150.5720 C   0  0  0  0  0  3  0  0  0  0  0  0
  161.4000  203.5360  147.5230 C   0  0  0  0  0  0  0  0  0  0  0  0
  160.6430  203.2530  150.3440 C   0  0  0  0  0  0  0  0  0  0  0  0
  161.2080  202.1250  147.5960 C   0  0  0  0  0  0  0  0  0  0  0  0
  160.4230  200.9870  149.6380 C   0  0  0  0  0  2  0  0  0  0  0  0
  161.2130  204.1770  146.2910 C   0  0  0  0  0  3  0  0  0  0  0  0
  161.3220  204.2790  149.9350 C   0  0  0  0  0  0  0  0  0  0  0  0
  1  8  1  0  0  0  0
  2  1  1  0  0  0  0
  3 24  1  0  0  0  0
  3  1  2  0  0  0  0
  4  7  1  0  0  0  0
  5  7  2  0  0  0  0
  5  6  1  0  0  0  0
  6  2  2  0  0  0  0
  7  3  1  0  0  0  0
  8  9  2  0  0  0  0
  8 11  1  0  0  0  0
 11 13  2  0  0  0  0
 12 11  1  0  0  0  0
 12 14  1  0  0  0  0
 13 15  1  0  0  0  0
 14 15  2  0  0  0  0
 14 16  1  0  0  0  0
 15 10  1  0  0  0  0
 16 18  1  0  0  0  0
 18 19  1  0  0  0  0
 18 17  2  0  0  0  0
 21 23  1  0  0  0  0
 23 20  1  6  0  0  0
 23 22  1  0  0  0  0
 23 19  1  0  0  0  0
 24 25  1  0  0  0  0
 26 28  1  0  0  0  0
 27 35  1  0  0  0  0
 28 34  2  0  0  0  0
 29 37  1  0  0  0  0
 30 26  2  0  0  0  0
 30 36  1  0  0  0  0
 32 34  1  0  0  0  0
 32 29  1  0  0  0  0
 33 31  2  0  0  0  0
 34 27  1  0  0  0  0
 35 31  1  0  0  0  0
 36 32  2  0  0  0  0
 37 33  2  0  0  0  0
 37 25  1  0  0  0  0
M  END
>  <MODEL>
5

>  <REMARK>
 VINA RESULT:      -8.3      1.880      3.294
  Name = 
  8 active torsions:
  status: ('A' for Active; 'I' for Inactive)
    1  A    between atoms: C_1  and  C_3
    2  A    between atoms: C_3  and  C_8
    3  A    between atoms: C_7  and  N_23
    4  A    between atoms: N_11  and  C_25
    5  A    between atoms: C_18  and  C_30
    6  A    between atoms: N_23  and  C_27
    7  A    between atoms: C_27  and  C_37
    8  A    between atoms: C_28  and  C_30
                            x       y       z     vdW  Elec       q    Type
                         _______ _______ _______ _____ _____    ______ ____

>  <TORSDO>
F 8

$$$$
=
 OpenBabel11052410483D

 37 40  0  0  1  0  0  0  0  0999 V2000
  161.3390  210.5310  153.5120 C   0  0  0  0  0  0  0  0  0  0  0  0
  161.7170  210.1880  154.8140 C   0  0  0  0  0  3  0  0  0  0  0  0
  160.3240  211.4970  153.3160 C   0  0  0  0  0  0  0  0  0  0  0  0
  158.7190  213.0920  154.3370 N   0  0  0  0  0  1  0  0  0  0  0  0
  160.1400  211.7350  155.7010 N   0  0  0  0  0  0  0  0  0  0  0  0
  161.1050  210.8040  155.9020 C   0  0  0  0  0  3  0  0  0  0  0  0
  159.7340  212.0980  154.4550 C   0  0  0  0  0  0  0  0  0  0  0  0
  161.9770  209.8320  152.3690 C   0  0  0  0  0  0  0  0  0  0  0  0
  162.7070  210.4880  151.5770 O   0  0  0  0  0  0  0  0  0  0  0  0
  160.8360  205.1450  153.4980 C   0  0  0  0  0  1  0  0  0  0  0  0
  161.7800  208.3910  152.1130 C   0  0  0  0  0  0  0  0  0  0  0  0
  162.0390  207.5990  150.6440 S   0  0  0  0  0  0  0  0  0  0  0  0
  161.3310  207.5350  153.0610 N   0  0  0  0  0  0  0  0  0  0  0  0
  161.5360  206.1150  151.2440 C   0  0  0  0  0  0  0  0  0  0  0  0
  161.2030  206.2660  152.5900 C   0  0  0  0  0  0  0  0  0  0  0  0
  161.5860  204.8960  150.4940 N   0  0  0  0  0  2  0  0  0  0  0  0
  160.8490  203.5140  148.7780 O   0  0  0  0  0  0  0  0  0  0  0  0
  160.9780  204.6870  149.2140 C   0  0  0  0  0  0  0  0  0  0  0  0
  160.5830  205.8370  148.3360 C   0  0  0  0  0  2  0  0  0  0  0  0
  160.7110  206.2030  145.8940 C   0  0  0  0  0  1  0  0  0  0  0  0
  162.3300  204.8720  147.0020 O   0  0  0  0  0  1  0  0  0  0  0  0
  162.3380  207.1180  147.3390 F   0  0  0  0  0  0  0  0  0  0  0  0
  161.5320  206.0080  147.1530 C   0  0  2  0  0  0  0  0  0  0  0  0
  159.9600  211.8570  151.9710 N   0  0  0  0  0  2  0  0  0  0  0  0
  160.0960  213.1710  151.3590 C   0  0  0  0  0  2  0  0  0  0  0  0
  158.2050  212.6300  145.0410 C   0  0  0  0  0  3  0  0  0  0  0  0
  161.1370  213.7210  146.9920 O   0  0  0  0  0  0  0  0  0  0  0  0
  159.5090  212.9880  145.3930 C   0  0  0  0  0  3  0  0  0  0  0  0
  159.0350  213.4300  149.1060 O   0  0  0  0  0  0  0  0  0  0  0  0
  157.2100  212.5800  146.0140 C   0  0  0  0  0  3  0  0  0  0  0  0
  162.2170  212.2460  148.5570 C   0  0  0  0  0  3  0  0  0  0  0  0
  158.8270  213.2000  147.7280 C   0  0  0  0  0  0  0  0  0  0  0  0
  161.2140  212.5710  149.3140 C   0  0  0  0  0  0  0  0  0  0  0  0
  159.8340  213.2900  146.7220 C   0  0  0  0  0  0  0  0  0  0  0  0
  162.2070  212.7850  147.1590 C   0  0  0  0  0  2  0  0  0  0  0  0
  157.5210  212.8650  147.3450 C   0  0  0  0  0  3  0  0  0  0  0  0
  160.1390  213.0270  149.8790 C   0  0  0  0  0  0  0  0  0  0  0  0
  1  2  1  0  0  0  0
  2  6  2  0  0  0  0
  3  1  2  0  0  0  0
  3  7  1  0  0  0  0
  4  7  1  0  0  0  0
  5  6  1  0  0  0  0
  7  5  2  0  0  0  0
  8  1  1  0  0  0  0
  9  8  2  0  0  0  0
 11  8  1  0  0  0  0
 11 13  2  0  0  0  0
 12 14  1  0  0  0  0
 12 11  1  0  0  0  0
 14 15  2  0  0  0  0
 15 13  1  0  0  0  0
 15 10  1  0  0  0  0
 16 14  1  0  0  0  0
 17 18  2  0  0  0  0
 18 16  1  0  0  0  0
 19 18  1  0  0  0  0
 21 23  1  0  0  0  0
 23 20  1  6  0  0  0
 23 22  1  0  0  0  0
 23 19  1  0  0  0  0
 24  3  1  0  0  0  0
 25 24  1  0  0  0  0
 26 28  2  0  0  0  0
 26 30  1  0  0  0  0
 27 35  1  0  0  0  0
 28 34  1  0  0  0  0
 29 37  1  0  0  0  0
 30 36  2  0  0  0  0
 31 33  2  0  0  0  0
 32 29  1  0  0  0  0
 33 37  2  0  0  0  0
 34 27  1  0  0  0  0
 34 32  2  0  0  0  0
 35 31  1  0  0  0  0
 36 32  1  0  0  0  0
 37 25  1  0  0  0  0
M  END
>  <MODEL>
6

>  <REMARK>
 VINA RESULT:      -8.1      3.920      8.754
  Name = 
  8 active torsions:
  status: ('A' for Active; 'I' for Inactive)
    1  A    between atoms: C_1  and  C_3
    2  A    between atoms: C_3  and  C_8
    3  A    between atoms: C_7  and  N_23
    4  A    between atoms: N_11  and  C_25
    5  A    between atoms: C_18  and  C_30
    6  A    between atoms: N_23  and  C_27
    7  A    between atoms: C_27  and  C_37
    8  A    between atoms: C_28  and  C_30
                            x       y       z     vdW  Elec       q    Type
                         _______ _______ _______ _____ _____    ______ ____

>  <TORSDO>
F 8

$$$$
=
 OpenBabel11052410483D

 37 40  0  0  1  0  0  0  0  0999 V2000
  161.2250  210.7530  153.0380 C   0  0  0  0  0  0  0  0  0  0  0  0
  161.7140  210.3510  154.2860 C   0  0  0  0  0  3  0  0  0  0  0  0
  160.2530  211.7790  152.9720 C   0  0  0  0  0  0  0  0  0  0  0  0
  158.8550  213.4280  154.1920 N   0  0  0  0  0  1  0  0  0  0  0  0
  160.3280  211.9550  155.3690 N   0  0  0  0  0  0  0  0  0  0  0  0
  161.2540  210.9670  155.4460 C   0  0  0  0  0  3  0  0  0  0  0  0
  159.8180  212.3770  154.1810 C   0  0  0  0  0  0  0  0  0  0  0  0
  161.7010  210.0540  151.8190 C   0  0  0  0  0  0  0  0  0  0  0  0
  162.1690  210.7330  150.8640 O   0  0  0  0  0  0  0  0  0  0  0  0
  161.1180  205.3720  153.3290 C   0  0  0  0  0  1  0  0  0  0  0  0
  161.6360  208.5870  151.6720 C   0  0  0  0  0  0  0  0  0  0  0  0
  161.8830  207.7190  150.2440 S   0  0  0  0  0  0  0  0  0  0  0  0
  161.3380  207.7610  152.7020 N   0  0  0  0  0  0  0  0  0  0  0  0
  161.5730  206.2400  150.9730 C   0  0  0  0  0  0  0  0  0  0  0  0
  161.3110  206.4550  152.3260 C   0  0  0  0  0  0  0  0  0  0  0  0
  161.7010  204.9810  150.3020 N   0  0  0  0  0  2  0  0  0  0  0  0
  161.0300  203.4330  148.7060 O   0  0  0  0  0  0  0  0  0  0  0  0
  161.0750  204.6390  149.0600 C   0  0  0  0  0  0  0  0  0  0  0  0
  160.5650  205.6930  148.1230 C   0  0  0  0  0  2  0  0  0  0  0  0
  160.5630  206.1840  145.6990 C   0  0  0  0  0  1  0  0  0  0  0  0
  162.1010  204.6290  146.6160 O   0  0  0  0  0  1  0  0  0  0  0  0
  162.3750  206.8390  147.0630 F   0  0  0  0  0  0  0  0  0  0  0  0
  161.4420  205.8320  146.8820 C   0  0  2  0  0  0  0  0  0  0  0  0
  159.7730  212.1980  151.6820 N   0  0  0  0  0  2  0  0  0  0  0  0
  159.8670  213.5360  151.1160 C   0  0  0  0  0  2  0  0  0  0  0  0
  161.4400  213.1040  144.7030 C   0  0  0  0  0  3  0  0  0  0  0  0
  158.6060  212.3520  146.9360 O   0  0  0  0  0  0  0  0  0  0  0  0
  160.1550  212.8190  145.1680 C   0  0  0  0  0  3  0  0  0  0  0  0
  160.8120  212.9300  148.8780 O   0  0  0  0  0  0  0  0  0  0  0  0
  162.4840  213.2870  145.6080 C   0  0  0  0  0  3  0  0  0  0  0  0
  157.6120  214.0570  148.3140 C   0  0  0  0  0  3  0  0  0  0  0  0
  160.9520  212.9490  147.4730 C   0  0  0  0  0  0  0  0  0  0  0  0
  158.6500  213.8370  149.0620 C   0  0  0  0  0  0  0  0  0  0  0  0
  159.8960  212.7220  146.5420 C   0  0  0  0  0  0  0  0  0  0  0  0
  157.5490  213.3160  147.0130 C   0  0  0  0  0  2  0  0  0  0  0  0
  162.2380  213.2070  146.9800 C   0  0  0  0  0  3  0  0  0  0  0  0
  159.7500  213.4580  149.6340 C   0  0  0  0  0  0  0  0  0  0  0  0
  1  2  1  0  0  0  0
  2  6  2  0  0  0  0
  3  1  2  0  0  0  0
  3  7  1  0  0  0  0
  5  6  1  0  0  0  0
  7  4  1  0  0  0  0
  7  5  2  0  0  0  0
  8  1  1  0  0  0  0
  9  8  2  0  0  0  0
 11  8  1  0  0  0  0
 11 13  2  0  0  0  0
 12 14  1  0  0  0  0
 12 11  1  0  0  0  0
 14 15  2  0  0  0  0
 15 13  1  0  0  0  0
 15 10  1  0  0  0  0
 16 14  1  0  0  0  0
 17 18  2  0  0  0  0
 18 16  1  0  0  0  0
 19 18  1  0  0  0  0
 21 23  1  0  0  0  0
 23 20  1  6  0  0  0
 23 22  1  0  0  0  0
 23 19  1  0  0  0  0
 24  3  1  0  0  0  0
 25 24  1  0  0  0  0
 26 28  2  0  0  0  0
 26 30  1  0  0  0  0
 27 35  1  0  0  0  0
 28 34  1  0  0  0  0
 29 37  1  0  0  0  0
 30 36  2  0  0  0  0
 31 33  2  0  0  0  0
 32 29  1  0  0  0  0
 33 37  2  0  0  0  0
 34 27  1  0  0  0  0
 34 32  2  0  0  0  0
 35 31  1  0  0  0  0
 36 32  1  0  0  0  0
 37 25  1  0  0  0  0
M  END
>  <MODEL>
7

>  <REMARK>
 VINA RESULT:      -8.0      4.053      8.942
  Name = 
  8 active torsions:
  status: ('A' for Active; 'I' for Inactive)
    1  A    between atoms: C_1  and  C_3
    2  A    between atoms: C_3  and  C_8
    3  A    between atoms: C_7  and  N_23
    4  A    between atoms: N_11  and  C_25
    5  A    between atoms: C_18  and  C_30
    6  A    between atoms: N_23  and  C_27
    7  A    between atoms: C_27  and  C_37
    8  A    between atoms: C_28  and  C_30
                            x       y       z     vdW  Elec       q    Type
                         _______ _______ _______ _____ _____    ______ ____

>  <TORSDO>
F 8

$$$$
=
 OpenBabel11052410483D

 37 40  0  0  1  0  0  0  0  0999 V2000
  161.3670  212.9080  148.9570 C   0  0  0  0  0  0  0  0  0  0  0  0
  160.6870  214.1200  149.1100 C   0  0  0  0  0  3  0  0  0  0  0  0
  161.2660  211.9230  149.9690 C   0  0  0  0  0  0  0  0  0  0  0  0
  160.2960  211.2500  152.1520 N   0  0  0  0  0  1  0  0  0  0  0  0
  159.8140  213.3910  151.2010 N   0  0  0  0  0  0  0  0  0  0  0  0
  159.9100  214.3460  150.2420 C   0  0  0  0  0  3  0  0  0  0  0  0
  160.4610  212.1990  151.1020 C   0  0  0  0  0  0  0  0  0  0  0  0
  162.2200  212.7060  147.7600 C   0  0  0  0  0  0  0  0  0  0  0  0
  163.4020  212.2930  147.9090 O   0  0  0  0  0  0  0  0  0  0  0  0
  162.4960  214.4530  143.1320 C   0  0  0  0  0  1  0  0  0  0  0  0
  161.7410  212.9860  146.3920 C   0  0  0  0  0  0  0  0  0  0  0  0
  160.2190  212.5950  145.7730 S   0  0  0  0  0  0  0  0  0  0  0  0
  162.5120  213.5850  145.4550 N   0  0  0  0  0  0  0  0  0  0  0  0
  160.5760  213.1960  144.2470 C   0  0  0  0  0  0  0  0  0  0  0  0
  161.8700  213.7160  144.2640 C   0  0  0  0  0  0  0  0  0  0  0  0
  159.6270  213.2620  143.1770 N   0  0  0  0  0  2  0  0  0  0  0  0
  159.0130  212.9370  140.9600 O   0  0  0  0  0  0  0  0  0  0  0  0
  159.7550  212.5940  141.9160 C   0  0  0  0  0  0  0  0  0  0  0  0
  160.6790  211.4260  141.7380 C   0  0  0  0  0  2  0  0  0  0  0  0
  162.5020  210.3900  140.4270 C   0  0  0  0  0  1  0  0  0  0  0  0
  162.2680  212.7480  140.5190 O   0  0  0  0  0  1  0  0  0  0  0  0
  160.7420  211.5380  139.3510 F   0  0  0  0  0  0  0  0  0  0  0  0
  161.5380  211.5580  140.4840 C   0  0  2  0  0  0  0  0  0  0  0  0
  161.9530  210.6720  149.7900 N   0  0  0  0  0  2  0  0  0  0  0  0
  162.2880  209.7120  150.8310 C   0  0  0  0  0  2  0  0  0  0  0  0
  160.8910  203.2440  150.7830 C   0  0  0  0  0  3  0  0  0  0  0  0
  160.4660  206.2050  148.6290 O   0  0  0  0  0  0  0  0  0  0  0  0
  160.6700  204.0550  149.6670 C   0  0  0  0  0  3  0  0  0  0  0  0
  161.3540  207.4210  151.2190 O   0  0  0  0  0  0  0  0  0  0  0  0
  161.2200  203.8190  152.0080 C   0  0  0  0  0  3  0  0  0  0  0  0
  162.3540  207.5240  147.9300 C   0  0  0  0  0  3  0  0  0  0  0  0
  161.1590  206.0390  151.0040 C   0  0  0  0  0  0  0  0  0  0  0  0
  162.2610  208.0090  149.1300 C   0  0  0  0  0  0  0  0  0  0  0  0
  160.7830  205.4480  149.7620 C   0  0  0  0  0  0  0  0  0  0  0  0
  161.4220  206.4040  147.5810 C   0  0  0  0  0  2  0  0  0  0  0  0
  161.3490  205.2050  152.1150 C   0  0  0  0  0  3  0  0  0  0  0  0
  161.9830  208.3350  150.3540 C   0  0  0  0  0  0  0  0  0  0  0  0
  1  2  2  0  0  0  0
  1  3  1  0  0  0  0
  2  6  1  0  0  0  0
  3  7  2  0  0  0  0
  6  5  2  0  0  0  0
  7  5  1  0  0  0  0
  7  4  1  0  0  0  0
  8  9  2  0  0  0  0
  8  1  1  0  0  0  0
 10 15  1  0  0  0  0
 11  8  1  0  0  0  0
 12 11  1  0  0  0  0
 13 11  2  0  0  0  0
 14 15  2  0  0  0  0
 14 12  1  0  0  0  0
 15 13  1  0  0  0  0
 16 14  1  0  0  0  0
 17 18  2  0  0  0  0
 18 16  1  0  0  0  0
 19 18  1  0  0  0  0
 22 23  1  0  0  0  0
 23 20  1  6  0  0  0
 23 21  1  0  0  0  0
 23 19  1  0  0  0  0
 24  3  1  0  0  0  0
 24 25  1  0  0  0  0
 26 30  1  0  0  0  0
 27 34  1  0  0  0  0
 28 34  1  0  0  0  0
 28 26  2  0  0  0  0
 30 36  2  0  0  0  0
 31 33  2  0  0  0  0
 32 29  1  0  0  0  0
 32 36  1  0  0  0  0
 33 37  2  0  0  0  0
 34 32  2  0  0  0  0
 35 31  1  0  0  0  0
 35 27  1  0  0  0  0
 37 25  1  0  0  0  0
 37 29  1  0  0  0  0
M  END
>  <MODEL>
8

>  <REMARK>
 VINA RESULT:      -7.9      6.219      8.805
  Name = 
  8 active torsions:
  status: ('A' for Active; 'I' for Inactive)
    1  A    between atoms: C_1  and  C_3
    2  A    between atoms: C_3  and  C_8
    3  A    between atoms: C_7  and  N_23
    4  A    between atoms: N_11  and  C_25
    5  A    between atoms: C_18  and  C_30
    6  A    between atoms: N_23  and  C_27
    7  A    between atoms: C_27  and  C_37
    8  A    between atoms: C_28  and  C_30
                            x       y       z     vdW  Elec       q    Type
                         _______ _______ _______ _____ _____    ______ ____

>  <TORSDO>
F 8

$$$$
=
 OpenBabel11052410483D

 37 40  0  0  1  0  0  0  0  0999 V2000
  161.6230  207.4730  151.5970 C   0  0  0  0  0  0  0  0  0  0  0  0
  162.1240  206.2530  152.0610 C   0  0  0  0  0  3  0  0  0  0  0  0
  160.9440  208.3310  152.4940 C   0  0  0  0  0  0  0  0  0  0  0  0
  160.1530  208.7440  154.8100 N   0  0  0  0  0  1  0  0  0  0  0  0
  161.3170  206.7310  154.2490 N   0  0  0  0  0  0  0  0  0  0  0  0
  161.9630  205.8970  153.3970 C   0  0  0  0  0  3  0  0  0  0  0  0
  160.8080  207.9250  153.8450 C   0  0  0  0  0  0  0  0  0  0  0  0
  161.7730  207.8130  150.1600 C   0  0  0  0  0  0  0  0  0  0  0  0
  161.9920  209.0100  149.8300 O   0  0  0  0  0  0  0  0  0  0  0  0
  162.5830  205.8300  145.6930 C   0  0  0  0  0  1  0  0  0  0  0  0
  161.6600  206.8000  149.0920 C   0  0  0  0  0  0  0  0  0  0  0  0
  160.7730  205.3650  149.1740 S   0  0  0  0  0  0  0  0  0  0  0  0
  162.3000  206.9140  147.9060 N   0  0  0  0  0  0  0  0  0  0  0  0
  161.2480  204.8690  147.6430 C   0  0  0  0  0  0  0  0  0  0  0  0
  162.0690  205.8510  147.0900 C   0  0  0  0  0  0  0  0  0  0  0  0
  160.7570  203.6860  147.0030 N   0  0  0  0  0  2  0  0  0  0  0  0
  160.8380  201.4040  146.5750 O   0  0  0  0  0  0  0  0  0  0  0  0
  161.1040  202.3440  147.3670 C   0  0  0  0  0  0  0  0  0  0  0  0
  161.6820  202.0210  148.7120 C   0  0  0  0  0  2  0  0  0  0  0  0
  160.8310  202.4500  150.9940 C   0  0  0  0  0  1  0  0  0  0  0  0
  160.6710  200.2890  150.0310 O   0  0  0  0  0  1  0  0  0  0  0  0
  159.3490  201.9500  149.2260 F   0  0  0  0  0  0  0  0  0  0  0  0
  160.6040  201.6500  149.7270 C   0  0  2  0  0  0  0  0  0  0  0  0
  160.4530  209.5940  152.0090 N   0  0  0  0  0  2  0  0  0  0  0  0
  160.8780  210.9150  152.4480 C   0  0  0  0  0  2  0  0  0  0  0  0
  155.6570  213.2530  155.7750 C   0  0  0  0  0  3  0  0  0  0  0  0
  158.0810  214.3810  153.2370 O   0  0  0  0  0  0  0  0  0  0  0  0
  156.2670  213.9820  154.7510 C   0  0  0  0  0  3  0  0  0  0  0  0
  159.2830  211.7990  154.1640 O   0  0  0  0  0  0  0  0  0  0  0  0
  156.2630  212.0990  156.2640 C   0  0  0  0  0  3  0  0  0  0  0  0
  158.3600  213.1970  151.1600 C   0  0  0  0  0  3  0  0  0  0  0  0
  158.0870  212.3570  154.6680 C   0  0  0  0  0  0  0  0  0  0  0  0
  159.0530  212.3850  151.8980 C   0  0  0  0  0  0  0  0  0  0  0  0
  157.4840  213.5610  154.1990 C   0  0  0  0  0  0  0  0  0  0  0  0
  157.6750  214.3290  151.8640 C   0  0  0  0  0  2  0  0  0  0  0  0
  157.4690  211.6590  155.7150 C   0  0  0  0  0  3  0  0  0  0  0  0
  159.6840  211.7230  152.8180 C   0  0  0  0  0  0  0  0  0  0  0  0
  1  2  2  0  0  0  0
  1  3  1  0  0  0  0
  2  6  1  0  0  0  0
  3  7  2  0  0  0  0
  6  5  2  0  0  0  0
  7  5  1  0  0  0  0
  7  4  1  0  0  0  0
  8  1  1  0  0  0  0
  9  8  2  0  0  0  0
 10 15  1  0  0  0  0
 11 12  1  0  0  0  0
 11  8  1  0  0  0  0
 13 11  2  0  0  0  0
 14 12  1  0  0  0  0
 15 14  2  0  0  0  0
 15 13  1  0  0  0  0
 16 18  1  0  0  0  0
 16 14  1  0  0  0  0
 17 18  2  0  0  0  0
 18 19  1  0  0  0  0
 19 23  1  0  0  0  0
 22 23  1  0  0  0  0
 23 21  1  0  0  0  0
 23 20  1  1  0  0  0
 24 25  1  0  0  0  0
 24  3  1  0  0  0  0
 25 37  1  0  0  0  0
 26 30  1  0  0  0  0
 27 34  1  0  0  0  0
 28 26  2  0  0  0  0
 29 32  1  0  0  0  0
 31 35  1  0  0  0  0
 31 33  2  0  0  0  0
 32 36  1  0  0  0  0
 33 37  2  0  0  0  0
 34 32  2  0  0  0  0
 34 28  1  0  0  0  0
 35 27  1  0  0  0  0
 36 30  2  0  0  0  0
 37 29  1  0  0  0  0
M  END
>  <MODEL>
9

>  <REMARK>
 VINA RESULT:      -7.8      3.125     10.038
  Name = 
  8 active torsions:
  status: ('A' for Active; 'I' for Inactive)
    1  A    between atoms: C_1  and  C_3
    2  A    between atoms: C_3  and  C_8
    3  A    between atoms: C_7  and  N_23
    4  A    between atoms: N_11  and  C_25
    5  A    between atoms: C_18  and  C_30
    6  A    between atoms: N_23  and  C_27
    7  A    between atoms: C_27  and  C_37
    8  A    between atoms: C_28  and  C_30
                            x       y       z     vdW  Elec       q    Type
                         _______ _______ _______ _____ _____    ______ ____

>  <TORSDO>
F 8

$$$$
