=
 OpenBabel11042421423D

 47 53  0  0  1  0  0  0  0  0999 V2000
  162.4710  211.4680  148.3470 C   0  0  1  0  0  3  0  0  0  0  0  0
  161.8770  211.2560  149.6690 C   0  0  2  0  0  0  0  0  0  0  0  0
  161.5360  210.3410  148.5580 N   0  0  0  0  0  0  0  0  0  0  0  0
  161.7590  212.7120  147.7930 C   0  0  2  0  0  3  0  0  0  0  0  0
  160.9410  212.3920  149.8680 C   0  0  0  0  0  0  0  0  0  0  0  0
  162.9280  210.8730  150.7090 C   0  0  0  0  0  1  0  0  0  0  0  0
  160.8700  213.1690  148.8450 N   0  0  0  0  0  0  0  0  0  0  0  0
  158.5040  212.9740  153.3060 C   0  0  0  0  0  3  0  0  0  0  0  0
  159.9580  211.5610  152.0080 C   0  0  0  0  0  3  0  0  0  0  0  0
  160.0960  212.5840  151.0610 C   0  0  0  0  0  0  0  0  0  0  0  0
  159.1590  211.7460  153.1380 C   0  0  0  0  0  0  0  0  0  0  0  0
  159.4200  213.7900  151.2750 C   0  0  0  0  0  3  0  0  0  0  0  0
  158.6480  213.9590  152.3810 N   0  0  0  0  0  0  0  0  0  0  0  0
  159.0350  210.7000  154.0620 O   0  0  0  0  0  0  0  0  0  0  0  0
  160.1410  210.0350  154.6680 C   0  0  0  0  0  0  0  0  0  0  0  0
  161.1230  210.9520  154.9970 F   0  0  0  0  0  0  0  0  0  0  0  0
  160.6570  209.0860  153.8010 F   0  0  0  0  0  0  0  0  0  0  0  0
  159.7120  209.4040  155.8210 F   0  0  0  0  0  0  0  0  0  0  0  0
  162.3210  209.1830  148.6420 N   0  0  0  0  0  2  0  0  0  0  0  0
  161.4570  208.0880  148.4590 N   0  0  0  0  0  2  0  0  0  0  0  0
  161.1770  206.7820  151.4170 C   0  0  2  0  0  3  0  0  0  0  0  0
  162.3310  207.4840  150.7090 C   0  0  0  0  0  2  0  0  0  0  0  0
  161.7850  205.6730  152.2900 C   0  0  0  0  0  2  0  0  0  0  0  0
  160.6170  206.3640  150.0420 C   0  0  1  0  0  3  0  0  0  0  0  0
  161.1970  204.2970  152.0290 C   0  0  0  0  0  2  0  0  0  0  0  0
  161.8240  206.9860  149.3590 C   0  0  1  0  0  3  0  0  0  0  0  0
  160.4600  204.8630  149.7530 C   0  0  0  0  0  2  0  0  0  0  0  0
  161.3840  203.9730  150.5620 C   0  0  0  0  0  2  0  0  0  0  0  0
  160.9780  212.3940  146.5250 C   0  0  0  0  0  2  0  0  0  0  0  0
  160.7210  213.9830  144.6520 C   0  0  0  0  0  2  0  0  0  0  0  0
  160.9110  212.5990  144.0680 C   0  0  2  0  0  3  0  0  0  0  0  0
  161.6640  213.0080  145.3230 C   0  0  2  0  0  3  0  0  0  0  0  0
  161.5900  211.8200  141.7540 N   0  0  0  0  0  2  0  0  0  0  0  0
  161.8390  212.6410  142.8990 C   0  0  0  0  0  0  0  0  0  0  0  0
  162.8580  213.3810  142.9410 O   0  0  0  0  0  0  0  0  0  0  0  0
  158.3160  210.4720  137.9300 C   0  0  0  0  0  2  0  0  0  0  0  0
  162.6520  210.3340  140.0340 C   0  0  0  0  0  2  0  0  0  0  0  0
  162.5210  211.7500  140.6330 C   0  0  1  0  0  3  0  0  0  0  0  0
  161.9660  207.5120  138.7980 O   0  0  0  0  0  1  0  0  0  0  0  0
  160.1390  211.8040  138.8260 C   0  0  0  0  0  3  0  0  0  0  0  0
  161.4380  209.4410  140.3030 C   0  0  0  0  0  2  0  0  0  0  0  0
  161.1350  208.5760  139.1250 C   0  0  0  0  0  0  0  0  0  0  0  0
  162.2160  212.8180  139.6090 C   0  0  0  0  0  3  0  0  0  0  0  0
  159.0280  209.1660  137.6940 C   0  0  0  0  0  3  0  0  0  0  0  0
  161.1560  212.8460  138.7970 C   0  0  0  0  0  3  0  0  0  0  0  0
  159.2550  211.6390  137.8550 C   0  0  0  0  0  3  0  0  0  0  0  0
  160.0760  208.8300  138.4050 C   0  0  0  0  0  0  0  0  0  0  0  0
  1  3  1  6  0  0  0
  1  2  1  0  0  0  0
  2  5  1  0  0  0  0
  2  6  1  1  0  0  0
  3 19  1  0  0  0  0
  3  2  1  0  0  0  0
  4 29  1  6  0  0  0
  4  1  1  0  0  0  0
  4  7  1  0  0  0  0
  5 10  1  0  0  0  0
  7  5  2  0  0  0  0
  9 11  2  0  0  0  0
 10 12  2  0  0  0  0
 10  9  1  0  0  0  0
 11  8  1  0  0  0  0
 11 14  1  0  0  0  0
 12 13  1  0  0  0  0
 13  8  2  0  0  0  0
 14 15  1  0  0  0  0
 15 16  1  0  0  0  0
 15 18  1  0  0  0  0
 17 15  1  0  0  0  0
 20 19  1  0  0  0  0
 21 22  1  6  0  0  0
 21 23  1  0  0  0  0
 24 27  1  1  0  0  0
 24 21  1  0  0  0  0
 25 23  1  0  0  0  0
 26 20  1  6  0  0  0
 26 24  1  0  0  0  0
 26 22  1  0  0  0  0
 27 28  1  0  0  0  0
 28 25  1  0  0  0  0
 30 32  1  0  0  0  0
 31 34  1  6  0  0  0
 31 30  1  0  0  0  0
 31 32  1  0  0  0  0
 32 29  1  1  0  0  0
 33 34  1  0  0  0  0
 34 35  2  0  0  0  0
 37 41  1  0  0  0  0
 37 38  1  0  0  0  0
 38 33  1  1  0  0  0
 39 42  1  0  0  0  0
 42 41  1  0  0  0  0
 43 38  1  0  0  0  0
 44 36  1  0  0  0  0
 44 47  2  0  0  0  0
 45 40  1  0  0  0  0
 45 43  2  0  0  0  0
 46 36  1  0  0  0  0
 46 40  2  0  0  0  0
 47 42  2  0  0  0  0
M  END
>  <MODEL>
1

>  <REMARK>
 VINA RESULT:      -7.5      0.000      0.000
  Name = 
  10 active torsions:
  status: ('A' for Active; 'I' for Inactive)
    1  A    between atoms: N_3  and  C_5
    2  A    between atoms: C_6  and  C_38
    3  A    between atoms: C_12  and  O_18
    4  A    between atoms: N_16  and  N_24
    5  A    between atoms: N_16  and  N_32
    6  A    between atoms: O_18  and  C_41
    7  A    between atoms: C_21  and  C_26
    8  A    between atoms: C_21  and  C_45
    9  A    between atoms: C_27  and  N_32
   10  A    between atoms: C_29  and  C_39
                            x       y       z     vdW  Elec       q    Type
                         _______ _______ _______ _____ _____    ______ ____

>  <TORSDO>
F 10

$$$$
=
 OpenBabel11042421423D

 47 53  0  0  1  0  0  0  0  0999 V2000
  162.6660  207.4610  150.2860 C   0  0  1  0  0  3  0  0  0  0  0  0
  162.4010  207.3990  148.8470 C   0  0  2  0  0  0  0  0  0  0  0  0
  161.6760  208.3810  149.6830 N   0  0  0  0  0  0  0  0  0  0  0  0
  162.0050  206.1990  150.8600 C   0  0  2  0  0  3  0  0  0  0  0  0
  161.6990  206.1070  148.6290 C   0  0  0  0  0  0  0  0  0  0  0  0
  163.6200  207.8130  148.0260 C   0  0  0  0  0  1  0  0  0  0  0  0
  161.4750  205.4680  149.7240 N   0  0  0  0  0  0  0  0  0  0  0  0
  160.2760  204.7380  144.8620 C   0  0  0  0  0  3  0  0  0  0  0  0
  161.4570  204.3090  146.9150 C   0  0  0  0  0  3  0  0  0  0  0  0
  161.2130  205.6250  147.3240 C   0  0  0  0  0  0  0  0  0  0  0  0
  160.9940  203.8540  145.6790 C   0  0  0  0  0  0  0  0  0  0  0  0
  160.4930  206.4690  146.4710 C   0  0  0  0  0  3  0  0  0  0  0  0
  160.0440  206.0130  145.2720 N   0  0  0  0  0  0  0  0  0  0  0  0
  161.2630  202.5330  145.2950 O   0  0  0  0  0  0  0  0  0  0  0  0
  160.4400  201.4200  145.6350 C   0  0  0  0  0  0  0  0  0  0  0  0
  161.2250  200.3600  146.0520 F   0  0  0  0  0  0  0  0  0  0  0  0
  159.6810  201.0390  144.5410 F   0  0  0  0  0  0  0  0  0  0  0  0
  159.5920  201.7830  146.6650 F   0  0  0  0  0  0  0  0  0  0  0  0
  162.3000  209.6330  149.5900 N   0  0  0  0  0  2  0  0  0  0  0  0
  161.3930  210.5800  150.0980 N   0  0  0  0  0  2  0  0  0  0  0  0
  162.1420  212.1030  147.3320 C   0  0  2  0  0  3  0  0  0  0  0  0
  162.8760  211.9690  148.6620 C   0  0  0  0  0  2  0  0  0  0  0  0
  162.4340  213.5120  146.7910 C   0  0  0  0  0  2  0  0  0  0  0  0
  160.8060  211.9000  148.0740 C   0  0  1  0  0  3  0  0  0  0  0  0
  161.1850  214.3120  146.4630 C   0  0  0  0  0  2  0  0  0  0  0  0
  161.5460  211.8650  149.4020 C   0  0  1  0  0  3  0  0  0  0  0  0
  159.7570  213.0200  147.9920 C   0  0  0  0  0  2  0  0  0  0  0  0
  160.3340  214.3950  147.7130 C   0  0  0  0  0  2  0  0  0  0  0  0
  160.8960  206.5440  151.8450 C   0  0  0  0  0  2  0  0  0  0  0  0
  161.5990  206.3400  154.2040 C   0  0  0  0  0  2  0  0  0  0  0  0
  160.4340  207.3040  154.1460 C   0  0  2  0  0  3  0  0  0  0  0  0
  161.4680  207.2900  153.0330 C   0  0  2  0  0  3  0  0  0  0  0  0
  159.9420  209.6930  154.8340 N   0  0  0  0  0  2  0  0  0  0  0  0
  160.6770  208.4820  155.0320 C   0  0  0  0  0  0  0  0  0  0  0  0
  161.5540  208.4100  155.9320 O   0  0  0  0  0  0  0  0  0  0  0  0
  155.2850  212.0190  154.5790 C   0  0  0  0  0  2  0  0  0  0  0  0
  160.0990  212.1960  154.7750 C   0  0  0  0  0  2  0  0  0  0  0  0
  160.2160  210.9010  155.6050 C   0  0  1  0  0  3  0  0  0  0  0  0
  159.0170  214.4530  152.8520 O   0  0  0  0  0  1  0  0  0  0  0  0
  157.2570  211.2900  155.7950 C   0  0  0  0  0  3  0  0  0  0  0  0
  159.2040  212.0540  153.5410 C   0  0  0  0  0  2  0  0  0  0  0  0
  158.4050  213.2930  153.3100 C   0  0  0  0  0  0  0  0  0  0  0  0
  159.4110  210.9220  156.8830 C   0  0  0  0  0  3  0  0  0  0  0  0
  155.8470  213.2050  153.8420 C   0  0  0  0  0  3  0  0  0  0  0  0
  158.0910  211.0980  156.9740 C   0  0  0  0  0  3  0  0  0  0  0  0
  156.0220  211.7590  155.8590 C   0  0  0  0  0  3  0  0  0  0  0  0
  157.1200  213.2740  153.5430 C   0  0  0  0  0  0  0  0  0  0  0  0
  1  3  1  1  0  0  0
  1  4  1  0  0  0  0
  2  6  1  6  0  0  0
  2  3  1  0  0  0  0
  2  1  1  0  0  0  0
  4 29  1  1  0  0  0
  5  2  1  0  0  0  0
  5  7  2  0  0  0  0
  7  4  1  0  0  0  0
  8 13  2  0  0  0  0
  8 11  1  0  0  0  0
  9 10  1  0  0  0  0
 10  5  1  0  0  0  0
 11  9  2  0  0  0  0
 12 10  2  0  0  0  0
 13 12  1  0  0  0  0
 14 15  1  0  0  0  0
 14 11  1  0  0  0  0
 15 16  1  0  0  0  0
 15 18  1  0  0  0  0
 17 15  1  0  0  0  0
 19  3  1  0  0  0  0
 19 20  1  0  0  0  0
 21 23  1  1  0  0  0
 21 24  1  0  0  0  0
 21 22  1  0  0  0  0
 22 26  1  0  0  0  0
 24 27  1  1  0  0  0
 24 26  1  0  0  0  0
 25 23  1  0  0  0  0
 25 28  1  0  0  0  0
 26 20  1  6  0  0  0
 28 27  1  0  0  0  0
 31 30  1  0  0  0  0
 31 34  1  1  0  0  0
 32 29  1  6  0  0  0
 32 31  1  0  0  0  0
 32 30  1  0  0  0  0
 33 34  1  0  0  0  0
 34 35  2  0  0  0  0
 36 46  1  0  0  0  0
 37 38  1  0  0  0  0
 38 33  1  6  0  0  0
 38 43  1  0  0  0  0
 39 42  1  0  0  0  0
 40 46  2  0  0  0  0
 40 45  1  0  0  0  0
 41 37  1  0  0  0  0
 42 41  1  0  0  0  0
 42 47  2  0  0  0  0
 43 45  2  0  0  0  0
 44 36  1  0  0  0  0
 47 44  2  0  0  0  0
M  END
>  <MODEL>
2

>  <REMARK>
 VINA RESULT:      -6.4      5.517     11.647
  Name = 
  10 active torsions:
  status: ('A' for Active; 'I' for Inactive)
    1  A    between atoms: N_3  and  C_5
    2  A    between atoms: C_6  and  C_38
    3  A    between atoms: C_12  and  O_18
    4  A    between atoms: N_16  and  N_24
    5  A    between atoms: N_16  and  N_32
    6  A    between atoms: O_18  and  C_41
    7  A    between atoms: C_21  and  C_26
    8  A    between atoms: C_21  and  C_45
    9  A    between atoms: C_27  and  N_32
   10  A    between atoms: C_29  and  C_39
                            x       y       z     vdW  Elec       q    Type
                         _______ _______ _______ _____ _____    ______ ____

>  <TORSDO>
F 10

$$$$
=
 OpenBabel11042421423D

 47 53  0  0  1  0  0  0  0  0999 V2000
  162.3580  207.3270  150.8950 C   0  0  1  0  0  3  0  0  0  0  0  0
  162.0960  206.6820  149.6070 C   0  0  2  0  0  0  0  0  0  0  0  0
  161.2000  207.7590  150.0820 N   0  0  0  0  0  0  0  0  0  0  0  0
  161.9650  206.2760  151.9450 C   0  0  2  0  0  3  0  0  0  0  0  0
  161.6610  205.3010  149.9370 C   0  0  0  0  0  0  0  0  0  0  0  0
  163.2010  206.9700  148.5920 C   0  0  0  0  0  1  0  0  0  0  0  0
  161.5790  205.0900  151.2040 N   0  0  0  0  0  0  0  0  0  0  0  0
  160.5270  202.3500  147.0910 C   0  0  0  0  0  3  0  0  0  0  0  0
  161.2990  204.5770  147.5750 C   0  0  0  0  0  3  0  0  0  0  0  0
  161.2660  204.2850  148.9440 C   0  0  0  0  0  0  0  0  0  0  0  0
  160.9270  203.6140  146.6360 C   0  0  0  0  0  0  0  0  0  0  0  0
  160.8580  203.0090  149.3470 C   0  0  0  0  0  3  0  0  0  0  0  0
  160.5020  202.0780  148.4220 N   0  0  0  0  0  0  0  0  0  0  0  0
  160.9620  203.9400  145.2740 O   0  0  0  0  0  0  0  0  0  0  0  0
  161.2770  205.2370  144.7720 C   0  0  0  0  0  0  0  0  0  0  0  0
  162.3830  205.7430  145.4290 F   0  0  0  0  0  0  0  0  0  0  0  0
  160.1980  206.0880  144.9450 F   0  0  0  0  0  0  0  0  0  0  0  0
  161.5620  205.1420  143.4220 F   0  0  0  0  0  0  0  0  0  0  0  0
  161.5630  208.9750  149.4860 N   0  0  0  0  0  2  0  0  0  0  0  0
  161.6530  209.9260  150.5180 N   0  0  0  0  0  2  0  0  0  0  0  0
  161.7170  211.8520  147.9060 C   0  0  2  0  0  3  0  0  0  0  0  0
  162.8200  211.1600  148.6990 C   0  0  0  0  0  2  0  0  0  0  0  0
  162.2720  213.2080  147.4410 C   0  0  0  0  0  2  0  0  0  0  0  0
  160.8370  211.8520  149.1730 C   0  0  1  0  0  3  0  0  0  0  0  0
  161.4080  214.3920  147.8380 C   0  0  0  0  0  2  0  0  0  0  0  0
  161.9820  211.2500  149.9710 C   0  0  1  0  0  3  0  0  0  0  0  0
  160.3600  213.2070  149.7200 C   0  0  0  0  0  2  0  0  0  0  0  0
  161.2480  214.3780  149.3430 C   0  0  0  0  0  2  0  0  0  0  0  0
  160.8200  206.7610  152.8240 C   0  0  0  0  0  2  0  0  0  0  0  0
  161.4380  206.9340  155.2090 C   0  0  0  0  0  2  0  0  0  0  0  0
  160.2720  207.8660  154.9600 C   0  0  2  0  0  3  0  0  0  0  0  0
  161.3460  207.6880  153.9000 C   0  0  2  0  0  3  0  0  0  0  0  0
  159.4370  210.1510  155.6710 N   0  0  0  0  0  2  0  0  0  0  0  0
  160.4780  209.1690  155.6590 C   0  0  0  0  0  0  0  0  0  0  0  0
  161.5850  209.4100  156.2100 O   0  0  0  0  0  0  0  0  0  0  0  0
  155.2000  212.5690  153.8390 C   0  0  0  0  0  2  0  0  0  0  0  0
  159.8270  212.5830  155.1950 C   0  0  0  0  0  2  0  0  0  0  0  0
  159.6280  211.4760  156.2510 C   0  0  1  0  0  3  0  0  0  0  0  0
  159.4370  214.4520  152.6820 O   0  0  0  0  0  1  0  0  0  0  0  0
  156.7550  212.0180  155.6210 C   0  0  0  0  0  3  0  0  0  0  0  0
  159.2410  212.2340  153.8250 C   0  0  0  0  0  2  0  0  0  0  0  0
  158.6330  213.4340  153.1770 C   0  0  0  0  0  0  0  0  0  0  0  0
  158.5480  211.7850  157.2610 C   0  0  0  0  0  3  0  0  0  0  0  0
  156.0240  213.5600  153.0600 C   0  0  0  0  0  3  0  0  0  0  0  0
  157.2650  212.0310  156.9860 C   0  0  0  0  0  3  0  0  0  0  0  0
  155.5860  212.5410  155.2880 C   0  0  0  0  0  3  0  0  0  0  0  0
  157.3330  213.5150  153.0810 C   0  0  0  0  0  0  0  0  0  0  0  0
  1  3  1  1  0  0  0
  1  4  1  0  0  0  0
  2  6  1  6  0  0  0
  2  5  1  0  0  0  0
  2  3  1  0  0  0  0
  2  1  1  0  0  0  0
  4 29  1  6  0  0  0
  5  7  2  0  0  0  0
  7  4  1  0  0  0  0
  8 13  1  0  0  0  0
  9 10  2  0  0  0  0
 10 12  1  0  0  0  0
 10  5  1  0  0  0  0
 11  8  2  0  0  0  0
 11  9  1  0  0  0  0
 13 12  2  0  0  0  0
 14 11  1  0  0  0  0
 15 17  1  0  0  0  0
 15 14  1  0  0  0  0
 15 16  1  0  0  0  0
 18 15  1  0  0  0  0
 19  3  1  0  0  0  0
 19 20  1  0  0  0  0
 21 23  1  1  0  0  0
 21 22  1  0  0  0  0
 21 24  1  0  0  0  0
 22 26  1  0  0  0  0
 23 25  1  0  0  0  0
 24 27  1  1  0  0  0
 24 26  1  0  0  0  0
 25 28  1  0  0  0  0
 26 20  1  6  0  0  0
 28 27  1  0  0  0  0
 31 30  1  0  0  0  0
 31 34  1  1  0  0  0
 32 29  1  6  0  0  0
 32 31  1  0  0  0  0
 32 30  1  0  0  0  0
 34 33  1  0  0  0  0
 34 35  2  0  0  0  0
 36 46  1  0  0  0  0
 37 38  1  0  0  0  0
 38 33  1  6  0  0  0
 38 43  1  0  0  0  0
 39 42  1  0  0  0  0
 40 45  1  0  0  0  0
 41 37  1  0  0  0  0
 42 41  1  0  0  0  0
 44 47  2  0  0  0  0
 44 36  1  0  0  0  0
 45 43  2  0  0  0  0
 46 40  2  0  0  0  0
 47 42  2  0  0  0  0
M  END
>  <MODEL>
3

>  <REMARK>
 VINA RESULT:      -6.3      5.446     11.623
  Name = 
  10 active torsions:
  status: ('A' for Active; 'I' for Inactive)
    1  A    between atoms: N_3  and  C_5
    2  A    between atoms: C_6  and  C_38
    3  A    between atoms: C_12  and  O_18
    4  A    between atoms: N_16  and  N_24
    5  A    between atoms: N_16  and  N_32
    6  A    between atoms: O_18  and  C_41
    7  A    between atoms: C_21  and  C_26
    8  A    between atoms: C_21  and  C_45
    9  A    between atoms: C_27  and  N_32
   10  A    between atoms: C_29  and  C_39
                            x       y       z     vdW  Elec       q    Type
                         _______ _______ _______ _____ _____    ______ ____

>  <TORSDO>
F 10

$$$$
=
 OpenBabel11042421423D

 47 53  0  0  1  0  0  0  0  0999 V2000
  161.2840  207.8580  150.0230 C   0  0  1  0  0  3  0  0  0  0  0  0
  161.2330  206.4280  149.7120 C   0  0  2  0  0  0  0  0  0  0  0  0
  162.4050  206.9800  150.4250 N   0  0  0  0  0  0  0  0  0  0  0  0
  161.5450  208.5430  148.6720 C   0  0  2  0  0  3  0  0  0  0  0  0
  161.3700  206.3380  148.2360 C   0  0  0  0  0  0  0  0  0  0  0  0
  160.1120  205.7220  150.4720 C   0  0  0  0  0  1  0  0  0  0  0  0
  161.5520  207.4840  147.6780 N   0  0  0  0  0  0  0  0  0  0  0  0
  161.4350  202.7190  146.0020 C   0  0  0  0  0  3  0  0  0  0  0  0
  161.2890  203.8450  148.1240 C   0  0  0  0  0  3  0  0  0  0  0  0
  161.3950  205.0790  147.4700 C   0  0  0  0  0  0  0  0  0  0  0  0
  161.3100  202.6540  147.3970 C   0  0  0  0  0  0  0  0  0  0  0  0
  161.5180  205.0890  146.0770 C   0  0  0  0  0  3  0  0  0  0  0  0
  161.5340  203.9220  145.3790 N   0  0  0  0  0  0  0  0  0  0  0  0
  161.2110  201.4360  148.0820 O   0  0  0  0  0  0  0  0  0  0  0  0
  160.7240  201.3080  149.4160 C   0  0  0  0  0  0  0  0  0  0  0  0
  161.3040  202.2660  150.2270 F   0  0  0  0  0  0  0  0  0  0  0  0
  161.0100  200.0440  149.9060 F   0  0  0  0  0  0  0  0  0  0  0  0
  159.3530  201.4900  149.4160 F   0  0  0  0  0  0  0  0  0  0  0  0
  162.2660  206.7630  151.8030 N   0  0  0  0  0  2  0  0  0  0  0  0
  162.4630  208.0050  152.4350 N   0  0  0  0  0  2  0  0  0  0  0  0
  161.0680  208.8440  155.2430 C   0  0  2  0  0  3  0  0  0  0  0  0
  160.9490  207.6010  154.3670 C   0  0  0  0  0  2  0  0  0  0  0  0
  159.6810  209.1090  155.8490 C   0  0  0  0  0  2  0  0  0  0  0  0
  161.4530  209.6600  153.9920 C   0  0  1  0  0  3  0  0  0  0  0  0
  159.1590  210.5130  155.5940 C   0  0  0  0  0  2  0  0  0  0  0  0
  161.2360  208.4330  153.1220 C   0  0  1  0  0  3  0  0  0  0  0  0
  160.5600  210.8480  153.6020 C   0  0  0  0  0  2  0  0  0  0  0  0
  159.1310  210.7420  154.0980 C   0  0  0  0  0  2  0  0  0  0  0  0
  162.8680  209.2960  148.6690 C   0  0  0  0  0  2  0  0  0  0  0  0
  161.7230  211.0410  149.9880 C   0  0  0  0  0  2  0  0  0  0  0  0
  161.1410  211.0540  148.5910 C   0  0  2  0  0  3  0  0  0  0  0  0
  162.6220  210.7840  148.7980 C   0  0  2  0  0  3  0  0  0  0  0  0
  160.7400  212.7130  146.7170 N   0  0  0  0  0  2  0  0  0  0  0  0
  160.9570  212.4550  148.1080 C   0  0  0  0  0  0  0  0  0  0  0  0
  161.0260  213.4090  148.9280 O   0  0  0  0  0  0  0  0  0  0  0  0
  160.4530  211.6730  141.6180 C   0  0  0  0  0  2  0  0  0  0  0  0
  161.8610  214.4510  145.2990 C   0  0  0  0  0  2  0  0  0  0  0  0
  160.6570  214.0680  146.1840 C   0  0  1  0  0  3  0  0  0  0  0  0
  164.0940  214.4070  143.0690 O   0  0  0  0  0  1  0  0  0  0  0  0
  159.7290  212.8560  143.6130 C   0  0  0  0  0  3  0  0  0  0  0  0
  162.5820  213.2460  144.6900 C   0  0  0  0  0  2  0  0  0  0  0  0
  163.0360  213.5370  143.2980 C   0  0  0  0  0  0  0  0  0  0  0  0
  159.3180  214.3110  145.5280 C   0  0  0  0  0  3  0  0  0  0  0  0
  161.7450  212.3920  141.3350 C   0  0  0  0  0  3  0  0  0  0  0  0
  158.8990  213.7760  144.3790 C   0  0  0  0  0  3  0  0  0  0  0  0
  159.4790  212.5490  142.3500 C   0  0  0  0  0  3  0  0  0  0  0  0
  162.4280  212.9610  142.2970 C   0  0  0  0  0  0  0  0  0  0  0  0
  1  3  1  1  0  0  0
  2  1  1  0  0  0  0
  2  3  1  0  0  0  0
  2  6  1  1  0  0  0
  3 19  1  0  0  0  0
  4 29  1  1  0  0  0
  4  1  1  0  0  0  0
  5  2  1  0  0  0  0
  7  5  2  0  0  0  0
  7  4  1  0  0  0  0
  8 11  1  0  0  0  0
 10  9  1  0  0  0  0
 10  5  1  0  0  0  0
 11 14  1  0  0  0  0
 11  9  2  0  0  0  0
 12 10  2  0  0  0  0
 13  8  2  0  0  0  0
 13 12  1  0  0  0  0
 14 15  1  0  0  0  0
 15 17  1  0  0  0  0
 15 16  1  0  0  0  0
 18 15  1  0  0  0  0
 19 20  1  0  0  0  0
 21 22  1  6  0  0  0
 21 23  1  0  0  0  0
 24 27  1  6  0  0  0
 24 21  1  0  0  0  0
 25 23  1  0  0  0  0
 26 20  1  1  0  0  0
 26 24  1  0  0  0  0
 26 22  1  0  0  0  0
 27 28  1  0  0  0  0
 28 25  1  0  0  0  0
 31 34  1  6  0  0  0
 31 32  1  0  0  0  0
 31 30  1  0  0  0  0
 32 29  1  1  0  0  0
 32 30  1  0  0  0  0
 33 34  1  0  0  0  0
 34 35  2  0  0  0  0
 36 46  1  0  0  0  0
 37 38  1  0  0  0  0
 38 33  1  6  0  0  0
 39 42  1  0  0  0  0
 40 45  1  0  0  0  0
 41 37  1  0  0  0  0
 42 41  1  0  0  0  0
 43 38  1  0  0  0  0
 44 36  1  0  0  0  0
 44 47  2  0  0  0  0
 45 43  2  0  0  0  0
 46 40  2  0  0  0  0
 47 42  2  0  0  0  0
M  END
>  <MODEL>
4

>  <REMARK>
 VINA RESULT:      -6.0      3.679      7.092
  Name = 
  10 active torsions:
  status: ('A' for Active; 'I' for Inactive)
    1  A    between atoms: N_3  and  C_5
    2  A    between atoms: C_6  and  C_38
    3  A    between atoms: C_12  and  O_18
    4  A    between atoms: N_16  and  N_24
    5  A    between atoms: N_16  and  N_32
    6  A    between atoms: O_18  and  C_41
    7  A    between atoms: C_21  and  C_26
    8  A    between atoms: C_21  and  C_45
    9  A    between atoms: C_27  and  N_32
   10  A    between atoms: C_29  and  C_39
                            x       y       z     vdW  Elec       q    Type
                         _______ _______ _______ _____ _____    ______ ____

>  <TORSDO>
F 10

$$$$
=
 OpenBabel11042421423D

 47 53  0  0  1  0  0  0  0  0999 V2000
  162.0930  206.9370  152.1970 C   0  0  1  0  0  3  0  0  0  0  0  0
  161.0800  207.4040  153.1460 C   0  0  2  0  0  0  0  0  0  0  0  0
  160.6600  206.6990  151.9150 N   0  0  0  0  0  0  0  0  0  0  0  0
  162.6100  208.2130  151.5160 C   0  0  2  0  0  3  0  0  0  0  0  0
  161.1060  208.8870  153.0530 C   0  0  0  0  0  0  0  0  0  0  0  0
  161.1700  206.6680  154.4810 C   0  0  0  0  0  1  0  0  0  0  0  0
  161.9250  209.3190  152.1600 N   0  0  0  0  0  0  0  0  0  0  0  0
  158.5790  211.4780  155.2870 C   0  0  0  0  0  3  0  0  0  0  0  0
  159.3800  210.6880  153.1600 C   0  0  0  0  0  3  0  0  0  0  0  0
  160.2290  209.7910  153.8190 C   0  0  0  0  0  0  0  0  0  0  0  0
  158.5490  211.5410  153.8870 C   0  0  0  0  0  0  0  0  0  0  0  0
  160.2220  209.7680  155.2180 C   0  0  0  0  0  3  0  0  0  0  0  0
  159.4060  210.6020  155.9150 N   0  0  0  0  0  0  0  0  0  0  0  0
  157.7170  212.4330  153.1970 O   0  0  0  0  0  0  0  0  0  0  0  0
  158.1640  213.3000  152.1570 C   0  0  0  0  0  0  0  0  0  0  0  0
  158.1180  212.6440  150.9410 F   0  0  0  0  0  0  0  0  0  0  0  0
  159.4580  213.7210  152.4140 F   0  0  0  0  0  0  0  0  0  0  0  0
  157.3350  214.4050  152.1020 F   0  0  0  0  0  0  0  0  0  0  0  0
  160.4150  205.3490  152.2030 N   0  0  0  0  0  2  0  0  0  0  0  0
  161.6650  204.7060  152.2400 N   0  0  0  0  0  2  0  0  0  0  0  0
  160.4560  202.3870  150.3180 C   0  0  2  0  0  3  0  0  0  0  0  0
  161.6090  202.3970  151.3160 C   0  0  0  0  0  2  0  0  0  0  0  0
  160.8690  201.4720  149.1540 C   0  0  0  0  0  2  0  0  0  0  0  0
  160.6470  203.9040  150.1180 C   0  0  1  0  0  3  0  0  0  0  0  0
  160.7780  202.1360  147.7910 C   0  0  0  0  0  2  0  0  0  0  0  0
  161.8530  203.8770  151.0420 C   0  0  1  0  0  3  0  0  0  0  0  0
  160.9730  204.4110  148.7040 C   0  0  0  0  0  2  0  0  0  0  0  0
  161.6390  203.3800  147.8120 C   0  0  0  0  0  2  0  0  0  0  0  0
  162.3330  208.2030  150.0190 C   0  0  0  0  0  2  0  0  0  0  0  0
  161.3170  209.5000  148.1780 C   0  0  0  0  0  2  0  0  0  0  0  0
  162.7620  209.9330  148.3140 C   0  0  2  0  0  3  0  0  0  0  0  0
  161.9490  209.5910  149.5510 C   0  0  2  0  0  3  0  0  0  0  0  0
  161.7080  212.2260  148.0810 N   0  0  0  0  0  2  0  0  0  0  0  0
  162.8820  211.4170  148.1960 C   0  0  0  0  0  0  0  0  0  0  0  0
  164.0250  211.9460  148.1650 O   0  0  0  0  0  0  0  0  0  0  0  0
  156.7140  213.2250  146.9740 C   0  0  0  0  0  2  0  0  0  0  0  0
  161.4260  214.0820  146.4170 C   0  0  0  0  0  2  0  0  0  0  0  0
  161.7780  213.6670  147.8600 C   0  0  1  0  0  3  0  0  0  0  0  0
  159.9420  214.3860  143.6470 O   0  0  0  0  0  1  0  0  0  0  0  0
  158.7990  213.7150  148.1200 C   0  0  0  0  0  3  0  0  0  0  0  0
  160.5530  213.0610  145.6820 C   0  0  0  0  0  2  0  0  0  0  0  0
  159.5470  213.7400  144.8120 C   0  0  0  0  0  0  0  0  0  0  0  0
  160.9980  214.4150  148.9160 C   0  0  0  0  0  3  0  0  0  0  0  0
  157.0510  213.7040  145.5870 C   0  0  0  0  0  3  0  0  0  0  0  0
  159.6680  214.4430  149.0350 C   0  0  0  0  0  3  0  0  0  0  0  0
  157.5010  213.9560  148.0210 C   0  0  0  0  0  3  0  0  0  0  0  0
  158.2890  213.7180  145.1590 C   0  0  0  0  0  0  0  0  0  0  0  0
  1  3  1  6  0  0  0
  1  2  1  0  0  0  0
  2  6  1  1  0  0  0
  3 19  1  0  0  0  0
  3  2  1  0  0  0  0
  4 29  1  6  0  0  0
  4  7  1  0  0  0  0
  4  1  1  0  0  0  0
  5  2  1  0  0  0  0
  5 10  1  0  0  0  0
  7  5  2  0  0  0  0
  8 13  1  0  0  0  0
  9 10  2  0  0  0  0
  9 11  1  0  0  0  0
 10 12  1  0  0  0  0
 11  8  2  0  0  0  0
 12 13  2  0  0  0  0
 14 11  1  0  0  0  0
 15 17  1  0  0  0  0
 15 14  1  0  0  0  0
 16 15  1  0  0  0  0
 18 15  1  0  0  0  0
 19 20  1  0  0  0  0
 21 23  1  6  0  0  0
 21 22  1  0  0  0  0
 24 27  1  6  0  0  0
 24 21  1  0  0  0  0
 24 26  1  0  0  0  0
 25 28  1  0  0  0  0
 25 23  1  0  0  0  0
 26 22  1  0  0  0  0
 26 20  1  1  0  0  0
 28 27  1  0  0  0  0
 30 31  1  0  0  0  0
 30 32  1  0  0  0  0
 31 34  1  1  0  0  0
 31 32  1  0  0  0  0
 32 29  1  6  0  0  0
 33 34  1  0  0  0  0
 35 34  2  0  0  0  0
 36 46  1  0  0  0  0
 37 38  1  0  0  0  0
 38 33  1  6  0  0  0
 38 43  1  0  0  0  0
 39 42  1  0  0  0  0
 40 45  1  0  0  0  0
 41 37  1  0  0  0  0
 42 47  2  0  0  0  0
 42 41  1  0  0  0  0
 43 45  2  0  0  0  0
 44 36  1  0  0  0  0
 46 40  2  0  0  0  0
 47 44  2  0  0  0  0
M  END
>  <MODEL>
5

>  <REMARK>
 VINA RESULT:      -5.9      4.272      6.134
  Name = 
  10 active torsions:
  status: ('A' for Active; 'I' for Inactive)
    1  A    between atoms: N_3  and  C_5
    2  A    between atoms: C_6  and  C_38
    3  A    between atoms: C_12  and  O_18
    4  A    between atoms: N_16  and  N_24
    5  A    between atoms: N_16  and  N_32
    6  A    between atoms: O_18  and  C_41
    7  A    between atoms: C_21  and  C_26
    8  A    between atoms: C_21  and  C_45
    9  A    between atoms: C_27  and  N_32
   10  A    between atoms: C_29  and  C_39
                            x       y       z     vdW  Elec       q    Type
                         _______ _______ _______ _____ _____    ______ ____

>  <TORSDO>
F 10

$$$$
=
 OpenBabel11042421423D

 47 53  0  0  1  0  0  0  0  0999 V2000
  162.1870  207.5320  151.3640 C   0  0  1  0  0  3  0  0  0  0  0  0
  161.8830  206.7170  150.1850 C   0  0  2  0  0  0  0  0  0  0  0  0
  160.9450  207.7840  150.5980 N   0  0  0  0  0  0  0  0  0  0  0  0
  161.9470  206.5960  152.5580 C   0  0  2  0  0  3  0  0  0  0  0  0
  161.5770  205.3610  150.7100 C   0  0  0  0  0  0  0  0  0  0  0  0
  162.8900  206.9480  149.0600 C   0  0  0  0  0  1  0  0  0  0  0  0
  161.5990  205.3040  151.9950 N   0  0  0  0  0  0  0  0  0  0  0  0
  160.4580  202.0150  148.3350 C   0  0  0  0  0  3  0  0  0  0  0  0
  161.5110  204.1710  148.5160 C   0  0  0  0  0  3  0  0  0  0  0  0
  161.1900  204.2070  149.8780 C   0  0  0  0  0  0  0  0  0  0  0  0
  161.1460  203.0760  147.7310 C   0  0  0  0  0  0  0  0  0  0  0  0
  160.5010  203.1230  150.4330 C   0  0  0  0  0  3  0  0  0  0  0  0
  160.1540  202.0600  149.6590 N   0  0  0  0  0  0  0  0  0  0  0  0
  161.4740  203.0740  146.3690 O   0  0  0  0  0  0  0  0  0  0  0  0
  161.4060  204.2260  145.5300 C   0  0  0  0  0  0  0  0  0  0  0  0
  160.9630  205.3160  146.2570 F   0  0  0  0  0  0  0  0  0  0  0  0
  160.5480  203.9900  144.4690 F   0  0  0  0  0  0  0  0  0  0  0  0
  162.6680  204.4990  145.0360 F   0  0  0  0  0  0  0  0  0  0  0  0
  161.1750  208.9370  149.8350 N   0  0  0  0  0  2  0  0  0  0  0  0
  161.8010  209.8690  150.6810 N   0  0  0  0  0  2  0  0  0  0  0  0
  161.6500  211.4750  147.8650 C   0  0  2  0  0  3  0  0  0  0  0  0
  162.7940  210.7680  148.5850 C   0  0  0  0  0  2  0  0  0  0  0  0
  162.2460  212.7070  147.1650 C   0  0  0  0  0  2  0  0  0  0  0  0
  160.9650  211.7050  149.2270 C   0  0  1  0  0  3  0  0  0  0  0  0
  161.5500  214.0090  147.5220 C   0  0  0  0  0  2  0  0  0  0  0  0
  162.1580  211.0840  149.9350 C   0  0  1  0  0  3  0  0  0  0  0  0
  160.6880  213.1540  149.6600 C   0  0  0  0  0  2  0  0  0  0  0  0
  161.6070  214.1800  149.0250 C   0  0  0  0  0  2  0  0  0  0  0  0
  160.8340  207.1100  153.4610 C   0  0  0  0  0  2  0  0  0  0  0  0
  160.8500  208.4010  155.5670 C   0  0  0  0  0  2  0  0  0  0  0  0
  160.0000  209.1520  154.5650 C   0  0  2  0  0  3  0  0  0  0  0  0
  161.2470  208.4160  154.1060 C   0  0  2  0  0  3  0  0  0  0  0  0
  159.3000  211.5580  154.1830 N   0  0  0  0  0  2  0  0  0  0  0  0
  160.2840  210.6170  154.6240 C   0  0  0  0  0  0  0  0  0  0  0  0
  161.4060  211.0160  155.0340 O   0  0  0  0  0  0  0  0  0  0  0  0
  154.4710  213.3630  153.4160 C   0  0  0  0  0  2  0  0  0  0  0  0
  159.2410  213.6190  152.7550 C   0  0  0  0  0  2  0  0  0  0  0  0
  159.5680  212.9900  154.1260 C   0  0  1  0  0  3  0  0  0  0  0  0
  157.7410  214.4530  150.1060 O   0  0  0  0  0  1  0  0  0  0  0  0
  156.6350  213.4200  154.5180 C   0  0  0  0  0  3  0  0  0  0  0  0
  158.2120  212.8240  151.9470 C   0  0  0  0  0  2  0  0  0  0  0  0
  157.2900  213.7340  151.2050 C   0  0  0  0  0  0  0  0  0  0  0  0
  158.9320  213.7080  155.2920 C   0  0  0  0  0  3  0  0  0  0  0  0
  154.8360  213.9520  152.0790 C   0  0  0  0  0  3  0  0  0  0  0  0
  157.6240  213.9060  155.4720 C   0  0  0  0  0  3  0  0  0  0  0  0
  155.3830  213.8480  154.5040 C   0  0  0  0  0  3  0  0  0  0  0  0
  156.0510  213.8460  151.6020 C   0  0  0  0  0  0  0  0  0  0  0  0
  1  3  1  1  0  0  0
  1  4  1  0  0  0  0
  2  6  1  6  0  0  0
  2  3  1  0  0  0  0
  2  5  1  0  0  0  0
  2  1  1  0  0  0  0
  4 29  1  1  0  0  0
  5  7  2  0  0  0  0
  7  4  1  0  0  0  0
  8 13  1  0  0  0  0
  9 10  2  0  0  0  0
 10 12  1  0  0  0  0
 10  5  1  0  0  0  0
 11  8  2  0  0  0  0
 11  9  1  0  0  0  0
 13 12  2  0  0  0  0
 14 11  1  0  0  0  0
 15 16  1  0  0  0  0
 15 14  1  0  0  0  0
 17 15  1  0  0  0  0
 18 15  1  0  0  0  0
 19  3  1  0  0  0  0
 19 20  1  0  0  0  0
 21 23  1  1  0  0  0
 21 22  1  0  0  0  0
 21 24  1  0  0  0  0
 22 26  1  0  0  0  0
 23 25  1  0  0  0  0
 24 27  1  1  0  0  0
 24 26  1  0  0  0  0
 25 28  1  0  0  0  0
 26 20  1  6  0  0  0
 28 27  1  0  0  0  0
 31 34  1  1  0  0  0
 31 30  1  0  0  0  0
 32 29  1  6  0  0  0
 32 31  1  0  0  0  0
 32 30  1  0  0  0  0
 33 34  1  0  0  0  0
 34 35  2  0  0  0  0
 36 46  1  0  0  0  0
 37 38  1  0  0  0  0
 38 33  1  6  0  0  0
 38 43  1  0  0  0  0
 39 42  1  0  0  0  0
 40 45  1  0  0  0  0
 41 37  1  0  0  0  0
 42 47  2  0  0  0  0
 42 41  1  0  0  0  0
 43 45  2  0  0  0  0
 44 36  1  0  0  0  0
 46 40  2  0  0  0  0
 47 44  2  0  0  0  0
M  END
>  <MODEL>
6

>  <REMARK>
 VINA RESULT:      -5.9      5.491     10.978
  Name = 
  10 active torsions:
  status: ('A' for Active; 'I' for Inactive)
    1  A    between atoms: N_3  and  C_5
    2  A    between atoms: C_6  and  C_38
    3  A    between atoms: C_12  and  O_18
    4  A    between atoms: N_16  and  N_24
    5  A    between atoms: N_16  and  N_32
    6  A    between atoms: O_18  and  C_41
    7  A    between atoms: C_21  and  C_26
    8  A    between atoms: C_21  and  C_45
    9  A    between atoms: C_27  and  N_32
   10  A    between atoms: C_29  and  C_39
                            x       y       z     vdW  Elec       q    Type
                         _______ _______ _______ _____ _____    ______ ____

>  <TORSDO>
F 10

$$$$
=
 OpenBabel11042421423D

 47 53  0  0  1  0  0  0  0  0999 V2000
  162.0040  208.9140  152.4960 C   0  0  1  0  0  3  0  0  0  0  0  0
  160.8140  209.4180  153.1860 C   0  0  2  0  0  0  0  0  0  0  0  0
  160.6870  208.2940  152.2330 N   0  0  0  0  0  0  0  0  0  0  0  0
  162.3470  210.0000  151.4640 C   0  0  2  0  0  3  0  0  0  0  0  0
  160.5680  210.7670  152.6150 C   0  0  0  0  0  0  0  0  0  0  0  0
  160.8810  209.1690  154.6910 C   0  0  0  0  0  1  0  0  0  0  0  0
  161.3910  211.0720  151.6740 N   0  0  0  0  0  0  0  0  0  0  0  0
  157.3570  213.3330  153.7080 C   0  0  0  0  0  3  0  0  0  0  0  0
  158.4390  211.1890  153.8510 C   0  0  0  0  0  3  0  0  0  0  0  0
  159.4490  211.6490  152.9960 C   0  0  0  0  0  0  0  0  0  0  0  0
  157.3830  212.0260  154.2120 C   0  0  0  0  0  0  0  0  0  0  0  0
  159.3760  212.9620  152.5190 C   0  0  0  0  0  3  0  0  0  0  0  0
  158.3440  213.7680  152.8820 N   0  0  0  0  0  0  0  0  0  0  0  0
  156.3830  211.5330  155.0620 O   0  0  0  0  0  0  0  0  0  0  0  0
  156.4100  211.6590  156.4820 C   0  0  0  0  0  0  0  0  0  0  0  0
  156.3040  212.9900  156.8420 F   0  0  0  0  0  0  0  0  0  0  0  0
  157.5870  211.1300  156.9840 F   0  0  0  0  0  0  0  0  0  0  0  0
  155.3410  210.9640  157.0170 F   0  0  0  0  0  0  0  0  0  0  0  0
  160.6710  207.0800  152.9330 N   0  0  0  0  0  2  0  0  0  0  0  0
  161.9630  206.5320  152.8320 N   0  0  0  0  0  2  0  0  0  0  0  0
  160.4420  204.4580  150.8520 C   0  0  2  0  0  3  0  0  0  0  0  0
  161.5030  204.2600  151.9290 C   0  0  0  0  0  2  0  0  0  0  0  0
  160.7390  203.4510  149.7300 C   0  0  0  0  0  2  0  0  0  0  0  0
  160.9490  205.9010  150.6510 C   0  0  1  0  0  3  0  0  0  0  0  0
  160.8760  204.0870  148.3570 C   0  0  0  0  0  2  0  0  0  0  0  0
  162.0600  205.6540  151.6580 C   0  0  1  0  0  3  0  0  0  0  0  0
  161.4660  206.2970  149.2590 C   0  0  0  0  0  2  0  0  0  0  0  0
  161.9690  205.1330  148.4270 C   0  0  0  0  0  2  0  0  0  0  0  0
  162.2580  209.4680  150.0400 C   0  0  0  0  0  2  0  0  0  0  0  0
  161.9240  210.1050  147.6770 C   0  0  0  0  0  2  0  0  0  0  0  0
  162.8920  211.0910  148.2940 C   0  0  2  0  0  3  0  0  0  0  0  0
  161.7350  210.5450  149.1130 C   0  0  2  0  0  3  0  0  0  0  0  0
  161.5630  212.7190  146.8780 N   0  0  0  0  0  2  0  0  0  0  0  0
  162.5770  212.4840  147.8600 C   0  0  0  0  0  0  0  0  0  0  0  0
  163.2320  213.4470  148.3400 O   0  0  0  0  0  0  0  0  0  0  0  0
  160.1370  211.4930  142.0170 C   0  0  0  0  0  2  0  0  0  0  0  0
  162.2330  214.4530  145.1940 C   0  0  0  0  0  2  0  0  0  0  0  0
  161.2910  214.0500  146.3480 C   0  0  1  0  0  3  0  0  0  0  0  0
  163.8780  214.4270  142.5010 O   0  0  0  0  0  1  0  0  0  0  0  0
  159.8450  212.7120  144.0980 C   0  0  0  0  0  3  0  0  0  0  0  0
  162.8490  213.2590  144.4610 C   0  0  0  0  0  2  0  0  0  0  0  0
  162.9490  213.5210  142.9950 C   0  0  0  0  0  0  0  0  0  0  0  0
  159.8250  214.2140  146.0220 C   0  0  0  0  0  3  0  0  0  0  0  0
  161.2900  212.2560  141.4190 C   0  0  0  0  0  3  0  0  0  0  0  0
  159.1750  213.6220  145.0170 C   0  0  0  0  0  3  0  0  0  0  0  0
  159.3210  212.3520  142.9380 C   0  0  0  0  0  3  0  0  0  0  0  0
  162.1510  212.8860  142.1790 C   0  0  0  0  0  0  0  0  0  0  0  0
  1  3  1  6  0  0  0
  1  2  1  0  0  0  0
  2  6  1  1  0  0  0
  3 19  1  0  0  0  0
  3  2  1  0  0  0  0
  4 29  1  6  0  0  0
  4  7  1  0  0  0  0
  4  1  1  0  0  0  0
  5 10  1  0  0  0  0
  5  2  1  0  0  0  0
  7  5  2  0  0  0  0
  8 11  1  0  0  0  0
  9 11  2  0  0  0  0
 10  9  1  0  0  0  0
 11 14  1  0  0  0  0
 12 13  1  0  0  0  0
 12 10  2  0  0  0  0
 13  8  2  0  0  0  0
 14 15  1  0  0  0  0
 15 16  1  0  0  0  0
 15 17  1  0  0  0  0
 15 18  1  0  0  0  0
 20 19  1  0  0  0  0
 21 23  1  6  0  0  0
 21 22  1  0  0  0  0
 24 27  1  6  0  0  0
 24 21  1  0  0  0  0
 24 26  1  0  0  0  0
 25 28  1  0  0  0  0
 25 23  1  0  0  0  0
 26 22  1  0  0  0  0
 26 20  1  1  0  0  0
 28 27  1  0  0  0  0
 30 31  1  0  0  0  0
 30 32  1  0  0  0  0
 31 34  1  6  0  0  0
 31 32  1  0  0  0  0
 32 29  1  1  0  0  0
 33 34  1  0  0  0  0
 34 35  2  0  0  0  0
 36 46  1  0  0  0  0
 37 38  1  0  0  0  0
 38 33  1  6  0  0  0
 39 42  1  0  0  0  0
 40 45  1  0  0  0  0
 41 37  1  0  0  0  0
 42 41  1  0  0  0  0
 43 38  1  0  0  0  0
 44 36  1  0  0  0  0
 44 47  2  0  0  0  0
 45 43  2  0  0  0  0
 46 40  2  0  0  0  0
 47 42  2  0  0  0  0
M  END
>  <MODEL>
7

>  <REMARK>
 VINA RESULT:      -5.8      2.811      4.596
  Name = 
  10 active torsions:
  status: ('A' for Active; 'I' for Inactive)
    1  A    between atoms: N_3  and  C_5
    2  A    between atoms: C_6  and  C_38
    3  A    between atoms: C_12  and  O_18
    4  A    between atoms: N_16  and  N_24
    5  A    between atoms: N_16  and  N_32
    6  A    between atoms: O_18  and  C_41
    7  A    between atoms: C_21  and  C_26
    8  A    between atoms: C_21  and  C_45
    9  A    between atoms: C_27  and  N_32
   10  A    between atoms: C_29  and  C_39
                            x       y       z     vdW  Elec       q    Type
                         _______ _______ _______ _____ _____    ______ ____

>  <TORSDO>
F 10

$$$$
=
 OpenBabel11042421423D

 47 53  0  0  1  0  0  0  0  0999 V2000
  162.1740  205.8330  151.6400 C   0  0  1  0  0  3  0  0  0  0  0  0
  161.2250  206.3190  152.6430 C   0  0  2  0  0  0  0  0  0  0  0  0
  160.7420  205.9600  151.2910 N   0  0  0  0  0  0  0  0  0  0  0  0
  162.9800  207.0760  151.2290 C   0  0  2  0  0  3  0  0  0  0  0  0
  161.5570  207.7540  152.8400 C   0  0  0  0  0  0  0  0  0  0  0  0
  161.0850  205.3460  153.8120 C   0  0  0  0  0  1  0  0  0  0  0  0
  162.4980  208.1620  152.0620 N   0  0  0  0  0  0  0  0  0  0  0  0
  159.4760  210.3580  155.4820 C   0  0  0  0  0  3  0  0  0  0  0  0
  160.5890  209.9910  153.3800 C   0  0  0  0  0  3  0  0  0  0  0  0
  160.8400  208.6640  153.7510 C   0  0  0  0  0  0  0  0  0  0  0  0
  159.9070  210.8510  154.2430 C   0  0  0  0  0  0  0  0  0  0  0  0
  160.3900  208.2210  154.9990 C   0  0  0  0  0  3  0  0  0  0  0  0
  159.7240  209.0670  155.8300 N   0  0  0  0  0  0  0  0  0  0  0  0
  159.6800  212.1750  153.8460 O   0  0  0  0  0  0  0  0  0  0  0  0
  158.4580  212.6390  153.2760 C   0  0  0  0  0  0  0  0  0  0  0  0
  157.9090  213.6290  154.0710 F   0  0  0  0  0  0  0  0  0  0  0  0
  157.5630  211.5880  153.1520 F   0  0  0  0  0  0  0  0  0  0  0  0
  158.7140  213.1610  152.0220 F   0  0  0  0  0  0  0  0  0  0  0  0
  160.2110  204.6630  151.3080 N   0  0  0  0  0  2  0  0  0  0  0  0
  161.3000  203.7760  151.3920 N   0  0  0  0  0  2  0  0  0  0  0  0
  160.2870  201.9460  148.9100 C   0  0  2  0  0  3  0  0  0  0  0  0
  161.3310  201.7150  149.9980 C   0  0  0  0  0  2  0  0  0  0  0  0
  160.8150  201.2850  147.6260 C   0  0  0  0  0  2  0  0  0  0  0  0
  160.5040  203.4660  149.0560 C   0  0  1  0  0  3  0  0  0  0  0  0
  160.8690  202.2240  146.4330 C   0  0  0  0  0  2  0  0  0  0  0  0
  161.6080  203.2130  150.0700 C   0  0  1  0  0  3  0  0  0  0  0  0
  160.9780  204.2490  147.8220 C   0  0  0  0  0  2  0  0  0  0  0  0
  161.7290  203.4120  146.8040 C   0  0  0  0  0  2  0  0  0  0  0  0
  162.7940  207.4030  149.7530 C   0  0  0  0  0  2  0  0  0  0  0  0
  161.0900  208.5820  148.4100 C   0  0  0  0  0  2  0  0  0  0  0  0
  162.3950  209.3370  148.2750 C   0  0  2  0  0  3  0  0  0  0  0  0
  162.0190  208.6940  149.5990 C   0  0  2  0  0  3  0  0  0  0  0  0
  161.2060  211.4360  147.5000 N   0  0  0  0  0  2  0  0  0  0  0  0
  162.1660  210.8100  148.3570 C   0  0  0  0  0  0  0  0  0  0  0  0
  162.8450  211.5000  149.1620 O   0  0  0  0  0  0  0  0  0  0  0  0
  160.0790  212.1120  142.4560 C   0  0  0  0  0  2  0  0  0  0  0  0
  162.0540  213.6140  146.5900 C   0  0  0  0  0  2  0  0  0  0  0  0
  161.0200  212.8820  147.4710 C   0  0  1  0  0  3  0  0  0  0  0  0
  163.8820  214.4530  144.1570 O   0  0  0  0  0  1  0  0  0  0  0  0
  159.6870  212.5230  144.8180 C   0  0  0  0  0  3  0  0  0  0  0  0
  162.6760  212.7260  145.5090 C   0  0  0  0  0  2  0  0  0  0  0  0
  162.8870  213.4870  144.2430 C   0  0  0  0  0  0  0  0  0  0  0  0
  159.5880  213.2380  147.1490 C   0  0  0  0  0  3  0  0  0  0  0  0
  161.2970  212.9680  142.2340 C   0  0  0  0  0  3  0  0  0  0  0  0
  158.9870  213.0830  145.9670 C   0  0  0  0  0  3  0  0  0  0  0  0
  159.2320  212.6320  143.5800 C   0  0  0  0  0  3  0  0  0  0  0  0
  162.1250  213.2330  143.2130 C   0  0  0  0  0  0  0  0  0  0  0  0
  1  3  1  6  0  0  0
  1  2  1  0  0  0  0
  2  5  1  0  0  0  0
  2  6  1  1  0  0  0
  3 19  1  0  0  0  0
  3  2  1  0  0  0  0
  4 29  1  6  0  0  0
  4  1  1  0  0  0  0
  4  7  1  0  0  0  0
  5 10  1  0  0  0  0
  7  5  2  0  0  0  0
  8 13  1  0  0  0  0
  9 10  2  0  0  0  0
  9 11  1  0  0  0  0
 10 12  1  0  0  0  0
 11  8  2  0  0  0  0
 12 13  2  0  0  0  0
 14 11  1  0  0  0  0
 15 14  1  0  0  0  0
 15 16  1  0  0  0  0
 17 15  1  0  0  0  0
 18 15  1  0  0  0  0
 19 20  1  0  0  0  0
 21 23  1  6  0  0  0
 21 24  1  0  0  0  0
 21 22  1  0  0  0  0
 22 26  1  0  0  0  0
 24 27  1  6  0  0  0
 24 26  1  0  0  0  0
 25 28  1  0  0  0  0
 25 23  1  0  0  0  0
 26 20  1  1  0  0  0
 28 27  1  0  0  0  0
 30 32  1  0  0  0  0
 31 34  1  1  0  0  0
 31 30  1  0  0  0  0
 31 32  1  0  0  0  0
 32 29  1  6  0  0  0
 33 34  1  0  0  0  0
 34 35  2  0  0  0  0
 36 46  1  0  0  0  0
 37 38  1  0  0  0  0
 38 33  1  6  0  0  0
 39 42  1  0  0  0  0
 40 45  1  0  0  0  0
 41 37  1  0  0  0  0
 42 41  1  0  0  0  0
 43 38  1  0  0  0  0
 44 36  1  0  0  0  0
 44 47  2  0  0  0  0
 45 43  2  0  0  0  0
 46 40  2  0  0  0  0
 47 42  2  0  0  0  0
M  END
>  <MODEL>
8

>  <REMARK>
 VINA RESULT:      -5.1      3.237      5.743
  Name = 
  10 active torsions:
  status: ('A' for Active; 'I' for Inactive)
    1  A    between atoms: N_3  and  C_5
    2  A    between atoms: C_6  and  C_38
    3  A    between atoms: C_12  and  O_18
    4  A    between atoms: N_16  and  N_24
    5  A    between atoms: N_16  and  N_32
    6  A    between atoms: O_18  and  C_41
    7  A    between atoms: C_21  and  C_26
    8  A    between atoms: C_21  and  C_45
    9  A    between atoms: C_27  and  N_32
   10  A    between atoms: C_29  and  C_39
                            x       y       z     vdW  Elec       q    Type
                         _______ _______ _______ _____ _____    ______ ____

>  <TORSDO>
F 10

$$$$
=
 OpenBabel11042421423D

 47 53  0  0  1  0  0  0  0  0999 V2000
  161.0340  206.7200  150.3740 C   0  0  1  0  0  3  0  0  0  0  0  0
  160.9990  205.2750  150.6070 C   0  0  2  0  0  0  0  0  0  0  0  0
  162.1820  206.0560  151.0310 N   0  0  0  0  0  0  0  0  0  0  0  0
  161.2430  206.8680  148.8590 C   0  0  2  0  0  3  0  0  0  0  0  0
  161.0960  204.6550  149.2600 C   0  0  0  0  0  0  0  0  0  0  0  0
  159.9130  204.8860  151.6080 C   0  0  0  0  0  1  0  0  0  0  0  0
  161.2420  205.5200  148.3190 N   0  0  0  0  0  0  0  0  0  0  0  0
  161.1830  200.4630  148.5470 C   0  0  0  0  0  3  0  0  0  0  0  0
  161.0480  202.7100  147.6960 C   0  0  0  0  0  3  0  0  0  0  0  0
  161.1220  203.2030  149.0040 C   0  0  0  0  0  0  0  0  0  0  0  0
  161.0750  201.3350  147.4550 C   0  0  0  0  0  0  0  0  0  0  0  0
  161.2260  202.2910  150.0590 C   0  0  0  0  0  3  0  0  0  0  0  0
  161.2560  200.9540  149.8120 N   0  0  0  0  0  0  0  0  0  0  0  0
  160.9910  200.8720  146.1350 O   0  0  0  0  0  0  0  0  0  0  0  0
  160.0850  201.3900  145.1640 C   0  0  0  0  0  0  0  0  0  0  0  0
  160.4540  202.6750  144.8090 F   0  0  0  0  0  0  0  0  0  0  0  0
  158.7970  201.3960  145.6730 F   0  0  0  0  0  0  0  0  0  0  0  0
  160.1200  200.5870  144.0400 F   0  0  0  0  0  0  0  0  0  0  0  0
  162.0860  206.3540  152.3970 N   0  0  0  0  0  2  0  0  0  0  0  0
  162.3100  207.7360  152.5310 N   0  0  0  0  0  2  0  0  0  0  0  0
  161.2550  209.3630  155.1340 C   0  0  2  0  0  3  0  0  0  0  0  0
  161.0300  207.9320  154.6550 C   0  0  0  0  0  2  0  0  0  0  0  0
  159.9490  209.8330  155.7940 C   0  0  0  0  0  2  0  0  0  0  0  0
  161.4950  209.7900  153.6720 C   0  0  1  0  0  3  0  0  0  0  0  0
  159.4060  211.1300  155.2200 C   0  0  0  0  0  2  0  0  0  0  0  0
  161.1740  208.3800  153.2050 C   0  0  1  0  0  3  0  0  0  0  0  0
  160.5680  210.8570  153.0700 C   0  0  0  0  0  2  0  0  0  0  0  0
  159.2050  210.9420  153.7320 C   0  0  0  0  0  2  0  0  0  0  0  0
  162.5530  207.5770  148.5400 C   0  0  0  0  0  2  0  0  0  0  0  0
  161.1920  209.2460  149.7490 C   0  0  0  0  0  2  0  0  0  0  0  0
  161.3890  209.7410  148.3320 C   0  0  2  0  0  3  0  0  0  0  0  0
  162.5090  209.0030  149.0450 C   0  0  2  0  0  3  0  0  0  0  0  0
  161.6650  211.9320  147.0890 N   0  0  0  0  0  2  0  0  0  0  0  0
  161.6880  211.2040  148.3200 C   0  0  0  0  0  0  0  0  0  0  0  0
  161.9930  211.7840  149.3970 O   0  0  0  0  0  0  0  0  0  0  0  0
  158.5880  213.5120  143.1900 C   0  0  0  0  0  2  0  0  0  0  0  0
  162.7160  213.7160  145.6730 C   0  0  0  0  0  2  0  0  0  0  0  0
  162.0500  213.3370  147.0120 C   0  0  1  0  0  3  0  0  0  0  0  0
  163.2980  214.0600  142.5900 O   0  0  0  0  0  1  0  0  0  0  0  0
  159.5780  213.7880  145.3910 C   0  0  0  0  0  3  0  0  0  0  0  0
  162.3480  212.7790  144.5200 C   0  0  0  0  0  2  0  0  0  0  0  0
  162.1890  213.5350  143.2420 C   0  0  0  0  0  0  0  0  0  0  0  0
  160.8980  214.2370  147.3940 C   0  0  0  0  0  3  0  0  0  0  0  0
  159.7660  213.8660  142.3200 C   0  0  0  0  0  3  0  0  0  0  0  0
  159.7930  214.4440  146.6740 C   0  0  0  0  0  3  0  0  0  0  0  0
  158.6600  214.1900  144.5260 C   0  0  0  0  0  3  0  0  0  0  0  0
  160.9940  213.6960  142.7430 C   0  0  0  0  0  0  0  0  0  0  0  0
  1  2  1  0  0  0  0
  1  3  1  1  0  0  0
  2  3  1  0  0  0  0
  2  6  1  1  0  0  0
  3 19  1  0  0  0  0
  4 29  1  1  0  0  0
  4  1  1  0  0  0  0
  5  2  1  0  0  0  0
  7  4  1  0  0  0  0
  7  5  2  0  0  0  0
  8 13  1  0  0  0  0
  9 10  2  0  0  0  0
 10  5  1  0  0  0  0
 10 12  1  0  0  0  0
 11  9  1  0  0  0  0
 11  8  2  0  0  0  0
 13 12  2  0  0  0  0
 14 11  1  0  0  0  0
 15 17  1  0  0  0  0
 15 14  1  0  0  0  0
 16 15  1  0  0  0  0
 18 15  1  0  0  0  0
 19 20  1  0  0  0  0
 21 22  1  6  0  0  0
 21 23  1  0  0  0  0
 24 27  1  6  0  0  0
 24 21  1  0  0  0  0
 25 23  1  0  0  0  0
 26 20  1  1  0  0  0
 26 24  1  0  0  0  0
 26 22  1  0  0  0  0
 27 28  1  0  0  0  0
 28 25  1  0  0  0  0
 31 34  1  1  0  0  0
 31 32  1  0  0  0  0
 31 30  1  0  0  0  0
 32 29  1  6  0  0  0
 32 30  1  0  0  0  0
 33 34  1  0  0  0  0
 34 35  2  0  0  0  0
 36 46  1  0  0  0  0
 37 38  1  0  0  0  0
 38 33  1  6  0  0  0
 38 43  1  0  0  0  0
 39 42  1  0  0  0  0
 40 45  1  0  0  0  0
 41 37  1  0  0  0  0
 42 41  1  0  0  0  0
 44 47  2  0  0  0  0
 44 36  1  0  0  0  0
 45 43  2  0  0  0  0
 46 40  2  0  0  0  0
 47 42  2  0  0  0  0
M  END
>  <MODEL>
9

>  <REMARK>
 VINA RESULT:      -5.0      4.605      8.142
  Name = 
  10 active torsions:
  status: ('A' for Active; 'I' for Inactive)
    1  A    between atoms: N_3  and  C_5
    2  A    between atoms: C_6  and  C_38
    3  A    between atoms: C_12  and  O_18
    4  A    between atoms: N_16  and  N_24
    5  A    between atoms: N_16  and  N_32
    6  A    between atoms: O_18  and  C_41
    7  A    between atoms: C_21  and  C_26
    8  A    between atoms: C_21  and  C_45
    9  A    between atoms: C_27  and  N_32
   10  A    between atoms: C_29  and  C_39
                            x       y       z     vdW  Elec       q    Type
                         _______ _______ _______ _____ _____    ______ ____

>  <TORSDO>
F 10

$$$$
