=
 OpenBabel11042422593D

 32 37  0  0  1  0  0  0  0  0999 V2000
  157.5370  211.2970  137.0110 C   0  0  0  0  0  3  0  0  0  0  0  0
  161.8290  208.1630  139.8010 N   0  0  0  0  0  0  0  0  0  0  0  0
  159.1520  212.5540  139.9810 C   0  0  0  0  0  0  0  0  0  0  0  0
  159.2440  209.8730  137.8180 N   0  0  0  0  0  2  0  0  0  0  0  0
  160.4460  209.6560  138.5460 C   0  0  0  0  0  0  0  0  0  0  0  0
  161.2670  210.7360  138.9050 C   0  0  0  0  0  0  0  0  0  0  0  0
  159.6740  212.9240  138.5980 C   0  0  2  0  0  3  0  0  0  0  0  0
  162.0550  213.1830  138.6830 C   0  0  0  0  0  2  0  0  0  0  0  0
  158.9460  211.0100  137.2650 C   0  0  2  0  0  3  0  0  0  0  0  0
  159.8870  212.1830  137.2950 C   0  0  2  0  0  3  0  0  0  0  0  0
  161.0130  212.1390  138.3400 C   0  0  1  0  0  0  0  0  0  0  0  0
  156.6910  211.3830  138.0440 C   0  0  0  0  0  0  0  0  0  0  0  0
  162.3930  210.4790  139.7060 C   0  0  0  0  0  3  0  0  0  0  0  0
  157.1710  211.1820  139.3810 N   0  0  0  0  0  2  0  0  0  0  0  0
  159.8520  212.9770  141.0730 C   0  0  0  0  0  3  0  0  0  0  0  0
  161.2270  213.5920  141.0550 C   0  0  0  0  0  0  0  0  0  0  0  0
  161.8830  213.5370  139.9300 C   0  0  0  0  0  3  0  0  0  0  0  0
  157.6890  212.2710  140.2020 C   0  0  0  0  0  2  0  0  0  0  0  0
  160.7360  208.3740  139.0200 C   0  0  0  0  0  3  0  0  0  0  0  0
  162.6560  209.1830  140.1490 C   0  0  0  0  0  3  0  0  0  0  0  0
  153.2530  212.7150  137.6170 N   0  0  0  0  0  0  0  0  0  0  0  0
  154.6380  213.0100  137.9440 C   0  0  0  0  0  2  0  0  0  0  0  0
  153.1620  211.4520  137.3640 C   0  0  0  0  0  3  0  0  0  0  0  0
  155.2650  211.6660  137.8180 C   0  0  0  0  0  0  0  0  0  0  0  0
  154.4030  210.7680  137.4800 N   0  0  0  0  0  0  0  0  0  0  0  0
  161.8990  214.0240  142.3090 C   0  0  0  0  0  2  0  0  0  0  0  0
  162.1440  212.8240  143.2100 C   0  0  0  0  0  2  0  0  0  0  0  0
  161.6850  213.1080  144.5620 N   0  0  0  0  0  0  0  0  0  0  0  0
  160.4040  212.6460  145.0210 C   0  0  0  0  0  0  0  0  0  0  0  0
  162.6050  213.7770  145.4680 C   0  0  0  0  0  1  0  0  0  0  0  0
  159.9350  212.9340  146.4080 C   0  0  0  0  0  1  0  0  0  0  0  0
  159.6530  211.9880  144.2530 O   0  0  0  0  0  0  0  0  0  0  0  0
  1 12  2  0  0  0  0
  2 20  1  0  0  0  0
  3 18  1  0  0  0  0
  3 15  2  0  0  0  0
  4  5  1  0  0  0  0
  5  6  2  0  0  0  0
  5 19  1  0  0  0  0
  6 13  1  0  0  0  0
  7  3  1  1  0  0  0
  8 17  1  0  0  0  0
  9  1  1  1  0  0  0
  9 10  1  0  0  0  0
  9  4  1  0  0  0  0
 10 11  1  0  0  0  0
 10  7  1  0  0  0  0
 11  7  1  0  0  0  0
 11  8  1  0  0  0  0
 11  6  1  0  0  0  0
 12 14  1  0  0  0  0
 13 20  2  0  0  0  0
 14 18  1  0  0  0  0
 16 15  1  0  0  0  0
 16 26  1  0  0  0  0
 17 16  2  0  0  0  0
 19  2  2  0  0  0  0
 21 22  1  0  0  0  0
 23 25  1  0  0  0  0
 23 21  2  0  0  0  0
 24 22  1  0  0  0  0
 24 12  1  0  0  0  0
 25 24  2  0  0  0  0
 26 27  1  0  0  0  0
 27 28  1  0  0  0  0
 28 29  1  0  0  0  0
 28 30  1  0  0  0  0
 29 31  1  0  0  0  0
 32 29  2  0  0  0  0
M  END
>  <MODEL>
1

>  <REMARK>
 VINA RESULT:      -4.1      0.000      0.000
  Name = 
  4 active torsions:
  status: ('A' for Active; 'I' for Inactive)
    1  A    between atoms: N_2  and  C_7
    2  A    between atoms: C_7  and  C_16
    3  A    between atoms: C_16  and  C_24
    4  A    between atoms: C_18  and  C_30
                            x       y       z     vdW  Elec       q    Type
                         _______ _______ _______ _____ _____    ______ ____

>  <TORSDO>
F 4

$$$$
=
 OpenBabel11042422593D

 32 37  0  0  1  0  0  0  0  0999 V2000
  157.9170  213.7830  155.3720 C   0  0  0  0  0  3  0  0  0  0  0  0
  160.8810  211.5130  150.6730 N   0  0  0  0  0  0  0  0  0  0  0  0
  158.6330  210.2570  155.1270 C   0  0  0  0  0  0  0  0  0  0  0  0
  159.1750  213.2180  153.4510 N   0  0  0  0  0  2  0  0  0  0  0  0
  160.0730  212.3620  152.7560 C   0  0  0  0  0  0  0  0  0  0  0  0
  160.8260  211.4040  153.4510 C   0  0  0  0  0  0  0  0  0  0  0  0
  159.5830  211.1920  155.8650 C   0  0  2  0  0  3  0  0  0  0  0  0
  161.8350  210.4130  155.6100 C   0  0  0  0  0  2  0  0  0  0  0  0
  159.1520  213.3200  154.7450 C   0  0  2  0  0  3  0  0  0  0  0  0
  160.1280  212.5830  155.6220 C   0  0  2  0  0  3  0  0  0  0  0  0
  160.8700  211.3980  154.9840 C   0  0  1  0  0  0  0  0  0  0  0  0
  156.8040  213.0540  155.2400 C   0  0  0  0  0  0  0  0  0  0  0  0
  161.6270  210.5190  152.7090 C   0  0  0  0  0  3  0  0  0  0  0  0
  156.8320  211.8370  154.4780 N   0  0  0  0  0  2  0  0  0  0  0  0
  158.9940  208.9490  154.9810 C   0  0  0  0  0  3  0  0  0  0  0  0
  160.3520  208.3700  155.2820 C   0  0  0  0  0  0  0  0  0  0  0  0
  161.3160  209.2160  155.5130 C   0  0  0  0  0  3  0  0  0  0  0  0
  157.1560  210.5460  155.0720 C   0  0  0  0  0  2  0  0  0  0  0  0
  160.1020  212.3900  151.3590 C   0  0  0  0  0  3  0  0  0  0  0  0
  161.6380  210.5860  151.3150 C   0  0  0  0  0  3  0  0  0  0  0  0
  153.5070  214.4530  156.2150 N   0  0  0  0  0  0  0  0  0  0  0  0
  154.5070  214.3150  155.1690 C   0  0  0  0  0  3  0  0  0  0  0  0
  153.9330  213.8260  157.2600 C   0  0  0  0  0  2  0  0  0  0  0  0
  155.5440  213.4970  155.8560 C   0  0  0  0  0  0  0  0  0  0  0  0
  155.2030  213.2170  157.0680 N   0  0  0  0  0  0  0  0  0  0  0  0
  160.6370  206.9230  155.0900 C   0  0  0  0  0  2  0  0  0  0  0  0
  161.8260  206.7440  154.1610 C   0  0  0  0  0  2  0  0  0  0  0  0
  161.4500  205.9330  153.0120 N   0  0  0  0  0  0  0  0  0  0  0  0
  161.7870  206.3420  151.6750 C   0  0  0  0  0  0  0  0  0  0  0  0
  160.8200  204.6470  153.2620 C   0  0  0  0  0  1  0  0  0  0  0  0
  161.4030  205.5090  150.4980 C   0  0  0  0  0  1  0  0  0  0  0  0
  162.4130  207.4160  151.4780 O   0  0  0  0  0  0  0  0  0  0  0  0
  2 20  2  0  0  0  0
  2 19  1  0  0  0  0
  4  9  1  0  0  0  0
  5  6  1  0  0  0  0
  5  4  1  0  0  0  0
  6 11  1  0  0  0  0
  7  3  1  6  0  0  0
  9  1  1  1  0  0  0
  9 10  1  0  0  0  0
 10  7  1  0  0  0  0
 11  8  1  0  0  0  0
 11 10  1  0  0  0  0
 11  7  1  0  0  0  0
 12  1  2  0  0  0  0
 12 24  1  0  0  0  0
 13  6  2  0  0  0  0
 14 18  1  0  0  0  0
 14 12  1  0  0  0  0
 15  3  2  0  0  0  0
 15 16  1  0  0  0  0
 16 17  2  0  0  0  0
 17  8  1  0  0  0  0
 18  3  1  0  0  0  0
 19  5  2  0  0  0  0
 20 13  1  0  0  0  0
 21 23  1  0  0  0  0
 22 24  1  0  0  0  0
 22 21  2  0  0  0  0
 24 25  2  0  0  0  0
 25 23  1  0  0  0  0
 26 16  1  0  0  0  0
 27 26  1  0  0  0  0
 28 30  1  0  0  0  0
 28 27  1  0  0  0  0
 29 28  1  0  0  0  0
 31 29  1  0  0  0  0
 32 29  2  0  0  0  0
M  END
>  <MODEL>
2

>  <REMARK>
 VINA RESULT:      -3.6     11.944     15.287
  Name = 
  4 active torsions:
  status: ('A' for Active; 'I' for Inactive)
    1  A    between atoms: N_2  and  C_7
    2  A    between atoms: C_7  and  C_16
    3  A    between atoms: C_16  and  C_24
    4  A    between atoms: C_18  and  C_30
                            x       y       z     vdW  Elec       q    Type
                         _______ _______ _______ _____ _____    ______ ____

>  <TORSDO>
F 4

$$$$
=
 OpenBabel11042422593D

 32 37  0  0  1  0  0  0  0  0999 V2000
  162.9340  212.3410  138.4880 C   0  0  0  0  0  3  0  0  0  0  0  0
  157.3800  214.3140  139.6170 N   0  0  0  0  0  0  0  0  0  0  0  0
  162.0030  213.5670  141.7500 C   0  0  0  0  0  0  0  0  0  0  0  0
  160.6560  212.9590  138.6370 N   0  0  0  0  0  2  0  0  0  0  0  0
  159.4700  213.1780  139.3900 C   0  0  0  0  0  0  0  0  0  0  0  0
  159.3520  212.6750  140.6950 C   0  0  0  0  0  0  0  0  0  0  0  0
  161.9080  212.0820  141.4230 C   0  0  2  0  0  3  0  0  0  0  0  0
  160.0710  211.1130  142.6190 C   0  0  0  0  0  2  0  0  0  0  0  0
  161.5840  212.1260  139.0020 C   0  0  2  0  0  3  0  0  0  0  0  0
  161.4500  211.2700  140.2310 C   0  0  2  0  0  3  0  0  0  0  0  0
  160.3910  211.6990  141.2600 C   0  0  1  0  0  0  0  0  0  0  0  0
  163.5830  213.4670  138.8040 C   0  0  0  0  0  0  0  0  0  0  0  0
  158.2000  213.0000  141.4310 C   0  0  0  0  0  3  0  0  0  0  0  0
  162.9440  214.4530  139.6290 N   0  0  0  0  0  2  0  0  0  0  0  0
  161.5510  213.9940  142.9640 C   0  0  0  0  0  3  0  0  0  0  0  0
  160.7530  213.1760  143.9450 C   0  0  0  0  0  0  0  0  0  0  0  0
  160.2880  212.0350  143.5210 C   0  0  0  0  0  3  0  0  0  0  0  0
  163.0370  214.4380  141.0850 C   0  0  0  0  0  2  0  0  0  0  0  0
  158.4760  214.0130  138.8730 C   0  0  0  0  0  3  0  0  0  0  0  0
  157.2230  213.8270  140.8760 C   0  0  0  0  0  3  0  0  0  0  0  0
  167.2050  213.7240  138.0340 N   0  0  0  0  0  0  0  0  0  0  0  0
  166.1870  213.1930  138.9260 C   0  0  0  0  0  2  0  0  0  0  0  0
  166.6110  214.3990  137.1070 C   0  0  0  0  0  3  0  0  0  0  0  0
  164.9420  213.7130  138.2970 C   0  0  0  0  0  0  0  0  0  0  0  0
  165.1960  214.4110  137.2420 N   0  0  0  0  0  0  0  0  0  0  0  0
  160.3130  213.7420  145.2490 C   0  0  0  0  0  2  0  0  0  0  0  0
  159.8900  212.6240  146.1870 C   0  0  0  0  0  2  0  0  0  0  0  0
  159.2600  213.1770  147.3780 N   0  0  0  0  0  0  0  0  0  0  0  0
  157.8760  212.9230  147.6690 C   0  0  0  0  0  0  0  0  0  0  0  0
  160.0990  213.9030  148.3180 C   0  0  0  0  0  1  0  0  0  0  0  0
  157.2320  213.4880  148.8910 C   0  0  0  0  0  1  0  0  0  0  0  0
  157.1820  212.2160  146.8920 O   0  0  0  0  0  0  0  0  0  0  0  0
  1 12  2  0  0  0  0
  2 20  1  0  0  0  0
  3 15  2  0  0  0  0
  4  9  1  0  0  0  0
  4  5  1  0  0  0  0
  5  6  2  0  0  0  0
  6 11  1  0  0  0  0
  6 13  1  0  0  0  0
  7  3  1  6  0  0  0
  8 17  1  0  0  0  0
  9  1  1  1  0  0  0
  9 10  1  0  0  0  0
 10 11  1  0  0  0  0
 10  7  1  0  0  0  0
 11  7  1  0  0  0  0
 11  8  1  0  0  0  0
 12 14  1  0  0  0  0
 14 18  1  0  0  0  0
 15 16  1  0  0  0  0
 16 26  1  0  0  0  0
 17 16  2  0  0  0  0
 18  3  1  0  0  0  0
 19  5  1  0  0  0  0
 19  2  2  0  0  0  0
 20 13  2  0  0  0  0
 21 22  1  0  0  0  0
 23 25  1  0  0  0  0
 23 21  2  0  0  0  0
 24 12  1  0  0  0  0
 24 22  1  0  0  0  0
 25 24  2  0  0  0  0
 26 27  1  0  0  0  0
 27 28  1  0  0  0  0
 28 29  1  0  0  0  0
 28 30  1  0  0  0  0
 29 31  1  0  0  0  0
 32 29  2  0  0  0  0
M  END
>  <MODEL>
3

>  <REMARK>
 VINA RESULT:      -3.2      3.098      6.448
  Name = 
  4 active torsions:
  status: ('A' for Active; 'I' for Inactive)
    1  A    between atoms: N_2  and  C_7
    2  A    between atoms: C_7  and  C_16
    3  A    between atoms: C_16  and  C_24
    4  A    between atoms: C_18  and  C_30
                            x       y       z     vdW  Elec       q    Type
                         _______ _______ _______ _____ _____    ______ ____

>  <TORSDO>
F 4

$$$$
=
 OpenBabel11042422593D

 32 37  0  0  1  0  0  0  0  0999 V2000
  159.5330  212.3260  152.6100 C   0  0  0  0  0  3  0  0  0  0  0  0
  163.2260  210.4490  156.9520 N   0  0  0  0  0  0  0  0  0  0  0  0
  161.2090  209.1390  152.4040 C   0  0  0  0  0  0  0  0  0  0  0  0
  160.8450  211.8370  154.5160 N   0  0  0  0  0  2  0  0  0  0  0  0
  161.4770  210.9120  155.3900 C   0  0  0  0  0  0  0  0  0  0  0  0
  161.1270  209.5520  155.3630 C   0  0  0  0  0  0  0  0  0  0  0  0
  159.8110  209.2430  152.9990 C   0  0  2  0  0  3  0  0  0  0  0  0
  159.5530  207.6080  154.7320 C   0  0  0  0  0  2  0  0  0  0  0  0
  159.7900  211.5450  153.8170 C   0  0  2  0  0  3  0  0  0  0  0  0
  159.1040  210.2110  153.9250 C   0  0  2  0  0  3  0  0  0  0  0  0
  159.9140  209.0680  154.5590 C   0  0  1  0  0  0  0  0  0  0  0  0
  160.4170  212.2880  151.6060 C   0  0  0  0  0  0  0  0  0  0  0  0
  161.8480  208.6630  156.1780 C   0  0  0  0  0  3  0  0  0  0  0  0
  161.6070  211.4960  151.7310 N   0  0  0  0  0  2  0  0  0  0  0  0
  161.8380  207.9290  152.4330 C   0  0  0  0  0  3  0  0  0  0  0  0
  161.3810  206.7160  153.2020 C   0  0  0  0  0  0  0  0  0  0  0  0
  160.4190  206.8910  154.0620 C   0  0  0  0  0  3  0  0  0  0  0  0
  161.6630  210.0940  151.3310 C   0  0  0  0  0  2  0  0  0  0  0  0
  162.5450  211.3390  156.1830 C   0  0  0  0  0  3  0  0  0  0  0  0
  162.9000  209.1310  156.9660 C   0  0  0  0  0  3  0  0  0  0  0  0
  159.2890  214.4530  148.8100 N   0  0  0  0  0  0  0  0  0  0  0  0
  159.0070  213.9430  150.1410 C   0  0  0  0  0  2  0  0  0  0  0  0
  160.4090  213.9450  148.4160 C   0  0  0  0  0  3  0  0  0  0  0  0
  160.1870  213.0680  150.3800 C   0  0  0  0  0  0  0  0  0  0  0  0
  160.9960  213.0750  149.3750 N   0  0  0  0  0  0  0  0  0  0  0  0
  162.1450  205.4400  153.1600 C   0  0  0  0  0  2  0  0  0  0  0  0
  161.2300  204.2980  152.7500 C   0  0  0  0  0  2  0  0  0  0  0  0
  161.1060  204.2480  151.3000 N   0  0  0  0  0  0  0  0  0  0  0  0
  161.1800  203.0000  150.5930 C   0  0  0  0  0  0  0  0  0  0  0  0
  160.7960  205.4850  150.6010 C   0  0  0  0  0  1  0  0  0  0  0  0
  161.0500  202.9490  149.1070 C   0  0  0  0  0  1  0  0  0  0  0  0
  161.3590  201.9230  151.2210 O   0  0  0  0  0  0  0  0  0  0  0  0
  2 20  1  0  0  0  0
  3 15  2  0  0  0  0
  4  5  1  0  0  0  0
  5 19  1  0  0  0  0
  6  5  2  0  0  0  0
  6 13  1  0  0  0  0
  7  3  1  1  0  0  0
  7 10  1  0  0  0  0
  7 11  1  0  0  0  0
  9  1  1  6  0  0  0
  9 10  1  0  0  0  0
  9  4  1  0  0  0  0
 10 11  1  0  0  0  0
 11  8  1  0  0  0  0
 11  6  1  0  0  0  0
 12 14  1  0  0  0  0
 12  1  2  0  0  0  0
 13 20  2  0  0  0  0
 15 16  1  0  0  0  0
 16 17  2  0  0  0  0
 17  8  1  0  0  0  0
 18 14  1  0  0  0  0
 18  3  1  0  0  0  0
 19  2  2  0  0  0  0
 21 22  1  0  0  0  0
 22 24  1  0  0  0  0
 23 21  2  0  0  0  0
 23 25  1  0  0  0  0
 24 12  1  0  0  0  0
 25 24  2  0  0  0  0
 26 16  1  0  0  0  0
 27 26  1  0  0  0  0
 28 27  1  0  0  0  0
 29 32  2  0  0  0  0
 29 28  1  0  0  0  0
 30 28  1  0  0  0  0
 31 29  1  0  0  0  0
M  END
>  <MODEL>
4

>  <REMARK>
 VINA RESULT:      -2.8      9.905     14.514
  Name = 
  4 active torsions:
  status: ('A' for Active; 'I' for Inactive)
    1  A    between atoms: N_2  and  C_7
    2  A    between atoms: C_7  and  C_16
    3  A    between atoms: C_16  and  C_24
    4  A    between atoms: C_18  and  C_30
                            x       y       z     vdW  Elec       q    Type
                         _______ _______ _______ _____ _____    ______ ____

>  <TORSDO>
F 4

$$$$
=
 OpenBabel11042422593D

 32 37  0  0  1  0  0  0  0  0999 V2000
  161.6670  206.0230  152.0540 C   0  0  0  0  0  3  0  0  0  0  0  0
  158.6500  211.1290  152.9740 N   0  0  0  0  0  0  0  0  0  0  0  0
  161.4140  208.5440  149.4870 C   0  0  0  0  0  0  0  0  0  0  0  0
  160.4930  207.9520  152.7540 N   0  0  0  0  0  2  0  0  0  0  0  0
  160.2040  209.3410  152.6550 C   0  0  0  0  0  0  0  0  0  0  0  0
  161.0640  210.1990  151.9520 C   0  0  0  0  0  0  0  0  0  0  0  0
  162.5990  208.5280  150.4450 C   0  0  2  0  0  3  0  0  0  0  0  0
  163.3280  210.7730  150.8560 C   0  0  0  0  0  2  0  0  0  0  0  0
  161.6340  207.4390  152.4080 C   0  0  2  0  0  3  0  0  0  0  0  0
  162.7790  208.2880  151.9290 C   0  0  2  0  0  3  0  0  0  0  0  0
  162.4360  209.7140  151.4660 C   0  0  1  0  0  0  0  0  0  0  0  0
  160.9620  205.5960  150.9990 C   0  0  0  0  0  0  0  0  0  0  0  0
  160.6860  211.5440  151.8010 C   0  0  0  0  0  3  0  0  0  0  0  0
  160.1760  206.5270  150.2400 N   0  0  0  0  0  2  0  0  0  0  0  0
  161.3160  209.5720  148.5950 C   0  0  0  0  0  3  0  0  0  0  0  0
  162.1450  210.8290  148.6030 C   0  0  0  0  0  0  0  0  0  0  0  0
  162.8800  211.0440  149.6580 C   0  0  0  0  0  3  0  0  0  0  0  0
  160.7150  207.2650  149.1040 C   0  0  0  0  0  2  0  0  0  0  0  0
  158.9880  209.8240  153.1460 C   0  0  0  0  0  3  0  0  0  0  0  0
  159.4690  211.9920  152.3170 C   0  0  0  0  0  3  0  0  0  0  0  0
  161.0820  201.9000  150.6830 N   0  0  0  0  0  0  0  0  0  0  0  0
  161.1610  203.0470  151.5730 C   0  0  0  0  0  2  0  0  0  0  0  0
  160.8860  202.3380  149.4840 C   0  0  0  0  0  3  0  0  0  0  0  0
  160.9710  204.1740  150.6210 C   0  0  0  0  0  0  0  0  0  0  0  0
  160.8110  203.7550  149.4120 N   0  0  0  0  0  0  0  0  0  0  0  0
  161.9560  211.8880  147.5760 C   0  0  0  0  0  2  0  0  0  0  0  0
  161.0140  212.9600  148.0980 C   0  0  0  0  0  2  0  0  0  0  0  0
  159.7270  212.8710  147.4250 N   0  0  0  0  0  0  0  0  0  0  0  0
  158.5170  213.2840  148.0810 C   0  0  0  0  0  0  0  0  0  0  0  0
  159.7150  212.4540  146.0310 C   0  0  0  0  0  1  0  0  0  0  0  0
  157.1980  213.1940  147.3890 C   0  0  0  0  0  1  0  0  0  0  0  0
  158.5530  213.7280  149.2590 O   0  0  0  0  0  0  0  0  0  0  0  0
  2 19  1  0  0  0  0
  5  4  1  0  0  0  0
  5 19  2  0  0  0  0
  6  5  1  0  0  0  0
  7  3  1  1  0  0  0
  7 11  1  0  0  0  0
  7 10  1  0  0  0  0
  8 11  1  0  0  0  0
  9  1  1  6  0  0  0
  9  4  1  0  0  0  0
 10  9  1  0  0  0  0
 11 10  1  0  0  0  0
 11  6  1  0  0  0  0
 12  1  2  0  0  0  0
 13  6  2  0  0  0  0
 13 20  1  0  0  0  0
 14 12  1  0  0  0  0
 15 16  1  0  0  0  0
 15  3  2  0  0  0  0
 16 17  2  0  0  0  0
 17  8  1  0  0  0  0
 18  3  1  0  0  0  0
 18 14  1  0  0  0  0
 20  2  2  0  0  0  0
 21 22  1  0  0  0  0
 23 21  2  0  0  0  0
 24 12  1  0  0  0  0
 24 22  1  0  0  0  0
 25 23  1  0  0  0  0
 25 24  2  0  0  0  0
 26 27  1  0  0  0  0
 26 16  1  0  0  0  0
 28 29  1  0  0  0  0
 28 27  1  0  0  0  0
 29 32  2  0  0  0  0
 30 28  1  0  0  0  0
 31 29  1  0  0  0  0
M  END
>  <MODEL>
5

>  <REMARK>
 VINA RESULT:      -1.7      7.651     12.484
  Name = 
  4 active torsions:
  status: ('A' for Active; 'I' for Inactive)
    1  A    between atoms: N_2  and  C_7
    2  A    between atoms: C_7  and  C_16
    3  A    between atoms: C_16  and  C_24
    4  A    between atoms: C_18  and  C_30
                            x       y       z     vdW  Elec       q    Type
                         _______ _______ _______ _____ _____    ______ ____

>  <TORSDO>
F 4

$$$$
