=
 OpenBabel11042421253D

 33 36  0  0  1  0  0  0  0  0999 V2000
  161.2110  205.8850  153.5860 C   0  0  0  0  0  3  0  0  0  0  0  0
  161.5180  208.4750  152.5950 C   0  0  0  0  0  3  0  0  0  0  0  0
  161.8400  206.0880  152.3540 C   0  0  0  0  0  0  0  0  0  0  0  0
  160.7390  206.9740  154.3230 C   0  0  0  0  0  3  0  0  0  0  0  0
  160.8900  208.2740  153.8330 C   0  0  0  0  0  0  0  0  0  0  0  0
  162.3070  204.9950  151.6340 O   0  0  0  0  0  1  0  0  0  0  0  0
  161.9990  207.3870  151.8500 C   0  0  0  0  0  0  0  0  0  0  0  0
  160.9720  210.5980  154.6170 C   0  0  0  0  0  3  0  0  0  0  0  0
  160.3930  209.4010  154.6340 C   0  0  0  0  0  3  0  0  0  0  0  0
  159.9540  211.2060  156.7650 C   0  0  0  0  0  3  0  0  0  0  0  0
  158.6520  211.4180  156.8980 C   0  0  0  0  0  3  0  0  0  0  0  0
  160.4430  211.7200  155.4460 C   0  0  2  0  0  3  0  0  0  0  0  0
  159.1790  212.2480  154.8510 C   0  0  0  0  0  0  0  0  0  0  0  0
  158.1660  212.0820  155.6980 C   0  0  0  0  0  0  0  0  0  0  0  0
  155.9100  211.8330  154.6600 O   0  0  0  0  0  0  0  0  0  0  0  0
  156.3430  213.5290  156.1280 O   0  0  0  0  0  1  0  0  0  0  0  0
  156.7680  212.5160  155.5120 C   0  0  0  0  0  0  0  0  0  0  0  0
  158.6880  211.9590  152.4450 C   0  0  0  0  0  1  0  0  0  0  0  0
  159.1210  212.9350  153.5230 C   0  0  0  0  0  2  0  0  0  0  0  0
  162.6330  207.5740  150.6150 O   0  0  0  0  0  0  0  0  0  0  0  0
  162.1100  208.4190  149.5940 C   0  0  0  0  0  2  0  0  0  0  0  0
  161.1160  207.6960  148.8140 N   0  0  0  0  0  2  0  0  0  0  0  0
  162.0190  206.5290  146.8370 C   0  0  0  0  0  3  0  0  0  0  0  0
  162.3100  205.3400  146.1630 C   0  0  0  0  0  3  0  0  0  0  0  0
  161.1050  205.2610  148.6830 C   0  0  0  0  0  3  0  0  0  0  0  0
  161.4130  206.4930  148.1000 C   0  0  0  0  0  0  0  0  0  0  0  0
  161.3950  204.0630  148.0140 C   0  0  0  0  0  0  0  0  0  0  0  0
  161.9990  204.1110  146.7500 C   0  0  0  0  0  3  0  0  0  0  0  0
  160.7880  200.6360  148.9760 N   0  0  0  0  0  0  0  0  0  0  0  0
  161.0810  202.7660  148.6340 C   0  0  0  0  0  0  0  0  0  0  0  0
  160.4710  201.3110  150.0710 N   0  0  0  0  0  2  0  0  0  0  0  0
  161.1800  201.5240  148.0420 C   0  0  0  0  0  3  0  0  0  0  0  0
  160.6380  202.6110  149.8940 N   0  0  0  0  0  0  0  0  0  0  0  0
  1  4  1  0  0  0  0
  2  5  1  0  0  0  0
  3  1  2  0  0  0  0
  5  4  2  0  0  0  0
  5  9  1  0  0  0  0
  6  3  1  0  0  0  0
  7  3  1  0  0  0  0
  7  2  2  0  0  0  0
  8  9  2  0  0  0  0
 10 11  2  0  0  0  0
 12  8  1  6  0  0  0
 12 10  1  0  0  0  0
 13 12  1  0  0  0  0
 13 14  2  0  0  0  0
 14 11  1  0  0  0  0
 15 17  2  0  0  0  0
 17 14  1  0  0  0  0
 17 16  1  0  0  0  0
 18 19  1  0  0  0  0
 19 13  1  0  0  0  0
 20  7  1  0  0  0  0
 21 20  1  0  0  0  0
 22 21  1  0  0  0  0
 23 26  1  0  0  0  0
 24 28  1  0  0  0  0
 24 23  2  0  0  0  0
 26 25  2  0  0  0  0
 26 22  1  0  0  0  0
 27 30  1  0  0  0  0
 27 25  1  0  0  0  0
 28 27  2  0  0  0  0
 29 31  1  0  0  0  0
 30 33  2  0  0  0  0
 32 30  1  0  0  0  0
 32 29  2  0  0  0  0
 33 31  1  0  0  0  0
M  END
>  <MODEL>
1

>  <REMARK>
 VINA RESULT:      -8.6      0.000      0.000
  Name = 
  9 active torsions:
  status: ('A' for Active; 'I' for Inactive)
    1  A    between atoms: C_4  and  C_24
    2  A    between atoms: C_5  and  C_21
    3  A    between atoms: C_9  and  C_10
    4  A    between atoms: C_17  and  C_25
    5  A    between atoms: C_20  and  N_32
    6  A    between atoms: C_26  and  C_30
    7  A    between atoms: O_28  and  C_31
    8  A    between atoms: O_28  and  C_33
    9  A    between atoms: N_32  and  C_33
                            x       y       z     vdW  Elec       q    Type
                         _______ _______ _______ _____ _____    ______ ____

>  <TORSDO>
F 9

$$$$
=
 OpenBabel11042421253D

 33 36  0  0  1  0  0  0  0  0999 V2000
  162.3250  209.3620  150.7930 C   0  0  0  0  0  3  0  0  0  0  0  0
  160.8960  208.0680  152.8110 C   0  0  0  0  0  3  0  0  0  0  0  0
  161.9040  208.0420  150.6100 C   0  0  0  0  0  0  0  0  0  0  0  0
  162.0300  210.0360  151.9820 C   0  0  0  0  0  3  0  0  0  0  0  0
  161.3150  209.3950  152.9960 C   0  0  0  0  0  0  0  0  0  0  0  0
  162.2010  207.3860  149.4210 O   0  0  0  0  0  1  0  0  0  0  0  0
  161.1850  207.3850  151.6190 C   0  0  0  0  0  0  0  0  0  0  0  0
  160.5940  211.3930  154.2230 C   0  0  0  0  0  3  0  0  0  0  0  0
  161.0110  210.1300  154.2310 C   0  0  0  0  0  3  0  0  0  0  0  0
  160.1290  211.1340  156.6190 C   0  0  0  0  0  3  0  0  0  0  0  0
  158.8990  211.1940  157.1130 C   0  0  0  0  0  3  0  0  0  0  0  0
  160.2970  212.1120  155.4970 C   0  0  2  0  0  3  0  0  0  0  0  0
  158.9370  212.7250  155.4360 C   0  0  0  0  0  0  0  0  0  0  0  0
  158.1530  212.2010  156.3750 C   0  0  0  0  0  0  0  0  0  0  0  0
  156.4510  213.8080  157.2420 O   0  0  0  0  0  1  0  0  0  0  0  0
  155.8280  211.7590  156.4460 O   0  0  0  0  0  0  0  0  0  0  0  0
  156.7590  212.5740  156.6830 C   0  0  0  0  0  0  0  0  0  0  0  0
  157.8440  213.2720  153.2870 C   0  0  0  0  0  1  0  0  0  0  0  0
  158.5760  213.8300  154.4940 C   0  0  0  0  0  2  0  0  0  0  0  0
  160.7680  206.0630  151.4200 O   0  0  0  0  0  0  0  0  0  0  0  0
  161.4800  204.9390  151.9290 C   0  0  0  0  0  2  0  0  0  0  0  0
  160.7840  203.7110  151.5770 N   0  0  0  0  0  2  0  0  0  0  0  0
  160.7410  201.6970  150.1520 C   0  0  0  0  0  3  0  0  0  0  0  0
  160.8630  201.1050  148.8920 C   0  0  0  0  0  3  0  0  0  0  0  0
  161.2090  203.8630  149.1810 C   0  0  0  0  0  3  0  0  0  0  0  0
  160.9150  203.0800  150.3010 C   0  0  0  0  0  0  0  0  0  0  0  0
  161.3320  203.2770  147.9130 C   0  0  0  0  0  0  0  0  0  0  0  0
  161.1570  201.8930  147.7760 C   0  0  0  0  0  3  0  0  0  0  0  0
  162.3770  205.6760  145.4250 N   0  0  0  0  0  0  0  0  0  0  0  0
  161.6300  204.1040  146.7330 C   0  0  0  0  0  0  0  0  0  0  0  0
  161.6740  204.8050  144.7180 N   0  0  0  0  0  0  0  0  0  0  0  0
  162.3730  205.2670  146.7080 C   0  0  0  0  0  2  0  0  0  0  0  0
  161.2050  203.8350  145.4870 N   0  0  0  0  0  0  0  0  0  0  0  0
  1  4  1  0  0  0  0
  2  5  1  0  0  0  0
  3  1  2  0  0  0  0
  3  7  1  0  0  0  0
  4  5  2  0  0  0  0
  5  9  1  0  0  0  0
  6  3  1  0  0  0  0
  7  2  2  0  0  0  0
  8  9  2  0  0  0  0
 10 11  2  0  0  0  0
 12  8  1  6  0  0  0
 12 10  1  0  0  0  0
 13 12  1  0  0  0  0
 13 14  2  0  0  0  0
 14 17  1  0  0  0  0
 14 11  1  0  0  0  0
 16 17  2  0  0  0  0
 17 15  1  0  0  0  0
 18 19  1  0  0  0  0
 19 13  1  0  0  0  0
 20  7  1  0  0  0  0
 20 21  1  0  0  0  0
 22 21  1  0  0  0  0
 23 26  1  0  0  0  0
 24 23  2  0  0  0  0
 25 26  2  0  0  0  0
 26 22  1  0  0  0  0
 27 25  1  0  0  0  0
 28 27  2  0  0  0  0
 28 24  1  0  0  0  0
 29 32  1  0  0  0  0
 30 27  1  0  0  0  0
 31 29  2  0  0  0  0
 31 33  1  0  0  0  0
 32 30  1  0  0  0  0
 33 30  2  0  0  0  0
M  END
>  <MODEL>
2

>  <REMARK>
 VINA RESULT:      -8.3      1.796      3.246
  Name = 
  9 active torsions:
  status: ('A' for Active; 'I' for Inactive)
    1  A    between atoms: C_4  and  C_24
    2  A    between atoms: C_5  and  C_21
    3  A    between atoms: C_9  and  C_10
    4  A    between atoms: C_17  and  C_25
    5  A    between atoms: C_20  and  N_32
    6  A    between atoms: C_26  and  C_30
    7  A    between atoms: O_28  and  C_31
    8  A    between atoms: O_28  and  C_33
    9  A    between atoms: N_32  and  C_33
                            x       y       z     vdW  Elec       q    Type
                         _______ _______ _______ _____ _____    ______ ____

>  <TORSDO>
F 9

$$$$
=
 OpenBabel11042421253D

 33 36  0  0  1  0  0  0  0  0999 V2000
  160.5750  202.7390  151.2330 C   0  0  0  0  0  3  0  0  0  0  0  0
  161.4720  205.3520  150.8410 C   0  0  0  0  0  3  0  0  0  0  0  0
  160.7150  203.2380  149.9340 C   0  0  0  0  0  0  0  0  0  0  0  0
  160.8850  203.5420  152.3330 C   0  0  0  0  0  3  0  0  0  0  0  0
  161.3350  204.8510  152.1440 C   0  0  0  0  0  0  0  0  0  0  0  0
  160.4060  202.4260  148.8500 O   0  0  0  0  0  1  0  0  0  0  0  0
  161.1660  204.5500  149.7290 C   0  0  0  0  0  0  0  0  0  0  0  0
  160.8300  206.5860  153.8050 C   0  0  0  0  0  3  0  0  0  0  0  0
  161.6630  205.6700  153.3190 C   0  0  0  0  0  3  0  0  0  0  0  0
  160.5020  206.8820  156.2190 C   0  0  0  0  0  3  0  0  0  0  0  0
  159.6790  207.7950  156.7150 C   0  0  0  0  0  3  0  0  0  0  0  0
  161.1980  207.4030  154.9990 C   0  0  2  0  0  3  0  0  0  0  0  0
  160.6080  208.7700  154.8870 C   0  0  0  0  0  0  0  0  0  0  0  0
  159.7530  208.9860  155.8830 C   0  0  0  0  0  0  0  0  0  0  0  0
  157.9040  210.5910  155.3990 O   0  0  0  0  0  0  0  0  0  0  0  0
  159.3720  210.9770  157.1060 O   0  0  0  0  0  1  0  0  0  0  0  0
  159.0050  210.2270  156.1640 C   0  0  0  0  0  0  0  0  0  0  0  0
  162.0680  210.7000  154.3810 C   0  0  0  0  0  1  0  0  0  0  0  0
  161.0130  209.7560  153.8370 C   0  0  0  0  0  2  0  0  0  0  0  0
  161.3030  205.0360  148.4230 O   0  0  0  0  0  0  0  0  0  0  0  0
  160.6820  206.2350  147.9710 C   0  0  0  0  0  2  0  0  0  0  0  0
  161.6850  207.2750  147.7910 N   0  0  0  0  0  2  0  0  0  0  0  0
  162.0760  208.0960  150.0830 C   0  0  0  0  0  3  0  0  0  0  0  0
  162.2670  209.1590  150.9710 C   0  0  0  0  0  3  0  0  0  0  0  0
  161.8600  209.6630  148.2520 C   0  0  0  0  0  3  0  0  0  0  0  0
  161.8700  208.3460  148.7190 C   0  0  0  0  0  0  0  0  0  0  0  0
  162.0520  210.7350  149.1350 C   0  0  0  0  0  0  0  0  0  0  0  0
  162.2550  210.4740  150.4980 C   0  0  0  0  0  3  0  0  0  0  0  0
  162.5560  213.9550  147.5820 N   0  0  0  0  0  0  0  0  0  0  0  0
  162.0520  212.1200  148.6400 C   0  0  0  0  0  0  0  0  0  0  0  0
  161.5050  214.1640  148.3620 N   0  0  0  0  0  2  0  0  0  0  0  0
  162.9320  212.6700  147.7300 C   0  0  0  0  0  3  0  0  0  0  0  0
  161.1740  213.0650  149.0200 N   0  0  0  0  0  0  0  0  0  0  0  0
  1  4  1  0  0  0  0
  2  5  1  0  0  0  0
  3  1  2  0  0  0  0
  5  4  2  0  0  0  0
  5  9  1  0  0  0  0
  6  3  1  0  0  0  0
  7  3  1  0  0  0  0
  7  2  2  0  0  0  0
  9  8  2  0  0  0  0
 10 11  2  0  0  0  0
 12  8  1  6  0  0  0
 12 10  1  0  0  0  0
 13 12  1  0  0  0  0
 13 14  2  0  0  0  0
 14 17  1  0  0  0  0
 14 11  1  0  0  0  0
 15 17  2  0  0  0  0
 17 16  1  0  0  0  0
 19 18  1  0  0  0  0
 19 13  1  0  0  0  0
 20  7  1  0  0  0  0
 21 20  1  0  0  0  0
 22 21  1  0  0  0  0
 22 26  1  0  0  0  0
 23 24  1  0  0  0  0
 25 26  1  0  0  0  0
 25 27  2  0  0  0  0
 26 23  2  0  0  0  0
 27 28  1  0  0  0  0
 28 24  2  0  0  0  0
 29 32  2  0  0  0  0
 29 31  1  0  0  0  0
 30 33  2  0  0  0  0
 30 27  1  0  0  0  0
 31 33  1  0  0  0  0
 32 30  1  0  0  0  0
M  END
>  <MODEL>
3

>  <REMARK>
 VINA RESULT:      -8.1      2.834      5.930
  Name = 
  9 active torsions:
  status: ('A' for Active; 'I' for Inactive)
    1  A    between atoms: C_4  and  C_24
    2  A    between atoms: C_5  and  C_21
    3  A    between atoms: C_9  and  C_10
    4  A    between atoms: C_17  and  C_25
    5  A    between atoms: C_20  and  N_32
    6  A    between atoms: C_26  and  C_30
    7  A    between atoms: O_28  and  C_31
    8  A    between atoms: O_28  and  C_33
    9  A    between atoms: N_32  and  C_33
                            x       y       z     vdW  Elec       q    Type
                         _______ _______ _______ _____ _____    ______ ____

>  <TORSDO>
F 9

$$$$
=
 OpenBabel11042421253D

 33 36  0  0  1  0  0  0  0  0999 V2000
  159.9800  210.3370  155.1910 C   0  0  0  0  0  3  0  0  0  0  0  0
  160.2250  210.0950  152.4220 C   0  0  0  0  0  3  0  0  0  0  0  0
  160.7490  209.3030  154.6490 C   0  0  0  0  0  0  0  0  0  0  0  0
  159.3370  211.2500  154.3510 C   0  0  0  0  0  3  0  0  0  0  0  0
  159.4560  211.1360  152.9630 C   0  0  0  0  0  0  0  0  0  0  0  0
  161.3840  208.4040  155.4970 O   0  0  0  0  0  1  0  0  0  0  0  0
  160.8770  209.1740  153.2580 C   0  0  0  0  0  0  0  0  0  0  0  0
  159.4370  213.0740  151.4590 C   0  0  0  0  0  3  0  0  0  0  0  0
  158.7780  212.1160  152.1050 C   0  0  0  0  0  3  0  0  0  0  0  0
  157.2440  213.7750  150.6090 C   0  0  0  0  0  3  0  0  0  0  0  0
  156.8180  213.4530  149.3950 C   0  0  0  0  0  3  0  0  0  0  0  0
  158.7160  214.0560  150.5970 C   0  0  2  0  0  3  0  0  0  0  0  0
  159.0470  213.8200  149.1600 C   0  0  0  0  0  0  0  0  0  0  0  0
  157.9510  213.4910  148.4820 C   0  0  0  0  0  0  0  0  0  0  0  0
  158.4020  214.1000  146.1040 O   0  0  0  0  0  0  0  0  0  0  0  0
  157.2210  212.2160  146.6260 O   0  0  0  0  0  1  0  0  0  0  0  0
  157.8410  213.2330  147.0330 C   0  0  0  0  0  0  0  0  0  0  0  0
  161.1500  212.6940  148.5090 C   0  0  0  0  0  1  0  0  0  0  0  0
  160.4160  214.0200  148.5900 C   0  0  0  0  0  2  0  0  0  0  0  0
  161.6530  208.1350  152.7310 O   0  0  0  0  0  0  0  0  0  0  0  0
  161.3250  207.4590  151.5200 C   0  0  0  0  0  2  0  0  0  0  0  0
  160.9330  206.0870  151.8080 N   0  0  0  0  0  2  0  0  0  0  0  0
  160.6420  203.7250  151.1590 C   0  0  0  0  0  3  0  0  0  0  0  0
  160.6550  202.7310  150.1770 C   0  0  0  0  0  3  0  0  0  0  0  0
  161.2700  205.3720  149.5010 C   0  0  0  0  0  3  0  0  0  0  0  0
  160.9520  205.0510  150.8230 C   0  0  0  0  0  0  0  0  0  0  0  0
  161.2850  204.3800  148.5100 C   0  0  0  0  0  0  0  0  0  0  0  0
  160.9750  203.0580  148.8570 C   0  0  0  0  0  3  0  0  0  0  0  0
  162.1880  205.8000  145.3150 N   0  0  0  0  0  0  0  0  0  0  0  0
  161.6100  204.7220  147.1160 C   0  0  0  0  0  0  0  0  0  0  0  0
  161.9150  204.5390  145.0120 N   0  0  0  0  0  0  0  0  0  0  0  0
  162.0060  205.9550  146.6410 C   0  0  0  0  0  2  0  0  0  0  0  0
  161.5600  203.8570  146.0880 N   0  0  0  0  0  0  0  0  0  0  0  0
  2  5  2  0  0  0  0
  2  7  1  0  0  0  0
  3  1  1  0  0  0  0
  3  6  1  0  0  0  0
  4  1  2  0  0  0  0
  5  4  1  0  0  0  0
  7  3  2  0  0  0  0
  8  9  2  0  0  0  0
  9  5  1  0  0  0  0
 11 10  2  0  0  0  0
 12 10  1  0  0  0  0
 12  8  1  1  0  0  0
 13 12  1  0  0  0  0
 14 13  2  0  0  0  0
 14 11  1  0  0  0  0
 15 17  2  0  0  0  0
 16 17  1  0  0  0  0
 17 14  1  0  0  0  0
 18 19  1  0  0  0  0
 19 13  1  0  0  0  0
 20  7  1  0  0  0  0
 21 22  1  0  0  0  0
 21 20  1  0  0  0  0
 24 23  2  0  0  0  0
 25 26  2  0  0  0  0
 26 23  1  0  0  0  0
 26 22  1  0  0  0  0
 27 28  2  0  0  0  0
 27 25  1  0  0  0  0
 28 24  1  0  0  0  0
 29 32  1  0  0  0  0
 30 27  1  0  0  0  0
 31 29  2  0  0  0  0
 31 33  1  0  0  0  0
 32 30  1  0  0  0  0
 33 30  2  0  0  0  0
M  END
>  <MODEL>
4

>  <REMARK>
 VINA RESULT:      -7.9      3.559      5.226
  Name = 
  9 active torsions:
  status: ('A' for Active; 'I' for Inactive)
    1  A    between atoms: C_4  and  C_24
    2  A    between atoms: C_5  and  C_21
    3  A    between atoms: C_9  and  C_10
    4  A    between atoms: C_17  and  C_25
    5  A    between atoms: C_20  and  N_32
    6  A    between atoms: C_26  and  C_30
    7  A    between atoms: O_28  and  C_31
    8  A    between atoms: O_28  and  C_33
    9  A    between atoms: N_32  and  C_33
                            x       y       z     vdW  Elec       q    Type
                         _______ _______ _______ _____ _____    ______ ____

>  <TORSDO>
F 9

$$$$
=
 OpenBabel11042421253D

 33 36  0  0  1  0  0  0  0  0999 V2000
  160.8850  203.5940  151.6840 C   0  0  0  0  0  3  0  0  0  0  0  0
  161.0040  206.3650  151.3690 C   0  0  0  0  0  3  0  0  0  0  0  0
  160.7840  204.1530  150.4070 C   0  0  0  0  0  0  0  0  0  0  0  0
  161.0480  204.4170  152.8020 C   0  0  0  0  0  3  0  0  0  0  0  0
  161.1090  205.8060  152.6510 C   0  0  0  0  0  0  0  0  0  0  0  0
  160.6250  203.3220  149.3050 O   0  0  0  0  0  1  0  0  0  0  0  0
  160.8430  205.5450  150.2400 C   0  0  0  0  0  0  0  0  0  0  0  0
  161.2200  207.9730  153.7950 C   0  0  0  0  0  3  0  0  0  0  0  0
  161.2910  206.6460  153.8420 C   0  0  0  0  0  3  0  0  0  0  0  0
  160.8240  208.1020  156.2140 C   0  0  0  0  0  3  0  0  0  0  0  0
  159.8370  208.8180  156.7330 C   0  0  0  0  0  3  0  0  0  0  0  0
  161.4140  208.7970  155.0250 C   0  0  2  0  0  3  0  0  0  0  0  0
  160.5710  210.0270  154.9570 C   0  0  0  0  0  0  0  0  0  0  0  0
  159.6840  210.0330  155.9480 C   0  0  0  0  0  0  0  0  0  0  0  0
  157.4060  211.0420  155.7800 O   0  0  0  0  0  0  0  0  0  0  0  0
  159.0560  212.0700  156.9800 O   0  0  0  0  0  1  0  0  0  0  0  0
  158.7070  211.0940  156.2660 C   0  0  0  0  0  0  0  0  0  0  0  0
  159.6940  211.0770  152.8970 C   0  0  0  0  0  1  0  0  0  0  0  0
  160.7840  211.1150  153.9510 C   0  0  0  0  0  2  0  0  0  0  0  0
  160.7430  206.0890  148.9540 O   0  0  0  0  0  0  0  0  0  0  0  0
  161.7320  206.9500  148.3960 C   0  0  0  0  0  2  0  0  0  0  0  0
  162.3830  206.2930  147.2720 N   0  0  0  0  0  2  0  0  0  0  0  0
  161.0390  205.9770  145.2270 C   0  0  0  0  0  3  0  0  0  0  0  0
  160.3720  205.1290  144.3380 C   0  0  0  0  0  3  0  0  0  0  0  0
  161.6580  204.0690  146.5810 C   0  0  0  0  0  3  0  0  0  0  0  0
  161.6840  205.4480  146.3540 C   0  0  0  0  0  0  0  0  0  0  0  0
  160.9920  203.2120  145.6940 C   0  0  0  0  0  0  0  0  0  0  0  0
  160.3490  203.7520  144.5710 C   0  0  0  0  0  3  0  0  0  0  0  0
  160.6410  199.6190  145.7190 N   0  0  0  0  0  0  0  0  0  0  0  0
  160.9750  201.7600  145.9280 C   0  0  0  0  0  0  0  0  0  0  0  0
  161.2840  199.8610  146.8510 N   0  0  0  0  0  2  0  0  0  0  0  0
  160.4270  200.7980  145.1040 C   0  0  0  0  0  3  0  0  0  0  0  0
  161.5020  201.1570  147.0070 N   0  0  0  0  0  0  0  0  0  0  0  0
  1  4  1  0  0  0  0
  2  5  1  0  0  0  0
  3  1  2  0  0  0  0
  5  4  2  0  0  0  0
  5  9  1  0  0  0  0
  6  3  1  0  0  0  0
  7  3  1  0  0  0  0
  7  2  2  0  0  0  0
  8  9  2  0  0  0  0
 10 11  2  0  0  0  0
 12  8  1  6  0  0  0
 12 10  1  0  0  0  0
 13 12  1  0  0  0  0
 13 14  2  0  0  0  0
 14 17  1  0  0  0  0
 14 11  1  0  0  0  0
 15 17  2  0  0  0  0
 17 16  1  0  0  0  0
 18 19  1  0  0  0  0
 19 13  1  0  0  0  0
 20  7  1  0  0  0  0
 21 20  1  0  0  0  0
 22 21  1  0  0  0  0
 23 26  1  0  0  0  0
 24 28  1  0  0  0  0
 24 23  2  0  0  0  0
 26 25  2  0  0  0  0
 26 22  1  0  0  0  0
 27 30  1  0  0  0  0
 27 25  1  0  0  0  0
 28 27  2  0  0  0  0
 29 31  1  0  0  0  0
 30 33  2  0  0  0  0
 31 33  1  0  0  0  0
 32 29  2  0  0  0  0
 32 30  1  0  0  0  0
M  END
>  <MODEL>
5

>  <REMARK>
 VINA RESULT:      -7.5      2.021      2.773
  Name = 
  9 active torsions:
  status: ('A' for Active; 'I' for Inactive)
    1  A    between atoms: C_4  and  C_24
    2  A    between atoms: C_5  and  C_21
    3  A    between atoms: C_9  and  C_10
    4  A    between atoms: C_17  and  C_25
    5  A    between atoms: C_20  and  N_32
    6  A    between atoms: C_26  and  C_30
    7  A    between atoms: O_28  and  C_31
    8  A    between atoms: O_28  and  C_33
    9  A    between atoms: N_32  and  C_33
                            x       y       z     vdW  Elec       q    Type
                         _______ _______ _______ _____ _____    ______ ____

>  <TORSDO>
F 9

$$$$
=
 OpenBabel11042421253D

 33 36  0  0  1  0  0  0  0  0999 V2000
  159.7830  212.0920  155.1870 C   0  0  0  0  0  3  0  0  0  0  0  0
  160.3390  211.3700  152.5500 C   0  0  0  0  0  3  0  0  0  0  0  0
  160.5510  210.9540  154.9260 C   0  0  0  0  0  0  0  0  0  0  0  0
  159.2960  212.8700  154.1340 C   0  0  0  0  0  3  0  0  0  0  0  0
  159.5720  212.5150  152.8100 C   0  0  0  0  0  0  0  0  0  0  0  0
  161.0310  210.1920  155.9840 O   0  0  0  0  0  1  0  0  0  0  0  0
  160.8350  210.5840  153.6030 C   0  0  0  0  0  0  0  0  0  0  0  0
  158.9720  212.9270  150.4670 C   0  0  0  0  0  3  0  0  0  0  0  0
  159.0560  213.3560  151.7230 C   0  0  0  0  0  3  0  0  0  0  0  0
  157.1130  213.3160  148.9130 C   0  0  0  0  0  3  0  0  0  0  0  0
  157.1700  212.9610  147.6360 C   0  0  0  0  0  3  0  0  0  0  0  0
  158.4460  213.8100  149.3850 C   0  0  2  0  0  3  0  0  0  0  0  0
  159.2700  213.6560  148.1490 C   0  0  0  0  0  0  0  0  0  0  0  0
  158.5240  213.1840  147.1540 C   0  0  0  0  0  0  0  0  0  0  0  0
  158.4850  213.7440  144.7220 O   0  0  0  0  0  0  0  0  0  0  0  0
  159.7270  211.9920  145.4990 O   0  0  0  0  0  1  0  0  0  0  0  0
  158.9450  212.9440  145.7600 C   0  0  0  0  0  0  0  0  0  0  0  0
  161.6100  212.8760  148.3190 C   0  0  0  0  0  1  0  0  0  0  0  0
  160.7060  214.0670  148.0640 C   0  0  0  0  0  2  0  0  0  0  0  0
  161.6080  209.4430  153.3570 O   0  0  0  0  0  0  0  0  0  0  0  0
  161.3330  208.5330  152.2960 C   0  0  0  0  0  2  0  0  0  0  0  0
  161.1520  207.1910  152.8280 N   0  0  0  0  0  2  0  0  0  0  0  0
  161.0620  204.7400  152.5640 C   0  0  0  0  0  3  0  0  0  0  0  0
  161.0360  203.6130  151.7380 C   0  0  0  0  0  3  0  0  0  0  0  0
  161.1800  206.1680  150.6150 C   0  0  0  0  0  3  0  0  0  0  0  0
  161.1360  206.0230  152.0040 C   0  0  0  0  0  0  0  0  0  0  0  0
  161.1540  205.0430  149.7780 C   0  0  0  0  0  0  0  0  0  0  0  0
  161.0820  203.7650  150.3490 C   0  0  0  0  0  3  0  0  0  0  0  0
  160.9260  205.9610  146.2940 N   0  0  0  0  0  0  0  0  0  0  0  0
  161.1900  205.1980  148.3160 C   0  0  0  0  0  0  0  0  0  0  0  0
  161.5770  204.8080  146.2540 N   0  0  0  0  0  0  0  0  0  0  0  0
  160.6630  206.2430  147.5850 C   0  0  0  0  0  2  0  0  0  0  0  0
  161.7530  204.3180  147.4700 N   0  0  0  0  0  0  0  0  0  0  0  0
  2  5  2  0  0  0  0
  2  7  1  0  0  0  0
  3  1  1  0  0  0  0
  3  6  1  0  0  0  0
  4  1  2  0  0  0  0
  5  4  1  0  0  0  0
  7  3  2  0  0  0  0
  8  9  2  0  0  0  0
  9  5  1  0  0  0  0
 10 12  1  0  0  0  0
 11 10  2  0  0  0  0
 12  8  1  1  0  0  0
 13 12  1  0  0  0  0
 14 11  1  0  0  0  0
 14 13  2  0  0  0  0
 15 17  2  0  0  0  0
 16 17  1  0  0  0  0
 17 14  1  0  0  0  0
 19 13  1  0  0  0  0
 19 18  1  0  0  0  0
 20  7  1  0  0  0  0
 21 22  1  0  0  0  0
 21 20  1  0  0  0  0
 24 23  2  0  0  0  0
 25 26  2  0  0  0  0
 26 23  1  0  0  0  0
 26 22  1  0  0  0  0
 27 28  2  0  0  0  0
 27 25  1  0  0  0  0
 28 24  1  0  0  0  0
 29 32  1  0  0  0  0
 30 27  1  0  0  0  0
 31 29  2  0  0  0  0
 31 33  1  0  0  0  0
 32 30  1  0  0  0  0
 33 30  2  0  0  0  0
M  END
>  <MODEL>
6

>  <REMARK>
 VINA RESULT:      -7.3      3.788      6.114
  Name = 
  9 active torsions:
  status: ('A' for Active; 'I' for Inactive)
    1  A    between atoms: C_4  and  C_24
    2  A    between atoms: C_5  and  C_21
    3  A    between atoms: C_9  and  C_10
    4  A    between atoms: C_17  and  C_25
    5  A    between atoms: C_20  and  N_32
    6  A    between atoms: C_26  and  C_30
    7  A    between atoms: O_28  and  C_31
    8  A    between atoms: O_28  and  C_33
    9  A    between atoms: N_32  and  C_33
                            x       y       z     vdW  Elec       q    Type
                         _______ _______ _______ _____ _____    ______ ____

>  <TORSDO>
F 9

$$$$
=
 OpenBabel11042421253D

 33 36  0  0  1  0  0  0  0  0999 V2000
  160.1710  208.4440  155.2970 C   0  0  0  0  0  3  0  0  0  0  0  0
  160.8600  209.7150  152.9090 C   0  0  0  0  0  3  0  0  0  0  0  0
  159.8570  209.7940  155.1120 C   0  0  0  0  0  0  0  0  0  0  0  0
  160.8250  207.7300  154.2900 C   0  0  0  0  0  3  0  0  0  0  0  0
  161.1720  208.3590  153.0910 C   0  0  0  0  0  0  0  0  0  0  0  0
  159.2040  210.4910  156.1210 O   0  0  0  0  0  1  0  0  0  0  0  0
  160.1990  210.4400  153.9140 C   0  0  0  0  0  0  0  0  0  0  0  0
  161.1920  206.7720  151.2200 C   0  0  0  0  0  3  0  0  0  0  0  0
  161.8500  207.5810  152.0460 C   0  0  0  0  0  3  0  0  0  0  0  0
  161.3580  206.3070  148.8160 C   0  0  0  0  0  3  0  0  0  0  0  0
  160.8250  205.2250  148.2650 C   0  0  0  0  0  3  0  0  0  0  0  0
  161.9130  205.9920  150.1710 C   0  0  2  0  0  3  0  0  0  0  0  0
  161.5850  204.5410  150.2930 C   0  0  0  0  0  0  0  0  0  0  0  0
  160.9760  204.1120  149.1900 C   0  0  0  0  0  0  0  0  0  0  0  0
  161.0690  202.0310  147.8150 O   0  0  0  0  0  0  0  0  0  0  0  0
  159.6650  202.1870  149.6090 O   0  0  0  0  0  1  0  0  0  0  0  0
  160.5390  202.7350  148.8890 C   0  0  0  0  0  0  0  0  0  0  0  0
  160.8260  203.6040  152.4520 C   0  0  0  0  0  1  0  0  0  0  0  0
  161.9780  203.7050  151.4700 C   0  0  0  0  0  2  0  0  0  0  0  0
  159.8760  211.7910  153.7430 O   0  0  0  0  0  0  0  0  0  0  0  0
  158.7030  212.2290  153.0640 C   0  0  0  0  0  2  0  0  0  0  0  0
  159.0240  213.3500  152.1930 N   0  0  0  0  0  2  0  0  0  0  0  0
  157.4430  213.3900  150.3000 C   0  0  0  0  0  3  0  0  0  0  0  0
  157.2060  213.3960  148.9230 C   0  0  0  0  0  3  0  0  0  0  0  0
  159.8260  213.3110  149.8910 C   0  0  0  0  0  3  0  0  0  0  0  0
  158.7560  213.3460  150.7890 C   0  0  0  0  0  0  0  0  0  0  0  0
  159.5970  213.3180  148.5070 C   0  0  0  0  0  0  0  0  0  0  0  0
  158.2800  213.3610  148.0300 C   0  0  0  0  0  3  0  0  0  0  0  0
  162.7010  213.0420  146.6830 N   0  0  0  0  0  0  0  0  0  0  0  0
  160.7250  213.2930  147.5630 C   0  0  0  0  0  0  0  0  0  0  0  0
  161.8600  213.5030  145.7690 N   0  0  0  0  0  0  0  0  0  0  0  0
  162.0190  212.8950  147.8350 C   0  0  0  0  0  2  0  0  0  0  0  0
  160.6490  213.6670  146.2750 N   0  0  0  0  0  0  0  0  0  0  0  0
  2  5  2  0  0  0  0
  2  7  1  0  0  0  0
  3  1  1  0  0  0  0
  3  6  1  0  0  0  0
  4  1  2  0  0  0  0
  5  4  1  0  0  0  0
  7  3  2  0  0  0  0
  8  9  2  0  0  0  0
  9  5  1  0  0  0  0
 10 12  1  0  0  0  0
 11 10  2  0  0  0  0
 11 14  1  0  0  0  0
 12 13  1  0  0  0  0
 12  8  1  1  0  0  0
 13 19  1  0  0  0  0
 14 13  2  0  0  0  0
 15 17  2  0  0  0  0
 17 14  1  0  0  0  0
 17 16  1  0  0  0  0
 19 18  1  0  0  0  0
 20  7  1  0  0  0  0
 21 20  1  0  0  0  0
 22 21  1  0  0  0  0
 23 26  1  0  0  0  0
 24 23  2  0  0  0  0
 25 26  2  0  0  0  0
 26 22  1  0  0  0  0
 27 25  1  0  0  0  0
 28 27  2  0  0  0  0
 28 24  1  0  0  0  0
 29 32  1  0  0  0  0
 30 32  1  0  0  0  0
 30 27  1  0  0  0  0
 31 33  1  0  0  0  0
 31 29  2  0  0  0  0
 33 30  2  0  0  0  0
M  END
>  <MODEL>
7

>  <REMARK>
 VINA RESULT:      -7.2      4.383      8.926
  Name = 
  9 active torsions:
  status: ('A' for Active; 'I' for Inactive)
    1  A    between atoms: C_4  and  C_24
    2  A    between atoms: C_5  and  C_21
    3  A    between atoms: C_9  and  C_10
    4  A    between atoms: C_17  and  C_25
    5  A    between atoms: C_20  and  N_32
    6  A    between atoms: C_26  and  C_30
    7  A    between atoms: O_28  and  C_31
    8  A    between atoms: O_28  and  C_33
    9  A    between atoms: N_32  and  C_33
                            x       y       z     vdW  Elec       q    Type
                         _______ _______ _______ _____ _____    ______ ____

>  <TORSDO>
F 9

$$$$
=
 OpenBabel11042421253D

 33 36  0  0  1  0  0  0  0  0999 V2000
  161.8400  209.9560  150.3470 C   0  0  0  0  0  3  0  0  0  0  0  0
  161.5730  207.2170  150.8120 C   0  0  0  0  0  3  0  0  0  0  0  0
  161.2310  209.5060  151.5230 C   0  0  0  0  0  0  0  0  0  0  0  0
  162.3170  209.0390  149.4070 C   0  0  0  0  0  3  0  0  0  0  0  0
  162.1870  207.6660  149.6340 C   0  0  0  0  0  0  0  0  0  0  0  0
  160.7640  210.4300  152.4500 O   0  0  0  0  0  1  0  0  0  0  0  0
  161.0940  208.1320  151.7640 C   0  0  0  0  0  0  0  0  0  0  0  0
  161.9730  206.2940  147.6110 C   0  0  0  0  0  3  0  0  0  0  0  0
  162.7070  206.7250  148.6330 C   0  0  0  0  0  3  0  0  0  0  0  0
  162.1510  205.7480  145.2250 C   0  0  0  0  0  3  0  0  0  0  0  0
  161.3940  204.8220  144.6510 C   0  0  0  0  0  3  0  0  0  0  0  0
  162.5320  205.3340  146.6130 C   0  0  2  0  0  3  0  0  0  0  0  0
  161.8410  204.0160  146.7260 C   0  0  0  0  0  0  0  0  0  0  0  0
  161.2070  203.7290  145.5920 C   0  0  0  0  0  0  0  0  0  0  0  0
  160.8320  201.2700  145.8030 O   0  0  0  0  0  1  0  0  0  0  0  0
  159.4580  202.5570  144.5100 O   0  0  0  0  0  0  0  0  0  0  0  0
  160.4550  202.4990  145.2770 C   0  0  0  0  0  0  0  0  0  0  0  0
  160.8310  203.4550  148.9120 C   0  0  0  0  0  1  0  0  0  0  0  0
  161.9440  203.1350  147.9320 C   0  0  0  0  0  2  0  0  0  0  0  0
  160.4840  207.6970  152.9480 O   0  0  0  0  0  0  0  0  0  0  0  0
  161.1720  206.9490  153.9460 C   0  0  0  0  0  2  0  0  0  0  0  0
  160.8620  207.4800  155.2650 N   0  0  0  0  0  2  0  0  0  0  0  0
  161.7970  209.7110  155.7510 C   0  0  0  0  0  3  0  0  0  0  0  0
  161.6090  211.0750  155.9870 C   0  0  0  0  0  3  0  0  0  0  0  0
  159.4060  209.4190  155.5260 C   0  0  0  0  0  3  0  0  0  0  0  0
  160.6940  208.8770  155.5210 C   0  0  0  0  0  0  0  0  0  0  0  0
  159.2080  210.7870  155.7610 C   0  0  0  0  0  0  0  0  0  0  0  0
  160.3190  211.6110  155.9920 C   0  0  0  0  0  3  0  0  0  0  0  0
  155.9620  212.2460  156.3720 N   0  0  0  0  0  0  0  0  0  0  0  0
  157.8530  211.3580  155.7560 C   0  0  0  0  0  0  0  0  0  0  0  0
  155.9550  212.0450  155.0630 N   0  0  0  0  0  0  0  0  0  0  0  0
  157.1500  211.8240  156.8480 C   0  0  0  0  0  2  0  0  0  0  0  0
  157.0920  211.5050  154.6570 N   0  0  0  0  0  0  0  0  0  0  0  0
  1  3  1  0  0  0  0
  2  7  1  0  0  0  0
  3  7  2  0  0  0  0
  3  6  1  0  0  0  0
  4  5  1  0  0  0  0
  4  1  2  0  0  0  0
  5  2  2  0  0  0  0
  7 20  1  0  0  0  0
  8  9  2  0  0  0  0
  9  5  1  0  0  0  0
 10 12  1  0  0  0  0
 11 10  2  0  0  0  0
 11 14  1  0  0  0  0
 12 13  1  0  0  0  0
 12  8  1  1  0  0  0
 13 19  1  0  0  0  0
 14 13  2  0  0  0  0
 16 17  2  0  0  0  0
 17 14  1  0  0  0  0
 17 15  1  0  0  0  0
 19 18  1  0  0  0  0
 20 21  1  0  0  0  0
 21 22  1  0  0  0  0
 22 26  1  0  0  0  0
 23 24  1  0  0  0  0
 24 28  2  0  0  0  0
 25 27  2  0  0  0  0
 26 25  1  0  0  0  0
 26 23  2  0  0  0  0
 27 28  1  0  0  0  0
 29 32  1  0  0  0  0
 30 27  1  0  0  0  0
 30 32  1  0  0  0  0
 31 29  2  0  0  0  0
 33 31  1  0  0  0  0
 33 30  2  0  0  0  0
M  END
>  <MODEL>
8

>  <REMARK>
 VINA RESULT:      -7.2      3.797     10.272
  Name = 
  9 active torsions:
  status: ('A' for Active; 'I' for Inactive)
    1  A    between atoms: C_4  and  C_24
    2  A    between atoms: C_5  and  C_21
    3  A    between atoms: C_9  and  C_10
    4  A    between atoms: C_17  and  C_25
    5  A    between atoms: C_20  and  N_32
    6  A    between atoms: C_26  and  C_30
    7  A    between atoms: O_28  and  C_31
    8  A    between atoms: O_28  and  C_33
    9  A    between atoms: N_32  and  C_33
                            x       y       z     vdW  Elec       q    Type
                         _______ _______ _______ _____ _____    ______ ____

>  <TORSDO>
F 9

$$$$
=
 OpenBabel11042421253D

 33 36  0  0  1  0  0  0  0  0999 V2000
  161.6080  206.9430  154.3390 C   0  0  0  0  0  3  0  0  0  0  0  0
  160.7760  208.6270  152.2750 C   0  0  0  0  0  3  0  0  0  0  0  0
  161.5490  208.3240  154.5490 C   0  0  0  0  0  0  0  0  0  0  0  0
  161.2490  206.4040  153.1010 C   0  0  0  0  0  3  0  0  0  0  0  0
  160.8310  207.2420  152.0630 C   0  0  0  0  0  0  0  0  0  0  0  0
  161.9060  208.8450  155.7870 O   0  0  0  0  0  1  0  0  0  0  0  0
  161.1320  209.1770  153.5170 C   0  0  0  0  0  0  0  0  0  0  0  0
  160.8330  205.4250  150.4120 C   0  0  0  0  0  3  0  0  0  0  0  0
  160.4500  206.6470  150.7750 C   0  0  0  0  0  3  0  0  0  0  0  0
  160.8410  203.4150  149.0060 C   0  0  0  0  0  3  0  0  0  0  0  0
  161.7190  203.2370  148.0280 C   0  0  0  0  0  3  0  0  0  0  0  0
  160.4310  204.8530  149.0940 C   0  0  2  0  0  3  0  0  0  0  0  0
  161.2470  205.4580  148.0000 C   0  0  0  0  0  0  0  0  0  0  0  0
  161.9670  204.5200  147.3900 C   0  0  0  0  0  0  0  0  0  0  0  0
  162.3460  204.8780  144.9490 O   0  0  0  0  0  0  0  0  0  0  0  0
  164.1070  204.6710  146.3880 O   0  0  0  0  0  1  0  0  0  0  0  0
  162.8590  204.6960  146.2270 C   0  0  0  0  0  0  0  0  0  0  0  0
  162.3190  207.6720  148.2520 C   0  0  0  0  0  1  0  0  0  0  0  0
  161.1710  206.9040  147.6230 C   0  0  0  0  0  2  0  0  0  0  0  0
  161.0760  210.5580  153.7430 O   0  0  0  0  0  0  0  0  0  0  0  0
  159.8550  211.2620  153.9520 C   0  0  0  0  0  2  0  0  0  0  0  0
  159.9590  212.6070  153.4060 N   0  0  0  0  0  2  0  0  0  0  0  0
  158.1330  213.2870  151.8940 C   0  0  0  0  0  3  0  0  0  0  0  0
  157.6880  213.6380  150.6160 C   0  0  0  0  0  3  0  0  0  0  0  0
  160.3740  212.9840  151.0320 C   0  0  0  0  0  3  0  0  0  0  0  0
  159.4790  212.9570  152.1060 C   0  0  0  0  0  0  0  0  0  0  0  0
  159.9360  213.3360  149.7470 C   0  0  0  0  0  0  0  0  0  0  0  0
  158.5880  213.6620  149.5470 C   0  0  0  0  0  3  0  0  0  0  0  0
  161.8840  212.9870  146.7270 N   0  0  0  0  0  0  0  0  0  0  0  0
  160.8820  213.3740  148.6210 C   0  0  0  0  0  0  0  0  0  0  0  0
  162.5550  213.9050  147.4080 N   0  0  0  0  0  0  0  0  0  0  0  0
  160.8160  212.6250  147.4640 C   0  0  0  0  0  2  0  0  0  0  0  0
  161.9690  214.1620  148.5660 N   0  0  0  0  0  0  0  0  0  0  0  0
  1  3  1  0  0  0  0
  2  7  1  0  0  0  0
  3  6  1  0  0  0  0
  4  1  2  0  0  0  0
  5  2  2  0  0  0  0
  5  4  1  0  0  0  0
  7 20  1  0  0  0  0
  7  3  2  0  0  0  0
  8  9  2  0  0  0  0
  9  5  1  0  0  0  0
 10 12  1  0  0  0  0
 11 10  2  0  0  0  0
 12  8  1  1  0  0  0
 13 12  1  0  0  0  0
 14 13  2  0  0  0  0
 14 11  1  0  0  0  0
 15 17  2  0  0  0  0
 17 16  1  0  0  0  0
 17 14  1  0  0  0  0
 19 13  1  0  0  0  0
 19 18  1  0  0  0  0
 20 21  1  0  0  0  0
 22 21  1  0  0  0  0
 23 26  1  0  0  0  0
 24 23  2  0  0  0  0
 25 26  2  0  0  0  0
 26 22  1  0  0  0  0
 27 25  1  0  0  0  0
 28 27  2  0  0  0  0
 28 24  1  0  0  0  0
 29 31  2  0  0  0  0
 29 32  1  0  0  0  0
 30 27  1  0  0  0  0
 31 33  1  0  0  0  0
 32 30  1  0  0  0  0
 33 30  2  0  0  0  0
M  END
>  <MODEL>
9

>  <REMARK>
 VINA RESULT:      -7.1      4.365      9.180
  Name = 
  9 active torsions:
  status: ('A' for Active; 'I' for Inactive)
    1  A    between atoms: C_4  and  C_24
    2  A    between atoms: C_5  and  C_21
    3  A    between atoms: C_9  and  C_10
    4  A    between atoms: C_17  and  C_25
    5  A    between atoms: C_20  and  N_32
    6  A    between atoms: C_26  and  C_30
    7  A    between atoms: O_28  and  C_31
    8  A    between atoms: O_28  and  C_33
    9  A    between atoms: N_32  and  C_33
                            x       y       z     vdW  Elec       q    Type
                         _______ _______ _______ _____ _____    ______ ____

>  <TORSDO>
F 9

$$$$
