=
 OpenBabel11042423133D

 29 31  0  0  1  0  0  0  0  0999 V2000
  162.7630  205.9180  152.0100 S   0  0  0  0  0  0  0  0  0  0  0  0
  161.1610  206.8320  154.0460 C   0  0  0  0  0  2  0  0  0  0  0  0
  160.7020  208.0640  153.2770 C   0  0  2  0  0  3  0  0  0  0  0  0
  161.7620  208.4900  152.2490 C   0  0  1  0  0  3  0  0  0  0  0  0
  161.3370  205.6450  153.1130 C   0  0  0  0  0  2  0  0  0  0  0  0
  162.0560  207.3970  151.2080 C   0  0  2  0  0  3  0  0  0  0  0  0
  160.4720  209.0970  154.1870 O   0  0  0  0  0  1  0  0  0  0  0  0
  161.4570  209.8090  151.6010 C   0  0  0  0  0  0  0  0  0  0  0  0
  160.6240  210.5820  152.1440 O   0  0  0  0  0  0  0  0  0  0  0  0
  162.1320  210.2000  150.4020 N   0  0  0  0  0  2  0  0  0  0  0  0
  161.8540  211.4530  149.7130 C   0  0  0  0  0  2  0  0  0  0  0  0
  162.3280  211.3860  148.2670 C   0  0  0  0  0  2  0  0  0  0  0  0
  163.2060  212.5780  147.9060 C   0  0  0  0  0  2  0  0  0  0  0  0
  162.3780  213.7330  147.3680 C   0  0  0  0  0  2  0  0  0  0  0  0
  162.6670  213.3560  144.9400 C   0  0  0  0  0  1  0  0  0  0  0  0
  161.6760  213.3360  146.0830 C   0  0  0  0  0  2  0  0  0  0  0  0
  160.8460  207.0090  150.3570 C   0  0  0  0  0  2  0  0  0  0  0  0
  161.2720  206.5290  149.0470 N   0  0  0  0  0  2  0  0  0  0  0  0
  161.1930  205.1610  148.6290 C   0  0  0  0  0  0  0  0  0  0  0  0
  160.9690  204.1840  149.5410 C   0  0  0  0  0  3  0  0  0  0  0  0
  160.7930  201.1670  147.2740 N   0  0  0  0  0  0  0  0  0  0  0  0
  161.3510  204.8600  147.1410 C   0  0  0  0  0  0  0  0  0  0  0  0
  160.8450  202.7570  149.1660 C   0  0  0  0  0  0  0  0  0  0  0  0
  160.9320  202.4370  147.8800 C   0  0  2  0  0  3  0  0  0  0  0  0
  161.1490  203.4010  146.8570 C   0  0  0  0  0  0  0  0  0  0  0  0
  162.7340  205.2820  146.6750 C   0  0  0  0  0  1  0  0  0  0  0  0
  160.6060  201.7650  150.1570 N   0  0  0  0  0  1  0  0  0  0  0  0
  161.1470  202.8200  145.7080 N   0  0  0  0  0  0  0  0  0  0  0  0
  160.9230  201.4280  146.0040 C   0  0  0  0  0  3  0  0  0  0  0  0
  1  5  1  0  0  0  0
  3  2  1  0  0  0  0
  3  7  1  1  0  0  0
  4  8  1  6  0  0  0
  4  3  1  0  0  0  0
  5  2  1  0  0  0  0
  6 17  1  1  0  0  0
  6  1  1  0  0  0  0
  6  4  1  0  0  0  0
  8  9  2  0  0  0  0
 10  8  1  0  0  0  0
 11 10  1  0  0  0  0
 12 11  1  0  0  0  0
 13 12  1  0  0  0  0
 14 13  1  0  0  0  0
 15 16  1  0  0  0  0
 16 14  1  0  0  0  0
 18 17  1  0  0  0  0
 19 18  1  0  0  0  0
 19 20  1  0  0  0  0
 21 24  1  0  0  0  0
 22 19  2  0  0  0  0
 23 20  2  0  0  0  0
 23 27  1  0  0  0  0
 24 25  1  6  0  0  0
 24 23  1  0  0  0  0
 25 22  1  0  0  0  0
 26 22  1  0  0  0  0
 28 29  1  0  0  0  0
 28 25  2  0  0  0  0
 29 21  2  0  0  0  0
M  END
>  <MODEL>
1

>  <REMARK>
 VINA RESULT:      -7.3      0.000      0.000
  Name = 
  9 active torsions:
  status: ('A' for Active; 'I' for Inactive)
    1  A    between atoms: C_1  and  C_24
    2  A    between atoms: C_2  and  N_5
    3  A    between atoms: C_3  and  C_17
    4  A    between atoms: C_3  and  C_19
    5  A    between atoms: N_5  and  C_6
    6  A    between atoms: C_6  and  C_26
    7  A    between atoms: N_16  and  C_19
    8  A    between atoms: C_17  and  C_23
    9  A    between atoms: C_23  and  C_29
                            x       y       z     vdW  Elec       q    Type
                         _______ _______ _______ _____ _____    ______ ____

>  <TORSDO>
F 9

$$$$
=
 OpenBabel11042423133D

 29 31  0  0  1  0  0  0  0  0999 V2000
  162.9120  205.9330  151.6750 S   0  0  0  0  0  0  0  0  0  0  0  0
  161.3080  206.5580  153.8160 C   0  0  0  0  0  2  0  0  0  0  0  0
  160.8100  207.8600  153.2010 C   0  0  2  0  0  3  0  0  0  0  0  0
  161.8480  208.4320  152.2220 C   0  0  1  0  0  3  0  0  0  0  0  0
  161.5050  205.4940  152.7490 C   0  0  0  0  0  2  0  0  0  0  0  0
  162.1580  207.4770  151.0580 C   0  0  2  0  0  3  0  0  0  0  0  0
  160.5630  208.7720  154.2280 O   0  0  0  0  0  1  0  0  0  0  0  0
  161.5020  209.8090  151.7360 C   0  0  0  0  0  0  0  0  0  0  0  0
  162.1180  210.2840  150.7460 O   0  0  0  0  0  0  0  0  0  0  0  0
  160.4590  210.5590  152.3670 N   0  0  0  0  0  2  0  0  0  0  0  0
  160.1020  211.9110  151.9580 C   0  0  0  0  0  2  0  0  0  0  0  0
  158.6290  212.1830  152.2350 C   0  0  0  0  0  2  0  0  0  0  0  0
  158.4200  212.8020  153.6110 C   0  0  0  0  0  2  0  0  0  0  0  0
  157.3840  212.0310  154.4140 C   0  0  0  0  0  2  0  0  0  0  0  0
  159.3250  211.6460  155.9000 C   0  0  0  0  0  1  0  0  0  0  0  0
  158.0590  211.0360  155.3390 C   0  0  0  0  0  2  0  0  0  0  0  0
  160.9490  207.1590  150.1760 C   0  0  0  0  0  2  0  0  0  0  0  0
  161.3800  206.6490  148.8790 N   0  0  0  0  0  2  0  0  0  0  0  0
  161.2590  205.2800  148.4740 C   0  0  0  0  0  0  0  0  0  0  0  0
  161.0140  204.3180  149.3980 C   0  0  0  0  0  3  0  0  0  0  0  0
  160.7370  201.2870  147.1600 N   0  0  0  0  0  0  0  0  0  0  0  0
  161.3990  204.9610  146.9890 C   0  0  0  0  0  0  0  0  0  0  0  0
  160.8460  202.8920  149.0370 C   0  0  0  0  0  0  0  0  0  0  0  0
  160.9160  202.5580  147.7540 C   0  0  2  0  0  3  0  0  0  0  0  0
  161.1540  203.5060  146.7200 C   0  0  0  0  0  0  0  0  0  0  0  0
  162.7900  205.3390  146.5100 C   0  0  0  0  0  1  0  0  0  0  0  0
  160.5870  201.9160  150.0390 N   0  0  0  0  0  1  0  0  0  0  0  0
  161.1270  202.9140  145.5770 N   0  0  0  0  0  0  0  0  0  0  0  0
  160.8660  201.5320  145.8880 C   0  0  0  0  0  3  0  0  0  0  0  0
  1  5  1  0  0  0  0
  3  2  1  0  0  0  0
  3  7  1  1  0  0  0
  4  8  1  6  0  0  0
  4  3  1  0  0  0  0
  5  2  1  0  0  0  0
  6 17  1  1  0  0  0
  6  1  1  0  0  0  0
  6  4  1  0  0  0  0
  8 10  1  0  0  0  0
  9  8  2  0  0  0  0
 11 12  1  0  0  0  0
 11 10  1  0  0  0  0
 12 13  1  0  0  0  0
 13 14  1  0  0  0  0
 14 16  1  0  0  0  0
 16 15  1  0  0  0  0
 18 17  1  0  0  0  0
 19 18  1  0  0  0  0
 19 20  1  0  0  0  0
 21 24  1  0  0  0  0
 22 19  2  0  0  0  0
 23 20  2  0  0  0  0
 23 27  1  0  0  0  0
 24 25  1  6  0  0  0
 24 23  1  0  0  0  0
 25 22  1  0  0  0  0
 26 22  1  0  0  0  0
 28 29  1  0  0  0  0
 28 25  2  0  0  0  0
 29 21  2  0  0  0  0
M  END
>  <MODEL>
2

>  <REMARK>
 VINA RESULT:      -7.0      2.534      3.814
  Name = 
  9 active torsions:
  status: ('A' for Active; 'I' for Inactive)
    1  A    between atoms: C_1  and  C_24
    2  A    between atoms: C_2  and  N_5
    3  A    between atoms: C_3  and  C_17
    4  A    between atoms: C_3  and  C_19
    5  A    between atoms: N_5  and  C_6
    6  A    between atoms: C_6  and  C_26
    7  A    between atoms: N_16  and  C_19
    8  A    between atoms: C_17  and  C_23
    9  A    between atoms: C_23  and  C_29
                            x       y       z     vdW  Elec       q    Type
                         _______ _______ _______ _____ _____    ______ ____

>  <TORSDO>
F 9

$$$$
=
 OpenBabel11042423133D

 29 31  0  0  1  0  0  0  0  0999 V2000
  162.8370  206.0660  151.9380 S   0  0  0  0  0  0  0  0  0  0  0  0
  161.2050  206.9250  153.9730 C   0  0  0  0  0  2  0  0  0  0  0  0
  160.7460  208.1710  153.2250 C   0  0  2  0  0  3  0  0  0  0  0  0
  161.8150  208.6250  152.2180 C   0  0  1  0  0  3  0  0  0  0  0  0
  161.4010  205.7590  153.0180 C   0  0  0  0  0  2  0  0  0  0  0  0
  162.1290  207.5570  151.1590 C   0  0  2  0  0  3  0  0  0  0  0  0
  160.4980  209.1820  154.1540 O   0  0  0  0  0  1  0  0  0  0  0  0
  161.5080  209.9550  151.5950 C   0  0  0  0  0  0  0  0  0  0  0  0
  162.1110  210.2950  150.5430 O   0  0  0  0  0  0  0  0  0  0  0  0
  160.5150  210.8120  152.1670 N   0  0  0  0  0  2  0  0  0  0  0  0
  160.1980  212.1260  151.6240 C   0  0  0  0  0  2  0  0  0  0  0  0
  158.7780  212.5310  151.9960 C   0  0  0  0  0  2  0  0  0  0  0  0
  158.3870  213.8600  151.3620 C   0  0  0  0  0  2  0  0  0  0  0  0
  156.8770  214.0380  151.3360 C   0  0  0  0  0  2  0  0  0  0  0  0
  157.0110  213.0780  149.0600 C   0  0  0  0  0  1  0  0  0  0  0  0
  156.3780  214.1590  149.9090 C   0  0  0  0  0  2  0  0  0  0  0  0
  160.9320  207.1790  150.2850 C   0  0  0  0  0  2  0  0  0  0  0  0
  161.3790  206.6620  148.9960 N   0  0  0  0  0  2  0  0  0  0  0  0
  161.2710  205.2890  148.6000 C   0  0  0  0  0  0  0  0  0  0  0  0
  161.0500  204.3290  149.5310 C   0  0  0  0  0  3  0  0  0  0  0  0
  160.7860  201.2830  147.3120 N   0  0  0  0  0  0  0  0  0  0  0  0
  161.3970  204.9650  147.1140 C   0  0  0  0  0  0  0  0  0  0  0  0
  160.8970  202.8990  149.1790 C   0  0  0  0  0  0  0  0  0  0  0  0
  160.9560  202.5600  147.8970 C   0  0  2  0  0  3  0  0  0  0  0  0
  161.1680  203.5050  146.8560 C   0  0  0  0  0  0  0  0  0  0  0  0
  162.7770  205.3590  146.6170 C   0  0  0  0  0  1  0  0  0  0  0  0
  160.6620  201.9250  150.1900 N   0  0  0  0  0  1  0  0  0  0  0  0
  161.1350  202.9070  145.7160 N   0  0  0  0  0  0  0  0  0  0  0  0
  160.8960  201.5240  146.0370 C   0  0  0  0  0  3  0  0  0  0  0  0
  1  5  1  0  0  0  0
  3  2  1  0  0  0  0
  3  7  1  1  0  0  0
  4  8  1  6  0  0  0
  4  3  1  0  0  0  0
  5  2  1  0  0  0  0
  6 17  1  1  0  0  0
  6  1  1  0  0  0  0
  6  4  1  0  0  0  0
  8 10  1  0  0  0  0
  9  8  2  0  0  0  0
 11 12  1  0  0  0  0
 11 10  1  0  0  0  0
 13 12  1  0  0  0  0
 14 13  1  0  0  0  0
 15 16  1  0  0  0  0
 16 14  1  0  0  0  0
 18 17  1  0  0  0  0
 19 18  1  0  0  0  0
 19 20  1  0  0  0  0
 21 24  1  0  0  0  0
 22 19  2  0  0  0  0
 23 20  2  0  0  0  0
 23 27  1  0  0  0  0
 24 25  1  6  0  0  0
 24 23  1  0  0  0  0
 25 22  1  0  0  0  0
 26 22  1  0  0  0  0
 28 29  1  0  0  0  0
 28 25  2  0  0  0  0
 29 21  2  0  0  0  0
M  END
>  <MODEL>
3

>  <REMARK>
 VINA RESULT:      -6.9      2.344      2.763
  Name = 
  9 active torsions:
  status: ('A' for Active; 'I' for Inactive)
    1  A    between atoms: C_1  and  C_24
    2  A    between atoms: C_2  and  N_5
    3  A    between atoms: C_3  and  C_17
    4  A    between atoms: C_3  and  C_19
    5  A    between atoms: N_5  and  C_6
    6  A    between atoms: C_6  and  C_26
    7  A    between atoms: N_16  and  C_19
    8  A    between atoms: C_17  and  C_23
    9  A    between atoms: C_23  and  C_29
                            x       y       z     vdW  Elec       q    Type
                         _______ _______ _______ _____ _____    ______ ____

>  <TORSDO>
F 9

$$$$
=
 OpenBabel11042423133D

 29 31  0  0  1  0  0  0  0  0999 V2000
  162.3730  210.4910  155.6250 S   0  0  0  0  0  0  0  0  0  0  0  0
  159.9590  211.0240  156.8230 C   0  0  0  0  0  2  0  0  0  0  0  0
  159.2080  211.1470  155.5030 C   0  0  2  0  0  3  0  0  0  0  0  0
  160.1560  211.5890  154.3770 C   0  0  1  0  0  3  0  0  0  0  0  0
  161.0340  209.9520  156.7390 C   0  0  0  0  0  2  0  0  0  0  0  0
  161.3090  210.5980  154.1460 C   0  0  2  0  0  3  0  0  0  0  0  0
  158.1810  212.0790  155.6610 O   0  0  0  0  0  1  0  0  0  0  0  0
  159.4400  211.9190  153.1010 C   0  0  0  0  0  0  0  0  0  0  0  0
  158.4890  211.1850  152.7220 O   0  0  0  0  0  0  0  0  0  0  0  0
  159.8080  213.0750  152.3410 N   0  0  0  0  0  2  0  0  0  0  0  0
  159.1690  213.4260  151.0800 C   0  0  0  0  0  2  0  0  0  0  0  0
  160.2140  213.7940  150.0350 C   0  0  0  0  0  2  0  0  0  0  0  0
  159.7490  213.4470  148.6260 C   0  0  0  0  0  2  0  0  0  0  0  0
  160.9260  213.2850  147.6790 C   0  0  0  0  0  2  0  0  0  0  0  0
  163.2110  212.3630  147.9050 C   0  0  0  0  0  1  0  0  0  0  0  0
  161.7350  212.0530  148.0380 C   0  0  0  0  0  2  0  0  0  0  0  0
  160.8510  209.2020  153.7210 C   0  0  0  0  0  2  0  0  0  0  0  0
  161.0180  209.0220  152.2830 N   0  0  0  0  0  2  0  0  0  0  0  0
  161.0870  207.7450  151.6370 C   0  0  0  0  0  0  0  0  0  0  0  0
  161.1230  206.6100  152.3770 C   0  0  0  0  0  3  0  0  0  0  0  0
  161.1050  204.0130  149.6340 N   0  0  0  0  0  0  0  0  0  0  0  0
  161.1010  207.7190  150.1110 C   0  0  0  0  0  0  0  0  0  0  0  0
  161.1610  205.2620  151.7660 C   0  0  0  0  0  0  0  0  0  0  0  0
  161.1330  205.1730  150.4410 C   0  0  2  0  0  3  0  0  0  0  0  0
  161.0790  206.3120  149.5910 C   0  0  0  0  0  0  0  0  0  0  0  0
  162.3380  208.4330  149.5950 C   0  0  0  0  0  1  0  0  0  0  0  0
  161.1950  204.0970  152.5820 N   0  0  0  0  0  1  0  0  0  0  0  0
  161.0170  205.9320  148.3630 N   0  0  0  0  0  0  0  0  0  0  0  0
  161.0360  204.4930  148.4250 C   0  0  0  0  0  3  0  0  0  0  0  0
  1  5  1  0  0  0  0
  3  7  1  1  0  0  0
  3  2  1  0  0  0  0
  4  8  1  6  0  0  0
  4  3  1  0  0  0  0
  5  2  1  0  0  0  0
  6 17  1  1  0  0  0
  6  4  1  0  0  0  0
  6  1  1  0  0  0  0
  9  8  2  0  0  0  0
 10  8  1  0  0  0  0
 11 10  1  0  0  0  0
 12 11  1  0  0  0  0
 13 12  1  0  0  0  0
 14 16  1  0  0  0  0
 14 13  1  0  0  0  0
 15 16  1  0  0  0  0
 18 17  1  0  0  0  0
 19 18  1  0  0  0  0
 19 20  1  0  0  0  0
 21 24  1  0  0  0  0
 22 19  2  0  0  0  0
 23 20  2  0  0  0  0
 23 27  1  0  0  0  0
 24 25  1  1  0  0  0
 24 23  1  0  0  0  0
 25 22  1  0  0  0  0
 26 22  1  0  0  0  0
 28 29  1  0  0  0  0
 28 25  2  0  0  0  0
 29 21  2  0  0  0  0
M  END
>  <MODEL>
4

>  <REMARK>
 VINA RESULT:      -6.7      2.812      3.946
  Name = 
  9 active torsions:
  status: ('A' for Active; 'I' for Inactive)
    1  A    between atoms: C_1  and  C_24
    2  A    between atoms: C_2  and  N_5
    3  A    between atoms: C_3  and  C_17
    4  A    between atoms: C_3  and  C_19
    5  A    between atoms: N_5  and  C_6
    6  A    between atoms: C_6  and  C_26
    7  A    between atoms: N_16  and  C_19
    8  A    between atoms: C_17  and  C_23
    9  A    between atoms: C_23  and  C_29
                            x       y       z     vdW  Elec       q    Type
                         _______ _______ _______ _____ _____    ______ ____

>  <TORSDO>
F 9

$$$$
=
 OpenBabel11042423133D

 29 31  0  0  1  0  0  0  0  0999 V2000
  160.1940  203.9690  152.3560 S   0  0  0  0  0  0  0  0  0  0  0  0
  160.9760  202.0170  150.5890 C   0  0  0  0  0  2  0  0  0  0  0  0
  161.4200  203.0090  149.5210 C   0  0  2  0  0  3  0  0  0  0  0  0
  160.6390  204.3270  149.6450 C   0  0  1  0  0  3  0  0  0  0  0  0
  161.2740  202.5490  151.9810 C   0  0  0  0  0  2  0  0  0  0  0  0
  160.8410  205.0130  151.0060 C   0  0  2  0  0  3  0  0  0  0  0  0
  161.2050  202.4370  148.2660 O   0  0  0  0  0  1  0  0  0  0  0  0
  160.8880  205.2680  148.5030 C   0  0  0  0  0  0  0  0  0  0  0  0
  160.0740  206.2040  148.2900 O   0  0  0  0  0  0  0  0  0  0  0  0
  162.0570  205.1260  147.6890 N   0  0  0  0  0  2  0  0  0  0  0  0
  162.3340  205.9900  146.5500 C   0  0  0  0  0  2  0  0  0  0  0  0
  162.2430  205.2040  145.2480 C   0  0  0  0  0  2  0  0  0  0  0  0
  160.8950  205.3980  144.5650 C   0  0  0  0  0  2  0  0  0  0  0  0
  160.1100  204.0970  144.5110 C   0  0  0  0  0  2  0  0  0  0  0  0
  160.0810  201.6980  145.1170 C   0  0  0  0  0  1  0  0  0  0  0  0
  160.8540  202.9930  145.2380 C   0  0  0  0  0  2  0  0  0  0  0  0
  162.2890  205.4110  151.2910 C   0  0  0  0  0  2  0  0  0  0  0  0
  162.3510  206.3750  152.3840 N   0  0  0  0  0  2  0  0  0  0  0  0
  161.8960  207.7300  152.2860 C   0  0  0  0  0  0  0  0  0  0  0  0
  162.3210  208.5180  151.2680 C   0  0  0  0  0  3  0  0  0  0  0  0
  160.3540  211.6640  151.9790 N   0  0  0  0  0  0  0  0  0  0  0  0
  160.9200  208.2320  153.3470 C   0  0  2  0  0  3  0  0  0  0  0  0
  161.8610  209.9140  151.0970 C   0  0  0  0  0  0  0  0  0  0  0  0
  160.9780  210.3950  151.9640 C   0  0  0  0  0  0  0  0  0  0  0  0
  160.4680  209.6310  153.0500 C   0  0  0  0  0  0  0  0  0  0  0  0
  161.5780  208.1880  154.7150 C   0  0  0  0  0  1  0  0  0  0  0  0
  162.3310  210.7040  150.0100 N   0  0  0  0  0  1  0  0  0  0  0  0
  159.6020  210.3280  153.6990 N   0  0  0  0  0  0  0  0  0  0  0  0
  159.5550  211.5900  153.0050 C   0  0  0  0  0  3  0  0  0  0  0  0
  2  5  1  0  0  0  0
  3  7  1  6  0  0  0
  3  4  1  0  0  0  0
  3  2  1  0  0  0  0
  4  8  1  6  0  0  0
  4  6  1  0  0  0  0
  5  1  1  0  0  0  0
  6 17  1  1  0  0  0
  6  1  1  0  0  0  0
  9  8  2  0  0  0  0
 10  8  1  0  0  0  0
 11 10  1  0  0  0  0
 12 11  1  0  0  0  0
 13 12  1  0  0  0  0
 14 13  1  0  0  0  0
 14 16  1  0  0  0  0
 15 16  1  0  0  0  0
 17 18  1  0  0  0  0
 19 18  1  0  0  0  0
 19 22  1  0  0  0  0
 20 19  2  0  0  0  0
 21 29  2  0  0  0  0
 22 26  1  1  0  0  0
 23 20  1  0  0  0  0
 23 24  2  0  0  0  0
 24 21  1  0  0  0  0
 24 25  1  0  0  0  0
 25 22  1  0  0  0  0
 25 28  2  0  0  0  0
 27 23  1  0  0  0  0
 29 28  1  0  0  0  0
M  END
>  <MODEL>
5

>  <REMARK>
 VINA RESULT:      -6.6      3.294      7.683
  Name = 
  9 active torsions:
  status: ('A' for Active; 'I' for Inactive)
    1  A    between atoms: C_1  and  C_24
    2  A    between atoms: C_2  and  N_5
    3  A    between atoms: C_3  and  C_17
    4  A    between atoms: C_3  and  C_19
    5  A    between atoms: N_5  and  C_6
    6  A    between atoms: C_6  and  C_26
    7  A    between atoms: N_16  and  C_19
    8  A    between atoms: C_17  and  C_23
    9  A    between atoms: C_23  and  C_29
                            x       y       z     vdW  Elec       q    Type
                         _______ _______ _______ _____ _____    ______ ____

>  <TORSDO>
F 9

$$$$
=
 OpenBabel11042423133D

 29 31  0  0  1  0  0  0  0  0999 V2000
  162.7000  210.3270  151.4030 S   0  0  0  0  0  0  0  0  0  0  0  0
  162.0340  209.2010  148.9880 C   0  0  0  0  0  2  0  0  0  0  0  0
  161.5410  207.8990  149.6070 C   0  0  2  0  0  3  0  0  0  0  0  0
  162.2490  207.6320  150.9450 C   0  0  1  0  0  3  0  0  0  0  0  0
  161.7010  210.3870  149.8790 C   0  0  0  0  0  2  0  0  0  0  0  0
  162.0040  208.7410  151.9810 C   0  0  2  0  0  3  0  0  0  0  0  0
  161.7930  206.8580  148.7120 O   0  0  0  0  0  1  0  0  0  0  0  0
  161.9530  206.2720  151.5050 C   0  0  0  0  0  0  0  0  0  0  0  0
  162.6610  205.8280  152.4480 O   0  0  0  0  0  0  0  0  0  0  0  0
  160.8580  205.5020  150.9990 N   0  0  0  0  0  2  0  0  0  0  0  0
  160.5440  204.1650  151.4820 C   0  0  0  0  0  2  0  0  0  0  0  0
  160.8320  203.1250  150.4070 C   0  0  0  0  0  2  0  0  0  0  0  0
  160.9550  203.7610  149.0270 C   0  0  0  0  0  2  0  0  0  0  0  0
  161.2060  202.7130  147.9550 C   0  0  0  0  0  2  0  0  0  0  0  0
  161.5810  200.2880  147.6460 C   0  0  0  0  0  1  0  0  0  0  0  0
  160.8540  201.3300  148.4670 C   0  0  0  0  0  2  0  0  0  0  0  0
  160.5340  208.9180  152.3650 C   0  0  0  0  0  2  0  0  0  0  0  0
  160.3990  209.8880  153.4460 N   0  0  0  0  0  2  0  0  0  0  0  0
  159.4160  210.9310  153.4700 C   0  0  0  0  0  0  0  0  0  0  0  0
  159.2810  211.7620  152.4080 C   0  0  0  0  0  3  0  0  0  0  0  0
  156.3630  213.8660  153.5620 N   0  0  0  0  0  0  0  0  0  0  0  0
  158.5370  211.0520  154.7120 C   0  0  2  0  0  3  0  0  0  0  0  0
  158.2620  212.8350  152.3620 C   0  0  0  0  0  0  0  0  0  0  0  0
  157.4400  212.9640  153.3960 C   0  0  0  0  0  0  0  0  0  0  0  0
  157.5030  212.1250  154.5430 C   0  0  0  0  0  0  0  0  0  0  0  0
  159.3990  211.3630  155.9240 C   0  0  0  0  0  1  0  0  0  0  0  0
  158.1530  213.6820  151.2230 N   0  0  0  0  0  1  0  0  0  0  0  0
  156.5640  212.4450  155.3640 N   0  0  0  0  0  0  0  0  0  0  0  0
  155.8730  213.5340  154.7230 C   0  0  0  0  0  3  0  0  0  0  0  0
  1  6  1  0  0  0  0
  2  3  1  0  0  0  0
  2  5  1  0  0  0  0
  3  7  1  6  0  0  0
  3  4  1  0  0  0  0
  4  8  1  1  0  0  0
  4  6  1  0  0  0  0
  5  1  1  0  0  0  0
  6 17  1  6  0  0  0
  8  9  2  0  0  0  0
 10 11  1  0  0  0  0
 10  8  1  0  0  0  0
 12 11  1  0  0  0  0
 13 12  1  0  0  0  0
 14 16  1  0  0  0  0
 14 13  1  0  0  0  0
 15 16  1  0  0  0  0
 17 18  1  0  0  0  0
 18 19  1  0  0  0  0
 19 22  1  0  0  0  0
 20 19  2  0  0  0  0
 21 29  2  0  0  0  0
 22 26  1  1  0  0  0
 23 20  1  0  0  0  0
 23 24  2  0  0  0  0
 24 21  1  0  0  0  0
 24 25  1  0  0  0  0
 25 22  1  0  0  0  0
 25 28  2  0  0  0  0
 27 23  1  0  0  0  0
 29 28  1  0  0  0  0
M  END
>  <MODEL>
6

>  <REMARK>
 VINA RESULT:      -6.6      3.888      9.330
  Name = 
  9 active torsions:
  status: ('A' for Active; 'I' for Inactive)
    1  A    between atoms: C_1  and  C_24
    2  A    between atoms: C_2  and  N_5
    3  A    between atoms: C_3  and  C_17
    4  A    between atoms: C_3  and  C_19
    5  A    between atoms: N_5  and  C_6
    6  A    between atoms: C_6  and  C_26
    7  A    between atoms: N_16  and  C_19
    8  A    between atoms: C_17  and  C_23
    9  A    between atoms: C_23  and  C_29
                            x       y       z     vdW  Elec       q    Type
                         _______ _______ _______ _____ _____    ______ ____

>  <TORSDO>
F 9

$$$$
=
 OpenBabel11042423133D

 29 31  0  0  1  0  0  0  0  0999 V2000
  160.4870  208.1100  152.9760 S   0  0  0  0  0  0  0  0  0  0  0  0
  161.4960  205.5550  152.9640 C   0  0  0  0  0  2  0  0  0  0  0  0
  161.7720  205.5550  151.4660 C   0  0  2  0  0  3  0  0  0  0  0  0
  160.8170  206.5130  150.7370 C   0  0  1  0  0  3  0  0  0  0  0  0
  161.7470  206.9290  153.5630 C   0  0  0  0  0  2  0  0  0  0  0  0
  160.9510  207.9670  151.2170 C   0  0  2  0  0  3  0  0  0  0  0  0
  161.6120  204.2550  150.9840 O   0  0  0  0  0  1  0  0  0  0  0  0
  160.9070  206.4080  149.2430 C   0  0  0  0  0  0  0  0  0  0  0  0
  159.8580  206.2040  148.5770 O   0  0  0  0  0  0  0  0  0  0  0  0
  162.1640  206.5760  148.5790 N   0  0  0  0  0  2  0  0  0  0  0  0
  162.3160  206.4540  147.1350 C   0  0  0  0  0  2  0  0  0  0  0  0
  162.6700  205.0230  146.7530 C   0  0  0  0  0  2  0  0  0  0  0  0
  161.5310  204.3420  146.0030 C   0  0  0  0  0  2  0  0  0  0  0  0
  161.3430  202.9070  146.4670 C   0  0  0  0  0  2  0  0  0  0  0  0
  160.9760  201.4140  148.4050 C   0  0  0  0  0  1  0  0  0  0  0  0
  161.2060  202.8470  147.9760 C   0  0  0  0  0  2  0  0  0  0  0  0
  162.3360  208.5730  150.9840 C   0  0  0  0  0  2  0  0  0  0  0  0
  162.3790  209.9530  151.4550 N   0  0  0  0  0  2  0  0  0  0  0  0
  161.7350  211.0480  150.7920 C   0  0  0  0  0  0  0  0  0  0  0  0
  160.7500  211.7360  151.4200 C   0  0  0  0  0  3  0  0  0  0  0  0
  160.0150  214.3820  148.8250 N   0  0  0  0  0  0  0  0  0  0  0  0
  162.2070  211.4070  149.3860 C   0  0  0  0  0  0  0  0  0  0  0  0
  160.0700  212.8960  150.7990 C   0  0  0  0  0  0  0  0  0  0  0  0
  160.4660  213.2830  149.5930 C   0  0  2  0  0  3  0  0  0  0  0  0
  161.5020  212.6270  148.8720 C   0  0  0  0  0  0  0  0  0  0  0  0
  161.9560  210.2410  148.4460 C   0  0  0  0  0  1  0  0  0  0  0  0
  159.0430  213.5920  151.4970 N   0  0  0  0  0  1  0  0  0  0  0  0
  161.7060  213.2380  147.7570 N   0  0  0  0  0  0  0  0  0  0  0  0
  160.7620  214.3260  147.7590 C   0  0  0  0  0  3  0  0  0  0  0  0
  1  5  1  0  0  0  0
  2  5  1  0  0  0  0
  3  7  1  6  0  0  0
  3  2  1  0  0  0  0
  4  8  1  6  0  0  0
  4  6  1  0  0  0  0
  4  3  1  0  0  0  0
  6 17  1  1  0  0  0
  6  1  1  0  0  0  0
  9  8  2  0  0  0  0
 10  8  1  0  0  0  0
 11 10  1  0  0  0  0
 12 11  1  0  0  0  0
 13 14  1  0  0  0  0
 13 12  1  0  0  0  0
 14 16  1  0  0  0  0
 16 15  1  0  0  0  0
 17 18  1  0  0  0  0
 19 20  1  0  0  0  0
 19 18  1  0  0  0  0
 22 19  2  0  0  0  0
 23 20  2  0  0  0  0
 23 27  1  0  0  0  0
 24 21  1  1  0  0  0
 24 23  1  0  0  0  0
 25 22  1  0  0  0  0
 25 24  1  0  0  0  0
 26 22  1  0  0  0  0
 28 29  1  0  0  0  0
 28 25  2  0  0  0  0
 29 21  2  0  0  0  0
M  END
>  <MODEL>
7

>  <REMARK>
 VINA RESULT:      -6.4      2.707      7.873
  Name = 
  9 active torsions:
  status: ('A' for Active; 'I' for Inactive)
    1  A    between atoms: C_1  and  C_24
    2  A    between atoms: C_2  and  N_5
    3  A    between atoms: C_3  and  C_17
    4  A    between atoms: C_3  and  C_19
    5  A    between atoms: N_5  and  C_6
    6  A    between atoms: C_6  and  C_26
    7  A    between atoms: N_16  and  C_19
    8  A    between atoms: C_17  and  C_23
    9  A    between atoms: C_23  and  C_29
                            x       y       z     vdW  Elec       q    Type
                         _______ _______ _______ _____ _____    ______ ____

>  <TORSDO>
F 9

$$$$
=
 OpenBabel11042423133D

 29 31  0  0  1  0  0  0  0  0999 V2000
  158.1090  211.7010  154.1900 S   0  0  0  0  0  0  0  0  0  0  0  0
  160.3730  211.6330  155.7450 C   0  0  0  0  0  2  0  0  0  0  0  0
  161.2520  211.0770  154.6320 C   0  0  2  0  0  3  0  0  0  0  0  0
  160.4140  210.2690  153.6290 C   0  0  1  0  0  3  0  0  0  0  0  0
  159.3410  212.6000  155.1900 C   0  0  0  0  0  2  0  0  0  0  0  0
  159.3170  211.1100  152.9550 C   0  0  2  0  0  3  0  0  0  0  0  0
  162.2340  210.2660  155.2030 O   0  0  0  0  0  1  0  0  0  0  0  0
  161.2490  209.5330  152.6230 C   0  0  0  0  0  0  0  0  0  0  0  0
  162.2440  210.1100  152.1100 O   0  0  0  0  0  0  0  0  0  0  0  0
  160.9410  208.1790  152.2770 N   0  0  0  0  0  2  0  0  0  0  0  0
  161.6980  207.4270  151.2850 C   0  0  0  0  0  2  0  0  0  0  0  0
  161.7820  205.9570  151.6770 C   0  0  0  0  0  2  0  0  0  0  0  0
  160.8080  205.1030  150.8740 C   0  0  0  0  0  2  0  0  0  0  0  0
  160.9340  205.3730  149.3840 C   0  0  0  0  0  2  0  0  0  0  0  0
  160.8350  202.9030  149.5030 C   0  0  0  0  0  1  0  0  0  0  0  0
  161.1980  204.0840  148.6280 C   0  0  0  0  0  2  0  0  0  0  0  0
  159.8520  212.2840  152.1340 C   0  0  0  0  0  2  0  0  0  0  0  0
  158.7590  212.9860  151.4710 N   0  0  0  0  0  2  0  0  0  0  0  0
  158.7640  213.3550  150.0860 C   0  0  0  0  0  0  0  0  0  0  0  0
  159.9230  213.7200  149.4850 C   0  0  0  0  0  3  0  0  0  0  0  0
  158.7120  214.2550  145.9470 N   0  0  0  0  0  0  0  0  0  0  0  0
  157.4390  213.3060  149.3300 C   0  0  0  0  0  0  0  0  0  0  0  0
  159.9970  214.0800  148.0510 C   0  0  0  0  0  0  0  0  0  0  0  0
  158.8840  214.0160  147.3300 C   0  0  2  0  0  3  0  0  0  0  0  0
  157.6300  213.6280  147.8780 C   0  0  0  0  0  0  0  0  0  0  0  0
  156.4590  214.2910  149.9450 C   0  0  0  0  0  1  0  0  0  0  0  0
  161.2370  214.4530  147.4610 N   0  0  0  0  0  1  0  0  0  0  0  0
  156.7390  213.6120  146.9490 N   0  0  0  0  0  0  0  0  0  0  0  0
  157.4460  214.0080  145.7580 C   0  0  0  0  0  3  0  0  0  0  0  0
  1  5  1  0  0  0  0
  3  7  1  1  0  0  0
  3  2  1  0  0  0  0
  4  8  1  6  0  0  0
  4  3  1  0  0  0  0
  5  2  1  0  0  0  0
  6 17  1  1  0  0  0
  6  4  1  0  0  0  0
  6  1  1  0  0  0  0
  9  8  2  0  0  0  0
 10  8  1  0  0  0  0
 11 12  1  0  0  0  0
 11 10  1  0  0  0  0
 13 12  1  0  0  0  0
 14 13  1  0  0  0  0
 16 14  1  0  0  0  0
 16 15  1  0  0  0  0
 18 17  1  0  0  0  0
 19 18  1  0  0  0  0
 20 19  1  0  0  0  0
 22 26  1  0  0  0  0
 22 19  2  0  0  0  0
 23 20  2  0  0  0  0
 24 21  1  6  0  0  0
 24 25  1  0  0  0  0
 24 23  1  0  0  0  0
 25 22  1  0  0  0  0
 27 23  1  0  0  0  0
 28 25  2  0  0  0  0
 29 21  2  0  0  0  0
 29 28  1  0  0  0  0
M  END
>  <MODEL>
8

>  <REMARK>
 VINA RESULT:      -6.4      3.928      8.616
  Name = 
  9 active torsions:
  status: ('A' for Active; 'I' for Inactive)
    1  A    between atoms: C_1  and  C_24
    2  A    between atoms: C_2  and  N_5
    3  A    between atoms: C_3  and  C_17
    4  A    between atoms: C_3  and  C_19
    5  A    between atoms: N_5  and  C_6
    6  A    between atoms: C_6  and  C_26
    7  A    between atoms: N_16  and  C_19
    8  A    between atoms: C_17  and  C_23
    9  A    between atoms: C_23  and  C_29
                            x       y       z     vdW  Elec       q    Type
                         _______ _______ _______ _____ _____    ______ ____

>  <TORSDO>
F 9

$$$$
=
 OpenBabel11042423133D

 29 31  0  0  1  0  0  0  0  0999 V2000
  160.2710  203.5790  152.5000 S   0  0  0  0  0  0  0  0  0  0  0  0
  161.0250  201.9100  150.4530 C   0  0  0  0  0  2  0  0  0  0  0  0
  161.4110  203.0510  149.5200 C   0  0  2  0  0  3  0  0  0  0  0  0
  160.6110  204.3200  149.8530 C   0  0  1  0  0  3  0  0  0  0  0  0
  161.3620  202.2490  151.8950 C   0  0  0  0  0  2  0  0  0  0  0  0
  160.8490  204.8150  151.2890 C   0  0  2  0  0  3  0  0  0  0  0  0
  161.1630  202.6550  148.2050 O   0  0  0  0  0  1  0  0  0  0  0  0
  160.8020  205.4170  148.8460 C   0  0  0  0  0  0  0  0  0  0  0  0
  159.9920  206.3800  148.8260 O   0  0  0  0  0  0  0  0  0  0  0  0
  161.9140  205.3870  147.9450 N   0  0  0  0  0  2  0  0  0  0  0  0
  162.1320  206.4070  146.9280 C   0  0  0  0  0  2  0  0  0  0  0  0
  161.6610  205.9130  145.5660 C   0  0  0  0  0  2  0  0  0  0  0  0
  162.0030  204.4440  145.3500 C   0  0  0  0  0  2  0  0  0  0  0  0
  160.7830  203.6510  144.9090 C   0  0  0  0  0  2  0  0  0  0  0  0
  159.7270  201.4150  144.8340 C   0  0  0  0  0  1  0  0  0  0  0  0
  160.8490  202.2310  145.4390 C   0  0  0  0  0  2  0  0  0  0  0  0
  162.3000  205.2030  151.5790 C   0  0  0  0  0  2  0  0  0  0  0  0
  162.4430  206.6530  151.6330 N   0  0  0  0  0  2  0  0  0  0  0  0
  161.8370  207.4830  152.6320 C   0  0  0  0  0  0  0  0  0  0  0  0
  161.2460  206.9210  153.7150 C   0  0  0  0  0  3  0  0  0  0  0  0
  160.2330  210.0230  155.6190 N   0  0  0  0  0  0  0  0  0  0  0  0
  161.8980  208.9950  152.4350 C   0  0  0  0  0  0  0  0  0  0  0  0
  160.6330  207.7270  154.7950 C   0  0  0  0  0  0  0  0  0  0  0  0
  160.6910  209.0500  154.7010 C   0  0  0  0  0  0  0  0  0  0  0  0
  161.3060  209.7200  153.6070 C   0  0  0  0  0  0  0  0  0  0  0  0
  161.1520  209.3800  151.1690 C   0  0  0  0  0  1  0  0  0  0  0  0
  160.0270  207.0940  155.9160 N   0  0  0  0  0  1  0  0  0  0  0  0
  161.2560  210.9930  153.7970 N   0  0  0  0  0  0  0  0  0  0  0  0
  160.5810  211.1470  155.0600 C   0  0  0  0  0  2  0  0  0  0  0  0
  2  5  1  0  0  0  0
  3  7  1  6  0  0  0
  3  4  1  0  0  0  0
  3  2  1  0  0  0  0
  4  8  1  6  0  0  0
  4  6  1  0  0  0  0
  5  1  1  0  0  0  0
  6 17  1  6  0  0  0
  6  1  1  0  0  0  0
  9  8  2  0  0  0  0
 10  8  1  0  0  0  0
 11 10  1  0  0  0  0
 12 11  1  0  0  0  0
 13 12  1  0  0  0  0
 14 13  1  0  0  0  0
 14 16  1  0  0  0  0
 15 16  1  0  0  0  0
 17 18  1  0  0  0  0
 18 19  1  0  0  0  0
 19 20  1  0  0  0  0
 20 23  2  0  0  0  0
 22 19  2  0  0  0  0
 22 25  1  0  0  0  0
 23 27  1  0  0  0  0
 24 23  1  0  0  0  0
 24 21  2  0  0  0  0
 25 28  2  0  0  0  0
 25 24  1  0  0  0  0
 26 22  1  0  0  0  0
 28 29  1  0  0  0  0
 29 21  1  0  0  0  0
M  END
>  <MODEL>
9

>  <REMARK>
 VINA RESULT:      -6.4      3.448      7.717
  Name = 
  9 active torsions:
  status: ('A' for Active; 'I' for Inactive)
    1  A    between atoms: C_1  and  C_24
    2  A    between atoms: C_2  and  N_5
    3  A    between atoms: C_3  and  C_17
    4  A    between atoms: C_3  and  C_19
    5  A    between atoms: N_5  and  C_6
    6  A    between atoms: C_6  and  C_26
    7  A    between atoms: N_16  and  C_19
    8  A    between atoms: C_17  and  C_23
    9  A    between atoms: C_23  and  C_29
                            x       y       z     vdW  Elec       q    Type
                         _______ _______ _______ _____ _____    ______ ____

>  <TORSDO>
F 9

$$$$
