=
 OpenBabel11042422333D

 60 69  0  0  1  0  0  0  0  0999 V2000
  159.4090  213.0190  150.5830 C   0  0  1  0  0  3  0  0  0  0  0  0
  158.2980  213.6020  151.3990 C   0  0  0  0  0  0  0  0  0  0  0  0
  157.2640  213.7050  154.9280 C   0  0  0  0  0  2  0  0  0  0  0  0
  155.9940  214.4430  151.5070 C   0  0  0  0  0  2  0  0  0  0  0  0
  156.0280  213.2230  154.9710 C   0  0  0  0  0  0  0  0  0  0  0  0
  154.1320  213.0310  153.3560 F   0  0  0  0  0  0  0  0  0  0  0  0
  156.1310  214.2600  152.9820 C   0  0  1  0  0  3  0  0  0  0  0  0
  157.1560  213.8660  150.8210 N   0  0  0  0  0  0  0  0  0  0  0  0
  155.3210  213.5540  153.7480 C   0  0  0  0  0  0  0  0  0  0  0  0
  157.4530  214.4530  153.6380 C   0  0  2  0  0  3  0  0  0  0  0  0
  155.4900  212.3900  156.0780 C   0  0  0  0  0  1  0  0  0  0  0  0
  158.4760  213.8130  152.8150 N   0  0  0  0  0  2  0  0  0  0  0  0
  160.3270  214.1320  150.0960 C   0  0  0  0  0  2  0  0  0  0  0  0
  161.0840  213.7000  148.8830 C   0  0  0  0  0  0  0  0  0  0  0  0
  160.4750  212.4170  147.8070 S   0  0  0  0  0  0  0  0  0  0  0  0
  162.7040  213.8420  147.2590 C   0  0  0  0  0  2  0  0  0  0  0  0
  162.1320  214.3170  148.4880 N   0  0  0  0  0  0  0  0  0  0  0  0
  161.6270  213.0410  146.5360 C   0  0  2  0  0  3  0  0  0  0  0  0
  160.9170  213.9150  145.6140 N   0  0  0  0  0  2  0  0  0  0  0  0
  161.3330  213.2190  143.3320 C   0  0  0  0  0  3  0  0  0  0  0  0
  159.1380  213.3040  143.8770 C   0  0  0  0  0  3  0  0  0  0  0  0
  160.5030  213.4900  144.3160 C   0  0  0  0  0  0  0  0  0  0  0  0
  159.1360  212.9290  142.6440 N   0  0  0  0  0  0  0  0  0  0  0  0
  160.5050  212.8270  142.1380 C   0  0  1  0  0  3  0  0  0  0  0  0
  160.7160  213.7900  140.9500 C   0  0  2  0  0  3  0  0  0  0  0  0
  158.7850  211.4050  138.7940 C   0  0  1  0  0  3  0  0  0  0  0  0
  161.2070  211.2220  138.5980 C   0  0  0  0  0  2  0  0  0  0  0  0
  160.0870  211.7950  139.4560 C   0  0  1  0  0  3  0  0  0  0  0  0
  158.5530  209.9310  139.0940 C   0  0  0  0  0  2  0  0  0  0  0  0
  156.6200  212.3300  139.3830 O   0  0  0  0  0  0  0  0  0  0  0  0
  160.9850  209.7240  138.4420 C   0  0  0  0  0  3  0  0  0  0  0  0
  158.5820  213.5150  139.8030 O   0  0  0  0  0  0  0  0  0  0  0  0
  159.9890  213.3110  139.6700 C   0  0  1  0  0  3  0  0  0  0  0  0
  159.7720  209.1440  138.6290 C   0  0  0  0  0  3  0  0  0  0  0  0
  157.8780  212.4080  139.3670 C   0  0  0  0  0  0  0  0  0  0  0  0
  162.4990  214.4530  139.2730 C   0  0  0  0  0  1  0  0  0  0  0  0
  162.9690  212.8710  141.0080 O   0  0  0  0  0  1  0  0  0  0  0  0
  162.2220  214.0090  140.6960 C   0  0  2  0  0  3  0  0  0  0  0  0
  160.1410  212.0970  151.3380 O   0  0  0  0  0  0  0  0  0  0  0  0
  159.3290  211.7960  152.4330 C   0  0  0  0  0  2  0  0  0  0  0  0
  159.3850  210.3040  152.6960 C   0  0  0  0  0  2  0  0  0  0  0  0
  161.5300  204.5650  150.2950 C   0  0  1  0  0  3  0  0  0  0  0  0
  162.0400  209.1130  150.7500 C   0  0  0  0  0  3  0  0  0  0  0  0
  160.4270  203.1090  149.0030 O   0  0  0  0  0  0  0  0  0  0  0  0
  161.4070  205.1080  147.9900 C   0  0  0  0  0  0  0  0  0  0  0  0
  161.4180  204.6290  146.8240 O   0  0  0  0  0  0  0  0  0  0  0  0
  161.1250  209.3350  154.0440 O   0  0  0  0  0  0  0  0  0  0  0  0
  162.1890  205.5020  152.9510 O   0  0  0  0  0  0  0  0  0  0  0  0
  161.6310  208.0640  153.9210 N   0  0  0  0  0  2  0  0  0  0  0  0
  160.8260  209.8280  152.7460 C   0  0  1  0  0  3  0  0  0  0  0  0
  161.8400  206.3790  152.1140 C   0  0  0  0  0  0  0  0  0  0  0  0
  162.0560  206.8630  149.6460 C   0  0  0  0  0  0  0  0  0  0  0  0
  160.6620  204.4670  149.1060 C   0  0  2  0  0  3  0  0  0  0  0  0
  160.3840  202.7200  150.3690 C   0  0  0  0  0  2  0  0  0  0  0  0
  161.5230  207.6950  152.5790 N   0  0  0  0  0  0  0  0  0  0  0  0
  161.7400  206.0140  150.6760 C   0  0  0  0  0  0  0  0  0  0  0  0
  162.0440  206.3580  148.2890 N   0  0  0  0  0  2  0  0  0  0  0  0
  160.8940  203.7450  151.2090 O   0  0  0  0  0  0  0  0  0  0  0  0
  161.0090  208.7250  151.7530 C   0  0  2  0  0  3  0  0  0  0  0  0
  162.4760  208.2720  149.8140 C   0  0  0  0  0  3  0  0  0  0  0  0
  1 13  1  1  0  0  0
  1 39  1  0  0  0  0
  1  2  1  0  0  0  0
  2 12  1  0  0  0  0
  3  5  1  0  0  0  0
  5 11  1  0  0  0  0
  6  9  1  0  0  0  0
  7  4  1  6  0  0  0
  7 10  1  0  0  0  0
  7  9  1  0  0  0  0
  8  2  2  0  0  0  0
  8  4  1  0  0  0  0
  9  5  2  0  0  0  0
 10  3  1  1  0  0  0
 12 10  1  0  0  0  0
 14 13  1  0  0  0  0
 15 14  1  0  0  0  0
 16 17  1  0  0  0  0
 17 14  2  0  0  0  0
 18 19  1  6  0  0  0
 18 16  1  0  0  0  0
 18 15  1  0  0  0  0
 20 22  2  0  0  0  0
 21 22  1  0  0  0  0
 22 19  1  0  0  0  0
 23 21  2  0  0  0  0
 24 25  1  6  0  0  0
 24 23  1  0  0  0  0
 24 20  1  0  0  0  0
 25 38  1  6  0  0  0
 26 29  1  1  0  0  0
 26 35  1  0  0  0  0
 26 28  1  0  0  0  0
 28 27  1  6  0  0  0
 28 33  1  0  0  0  0
 31 27  1  0  0  0  0
 31 34  2  0  0  0  0
 33 32  1  0  0  0  0
 33 25  1  1  0  0  0
 34 29  1  0  0  0  0
 35 30  2  0  0  0  0
 35 32  1  0  0  0  0
 38 36  1  6  0  0  0
 38 37  1  0  0  0  0
 39 40  1  0  0  0  0
 40 41  1  0  0  0  0
 42 56  1  1  0  0  0
 42 58  1  0  0  0  0
 44 53  1  0  0  0  0
 44 54  1  0  0  0  0
 45 57  1  0  0  0  0
 46 45  2  0  0  0  0
 49 47  1  0  0  0  0
 50 41  1  1  0  0  0
 50 47  1  0  0  0  0
 51 55  1  0  0  0  0
 51 48  2  0  0  0  0
 52 60  1  0  0  0  0
 52 56  2  0  0  0  0
 53 45  1  6  0  0  0
 53 42  1  0  0  0  0
 54 58  1  0  0  0  0
 55 49  1  0  0  0  0
 56 51  1  0  0  0  0
 57 52  1  0  0  0  0
 59 43  1  6  0  0  0
 59 55  1  0  0  0  0
 59 50  1  0  0  0  0
 60 43  2  0  0  0  0
M  END
>  <MODEL>
1

>  <REMARK>
 VINA RESULT:      -7.8      0.000      0.000
  Name = 
  12 active torsions:
  status: ('A' for Active; 'I' for Inactive)
    1  A    between atoms: N_3  and  C_34
    2  A    between atoms: N_3  and  C_44
    3  A    between atoms: C_8  and  C_13
    4  A    between atoms: C_9  and  C_19
    5  A    between atoms: C_13  and  C_19
    6  A    between atoms: C_13  and  O_57
    7  A    between atoms: C_23  and  C_27
    8  A    between atoms: C_23  and  C_60
    9  A    between atoms: C_29  and  C_51
   10  A    between atoms: C_29  and  C_55
   11  A    between atoms: C_29  and  C_56
   12  A    between atoms: O_57  and  C_60
                            x       y       z     vdW  Elec       q    Type
                         _______ _______ _______ _____ _____    ______ ____

>  <TORSDO>
F 12

$$$$
=
 OpenBabel11042422333D

 60 69  0  0  1  0  0  0  0  0999 V2000
  160.7090  210.6800  152.3410 C   0  0  1  0  0  3  0  0  0  0  0  0
  160.0880  211.7940  153.1240 C   0  0  0  0  0  0  0  0  0  0  0  0
  158.4090  212.2490  156.3660 C   0  0  0  0  0  2  0  0  0  0  0  0
  159.0190  214.0040  153.1400 C   0  0  0  0  0  2  0  0  0  0  0  0
  157.2240  212.7840  156.1030 C   0  0  0  0  0  0  0  0  0  0  0  0
  156.2580  214.1560  154.2520 F   0  0  0  0  0  0  0  0  0  0  0  0
  158.5620  213.6330  154.5120 C   0  0  1  0  0  3  0  0  0  0  0  0
  159.6420  212.8450  152.4900 N   0  0  0  0  0  0  0  0  0  0  0  0
  157.3110  213.6380  154.9340 C   0  0  0  0  0  0  0  0  0  0  0  0
  159.4120  212.7650  155.3720 C   0  0  2  0  0  3  0  0  0  0  0  0
  155.9770  212.4750  156.8520 C   0  0  0  0  0  1  0  0  0  0  0  0
  159.9370  211.6740  154.5550 N   0  0  0  0  0  2  0  0  0  0  0  0
  160.0790  209.3540  152.7470 C   0  0  0  0  0  2  0  0  0  0  0  0
  161.0930  208.2570  152.7160 C   0  0  0  0  0  0  0  0  0  0  0  0
  161.7770  207.5720  154.2120 S   0  0  0  0  0  0  0  0  0  0  0  0
  162.3390  206.5780  151.7630 C   0  0  0  0  0  2  0  0  0  0  0  0
  161.4160  207.6700  151.6270 N   0  0  0  0  0  0  0  0  0  0  0  0
  162.3040  206.1320  153.2210 C   0  0  2  0  0  3  0  0  0  0  0  0
  161.3400  205.0520  153.3690 N   0  0  0  0  0  2  0  0  0  0  0  0
  161.3550  203.1710  151.8430 C   0  0  0  0  0  3  0  0  0  0  0  0
  159.7240  204.6820  151.4180 C   0  0  0  0  0  3  0  0  0  0  0  0
  160.8410  204.3090  152.2570 C   0  0  0  0  0  0  0  0  0  0  0  0
  159.5640  203.7860  150.5040 N   0  0  0  0  0  0  0  0  0  0  0  0
  160.5600  202.7260  150.6470 C   0  0  1  0  0  3  0  0  0  0  0  0
  161.4350  202.6300  149.3780 C   0  0  2  0  0  3  0  0  0  0  0  0
  161.3850  205.1800  146.6270 C   0  0  1  0  0  3  0  0  0  0  0  0
  160.5540  205.9800  148.7740 C   0  0  0  0  0  2  0  0  0  0  0  0
  161.3400  204.8620  148.1050 C   0  0  1  0  0  3  0  0  0  0  0  0
  162.4000  206.2970  146.4400 C   0  0  0  0  0  2  0  0  0  0  0  0
  162.1090  203.6220  144.9140 O   0  0  0  0  0  0  0  0  0  0  0  0
  161.2010  207.3120  148.4190 C   0  0  0  0  0  3  0  0  0  0  0  0
  161.2840  202.8570  146.9550 O   0  0  0  0  0  0  0  0  0  0  0  0
  160.8320  203.4160  148.1890 C   0  0  1  0  0  3  0  0  0  0  0  0
  162.0070  207.4640  147.3370 C   0  0  0  0  0  3  0  0  0  0  0  0
  161.6670  203.8490  146.0720 C   0  0  0  0  0  0  0  0  0  0  0  0
  160.9910  200.7620  147.7210 C   0  0  0  0  0  1  0  0  0  0  0  0
  161.3220  200.2920  150.0450 O   0  0  0  0  0  1  0  0  0  0  0  0
  161.6880  201.1530  149.0080 C   0  0  2  0  0  3  0  0  0  0  0  0
  160.5340  210.8880  150.9690 O   0  0  0  0  0  0  0  0  0  0  0  0
  161.8060  210.7420  150.4130 C   0  0  0  0  0  2  0  0  0  0  0  0
  161.7030  210.8610  148.9050 C   0  0  0  0  0  2  0  0  0  0  0  0
  161.4910  212.9840  142.6800 C   0  0  1  0  0  3  0  0  0  0  0  0
  160.4210  213.5810  147.1120 C   0  0  0  0  0  3  0  0  0  0  0  0
  160.7040  211.9120  140.8810 O   0  0  0  0  0  0  0  0  0  0  0  0
  159.1350  212.9910  142.4160 C   0  0  0  0  0  0  0  0  0  0  0  0
  158.2000  213.0490  141.5730 O   0  0  0  0  0  0  0  0  0  0  0  0
  163.3930  212.5080  148.4350 O   0  0  0  0  0  0  0  0  0  0  0  0
  163.7110  213.5310  144.4520 O   0  0  0  0  0  0  0  0  0  0  0  0
  163.7320  212.9870  147.1940 N   0  0  0  0  0  2  0  0  0  0  0  0
  161.9900  212.2860  148.4650 C   0  0  1  0  0  3  0  0  0  0  0  0
  162.6100  213.2460  144.9980 C   0  0  0  0  0  0  0  0  0  0  0  0
  160.1390  213.5980  144.6220 C   0  0  0  0  0  0  0  0  0  0  0  0
  160.3580  212.1750  142.1920 C   0  0  2  0  0  3  0  0  0  0  0  0
  162.1170  211.7910  140.9740 C   0  0  0  0  0  2  0  0  0  0  0  0
  162.5890  212.9390  146.3950 N   0  0  0  0  0  0  0  0  0  0  0  0
  161.3750  213.2100  144.1710 C   0  0  0  0  0  0  0  0  0  0  0  0
  159.0320  213.6420  143.6900 N   0  0  0  0  0  2  0  0  0  0  0  0
  162.5910  212.2830  142.2190 O   0  0  0  0  0  0  0  0  0  0  0  0
  161.4370  212.4920  147.0910 C   0  0  2  0  0  3  0  0  0  0  0  0
  159.8470  214.0430  146.0030 C   0  0  0  0  0  3  0  0  0  0  0  0
  1 13  1  1  0  0  0
  1  2  1  0  0  0  0
  2 12  1  0  0  0  0
  5  3  1  0  0  0  0
  5 11  1  0  0  0  0
  6  9  1  0  0  0  0
  7  4  1  6  0  0  0
  7  9  1  0  0  0  0
  7 10  1  0  0  0  0
  8  2  2  0  0  0  0
  8  4  1  0  0  0  0
  9  5  2  0  0  0  0
 10  3  1  1  0  0  0
 12 10  1  0  0  0  0
 14 13  1  0  0  0  0
 14 15  1  0  0  0  0
 16 18  1  0  0  0  0
 17 16  1  0  0  0  0
 17 14  2  0  0  0  0
 18 19  1  6  0  0  0
 18 15  1  0  0  0  0
 20 22  2  0  0  0  0
 21 22  1  0  0  0  0
 22 19  1  0  0  0  0
 23 24  1  0  0  0  0
 23 21  2  0  0  0  0
 24 25  1  6  0  0  0
 24 20  1  0  0  0  0
 25 38  1  6  0  0  0
 26 29  1  1  0  0  0
 26 28  1  0  0  0  0
 28 33  1  0  0  0  0
 28 27  1  1  0  0  0
 29 34  1  0  0  0  0
 30 35  2  0  0  0  0
 31 27  1  0  0  0  0
 32 33  1  0  0  0  0
 33 25  1  1  0  0  0
 34 31  2  0  0  0  0
 35 26  1  0  0  0  0
 35 32  1  0  0  0  0
 38 36  1  6  0  0  0
 38 37  1  0  0  0  0
 39  1  1  0  0  0  0
 40 39  1  0  0  0  0
 41 40  1  0  0  0  0
 42 58  1  1  0  0  0
 42 56  1  0  0  0  0
 44 54  1  0  0  0  0
 45 57  1  0  0  0  0
 46 45  2  0  0  0  0
 47 50  1  0  0  0  0
 48 51  2  0  0  0  0
 49 47  1  0  0  0  0
 50 41  1  6  0  0  0
 51 55  1  0  0  0  0
 52 60  1  0  0  0  0
 53 44  1  6  0  0  0
 53 45  1  0  0  0  0
 53 42  1  0  0  0  0
 54 58  1  0  0  0  0
 55 59  1  0  0  0  0
 55 49  1  0  0  0  0
 56 52  2  0  0  0  0
 56 51  1  0  0  0  0
 57 52  1  0  0  0  0
 59 43  1  1  0  0  0
 59 50  1  0  0  0  0
 60 43  2  0  0  0  0
M  END
>  <MODEL>
2

>  <REMARK>
 VINA RESULT:      -6.3      2.570      9.419
  Name = 
  12 active torsions:
  status: ('A' for Active; 'I' for Inactive)
    1  A    between atoms: N_3  and  C_34
    2  A    between atoms: N_3  and  C_44
    3  A    between atoms: C_8  and  C_13
    4  A    between atoms: C_9  and  C_19
    5  A    between atoms: C_13  and  C_19
    6  A    between atoms: C_13  and  O_57
    7  A    between atoms: C_23  and  C_27
    8  A    between atoms: C_23  and  C_60
    9  A    between atoms: C_29  and  C_51
   10  A    between atoms: C_29  and  C_55
   11  A    between atoms: C_29  and  C_56
   12  A    between atoms: O_57  and  C_60
                            x       y       z     vdW  Elec       q    Type
                         _______ _______ _______ _____ _____    ______ ____

>  <TORSDO>
F 12

$$$$
=
 OpenBabel11042422333D

 60 69  0  0  1  0  0  0  0  0999 V2000
  161.8120  211.0920  152.4720 C   0  0  1  0  0  3  0  0  0  0  0  0
  160.6920  211.1330  153.4630 C   0  0  0  0  0  0  0  0  0  0  0  0
  157.1550  212.1420  153.5470 C   0  0  0  0  0  2  0  0  0  0  0  0
  159.9690  211.2280  155.8080 C   0  0  0  0  0  2  0  0  0  0  0  0
  157.0430  213.0370  154.5200 C   0  0  0  0  0  0  0  0  0  0  0  0
  158.3060  213.5680  156.6090 F   0  0  0  0  0  0  0  0  0  0  0  0
  158.6480  211.6470  155.2510 C   0  0  1  0  0  3  0  0  0  0  0  0
  160.9730  211.1890  154.7380 N   0  0  0  0  0  0  0  0  0  0  0  0
  157.9870  212.7410  155.5810 C   0  0  0  0  0  0  0  0  0  0  0  0
  158.1950  211.1270  153.9320 C   0  0  2  0  0  3  0  0  0  0  0  0
  156.1400  214.2170  154.4760 C   0  0  0  0  0  1  0  0  0  0  0  0
  159.3230  211.1680  153.0050 N   0  0  0  0  0  2  0  0  0  0  0  0
  162.7310  209.9180  152.7840 C   0  0  0  0  0  2  0  0  0  0  0  0
  162.2150  208.6630  152.1590 C   0  0  0  0  0  0  0  0  0  0  0  0
  160.4700  208.3610  151.9670 S   0  0  0  0  0  0  0  0  0  0  0  0
  162.3550  206.6960  150.9800 C   0  0  0  0  0  2  0  0  0  0  0  0
  162.9990  207.8120  151.6160 N   0  0  0  0  0  0  0  0  0  0  0  0
  160.9030  207.0910  150.7300 C   0  0  2  0  0  3  0  0  0  0  0  0
  160.7810  207.6470  149.3900 N   0  0  0  0  0  2  0  0  0  0  0  0
  160.4500  206.6580  147.2040 C   0  0  0  0  0  3  0  0  0  0  0  0
  162.5630  206.4540  147.9900 C   0  0  0  0  0  3  0  0  0  0  0  0
  161.2250  206.9500  148.2260 C   0  0  0  0  0  0  0  0  0  0  0  0
  162.6010  205.8650  146.8440 N   0  0  0  0  0  0  0  0  0  0  0  0
  161.2880  205.9130  146.2010 C   0  0  1  0  0  3  0  0  0  0  0  0
  160.7550  204.4850  145.9530 C   0  0  2  0  0  3  0  0  0  0  0  0
  161.2610  201.5750  148.2650 C   0  0  1  0  0  3  0  0  0  0  0  0
  161.3750  203.7600  149.3380 C   0  0  0  0  0  2  0  0  0  0  0  0
  160.9360  203.0380  148.0710 C   0  0  1  0  0  3  0  0  0  0  0  0
  160.2140  201.0050  149.2090 C   0  0  0  0  0  2  0  0  0  0  0  0
  161.2170  199.9180  146.4920 O   0  0  0  0  0  0  0  0  0  0  0  0
  160.7010  203.1010  150.5330 C   0  0  0  0  0  3  0  0  0  0  0  0
  161.5350  202.1760  146.0110 O   0  0  0  0  0  0  0  0  0  0  0  0
  161.5650  203.4140  146.7220 C   0  0  1  0  0  3  0  0  0  0  0  0
  160.2090  201.8360  150.4860 C   0  0  0  0  0  3  0  0  0  0  0  0
  161.2970  201.1180  146.8680 C   0  0  0  0  0  0  0  0  0  0  0  0
  161.1040  205.3860  143.6080 C   0  0  0  0  0  1  0  0  0  0  0  0
  159.4590  203.7030  144.0470 O   0  0  0  0  0  1  0  0  0  0  0  0
  160.7100  204.1820  144.4410 C   0  0  2  0  0  3  0  0  0  0  0  0
  161.3120  210.9700  151.1710 O   0  0  0  0  0  0  0  0  0  0  0  0
  161.5290  212.2150  150.5790 C   0  0  0  0  0  2  0  0  0  0  0  0
  161.1070  212.1520  149.1250 C   0  0  0  0  0  2  0  0  0  0  0  0
  161.4990  213.2350  142.6450 C   0  0  1  0  0  3  0  0  0  0  0  0
  159.6810  214.2790  146.7380 C   0  0  0  0  0  3  0  0  0  0  0  0
  161.1850  211.7750  140.9800 O   0  0  0  0  0  0  0  0  0  0  0  0
  159.2430  212.7560  142.0960 C   0  0  0  0  0  0  0  0  0  0  0  0
  158.4510  212.5090  141.1470 O   0  0  0  0  0  0  0  0  0  0  0  0
  162.5520  213.9970  148.5850 O   0  0  0  0  0  0  0  0  0  0  0  0
  163.3000  214.4510  144.5540 O   0  0  0  0  0  0  0  0  0  0  0  0
  162.9930  214.3400  147.3300 N   0  0  0  0  0  2  0  0  0  0  0  0
  161.2180  213.5220  148.4800 C   0  0  1  0  0  3  0  0  0  0  0  0
  162.1920  214.0490  145.0010 C   0  0  0  0  0  0  0  0  0  0  0  0
  159.7840  213.8670  144.2680 C   0  0  0  0  0  0  0  0  0  0  0  0
  160.6040  212.1620  142.1710 C   0  0  2  0  0  3  0  0  0  0  0  0
  162.5670  211.9370  141.2660 C   0  0  0  0  0  2  0  0  0  0  0  0
  162.0090  213.9570  146.4180 N   0  0  0  0  0  0  0  0  0  0  0  0
  161.1210  213.6560  144.0480 C   0  0  0  0  0  0  0  0  0  0  0  0
  158.8400  213.5610  143.2130 N   0  0  0  0  0  2  0  0  0  0  0  0
  162.7580  212.6920  142.4530 O   0  0  0  0  0  0  0  0  0  0  0  0
  160.8540  213.4110  147.0330 C   0  0  2  0  0  3  0  0  0  0  0  0
  159.2140  214.4520  145.5020 C   0  0  0  0  0  3  0  0  0  0  0  0
  1 13  1  1  0  0  0
  1  2  1  0  0  0  0
  2  8  2  0  0  0  0
  3  5  1  0  0  0  0
  5  9  2  0  0  0  0
  7  9  1  0  0  0  0
  7  4  1  6  0  0  0
  8  4  1  0  0  0  0
  9  6  1  0  0  0  0
 10  3  1  6  0  0  0
 10  7  1  0  0  0  0
 11  5  1  0  0  0  0
 12  2  1  0  0  0  0
 12 10  1  0  0  0  0
 14 13  1  0  0  0  0
 15 14  1  0  0  0  0
 16 17  1  0  0  0  0
 17 14  2  0  0  0  0
 18 19  1  6  0  0  0
 18 16  1  0  0  0  0
 18 15  1  0  0  0  0
 20 22  2  0  0  0  0
 21 22  1  0  0  0  0
 22 19  1  0  0  0  0
 23 21  2  0  0  0  0
 24 25  1  1  0  0  0
 24 23  1  0  0  0  0
 24 20  1  0  0  0  0
 25 38  1  6  0  0  0
 26 29  1  1  0  0  0
 27 31  1  0  0  0  0
 28 26  1  0  0  0  0
 28 27  1  1  0  0  0
 29 34  1  0  0  0  0
 30 35  2  0  0  0  0
 32 33  1  0  0  0  0
 32 35  1  0  0  0  0
 33 25  1  6  0  0  0
 33 28  1  0  0  0  0
 34 31  2  0  0  0  0
 35 26  1  0  0  0  0
 37 38  1  0  0  0  0
 38 36  1  6  0  0  0
 39  1  1  0  0  0  0
 40 39  1  0  0  0  0
 41 40  1  0  0  0  0
 42 58  1  1  0  0  0
 42 56  1  0  0  0  0
 44 54  1  0  0  0  0
 45 53  1  0  0  0  0
 45 57  1  0  0  0  0
 46 45  2  0  0  0  0
 48 51  2  0  0  0  0
 49 47  1  0  0  0  0
 50 47  1  0  0  0  0
 50 41  1  6  0  0  0
 51 55  1  0  0  0  0
 52 60  1  0  0  0  0
 53 44  1  6  0  0  0
 53 42  1  0  0  0  0
 54 58  1  0  0  0  0
 55 59  1  0  0  0  0
 55 49  1  0  0  0  0
 56 52  2  0  0  0  0
 56 51  1  0  0  0  0
 57 52  1  0  0  0  0
 59 43  1  1  0  0  0
 59 50  1  0  0  0  0
 60 43  2  0  0  0  0
M  END
>  <MODEL>
3

>  <REMARK>
 VINA RESULT:      -5.8      2.597      9.144
  Name = 
  12 active torsions:
  status: ('A' for Active; 'I' for Inactive)
    1  A    between atoms: N_3  and  C_34
    2  A    between atoms: N_3  and  C_44
    3  A    between atoms: C_8  and  C_13
    4  A    between atoms: C_9  and  C_19
    5  A    between atoms: C_13  and  C_19
    6  A    between atoms: C_13  and  O_57
    7  A    between atoms: C_23  and  C_27
    8  A    between atoms: C_23  and  C_60
    9  A    between atoms: C_29  and  C_51
   10  A    between atoms: C_29  and  C_55
   11  A    between atoms: C_29  and  C_56
   12  A    between atoms: O_57  and  C_60
                            x       y       z     vdW  Elec       q    Type
                         _______ _______ _______ _____ _____    ______ ____

>  <TORSDO>
F 12

$$$$
=
 OpenBabel11042422333D

 60 69  0  0  1  0  0  0  0  0999 V2000
  162.0480  210.2650  151.7750 C   0  0  1  0  0  3  0  0  0  0  0  0
  161.7080  210.2330  153.2330 C   0  0  0  0  0  0  0  0  0  0  0  0
  158.7120  210.5270  155.3470 C   0  0  0  0  0  2  0  0  0  0  0  0
  162.4290  210.5330  155.5610 C   0  0  0  0  0  2  0  0  0  0  0  0
  158.9480  211.5180  156.1970 C   0  0  0  0  0  0  0  0  0  0  0  0
  160.9870  212.5940  157.1600 F   0  0  0  0  0  0  0  0  0  0  0  0
  160.9700  210.5970  155.8710 C   0  0  1  0  0  3  0  0  0  0  0  0
  162.6320  210.5330  154.1070 N   0  0  0  0  0  0  0  0  0  0  0  0
  160.3630  211.5760  156.5150 C   0  0  0  0  0  0  0  0  0  0  0  0
  160.0010  209.8060  155.0640 C   0  0  2  0  0  3  0  0  0  0  0  0
  157.9190  212.4780  156.6760 C   0  0  0  0  0  1  0  0  0  0  0  0
  160.3620  209.9290  153.6550 N   0  0  0  0  0  2  0  0  0  0  0  0
  162.5120  208.8860  151.3260 C   0  0  0  0  0  2  0  0  0  0  0  0
  161.8350  208.4890  150.0550 C   0  0  0  0  0  0  0  0  0  0  0  0
  162.1640  209.3280  148.5180 S   0  0  0  0  0  0  0  0  0  0  0  0
  160.5790  207.1460  148.6770 C   0  0  0  0  0  2  0  0  0  0  0  0
  161.0930  207.4500  149.9830 N   0  0  0  0  0  0  0  0  0  0  0  0
  161.4480  207.8830  147.6630 C   0  0  2  0  0  3  0  0  0  0  0  0
  162.5130  207.0000  147.2130 N   0  0  0  0  0  2  0  0  0  0  0  0
  161.0590  205.2350  146.4120 C   0  0  0  0  0  3  0  0  0  0  0  0
  163.2570  204.6940  146.3850 C   0  0  0  0  0  3  0  0  0  0  0  0
  162.2600  205.6970  146.6860 C   0  0  0  0  0  0  0  0  0  0  0  0
  162.6720  203.6350  145.9390 N   0  0  0  0  0  0  0  0  0  0  0  0
  161.2230  203.8310  145.8980 C   0  0  1  0  0  3  0  0  0  0  0  0
  160.5120  202.8000  146.8010 C   0  0  2  0  0  3  0  0  0  0  0  0
  161.2750  202.1000  150.4060 C   0  0  1  0  0  3  0  0  0  0  0  0
  161.7550  204.3780  149.6870 C   0  0  0  0  0  2  0  0  0  0  0  0
  161.0190  203.1020  149.3030 C   0  0  1  0  0  3  0  0  0  0  0  0
  160.4050  202.5020  151.5870 C   0  0  0  0  0  2  0  0  0  0  0  0
  160.7580  199.7340  150.2500 O   0  0  0  0  0  0  0  0  0  0  0  0
  161.2940  204.8100  151.0720 C   0  0  0  0  0  3  0  0  0  0  0  0
  161.1260  201.0060  148.3330 O   0  0  0  0  0  0  0  0  0  0  0  0
  161.3850  202.3710  148.0040 C   0  0  1  0  0  3  0  0  0  0  0  0
  160.7170  203.9490  151.9490 C   0  0  0  0  0  3  0  0  0  0  0  0
  160.9950  200.8420  149.6990 C   0  0  0  0  0  0  0  0  0  0  0  0
  159.8410  201.9350  144.5130 C   0  0  0  0  0  1  0  0  0  0  0  0
  158.9060  200.9950  146.5060 O   0  0  0  0  0  1  0  0  0  0  0  0
  160.0550  201.5820  145.9710 C   0  0  2  0  0  3  0  0  0  0  0  0
  160.9370  210.6610  151.0220 O   0  0  0  0  0  0  0  0  0  0  0  0
  161.3050  211.8760  150.4420 C   0  0  0  0  0  2  0  0  0  0  0  0
  160.7960  211.9170  149.0150 C   0  0  0  0  0  2  0  0  0  0  0  0
  161.5090  213.1620  142.5920 C   0  0  1  0  0  3  0  0  0  0  0  0
  159.5800  214.1840  146.6400 C   0  0  0  0  0  3  0  0  0  0  0  0
  161.1900  211.7690  140.8720 O   0  0  0  0  0  0  0  0  0  0  0  0
  159.2570  212.8190  141.9400 C   0  0  0  0  0  0  0  0  0  0  0  0
  158.4930  212.6410  140.9530 O   0  0  0  0  0  0  0  0  0  0  0  0
  162.3550  213.6990  148.5890 O   0  0  0  0  0  0  0  0  0  0  0  0
  163.2900  214.2280  144.6070 O   0  0  0  0  0  0  0  0  0  0  0  0
  162.8640  214.0540  147.3650 N   0  0  0  0  0  2  0  0  0  0  0  0
  161.0030  213.2970  148.4170 C   0  0  1  0  0  3  0  0  0  0  0  0
  162.1460  213.8710  144.9980 C   0  0  0  0  0  0  0  0  0  0  0  0
  159.7630  213.8370  144.1640 C   0  0  0  0  0  0  0  0  0  0  0  0
  160.5810  212.1520  142.0510 C   0  0  2  0  0  3  0  0  0  0  0  0
  162.5650  211.8510  141.2170 C   0  0  0  0  0  2  0  0  0  0  0  0
  161.9000  213.7490  146.4020 N   0  0  0  0  0  0  0  0  0  0  0  0
  161.0960  213.5630  143.9910 C   0  0  0  0  0  0  0  0  0  0  0  0
  158.8490  213.6110  143.0640 N   0  0  0  0  0  2  0  0  0  0  0  0
  162.7450  212.5600  142.4340 O   0  0  0  0  0  0  0  0  0  0  0  0
  160.6940  213.2470  146.9550 C   0  0  2  0  0  3  0  0  0  0  0  0
  159.1740  214.4160  145.3930 C   0  0  0  0  0  3  0  0  0  0  0  0
  1 13  1  6  0  0  0
  1  2  1  0  0  0  0
  2 12  1  0  0  0  0
  2  8  2  0  0  0  0
  3  5  1  0  0  0  0
  5  9  2  0  0  0  0
  5 11  1  0  0  0  0
  7  4  1  6  0  0  0
  7  9  1  0  0  0  0
  8  4  1  0  0  0  0
  9  6  1  0  0  0  0
 10  3  1  6  0  0  0
 10  7  1  0  0  0  0
 12 10  1  0  0  0  0
 14 13  1  0  0  0  0
 15 14  1  0  0  0  0
 16 17  1  0  0  0  0
 17 14  2  0  0  0  0
 18 19  1  1  0  0  0
 18 15  1  0  0  0  0
 18 16  1  0  0  0  0
 20 22  2  0  0  0  0
 21 22  1  0  0  0  0
 22 19  1  0  0  0  0
 23 21  2  0  0  0  0
 24 23  1  0  0  0  0
 24 20  1  0  0  0  0
 24 25  1  1  0  0  0
 25 38  1  6  0  0  0
 26 29  1  1  0  0  0
 27 31  1  0  0  0  0
 28 27  1  1  0  0  0
 28 26  1  0  0  0  0
 29 34  1  0  0  0  0
 31 34  2  0  0  0  0
 32 35  1  0  0  0  0
 33 25  1  6  0  0  0
 33 32  1  0  0  0  0
 33 28  1  0  0  0  0
 35 30  2  0  0  0  0
 35 26  1  0  0  0  0
 38 36  1  6  0  0  0
 38 37  1  0  0  0  0
 39  1  1  0  0  0  0
 40 39  1  0  0  0  0
 41 40  1  0  0  0  0
 42 58  1  1  0  0  0
 42 56  1  0  0  0  0
 44 54  1  0  0  0  0
 45 53  1  0  0  0  0
 45 57  1  0  0  0  0
 46 45  2  0  0  0  0
 48 51  2  0  0  0  0
 49 47  1  0  0  0  0
 50 47  1  0  0  0  0
 50 41  1  6  0  0  0
 51 55  1  0  0  0  0
 52 60  1  0  0  0  0
 53 44  1  6  0  0  0
 53 42  1  0  0  0  0
 54 58  1  0  0  0  0
 55 59  1  0  0  0  0
 55 49  1  0  0  0  0
 56 52  2  0  0  0  0
 56 51  1  0  0  0  0
 57 52  1  0  0  0  0
 59 43  1  1  0  0  0
 59 50  1  0  0  0  0
 60 43  2  0  0  0  0
M  END
>  <MODEL>
4

>  <REMARK>
 VINA RESULT:      -4.8      2.940      9.866
  Name = 
  12 active torsions:
  status: ('A' for Active; 'I' for Inactive)
    1  A    between atoms: N_3  and  C_34
    2  A    between atoms: N_3  and  C_44
    3  A    between atoms: C_8  and  C_13
    4  A    between atoms: C_9  and  C_19
    5  A    between atoms: C_13  and  C_19
    6  A    between atoms: C_13  and  O_57
    7  A    between atoms: C_23  and  C_27
    8  A    between atoms: C_23  and  C_60
    9  A    between atoms: C_29  and  C_51
   10  A    between atoms: C_29  and  C_55
   11  A    between atoms: C_29  and  C_56
   12  A    between atoms: O_57  and  C_60
                            x       y       z     vdW  Elec       q    Type
                         _______ _______ _______ _____ _____    ______ ____

>  <TORSDO>
F 12

$$$$
=
 OpenBabel11042422333D

 60 69  0  0  1  0  0  0  0  0999 V2000
  161.7480  206.3250  150.0890 C   0  0  1  0  0  3  0  0  0  0  0  0
  161.8270  205.4290  148.8920 C   0  0  0  0  0  0  0  0  0  0  0  0
  162.7300  205.6950  145.3360 C   0  0  0  0  0  2  0  0  0  0  0  0
  161.0860  203.3860  147.7500 C   0  0  0  0  0  2  0  0  0  0  0  0
  161.6800  205.2620  144.6480 C   0  0  0  0  0  0  0  0  0  0  0  0
  159.7600  203.7300  145.1030 F   0  0  0  0  0  0  0  0  0  0  0  0
  161.6450  204.0220  146.5210 C   0  0  1  0  0  3  0  0  0  0  0  0
  161.0950  204.3470  148.8590 N   0  0  0  0  0  0  0  0  0  0  0  0
  160.9890  204.2270  145.3940 C   0  0  0  0  0  0  0  0  0  0  0  0
  162.8320  204.9150  146.6170 C   0  0  2  0  0  3  0  0  0  0  0  0
  161.2370  205.8270  143.3470 C   0  0  0  0  0  1  0  0  0  0  0  0
  162.6590  205.7930  147.7710 N   0  0  0  0  0  2  0  0  0  0  0  0
  162.3000  205.6000  151.3090 C   0  0  0  0  0  2  0  0  0  0  0  0
  161.8050  206.2340  152.5680 C   0  0  0  0  0  0  0  0  0  0  0  0
  162.8260  207.3340  153.5270 S   0  0  0  0  0  0  0  0  0  0  0  0
  160.2360  206.8560  154.1270 C   0  0  0  0  0  2  0  0  0  0  0  0
  160.5880  206.1220  152.9440 N   0  0  0  0  0  0  0  0  0  0  0  0
  161.2990  207.9300  154.3300 C   0  0  2  0  0  3  0  0  0  0  0  0
  160.8600  209.1640  153.6970 N   0  0  0  0  0  2  0  0  0  0  0  0
  159.2860  211.0020  153.5820 C   0  0  0  0  0  3  0  0  0  0  0  0
  158.8320  209.5080  155.2210 C   0  0  0  0  0  3  0  0  0  0  0  0
  159.7040  209.8810  154.1300 C   0  0  0  0  0  0  0  0  0  0  0  0
  157.8990  210.3910  155.3390 N   0  0  0  0  0  0  0  0  0  0  0  0
  158.0590  211.4410  154.3340 C   0  0  1  0  0  3  0  0  0  0  0  0
  158.2590  212.8130  155.0110 C   0  0  2  0  0  3  0  0  0  0  0  0
  156.3380  214.3660  152.1890 C   0  0  1  0  0  3  0  0  0  0  0  0
  158.7550  214.3280  151.8770 C   0  0  0  0  0  2  0  0  0  0  0  0
  157.6160  213.7440  152.7030 C   0  0  1  0  0  3  0  0  0  0  0  0
  156.0110  213.6910  150.8660 C   0  0  0  0  0  2  0  0  0  0  0  0
  154.1940  214.2120  153.3140 O   0  0  0  0  0  0  0  0  0  0  0  0
  158.4640  214.0830  150.4030 C   0  0  0  0  0  3  0  0  0  0  0  0
  156.1870  213.9930  154.5020 O   0  0  0  0  0  0  0  0  0  0  0  0
  157.5860  213.9620  154.2220 C   0  0  1  0  0  3  0  0  0  0  0  0
  157.2130  213.8330  149.9390 C   0  0  0  0  0  3  0  0  0  0  0  0
  155.4520  214.1580  153.3420 C   0  0  0  0  0  0  0  0  0  0  0  0
  160.2520  212.5020  156.5480 C   0  0  0  0  0  1  0  0  0  0  0  0
  160.0510  214.4530  155.1740 O   0  0  0  0  0  1  0  0  0  0  0  0
  159.7600  213.0880  155.2390 C   0  0  2  0  0  3  0  0  0  0  0  0
  162.4710  207.5020  149.8690 O   0  0  0  0  0  0  0  0  0  0  0  0
  161.5070  208.4820  149.6270 C   0  0  0  0  0  2  0  0  0  0  0  0
  161.9320  209.3100  148.4320 C   0  0  0  0  0  2  0  0  0  0  0  0
  161.5550  213.8680  143.7000 C   0  0  1  0  0  3  0  0  0  0  0  0
  159.8140  211.9350  147.4910 C   0  0  0  0  0  3  0  0  0  0  0  0
  161.5350  213.5610  141.4840 O   0  0  0  0  0  0  0  0  0  0  0  0
  159.4830  213.1980  142.7630 C   0  0  0  0  0  0  0  0  0  0  0  0
  158.7240  213.3210  141.7650 O   0  0  0  0  0  0  0  0  0  0  0  0
  162.7760  211.4480  149.1420 O   0  0  0  0  0  0  0  0  0  0  0  0
  163.0850  214.2440  146.1260 O   0  0  0  0  0  0  0  0  0  0  0  0
  163.0160  212.5320  148.3350 N   0  0  0  0  0  2  0  0  0  0  0  0
  161.6180  210.7770  148.6640 C   0  0  1  0  0  3  0  0  0  0  0  0
  162.1640  213.3840  146.1680 C   0  0  0  0  0  0  0  0  0  0  0  0
  159.8510  213.0100  145.2280 C   0  0  0  0  0  0  0  0  0  0  0  0
  160.9560  213.0490  142.6290 C   0  0  2  0  0  3  0  0  0  0  0  0
  162.8370  213.8970  141.9440 C   0  0  0  0  0  2  0  0  0  0  0  0
  162.1130  212.4760  147.2720 N   0  0  0  0  0  0  0  0  0  0  0  0
  161.1760  213.3210  145.0580 C   0  0  0  0  0  0  0  0  0  0  0  0
  158.9550  213.1040  144.0940 N   0  0  0  0  0  2  0  0  0  0  0  0
  162.8970  213.8820  143.3630 O   0  0  0  0  0  0  0  0  0  0  0  0
  161.1980  211.3980  147.3700 C   0  0  2  0  0  3  0  0  0  0  0  0
  159.2320  212.6330  146.5180 C   0  0  0  0  0  3  0  0  0  0  0  0
  1 13  1  1  0  0  0
  2  1  1  0  0  0  0
  4  8  1  0  0  0  0
  5  3  1  0  0  0  0
  5  9  2  0  0  0  0
  6  9  1  0  0  0  0
  7 10  1  0  0  0  0
  7  4  1  1  0  0  0
  8  2  2  0  0  0  0
  9  7  1  0  0  0  0
 10  3  1  6  0  0  0
 10 12  1  0  0  0  0
 11  5  1  0  0  0  0
 12  2  1  0  0  0  0
 13 14  1  0  0  0  0
 14 17  2  0  0  0  0
 14 15  1  0  0  0  0
 15 18  1  0  0  0  0
 16 18  1  0  0  0  0
 17 16  1  0  0  0  0
 18 19  1  6  0  0  0
 19 22  1  0  0  0  0
 20 22  2  0  0  0  0
 20 24  1  0  0  0  0
 21 23  2  0  0  0  0
 22 21  1  0  0  0  0
 24 25  1  1  0  0  0
 24 23  1  0  0  0  0
 25 38  1  6  0  0  0
 26 29  1  6  0  0  0
 26 28  1  0  0  0  0
 26 35  1  0  0  0  0
 28 27  1  6  0  0  0
 28 33  1  0  0  0  0
 30 35  2  0  0  0  0
 31 27  1  0  0  0  0
 33 32  1  0  0  0  0
 33 25  1  1  0  0  0
 34 31  2  0  0  0  0
 34 29  1  0  0  0  0
 35 32  1  0  0  0  0
 37 38  1  0  0  0  0
 38 36  1  1  0  0  0
 39  1  1  0  0  0  0
 40 39  1  0  0  0  0
 41 40  1  0  0  0  0
 42 58  1  6  0  0  0
 42 56  1  0  0  0  0
 44 54  1  0  0  0  0
 45 57  1  0  0  0  0
 46 45  2  0  0  0  0
 48 51  2  0  0  0  0
 49 47  1  0  0  0  0
 50 41  1  6  0  0  0
 50 47  1  0  0  0  0
 51 55  1  0  0  0  0
 52 60  1  0  0  0  0
 53 44  1  6  0  0  0
 53 45  1  0  0  0  0
 53 42  1  0  0  0  0
 54 58  1  0  0  0  0
 55 59  1  0  0  0  0
 55 49  1  0  0  0  0
 56 52  2  0  0  0  0
 56 51  1  0  0  0  0
 57 52  1  0  0  0  0
 59 43  1  1  0  0  0
 59 50  1  0  0  0  0
 60 43  2  0  0  0  0
M  END
>  <MODEL>
5

>  <REMARK>
 VINA RESULT:      -4.8      3.384     11.342
  Name = 
  12 active torsions:
  status: ('A' for Active; 'I' for Inactive)
    1  A    between atoms: N_3  and  C_34
    2  A    between atoms: N_3  and  C_44
    3  A    between atoms: C_8  and  C_13
    4  A    between atoms: C_9  and  C_19
    5  A    between atoms: C_13  and  C_19
    6  A    between atoms: C_13  and  O_57
    7  A    between atoms: C_23  and  C_27
    8  A    between atoms: C_23  and  C_60
    9  A    between atoms: C_29  and  C_51
   10  A    between atoms: C_29  and  C_55
   11  A    between atoms: C_29  and  C_56
   12  A    between atoms: O_57  and  C_60
                            x       y       z     vdW  Elec       q    Type
                         _______ _______ _______ _____ _____    ______ ____

>  <TORSDO>
F 12

$$$$
