=
 OpenBabel11042421243D

 33 36  0  0  1  0  0  0  0  0999 V2000
  162.0710  208.9900  150.3440 N   0  0  0  0  0  0  0  0  0  0  0  0
  161.8370  209.4620  148.0670 O   0  0  0  0  0  0  0  0  0  0  0  0
  161.9910  209.9010  149.2380 C   0  0  0  0  0  0  0  0  0  0  0  0
  161.4590  208.8470  152.6970 C   0  0  0  0  0  2  0  0  0  0  0  0
  161.4600  207.3220  152.5810 C   0  0  2  0  0  3  0  0  0  0  0  0
  162.4160  209.4590  151.6820 C   0  0  0  0  0  2  0  0  0  0  0  0
  162.0020  207.5500  150.1170 C   0  0  0  0  0  2  0  0  0  0  0  0
  161.0810  206.8980  151.1510 C   0  0  1  0  0  3  0  0  0  0  0  0
  160.8610  203.4150  149.6300 C   0  0  1  0  0  3  0  0  0  0  0  0
  160.6570  202.5550  148.5700 C   0  0  0  0  0  3  0  0  0  0  0  0
  160.8370  204.8210  149.7070 C   0  0  0  0  0  0  0  0  0  0  0  0
  161.0910  205.4020  150.9770 C   0  0  0  0  0  0  0  0  0  0  0  0
  160.7880  201.2810  149.0110 N   0  0  0  0  0  0  0  0  0  0  0  0
  161.3720  203.1770  151.9780 C   0  0  0  0  0  3  0  0  0  0  0  0
  161.0720  201.3190  150.3350 C   0  0  0  0  0  3  0  0  0  0  0  0
  161.3560  204.5750  152.0970 C   0  0  0  0  0  3  0  0  0  0  0  0
  161.1190  202.6360  150.7240 C   0  0  0  0  0  0  0  0  0  0  0  0
  160.5600  205.6950  148.5420 C   0  0  0  0  0  3  0  0  0  0  0  0
  161.2510  205.6710  147.4090 C   0  0  0  0  0  2  0  0  0  0  0  0
  162.0720  211.3810  149.4470 C   0  0  0  0  0  2  0  0  0  0  0  0
  162.5080  212.0970  148.1710 C   0  0  0  0  0  2  0  0  0  0  0  0
  161.8560  213.8610  146.4020 C   0  0  2  0  0  3  0  0  0  0  0  0
  159.6380  213.0060  146.1700 C   0  0  0  0  0  2  0  0  0  0  0  0
  161.4080  212.9530  147.5310 C   0  0  1  0  0  3  0  0  0  0  0  0
  160.3120  212.1940  147.1000 O   0  0  0  0  0  0  0  0  0  0  0  0
  160.5760  214.0830  145.6550 C   0  0  0  0  0  2  0  0  0  0  0  0
  162.7600  213.2150  145.5530 O   0  0  0  0  0  1  0  0  0  0  0  0
  160.4740  206.7430  153.5920 C   0  0  0  0  0  2  0  0  0  0  0  0
  160.9750  206.9310  155.0150 C   0  0  0  0  0  2  0  0  0  0  0  0
  159.8510  207.4020  155.9210 C   0  0  0  0  0  2  0  0  0  0  0  0
  159.4480  209.7310  155.6130 O   0  0  0  0  0  1  0  0  0  0  0  0
  161.5530  209.0740  156.3410 N   0  0  0  0  0  1  0  0  0  0  0  0
  160.1270  208.8110  156.4110 C   0  0  2  0  0  3  0  0  0  0  0  0
  1  6  1  0  0  0  0
  2  3  2  0  0  0  0
  3 20  1  0  0  0  0
  3  1  1  0  0  0  0
  5  4  1  0  0  0  0
  5 28  1  1  0  0  0
  6  4  1  0  0  0  0
  7  1  1  0  0  0  0
  7  8  1  0  0  0  0
  8 12  1  1  0  0  0
  8  5  1  0  0  0  0
  9 10  1  1  0  0  0
  9 11  1  0  0  0  0
  9 17  1  0  0  0  0
 10 13  2  0  0  0  0
 11 12  2  0  0  0  0
 12 16  1  0  0  0  0
 13 15  1  0  0  0  0
 14 16  2  0  0  0  0
 15 17  2  0  0  0  0
 17 14  1  0  0  0  0
 18 11  1  0  0  0  0
 19 18  2  0  0  0  0
 21 20  1  0  0  0  0
 22 27  1  6  0  0  0
 22 24  1  0  0  0  0
 23 25  1  0  0  0  0
 24 21  1  6  0  0  0
 25 24  1  0  0  0  0
 26 23  1  0  0  0  0
 26 22  1  0  0  0  0
 28 29  1  0  0  0  0
 29 30  1  0  0  0  0
 30 33  1  0  0  0  0
 32 33  1  0  0  0  0
 33 31  1  6  0  0  0
M  END
>  <MODEL>
1

>  <REMARK>
 VINA RESULT:      -9.1      0.000      0.000
  Name = 
  9 active torsions:
  status: ('A' for Active; 'I' for Inactive)
    1  A    between atoms: C_7  and  C_8
    2  A    between atoms: C_7  and  C_24
    3  A    between atoms: C_9  and  C_24
    4  A    between atoms: C_10  and  C_11
    5  A    between atoms: C_14  and  C_33
    6  A    between atoms: C_17  and  C_27
    7  A    between atoms: C_20  and  C_32
    8  A    between atoms: C_31  and  C_32
    9  A    between atoms: C_31  and  C_33
                            x       y       z     vdW  Elec       q    Type
                         _______ _______ _______ _____ _____    ______ ____

>  <TORSDO>
F 9

$$$$
=
 OpenBabel11042421243D

 33 36  0  0  1  0  0  0  0  0999 V2000
  161.7500  206.9320  151.9240 N   0  0  0  0  0  0  0  0  0  0  0  0
  160.5350  205.1900  152.9020 O   0  0  0  0  0  0  0  0  0  0  0  0
  161.2250  205.5950  151.9290 C   0  0  0  0  0  0  0  0  0  0  0  0
  162.2630  208.7340  150.3690 C   0  0  0  0  0  2  0  0  0  0  0  0
  162.1320  209.7340  151.5200 C   0  0  2  0  0  3  0  0  0  0  0  0
  162.6870  207.3680  150.8940 C   0  0  0  0  0  2  0  0  0  0  0  0
  161.5120  207.8190  153.0580 C   0  0  0  0  0  2  0  0  0  0  0  0
  161.1260  209.2140  152.5620 C   0  0  1  0  0  3  0  0  0  0  0  0
  159.8170  211.8940  154.9290 C   0  0  0  0  0  0  0  0  0  0  0  0
  158.9000  212.8580  155.2950 C   0  0  0  0  0  3  0  0  0  0  0  0
  159.8790  211.0460  153.8050 C   0  0  0  0  0  0  0  0  0  0  0  0
  160.9790  210.1530  153.7310 C   0  0  0  0  0  0  0  0  0  0  0  0
  159.2880  213.4020  156.4740 N   0  0  0  0  0  2  0  0  0  0  0  0
  161.8560  210.9990  155.8620 C   0  0  0  0  0  3  0  0  0  0  0  0
  160.4370  212.7980  156.8600 C   0  0  0  0  0  3  0  0  0  0  0  0
  161.9540  210.1390  154.7590 C   0  0  0  0  0  3  0  0  0  0  0  0
  160.7690  211.8630  155.9090 C   0  0  0  0  0  0  0  0  0  0  0  0
  158.8640  211.0530  152.7240 C   0  0  0  0  0  3  0  0  0  0  0  0
  158.5060  212.1340  152.0420 C   0  0  0  0  0  2  0  0  0  0  0  0
  161.4680  204.6650  150.7820 C   0  0  0  0  0  2  0  0  0  0  0  0
  160.5280  204.9650  149.6170 C   0  0  0  0  0  2  0  0  0  0  0  0
  161.9490  204.3000  147.5670 C   0  0  2  0  0  3  0  0  0  0  0  0
  161.0390  206.0370  146.2020 C   0  0  0  0  0  2  0  0  0  0  0  0
  161.2460  205.4030  148.3330 C   0  0  1  0  0  3  0  0  0  0  0  0
  160.4090  206.1080  147.4580 O   0  0  0  0  0  0  0  0  0  0  0  0
  162.0230  204.8800  146.1870 C   0  0  0  0  0  2  0  0  0  0  0  0
  161.1780  203.1360  147.5190 O   0  0  0  0  0  1  0  0  0  0  0  0
  161.6820  211.0810  150.9630 C   0  0  0  0  0  2  0  0  0  0  0  0
  161.9370  211.1690  149.4680 C   0  0  0  0  0  2  0  0  0  0  0  0
  161.3330  212.4380  148.8930 C   0  0  0  0  0  2  0  0  0  0  0  0
  163.5000  212.3920  147.9000 O   0  0  0  0  0  1  0  0  0  0  0  0
  162.4650  214.4530  148.1700 N   0  0  0  0  0  1  0  0  0  0  0  0
  162.2690  213.0480  147.8670 C   0  0  2  0  0  3  0  0  0  0  0  0
  1  3  1  0  0  0  0
  1  7  1  0  0  0  0
  3  2  2  0  0  0  0
  4  6  1  0  0  0  0
  4  5  1  0  0  0  0
  5 28  1  6  0  0  0
  5  8  1  0  0  0  0
  6  1  1  0  0  0  0
  8  7  1  0  0  0  0
  8 12  1  1  0  0  0
  9 10  2  0  0  0  0
  9 17  1  0  0  0  0
 10 13  1  0  0  0  0
 11  9  1  0  0  0  0
 12 11  2  0  0  0  0
 12 16  1  0  0  0  0
 13 15  1  0  0  0  0
 14 17  1  0  0  0  0
 16 14  2  0  0  0  0
 17 15  2  0  0  0  0
 18 11  1  0  0  0  0
 19 18  2  0  0  0  0
 20  3  1  0  0  0  0
 21 20  1  0  0  0  0
 22 27  1  6  0  0  0
 22 24  1  0  0  0  0
 23 25  1  0  0  0  0
 24 21  1  1  0  0  0
 25 24  1  0  0  0  0
 26 23  1  0  0  0  0
 26 22  1  0  0  0  0
 29 28  1  0  0  0  0
 30 29  1  0  0  0  0
 33 31  1  1  0  0  0
 33 32  1  0  0  0  0
 33 30  1  0  0  0  0
M  END
>  <MODEL>
2

>  <REMARK>
 VINA RESULT:      -7.9      2.956      8.065
  Name = 
  9 active torsions:
  status: ('A' for Active; 'I' for Inactive)
    1  A    between atoms: C_7  and  C_8
    2  A    between atoms: C_7  and  C_24
    3  A    between atoms: C_9  and  C_24
    4  A    between atoms: C_10  and  C_11
    5  A    between atoms: C_14  and  C_33
    6  A    between atoms: C_17  and  C_27
    7  A    between atoms: C_20  and  C_32
    8  A    between atoms: C_31  and  C_32
    9  A    between atoms: C_31  and  C_33
                            x       y       z     vdW  Elec       q    Type
                         _______ _______ _______ _____ _____    ______ ____

>  <TORSDO>
F 9

$$$$
=
 OpenBabel11042421243D

 33 36  0  0  1  0  0  0  0  0999 V2000
  161.5370  207.1700  151.0260 N   0  0  0  0  0  0  0  0  0  0  0  0
  160.3250  205.3420  151.8350 O   0  0  0  0  0  0  0  0  0  0  0  0
  160.9520  205.8670  150.8770 C   0  0  0  0  0  0  0  0  0  0  0  0
  162.0060  209.1700  149.7170 C   0  0  0  0  0  2  0  0  0  0  0  0
  162.0150  209.9860  151.0110 C   0  0  2  0  0  3  0  0  0  0  0  0
  162.4070  207.7260  149.9960 C   0  0  0  0  0  2  0  0  0  0  0  0
  161.4310  207.8830  152.2960 C   0  0  0  0  0  2  0  0  0  0  0  0
  161.0720  209.3490  152.0480 C   0  0  1  0  0  3  0  0  0  0  0  0
  160.0360  211.6100  154.9300 C   0  0  0  0  0  0  0  0  0  0  0  0
  159.1580  212.4760  155.5480 C   0  0  0  0  0  3  0  0  0  0  0  0
  159.9650  210.9350  153.6960 C   0  0  0  0  0  0  0  0  0  0  0  0
  161.0630  210.1040  153.3510 C   0  0  0  0  0  0  0  0  0  0  0  0
  159.6880  212.8590  156.7350 N   0  0  0  0  0  2  0  0  0  0  0  0
  162.1960  210.6670  155.4550 C   0  0  0  0  0  3  0  0  0  0  0  0
  160.8880  212.2490  156.8790 C   0  0  0  0  0  3  0  0  0  0  0  0
  162.1640  209.9790  154.2330 C   0  0  0  0  0  3  0  0  0  0  0  0
  161.1090  211.4740  155.7660 C   0  0  0  0  0  0  0  0  0  0  0  0
  158.8180  211.0600  152.7650 C   0  0  0  0  0  3  0  0  0  0  0  0
  158.4580  212.1900  152.1700 C   0  0  0  0  0  2  0  0  0  0  0  0
  161.0600  205.1140  149.5880 C   0  0  0  0  0  2  0  0  0  0  0  0
  161.0970  203.6070  149.8290 C   0  0  0  0  0  2  0  0  0  0  0  0
  160.8000  201.4200  148.4880 C   0  0  2  0  0  3  0  0  0  0  0  0
  161.1600  202.5000  146.3880 C   0  0  0  0  0  2  0  0  0  0  0  0
  161.4540  202.7860  148.5830 C   0  0  1  0  0  3  0  0  0  0  0  0
  161.2290  203.4850  147.3900 O   0  0  0  0  0  0  0  0  0  0  0  0
  160.8580  201.1510  147.0150 C   0  0  0  0  0  2  0  0  0  0  0  0
  159.4590  201.4660  148.8790 O   0  0  0  0  0  1  0  0  0  0  0  0
  161.5840  211.4180  150.7020 C   0  0  0  0  0  2  0  0  0  0  0  0
  161.8740  211.7760  149.2530 C   0  0  0  0  0  2  0  0  0  0  0  0
  161.0570  212.9820  148.8240 C   0  0  0  0  0  2  0  0  0  0  0  0
  160.2120  212.1720  146.7470 O   0  0  0  0  0  1  0  0  0  0  0  0
  162.4180  212.8920  146.8230 N   0  0  0  0  0  1  0  0  0  0  0  0
  161.0710  213.1140  147.3130 C   0  0  2  0  0  3  0  0  0  0  0  0
  1  7  1  0  0  0  0
  3  1  1  0  0  0  0
  3  2  2  0  0  0  0
  4  6  1  0  0  0  0
  4  5  1  0  0  0  0
  5 28  1  6  0  0  0
  5  8  1  0  0  0  0
  6  1  1  0  0  0  0
  8  7  1  0  0  0  0
  8 12  1  1  0  0  0
  9 10  2  0  0  0  0
  9 17  1  0  0  0  0
 10 13  1  0  0  0  0
 11  9  1  0  0  0  0
 12 11  2  0  0  0  0
 12 16  1  0  0  0  0
 13 15  1  0  0  0  0
 14 17  1  0  0  0  0
 16 14  2  0  0  0  0
 17 15  2  0  0  0  0
 18 11  1  0  0  0  0
 19 18  2  0  0  0  0
 20 21  1  0  0  0  0
 20  3  1  0  0  0  0
 22 24  1  0  0  0  0
 22 27  1  6  0  0  0
 23 26  1  0  0  0  0
 23 25  1  0  0  0  0
 24 21  1  1  0  0  0
 25 24  1  0  0  0  0
 26 22  1  0  0  0  0
 29 28  1  0  0  0  0
 30 29  1  0  0  0  0
 32 33  1  0  0  0  0
 33 31  1  6  0  0  0
 33 30  1  0  0  0  0
M  END
>  <MODEL>
3

>  <REMARK>
 VINA RESULT:      -7.5      3.067      8.659
  Name = 
  9 active torsions:
  status: ('A' for Active; 'I' for Inactive)
    1  A    between atoms: C_7  and  C_8
    2  A    between atoms: C_7  and  C_24
    3  A    between atoms: C_9  and  C_24
    4  A    between atoms: C_10  and  C_11
    5  A    between atoms: C_14  and  C_33
    6  A    between atoms: C_17  and  C_27
    7  A    between atoms: C_20  and  C_32
    8  A    between atoms: C_31  and  C_32
    9  A    between atoms: C_31  and  C_33
                            x       y       z     vdW  Elec       q    Type
                         _______ _______ _______ _____ _____    ______ ____

>  <TORSDO>
F 9

$$$$
=
 OpenBabel11042421243D

 33 36  0  0  1  0  0  0  0  0999 V2000
  161.0740  207.0940  152.1730 N   0  0  0  0  0  0  0  0  0  0  0  0
  161.3140  205.2180  153.5470 O   0  0  0  0  0  0  0  0  0  0  0  0
  161.2500  206.4730  153.4560 C   0  0  0  0  0  0  0  0  0  0  0  0
  161.7180  209.1090  150.9660 C   0  0  0  0  0  2  0  0  0  0  0  0
  161.5070  208.3600  149.6490 C   0  0  2  0  0  3  0  0  0  0  0  0
  160.8290  208.5280  152.0580 C   0  0  0  0  0  2  0  0  0  0  0  0
  160.9410  206.2750  150.9720 C   0  0  0  0  0  2  0  0  0  0  0  0
  161.7900  206.8590  149.8400 C   0  0  1  0  0  3  0  0  0  0  0  0
  161.2710  203.9940  147.3880 C   0  0  0  0  0  0  0  0  0  0  0  0
  161.1380  202.6540  147.0850 C   0  0  0  0  0  3  0  0  0  0  0  0
  161.4720  204.6560  148.6150 C   0  0  0  0  0  0  0  0  0  0  0  0
  161.5710  206.0710  148.5750 C   0  0  0  0  0  0  0  0  0  0  0  0
  160.9640  202.5260  145.7480 N   0  0  0  0  0  0  0  0  0  0  0  0
  161.2680  206.0600  146.1390 C   0  0  0  0  0  2  0  0  0  0  0  0
  160.9850  203.7630  145.1970 C   0  0  0  0  0  3  0  0  0  0  0  0
  161.4680  206.7570  147.3400 C   0  0  0  0  0  3  0  0  0  0  0  0
  161.1740  204.6760  146.2070 C   0  0  0  0  0  0  0  0  0  0  0  0
  161.5820  203.9480  149.9130 C   0  0  0  0  0  3  0  0  0  0  0  0
  160.6740  203.1000  150.3810 C   0  0  0  0  0  2  0  0  0  0  0  0
  161.3760  207.2940  154.7010 C   0  0  0  0  0  2  0  0  0  0  0  0
  160.0610  207.3300  155.4750 C   0  0  0  0  0  2  0  0  0  0  0  0
  160.4550  209.1530  157.2610 C   0  0  2  0  0  3  0  0  0  0  0  0
  159.8790  210.9280  155.7700 C   0  0  0  0  0  2  0  0  0  0  0  0
  159.6980  208.7170  156.0210 C   0  0  1  0  0  3  0  0  0  0  0  0
  159.7900  209.7230  155.0500 O   0  0  0  0  0  0  0  0  0  0  0  0
  160.3290  210.6450  157.1920 C   0  0  0  0  0  2  0  0  0  0  0  0
  161.8090  208.8170  157.1790 O   0  0  0  0  0  1  0  0  0  0  0  0
  162.4300  208.9490  148.5850 C   0  0  0  0  0  2  0  0  0  0  0  0
  162.5540  210.4550  148.7420 C   0  0  0  0  0  2  0  0  0  0  0  0
  161.5200  211.1710  147.8900 C   0  0  0  0  0  2  0  0  0  0  0  0
  160.1280  213.1070  147.8730 O   0  0  0  0  0  1  0  0  0  0  0  0
  162.4280  213.4150  147.9720 N   0  0  0  0  0  1  0  0  0  0  0  0
  161.3130  212.5860  148.3940 C   0  0  2  0  0  3  0  0  0  0  0  0
  1  3  1  0  0  0  0
  3  2  2  0  0  0  0
  3 20  1  0  0  0  0
  4  6  1  0  0  0  0
  5 28  1  6  0  0  0
  5  8  1  0  0  0  0
  5  4  1  0  0  0  0
  6  1  1  0  0  0  0
  7  1  1  0  0  0  0
  8 12  1  6  0  0  0
  8  7  1  0  0  0  0
  9 11  2  0  0  0  0
 10  9  1  0  0  0  0
 11 18  1  0  0  0  0
 12 11  1  0  0  0  0
 13 10  2  0  0  0  0
 14 17  1  0  0  0  0
 14 16  1  0  0  0  0
 15 13  1  0  0  0  0
 15 17  2  0  0  0  0
 16 12  2  0  0  0  0
 17  9  1  0  0  0  0
 18 19  2  0  0  0  0
 20 21  1  0  0  0  0
 22 27  1  6  0  0  0
 23 26  1  0  0  0  0
 24 21  1  6  0  0  0
 24 22  1  0  0  0  0
 25 23  1  0  0  0  0
 25 24  1  0  0  0  0
 26 22  1  0  0  0  0
 28 29  1  0  0  0  0
 30 33  1  0  0  0  0
 30 29  1  0  0  0  0
 32 33  1  0  0  0  0
 33 31  1  6  0  0  0
M  END
>  <MODEL>
4

>  <REMARK>
 VINA RESULT:      -7.2      1.976      6.797
  Name = 
  9 active torsions:
  status: ('A' for Active; 'I' for Inactive)
    1  A    between atoms: C_7  and  C_8
    2  A    between atoms: C_7  and  C_24
    3  A    between atoms: C_9  and  C_24
    4  A    between atoms: C_10  and  C_11
    5  A    between atoms: C_14  and  C_33
    6  A    between atoms: C_17  and  C_27
    7  A    between atoms: C_20  and  C_32
    8  A    between atoms: C_31  and  C_32
    9  A    between atoms: C_31  and  C_33
                            x       y       z     vdW  Elec       q    Type
                         _______ _______ _______ _____ _____    ______ ____

>  <TORSDO>
F 9

$$$$
=
 OpenBabel11042421243D

 33 36  0  0  1  0  0  0  0  0999 V2000
  160.9260  207.8930  153.0570 N   0  0  0  0  0  0  0  0  0  0  0  0
  161.1220  206.4810  154.9090 O   0  0  0  0  0  0  0  0  0  0  0  0
  161.0710  207.6590  154.4660 C   0  0  0  0  0  0  0  0  0  0  0  0
  161.6120  209.4830  151.3440 C   0  0  0  0  0  2  0  0  0  0  0  0
  161.4200  208.3940  150.2880 C   0  0  2  0  0  3  0  0  0  0  0  0
  160.6960  209.2370  152.5370 C   0  0  0  0  0  2  0  0  0  0  0  0
  160.8090  206.7690  152.1330 C   0  0  0  0  0  2  0  0  0  0  0  0
  161.6850  207.0070  150.9010 C   0  0  1  0  0  3  0  0  0  0  0  0
  161.2110  203.5650  149.3450 C   0  0  0  0  0  0  0  0  0  0  0  0
  161.0900  202.1930  149.4270 C   0  0  0  0  0  3  0  0  0  0  0  0
  161.3950  204.5460  150.3390 C   0  0  0  0  0  0  0  0  0  0  0  0
  161.4850  205.8950  149.9050 C   0  0  0  0  0  0  0  0  0  0  0  0
  160.9300  201.6940  148.1780 N   0  0  0  0  0  0  0  0  0  0  0  0
  161.2070  205.1990  147.5670 C   0  0  0  0  0  2  0  0  0  0  0  0
  160.9490  202.7280  147.3040 C   0  0  0  0  0  3  0  0  0  0  0  0
  161.3900  206.2060  148.5270 C   0  0  0  0  0  3  0  0  0  0  0  0
  161.1220  203.8890  148.0190 C   0  0  0  0  0  0  0  0  0  0  0  0
  161.4960  204.2310  151.7840 C   0  0  0  0  0  3  0  0  0  0  0  0
  160.8240  203.2570  152.3850 C   0  0  0  0  0  2  0  0  0  0  0  0
  161.1800  208.7970  155.4310 C   0  0  0  0  0  2  0  0  0  0  0  0
  159.8040  209.3600  155.7810 C   0  0  0  0  0  2  0  0  0  0  0  0
  160.5550  211.8290  155.8660 C   0  0  2  0  0  3  0  0  0  0  0  0
  158.7250  212.4780  157.2570 C   0  0  0  0  0  2  0  0  0  0  0  0
  159.8510  210.6800  156.5620 C   0  0  1  0  0  3  0  0  0  0  0  0
  158.5840  211.1060  156.9830 O   0  0  0  0  0  0  0  0  0  0  0  0
  159.9540  213.0190  156.5500 C   0  0  0  0  0  2  0  0  0  0  0  0
  160.2280  211.8830  154.5090 O   0  0  0  0  0  1  0  0  0  0  0  0
  162.3690  208.6550  149.1220 C   0  0  0  0  0  2  0  0  0  0  0  0
  161.8730  209.8040  148.2600 C   0  0  0  0  0  2  0  0  0  0  0  0
  162.5450  211.1060  148.6600 C   0  0  0  0  0  2  0  0  0  0  0  0
  160.7940  211.8330  147.2150 O   0  0  0  0  0  1  0  0  0  0  0  0
  162.7180  213.1270  147.3360 N   0  0  0  0  0  1  0  0  0  0  0  0
  161.7940  212.2870  148.0750 C   0  0  2  0  0  3  0  0  0  0  0  0
  1  3  1  0  0  0  0
  3  2  2  0  0  0  0
  3 20  1  0  0  0  0
  4  6  1  0  0  0  0
  5 28  1  6  0  0  0
  5  8  1  0  0  0  0
  5  4  1  0  0  0  0
  6  1  1  0  0  0  0
  7  1  1  0  0  0  0
  8 12  1  6  0  0  0
  8  7  1  0  0  0  0
  9 10  1  0  0  0  0
  9 11  2  0  0  0  0
 11 18  1  0  0  0  0
 12 11  1  0  0  0  0
 13 10  2  0  0  0  0
 14 17  1  0  0  0  0
 14 16  1  0  0  0  0
 15 17  2  0  0  0  0
 15 13  1  0  0  0  0
 16 12  2  0  0  0  0
 17  9  1  0  0  0  0
 18 19  2  0  0  0  0
 20 21  1  0  0  0  0
 22 27  1  6  0  0  0
 22 26  1  0  0  0  0
 22 24  1  0  0  0  0
 24 21  1  6  0  0  0
 24 25  1  0  0  0  0
 25 23  1  0  0  0  0
 26 23  1  0  0  0  0
 29 30  1  0  0  0  0
 29 28  1  0  0  0  0
 32 33  1  0  0  0  0
 33 31  1  6  0  0  0
 33 30  1  0  0  0  0
M  END
>  <MODEL>
5

>  <REMARK>
 VINA RESULT:      -7.0      1.992      6.459
  Name = 
  9 active torsions:
  status: ('A' for Active; 'I' for Inactive)
    1  A    between atoms: C_7  and  C_8
    2  A    between atoms: C_7  and  C_24
    3  A    between atoms: C_9  and  C_24
    4  A    between atoms: C_10  and  C_11
    5  A    between atoms: C_14  and  C_33
    6  A    between atoms: C_17  and  C_27
    7  A    between atoms: C_20  and  C_32
    8  A    between atoms: C_31  and  C_32
    9  A    between atoms: C_31  and  C_33
                            x       y       z     vdW  Elec       q    Type
                         _______ _______ _______ _____ _____    ______ ____

>  <TORSDO>
F 9

$$$$
=
 OpenBabel11042421243D

 33 36  0  0  1  0  0  0  0  0999 V2000
  161.6460  207.4150  152.0930 N   0  0  0  0  0  0  0  0  0  0  0  0
  161.2160  209.6560  151.5830 O   0  0  0  0  0  0  0  0  0  0  0  0
  161.3780  208.7740  152.4690 C   0  0  0  0  0  0  0  0  0  0  0  0
  161.2000  205.1430  152.8460 C   0  0  0  0  0  2  0  0  0  0  0  0
  161.4010  204.6510  151.4120 C   0  0  2  0  0  3  0  0  0  0  0  0
  162.0020  206.4140  153.0930 C   0  0  0  0  0  2  0  0  0  0  0  0
  161.7610  207.0510  150.6840 C   0  0  0  0  0  2  0  0  0  0  0  0
  161.0000  205.7510  150.4120 C   0  0  1  0  0  3  0  0  0  0  0  0
  161.3900  205.8040  146.6260 C   0  0  1  0  0  3  0  0  0  0  0  0
  161.4350  206.4570  145.4120 C   0  0  0  0  0  3  0  0  0  0  0  0
  161.1960  206.2840  147.9360 C   0  0  0  0  0  0  0  0  0  0  0  0
  161.2030  205.3250  148.9820 C   0  0  0  0  0  0  0  0  0  0  0  0
  161.6460  205.5440  144.4330 N   0  0  0  0  0  0  0  0  0  0  0  0
  161.5920  203.5160  147.3690 C   0  0  0  0  0  3  0  0  0  0  0  0
  161.7360  204.3220  145.0090 C   0  0  0  0  0  3  0  0  0  0  0  0
  161.4020  203.9540  148.6880 C   0  0  0  0  0  3  0  0  0  0  0  0
  161.5790  204.4750  146.3650 C   0  0  0  0  0  0  0  0  0  0  0  0
  160.9880  207.7170  148.2540 C   0  0  0  0  0  3  0  0  0  0  0  0
  161.9530  208.6290  148.2610 C   0  0  0  0  0  2  0  0  0  0  0  0
  161.2690  209.1710  153.9080 C   0  0  0  0  0  2  0  0  0  0  0  0
  161.2290  210.6890  154.0620 C   0  0  0  0  0  2  0  0  0  0  0  0
  159.0120  212.0120  154.0110 C   0  0  2  0  0  3  0  0  0  0  0  0
  158.0370  210.7070  155.7590 C   0  0  0  0  0  2  0  0  0  0  0  0
  160.0040  211.2060  154.8280 C   0  0  1  0  0  3  0  0  0  0  0  0
  159.3200  210.1890  155.5070 O   0  0  0  0  0  0  0  0  0  0  0  0
  157.7570  211.8630  154.8160 C   0  0  0  0  0  2  0  0  0  0  0  0
  158.8040  211.4430  152.7520 O   0  0  0  0  0  1  0  0  0  0  0  0
  160.5650  203.3940  151.1910 C   0  0  0  0  0  2  0  0  0  0  0  0
  161.3140  202.1520  151.6430 C   0  0  0  0  0  2  0  0  0  0  0  0
  160.8340  200.9280  150.8820 C   0  0  0  0  0  2  0  0  0  0  0  0
  159.0900  201.1020  149.2660 O   0  0  0  0  0  1  0  0  0  0  0  0
  161.2050  200.4880  148.5290 N   0  0  0  0  0  1  0  0  0  0  0  0
  160.4550  201.3080  149.4630 C   0  0  2  0  0  3  0  0  0  0  0  0
  1  3  1  0  0  0  0
  1  6  1  0  0  0  0
  2  3  2  0  0  0  0
  3 20  1  0  0  0  0
  4  6  1  0  0  0  0
  5 28  1  6  0  0  0
  5  4  1  0  0  0  0
  7  1  1  0  0  0  0
  8 12  1  6  0  0  0
  8  7  1  0  0  0  0
  8  5  1  0  0  0  0
  9 10  1  6  0  0  0
  9 11  1  0  0  0  0
 11 18  1  0  0  0  0
 11 12  2  0  0  0  0
 13 15  1  0  0  0  0
 13 10  2  0  0  0  0
 14 16  2  0  0  0  0
 15 17  2  0  0  0  0
 16 12  1  0  0  0  0
 17  9  1  0  0  0  0
 17 14  1  0  0  0  0
 18 19  2  0  0  0  0
 20 21  1  0  0  0  0
 22 27  1  6  0  0  0
 22 26  1  0  0  0  0
 22 24  1  0  0  0  0
 24 21  1  6  0  0  0
 24 25  1  0  0  0  0
 25 23  1  0  0  0  0
 26 23  1  0  0  0  0
 28 29  1  0  0  0  0
 30 29  1  0  0  0  0
 31 33  1  0  0  0  0
 33 32  1  6  0  0  0
 33 30  1  0  0  0  0
M  END
>  <MODEL>
6

>  <REMARK>
 VINA RESULT:      -6.8      3.017      6.212
  Name = 
  9 active torsions:
  status: ('A' for Active; 'I' for Inactive)
    1  A    between atoms: C_7  and  C_8
    2  A    between atoms: C_7  and  C_24
    3  A    between atoms: C_9  and  C_24
    4  A    between atoms: C_10  and  C_11
    5  A    between atoms: C_14  and  C_33
    6  A    between atoms: C_17  and  C_27
    7  A    between atoms: C_20  and  C_32
    8  A    between atoms: C_31  and  C_32
    9  A    between atoms: C_31  and  C_33
                            x       y       z     vdW  Elec       q    Type
                         _______ _______ _______ _____ _____    ______ ____

>  <TORSDO>
F 9

$$$$
=
 OpenBabel11042421243D

 33 36  0  0  1  0  0  0  0  0999 V2000
  161.4860  207.1620  152.1810 N   0  0  0  0  0  0  0  0  0  0  0  0
  160.1620  205.4470  153.0600 O   0  0  0  0  0  0  0  0  0  0  0  0
  161.0830  205.7870  152.2710 C   0  0  0  0  0  0  0  0  0  0  0  0
  162.3140  208.7660  150.5460 C   0  0  0  0  0  2  0  0  0  0  0  0
  161.7670  209.9000  151.4150 C   0  0  2  0  0  3  0  0  0  0  0  0
  162.6570  207.5540  151.4040 C   0  0  0  0  0  2  0  0  0  0  0  0
  160.8500  208.1710  153.0230 C   0  0  0  0  0  2  0  0  0  0  0  0
  160.5320  209.4200  152.1990 C   0  0  1  0  0  3  0  0  0  0  0  0
  160.0780  211.9190  155.0350 C   0  0  0  0  0  0  0  0  0  0  0  0
  160.4890  212.5320  156.2000 C   0  0  0  0  0  3  0  0  0  0  0  0
  160.6730  210.9110  154.2520 C   0  0  0  0  0  0  0  0  0  0  0  0
  159.9690  210.4950  153.0910 C   0  0  0  0  0  0  0  0  0  0  0  0
  159.5570  213.4460  156.5640 N   0  0  0  0  0  2  0  0  0  0  0  0
  158.1670  212.0920  153.5690 C   0  0  0  0  0  3  0  0  0  0  0  0
  158.5610  213.4210  155.6480 C   0  0  0  0  0  3  0  0  0  0  0  0
  158.7270  211.0900  152.7620 C   0  0  0  0  0  3  0  0  0  0  0  0
  158.8760  212.4790  154.6990 C   0  0  0  0  0  0  0  0  0  0  0  0
  161.9730  210.2820  154.5870 C   0  0  0  0  0  3  0  0  0  0  0  0
  162.3310  209.9120  155.8110 C   0  0  0  0  0  2  0  0  0  0  0  0
  161.7310  204.7350  151.4260 C   0  0  0  0  0  2  0  0  0  0  0  0
  160.9960  204.5620  150.0980 C   0  0  0  0  0  2  0  0  0  0  0  0
  160.7780  202.6930  148.3300 C   0  0  2  0  0  3  0  0  0  0  0  0
  161.1990  200.9570  149.9160 C   0  0  0  0  0  2  0  0  0  0  0  0
  160.6190  203.1090  149.7800 C   0  0  1  0  0  3  0  0  0  0  0  0
  161.2840  202.1850  150.5970 O   0  0  0  0  0  0  0  0  0  0  0  0
  160.9050  201.2050  148.4470 C   0  0  0  0  0  2  0  0  0  0  0  0
  161.9580  203.1980  147.7780 O   0  0  0  0  0  1  0  0  0  0  0  0
  161.4100  211.0860  150.5240 C   0  0  0  0  0  2  0  0  0  0  0  0
  161.9580  210.8990  149.1180 C   0  0  0  0  0  2  0  0  0  0  0  0
  162.3980  212.2280  148.5320 C   0  0  0  0  0  2  0  0  0  0  0  0
  162.2850  213.3790  146.4470 O   0  0  0  0  0  1  0  0  0  0  0  0
  160.3630  213.2800  147.7450 N   0  0  0  0  0  1  0  0  0  0  0  0
  161.5550  212.5710  147.3180 C   0  0  2  0  0  3  0  0  0  0  0  0
  1  3  1  0  0  0  0
  1  7  1  0  0  0  0
  3  2  2  0  0  0  0
  4  6  1  0  0  0  0
  4  5  1  0  0  0  0
  5 28  1  6  0  0  0
  5  8  1  0  0  0  0
  6  1  1  0  0  0  0
  8  7  1  0  0  0  0
  8 12  1  1  0  0  0
  9 10  2  0  0  0  0
 10 13  1  0  0  0  0
 11 18  1  0  0  0  0
 11  9  1  0  0  0  0
 12 11  2  0  0  0  0
 14 17  1  0  0  0  0
 15 13  1  0  0  0  0
 16 12  1  0  0  0  0
 16 14  2  0  0  0  0
 17  9  1  0  0  0  0
 17 15  2  0  0  0  0
 18 19  2  0  0  0  0
 20  3  1  0  0  0  0
 21 20  1  0  0  0  0
 22 27  1  1  0  0  0
 22 26  1  0  0  0  0
 22 24  1  0  0  0  0
 23 25  1  0  0  0  0
 24 21  1  6  0  0  0
 24 25  1  0  0  0  0
 26 23  1  0  0  0  0
 29 28  1  0  0  0  0
 30 29  1  0  0  0  0
 33 31  1  6  0  0  0
 33 32  1  0  0  0  0
 33 30  1  0  0  0  0
M  END
>  <MODEL>
7

>  <REMARK>
 VINA RESULT:      -6.6      3.139      8.909
  Name = 
  9 active torsions:
  status: ('A' for Active; 'I' for Inactive)
    1  A    between atoms: C_7  and  C_8
    2  A    between atoms: C_7  and  C_24
    3  A    between atoms: C_9  and  C_24
    4  A    between atoms: C_10  and  C_11
    5  A    between atoms: C_14  and  C_33
    6  A    between atoms: C_17  and  C_27
    7  A    between atoms: C_20  and  C_32
    8  A    between atoms: C_31  and  C_32
    9  A    between atoms: C_31  and  C_33
                            x       y       z     vdW  Elec       q    Type
                         _______ _______ _______ _____ _____    ______ ____

>  <TORSDO>
F 9

$$$$
=
 OpenBabel11042421243D

 33 36  0  0  1  0  0  0  0  0999 V2000
  160.5650  209.8990  153.3540 N   0  0  0  0  0  0  0  0  0  0  0  0
  160.5440  209.0350  155.5260 O   0  0  0  0  0  0  0  0  0  0  0  0
  160.5920  210.0500  154.7820 C   0  0  0  0  0  0  0  0  0  0  0  0
  161.4640  210.9440  151.3460 C   0  0  0  0  0  2  0  0  0  0  0  0
  161.2920  209.6160  150.6060 C   0  0  2  0  0  3  0  0  0  0  0  0
  160.4490  211.0590  152.4770 C   0  0  0  0  0  2  0  0  0  0  0  0
  160.4560  208.5720  152.7570 C   0  0  0  0  0  2  0  0  0  0  0  0
  161.4340  208.4390  151.5880 C   0  0  1  0  0  3  0  0  0  0  0  0
  161.2960  204.6950  150.9120 C   0  0  0  0  0  0  0  0  0  0  0  0
  161.4430  203.3780  151.2960 C   0  0  0  0  0  3  0  0  0  0  0  0
  161.4890  205.8980  151.6170 C   0  0  0  0  0  0  0  0  0  0  0  0
  161.2480  207.1060  150.9110 C   0  0  0  0  0  0  0  0  0  0  0  0
  161.1360  202.5800  150.2460 N   0  0  0  0  0  0  0  0  0  0  0  0
  160.6480  205.8460  148.8910 C   0  0  0  0  0  2  0  0  0  0  0  0
  160.7950  203.3710  149.2000 C   0  0  0  0  0  3  0  0  0  0  0  0
  160.8290  207.0660  149.5580 C   0  0  0  0  0  3  0  0  0  0  0  0
  160.8920  204.6800  149.6060 C   0  0  0  0  0  0  0  0  0  0  0  0
  161.9270  205.9510  153.0330 C   0  0  0  0  0  3  0  0  0  0  0  0
  161.2030  205.5110  154.0560 C   0  0  0  0  0  2  0  0  0  0  0  0
  160.6900  211.4030  155.4140 C   0  0  0  0  0  2  0  0  0  0  0  0
  159.4320  212.2280  155.1560 C   0  0  0  0  0  2  0  0  0  0  0  0
  157.3460  212.1680  156.6780 C   0  0  2  0  0  3  0  0  0  0  0  0
  156.0050  211.0840  155.0250 C   0  0  0  0  0  2  0  0  0  0  0  0
  158.1300  211.5190  155.5540 C   0  0  1  0  0  3  0  0  0  0  0  0
  157.2760  211.3030  154.4640 O   0  0  0  0  0  0  0  0  0  0  0  0
  155.9650  211.6390  156.4380 C   0  0  0  0  0  2  0  0  0  0  0  0
  157.3190  213.5590  156.5480 O   0  0  0  0  0  1  0  0  0  0  0  0
  162.3380  209.5210  149.4990 C   0  0  0  0  0  2  0  0  0  0  0  0
  161.9510  210.3790  148.3050 C   0  0  0  0  0  2  0  0  0  0  0  0
  162.3930  211.8170  148.5110 C   0  0  0  0  0  2  0  0  0  0  0  0
  162.6610  213.0200  146.4700 O   0  0  0  0  0  1  0  0  0  0  0  0
  161.3120  213.9480  148.1170 N   0  0  0  0  0  1  0  0  0  0  0  0
  161.7450  212.7190  147.4780 C   0  0  2  0  0  3  0  0  0  0  0  0
  1  3  1  0  0  0  0
  3 20  1  0  0  0  0
  3  2  2  0  0  0  0
  4  6  1  0  0  0  0
  5 28  1  6  0  0  0
  5  4  1  0  0  0  0
  5  8  1  0  0  0  0
  6  1  1  0  0  0  0
  7  1  1  0  0  0  0
  8 12  1  6  0  0  0
  8  7  1  0  0  0  0
  9 10  1  0  0  0  0
  9 11  2  0  0  0  0
 11 18  1  0  0  0  0
 12 11  1  0  0  0  0
 13 10  2  0  0  0  0
 14 16  1  0  0  0  0
 14 17  1  0  0  0  0
 15 17  2  0  0  0  0
 15 13  1  0  0  0  0
 16 12  2  0  0  0  0
 17  9  1  0  0  0  0
 18 19  2  0  0  0  0
 21 20  1  0  0  0  0
 22 27  1  6  0  0  0
 23 26  1  0  0  0  0
 24 21  1  6  0  0  0
 24 22  1  0  0  0  0
 25 23  1  0  0  0  0
 25 24  1  0  0  0  0
 26 22  1  0  0  0  0
 29 30  1  0  0  0  0
 29 28  1  0  0  0  0
 33 31  1  6  0  0  0
 33 32  1  0  0  0  0
 33 30  1  0  0  0  0
M  END
>  <MODEL>
8

>  <REMARK>
 VINA RESULT:      -6.5      2.503      6.708
  Name = 
  9 active torsions:
  status: ('A' for Active; 'I' for Inactive)
    1  A    between atoms: C_7  and  C_8
    2  A    between atoms: C_7  and  C_24
    3  A    between atoms: C_9  and  C_24
    4  A    between atoms: C_10  and  C_11
    5  A    between atoms: C_14  and  C_33
    6  A    between atoms: C_17  and  C_27
    7  A    between atoms: C_20  and  C_32
    8  A    between atoms: C_31  and  C_32
    9  A    between atoms: C_31  and  C_33
                            x       y       z     vdW  Elec       q    Type
                         _______ _______ _______ _____ _____    ______ ____

>  <TORSDO>
F 9

$$$$
=
 OpenBabel11042421243D

 33 36  0  0  1  0  0  0  0  0999 V2000
  161.0950  207.4020  149.5680 N   0  0  0  0  0  0  0  0  0  0  0  0
  162.0750  209.3740  148.7830 O   0  0  0  0  0  0  0  0  0  0  0  0
  161.6680  208.2090  148.5280 C   0  0  0  0  0  0  0  0  0  0  0  0
  160.9460  205.0720  150.2610 C   0  0  0  0  0  2  0  0  0  0  0  0
  160.6920  205.5390  151.6960 C   0  0  2  0  0  3  0  0  0  0  0  0
  160.4650  206.1210  149.2660 C   0  0  0  0  0  2  0  0  0  0  0  0
  160.9540  207.9360  150.9200 C   0  0  0  0  0  2  0  0  0  0  0  0
  161.3890  206.8880  151.9470 C   0  0  1  0  0  3  0  0  0  0  0  0
  161.1340  209.1720  154.9820 C   0  0  0  0  0  0  0  0  0  0  0  0
  161.2580  210.3980  155.6020 C   0  0  0  0  0  3  0  0  0  0  0  0
  161.3790  208.7700  153.6550 C   0  0  0  0  0  0  0  0  0  0  0  0
  161.1490  207.4040  153.3410 C   0  0  0  0  0  0  0  0  0  0  0  0
  160.8980  210.2670  156.9020 N   0  0  0  0  0  2  0  0  0  0  0  0
  160.4570  206.9530  155.6530 C   0  0  0  0  0  3  0  0  0  0  0  0
  160.5490  208.9770  157.1160 C   0  0  0  0  0  3  0  0  0  0  0  0
  160.6900  206.5130  154.3420 C   0  0  0  0  0  3  0  0  0  0  0  0
  160.6910  208.2940  155.9320 C   0  0  0  0  0  0  0  0  0  0  0  0
  161.8590  209.6940  152.6000 C   0  0  0  0  0  3  0  0  0  0  0  0
  161.2050  210.7790  152.2020 C   0  0  0  0  0  2  0  0  0  0  0  0
  161.8090  207.6860  147.1330 C   0  0  0  0  0  2  0  0  0  0  0  0
  162.4480  206.2990  147.1240 C   0  0  0  0  0  2  0  0  0  0  0  0
  162.1310  203.9500  146.0990 C   0  0  2  0  0  3  0  0  0  0  0  0
  160.4580  204.6970  144.5670 C   0  0  0  0  0  2  0  0  0  0  0  0
  162.0840  205.4530  145.8970 C   0  0  1  0  0  3  0  0  0  0  0  0
  160.8440  205.8020  145.3460 O   0  0  0  0  0  0  0  0  0  0  0  0
  161.2220  203.4630  145.0120 C   0  0  0  0  0  2  0  0  0  0  0  0
  161.5880  203.5810  147.3320 O   0  0  0  0  0  1  0  0  0  0  0  0
  161.2090  204.4800  152.6650 C   0  0  0  0  0  2  0  0  0  0  0  0
  160.6680  203.1040  152.3120 C   0  0  0  0  0  2  0  0  0  0  0  0
  161.5810  202.4070  151.3190 C   0  0  0  0  0  2  0  0  0  0  0  0
  161.6240  200.8240  149.5360 O   0  0  0  0  0  1  0  0  0  0  0  0
  159.7100  202.1110  149.8080 N   0  0  0  0  0  1  0  0  0  0  0  0
  160.7900  201.4170  150.4840 C   0  0  2  0  0  3  0  0  0  0  0  0
  1  7  1  0  0  0  0
  3  2  2  0  0  0  0
  3  1  1  0  0  0  0
  4  5  1  0  0  0  0
  5  8  1  0  0  0  0
  5 28  1  1  0  0  0
  6  1  1  0  0  0  0
  6  4  1  0  0  0  0
  7  8  1  0  0  0  0
  8 12  1  1  0  0  0
  9 10  2  0  0  0  0
  9 17  1  0  0  0  0
 10 13  1  0  0  0  0
 11  9  1  0  0  0  0
 12 11  2  0  0  0  0
 12 16  1  0  0  0  0
 13 15  1  0  0  0  0
 14 17  1  0  0  0  0
 16 14  2  0  0  0  0
 17 15  2  0  0  0  0
 18 11  1  0  0  0  0
 19 18  2  0  0  0  0
 20  3  1  0  0  0  0
 21 20  1  0  0  0  0
 22 27  1  1  0  0  0
 23 26  1  0  0  0  0
 23 25  1  0  0  0  0
 24 22  1  0  0  0  0
 24 21  1  1  0  0  0
 25 24  1  0  0  0  0
 26 22  1  0  0  0  0
 29 28  1  0  0  0  0
 30 29  1  0  0  0  0
 32 33  1  0  0  0  0
 33 31  1  6  0  0  0
 33 30  1  0  0  0  0
M  END
>  <MODEL>
9

>  <REMARK>
 VINA RESULT:      -6.5      2.959      7.010
  Name = 
  9 active torsions:
  status: ('A' for Active; 'I' for Inactive)
    1  A    between atoms: C_7  and  C_8
    2  A    between atoms: C_7  and  C_24
    3  A    between atoms: C_9  and  C_24
    4  A    between atoms: C_10  and  C_11
    5  A    between atoms: C_14  and  C_33
    6  A    between atoms: C_17  and  C_27
    7  A    between atoms: C_20  and  C_32
    8  A    between atoms: C_31  and  C_32
    9  A    between atoms: C_31  and  C_33
                            x       y       z     vdW  Elec       q    Type
                         _______ _______ _______ _____ _____    ______ ____

>  <TORSDO>
F 9

$$$$
