=
 OpenBabel11042422353D

 33 39  0  0  1  0  0  0  0  0999 V2000
  161.2010  204.5740  147.6420 C   0  0  0  0  0  0  0  0  0  0  0  0
  162.0050  208.0120  152.3710 C   0  0  1  0  0  3  0  0  0  0  0  0
  161.0300  207.9840  155.7680 N   0  0  0  0  0  0  0  0  0  0  0  0
  161.5830  206.9920  147.7710 C   0  0  0  0  0  3  0  0  0  0  0  0
  161.2690  204.1670  149.9270 C   0  0  0  0  0  3  0  0  0  0  0  0
  161.0790  203.4430  148.6210 C   0  0  0  0  0  2  0  0  0  0  0  0
  161.4570  205.4490  149.6510 C   0  0  0  0  0  0  0  0  0  0  0  0
  161.1140  209.8950  153.7450 N   0  0  0  0  0  0  0  0  0  0  0  0
  160.8850  208.4940  153.3120 C   0  0  2  0  0  3  0  0  0  0  0  0
  161.2280  206.0630  154.2850 C   0  0  0  0  0  2  0  0  0  0  0  0
  161.6800  206.5070  150.5310 C   0  0  0  0  0  0  0  0  0  0  0  0
  161.9530  209.3560  148.1990 O   0  0  0  0  0  1  0  0  0  0  0  0
  160.8750  209.2260  156.0390 C   0  0  0  0  0  0  0  0  0  0  0  0
  161.7250  206.5890  151.9760 C   0  0  0  0  0  0  0  0  0  0  0  0
  160.9430  211.4990  155.6230 C   0  0  0  0  0  2  0  0  0  0  0  0
  161.3860  209.8650  157.2600 C   0  0  0  0  0  2  0  0  0  0  0  0
  161.2910  205.6780  152.8390 C   0  0  0  0  0  3  0  0  0  0  0  0
  162.0020  208.7380  151.0930 N   0  0  0  0  0  2  0  0  0  0  0  0
  160.6200  207.4680  154.4820 C   0  0  1  0  0  3  0  0  0  0  0  0
  161.2100  211.2990  157.0530 N   0  0  0  0  0  2  0  0  0  0  0  0
  160.4420  210.1900  155.0210 C   0  0  1  0  0  3  0  0  0  0  0  0
  161.4180  205.6980  148.2950 C   0  0  0  0  0  0  0  0  0  0  0  0
  161.7960  208.0590  148.6710 C   0  0  0  0  0  0  0  0  0  0  0  0
  161.8390  207.7840  150.0490 C   0  0  0  0  0  0  0  0  0  0  0  0
  161.1030  204.4770  146.2540 O   0  0  0  0  0  0  0  0  0  0  0  0
  161.2180  203.2300  145.5880 C   0  0  0  0  0  1  0  0  0  0  0  0
  160.4890  210.7410  152.7290 C   0  0  0  0  0  2  0  0  0  0  0  0
  157.1890  212.2840  153.9430 C   0  0  0  0  0  2  0  0  0  0  0  0
  159.5700  211.7730  153.3680 C   0  0  2  0  0  3  0  0  0  0  0  0
  158.1470  211.2260  153.4050 C   0  0  0  0  0  2  0  0  0  0  0  0
  158.7050  214.0600  153.2080 N   0  0  0  0  0  2  0  0  0  0  0  0
  157.3320  213.5660  153.1260 C   0  0  0  0  0  2  0  0  0  0  0  0
  159.5920  213.0830  152.5800 C   0  0  0  0  0  2  0  0  0  0  0  0
  1 22  2  0  0  0  0
  1  6  1  0  0  0  0
  2 18  1  6  0  0  0
  2  9  1  0  0  0  0
  3 13  2  0  0  0  0
  4 22  1  0  0  0  0
  4 23  2  0  0  0  0
  6  5  1  0  0  0  0
  7  5  2  0  0  0  0
  7 11  1  0  0  0  0
  8 21  1  0  0  0  0
  9  8  1  1  0  0  0
  9 19  1  0  0  0  0
 11 14  1  0  0  0  0
 12 23  1  0  0  0  0
 13 16  1  0  0  0  0
 14  2  1  0  0  0  0
 14 17  2  0  0  0  0
 15 20  1  0  0  0  0
 17 10  1  0  0  0  0
 19 10  1  6  0  0  0
 19  3  1  0  0  0  0
 20 16  1  0  0  0  0
 21 15  1  1  0  0  0
 21 13  1  0  0  0  0
 22  7  1  0  0  0  0
 23 24  1  0  0  0  0
 24 11  2  0  0  0  0
 24 18  1  0  0  0  0
 25  1  1  0  0  0  0
 26 25  1  0  0  0  0
 27  8  1  0  0  0  0
 29 27  1  6  0  0  0
 29 30  1  0  0  0  0
 30 28  1  0  0  0  0
 32 31  1  0  0  0  0
 32 28  1  0  0  0  0
 33 31  1  0  0  0  0
 33 29  1  0  0  0  0
M  END
>  <MODEL>
1

>  <REMARK>
 VINA RESULT:      -9.9      0.000      0.000
  Name = 
  3 active torsions:
  status: ('A' for Active; 'I' for Inactive)
    1  A    between atoms: C_1  and  O_13
    2  A    between atoms: C_3  and  C_7
    3  A    between atoms: C_7  and  N_11
                            x       y       z     vdW  Elec       q    Type
                         _______ _______ _______ _____ _____    ______ ____

>  <TORSDO>
F 3

$$$$
=
 OpenBabel11042422353D

 33 39  0  0  1  0  0  0  0  0999 V2000
  161.1120  203.6540  149.8750 C   0  0  0  0  0  0  0  0  0  0  0  0
  161.3320  208.6300  153.0420 C   0  0  1  0  0  3  0  0  0  0  0  0
  160.2880  209.6860  156.2490 N   0  0  0  0  0  0  0  0  0  0  0  0
  161.1620  205.9870  149.1220 C   0  0  0  0  0  3  0  0  0  0  0  0
  161.1780  204.1040  152.1520 C   0  0  0  0  0  3  0  0  0  0  0  0
  161.1190  202.9420  151.1960 C   0  0  0  0  0  2  0  0  0  0  0  0
  161.1990  205.2150  151.4310 C   0  0  0  0  0  0  0  0  0  0  0  0
  160.1630  210.7410  153.6760 N   0  0  0  0  0  0  0  0  0  0  0  0
  160.1360  209.2610  153.7770 C   0  0  2  0  0  3  0  0  0  0  0  0
  160.7780  207.4070  155.5450 C   0  0  0  0  0  2  0  0  0  0  0  0
  161.2570  206.5370  151.8700 C   0  0  0  0  0  0  0  0  0  0  0  0
  161.2010  208.3740  148.6690 O   0  0  0  0  0  1  0  0  0  0  0  0
  159.9610  210.9100  156.0630 C   0  0  0  0  0  0  0  0  0  0  0  0
  161.2550  207.1350  153.1890 C   0  0  0  0  0  0  0  0  0  0  0  0
  159.7330  212.8720  154.8610 C   0  0  0  0  0  2  0  0  0  0  0  0
  160.3520  212.0060  156.9610 C   0  0  0  0  0  2  0  0  0  0  0  0
  160.9280  206.5440  154.3310 C   0  0  0  0  0  3  0  0  0  0  0  0
  161.2620  208.8430  151.5900 N   0  0  0  0  0  2  0  0  0  0  0  0
  159.9830  208.6950  155.2440 C   0  0  1  0  0  3  0  0  0  0  0  0
  159.9890  213.2330  156.2610 N   0  0  0  0  0  2  0  0  0  0  0  0
  159.4270  211.3800  154.7790 C   0  0  1  0  0  3  0  0  0  0  0  0
  161.1600  204.9550  150.0780 C   0  0  0  0  0  0  0  0  0  0  0  0
  161.2070  207.3230  149.5760 C   0  0  0  0  0  0  0  0  0  0  0  0
  161.2550  207.5670  150.9600 C   0  0  0  0  0  0  0  0  0  0  0  0
  161.0610  203.0560  148.6160 O   0  0  0  0  0  0  0  0  0  0  0  0
  160.8150  201.6680  148.4650 C   0  0  0  0  0  1  0  0  0  0  0  0
  159.4550  211.0760  152.4410 C   0  0  0  0  0  2  0  0  0  0  0  0
  159.7030  214.4530  150.6300 C   0  0  0  0  0  2  0  0  0  0  0  0
  160.1220  212.2440  151.7280 C   0  0  2  0  0  3  0  0  0  0  0  0
  159.0810  213.3190  151.4390 C   0  0  0  0  0  2  0  0  0  0  0  0
  161.3960  212.9200  149.7470 N   0  0  0  0  0  2  0  0  0  0  0  0
  160.3610  213.8840  149.3750 C   0  0  0  0  0  2  0  0  0  0  0  0
  160.7610  211.7880  150.4170 C   0  0  0  0  0  2  0  0  0  0  0  0
  1 22  2  0  0  0  0
  1  6  1  0  0  0  0
  2 18  1  6  0  0  0
  2 14  1  0  0  0  0
  2  9  1  0  0  0  0
  4 23  2  0  0  0  0
  4 22  1  0  0  0  0
  6  5  1  0  0  0  0
  7 11  1  0  0  0  0
  7  5  2  0  0  0  0
  8 21  1  0  0  0  0
  9  8  1  1  0  0  0
  9 19  1  0  0  0  0
 11 14  1  0  0  0  0
 12 23  1  0  0  0  0
 13  3  2  0  0  0  0
 13 16  1  0  0  0  0
 14 17  2  0  0  0  0
 15 20  1  0  0  0  0
 17 10  1  0  0  0  0
 19 10  1  6  0  0  0
 19  3  1  0  0  0  0
 20 16  1  0  0  0  0
 21 15  1  1  0  0  0
 21 13  1  0  0  0  0
 22  7  1  0  0  0  0
 23 24  1  0  0  0  0
 24 18  1  0  0  0  0
 24 11  2  0  0  0  0
 25  1  1  0  0  0  0
 26 25  1  0  0  0  0
 27  8  1  0  0  0  0
 28 30  1  0  0  0  0
 29 27  1  6  0  0  0
 30 29  1  0  0  0  0
 31 33  1  0  0  0  0
 32 31  1  0  0  0  0
 32 28  1  0  0  0  0
 33 29  1  0  0  0  0
M  END
>  <MODEL>
2

>  <REMARK>
 VINA RESULT:      -9.8      1.749      2.347
  Name = 
  3 active torsions:
  status: ('A' for Active; 'I' for Inactive)
    1  A    between atoms: C_1  and  O_13
    2  A    between atoms: C_3  and  C_7
    3  A    between atoms: C_7  and  N_11
                            x       y       z     vdW  Elec       q    Type
                         _______ _______ _______ _____ _____    ______ ____

>  <TORSDO>
F 3

$$$$
=
 OpenBabel11042422353D

 33 39  0  0  1  0  0  0  0  0999 V2000
  160.4950  210.2330  155.3170 C   0  0  0  0  0  0  0  0  0  0  0  0
  162.1810  207.1490  150.5770 C   0  0  1  0  0  3  0  0  0  0  0  0
  162.1560  207.6020  147.0710 N   0  0  0  0  0  0  0  0  0  0  0  0
  160.6520  207.8070  155.0040 C   0  0  0  0  0  3  0  0  0  0  0  0
  161.2100  210.8270  153.1900 C   0  0  0  0  0  3  0  0  0  0  0  0
  160.7530  211.4520  154.4810 C   0  0  0  0  0  3  0  0  0  0  0  0
  161.1880  209.5130  153.3510 C   0  0  0  0  0  0  0  0  0  0  0  0
  161.5040  205.5250  148.8080 N   0  0  0  0  0  0  0  0  0  0  0  0
  161.3110  206.9000  149.3310 C   0  0  2  0  0  3  0  0  0  0  0  0
  162.1440  209.3430  148.7720 C   0  0  0  0  0  2  0  0  0  0  0  0
  161.5300  208.5170  152.4380 C   0  0  2  0  0  3  0  0  0  0  0  0
  160.8830  205.4620  154.4080 O   0  0  0  0  0  1  0  0  0  0  0  0
  161.9540  206.4190  146.6240 C   0  0  0  0  0  0  0  0  0  0  0  0
  161.9500  208.5570  151.0530 C   0  0  0  0  0  0  0  0  0  0  0  0
  161.6800  204.1270  146.7720 C   0  0  0  0  0  2  0  0  0  0  0  0
  162.7060  205.8280  145.5070 C   0  0  0  0  0  2  0  0  0  0  0  0
  161.8570  209.5880  150.2220 C   0  0  0  0  0  3  0  0  0  0  0  0
  161.7640  206.3210  151.7160 N   0  0  0  0  0  2  0  0  0  0  0  0
  161.4720  208.0510  148.2620 C   0  0  1  0  0  3  0  0  0  0  0  0
  162.3370  204.4170  145.4910 N   0  0  0  0  0  2  0  0  0  0  0  0
  161.1710  205.4320  147.3770 C   0  0  1  0  0  3  0  0  0  0  0  0
  160.7630  209.1530  154.6130 C   0  0  0  0  0  0  0  0  0  0  0  0
  160.9880  206.8050  154.0680 C   0  0  0  0  0  0  0  0  0  0  0  0
  161.4250  207.1920  152.7900 C   0  0  0  0  0  0  0  0  0  0  0  0
  160.0400  210.2190  156.6360 O   0  0  0  0  0  0  0  0  0  0  0  0
  159.0100  211.0910  157.0740 C   0  0  0  0  0  1  0  0  0  0  0  0
  160.5480  204.6800  149.5230 C   0  0  0  0  0  2  0  0  0  0  0  0
  160.9700  200.8660  149.3800 C   0  0  0  0  0  2  0  0  0  0  0  0
  161.1530  203.3190  149.8400 C   0  0  2  0  0  3  0  0  0  0  0  0
  160.4560  202.2520  149.0030 C   0  0  0  0  0  2  0  0  0  0  0  0
  161.5810  201.6780  151.6080 N   0  0  0  0  0  2  0  0  0  0  0  0
  160.8220  200.6590  150.8860 C   0  0  0  0  0  2  0  0  0  0  0  0
  160.9960  202.9860  151.3230 C   0  0  0  0  0  2  0  0  0  0  0  0
  1 25  1  0  0  0  0
  2 14  1  1  0  0  0
  2 18  1  0  0  0  0
  3 19  1  0  0  0  0
  5  7  2  0  0  0  0
  5  6  1  0  0  0  0
  6  1  2  0  0  0  0
  7 22  1  0  0  0  0
  8 27  1  0  0  0  0
  9  8  1  6  0  0  0
  9  2  1  0  0  0  0
 10 17  1  0  0  0  0
 11 14  1  6  0  0  0
 11 24  1  0  0  0  0
 11  7  1  0  0  0  0
 13  3  2  0  0  0  0
 13 21  1  0  0  0  0
 16 13  1  0  0  0  0
 17 14  2  0  0  0  0
 18 24  1  0  0  0  0
 19 10  1  1  0  0  0
 19  9  1  0  0  0  0
 20 16  1  0  0  0  0
 20 15  1  0  0  0  0
 21 15  1  6  0  0  0
 21  8  1  0  0  0  0
 22  4  2  0  0  0  0
 22  1  1  0  0  0  0
 23 12  1  0  0  0  0
 23  4  1  0  0  0  0
 24 23  2  0  0  0  0
 25 26  1  0  0  0  0
 28 32  1  0  0  0  0
 29 27  1  1  0  0  0
 29 33  1  0  0  0  0
 30 28  1  0  0  0  0
 30 29  1  0  0  0  0
 32 31  1  0  0  0  0
 33 31  1  0  0  0  0
M  END
>  <MODEL>
3

>  <REMARK>
 VINA RESULT:      -8.9      3.332      8.861
  Name = 
  3 active torsions:
  status: ('A' for Active; 'I' for Inactive)
    1  A    between atoms: C_1  and  O_13
    2  A    between atoms: C_3  and  C_7
    3  A    between atoms: C_7  and  N_11
                            x       y       z     vdW  Elec       q    Type
                         _______ _______ _______ _____ _____    ______ ____

>  <TORSDO>
F 3

$$$$
=
 OpenBabel11042422353D

 33 39  0  0  1  0  0  0  0  0999 V2000
  161.7940  209.4220  154.8210 C   0  0  0  0  0  0  0  0  0  0  0  0
  160.5910  205.5840  150.5020 C   0  0  1  0  0  3  0  0  0  0  0  0
  160.6690  202.0760  150.0830 N   0  0  0  0  0  0  0  0  0  0  0  0
  161.9100  209.7160  152.3900 C   0  0  0  0  0  3  0  0  0  0  0  0
  161.0810  207.2120  154.7920 C   0  0  0  0  0  3  0  0  0  0  0  0
  161.4310  208.3100  155.7620 C   0  0  0  0  0  2  0  0  0  0  0  0
  161.2410  207.6930  153.5690 C   0  0  0  0  0  0  0  0  0  0  0  0
  161.4920  204.2710  148.5800 N   0  0  0  0  0  0  0  0  0  0  0  0
  161.5200  204.4400  150.0550 C   0  0  2  0  0  3  0  0  0  0  0  0
  160.4440  203.2950  152.1770 C   0  0  0  0  0  2  0  0  0  0  0  0
  161.0360  207.0520  152.3470 C   0  0  0  0  0  0  0  0  0  0  0  0
  161.9530  209.7150  149.9600 O   0  0  0  0  0  1  0  0  0  0  0  0
  161.0110  201.9340  148.8560 C   0  0  0  0  0  0  0  0  0  0  0  0
  160.6540  205.6990  152.0000 C   0  0  0  0  0  0  0  0  0  0  0  0
  161.5280  202.6420  146.7170 C   0  0  0  0  0  2  0  0  0  0  0  0
  160.3610  200.9960  147.9300 C   0  0  0  0  0  2  0  0  0  0  0  0
  160.6590  204.6400  152.8000 C   0  0  0  0  0  3  0  0  0  0  0  0
  161.0620  206.8940  150.0290 N   0  0  0  0  0  2  0  0  0  0  0  0
  161.2660  203.1200  150.8830 C   0  0  1  0  0  3  0  0  0  0  0  0
  160.8810  201.3290  146.6080 N   0  0  0  0  0  2  0  0  0  0  0  0
  161.8750  202.9080  148.1780 C   0  0  1  0  0  3  0  0  0  0  0  0
  161.6650  209.0050  153.5780 C   0  0  0  0  0  0  0  0  0  0  0  0
  161.7120  209.0550  151.1590 C   0  0  0  0  0  0  0  0  0  0  0  0
  161.2730  207.7200  151.1690 C   0  0  0  0  0  0  0  0  0  0  0  0
  162.2090  210.7040  155.1810 O   0  0  0  0  0  0  0  0  0  0  0  0
  163.0800  210.9190  156.2800 C   0  0  0  0  0  1  0  0  0  0  0  0
  162.5120  205.1740  148.0490 C   0  0  0  0  0  2  0  0  0  0  0  0
  160.0810  206.2030  145.2600 C   0  0  0  0  0  2  0  0  0  0  0  0
  162.0620  205.7920  146.7330 C   0  0  2  0  0  3  0  0  0  0  0  0
  160.5460  205.6880  146.6190 C   0  0  0  0  0  2  0  0  0  0  0  0
  162.2700  205.6840  144.2930 N   0  0  0  0  0  2  0  0  0  0  0  0
  160.8310  205.4680  144.1520 C   0  0  0  0  0  2  0  0  0  0  0  0
  162.7120  205.0790  145.5470 C   0  0  0  0  0  2  0  0  0  0  0  0
  1 25  1  0  0  0  0
  1  6  1  0  0  0  0
  2 18  1  6  0  0  0
  2 14  1  0  0  0  0
  3 19  1  0  0  0  0
  4 22  1  0  0  0  0
  5  6  1  0  0  0  0
  7 22  1  0  0  0  0
  7  5  2  0  0  0  0
  9  8  1  6  0  0  0
  9  2  1  0  0  0  0
  9 19  1  0  0  0  0
 10 17  1  0  0  0  0
 11  7  1  0  0  0  0
 12 23  1  0  0  0  0
 13  3  2  0  0  0  0
 14 11  1  0  0  0  0
 14 17  2  0  0  0  0
 16 13  1  0  0  0  0
 18 24  1  0  0  0  0
 19 10  1  1  0  0  0
 20 15  1  0  0  0  0
 20 16  1  0  0  0  0
 21 15  1  6  0  0  0
 21  8  1  0  0  0  0
 21 13  1  0  0  0  0
 22  1  2  0  0  0  0
 23 24  1  0  0  0  0
 23  4  2  0  0  0  0
 24 11  2  0  0  0  0
 25 26  1  0  0  0  0
 27  8  1  0  0  0  0
 28 30  1  0  0  0  0
 29 27  1  1  0  0  0
 30 29  1  0  0  0  0
 31 33  1  0  0  0  0
 32 31  1  0  0  0  0
 32 28  1  0  0  0  0
 33 29  1  0  0  0  0
M  END
>  <MODEL>
4

>  <REMARK>
 VINA RESULT:      -8.6      3.477      8.408
  Name = 
  3 active torsions:
  status: ('A' for Active; 'I' for Inactive)
    1  A    between atoms: C_1  and  O_13
    2  A    between atoms: C_3  and  C_7
    3  A    between atoms: C_7  and  N_11
                            x       y       z     vdW  Elec       q    Type
                         _______ _______ _______ _____ _____    ______ ____

>  <TORSDO>
F 3

$$$$
=
 OpenBabel11042422353D

 33 39  0  0  1  0  0  0  0  0999 V2000
  161.5220  201.6040  147.7350 C   0  0  0  0  0  0  0  0  0  0  0  0
  160.4380  206.7620  150.3900 C   0  0  1  0  0  3  0  0  0  0  0  0
  161.5240  210.1090  150.0500 N   0  0  0  0  0  0  0  0  0  0  0  0
  160.8320  202.0610  150.0430 C   0  0  0  0  0  3  0  0  0  0  0  0
  161.5860  203.8150  147.0290 C   0  0  0  0  0  3  0  0  0  0  0  0
  161.8240  202.4210  146.5130 C   0  0  0  0  0  3  0  0  0  0  0  0
  161.2230  203.7150  148.2990 C   0  0  0  0  0  0  0  0  0  0  0  0
  161.1230  208.3600  152.1800 N   0  0  0  0  0  0  0  0  0  0  0  0
  161.5170  207.7400  150.8910 C   0  0  2  0  0  3  0  0  0  0  0  0
  161.5280  208.3860  148.3300 C   0  0  0  0  0  2  0  0  0  0  0  0
  160.8940  204.7330  149.1940 C   0  0  0  0  0  0  0  0  0  0  0  0
  160.1720  202.8070  152.2590 O   0  0  0  0  0  1  0  0  0  0  0  0
  161.5260  210.5400  151.2560 C   0  0  0  0  0  0  0  0  0  0  0  0
  160.8890  206.1770  149.0800 C   0  0  0  0  0  0  0  0  0  0  0  0
  161.1470  210.4320  153.5350 C   0  0  0  0  0  2  0  0  0  0  0  0
  160.9770  211.8440  151.6570 C   0  0  0  0  0  2  0  0  0  0  0  0
  161.4660  206.9030  148.1310 C   0  0  0  0  0  3  0  0  0  0  0  0
  160.3030  205.5930  151.2690 N   0  0  0  0  0  2  0  0  0  0  0  0
  161.9540  208.7590  149.7660 C   0  0  1  0  0  3  0  0  0  0  0  0
  160.9580  211.8270  153.1160 N   0  0  0  0  0  2  0  0  0  0  0  0
  161.7940  209.6530  152.3940 C   0  0  1  0  0  3  0  0  0  0  0  0
  161.1830  202.4050  148.7250 C   0  0  1  0  0  3  0  0  0  0  0  0
  160.5140  203.0990  150.9450 C   0  0  0  0  0  0  0  0  0  0  0  0
  160.5530  204.4280  150.4900 C   0  0  0  0  0  0  0  0  0  0  0  0
  161.5840  200.2140  147.8340 O   0  0  0  0  0  0  0  0  0  0  0  0
  161.5870  199.3890  146.6800 C   0  0  0  0  0  1  0  0  0  0  0  0
  161.5980  207.4560  153.2270 C   0  0  0  0  0  2  0  0  0  0  0  0
  161.2780  208.1270  156.9940 C   0  0  0  0  0  2  0  0  0  0  0  0
  160.9020  207.7400  154.5510 C   0  0  2  0  0  3  0  0  0  0  0  0
  161.9510  207.9470  155.6370 C   0  0  0  0  0  2  0  0  0  0  0  0
  159.3250  206.8720  156.2140 N   0  0  0  0  0  2  0  0  0  0  0  0
  160.3430  206.9490  157.2610 C   0  0  0  0  0  2  0  0  0  0  0  0
  159.9840  206.5820  154.9430 C   0  0  0  0  0  2  0  0  0  0  0  0
  1 25  1  0  0  0  0
  1 22  1  0  0  0  0
  2 14  1  6  0  0  0
  2  9  1  0  0  0  0
  2 18  1  0  0  0  0
  3 13  2  0  0  0  0
  4 23  2  0  0  0  0
  5  7  2  0  0  0  0
  6  5  1  0  0  0  0
  6  1  2  0  0  0  0
  7 22  1  0  0  0  0
  7 11  1  0  0  0  0
  8 21  1  0  0  0  0
  8 27  1  0  0  0  0
  9  8  1  1  0  0  0
 11 24  2  0  0  0  0
 13 16  1  0  0  0  0
 13 21  1  0  0  0  0
 14 11  1  0  0  0  0
 16 20  1  0  0  0  0
 17 10  1  0  0  0  0
 17 14  2  0  0  0  0
 19 10  1  6  0  0  0
 19  3  1  0  0  0  0
 19  9  1  0  0  0  0
 20 15  1  0  0  0  0
 21 15  1  1  0  0  0
 22  4  1  1  0  0  0
 23 12  1  0  0  0  0
 24 23  1  0  0  0  0
 24 18  1  0  0  0  0
 26 25  1  0  0  0  0
 28 32  1  0  0  0  0
 29 27  1  6  0  0  0
 29 33  1  0  0  0  0
 29 30  1  0  0  0  0
 30 28  1  0  0  0  0
 31 32  1  0  0  0  0
 33 31  1  0  0  0  0
M  END
>  <MODEL>
5

>  <REMARK>
 VINA RESULT:      -7.3      2.528      4.811
  Name = 
  3 active torsions:
  status: ('A' for Active; 'I' for Inactive)
    1  A    between atoms: C_1  and  O_13
    2  A    between atoms: C_3  and  C_7
    3  A    between atoms: C_7  and  N_11
                            x       y       z     vdW  Elec       q    Type
                         _______ _______ _______ _____ _____    ______ ____

>  <TORSDO>
F 3

$$$$
