=
 OpenBabel11052411563D

 32 37  0  0  1  0  0  0  0  0999 V2000
  161.5680  213.0550  148.8720 C   0  0  1  0  0  3  0  0  0  0  0  0
  161.4300  208.0750  149.8390 C   0  0  0  0  0  0  0  0  0  0  0  0
  161.0720  207.8720  154.6460 C   0  0  0  0  0  3  0  0  0  0  0  0
  160.9760  206.4820  154.6200 C   0  0  0  0  0  3  0  0  0  0  0  0
  161.3770  205.9770  148.4790 C   0  0  0  0  0  0  0  0  0  0  0  0
  161.2790  204.5840  148.4830 C   0  0  0  0  0  0  0  0  0  0  0  0
  161.6560  210.1610  148.8050 C   0  0  0  0  0  0  0  0  0  0  0  0
  161.4760  210.0580  151.1710 N   0  0  0  0  0  0  0  0  0  0  0  0
  161.0780  202.5530  149.2880 C   0  0  0  0  0  0  0  0  0  0  0  0
  161.7780  212.2970  150.1840 C   0  0  0  0  0  2  0  0  0  0  0  0
  161.2040  208.5680  153.4860 N   0  0  0  0  0  0  0  0  0  0  0  0
  161.3830  208.7030  151.1040 C   0  0  0  0  0  0  0  0  0  0  0  0
  161.2460  207.9480  152.2720 C   0  0  0  0  0  0  0  0  0  0  0  0
  161.1960  205.8940  150.9460 C   0  0  0  0  0  0  0  0  0  0  0  0
  161.1730  202.5100  147.9040 C   0  0  0  0  0  3  0  0  0  0  0  0
  162.2910  212.3450  147.7240 C   0  0  0  0  0  2  0  0  0  0  0  0
  161.6010  210.8100  150.0500 C   0  0  0  0  0  0  0  0  0  0  0  0
  161.2970  203.7680  147.4100 N   0  0  0  0  0  0  0  0  0  0  0  0
  161.7550  210.9280  147.5180 C   0  0  0  0  0  2  0  0  0  0  0  0
  161.0160  205.8200  153.3940 C   0  0  0  0  0  3  0  0  0  0  0  0
  161.1530  206.5420  152.1970 C   0  0  0  0  0  0  0  0  0  0  0  0
  161.1010  204.4870  150.8820 C   0  0  0  0  0  3  0  0  0  0  0  0
  161.5620  208.8360  148.7540 O   0  0  0  0  0  0  0  0  0  0  0  0
  161.5200  206.6720  147.1610 C   0  0  0  0  0  1  0  0  0  0  0  0
  160.9300  201.3850  150.1980 C   0  0  0  0  0  1  0  0  0  0  0  0
  161.3370  206.6620  149.7380 C   0  0  0  0  0  0  0  0  0  0  0  0
  161.1470  203.8770  149.6400 C   0  0  0  0  0  0  0  0  0  0  0  0
  160.0830  213.2430  148.5880 C   0  0  0  0  0  2  0  0  0  0  0  0
  157.9860  213.5300  149.9410 C   0  0  0  0  0  0  0  0  0  0  0  0
  159.3960  213.6780  149.7920 N   0  0  0  0  0  2  0  0  0  0  0  0
  157.4260  213.9170  150.9990 O   0  0  0  0  0  1  0  0  0  0  0  0
  157.2240  212.9620  148.9260 O   0  0  0  0  0  0  0  0  0  0  0  0
  1 28  1  6  0  0  0
  1 10  1  0  0  0  0
  2 12  1  0  0  0  0
  4  3  1  0  0  0  0
  5  6  2  0  0  0  0
  5 26  1  0  0  0  0
  6 27  1  0  0  0  0
  7 17  2  0  0  0  0
  9 27  2  0  0  0  0
  9 25  1  0  0  0  0
 11  3  2  0  0  0  0
 12  8  2  0  0  0  0
 12 13  1  0  0  0  0
 13 11  1  0  0  0  0
 14 21  1  0  0  0  0
 15  9  1  0  0  0  0
 16  1  1  0  0  0  0
 17 10  1  0  0  0  0
 17  8  1  0  0  0  0
 18 15  2  0  0  0  0
 18  6  1  0  0  0  0
 19 16  1  0  0  0  0
 19  7  1  0  0  0  0
 20  4  2  0  0  0  0
 21 13  2  0  0  0  0
 21 20  1  0  0  0  0
 22 14  2  0  0  0  0
 23  7  1  0  0  0  0
 23  2  1  0  0  0  0
 24  5  1  0  0  0  0
 26  2  2  0  0  0  0
 26 14  1  0  0  0  0
 27 22  1  0  0  0  0
 28 30  1  0  0  0  0
 29 31  1  0  0  0  0
 30 29  1  0  0  0  0
 32 29  2  0  0  0  0
M  END
>  <MODEL>
1

>  <REMARK>
 VINA RESULT:      -9.2      0.000      0.000
  Name = 
  2 active torsions:
  status: ('A' for Active; 'I' for Inactive)
    1  A    between atoms: C_2  and  C_24
    2  A    between atoms: N_10  and  C_24
                            x       y       z     vdW  Elec       q    Type
                         _______ _______ _______ _____ _____    ______ ____

>  <TORSDO>
F 2

$$$$
=
 OpenBabel11052411563D

 32 37  0  0  1  0  0  0  0  0999 V2000
  160.8910  209.0120  156.2480 C   0  0  1  0  0  3  0  0  0  0  0  0
  160.9730  206.3450  151.9310 C   0  0  0  0  0  0  0  0  0  0  0  0
  161.9530  209.6690  148.5740 C   0  0  0  0  0  3  0  0  0  0  0  0
  161.9930  208.7020  147.5710 C   0  0  0  0  0  3  0  0  0  0  0  0
  160.7690  203.9350  151.2990 C   0  0  0  0  0  0  0  0  0  0  0  0
  160.8160  202.9870  150.2740 C   0  0  0  0  0  0  0  0  0  0  0  0
  160.6900  207.0240  154.1510 C   0  0  0  0  0  0  0  0  0  0  0  0
  161.1750  208.6570  152.4970 N   0  0  0  0  0  0  0  0  0  0  0  0
  161.0470  202.1810  148.2470 C   0  0  0  0  0  0  0  0  0  0  0  0
  160.8280  209.4830  154.7950 C   0  0  0  0  0  2  0  0  0  0  0  0
  161.6940  209.3080  149.8590 N   0  0  0  0  0  0  0  0  0  0  0  0
  161.2090  207.6850  151.5480 C   0  0  0  0  0  0  0  0  0  0  0  0
  161.4700  208.0110  150.2140 C   0  0  0  0  0  0  0  0  0  0  0  0
  161.2700  205.6540  149.5920 C   0  0  0  0  0  0  0  0  0  0  0  0
  160.7690  201.1550  149.1400 C   0  0  0  0  0  3  0  0  0  0  0  0
  159.9980  207.7840  156.4500 C   0  0  0  0  0  2  0  0  0  0  0  0
  160.9310  208.3620  153.7970 C   0  0  0  0  0  0  0  0  0  0  0  0
  160.6270  201.6570  150.3910 N   0  0  0  0  0  0  0  0  0  0  0  0
  160.4500  206.6150  155.5760 C   0  0  0  0  0  2  0  0  0  0  0  0
  161.7680  207.3670  147.9040 C   0  0  0  0  0  3  0  0  0  0  0  0
  161.5010  206.9980  149.2320 C   0  0  0  0  0  0  0  0  0  0  0  0
  161.3040  204.6480  148.6020 C   0  0  0  0  0  3  0  0  0  0  0  0
  160.7260  206.0830  153.2130 O   0  0  0  0  0  0  0  0  0  0  0  0
  160.4800  203.4590  152.6880 C   0  0  0  0  0  1  0  0  0  0  0  0
  161.2700  202.0400  146.7830 C   0  0  0  0  0  1  0  0  0  0  0  0
  160.9990  205.3080  150.9620 C   0  0  0  0  0  0  0  0  0  0  0  0
  161.0730  203.3370  148.9830 C   0  0  0  0  0  0  0  0  0  0  0  0
  162.3320  208.7500  156.6700 C   0  0  0  0  0  2  0  0  0  0  0  0
  163.5970  210.9110  156.4690 C   0  0  0  0  0  0  0  0  0  0  0  0
  162.9030  209.9490  157.2600 N   0  0  0  0  0  2  0  0  0  0  0  0
  164.0770  211.9380  157.0150 O   0  0  0  0  0  1  0  0  0  0  0  0
  163.7480  210.7250  155.1000 O   0  0  0  0  0  0  0  0  0  0  0  0
  1 16  1  0  0  0  0
  1 28  1  6  0  0  0
  2 23  1  0  0  0  0
  3 11  1  0  0  0  0
  4 20  1  0  0  0  0
  4  3  2  0  0  0  0
  5 24  1  0  0  0  0
  6 18  1  0  0  0  0
  6  5  2  0  0  0  0
  7 19  1  0  0  0  0
  8 17  1  0  0  0  0
  9 27  2  0  0  0  0
  9 15  1  0  0  0  0
 10  1  1  0  0  0  0
 11 13  2  0  0  0  0
 12  2  1  0  0  0  0
 12  8  2  0  0  0  0
 13 12  1  0  0  0  0
 14 26  1  0  0  0  0
 15 18  2  0  0  0  0
 17  7  2  0  0  0  0
 17 10  1  0  0  0  0
 19 16  1  0  0  0  0
 20 21  2  0  0  0  0
 21 14  1  0  0  0  0
 21 13  1  0  0  0  0
 22 27  1  0  0  0  0
 22 14  2  0  0  0  0
 23  7  1  0  0  0  0
 25  9  1  0  0  0  0
 26  5  1  0  0  0  0
 26  2  2  0  0  0  0
 27  6  1  0  0  0  0
 28 30  1  0  0  0  0
 29 31  1  0  0  0  0
 29 30  1  0  0  0  0
 32 29  2  0  0  0  0
M  END
>  <MODEL>
2

>  <REMARK>
 VINA RESULT:      -9.1      3.122      5.789
  Name = 
  2 active torsions:
  status: ('A' for Active; 'I' for Inactive)
    1  A    between atoms: C_2  and  C_24
    2  A    between atoms: N_10  and  C_24
                            x       y       z     vdW  Elec       q    Type
                         _______ _______ _______ _____ _____    ______ ____

>  <TORSDO>
F 2

$$$$
=
 OpenBabel11052411563D

 32 37  0  0  1  0  0  0  0  0999 V2000
  161.7900  211.0380  156.8330 C   0  0  1  0  0  3  0  0  0  0  0  0
  161.4150  207.9790  152.8010 C   0  0  0  0  0  0  0  0  0  0  0  0
  161.9700  210.9760  149.0600 C   0  0  0  0  0  3  0  0  0  0  0  0
  161.9080  209.9200  148.1540 C   0  0  0  0  0  3  0  0  0  0  0  0
  161.1690  205.5200  152.4230 C   0  0  0  0  0  0  0  0  0  0  0  0
  161.1110  204.4810  151.4910 C   0  0  0  0  0  0  0  0  0  0  0  0
  161.3760  208.8620  154.9660 C   0  0  0  0  0  0  0  0  0  0  0  0
  161.6520  210.3350  153.1230 N   0  0  0  0  0  0  0  0  0  0  0  0
  161.1210  203.4890  149.5340 C   0  0  0  0  0  0  0  0  0  0  0  0
  161.5570  211.3710  155.3590 C   0  0  0  0  0  2  0  0  0  0  0  0
  161.8630  210.7360  150.3940 N   0  0  0  0  0  0  0  0  0  0  0  0
  161.5900  209.2780  152.2710 C   0  0  0  0  0  0  0  0  0  0  0  0
  161.6950  209.4780  150.8920 C   0  0  0  0  0  0  0  0  0  0  0  0
  161.4540  207.0730  150.5170 C   0  0  0  0  0  0  0  0  0  0  0  0
  160.9580  202.5510  150.5440 C   0  0  0  0  0  3  0  0  0  0  0  0
  160.9390  209.8340  157.2490 C   0  0  0  0  0  2  0  0  0  0  0  0
  161.5600  210.1620  154.4650 C   0  0  0  0  0  0  0  0  0  0  0  0
  160.9520  203.1670  151.7520 N   0  0  0  0  0  0  0  0  0  0  0  0
  161.3040  208.5880  156.4410 C   0  0  0  0  0  2  0  0  0  0  0  0
  161.7370  208.6220  148.6320 C   0  0  0  0  0  3  0  0  0  0  0  0
  161.6270  208.3770  150.0100 C   0  0  0  0  0  0  0  0  0  0  0  0
  161.3880  205.9790  149.6270 C   0  0  0  0  0  3  0  0  0  0  0  0
  161.3180  207.8380  154.1220 O   0  0  0  0  0  0  0  0  0  0  0  0
  161.0450  205.1760  153.8740 C   0  0  0  0  0  1  0  0  0  0  0  0
  161.1790  203.2120  148.0740 C   0  0  0  0  0  1  0  0  0  0  0  0
  161.3440  206.8560  151.9350 C   0  0  0  0  0  0  0  0  0  0  0  0
  161.2170  204.7090  150.1530 C   0  0  0  0  0  0  0  0  0  0  0  0
  163.2720  210.8190  157.1110 C   0  0  0  0  0  2  0  0  0  0  0  0
  165.3200  211.7810  156.0220 C   0  0  0  0  0  0  0  0  0  0  0  0
  164.0530  211.1360  155.9270 N   0  0  0  0  0  2  0  0  0  0  0  0
  165.9690  212.0380  154.9750 O   0  0  0  0  0  0  0  0  0  0  0  0
  165.8460  212.1290  157.2610 O   0  0  0  0  0  1  0  0  0  0  0  0
  1 28  1  6  0  0  0
  1 16  1  0  0  0  0
  2 23  1  0  0  0  0
  3 11  1  0  0  0  0
  4 20  1  0  0  0  0
  4  3  2  0  0  0  0
  5 24  1  0  0  0  0
  6 18  1  0  0  0  0
  6  5  2  0  0  0  0
  7 19  1  0  0  0  0
  8 17  1  0  0  0  0
  9 27  2  0  0  0  0
  9 15  1  0  0  0  0
 10  1  1  0  0  0  0
 11 13  2  0  0  0  0
 12  2  1  0  0  0  0
 12  8  2  0  0  0  0
 13 12  1  0  0  0  0
 14 26  1  0  0  0  0
 15 18  2  0  0  0  0
 17  7  2  0  0  0  0
 17 10  1  0  0  0  0
 19 16  1  0  0  0  0
 20 21  2  0  0  0  0
 21 14  1  0  0  0  0
 21 13  1  0  0  0  0
 22 27  1  0  0  0  0
 22 14  2  0  0  0  0
 23  7  1  0  0  0  0
 25  9  1  0  0  0  0
 26  5  1  0  0  0  0
 26  2  2  0  0  0  0
 27  6  1  0  0  0  0
 29 32  1  0  0  0  0
 30 29  1  0  0  0  0
 30 28  1  0  0  0  0
 31 29  2  0  0  0  0
M  END
>  <MODEL>
3

>  <REMARK>
 VINA RESULT:      -8.4      3.360      5.974
  Name = 
  2 active torsions:
  status: ('A' for Active; 'I' for Inactive)
    1  A    between atoms: C_2  and  C_24
    2  A    between atoms: N_10  and  C_24
                            x       y       z     vdW  Elec       q    Type
                         _______ _______ _______ _____ _____    ______ ____

>  <TORSDO>
F 2

$$$$
=
 OpenBabel11052411563D

 32 37  0  0  1  0  0  0  0  0999 V2000
  161.9810  204.3260  145.7910 C   0  0  1  0  0  3  0  0  0  0  0  0
  161.5470  207.0750  150.0350 C   0  0  0  0  0  0  0  0  0  0  0  0
  161.9560  211.6230  148.4760 C   0  0  0  0  0  3  0  0  0  0  0  0
  161.7310  212.1240  149.7560 C   0  0  0  0  0  3  0  0  0  0  0  0
  161.0840  206.6040  152.4460 C   0  0  0  0  0  0  0  0  0  0  0  0
  160.8610  207.1340  153.7190 C   0  0  0  0  0  0  0  0  0  0  0  0
  161.7920  205.3240  148.5030 C   0  0  0  0  0  0  0  0  0  0  0  0
  161.9900  207.5640  147.7380 N   0  0  0  0  0  0  0  0  0  0  0  0
  160.6080  208.6510  155.2840 C   0  0  0  0  0  0  0  0  0  0  0  0
  162.3310  205.7900  146.0590 C   0  0  0  0  0  2  0  0  0  0  0  0
  161.9620  210.2800  148.2610 N   0  0  0  0  0  0  0  0  0  0  0  0
  161.7640  208.0140  149.0010 C   0  0  0  0  0  0  0  0  0  0  0  0
  161.7500  209.3860  149.2680 C   0  0  0  0  0  0  0  0  0  0  0  0
  161.2970  208.9290  151.6280 C   0  0  0  0  0  0  0  0  0  0  0  0
  160.4730  207.3790  155.8250 C   0  0  0  0  0  3  0  0  0  0  0  0
  162.4410  203.4450  146.9570 C   0  0  0  0  0  2  0  0  0  0  0  0
  161.9990  206.2380  147.4560 C   0  0  0  0  0  0  0  0  0  0  0  0
  160.6300  206.4450  154.8540 N   0  0  0  0  0  0  0  0  0  0  0  0
  161.7510  203.8430  148.2620 C   0  0  0  0  0  2  0  0  0  0  0  0
  161.5110  211.2340  150.8070 C   0  0  0  0  0  3  0  0  0  0  0  0
  161.5170  209.8480  150.5810 C   0  0  0  0  0  0  0  0  0  0  0  0
  161.0650  209.4020  152.9370 C   0  0  0  0  0  3  0  0  0  0  0  0
  161.5710  205.7780  149.7330 O   0  0  0  0  0  0  0  0  0  0  0  0
  161.0740  205.1160  152.2890 C   0  0  0  0  0  1  0  0  0  0  0  0
  160.5040  209.9390  156.0210 C   0  0  0  0  0  1  0  0  0  0  0  0
  161.3110  207.5150  151.3640 C   0  0  0  0  0  0  0  0  0  0  0  0
  160.8530  208.4770  153.9460 C   0  0  0  0  0  0  0  0  0  0  0  0
  160.4930  204.1690  145.5030 C   0  0  0  0  0  2  0  0  0  0  0  0
  160.0710  201.7060  145.2560 C   0  0  0  0  0  0  0  0  0  0  0  0
  160.2670  202.9940  144.6790 N   0  0  0  0  0  2  0  0  0  0  0  0
  159.8760  200.7110  144.5110 O   0  0  0  0  0  0  0  0  0  0  0  0
  160.0940  201.5380  146.6360 O   0  0  0  0  0  1  0  0  0  0  0  0
  1 28  1  1  0  0  0
  1 10  1  0  0  0  0
  1 16  1  0  0  0  0
  2 26  2  0  0  0  0
  3  4  1  0  0  0  0
  4 20  2  0  0  0  0
  5  6  2  0  0  0  0
  6 27  1  0  0  0  0
  6 18  1  0  0  0  0
  7 23  1  0  0  0  0
  8 12  2  0  0  0  0
  9 15  1  0  0  0  0
  9 25  1  0  0  0  0
 10 17  1  0  0  0  0
 11  3  2  0  0  0  0
 11 13  1  0  0  0  0
 12 13  1  0  0  0  0
 12  2  1  0  0  0  0
 13 21  2  0  0  0  0
 14 22  2  0  0  0  0
 16 19  1  0  0  0  0
 17  8  1  0  0  0  0
 17  7  2  0  0  0  0
 18 15  2  0  0  0  0
 19  7  1  0  0  0  0
 21 20  1  0  0  0  0
 21 14  1  0  0  0  0
 22 27  1  0  0  0  0
 23  2  1  0  0  0  0
 24  5  1  0  0  0  0
 26 14  1  0  0  0  0
 26  5  1  0  0  0  0
 27  9  2  0  0  0  0
 29 32  1  0  0  0  0
 30 29  1  0  0  0  0
 30 28  1  0  0  0  0
 31 29  2  0  0  0  0
M  END
>  <MODEL>
4

>  <REMARK>
 VINA RESULT:      -8.1      2.905      7.541
  Name = 
  2 active torsions:
  status: ('A' for Active; 'I' for Inactive)
    1  A    between atoms: C_2  and  C_24
    2  A    between atoms: N_10  and  C_24
                            x       y       z     vdW  Elec       q    Type
                         _______ _______ _______ _____ _____    ______ ____

>  <TORSDO>
F 2

$$$$
=
 OpenBabel11052411563D

 32 37  0  0  1  0  0  0  0  0999 V2000
  160.6640  208.7860  156.1920 C   0  0  1  0  0  3  0  0  0  0  0  0
  161.1640  207.5660  151.2920 C   0  0  0  0  0  0  0  0  0  0  0  0
  161.9940  211.8110  149.1550 C   0  0  0  0  0  3  0  0  0  0  0  0
  162.1620  211.1990  147.9150 C   0  0  0  0  0  3  0  0  0  0  0  0
  161.1980  205.4520  149.9570 C   0  0  0  0  0  0  0  0  0  0  0  0
  161.3720  204.8660  148.7010 C   0  0  0  0  0  0  0  0  0  0  0  0
  160.7270  207.5180  153.5890 C   0  0  0  0  0  0  0  0  0  0  0  0
  161.1390  209.6060  152.5350 N   0  0  0  0  0  0  0  0  0  0  0  0
  161.7600  204.7300  146.5460 C   0  0  0  0  0  0  0  0  0  0  0  0
  160.6220  209.6700  154.9460 C   0  0  0  0  0  2  0  0  0  0  0  0
  161.7130  211.0600  150.2530 N   0  0  0  0  0  0  0  0  0  0  0  0
  161.2980  208.9720  151.3430 C   0  0  0  0  0  0  0  0  0  0  0  0
  161.5870  209.7040  150.1890 C   0  0  0  0  0  0  0  0  0  0  0  0
  161.6210  207.6390  148.8790 C   0  0  0  0  0  0  0  0  0  0  0  0
  161.5340  203.4650  147.0700 C   0  0  0  0  0  3  0  0  0  0  0  0
  159.8730  207.4950  155.9580 C   0  0  0  0  0  2  0  0  0  0  0  0
  160.8660  208.9140  153.6690 C   0  0  0  0  0  0  0  0  0  0  0  0
  161.2950  203.5530  148.4020 N   0  0  0  0  0  0  0  0  0  0  0  0
  160.4630  206.6800  154.8070 C   0  0  0  0  0  2  0  0  0  0  0  0
  162.0390  209.8140  147.8170 C   0  0  0  0  0  3  0  0  0  0  0  0
  161.7490  209.0410  148.9530 C   0  0  0  0  0  0  0  0  0  0  0  0
  161.7860  206.9860  147.6380 C   0  0  0  0  0  3  0  0  0  0  0  0
  160.8860  206.9110  152.4180 O   0  0  0  0  0  0  0  0  0  0  0  0
  160.8920  204.5590  151.1180 C   0  0  0  0  0  1  0  0  0  0  0  0
  162.0570  205.0560  145.1250 C   0  0  0  0  0  1  0  0  0  0  0  0
  161.3230  206.8760  150.0610 C   0  0  0  0  0  0  0  0  0  0  0  0
  161.6530  205.6080  147.5940 C   0  0  0  0  0  0  0  0  0  0  0  0
  162.1020  208.5100  156.6130 C   0  0  0  0  0  2  0  0  0  0  0  0
  163.3340  210.6970  156.5150 C   0  0  0  0  0  0  0  0  0  0  0  0
  162.6640  209.6830  157.2610 N   0  0  0  0  0  2  0  0  0  0  0  0
  163.8080  211.7000  157.1090 O   0  0  0  0  0  1  0  0  0  0  0  0
  163.4700  210.5870  155.1360 O   0  0  0  0  0  0  0  0  0  0  0  0
  1 28  1  6  0  0  0
  2 12  1  0  0  0  0
  2 23  1  0  0  0  0
  3 11  1  0  0  0  0
  4  3  2  0  0  0  0
  5 26  1  0  0  0  0
  5 24  1  0  0  0  0
  6  5  2  0  0  0  0
  7 17  2  0  0  0  0
  7 19  1  0  0  0  0
  8 17  1  0  0  0  0
  9 15  1  0  0  0  0
  9 27  2  0  0  0  0
 10  1  1  0  0  0  0
 12  8  2  0  0  0  0
 13 11  2  0  0  0  0
 13 12  1  0  0  0  0
 14 21  1  0  0  0  0
 14 26  1  0  0  0  0
 15 18  2  0  0  0  0
 16  1  1  0  0  0  0
 17 10  1  0  0  0  0
 18  6  1  0  0  0  0
 19 16  1  0  0  0  0
 20  4  1  0  0  0  0
 20 21  2  0  0  0  0
 21 13  1  0  0  0  0
 22 14  2  0  0  0  0
 23  7  1  0  0  0  0
 25  9  1  0  0  0  0
 26  2  2  0  0  0  0
 27 22  1  0  0  0  0
 27  6  1  0  0  0  0
 28 30  1  0  0  0  0
 29 31  1  0  0  0  0
 29 30  1  0  0  0  0
 32 29  2  0  0  0  0
M  END
>  <MODEL>
5

>  <REMARK>
 VINA RESULT:      -8.0      2.682      5.808
  Name = 
  2 active torsions:
  status: ('A' for Active; 'I' for Inactive)
    1  A    between atoms: C_2  and  C_24
    2  A    between atoms: N_10  and  C_24
                            x       y       z     vdW  Elec       q    Type
                         _______ _______ _______ _____ _____    ______ ____

>  <TORSDO>
F 2

$$$$
=
 OpenBabel11052411563D

 32 37  0  0  1  0  0  0  0  0999 V2000
  161.4470  202.4830  147.9560 C   0  0  1  0  0  3  0  0  0  0  0  0
  161.3090  206.3510  151.2390 C   0  0  0  0  0  0  0  0  0  0  0  0
  162.1450  210.2100  148.4670 C   0  0  0  0  0  3  0  0  0  0  0  0
  161.9780  211.0720  149.5480 C   0  0  0  0  0  3  0  0  0  0  0  0
  160.8180  206.6280  153.6750 C   0  0  0  0  0  0  0  0  0  0  0  0
  160.6550  207.5170  154.7400 C   0  0  0  0  0  0  0  0  0  0  0  0
  161.3730  204.2220  150.2710 C   0  0  0  0  0  0  0  0  0  0  0  0
  161.7820  206.1240  148.9080 N   0  0  0  0  0  0  0  0  0  0  0  0
  160.5600  209.4310  155.8070 C   0  0  0  0  0  0  0  0  0  0  0  0
  161.9390  203.9230  147.8070 C   0  0  0  0  0  2  0  0  0  0  0  0
  162.0190  208.8670  148.6400 N   0  0  0  0  0  0  0  0  0  0  0  0
  161.6080  206.9330  149.9870 C   0  0  0  0  0  0  0  0  0  0  0  0
  161.7290  208.3190  149.8540 C   0  0  0  0  0  0  0  0  0  0  0  0
  161.2500  208.5950  152.2370 C   0  0  0  0  0  0  0  0  0  0  0  0
  160.3060  208.3840  156.6830 C   0  0  0  0  0  3  0  0  0  0  0  0
  161.8270  201.9300  149.3330 C   0  0  0  0  0  2  0  0  0  0  0  0
  161.6610  204.7780  149.0130 C   0  0  0  0  0  0  0  0  0  0  0  0
  160.3660  207.2030  156.0200 N   0  0  0  0  0  0  0  0  0  0  0  0
  161.1870  202.7440  150.4570 C   0  0  0  0  0  2  0  0  0  0  0  0
  161.6800  210.5420  150.8020 C   0  0  0  0  0  3  0  0  0  0  0  0
  161.5510  209.1550  150.9780 C   0  0  0  0  0  0  0  0  0  0  0  0
  161.0730  209.4400  153.3540 C   0  0  0  0  0  3  0  0  0  0  0  0
  161.2050  205.0250  151.3170 O   0  0  0  0  0  0  0  0  0  0  0  0
  160.6630  205.1650  153.9450 C   0  0  0  0  0  1  0  0  0  0  0  0
  160.5860  210.8790  156.1480 C   0  0  0  0  0  1  0  0  0  0  0  0
  161.1250  207.1700  152.3840 C   0  0  0  0  0  0  0  0  0  0  0  0
  160.7790  208.8630  154.5790 C   0  0  0  0  0  0  0  0  0  0  0  0
  159.9490  202.3920  147.6930 C   0  0  0  0  0  2  0  0  0  0  0  0
  160.0080  201.6620  145.2910 C   0  0  0  0  0  0  0  0  0  0  0  0
  159.6840  201.4100  146.6560 N   0  0  0  0  0  2  0  0  0  0  0  0
  159.7650  200.7870  144.4200 O   0  0  0  0  0  0  0  0  0  0  0  0
  160.5890  202.8670  144.9130 O   0  0  0  0  0  1  0  0  0  0  0  0
  1 28  1  1  0  0  0
  1 16  1  0  0  0  0
  2 23  1  0  0  0  0
  2 26  2  0  0  0  0
  3 11  2  0  0  0  0
  3  4  1  0  0  0  0
  4 20  2  0  0  0  0
  5 24  1  0  0  0  0
  5  6  2  0  0  0  0
  6 18  1  0  0  0  0
  7 19  1  0  0  0  0
  7 23  1  0  0  0  0
  8 17  1  0  0  0  0
  8 12  2  0  0  0  0
  9 25  1  0  0  0  0
  9 15  1  0  0  0  0
 10  1  1  0  0  0  0
 10 17  1  0  0  0  0
 11 13  1  0  0  0  0
 12  2  1  0  0  0  0
 13 12  1  0  0  0  0
 13 21  2  0  0  0  0
 14 26  1  0  0  0  0
 14 22  2  0  0  0  0
 16 19  1  0  0  0  0
 17  7  2  0  0  0  0
 18 15  2  0  0  0  0
 20 21  1  0  0  0  0
 21 14  1  0  0  0  0
 22 27  1  0  0  0  0
 26  5  1  0  0  0  0
 27  6  1  0  0  0  0
 27  9  2  0  0  0  0
 29 30  1  0  0  0  0
 30 28  1  0  0  0  0
 31 29  2  0  0  0  0
 32 29  1  0  0  0  0
M  END
>  <MODEL>
6

>  <REMARK>
 VINA RESULT:      -7.5      3.153      8.091
  Name = 
  2 active torsions:
  status: ('A' for Active; 'I' for Inactive)
    1  A    between atoms: C_2  and  C_24
    2  A    between atoms: N_10  and  C_24
                            x       y       z     vdW  Elec       q    Type
                         _______ _______ _______ _____ _____    ______ ____

>  <TORSDO>
F 2

$$$$
=
 OpenBabel11052411563D

 32 37  0  0  1  0  0  0  0  0999 V2000
  161.1050  210.0700  154.2600 C   0  0  1  0  0  3  0  0  0  0  0  0
  161.2550  206.6930  150.4740 C   0  0  0  0  0  0  0  0  0  0  0  0
  160.6930  202.4600  152.7200 C   0  0  0  0  0  3  0  0  0  0  0  0
  160.6910  201.7720  151.5090 C   0  0  0  0  0  3  0  0  0  0  0  0
  161.4040  206.7890  147.9810 C   0  0  0  0  0  0  0  0  0  0  0  0
  161.3980  206.0740  146.7810 C   0  0  0  0  0  0  0  0  0  0  0  0
  161.3880  208.6470  151.7530 C   0  0  0  0  0  0  0  0  0  0  0  0
  161.1080  206.5620  152.8560 N   0  0  0  0  0  0  0  0  0  0  0  0
  161.2960  204.3450  145.4340 C   0  0  0  0  0  0  0  0  0  0  0  0
  161.3050  208.5540  154.2960 C   0  0  0  0  0  2  0  0  0  0  0  0
  160.8310  203.8120  152.7360 N   0  0  0  0  0  0  0  0  0  0  0  0
  161.1080  205.9280  151.6540 C   0  0  0  0  0  0  0  0  0  0  0  0
  160.9700  204.5390  151.5900 C   0  0  0  0  0  0  0  0  0  0  0  0
  161.1160  204.6280  149.1510 C   0  0  0  0  0  0  0  0  0  0  0  0
  161.4570  205.5120  144.7010 C   0  0  0  0  0  3  0  0  0  0  0  0
  161.9250  210.6900  153.1250 C   0  0  0  0  0  2  0  0  0  0  0  0
  161.2340  207.9090  152.9390 C   0  0  0  0  0  0  0  0  0  0  0  0
  161.5190  206.5780  145.5360 N   0  0  0  0  0  0  0  0  0  0  0  0
  161.4940  210.1450  151.7630 C   0  0  0  0  0  2  0  0  0  0  0  0
  160.8310  202.4870  150.3200 C   0  0  0  0  0  3  0  0  0  0  0  0
  160.9740  203.8840  150.3400 C   0  0  0  0  0  0  0  0  0  0  0  0
  161.1180  203.9630  147.9050 C   0  0  0  0  0  3  0  0  0  0  0  0
  161.3860  208.0140  150.5850 O   0  0  0  0  0  0  0  0  0  0  0  0
  161.5590  208.2760  147.9160 C   0  0  0  0  0  1  0  0  0  0  0  0
  161.1850  202.9660  144.8860 C   0  0  0  0  0  1  0  0  0  0  0  0
  161.2610  206.0580  149.2050 C   0  0  0  0  0  0  0  0  0  0  0  0
  161.2610  204.7190  146.7530 C   0  0  0  0  0  0  0  0  0  0  0  0
  159.6250  210.4180  154.1570 C   0  0  0  0  0  2  0  0  0  0  0  0
  158.9120  212.7040  153.4010 C   0  0  0  0  0  0  0  0  0  0  0  0
  159.4290  211.8360  154.4060 N   0  0  0  0  0  2  0  0  0  0  0  0
  158.7530  213.9270  153.6530 O   0  0  0  0  0  1  0  0  0  0  0  0
  158.5810  212.2130  152.1430 O   0  0  0  0  0  0  0  0  0  0  0  0
  1 28  1  6  0  0  0
  1 10  1  0  0  0  0
  2 23  1  0  0  0  0
  2 12  1  0  0  0  0
  3 11  1  0  0  0  0
  4  3  2  0  0  0  0
  5 26  1  0  0  0  0
  6  5  2  0  0  0  0
  7 19  1  0  0  0  0
  7 17  2  0  0  0  0
  8 17  1  0  0  0  0
  9 27  2  0  0  0  0
 12  8  2  0  0  0  0
 13 12  1  0  0  0  0
 13 11  2  0  0  0  0
 14 26  1  0  0  0  0
 14 21  1  0  0  0  0
 15  9  1  0  0  0  0
 15 18  2  0  0  0  0
 16  1  1  0  0  0  0
 17 10  1  0  0  0  0
 18  6  1  0  0  0  0
 19 16  1  0  0  0  0
 20 21  2  0  0  0  0
 20  4  1  0  0  0  0
 21 13  1  0  0  0  0
 22 14  2  0  0  0  0
 23  7  1  0  0  0  0
 24  5  1  0  0  0  0
 25  9  1  0  0  0  0
 26  2  2  0  0  0  0
 27  6  1  0  0  0  0
 27 22  1  0  0  0  0
 28 30  1  0  0  0  0
 29 31  1  0  0  0  0
 29 30  1  0  0  0  0
 32 29  2  0  0  0  0
M  END
>  <MODEL>
7

>  <REMARK>
 VINA RESULT:      -7.4      2.434      4.035
  Name = 
  2 active torsions:
  status: ('A' for Active; 'I' for Inactive)
    1  A    between atoms: C_2  and  C_24
    2  A    between atoms: N_10  and  C_24
                            x       y       z     vdW  Elec       q    Type
                         _______ _______ _______ _____ _____    ______ ____

>  <TORSDO>
F 2

$$$$
=
 OpenBabel11052411563D

 32 37  0  0  1  0  0  0  0  0999 V2000
  161.5780  213.9940  147.0110 C   0  0  1  0  0  3  0  0  0  0  0  0
  160.8290  211.3410  151.2720 C   0  0  0  0  0  0  0  0  0  0  0  0
  158.1630  214.3060  153.9890 C   0  0  0  0  0  3  0  0  0  0  0  0
  158.0480  213.3470  154.9930 C   0  0  0  0  0  3  0  0  0  0  0  0
  161.3810  209.0410  152.0820 C   0  0  0  0  0  0  0  0  0  0  0  0
  161.2490  208.0990  153.1050 C   0  0  0  0  0  0  0  0  0  0  0  0
  161.5960  212.0900  149.1930 C   0  0  0  0  0  0  0  0  0  0  0  0
  160.2810  213.5460  150.5320 N   0  0  0  0  0  0  0  0  0  0  0  0
  160.6170  207.2410  155.0220 C   0  0  0  0  0  0  0  0  0  0  0  0
  161.0970  214.4530  148.3890 C   0  0  0  0  0  2  0  0  0  0  0  0
  158.8670  214.0290  152.8590 N   0  0  0  0  0  0  0  0  0  0  0  0
  160.1900  212.5840  151.4870 C   0  0  0  0  0  0  0  0  0  0  0  0
  159.4770  212.8250  152.6640 C   0  0  0  0  0  0  0  0  0  0  0  0
  160.0160  210.5760  153.4610 C   0  0  0  0  0  0  0  0  0  0  0  0
  161.3740  206.3190  154.3130 C   0  0  0  0  0  3  0  0  0  0  0  0
  162.7480  213.0150  147.1530 C   0  0  0  0  0  2  0  0  0  0  0  0
  160.9610  213.3300  149.3790 C   0  0  0  0  0  0  0  0  0  0  0  0
  161.7630  206.8530  153.1290 N   0  0  0  0  0  0  0  0  0  0  0  0
  162.3360  211.7630  147.9270 C   0  0  0  0  0  2  0  0  0  0  0  0
  158.6610  212.1070  154.8230 C   0  0  0  0  0  3  0  0  0  0  0  0
  159.3870  211.8240  153.6550 C   0  0  0  0  0  0  0  0  0  0  0  0
  159.9190  209.5820  154.4580 C   0  0  0  0  0  3  0  0  0  0  0  0
  161.4980  211.1580  150.1360 O   0  0  0  0  0  0  0  0  0  0  0  0
  162.1700  208.6610  150.8690 C   0  0  0  0  0  1  0  0  0  0  0  0
  160.0060  207.0370  156.3640 C   0  0  0  0  0  1  0  0  0  0  0  0
  160.7530  210.3180  152.2530 C   0  0  0  0  0  0  0  0  0  0  0  0
  160.5470  208.3660  154.2410 C   0  0  0  0  0  0  0  0  0  0  0  0
  160.4280  213.4040  146.2050 C   0  0  0  0  0  2  0  0  0  0  0  0
  160.0400  212.4610  143.9100 C   0  0  0  0  0  0  0  0  0  0  0  0
  160.9260  212.8590  144.9540 N   0  0  0  0  0  2  0  0  0  0  0  0
  160.5070  211.9940  142.8390 O   0  0  0  0  0  0  0  0  0  0  0  0
  158.6640  212.5830  144.0650 O   0  0  0  0  0  1  0  0  0  0  0  0
  1 28  1  1  0  0  0
  1 16  1  0  0  0  0
  1 10  1  0  0  0  0
  2 12  1  0  0  0  0
  2 26  2  0  0  0  0
  3  4  1  0  0  0  0
  5 26  1  0  0  0  0
  5  6  2  0  0  0  0
  6 18  1  0  0  0  0
  6 27  1  0  0  0  0
  7 17  2  0  0  0  0
  7 23  1  0  0  0  0
  8 12  2  0  0  0  0
  9 25  1  0  0  0  0
 10 17  1  0  0  0  0
 11  3  2  0  0  0  0
 12 13  1  0  0  0  0
 13 11  1  0  0  0  0
 13 21  2  0  0  0  0
 14 21  1  0  0  0  0
 14 22  2  0  0  0  0
 15  9  1  0  0  0  0
 16 19  1  0  0  0  0
 17  8  1  0  0  0  0
 18 15  2  0  0  0  0
 19  7  1  0  0  0  0
 20  4  2  0  0  0  0
 21 20  1  0  0  0  0
 23  2  1  0  0  0  0
 24  5  1  0  0  0  0
 26 14  1  0  0  0  0
 27 22  1  0  0  0  0
 27  9  2  0  0  0  0
 29 32  1  0  0  0  0
 29 30  1  0  0  0  0
 30 28  1  0  0  0  0
 31 29  2  0  0  0  0
M  END
>  <MODEL>
8

>  <REMARK>
 VINA RESULT:      -6.8      3.459      5.407
  Name = 
  2 active torsions:
  status: ('A' for Active; 'I' for Inactive)
    1  A    between atoms: C_2  and  C_24
    2  A    between atoms: N_10  and  C_24
                            x       y       z     vdW  Elec       q    Type
                         _______ _______ _______ _____ _____    ______ ____

>  <TORSDO>
F 2

$$$$
=
 OpenBabel11052411563D

 32 37  0  0  1  0  0  0  0  0999 V2000
  161.5730  202.9830  150.2750 C   0  0  1  0  0  3  0  0  0  0  0  0
  161.0710  207.6080  152.3040 C   0  0  0  0  0  0  0  0  0  0  0  0
  162.1470  210.5640  148.6460 C   0  0  0  0  0  3  0  0  0  0  0  0
  161.8640  211.6880  149.4200 C   0  0  0  0  0  3  0  0  0  0  0  0
  160.3360  208.5380  154.5050 C   0  0  0  0  0  0  0  0  0  0  0  0
  160.0600  209.6820  155.2570 C   0  0  0  0  0  0  0  0  0  0  0  0
  161.2520  205.2970  151.9870 C   0  0  0  0  0  0  0  0  0  0  0  0
  161.7770  206.7550  150.1870 N   0  0  0  0  0  0  0  0  0  0  0  0
  159.8410  211.8140  155.7260 C   0  0  0  0  0  0  0  0  0  0  0  0
  162.0640  204.3410  149.7710 C   0  0  0  0  0  2  0  0  0  0  0  0
  162.0160  209.3200  149.1790 N   0  0  0  0  0  0  0  0  0  0  0  0
  161.4890  207.8260  150.9720 C   0  0  0  0  0  0  0  0  0  0  0  0
  161.6100  209.1230  150.4660 C   0  0  0  0  0  0  0  0  0  0  0  0
  160.8930  210.0380  152.6180 C   0  0  0  0  0  0  0  0  0  0  0  0
  159.5100  211.0460  156.8340 C   0  0  0  0  0  3  0  0  0  0  0  0
  161.8180  202.8520  151.7810 C   0  0  0  0  0  2  0  0  0  0  0  0
  161.6590  205.4880  150.6550 C   0  0  0  0  0  0  0  0  0  0  0  0
  159.6470  209.7290  156.5400 N   0  0  0  0  0  0  0  0  0  0  0  0
  161.0610  203.9240  152.5650 C   0  0  0  0  0  2  0  0  0  0  0  0
  161.4470  211.5190  150.7390 C   0  0  0  0  0  3  0  0  0  0  0  0
  161.3130  210.2330  151.2860 C   0  0  0  0  0  0  0  0  0  0  0  0
  160.5970  211.1540  153.4290 C   0  0  0  0  0  3  0  0  0  0  0  0
  160.9730  206.3540  152.7430 O   0  0  0  0  0  0  0  0  0  0  0  0
  160.1680  207.2040  155.1620 C   0  0  0  0  0  1  0  0  0  0  0  0
  159.8200  213.3000  155.6450 C   0  0  0  0  0  1  0  0  0  0  0  0
  160.7660  208.7070  153.1490 C   0  0  0  0  0  0  0  0  0  0  0  0
  160.1870  210.9330  154.7340 C   0  0  0  0  0  0  0  0  0  0  0  0
  160.1100  202.7670  149.9090 C   0  0  0  0  0  2  0  0  0  0  0  0
  160.6370  201.5280  147.7890 C   0  0  0  0  0  0  0  0  0  0  0  0
  159.9760  202.5900  148.4730 N   0  0  0  0  0  2  0  0  0  0  0  0
  160.4970  201.4050  146.5440 O   0  0  0  0  0  0  0  0  0  0  0  0
  161.4350  200.6270  148.4840 O   0  0  0  0  0  1  0  0  0  0  0  0
  1 28  1  1  0  0  0
  1 16  1  0  0  0  0
  2 23  1  0  0  0  0
  2 26  2  0  0  0  0
  3 11  2  0  0  0  0
  3  4  1  0  0  0  0
  4 20  2  0  0  0  0
  5 24  1  0  0  0  0
  5  6  2  0  0  0  0
  6 18  1  0  0  0  0
  7 19  1  0  0  0  0
  7 23  1  0  0  0  0
  8 17  1  0  0  0  0
  8 12  2  0  0  0  0
  9 15  1  0  0  0  0
 10  1  1  0  0  0  0
 10 17  1  0  0  0  0
 11 13  1  0  0  0  0
 12  2  1  0  0  0  0
 13 12  1  0  0  0  0
 13 21  2  0  0  0  0
 14 26  1  0  0  0  0
 14 22  2  0  0  0  0
 16 19  1  0  0  0  0
 17  7  2  0  0  0  0
 18 15  2  0  0  0  0
 20 21  1  0  0  0  0
 21 14  1  0  0  0  0
 22 27  1  0  0  0  0
 25  9  1  0  0  0  0
 26  5  1  0  0  0  0
 27  6  1  0  0  0  0
 27  9  2  0  0  0  0
 29 30  1  0  0  0  0
 29 32  1  0  0  0  0
 30 28  1  0  0  0  0
 31 29  2  0  0  0  0
M  END
>  <MODEL>
9

>  <REMARK>
 VINA RESULT:      -6.6      3.103      8.488
  Name = 
  2 active torsions:
  status: ('A' for Active; 'I' for Inactive)
    1  A    between atoms: C_2  and  C_24
    2  A    between atoms: N_10  and  C_24
                            x       y       z     vdW  Elec       q    Type
                         _______ _______ _______ _____ _____    ______ ____

>  <TORSDO>
F 2

$$$$
