=
 OpenBabel11052412043D

 40 45  0  0  1  0  0  0  0  0999 V2000
  159.7250  211.8500  155.0050 C   0  0  0  0  0  2  0  0  0  0  0  0
  156.6830  214.4530  154.2530 O   0  0  0  0  0  1  0  0  0  0  0  0
  158.7670  214.1220  152.1820 N   0  0  0  0  0  2  0  0  0  0  0  0
  157.4620  210.7860  154.3010 C   0  0  0  0  0  2  0  0  0  0  0  0
  159.6840  212.5930  153.7450 N   0  0  0  0  0  0  0  0  0  0  0  0
  156.8380  212.1280  154.5420 C   0  0  0  0  0  3  0  0  0  0  0  0
  158.6480  213.2660  153.3250 C   0  0  0  0  0  0  0  0  0  0  0  0
  158.8170  210.6130  155.0070 C   0  0  1  0  0  3  0  0  0  0  0  0
  157.3680  213.2580  154.0680 C   0  0  0  0  0  0  0  0  0  0  0  0
  160.7380  209.7680  153.6450 C   0  0  0  0  0  2  0  0  0  0  0  0
  160.9790  208.7650  152.5130 C   0  0  0  0  0  2  0  0  0  0  0  0
  161.5000  207.0020  154.2900 C   0  0  0  0  0  2  0  0  0  0  0  0
  160.4080  207.1020  155.3470 C   0  0  0  0  0  2  0  0  0  0  0  0
  159.5800  209.3680  154.5500 C   0  0  1  0  0  3  0  0  0  0  0  0
  160.9020  207.2880  152.9180 C   0  0  2  0  0  3  0  0  0  0  0  0
  160.1050  208.5490  155.7310 C   0  0  0  0  0  2  0  0  0  0  0  0
  162.4510  206.9000  151.1400 O   0  0  0  0  0  0  0  0  0  0  0  0
  161.0990  205.0790  151.7210 N   0  0  0  0  0  2  0  0  0  0  0  0
  161.5370  206.4340  151.8740 C   0  0  0  0  0  0  0  0  0  0  0  0
  161.4600  202.6900  151.1820 C   0  0  0  0  0  2  0  0  0  0  0  0
  160.5270  201.9830  148.9310 C   0  0  2  0  0  3  0  0  0  0  0  0
  161.2200  203.2490  148.4070 C   0  0  0  0  0  2  0  0  0  0  0  0
  161.6100  204.1480  150.7180 C   0  0  1  0  0  3  0  0  0  0  0  0
  160.3260  201.9690  150.4540 C   0  0  0  0  0  2  0  0  0  0  0  0
  161.0030  204.4360  149.3390 C   0  0  0  0  0  2  0  0  0  0  0  0
  161.2570  200.8610  148.5400 O   0  0  0  0  0  1  0  0  0  0  0  0
  160.9480  213.2510  149.2420 N   0  0  0  0  0  2  0  0  0  0  0  0
  159.8510  214.0850  151.2860 N   0  0  0  0  0  2  0  0  0  0  0  0
  159.7540  213.5900  149.9480 C   0  0  0  0  0  0  0  0  0  0  0  0
  158.6310  213.4820  149.3870 O   0  0  0  0  0  0  0  0  0  0  0  0
  160.8160  213.0980  143.4130 N   0  0  0  0  0  0  0  0  0  0  0  0
  160.9400  212.8470  147.8440 C   0  0  1  0  0  3  0  0  0  0  0  0
  159.9750  213.8470  145.7220 C   0  0  0  0  0  2  0  0  0  0  0  0
  160.8980  214.0820  146.9560 C   0  0  2  0  0  3  0  0  0  0  0  0
  162.0990  212.8340  143.0360 C   0  0  0  0  0  3  0  0  0  0  0  0
  162.9750  213.0310  144.1080 C   0  0  0  0  0  3  0  0  0  0  0  0
  160.9580  213.4460  144.7010 C   0  0  0  0  0  0  0  0  0  0  0  0
  162.3660  212.5610  147.3960 C   0  0  0  0  0  2  0  0  0  0  0  0
  162.3510  213.7930  146.5060 C   0  0  1  0  0  3  0  0  0  0  0  0
  162.1930  213.4140  145.1240 N   0  0  0  0  0  0  0  0  0  0  0  0
  1  8  1  0  0  0  0
  3  7  1  0  0  0  0
  4  6  1  0  0  0  0
  5  1  1  0  0  0  0
  7  5  2  0  0  0  0
  7  9  1  0  0  0  0
  8  4  1  6  0  0  0
  9  2  1  0  0  0  0
  9  6  2  0  0  0  0
 11 15  1  0  0  0  0
 11 10  1  0  0  0  0
 12 13  1  0  0  0  0
 13 16  1  0  0  0  0
 14 10  1  6  0  0  0
 14  8  1  0  0  0  0
 14 16  1  0  0  0  0
 15 19  1  6  0  0  0
 15 12  1  0  0  0  0
 17 19  2  0  0  0  0
 18 19  1  0  0  0  0
 21 26  1  1  0  0  0
 21 24  1  0  0  0  0
 22 21  1  0  0  0  0
 22 25  1  0  0  0  0
 23 20  1  0  0  0  0
 23 18  1  1  0  0  0
 24 20  1  0  0  0  0
 25 23  1  0  0  0  0
 27 29  1  0  0  0  0
 28  3  1  0  0  0  0
 29 28  1  0  0  0  0
 30 29  2  0  0  0  0
 31 37  2  0  0  0  0
 32 27  1  1  0  0  0
 34 33  1  6  0  0  0
 34 32  1  0  0  0  0
 35 31  1  0  0  0  0
 35 36  2  0  0  0  0
 36 40  1  0  0  0  0
 37 40  1  0  0  0  0
 37 33  1  0  0  0  0
 38 32  1  0  0  0  0
 39 34  1  0  0  0  0
 39 38  1  1  0  0  0
 40 39  1  0  0  0  0
M  END
>  <MODEL>
1

>  <REMARK>
 VINA RESULT:      -9.6      0.000      0.000
  Name = 
  5 active torsions:
  status: ('A' for Active; 'I' for Inactive)
    1  A    between atoms: N_3  and  C_8
    2  A    between atoms: N_7  and  N_10
    3  A    between atoms: C_24  and  N_31
    4  A    between atoms: C_27  and  C_34
    5  A    between atoms: C_28  and  C_33
                            x       y       z     vdW  Elec       q    Type
                         _______ _______ _______ _____ _____    ______ ____

>  <TORSDO>
F 5

$$$$
=
 OpenBabel11052412043D

 40 45  0  0  1  0  0  0  0  0999 V2000
  160.9630  211.5190  153.5380 C   0  0  0  0  0  2  0  0  0  0  0  0
  158.3570  214.3700  154.8310 O   0  0  0  0  0  1  0  0  0  0  0  0
  158.0850  213.4040  152.0490 N   0  0  0  0  0  2  0  0  0  0  0  0
  159.0290  210.6890  155.0600 C   0  0  0  0  0  2  0  0  0  0  0  0
  159.9340  212.0410  152.6380 N   0  0  0  0  0  0  0  0  0  0  0  0
  158.7680  212.1280  155.3930 C   0  0  0  0  0  3  0  0  0  0  0  0
  158.9270  212.7760  153.0250 C   0  0  0  0  0  0  0  0  0  0  0  0
  160.4390  210.4430  154.4990 C   0  0  1  0  0  3  0  0  0  0  0  0
  158.6930  213.0760  154.4540 C   0  0  0  0  0  0  0  0  0  0  0  0
  161.6200  209.0840  152.7620 C   0  0  0  0  0  2  0  0  0  0  0  0
  161.2590  208.1260  151.6240 C   0  0  0  0  0  2  0  0  0  0  0  0
  161.5140  206.1890  153.2730 C   0  0  0  0  0  2  0  0  0  0  0  0
  160.7730  206.5880  154.5440 C   0  0  0  0  0  2  0  0  0  0  0  0
  160.6170  209.0430  153.9080 C   0  0  1  0  0  3  0  0  0  0  0  0
  160.7720  206.7400  152.0630 C   0  0  2  0  0  3  0  0  0  0  0  0
  161.0700  208.0280  154.9590 C   0  0  0  0  0  2  0  0  0  0  0  0
  161.1940  204.5890  151.1090 O   0  0  0  0  0  0  0  0  0  0  0  0
  160.4930  206.2430  149.6070 N   0  0  0  0  0  2  0  0  0  0  0  0
  160.8400  205.7840  150.9190 C   0  0  0  0  0  0  0  0  0  0  0  0
  160.8490  206.2810  147.1580 C   0  0  0  0  0  2  0  0  0  0  0  0
  162.5960  204.6330  146.3390 C   0  0  2  0  0  3  0  0  0  0  0  0
  161.8580  203.6260  147.2330 C   0  0  0  0  0  2  0  0  0  0  0  0
  160.5500  205.4240  148.3990 C   0  0  1  0  0  3  0  0  0  0  0  0
  162.2860  206.1010  146.6670 C   0  0  0  0  0  2  0  0  0  0  0  0
  161.4980  204.2330  148.5850 C   0  0  0  0  0  2  0  0  0  0  0  0
  162.2930  204.3740  145.0030 O   0  0  0  0  0  1  0  0  0  0  0  0
  158.7660  213.4510  148.3490 N   0  0  0  0  0  2  0  0  0  0  0  0
  158.0790  213.0630  150.6840 N   0  0  0  0  0  2  0  0  0  0  0  0
  159.0470  213.5410  149.7460 C   0  0  0  0  0  0  0  0  0  0  0  0
  160.1460  214.0090  150.1450 O   0  0  0  0  0  0  0  0  0  0  0  0
  163.1540  213.5100  144.5070 N   0  0  0  0  0  0  0  0  0  0  0  0
  159.7420  213.8120  147.3320 C   0  0  1  0  0  3  0  0  0  0  0  0
  162.1090  213.0650  146.8110 C   0  0  0  0  0  2  0  0  0  0  0  0
  160.6330  212.6160  147.0310 C   0  0  2  0  0  3  0  0  0  0  0  0
  162.5570  213.4100  143.2850 C   0  0  0  0  0  3  0  0  0  0  0  0
  161.2250  213.0070  143.4230 C   0  0  0  0  0  3  0  0  0  0  0  0
  162.1630  213.1640  145.3430 C   0  0  0  0  0  0  0  0  0  0  0  0
  159.1010  213.6940  145.9570 C   0  0  0  0  0  2  0  0  0  0  0  0
  159.9760  212.4920  145.6350 C   0  0  1  0  0  3  0  0  0  0  0  0
  161.0420  212.8710  144.7410 N   0  0  0  0  0  0  0  0  0  0  0  0
  3  7  1  0  0  0  0
  4  6  1  0  0  0  0
  5  7  2  0  0  0  0
  5  1  1  0  0  0  0
  7  9  1  0  0  0  0
  8  1  1  6  0  0  0
  8  4  1  0  0  0  0
  9  2  1  0  0  0  0
  9  6  2  0  0  0  0
 11 15  1  0  0  0  0
 11 10  1  0  0  0  0
 12 13  1  0  0  0  0
 13 16  1  0  0  0  0
 14 10  1  6  0  0  0
 14  8  1  0  0  0  0
 14 16  1  0  0  0  0
 15 19  1  6  0  0  0
 15 12  1  0  0  0  0
 18 19  1  0  0  0  0
 19 17  2  0  0  0  0
 20 23  1  0  0  0  0
 21 26  1  6  0  0  0
 21 24  1  0  0  0  0
 21 22  1  0  0  0  0
 22 25  1  0  0  0  0
 23 25  1  0  0  0  0
 23 18  1  1  0  0  0
 24 20  1  0  0  0  0
 27 29  1  0  0  0  0
 28  3  1  0  0  0  0
 29 30  2  0  0  0  0
 29 28  1  0  0  0  0
 31 37  2  0  0  0  0
 32 27  1  1  0  0  0
 34 33  1  6  0  0  0
 34 32  1  0  0  0  0
 35 36  2  0  0  0  0
 35 31  1  0  0  0  0
 36 40  1  0  0  0  0
 37 33  1  0  0  0  0
 38 32  1  0  0  0  0
 39 38  1  1  0  0  0
 39 34  1  0  0  0  0
 40 37  1  0  0  0  0
 40 39  1  0  0  0  0
M  END
>  <MODEL>
2

>  <REMARK>
 VINA RESULT:      -9.4      1.724      2.393
  Name = 
  5 active torsions:
  status: ('A' for Active; 'I' for Inactive)
    1  A    between atoms: N_3  and  C_8
    2  A    between atoms: N_7  and  N_10
    3  A    between atoms: C_24  and  N_31
    4  A    between atoms: C_27  and  C_34
    5  A    between atoms: C_28  and  C_33
                            x       y       z     vdW  Elec       q    Type
                         _______ _______ _______ _____ _____    ______ ____

>  <TORSDO>
F 5

$$$$
=
 OpenBabel11052412043D

 40 45  0  0  1  0  0  0  0  0999 V2000
  158.9770  210.3120  155.8670 C   0  0  0  0  0  2  0  0  0  0  0  0
  162.4260  208.6480  157.2550 O   0  0  0  0  0  1  0  0  0  0  0  0
  161.3840  207.7070  154.6530 N   0  0  0  0  0  2  0  0  0  0  0  0
  161.1230  211.7510  155.6020 C   0  0  0  0  0  2  0  0  0  0  0  0
  159.6630  209.2780  155.0900 N   0  0  0  0  0  0  0  0  0  0  0  0
  161.7940  210.7950  156.5420 C   0  0  0  0  0  3  0  0  0  0  0  0
  160.8730  208.8570  155.3390 C   0  0  0  0  0  0  0  0  0  0  0  0
  159.5890  211.7080  155.6880 C   0  0  1  0  0  3  0  0  0  0  0  0
  161.7010  209.4690  156.4000 C   0  0  0  0  0  0  0  0  0  0  0  0
  158.4530  211.5010  153.4690 C   0  0  0  0  0  2  0  0  0  0  0  0
  158.5880  212.0860  152.0610 C   0  0  0  0  0  2  0  0  0  0  0  0
  156.8960  213.8830  152.7270 C   0  0  0  0  0  2  0  0  0  0  0  0
  157.3210  214.4070  154.0940 C   0  0  0  0  0  2  0  0  0  0  0  0
  158.9000  212.4710  154.5550 C   0  0  1  0  0  3  0  0  0  0  0  0
  158.1350  213.5430  151.9100 C   0  0  2  0  0  3  0  0  0  0  0  0
  157.7000  213.2810  155.0520 C   0  0  0  0  0  2  0  0  0  0  0  0
  156.8720  214.4520  150.0960 O   0  0  0  0  0  0  0  0  0  0  0  0
  158.9430  213.5210  149.5220 N   0  0  0  0  0  2  0  0  0  0  0  0
  157.9260  213.8710  150.4690 C   0  0  0  0  0  0  0  0  0  0  0  0
  160.2440  213.7840  147.4320 C   0  0  0  0  0  2  0  0  0  0  0  0
  159.4880  212.2680  145.5430 C   0  0  2  0  0  3  0  0  0  0  0  0
  158.0770  212.7450  145.9170 C   0  0  0  0  0  2  0  0  0  0  0  0
  158.8510  213.7520  148.0830 C   0  0  1  0  0  3  0  0  0  0  0  0
  160.5370  212.5110  146.6380 C   0  0  0  0  0  2  0  0  0  0  0  0
  157.8730  212.7680  147.4280 C   0  0  0  0  0  2  0  0  0  0  0  0
  159.8870  212.8890  144.3600 O   0  0  0  0  0  1  0  0  0  0  0  0
  160.8330  206.5240  151.1240 N   0  0  0  0  0  2  0  0  0  0  0  0
  160.7870  207.1480  153.5080 N   0  0  0  0  0  2  0  0  0  0  0  0
  161.5240  206.7310  152.3560 C   0  0  0  0  0  0  0  0  0  0  0  0
  162.7640  206.5210  152.4330 O   0  0  0  0  0  0  0  0  0  0  0  0
  162.1560  203.7430  146.1700 N   0  0  0  0  0  0  0  0  0  0  0  0
  161.4910  205.9950  149.9390 C   0  0  1  0  0  3  0  0  0  0  0  0
  161.2100  203.8870  148.5550 C   0  0  0  0  0  2  0  0  0  0  0  0
  160.5080  205.1480  149.1430 C   0  0  2  0  0  3  0  0  0  0  0  0
  162.1480  204.7090  145.2080 C   0  0  0  0  0  3  0  0  0  0  0  0
  161.5260  205.8680  145.6830 C   0  0  0  0  0  3  0  0  0  0  0  0
  161.5370  204.3490  147.1950 C   0  0  0  0  0  0  0  0  0  0  0  0
  161.4830  207.0520  148.8450 C   0  0  0  0  0  2  0  0  0  0  0  0
  160.4950  206.2290  148.0340 C   0  0  1  0  0  3  0  0  0  0  0  0
  161.1660  205.5740  146.9380 N   0  0  0  0  0  0  0  0  0  0  0  0
  3  7  1  0  0  0  0
  4  6  1  0  0  0  0
  5  7  2  0  0  0  0
  5  1  1  0  0  0  0
  7  9  1  0  0  0  0
  8  4  1  6  0  0  0
  8  1  1  0  0  0  0
  9  6  2  0  0  0  0
  9  2  1  0  0  0  0
 11 10  1  0  0  0  0
 12 13  1  0  0  0  0
 13 16  1  0  0  0  0
 14 10  1  6  0  0  0
 14 16  1  0  0  0  0
 14  8  1  0  0  0  0
 15 19  1  6  0  0  0
 15 11  1  0  0  0  0
 15 12  1  0  0  0  0
 17 19  2  0  0  0  0
 18 19  1  0  0  0  0
 20 23  1  0  0  0  0
 21 26  1  6  0  0  0
 21 22  1  0  0  0  0
 21 24  1  0  0  0  0
 22 25  1  0  0  0  0
 23 18  1  1  0  0  0
 24 20  1  0  0  0  0
 25 23  1  0  0  0  0
 27 29  1  0  0  0  0
 28  3  1  0  0  0  0
 29 30  2  0  0  0  0
 29 28  1  0  0  0  0
 31 37  2  0  0  0  0
 32 27  1  1  0  0  0
 34 33  1  6  0  0  0
 34 32  1  0  0  0  0
 35 36  2  0  0  0  0
 35 31  1  0  0  0  0
 36 40  1  0  0  0  0
 37 33  1  0  0  0  0
 38 32  1  0  0  0  0
 39 38  1  1  0  0  0
 39 34  1  0  0  0  0
 40 37  1  0  0  0  0
 40 39  1  0  0  0  0
M  END
>  <MODEL>
3

>  <REMARK>
 VINA RESULT:      -8.9      2.638      7.978
  Name = 
  5 active torsions:
  status: ('A' for Active; 'I' for Inactive)
    1  A    between atoms: N_3  and  C_8
    2  A    between atoms: N_7  and  N_10
    3  A    between atoms: C_24  and  N_31
    4  A    between atoms: C_27  and  C_34
    5  A    between atoms: C_28  and  C_33
                            x       y       z     vdW  Elec       q    Type
                         _______ _______ _______ _____ _____    ______ ____

>  <TORSDO>
F 5

$$$$
=
 OpenBabel11052412043D

 40 45  0  0  1  0  0  0  0  0999 V2000
  159.6090  210.2190  154.3840 C   0  0  0  0  0  2  0  0  0  0  0  0
  161.7050  208.1390  157.1900 O   0  0  0  0  0  1  0  0  0  0  0  0
  161.1500  206.8090  154.6080 N   0  0  0  0  0  2  0  0  0  0  0  0
  162.1140  210.8580  154.6410 C   0  0  0  0  0  2  0  0  0  0  0  0
  160.0620  208.8550  154.1070 N   0  0  0  0  0  0  0  0  0  0  0  0
  162.1100  210.0700  155.9170 C   0  0  0  0  0  3  0  0  0  0  0  0
  160.9200  208.2040  154.8430 C   0  0  0  0  0  0  0  0  0  0  0  0
  160.7070  211.2720  154.1810 C   0  0  1  0  0  3  0  0  0  0  0  0
  161.5890  208.8430  155.9980 C   0  0  0  0  0  0  0  0  0  0  0  0
  160.6570  210.6900  151.7490 C   0  0  0  0  0  2  0  0  0  0  0  0
  161.4650  211.0010  150.4860 C   0  0  0  0  0  2  0  0  0  0  0  0
  159.8570  212.9360  150.0260 C   0  0  0  0  0  2  0  0  0  0  0  0
  159.6860  213.6910  151.3390 C   0  0  0  0  0  2  0  0  0  0  0  0
  160.6780  211.8310  152.7580 C   0  0  1  0  0  3  0  0  0  0  0  0
  161.2860  212.4180  149.9250 C   0  0  2  0  0  3  0  0  0  0  0  0
  159.4780  212.7510  152.5240 C   0  0  0  0  0  2  0  0  0  0  0  0
  163.0010  212.3420  148.2630 O   0  0  0  0  0  0  0  0  0  0  0  0
  160.8280  212.6900  147.4620 N   0  0  0  0  0  2  0  0  0  0  0  0
  161.7740  212.4790  148.5170 C   0  0  0  0  0  0  0  0  0  0  0  0
  160.0450  212.2730  145.1510 C   0  0  0  0  0  2  0  0  0  0  0  0
  160.1880  214.2970  143.6270 C   0  0  2  0  0  3  0  0  0  0  0  0
  161.6060  214.4470  144.1970 C   0  0  0  0  0  2  0  0  0  0  0  0
  161.1750  212.8060  146.0470 C   0  0  1  0  0  3  0  0  0  0  0  0
  159.2690  213.4020  144.4710 C   0  0  0  0  0  2  0  0  0  0  0  0
  161.6310  214.2310  145.7060 C   0  0  0  0  0  2  0  0  0  0  0  0
  160.2640  213.8020  142.3250 O   0  0  0  0  0  1  0  0  0  0  0  0
  160.8320  205.7170  151.0220 N   0  0  0  0  0  2  0  0  0  0  0  0
  160.7300  206.1300  153.4500 N   0  0  0  0  0  2  0  0  0  0  0  0
  161.4810  206.1050  152.2330 C   0  0  0  0  0  0  0  0  0  0  0  0
  162.7080  206.3950  152.2340 O   0  0  0  0  0  0  0  0  0  0  0  0
  162.5960  204.1610  145.6840 N   0  0  0  0  0  0  0  0  0  0  0  0
  161.5520  205.5600  149.7670 C   0  0  1  0  0  3  0  0  0  0  0  0
  161.7430  203.6920  148.0620 C   0  0  0  0  0  2  0  0  0  0  0  0
  160.7760  204.6300  148.8450 C   0  0  2  0  0  3  0  0  0  0  0  0
  162.3110  205.2320  144.8900 C   0  0  0  0  0  3  0  0  0  0  0  0
  161.4420  206.1100  145.5460 C   0  0  0  0  0  3  0  0  0  0  0  0
  161.8890  204.4260  146.7930 C   0  0  0  0  0  0  0  0  0  0  0  0
  161.2380  206.7390  148.8570 C   0  0  0  0  0  2  0  0  0  0  0  0
  160.4510  205.8310  147.9250 C   0  0  1  0  0  3  0  0  0  0  0  0
  161.2180  205.5440  146.7370 N   0  0  0  0  0  0  0  0  0  0  0  0
  3  7  1  0  0  0  0
  4  6  1  0  0  0  0
  5  1  1  0  0  0  0
  5  7  2  0  0  0  0
  6  9  2  0  0  0  0
  7  9  1  0  0  0  0
  8  1  1  6  0  0  0
  8  4  1  0  0  0  0
  9  2  1  0  0  0  0
 11 10  1  0  0  0  0
 12 13  1  0  0  0  0
 13 16  1  0  0  0  0
 14 10  1  6  0  0  0
 14  8  1  0  0  0  0
 15 19  1  6  0  0  0
 15 12  1  0  0  0  0
 15 11  1  0  0  0  0
 16 14  1  0  0  0  0
 17 19  2  0  0  0  0
 18 19  1  0  0  0  0
 20 23  1  0  0  0  0
 21 26  1  6  0  0  0
 21 22  1  0  0  0  0
 21 24  1  0  0  0  0
 22 25  1  0  0  0  0
 23 18  1  1  0  0  0
 24 20  1  0  0  0  0
 25 23  1  0  0  0  0
 27 29  1  0  0  0  0
 28  3  1  0  0  0  0
 29 30  2  0  0  0  0
 29 28  1  0  0  0  0
 31 37  2  0  0  0  0
 32 27  1  1  0  0  0
 34 33  1  6  0  0  0
 34 32  1  0  0  0  0
 35 36  2  0  0  0  0
 35 31  1  0  0  0  0
 36 40  1  0  0  0  0
 37 33  1  0  0  0  0
 38 32  1  0  0  0  0
 39 34  1  0  0  0  0
 39 38  1  1  0  0  0
 40 37  1  0  0  0  0
 40 39  1  0  0  0  0
M  END
>  <MODEL>
4

>  <REMARK>
 VINA RESULT:      -7.9      2.842      8.187
  Name = 
  5 active torsions:
  status: ('A' for Active; 'I' for Inactive)
    1  A    between atoms: N_3  and  C_8
    2  A    between atoms: N_7  and  N_10
    3  A    between atoms: C_24  and  N_31
    4  A    between atoms: C_27  and  C_34
    5  A    between atoms: C_28  and  C_33
                            x       y       z     vdW  Elec       q    Type
                         _______ _______ _______ _____ _____    ______ ____

>  <TORSDO>
F 5

$$$$
=
 OpenBabel11052412043D

 40 45  0  0  1  0  0  0  0  0999 V2000
  161.8000  210.7170  152.0490 C   0  0  0  0  0  2  0  0  0  0  0  0
  159.5170  214.0910  152.0280 O   0  0  0  0  0  1  0  0  0  0  0  0
  160.2420  212.8940  149.4240 N   0  0  0  0  0  0  0  0  0  0  0  0
  159.2850  210.3950  152.6110 C   0  0  0  0  0  2  0  0  0  0  0  0
  161.3650  211.3070  150.7820 N   0  0  0  0  0  0  0  0  0  0  0  0
  159.2020  211.8840  152.7660 C   0  0  0  0  0  3  0  0  0  0  0  0
  160.4580  212.2400  150.6810 C   0  0  0  0  0  0  0  0  0  0  0  0
  160.7200  209.8550  152.7160 C   0  0  1  0  0  3  0  0  0  0  0  0
  159.7140  212.7250  151.8640 C   0  0  0  0  0  0  0  0  0  0  0  0
  161.8790  208.2540  151.1810 C   0  0  0  0  0  2  0  0  0  0  0  0
  161.5010  207.1910  150.1470 C   0  0  0  0  0  2  0  0  0  0  0  0
  161.6210  205.4450  152.0110 C   0  0  0  0  0  2  0  0  0  0  0  0
  160.8670  206.0190  153.2050 C   0  0  0  0  0  2  0  0  0  0  0  0
  160.8460  208.3900  152.2920 C   0  0  1  0  0  3  0  0  0  0  0  0
  160.9370  205.8870  150.7240 C   0  0  2  0  0  3  0  0  0  0  0  0
  161.2230  207.4810  153.4640 C   0  0  0  0  0  2  0  0  0  0  0  0
  160.3190  203.7480  149.8530 O   0  0  0  0  0  0  0  0  0  0  0  0
  161.8040  204.9890  148.5340 N   0  0  0  0  0  2  0  0  0  0  0  0
  160.9890  204.8050  149.6970 C   0  0  0  0  0  0  0  0  0  0  0  0
  161.6550  202.5810  147.9770 C   0  0  0  0  0  2  0  0  0  0  0  0
  160.2490  202.0780  145.9250 C   0  0  2  0  0  3  0  0  0  0  0  0
  161.0510  203.2130  145.2740 C   0  0  0  0  0  2  0  0  0  0  0  0
  161.9720  203.9990  147.4730 C   0  0  1  0  0  3  0  0  0  0  0  0
  160.3080  202.0760  147.4600 C   0  0  0  0  0  2  0  0  0  0  0  0
  161.2010  204.4060  146.2120 C   0  0  0  0  0  2  0  0  0  0  0  0
  160.6990  200.8530  145.4340 O   0  0  0  0  0  1  0  0  0  0  0  0
  160.8670  212.4820  145.7360 N   0  0  0  0  0  2  0  0  0  0  0  0
  160.7380  212.4160  148.1970 N   0  0  0  0  0  0  0  0  0  0  0  0
  160.6860  213.1620  146.9790 C   0  0  0  0  0  0  0  0  0  0  0  0
  160.5100  214.4100  147.0010 O   0  0  0  0  0  0  0  0  0  0  0  0
  162.3120  214.3980  140.4200 N   0  0  0  0  0  0  0  0  0  0  0  0
  160.9380  213.1850  144.4650 C   0  0  1  0  0  3  0  0  0  0  0  0
  162.8160  213.7280  142.8490 C   0  0  0  0  0  2  0  0  0  0  0  0
  162.0630  212.6030  143.6210 C   0  0  2  0  0  3  0  0  0  0  0  0
  161.3730  213.8690  139.5850 C   0  0  0  0  0  3  0  0  0  0  0  0
  160.6640  212.8500  140.2290 C   0  0  0  0  0  3  0  0  0  0  0  0
  162.1410  213.6800  141.5410 C   0  0  0  0  0  0  0  0  0  0  0  0
  159.9060  212.6020  143.5100 C   0  0  0  0  0  2  0  0  0  0  0  0
  161.0120  212.0040  142.6540 C   0  0  1  0  0  3  0  0  0  0  0  0
  161.1970  212.7830  141.4540 N   0  0  0  0  0  0  0  0  0  0  0  0
  3  7  1  0  0  0  0
  4  8  1  0  0  0  0
  4  6  1  0  0  0  0
  5  1  1  0  0  0  0
  7  5  2  0  0  0  0
  7  9  1  0  0  0  0
  8  1  1  6  0  0  0
  9  2  1  0  0  0  0
  9  6  2  0  0  0  0
 11 15  1  0  0  0  0
 11 10  1  0  0  0  0
 12 13  1  0  0  0  0
 13 16  1  0  0  0  0
 14 10  1  6  0  0  0
 14  8  1  0  0  0  0
 14 16  1  0  0  0  0
 15 19  1  6  0  0  0
 15 12  1  0  0  0  0
 18 19  1  0  0  0  0
 19 17  2  0  0  0  0
 21 26  1  6  0  0  0
 21 24  1  0  0  0  0
 22 21  1  0  0  0  0
 22 25  1  0  0  0  0
 23 20  1  0  0  0  0
 23 18  1  1  0  0  0
 24 20  1  0  0  0  0
 25 23  1  0  0  0  0
 27 29  1  0  0  0  0
 28  3  2  0  0  0  0
 29 30  2  0  0  0  0
 29 28  1  0  0  0  0
 31 37  2  0  0  0  0
 32 27  1  1  0  0  0
 34 33  1  6  0  0  0
 34 32  1  0  0  0  0
 35 36  2  0  0  0  0
 35 31  1  0  0  0  0
 36 40  1  0  0  0  0
 37 33  1  0  0  0  0
 38 32  1  0  0  0  0
 39 38  1  1  0  0  0
 39 34  1  0  0  0  0
 40 37  1  0  0  0  0
 40 39  1  0  0  0  0
M  END
>  <MODEL>
5

>  <REMARK>
 VINA RESULT:      -7.2      2.166      3.384
  Name = 
  5 active torsions:
  status: ('A' for Active; 'I' for Inactive)
    1  A    between atoms: N_3  and  C_8
    2  A    between atoms: N_7  and  N_10
    3  A    between atoms: C_24  and  N_31
    4  A    between atoms: C_27  and  C_34
    5  A    between atoms: C_28  and  C_33
                            x       y       z     vdW  Elec       q    Type
                         _______ _______ _______ _____ _____    ______ ____

>  <TORSDO>
F 5

$$$$
