=
 OpenBabel11042421333D

 27 30  0  0  1  0  0  0  0  0999 V2000
  161.2170  207.1760  150.1240 C   0  0  2  0  0  3  0  0  0  0  0  0
  161.4080  204.3800  147.5360 C   0  0  0  0  0  3  0  0  0  0  0  0
  160.7510  202.2900  150.5070 C   0  0  0  0  0  3  0  0  0  0  0  0
  160.9540  200.9340  148.5580 N   0  0  0  0  0  0  0  0  0  0  0  0
  161.2040  205.8180  149.4860 C   0  0  0  0  0  0  0  0  0  0  0  0
  161.4190  205.6560  148.1080 C   0  0  0  0  0  3  0  0  0  0  0  0
  161.1650  202.0150  147.8000 N   0  0  0  0  0  0  0  0  0  0  0  0
  160.9700  203.4180  149.7220 C   0  0  0  0  0  0  0  0  0  0  0  0
  161.1810  203.2610  148.3400 C   0  0  0  0  0  0  0  0  0  0  0  0
  160.9830  204.6940  150.2910 C   0  0  0  0  0  3  0  0  0  0  0  0
  160.7460  201.0350  149.8990 C   0  0  0  0  0  3  0  0  0  0  0  0
  162.1590  209.3730  149.9620 O   0  0  0  0  0  0  0  0  0  0  0  0
  162.3970  208.0230  149.6430 C   0  0  2  0  0  3  0  0  0  0  0  0
  161.9480  208.9970  148.6240 C   0  0  0  0  0  2  0  0  0  0  0  0
  162.4100  206.7770  152.2480 N   0  0  0  0  0  1  0  0  0  0  0  0
  161.1170  207.0820  151.6520 C   0  0  1  0  0  3  0  0  0  0  0  0
  160.5570  208.3720  152.2320 C   0  0  0  0  0  2  0  0  0  0  0  0
  161.2840  208.7380  153.4380 N   0  0  0  0  0  2  0  0  0  0  0  0
  161.7180  210.0620  153.2710 N   0  0  0  0  0  0  0  0  0  0  0  0
  160.3600  211.5490  154.0740 C   0  0  2  0  0  3  0  0  0  0  0  0
  160.5850  210.8230  152.7630 C   0  0  0  0  0  2  0  0  0  0  0  0
  161.5470  210.7300  154.5540 C   0  0  0  0  0  2  0  0  0  0  0  0
  159.0650  210.3620  155.8020 C   0  0  0  0  0  2  0  0  0  0  0  0
  159.0560  211.1160  154.7030 C   0  0  0  0  0  0  0  0  0  0  0  0
  156.5360  211.2290  154.7300 N   0  0  0  0  0  1  0  0  0  0  0  0
  157.7850  211.7450  154.2780 C   0  0  0  0  0  0  0  0  0  0  0  0
  157.7920  212.7440  153.5090 O   0  0  0  0  0  0  0  0  0  0  0  0
  1 16  1  1  0  0  0
  2  6  2  0  0  0  0
  2  9  1  0  0  0  0
  4 11  2  0  0  0  0
  5  1  1  0  0  0  0
  5 10  2  0  0  0  0
  6  5  1  0  0  0  0
  7  9  2  0  0  0  0
  7  4  1  0  0  0  0
  8 10  1  0  0  0  0
  8  3  2  0  0  0  0
  9  8  1  0  0  0  0
 11  3  1  0  0  0  0
 13 12  1  0  0  0  0
 13  1  1  1  0  0  0
 14 13  1  0  0  0  0
 14 12  1  0  0  0  0
 16 17  1  0  0  0  0
 16 15  1  1  0  0  0
 17 18  1  0  0  0  0
 19 18  1  0  0  0  0
 19 22  1  0  0  0  0
 20 22  1  0  0  0  0
 20 24  1  1  0  0  0
 21 19  1  0  0  0  0
 21 20  1  0  0  0  0
 24 23  2  0  0  0  0
 26 24  1  0  0  0  0
 26 25  1  0  0  0  0
 27 26  2  0  0  0  0
M  END
>  <MODEL>
1

>  <REMARK>
 VINA RESULT:      -7.8      0.000      0.000
  Name = 
  8 active torsions:
  status: ('A' for Active; 'I' for Inactive)
    1  A    between atoms: N_2  and  N_14
    2  A    between atoms: C_3  and  C_13
    3  A    between atoms: C_10  and  C_19
    4  A    between atoms: C_12  and  C_19
    5  A    between atoms: C_13  and  C_20
    6  A    between atoms: N_14  and  C_15
    7  A    between atoms: C_15  and  C_22
    8  A    between atoms: C_19  and  C_22
                            x       y       z     vdW  Elec       q    Type
                         _______ _______ _______ _____ _____    ______ ____

>  <TORSDO>
F 8

$$$$
=
 OpenBabel11042421333D

 27 30  0  0  1  0  0  0  0  0999 V2000
  161.1520  206.8810  150.3230 C   0  0  2  0  0  3  0  0  0  0  0  0
  160.6370  203.1070  150.1070 C   0  0  0  0  0  3  0  0  0  0  0  0
  161.3640  203.7340  146.5420 C   0  0  0  0  0  3  0  0  0  0  0  0
  160.9610  201.4170  146.9190 N   0  0  0  0  0  0  0  0  0  0  0  0
  161.0480  205.4830  149.7890 C   0  0  0  0  0  0  0  0  0  0  0  0
  160.7350  204.4010  150.6280 C   0  0  0  0  0  3  0  0  0  0  0  0
  160.7630  201.6390  148.2220 N   0  0  0  0  0  0  0  0  0  0  0  0
  161.1590  203.9710  147.8980 C   0  0  0  0  0  0  0  0  0  0  0  0
  160.8520  202.8900  148.7440 C   0  0  0  0  0  0  0  0  0  0  0  0
  161.2550  205.2630  148.4220 C   0  0  0  0  0  3  0  0  0  0  0  0
  161.2600  202.4300  146.0620 C   0  0  0  0  0  3  0  0  0  0  0  0
  162.2230  209.0020  150.0210 O   0  0  0  0  0  0  0  0  0  0  0  0
  162.3510  207.6290  149.7390 C   0  0  2  0  0  3  0  0  0  0  0  0
  161.9030  208.5970  148.7140 C   0  0  0  0  0  2  0  0  0  0  0  0
  162.4170  206.6190  152.4270 N   0  0  0  0  0  1  0  0  0  0  0  0
  161.1070  206.9030  151.8560 C   0  0  1  0  0  3  0  0  0  0  0  0
  160.5900  208.2430  152.3580 C   0  0  0  0  0  2  0  0  0  0  0  0
  161.3360  208.6610  153.5340 N   0  0  0  0  0  2  0  0  0  0  0  0
  161.7700  209.9750  153.3000 N   0  0  0  0  0  0  0  0  0  0  0  0
  160.3820  211.5000  153.9700 C   0  0  2  0  0  3  0  0  0  0  0  0
  160.6500  210.6980  152.7130 C   0  0  0  0  0  2  0  0  0  0  0  0
  161.5570  210.7190  154.5340 C   0  0  0  0  0  2  0  0  0  0  0  0
  159.0400  210.3490  155.6860 C   0  0  0  0  0  2  0  0  0  0  0  0
  159.0600  211.0990  154.5840 C   0  0  0  0  0  0  0  0  0  0  0  0
  156.5690  211.4430  154.7680 N   0  0  0  0  0  1  0  0  0  0  0  0
  157.8090  211.7540  154.1410 C   0  0  0  0  0  0  0  0  0  0  0  0
  157.8260  212.5950  153.2010 O   0  0  0  0  0  0  0  0  0  0  0  0
  1 16  1  1  0  0  0
  2  6  1  0  0  0  0
  3  8  1  0  0  0  0
  4  7  2  0  0  0  0
  5  1  1  0  0  0  0
  5  6  2  0  0  0  0
  7  9  1  0  0  0  0
  8 10  2  0  0  0  0
  8  9  1  0  0  0  0
  9  2  2  0  0  0  0
 10  5  1  0  0  0  0
 11  3  2  0  0  0  0
 11  4  1  0  0  0  0
 13 12  1  0  0  0  0
 13  1  1  1  0  0  0
 14 13  1  0  0  0  0
 14 12  1  0  0  0  0
 16 17  1  0  0  0  0
 16 15  1  1  0  0  0
 17 18  1  0  0  0  0
 19 18  1  0  0  0  0
 19 22  1  0  0  0  0
 20 22  1  0  0  0  0
 20 24  1  1  0  0  0
 21 19  1  0  0  0  0
 21 20  1  0  0  0  0
 24 23  2  0  0  0  0
 26 24  1  0  0  0  0
 26 25  1  0  0  0  0
 27 26  2  0  0  0  0
M  END
>  <MODEL>
2

>  <REMARK>
 VINA RESULT:      -7.8      0.664      1.551
  Name = 
  8 active torsions:
  status: ('A' for Active; 'I' for Inactive)
    1  A    between atoms: N_2  and  N_14
    2  A    between atoms: C_3  and  C_13
    3  A    between atoms: C_10  and  C_19
    4  A    between atoms: C_12  and  C_19
    5  A    between atoms: C_13  and  C_20
    6  A    between atoms: N_14  and  C_15
    7  A    between atoms: C_15  and  C_22
    8  A    between atoms: C_19  and  C_22
                            x       y       z     vdW  Elec       q    Type
                         _______ _______ _______ _____ _____    ______ ____

>  <TORSDO>
F 8

$$$$
=
 OpenBabel11042421333D

 27 30  0  0  1  0  0  0  0  0999 V2000
  161.2200  207.2460  149.7740 C   0  0  2  0  0  3  0  0  0  0  0  0
  161.4570  204.3010  147.3620 C   0  0  0  0  0  3  0  0  0  0  0  0
  160.7140  202.3940  150.4340 C   0  0  0  0  0  3  0  0  0  0  0  0
  160.9560  200.9240  148.5750 N   0  0  0  0  0  0  0  0  0  0  0  0
  161.2130  205.8530  149.2180 C   0  0  0  0  0  0  0  0  0  0  0  0
  161.4620  205.6080  147.8570 C   0  0  0  0  0  3  0  0  0  0  0  0
  161.1930  201.9570  147.7590 N   0  0  0  0  0  0  0  0  0  0  0  0
  160.9600  203.4720  149.5900 C   0  0  0  0  0  0  0  0  0  0  0  0
  161.2040  203.2330  148.2250 C   0  0  0  0  0  0  0  0  0  0  0  0
  160.9660  204.7800  150.0820 C   0  0  0  0  0  3  0  0  0  0  0  0
  160.7160  201.1060  149.9010 C   0  0  0  0  0  3  0  0  0  0  0  0
  162.1490  209.4440  149.5600 O   0  0  0  0  0  0  0  0  0  0  0  0
  162.3150  208.1090  149.1450 C   0  0  2  0  0  3  0  0  0  0  0  0
  161.7180  209.1320  148.2590 C   0  0  0  0  0  2  0  0  0  0  0  0
  162.5980  206.9820  151.8050 N   0  0  0  0  0  1  0  0  0  0  0  0
  161.2530  207.2410  151.3070 C   0  0  1  0  0  3  0  0  0  0  0  0
  160.7290  208.5580  151.8600 C   0  0  0  0  0  2  0  0  0  0  0  0
  161.7780  209.2490  152.5920 N   0  0  0  0  0  2  0  0  0  0  0  0
  161.1760  210.3370  153.2450 N   0  0  0  0  0  0  0  0  0  0  0  0
  160.9160  210.0580  155.3790 C   0  0  2  0  0  3  0  0  0  0  0  0
  160.1350  209.7950  154.1080 C   0  0  0  0  0  2  0  0  0  0  0  0
  161.9700  210.6110  154.4340 C   0  0  0  0  0  2  0  0  0  0  0  0
  162.1540  208.7670  157.0750 C   0  0  0  0  0  2  0  0  0  0  0  0
  161.3320  208.7560  156.0240 C   0  0  0  0  0  0  0  0  0  0  0  0
  159.4340  207.1320  156.3750 N   0  0  0  0  0  1  0  0  0  0  0  0
  160.6240  207.5010  155.6830 C   0  0  0  0  0  0  0  0  0  0  0  0
  161.0650  206.7440  154.7780 O   0  0  0  0  0  0  0  0  0  0  0  0
  1 16  1  1  0  0  0
  2  6  2  0  0  0  0
  2  9  1  0  0  0  0
  4 11  2  0  0  0  0
  5  1  1  0  0  0  0
  5 10  2  0  0  0  0
  6  5  1  0  0  0  0
  7  9  2  0  0  0  0
  7  4  1  0  0  0  0
  8 10  1  0  0  0  0
  8  3  2  0  0  0  0
  9  8  1  0  0  0  0
 11  3  1  0  0  0  0
 13 12  1  0  0  0  0
 13  1  1  1  0  0  0
 14 13  1  0  0  0  0
 14 12  1  0  0  0  0
 16 15  1  6  0  0  0
 16 17  1  0  0  0  0
 17 18  1  0  0  0  0
 18 19  1  0  0  0  0
 19 21  1  0  0  0  0
 19 22  1  0  0  0  0
 20 24  1  6  0  0  0
 21 20  1  0  0  0  0
 22 20  1  0  0  0  0
 24 23  2  0  0  0  0
 26 24  1  0  0  0  0
 26 25  1  0  0  0  0
 27 26  2  0  0  0  0
M  END
>  <MODEL>
3

>  <REMARK>
 VINA RESULT:      -7.6      1.886      2.287
  Name = 
  8 active torsions:
  status: ('A' for Active; 'I' for Inactive)
    1  A    between atoms: N_2  and  N_14
    2  A    between atoms: C_3  and  C_13
    3  A    between atoms: C_10  and  C_19
    4  A    between atoms: C_12  and  C_19
    5  A    between atoms: C_13  and  C_20
    6  A    between atoms: N_14  and  C_15
    7  A    between atoms: C_15  and  C_22
    8  A    between atoms: C_19  and  C_22
                            x       y       z     vdW  Elec       q    Type
                         _______ _______ _______ _____ _____    ______ ____

>  <TORSDO>
F 8

$$$$
=
 OpenBabel11042421333D

 27 30  0  0  1  0  0  0  0  0999 V2000
  161.2480  206.4220  151.0730 C   0  0  2  0  0  3  0  0  0  0  0  0
  160.6130  202.8480  149.9010 C   0  0  0  0  0  3  0  0  0  0  0  0
  161.5140  204.3110  146.6340 C   0  0  0  0  0  3  0  0  0  0  0  0
  161.0140  201.9920  146.4040 N   0  0  0  0  0  0  0  0  0  0  0  0
  161.1190  205.2070  150.2030 C   0  0  0  0  0  0  0  0  0  0  0  0
  160.7330  203.9650  150.7330 C   0  0  0  0  0  3  0  0  0  0  0  0
  160.7680  201.8910  147.7140 N   0  0  0  0  0  0  0  0  0  0  0  0
  161.2590  204.2110  147.9980 C   0  0  0  0  0  0  0  0  0  0  0  0
  160.8780  202.9670  148.5350 C   0  0  0  0  0  0  0  0  0  0  0  0
  161.3770  205.3260  148.8320 C   0  0  0  0  0  3  0  0  0  0  0  0
  161.3850  203.1730  145.8380 C   0  0  0  0  0  3  0  0  0  0  0  0
  162.3000  208.5620  151.3010 O   0  0  0  0  0  0  0  0  0  0  0  0
  162.3880  207.3350  150.6180 C   0  0  2  0  0  3  0  0  0  0  0  0
  161.8450  208.5500  149.9710 C   0  0  0  0  0  2  0  0  0  0  0  0
  162.7060  205.8510  152.9820 N   0  0  0  0  0  1  0  0  0  0  0  0
  161.3260  206.0440  152.5580 C   0  0  1  0  0  3  0  0  0  0  0  0
  160.6530  207.1050  153.4170 C   0  0  0  0  0  2  0  0  0  0  0  0
  161.4540  207.3790  154.5980 N   0  0  0  0  0  2  0  0  0  0  0  0
  160.5830  207.3730  155.6980 N   0  0  0  0  0  0  0  0  0  0  0  0
  160.5350  209.2370  156.8040 C   0  0  2  0  0  3  0  0  0  0  0  0
  161.3130  207.9370  156.8260 C   0  0  0  0  0  2  0  0  0  0  0  0
  159.8060  208.6030  155.6320 C   0  0  0  0  0  2  0  0  0  0  0  0
  162.6260  210.5330  156.9600 C   0  0  0  0  0  2  0  0  0  0  0  0
  161.4300  210.3820  156.3890 C   0  0  0  0  0  0  0  0  0  0  0  0
  161.6840  210.8080  153.9160 N   0  0  0  0  0  1  0  0  0  0  0  0
  161.1160  211.1650  155.1720 C   0  0  0  0  0  0  0  0  0  0  0  0
  160.3410  212.1570  155.2330 O   0  0  0  0  0  0  0  0  0  0  0  0
  1 16  1  1  0  0  0
  2  6  1  0  0  0  0
  3  8  1  0  0  0  0
  4  7  2  0  0  0  0
  5  6  2  0  0  0  0
  5  1  1  0  0  0  0
  7  9  1  0  0  0  0
  8  9  1  0  0  0  0
  8 10  2  0  0  0  0
  9  2  2  0  0  0  0
 10  5  1  0  0  0  0
 11  4  1  0  0  0  0
 11  3  2  0  0  0  0
 13  1  1  1  0  0  0
 13 12  1  0  0  0  0
 14 13  1  0  0  0  0
 14 12  1  0  0  0  0
 16 15  1  1  0  0  0
 16 17  1  0  0  0  0
 17 18  1  0  0  0  0
 18 19  1  0  0  0  0
 19 21  1  0  0  0  0
 20 24  1  6  0  0  0
 20 21  1  0  0  0  0
 22 19  1  0  0  0  0
 22 20  1  0  0  0  0
 24 23  2  0  0  0  0
 25 26  1  0  0  0  0
 26 27  2  0  0  0  0
 26 24  1  0  0  0  0
M  END
>  <MODEL>
4

>  <REMARK>
 VINA RESULT:      -7.5      1.836      2.882
  Name = 
  8 active torsions:
  status: ('A' for Active; 'I' for Inactive)
    1  A    between atoms: N_2  and  N_14
    2  A    between atoms: C_3  and  C_13
    3  A    between atoms: C_10  and  C_19
    4  A    between atoms: C_12  and  C_19
    5  A    between atoms: C_13  and  C_20
    6  A    between atoms: N_14  and  C_15
    7  A    between atoms: C_15  and  C_22
    8  A    between atoms: C_19  and  C_22
                            x       y       z     vdW  Elec       q    Type
                         _______ _______ _______ _____ _____    ______ ____

>  <TORSDO>
F 8

$$$$
=
 OpenBabel11042421333D

 27 30  0  0  1  0  0  0  0  0999 V2000
  160.9070  206.1890  151.2020 C   0  0  2  0  0  3  0  0  0  0  0  0
  161.0720  207.8370  154.6380 C   0  0  0  0  0  3  0  0  0  0  0  0
  160.4070  210.8700  152.6420 C   0  0  0  0  0  3  0  0  0  0  0  0
  160.5960  211.4140  154.9540 N   0  0  0  0  0  0  0  0  0  0  0  0
  160.8820  207.2160  152.2940 C   0  0  0  0  0  0  0  0  0  0  0  0
  161.0940  206.8610  153.6370 C   0  0  0  0  0  3  0  0  0  0  0  0
  160.8130  210.1310  155.2620 N   0  0  0  0  0  0  0  0  0  0  0  0
  160.6330  209.5330  152.9570 C   0  0  0  0  0  0  0  0  0  0  0  0
  160.8390  209.1720  154.3010 C   0  0  0  0  0  0  0  0  0  0  0  0
  160.6560  208.5560  151.9580 C   0  0  0  0  0  3  0  0  0  0  0  0
  160.3910  211.8120  153.6690 C   0  0  0  0  0  3  0  0  0  0  0  0
  161.5760  203.9470  150.6870 O   0  0  0  0  0  0  0  0  0  0  0  0
  161.8780  205.0470  151.5100 C   0  0  2  0  0  3  0  0  0  0  0  0
  161.1410  203.8710  152.0210 C   0  0  0  0  0  2  0  0  0  0  0  0
  162.5210  207.2690  149.6770 N   0  0  0  0  0  1  0  0  0  0  0  0
  161.1390  206.8320  149.8290 C   0  0  1  0  0  3  0  0  0  0  0  0
  160.7650  205.8660  148.7140 C   0  0  0  0  0  2  0  0  0  0  0  0
  161.1390  206.4190  147.4230 N   0  0  0  0  0  2  0  0  0  0  0  0
  162.3980  205.8890  147.0960 N   0  0  0  0  0  0  0  0  0  0  0  0
  162.3210  204.1620  145.7880 C   0  0  2  0  0  3  0  0  0  0  0  0
  162.3140  204.4460  147.2770 C   0  0  0  0  0  2  0  0  0  0  0  0
  162.4070  205.6730  145.6570 C   0  0  0  0  0  2  0  0  0  0  0  0
  160.2430  204.2840  144.4690 C   0  0  0  0  0  2  0  0  0  0  0  0
  160.9850  203.6090  145.3480 C   0  0  0  0  0  0  0  0  0  0  0  0
  160.8570  201.6780  146.9650 N   0  0  0  0  0  1  0  0  0  0  0  0
  160.6220  202.2090  145.6640 C   0  0  0  0  0  0  0  0  0  0  0  0
  160.1030  201.4700  144.7850 O   0  0  0  0  0  0  0  0  0  0  0  0
  1 16  1  6  0  0  0
  1  5  1  0  0  0  0
  3  8  2  0  0  0  0
  3 11  1  0  0  0  0
  4  7  1  0  0  0  0
  5  6  1  0  0  0  0
  6  2  2  0  0  0  0
  8  9  1  0  0  0  0
  9  2  1  0  0  0  0
  9  7  2  0  0  0  0
 10  5  2  0  0  0  0
 10  8  1  0  0  0  0
 11  4  2  0  0  0  0
 12 13  1  0  0  0  0
 12 14  1  0  0  0  0
 13  1  1  6  0  0  0
 13 14  1  0  0  0  0
 16 15  1  6  0  0  0
 17 16  1  0  0  0  0
 18 17  1  0  0  0  0
 19 21  1  0  0  0  0
 19 18  1  0  0  0  0
 20 24  1  6  0  0  0
 20 21  1  0  0  0  0
 22 20  1  0  0  0  0
 22 19  1  0  0  0  0
 23 24  2  0  0  0  0
 24 26  1  0  0  0  0
 26 25  1  0  0  0  0
 27 26  2  0  0  0  0
M  END
>  <MODEL>
5

>  <REMARK>
 VINA RESULT:      -7.5      2.974      8.830
  Name = 
  8 active torsions:
  status: ('A' for Active; 'I' for Inactive)
    1  A    between atoms: N_2  and  N_14
    2  A    between atoms: C_3  and  C_13
    3  A    between atoms: C_10  and  C_19
    4  A    between atoms: C_12  and  C_19
    5  A    between atoms: C_13  and  C_20
    6  A    between atoms: N_14  and  C_15
    7  A    between atoms: C_15  and  C_22
    8  A    between atoms: C_19  and  C_22
                            x       y       z     vdW  Elec       q    Type
                         _______ _______ _______ _____ _____    ______ ____

>  <TORSDO>
F 8

$$$$
=
 OpenBabel11042421333D

 27 30  0  0  1  0  0  0  0  0999 V2000
  160.8840  206.2090  151.1020 C   0  0  2  0  0  3  0  0  0  0  0  0
  160.7990  209.5510  152.9390 C   0  0  0  0  0  3  0  0  0  0  0  0
  160.7980  207.3380  155.8930 C   0  0  0  0  0  3  0  0  0  0  0  0
  160.7510  209.6250  156.5600 N   0  0  0  0  0  0  0  0  0  0  0  0
  160.8560  207.2370  152.1940 C   0  0  0  0  0  0  0  0  0  0  0  0
  160.8310  208.6110  151.9040 C   0  0  0  0  0  3  0  0  0  0  0  0
  160.7630  210.0220  155.2840 N   0  0  0  0  0  0  0  0  0  0  0  0
  160.8110  207.7460  154.5630 C   0  0  0  0  0  0  0  0  0  0  0  0
  160.7920  209.1220  154.2670 C   0  0  0  0  0  0  0  0  0  0  0  0
  160.8420  206.8080  153.5270 C   0  0  0  0  0  3  0  0  0  0  0  0
  160.7680  208.3070  156.8960 C   0  0  0  0  0  3  0  0  0  0  0  0
  161.5440  203.9660  150.5800 O   0  0  0  0  0  0  0  0  0  0  0  0
  161.8310  205.0530  151.4270 C   0  0  2  0  0  3  0  0  0  0  0  0
  161.0640  203.8780  151.8980 C   0  0  0  0  0  2  0  0  0  0  0  0
  162.5300  207.3040  149.6230 N   0  0  0  0  0  1  0  0  0  0  0  0
  161.1510  206.8480  149.7330 C   0  0  1  0  0  3  0  0  0  0  0  0
  160.8260  205.8720  148.6130 C   0  0  0  0  0  2  0  0  0  0  0  0
  161.1280  206.4690  147.3220 N   0  0  0  0  0  2  0  0  0  0  0  0
  162.3800  205.9750  146.9230 N   0  0  0  0  0  0  0  0  0  0  0  0
  162.2790  204.1920  145.6940 C   0  0  2  0  0  3  0  0  0  0  0  0
  162.3700  204.5380  147.1660 C   0  0  0  0  0  2  0  0  0  0  0  0
  162.2920  205.6980  145.4960 C   0  0  0  0  0  2  0  0  0  0  0  0
  160.1170  204.1630  144.5110 C   0  0  0  0  0  2  0  0  0  0  0  0
  160.9390  203.5690  145.3780 C   0  0  0  0  0  0  0  0  0  0  0  0
  160.0810  201.2490  144.8860 N   0  0  0  0  0  1  0  0  0  0  0  0
  160.6490  202.1810  145.8010 C   0  0  0  0  0  0  0  0  0  0  0  0
  160.8990  201.8060  146.9790 O   0  0  0  0  0  0  0  0  0  0  0  0
  1 16  1  6  0  0  0
  1  5  1  0  0  0  0
  2  9  1  0  0  0  0
  3 11  1  0  0  0  0
  4 11  2  0  0  0  0
  5 10  2  0  0  0  0
  6  5  1  0  0  0  0
  6  2  2  0  0  0  0
  7  4  1  0  0  0  0
  8  3  2  0  0  0  0
  9  8  1  0  0  0  0
  9  7  2  0  0  0  0
 10  8  1  0  0  0  0
 12 13  1  0  0  0  0
 12 14  1  0  0  0  0
 13  1  1  6  0  0  0
 13 14  1  0  0  0  0
 16 15  1  1  0  0  0
 17 16  1  0  0  0  0
 18 17  1  0  0  0  0
 19 21  1  0  0  0  0
 19 18  1  0  0  0  0
 20 24  1  1  0  0  0
 20 21  1  0  0  0  0
 22 20  1  0  0  0  0
 22 19  1  0  0  0  0
 23 24  2  0  0  0  0
 24 26  1  0  0  0  0
 25 26  1  0  0  0  0
 26 27  2  0  0  0  0
M  END
>  <MODEL>
6

>  <REMARK>
 VINA RESULT:      -7.4      3.179      8.653
  Name = 
  8 active torsions:
  status: ('A' for Active; 'I' for Inactive)
    1  A    between atoms: N_2  and  N_14
    2  A    between atoms: C_3  and  C_13
    3  A    between atoms: C_10  and  C_19
    4  A    between atoms: C_12  and  C_19
    5  A    between atoms: C_13  and  C_20
    6  A    between atoms: N_14  and  C_15
    7  A    between atoms: C_15  and  C_22
    8  A    between atoms: C_19  and  C_22
                            x       y       z     vdW  Elec       q    Type
                         _______ _______ _______ _____ _____    ______ ____

>  <TORSDO>
F 8

$$$$
=
 OpenBabel11042421333D

 27 30  0  0  1  0  0  0  0  0999 V2000
  161.3430  208.0170  150.5940 C   0  0  2  0  0  3  0  0  0  0  0  0
  161.2510  204.6700  152.4200 C   0  0  0  0  0  3  0  0  0  0  0  0
  160.8840  203.3900  148.9770 C   0  0  0  0  0  3  0  0  0  0  0  0
  160.8840  201.5940  150.5420 N   0  0  0  0  0  0  0  0  0  0  0  0
  161.2660  206.5460  150.8730 C   0  0  0  0  0  0  0  0  0  0  0  0
  161.3310  206.0450  152.1840 C   0  0  0  0  0  3  0  0  0  0  0  0
  161.0280  202.4490  151.5600 N   0  0  0  0  0  0  0  0  0  0  0  0
  161.0340  204.2850  150.0330 C   0  0  0  0  0  0  0  0  0  0  0  0
  161.1050  203.7880  151.3470 C   0  0  0  0  0  0  0  0  0  0  0  0
  161.1130  205.6600  149.7990 C   0  0  0  0  0  3  0  0  0  0  0  0
  160.8100  202.0260  149.2540 C   0  0  0  0  0  3  0  0  0  0  0  0
  161.9100  209.5290  148.8250 O   0  0  0  0  0  0  0  0  0  0  0  0
  162.3100  208.3350  149.4530 C   0  0  2  0  0  3  0  0  0  0  0  0
  161.5950  208.3320  148.1580 C   0  0  0  0  0  2  0  0  0  0  0  0
  162.7140  209.7650  151.6720 N   0  0  0  0  0  1  0  0  0  0  0  0
  161.6250  208.8190  151.8720 C   0  0  1  0  0  3  0  0  0  0  0  0
  160.3710  209.5450  152.3360 C   0  0  0  0  0  2  0  0  0  0  0  0
  160.4530  209.8300  153.7600 N   0  0  0  0  0  2  0  0  0  0  0  0
  160.9200  211.1470  153.8910 N   0  0  0  0  0  0  0  0  0  0  0  0
  159.4070  212.5680  154.5150 C   0  0  2  0  0  3  0  0  0  0  0  0
  159.9590  212.0110  153.2180 C   0  0  0  0  0  2  0  0  0  0  0  0
  160.4270  211.6480  155.1650 C   0  0  0  0  0  2  0  0  0  0  0  0
  157.7200  211.1380  155.6020 C   0  0  0  0  0  2  0  0  0  0  0  0
  157.9830  212.1080  154.7250 C   0  0  0  0  0  0  0  0  0  0  0  0
  157.1100  214.0970  153.4440 N   0  0  0  0  0  1  0  0  0  0  0  0
  156.8600  212.9040  154.1800 C   0  0  0  0  0  0  0  0  0  0  0  0
  155.6680  212.5360  154.3630 O   0  0  0  0  0  0  0  0  0  0  0  0
  1  5  1  0  0  0  0
  1 16  1  1  0  0  0
  3 11  2  0  0  0  0
  3  8  1  0  0  0  0
  4  7  2  0  0  0  0
  5  6  2  0  0  0  0
  6  2  1  0  0  0  0
  8  9  1  0  0  0  0
  9  7  1  0  0  0  0
  9  2  2  0  0  0  0
 10  8  2  0  0  0  0
 10  5  1  0  0  0  0
 11  4  1  0  0  0  0
 12 13  1  0  0  0  0
 13  1  1  1  0  0  0
 14 12  1  0  0  0  0
 14 13  1  0  0  0  0
 16 15  1  6  0  0  0
 16 17  1  0  0  0  0
 17 18  1  0  0  0  0
 18 19  1  0  0  0  0
 19 22  1  0  0  0  0
 20 24  1  1  0  0  0
 20 22  1  0  0  0  0
 21 19  1  0  0  0  0
 21 20  1  0  0  0  0
 24 23  2  0  0  0  0
 25 26  1  0  0  0  0
 26 27  2  0  0  0  0
 26 24  1  0  0  0  0
M  END
>  <MODEL>
7

>  <REMARK>
 VINA RESULT:      -7.1      1.583      2.183
  Name = 
  8 active torsions:
  status: ('A' for Active; 'I' for Inactive)
    1  A    between atoms: N_2  and  N_14
    2  A    between atoms: C_3  and  C_13
    3  A    between atoms: C_10  and  C_19
    4  A    between atoms: C_12  and  C_19
    5  A    between atoms: C_13  and  C_20
    6  A    between atoms: N_14  and  C_15
    7  A    between atoms: C_15  and  C_22
    8  A    between atoms: C_19  and  C_22
                            x       y       z     vdW  Elec       q    Type
                         _______ _______ _______ _____ _____    ______ ____

>  <TORSDO>
F 8

$$$$
=
 OpenBabel11042421333D

 27 30  0  0  1  0  0  0  0  0999 V2000
  161.9820  207.8140  150.1620 C   0  0  2  0  0  3  0  0  0  0  0  0
  161.3730  206.0800  153.5050 C   0  0  0  0  0  3  0  0  0  0  0  0
  160.3040  209.4750  154.4820 C   0  0  0  0  0  3  0  0  0  0  0  0
  160.0930  207.9710  156.3170 N   0  0  0  0  0  0  0  0  0  0  0  0
  161.6030  207.5630  151.5920 C   0  0  0  0  0  0  0  0  0  0  0  0
  161.7260  206.2880  152.1680 C   0  0  0  0  0  3  0  0  0  0  0  0
  160.5460  206.9590  155.5710 N   0  0  0  0  0  0  0  0  0  0  0  0
  160.7770  208.4260  153.7000 C   0  0  0  0  0  0  0  0  0  0  0  0
  160.8960  207.1450  154.2720 C   0  0  0  0  0  0  0  0  0  0  0  0
  161.1310  208.6320  152.3640 C   0  0  0  0  0  3  0  0  0  0  0  0
  159.9610  209.2260  155.8100 C   0  0  0  0  0  3  0  0  0  0  0  0
  162.2140  209.6290  148.6160 O   0  0  0  0  0  0  0  0  0  0  0  0
  161.3840  209.1170  149.6310 C   0  0  2  0  0  3  0  0  0  0  0  0
  162.3100  210.2450  149.8760 C   0  0  0  0  0  2  0  0  0  0  0  0
  160.2410  206.3960  149.1350 N   0  0  0  0  0  1  0  0  0  0  0  0
  161.6770  206.5980  149.2780 C   0  0  1  0  0  3  0  0  0  0  0  0
  162.3270  206.7530  147.9110 C   0  0  0  0  0  2  0  0  0  0  0  0
  161.3910  206.3810  146.8630 N   0  0  0  0  0  2  0  0  0  0  0  0
  162.1520  205.9670  145.7590 N   0  0  0  0  0  0  0  0  0  0  0  0
  162.1800  203.8210  145.4540 C   0  0  2  0  0  3  0  0  0  0  0  0
  162.9870  204.8600  146.2050 C   0  0  0  0  0  2  0  0  0  0  0  0
  161.3410  205.0100  145.0190 C   0  0  0  0  0  2  0  0  0  0  0  0
  161.2180  203.3230  147.6680 C   0  0  0  0  0  2  0  0  0  0  0  0
  161.4550  202.9130  146.4210 C   0  0  0  0  0  0  0  0  0  0  0  0
  159.7550  201.8000  144.9280 N   0  0  0  0  0  1  0  0  0  0  0  0
  160.7680  201.7000  145.9250 C   0  0  0  0  0  0  0  0  0  0  0  0
  161.0700  200.5630  146.3790 O   0  0  0  0  0  0  0  0  0  0  0  0
  1 16  1  6  0  0  0
  1  5  1  0  0  0  0
  2  9  1  0  0  0  0
  3 11  1  0  0  0  0
  5  6  1  0  0  0  0
  5 10  2  0  0  0  0
  6  2  2  0  0  0  0
  7  4  1  0  0  0  0
  8  9  1  0  0  0  0
  8  3  2  0  0  0  0
  9  7  2  0  0  0  0
 10  8  1  0  0  0  0
 11  4  2  0  0  0  0
 12 13  1  0  0  0  0
 12 14  1  0  0  0  0
 13 14  1  0  0  0  0
 13  1  1  1  0  0  0
 16 15  1  6  0  0  0
 17 16  1  0  0  0  0
 18 17  1  0  0  0  0
 19 21  1  0  0  0  0
 19 18  1  0  0  0  0
 20 21  1  0  0  0  0
 20 24  1  1  0  0  0
 22 20  1  0  0  0  0
 22 19  1  0  0  0  0
 24 23  2  0  0  0  0
 25 26  1  0  0  0  0
 26 27  2  0  0  0  0
 26 24  1  0  0  0  0
M  END
>  <MODEL>
8

>  <REMARK>
 VINA RESULT:      -7.1      2.946      8.407
  Name = 
  8 active torsions:
  status: ('A' for Active; 'I' for Inactive)
    1  A    between atoms: N_2  and  N_14
    2  A    between atoms: C_3  and  C_13
    3  A    between atoms: C_10  and  C_19
    4  A    between atoms: C_12  and  C_19
    5  A    between atoms: C_13  and  C_20
    6  A    between atoms: N_14  and  C_15
    7  A    between atoms: C_15  and  C_22
    8  A    between atoms: C_19  and  C_22
                            x       y       z     vdW  Elec       q    Type
                         _______ _______ _______ _____ _____    ______ ____

>  <TORSDO>
F 8

$$$$
=
 OpenBabel11042421333D

 27 30  0  0  1  0  0  0  0  0999 V2000
  161.3400  204.4350  150.6670 C   0  0  2  0  0  3  0  0  0  0  0  0
  160.3270  206.5900  147.6880 C   0  0  0  0  0  3  0  0  0  0  0  0
  161.8410  203.7950  145.8110 C   0  0  0  0  0  3  0  0  0  0  0  0
  161.0250  205.4620  144.3170 N   0  0  0  0  0  0  0  0  0  0  0  0
  161.1310  204.9220  149.2640 C   0  0  0  0  0  0  0  0  0  0  0  0
  160.5060  206.1530  149.0040 C   0  0  0  0  0  3  0  0  0  0  0  0
  160.6010  206.2080  145.3430 N   0  0  0  0  0  0  0  0  0  0  0  0
  161.4010  204.5670  146.8830 C   0  0  0  0  0  0  0  0  0  0  0  0
  160.7700  205.7980  146.6270 C   0  0  0  0  0  0  0  0  0  0  0  0
  161.5800  204.1330  148.1990 C   0  0  0  0  0  3  0  0  0  0  0  0
  161.6410  204.2650  144.5140 C   0  0  0  0  0  3  0  0  0  0  0  0
  161.0800  202.4570  151.9940 O   0  0  0  0  0  0  0  0  0  0  0  0
  160.4600  203.2270  150.9920 C   0  0  2  0  0  3  0  0  0  0  0  0
  161.1760  201.9700  150.6790 C   0  0  0  0  0  2  0  0  0  0  0  0
  161.2100  205.0660  153.0500 N   0  0  0  0  0  1  0  0  0  0  0  0
  161.2110  205.5750  151.6850 C   0  0  1  0  0  3  0  0  0  0  0  0
  162.3290  206.5890  151.5000 C   0  0  0  0  0  2  0  0  0  0  0  0
  162.1980  207.6650  152.4680 N   0  0  0  0  0  2  0  0  0  0  0  0
  161.7080  208.7850  151.7770 N   0  0  0  0  0  0  0  0  0  0  0  0
  161.0520  210.4040  153.0600 C   0  0  2  0  0  3  0  0  0  0  0  0
  160.4570  209.1690  152.4150 C   0  0  0  0  0  2  0  0  0  0  0  0
  162.3310  209.9580  152.3720 C   0  0  0  0  0  2  0  0  0  0  0  0
  162.1580  210.7030  155.2420 C   0  0  0  0  0  2  0  0  0  0  0  0
  161.1060  210.2450  154.5620 C   0  0  0  0  0  0  0  0  0  0  0  0
  158.8000  210.7430  155.4520 N   0  0  0  0  0  1  0  0  0  0  0  0
  159.8930  209.8410  155.3080 C   0  0  0  0  0  0  0  0  0  0  0  0
  159.8130  208.6950  155.8250 O   0  0  0  0  0  0  0  0  0  0  0  0
  1 16  1  1  0  0  0
  2  6  1  0  0  0  0
  3  8  1  0  0  0  0
  4 11  1  0  0  0  0
  4  7  2  0  0  0  0
  5  1  1  0  0  0  0
  6  5  2  0  0  0  0
  7  9  1  0  0  0  0
  8 10  2  0  0  0  0
  9  8  1  0  0  0  0
  9  2  2  0  0  0  0
 10  5  1  0  0  0  0
 11  3  2  0  0  0  0
 13  1  1  6  0  0  0
 13 12  1  0  0  0  0
 14 13  1  0  0  0  0
 14 12  1  0  0  0  0
 16 15  1  1  0  0  0
 17 16  1  0  0  0  0
 17 18  1  0  0  0  0
 19 22  1  0  0  0  0
 19 21  1  0  0  0  0
 19 18  1  0  0  0  0
 20 24  1  1  0  0  0
 21 20  1  0  0  0  0
 22 20  1  0  0  0  0
 24 23  2  0  0  0  0
 24 26  1  0  0  0  0
 26 25  1  0  0  0  0
 26 27  2  0  0  0  0
M  END
>  <MODEL>
9

>  <REMARK>
 VINA RESULT:      -7.1      2.623      3.817
  Name = 
  8 active torsions:
  status: ('A' for Active; 'I' for Inactive)
    1  A    between atoms: N_2  and  N_14
    2  A    between atoms: C_3  and  C_13
    3  A    between atoms: C_10  and  C_19
    4  A    between atoms: C_12  and  C_19
    5  A    between atoms: C_13  and  C_20
    6  A    between atoms: N_14  and  C_15
    7  A    between atoms: C_15  and  C_22
    8  A    between atoms: C_19  and  C_22
                            x       y       z     vdW  Elec       q    Type
                         _______ _______ _______ _____ _____    ______ ____

>  <TORSDO>
F 8

$$$$
