=
 OpenBabel11052409443D

 31 34  0  0  1  0  0  0  0  0999 V2000
  161.3750  207.8110  149.5930 C   0  0  0  0  0  0  0  0  0  0  0  0
  161.1880  207.9820  152.6900 O   0  0  0  0  0  0  0  0  0  0  0  0
  161.6160  209.9200  151.3560 C   0  0  1  0  0  0  0  0  0  0  0  0
  161.2590  205.3200  149.9730 C   0  0  0  0  0  0  0  0  0  0  0  0
  161.3870  203.7050  146.6100 C   0  0  0  0  0  1  0  0  0  0  0  0
  161.2620  202.7450  148.9480 C   0  0  0  0  0  0  0  0  0  0  0  0
  160.6610  209.2510  152.3060 C   0  0  2  0  0  3  0  0  0  0  0  0
  161.1610  205.6270  152.7470 C   0  0  0  0  0  3  0  0  0  0  0  0
  161.5240  209.1050  150.1320 N   0  0  0  0  0  0  0  0  0  0  0  0
  161.1940  210.5650  150.2030 C   0  0  2  0  0  3  0  0  0  0  0  0
  161.2050  204.1950  150.8220 C   0  0  0  0  0  0  0  0  0  0  0  0
  161.2080  202.9450  150.2890 N   0  0  0  0  0  0  0  0  0  0  0  0
  161.3210  203.8550  148.0930 C   0  0  0  0  0  0  0  0  0  0  0  0
  162.9510  210.0280  151.7650 O   0  0  0  0  0  1  0  0  0  0  0  0
  161.1630  204.3540  152.1980 C   0  0  0  0  0  3  0  0  0  0  0  0
  161.2760  207.6890  148.3440 O   0  0  0  0  0  0  0  0  0  0  0  0
  161.2640  206.6390  150.5160 C   0  0  0  0  0  0  0  0  0  0  0  0
  161.1950  206.7770  151.9520 C   0  0  0  0  0  0  0  0  0  0  0  0
  161.3190  205.1050  148.6290 N   0  0  0  0  0  0  0  0  0  0  0  0
  160.4830  210.0860  153.4840 N   0  0  0  0  0  2  0  0  0  0  0  0
  159.4520  211.0720  153.5720 C   0  0  0  0  0  0  0  0  0  0  0  0
  158.6660  211.2680  152.6080 O   0  0  0  0  0  0  0  0  0  0  0  0
  159.3300  211.9000  154.8040 C   0  0  0  0  0  2  0  0  0  0  0  0
  158.5990  211.1450  155.8600 C   0  0  0  0  0  0  0  0  0  0  0  0
  157.2140  211.0560  155.8180 O   0  0  0  0  0  0  0  0  0  0  0  0
  159.2380  210.5600  156.7740 O   0  0  0  0  0  1  0  0  0  0  0  0
  161.7780  212.8270  149.0410 C   0  0  0  0  0  1  0  0  0  0  0  0
  162.2340  211.4320  149.4560 C   0  0  2  0  0  3  0  0  0  0  0  0
  162.7770  210.7170  148.3140 N   0  0  0  0  0  1  0  0  0  0  0  0
  161.2590  200.3140  148.0310 N   0  0  0  0  0  0  0  0  0  0  0  0
  161.2600  201.3960  148.4400 C   0  0  0  0  0  0  0  0  0  0  0  0
  1  9  1  0  0  0  0
  1 17  1  0  0  0  0
  3 14  1  1  0  0  0
  3  7  1  0  0  0  0
  4 17  1  0  0  0  0
  4 11  1  0  0  0  0
  5 13  1  0  0  0  0
  6 12  1  0  0  0  0
  7  2  1  0  0  0  0
  7 20  1  1  0  0  0
  9 10  1  0  0  0  0
  9  3  1  0  0  0  0
 10 28  1  6  0  0  0
 10  3  1  0  0  0  0
 11 15  1  0  0  0  0
 12 11  2  0  0  0  0
 13 19  1  0  0  0  0
 13  6  2  0  0  0  0
 15  8  2  0  0  0  0
 16  1  2  0  0  0  0
 17 18  2  0  0  0  0
 18  2  1  0  0  0  0
 18  8  1  0  0  0  0
 19  4  2  0  0  0  0
 20 21  1  0  0  0  0
 21 23  1  0  0  0  0
 22 21  2  0  0  0  0
 23 24  1  0  0  0  0
 24 26  1  0  0  0  0
 25 24  2  0  0  0  0
 28 27  1  6  0  0  0
 29 28  1  0  0  0  0
 30 31  3  0  0  0  0
 31  6  1  0  0  0  0
M  END
>  <MODEL>
1

>  <REMARK>
 VINA RESULT:      -7.4      0.000      0.000
  Name = 
  5 active torsions:
  status: ('A' for Active; 'I' for Inactive)
    1  A    between atoms: N_3  and  C_9
    2  A    between atoms: C_8  and  C_26
    3  A    between atoms: C_10  and  C_15
    4  A    between atoms: C_13  and  C_28
    5  A    between atoms: C_15  and  C_17
                            x       y       z     vdW  Elec       q    Type
                         _______ _______ _______ _____ _____    ______ ____

>  <TORSDO>
F 5

$$$$
=
 OpenBabel11052409443D

 31 34  0  0  1  0  0  0  0  0999 V2000
  161.2580  205.4460  149.3760 C   0  0  0  0  0  0  0  0  0  0  0  0
  161.4420  204.4850  152.3250 O   0  0  0  0  0  0  0  0  0  0  0  0
  161.7480  206.7840  151.7390 C   0  0  1  0  0  0  0  0  0  0  0  0
  161.1390  202.9830  148.8440 C   0  0  0  0  0  0  0  0  0  0  0  0
  160.8360  202.6900  145.1340 C   0  0  0  0  0  1  0  0  0  0  0  0
  160.9690  200.9500  146.9670 C   0  0  0  0  0  0  0  0  0  0  0  0
  160.8980  205.7950  152.4890 C   0  0  2  0  0  3  0  0  0  0  0  0
  161.3750  202.2690  151.5330 C   0  0  0  0  0  3  0  0  0  0  0  0
  161.4960  206.4620  150.3230 N   0  0  0  0  0  0  0  0  0  0  0  0
  161.2050  207.7910  150.9530 C   0  0  2  0  0  3  0  0  0  0  0  0
  161.1630  201.6260  149.2300 C   0  0  0  0  0  0  0  0  0  0  0  0
  161.0780  200.6530  148.2870 N   0  0  0  0  0  0  0  0  0  0  0  0
  160.9490  202.2950  146.5690 C   0  0  0  0  0  0  0  0  0  0  0  0
  163.1230  206.7700  151.9990 O   0  0  0  0  0  1  0  0  0  0  0  0
  161.2870  201.2780  150.5650 C   0  0  0  0  0  3  0  0  0  0  0  0
  161.0100  205.7790  148.1870 O   0  0  0  0  0  0  0  0  0  0  0  0
  161.2330  204.0170  149.8210 C   0  0  0  0  0  0  0  0  0  0  0  0
  161.3370  203.6280  151.2070 C   0  0  0  0  0  0  0  0  0  0  0  0
  161.0350  203.2670  147.5150 N   0  0  0  0  0  0  0  0  0  0  0  0
  160.8770  206.1460  153.9000 N   0  0  0  0  0  2  0  0  0  0  0  0
  160.5260  207.4530  154.3580 C   0  0  0  0  0  0  0  0  0  0  0  0
  160.2400  208.3650  153.5370 O   0  0  0  0  0  0  0  0  0  0  0  0
  160.5320  207.7490  155.8170 C   0  0  0  0  0  2  0  0  0  0  0  0
  160.8870  209.1760  156.0510 C   0  0  0  0  0  0  0  0  0  0  0  0
  159.8910  210.1020  156.3350 O   0  0  0  0  0  1  0  0  0  0  0  0
  162.0920  209.5390  156.0250 O   0  0  0  0  0  0  0  0  0  0  0  0
  162.1920  210.1860  151.2610 C   0  0  0  0  0  1  0  0  0  0  0  0
  162.1660  208.8930  150.4530 C   0  0  2  0  0  3  0  0  0  0  0  0
  161.9360  209.1800  149.0470 N   0  0  0  0  0  1  0  0  0  0  0  0
  160.8090  199.0120  145.2440 N   0  0  0  0  0  0  0  0  0  0  0  0
  160.8800  199.8750  146.0110 C   0  0  0  0  0  0  0  0  0  0  0  0
  1 17  1  0  0  0  0
  1  9  1  0  0  0  0
  2  7  1  0  0  0  0
  3 14  1  1  0  0  0
  3  7  1  0  0  0  0
  4 11  1  0  0  0  0
  4 17  1  0  0  0  0
  5 13  1  0  0  0  0
  6 12  1  0  0  0  0
  7 20  1  1  0  0  0
  9 10  1  0  0  0  0
  9  3  1  0  0  0  0
 10 28  1  6  0  0  0
 10  3  1  0  0  0  0
 11 15  1  0  0  0  0
 12 11  2  0  0  0  0
 13  6  2  0  0  0  0
 13 19  1  0  0  0  0
 15  8  2  0  0  0  0
 16  1  2  0  0  0  0
 17 18  2  0  0  0  0
 18  8  1  0  0  0  0
 18  2  1  0  0  0  0
 19  4  2  0  0  0  0
 20 21  1  0  0  0  0
 21 23  1  0  0  0  0
 22 21  2  0  0  0  0
 23 24  1  0  0  0  0
 24 25  1  0  0  0  0
 26 24  2  0  0  0  0
 28 27  1  1  0  0  0
 29 28  1  0  0  0  0
 30 31  3  0  0  0  0
 31  6  1  0  0  0  0
M  END
>  <MODEL>
2

>  <REMARK>
 VINA RESULT:      -7.3      2.106      3.052
  Name = 
  5 active torsions:
  status: ('A' for Active; 'I' for Inactive)
    1  A    between atoms: N_3  and  C_9
    2  A    between atoms: C_8  and  C_26
    3  A    between atoms: C_10  and  C_15
    4  A    between atoms: C_13  and  C_28
    5  A    between atoms: C_15  and  C_17
                            x       y       z     vdW  Elec       q    Type
                         _______ _______ _______ _____ _____    ______ ____

>  <TORSDO>
F 5

$$$$
=
 OpenBabel11052409443D

 31 34  0  0  1  0  0  0  0  0999 V2000
  160.9520  205.9790  152.2830 C   0  0  0  0  0  0  0  0  0  0  0  0
  161.1190  207.3190  149.4840 O   0  0  0  0  0  0  0  0  0  0  0  0
  160.9930  204.9420  149.7260 C   0  0  1  0  0  0  0  0  0  0  0  0
  161.3730  208.3110  153.1480 C   0  0  0  0  0  0  0  0  0  0  0  0
  161.3990  208.0950  156.8750 C   0  0  0  0  0  1  0  0  0  0  0  0
  161.7520  210.0330  155.2870 C   0  0  0  0  0  0  0  0  0  0  0  0
  160.3100  206.1760  149.2020 C   0  0  2  0  0  3  0  0  0  0  0  0
  161.5580  209.3630  150.5680 C   0  0  0  0  0  3  0  0  0  0  0  0
  160.9120  205.0900  151.1900 N   0  0  0  0  0  0  0  0  0  0  0  0
  160.3140  203.9510  150.4200 C   0  0  2  0  0  3  0  0  0  0  0  0
  161.6440  209.6800  152.9450 C   0  0  0  0  0  0  0  0  0  0  0  0
  161.8250  210.4990  154.0140 N   0  0  0  0  0  0  0  0  0  0  0  0
  161.4880  208.6720  155.5020 C   0  0  0  0  0  0  0  0  0  0  0  0
  162.3210  204.7340  149.3350 O   0  0  0  0  0  1  0  0  0  0  0  0
  161.7410  210.1950  151.6630 C   0  0  0  0  0  3  0  0  0  0  0  0
  160.7270  205.5240  153.4360 O   0  0  0  0  0  0  0  0  0  0  0  0
  161.1870  207.4360  152.0370 C   0  0  0  0  0  0  0  0  0  0  0  0
  161.2690  208.0030  150.7120 C   0  0  0  0  0  0  0  0  0  0  0  0
  161.3080  207.8550  154.4300 N   0  0  0  0  0  0  0  0  0  0  0  0
  160.1190  206.0520  147.7660 N   0  0  0  0  0  2  0  0  0  0  0  0
  161.1470  206.3760  146.8280 C   0  0  0  0  0  0  0  0  0  0  0  0
  162.2630  206.8080  147.2210 O   0  0  0  0  0  0  0  0  0  0  0  0
  160.8830  206.2350  145.3690 C   0  0  0  0  0  2  0  0  0  0  0  0
  161.1500  204.8360  144.9310 C   0  0  0  0  0  0  0  0  0  0  0  0
  162.3550  204.2250  145.2530 O   0  0  0  0  0  1  0  0  0  0  0  0
  160.2720  204.1940  144.2980 O   0  0  0  0  0  0  0  0  0  0  0  0
  160.5710  201.4090  149.8920 C   0  0  0  0  0  1  0  0  0  0  0  0
  161.0650  202.6230  150.6710 C   0  0  2  0  0  3  0  0  0  0  0  0
  161.1230  202.3230  152.0920 N   0  0  0  0  0  1  0  0  0  0  0  0
  162.1090  211.6840  157.2610 N   0  0  0  0  0  0  0  0  0  0  0  0
  161.9500  210.9490  156.3820 C   0  0  0  0  0  0  0  0  0  0  0  0
  1 16  2  0  0  0  0
  2 18  1  0  0  0  0
  3 14  1  6  0  0  0
  3 10  1  0  0  0  0
  3  9  1  0  0  0  0
  4 19  1  0  0  0  0
  6 13  1  0  0  0  0
  6 31  1  0  0  0  0
  7 20  1  6  0  0  0
  7  2  1  0  0  0  0
  7  3  1  0  0  0  0
  8 18  2  0  0  0  0
  8 15  1  0  0  0  0
  9  1  1  0  0  0  0
 10 28  1  1  0  0  0
 10  9  1  0  0  0  0
 11  4  1  0  0  0  0
 11 12  1  0  0  0  0
 12  6  2  0  0  0  0
 13  5  1  0  0  0  0
 15 11  2  0  0  0  0
 17  1  1  0  0  0  0
 17  4  2  0  0  0  0
 18 17  1  0  0  0  0
 19 13  2  0  0  0  0
 21 22  2  0  0  0  0
 21 20  1  0  0  0  0
 23 21  1  0  0  0  0
 24 25  1  0  0  0  0
 24 23  1  0  0  0  0
 26 24  2  0  0  0  0
 28 27  1  6  0  0  0
 28 29  1  0  0  0  0
 31 30  3  0  0  0  0
M  END
>  <MODEL>
3

>  <REMARK>
 VINA RESULT:      -7.1      3.067      8.503
  Name = 
  5 active torsions:
  status: ('A' for Active; 'I' for Inactive)
    1  A    between atoms: N_3  and  C_9
    2  A    between atoms: C_8  and  C_26
    3  A    between atoms: C_10  and  C_15
    4  A    between atoms: C_13  and  C_28
    5  A    between atoms: C_15  and  C_17
                            x       y       z     vdW  Elec       q    Type
                         _______ _______ _______ _____ _____    ______ ____

>  <TORSDO>
F 5

$$$$
=
 OpenBabel11052409443D

 31 34  0  0  1  0  0  0  0  0999 V2000
  161.5250  207.0740  151.9880 C   0  0  0  0  0  0  0  0  0  0  0  0
  161.3760  209.1870  149.7150 O   0  0  0  0  0  0  0  0  0  0  0  0
  161.3040  209.8240  152.0200 C   0  0  1  0  0  0  0  0  0  0  0  0
  161.3380  205.4030  150.1060 C   0  0  0  0  0  0  0  0  0  0  0  0
  161.4250  202.0090  151.6580 C   0  0  0  0  0  1  0  0  0  0  0  0
  161.1850  202.7690  149.2570 C   0  0  0  0  0  0  0  0  0  0  0  0
  162.0720  209.9120  150.7290 C   0  0  2  0  0  3  0  0  0  0  0  0
  161.1530  207.4160  148.1790 C   0  0  0  0  0  3  0  0  0  0  0  0
  161.4490  208.4130  152.4190 N   0  0  0  0  0  0  0  0  0  0  0  0
  161.9190  209.5770  153.2390 C   0  0  2  0  0  3  0  0  0  0  0  0
  161.1790  205.0830  148.7420 C   0  0  0  0  0  0  0  0  0  0  0  0
  161.1080  203.7820  148.3570 N   0  0  0  0  0  0  0  0  0  0  0  0
  161.3380  203.0750  150.6170 C   0  0  0  0  0  0  0  0  0  0  0  0
  159.9500  210.1780  151.9810 O   0  0  0  0  0  1  0  0  0  0  0  0
  161.0820  206.0860  147.7910 C   0  0  0  0  0  3  0  0  0  0  0  0
  161.7510  206.1780  152.8440 O   0  0  0  0  0  0  0  0  0  0  0  0
  161.4090  206.7640  150.5290 C   0  0  0  0  0  0  0  0  0  0  0  0
  161.3290  207.7890  149.5150 C   0  0  0  0  0  0  0  0  0  0  0  0
  161.4080  204.3770  151.0000 N   0  0  0  0  0  0  0  0  0  0  0  0
  162.2010  211.3060  150.3350 N   0  0  0  0  0  2  0  0  0  0  0  0
  162.0540  211.7340  148.9800 C   0  0  0  0  0  0  0  0  0  0  0  0
  161.8280  210.9000  148.0630 O   0  0  0  0  0  0  0  0  0  0  0  0
  162.2070  213.1770  148.6430 C   0  0  0  0  0  2  0  0  0  0  0  0
  161.7380  213.4320  147.2520 C   0  0  0  0  0  0  0  0  0  0  0  0
  160.3960  213.6930  147.0080 O   0  0  0  0  0  1  0  0  0  0  0  0
  162.5620  213.4460  146.3010 O   0  0  0  0  0  0  0  0  0  0  0  0
  161.0130  211.1860  155.0820 C   0  0  0  0  0  1  0  0  0  0  0  0
  161.0650  209.7720  154.5130 C   0  0  2  0  0  3  0  0  0  0  0  0
  161.4550  208.8260  155.5450 N   0  0  0  0  0  1  0  0  0  0  0  0
  161.0410  200.3150  148.4160 N   0  0  0  0  0  0  0  0  0  0  0  0
  161.1060  201.4080  148.7900 C   0  0  0  0  0  0  0  0  0  0  0  0
  1  9  1  0  0  0  0
  1 16  2  0  0  0  0
  2  7  1  0  0  0  0
  3 14  1  1  0  0  0
  3  9  1  0  0  0  0
  3 10  1  0  0  0  0
  4 17  1  0  0  0  0
  4 19  1  0  0  0  0
  6 13  1  0  0  0  0
  7 20  1  6  0  0  0
  7  3  1  0  0  0  0
  8 18  1  0  0  0  0
  9 10  1  0  0  0  0
 10 28  1  1  0  0  0
 11  4  2  0  0  0  0
 12 11  1  0  0  0  0
 12  6  2  0  0  0  0
 13 19  2  0  0  0  0
 13  5  1  0  0  0  0
 15  8  2  0  0  0  0
 15 11  1  0  0  0  0
 17  1  1  0  0  0  0
 18  2  1  0  0  0  0
 18 17  2  0  0  0  0
 21 20  1  0  0  0  0
 22 21  2  0  0  0  0
 23 21  1  0  0  0  0
 24 23  1  0  0  0  0
 25 24  1  0  0  0  0
 26 24  2  0  0  0  0
 28 27  1  1  0  0  0
 28 29  1  0  0  0  0
 30 31  3  0  0  0  0
 31  6  1  0  0  0  0
M  END
>  <MODEL>
4

>  <REMARK>
 VINA RESULT:      -6.8      2.223      4.875
  Name = 
  5 active torsions:
  status: ('A' for Active; 'I' for Inactive)
    1  A    between atoms: N_3  and  C_9
    2  A    between atoms: C_8  and  C_26
    3  A    between atoms: C_10  and  C_15
    4  A    between atoms: C_13  and  C_28
    5  A    between atoms: C_15  and  C_17
                            x       y       z     vdW  Elec       q    Type
                         _______ _______ _______ _____ _____    ______ ____

>  <TORSDO>
F 5

$$$$
=
 OpenBabel11052409443D

 31 34  0  0  1  0  0  0  0  0999 V2000
  161.2640  207.6270  149.6880 C   0  0  0  0  0  0  0  0  0  0  0  0
  161.2040  207.6600  152.7940 O   0  0  0  0  0  0  0  0  0  0  0  0
  161.5440  209.6620  151.5300 C   0  0  1  0  0  0  0  0  0  0  0  0
  161.2050  205.1200  149.9620 C   0  0  0  0  0  0  0  0  0  0  0  0
  161.2190  203.6540  146.5290 C   0  0  0  0  0  1  0  0  0  0  0  0
  161.2080  202.5920  148.8250 C   0  0  0  0  0  0  0  0  0  0  0  0
  160.6400  208.9350  152.4880 C   0  0  2  0  0  3  0  0  0  0  0  0
  161.2180  205.3050  152.7480 C   0  0  0  0  0  3  0  0  0  0  0  0
  161.4140  208.8980  150.2770 N   0  0  0  0  0  0  0  0  0  0  0  0
  161.0630  210.3480  150.4250 C   0  0  2  0  0  3  0  0  0  0  0  0
  161.2050  203.9580  150.7620 C   0  0  0  0  0  0  0  0  0  0  0  0
  161.2060  202.7330  150.1750 N   0  0  0  0  0  0  0  0  0  0  0  0
  161.2130  203.7400  148.0180 C   0  0  0  0  0  0  0  0  0  0  0  0
  162.8920  209.7760  151.8880 O   0  0  0  0  0  1  0  0  0  0  0  0
  161.2170  204.0570  152.1440 C   0  0  0  0  0  3  0  0  0  0  0  0
  161.1150  207.5570  148.4390 O   0  0  0  0  0  0  0  0  0  0  0  0
  161.2110  206.4140  150.5620 C   0  0  0  0  0  0  0  0  0  0  0  0
  161.1990  206.4880  152.0040 C   0  0  0  0  0  0  0  0  0  0  0  0
  161.2130  204.9640  148.6090 N   0  0  0  0  0  0  0  0  0  0  0  0
  160.4970  209.7150  153.7070 N   0  0  0  0  0  2  0  0  0  0  0  0
  160.4030  209.1060  154.9970 C   0  0  0  0  0  0  0  0  0  0  0  0
  160.4170  207.8520  155.1180 O   0  0  0  0  0  0  0  0  0  0  0  0
  160.2500  209.9620  156.2050 C   0  0  0  0  0  2  0  0  0  0  0  0
  161.4030  210.8990  156.3210 C   0  0  0  0  0  0  0  0  0  0  0  0
  162.6980  210.4340  156.1330 O   0  0  0  0  0  0  0  0  0  0  0  0
  161.2020  212.1190  156.5560 O   0  0  0  0  0  1  0  0  0  0  0  0
  161.5800  212.6850  149.3860 C   0  0  0  0  0  1  0  0  0  0  0  0
  162.0560  211.2660  149.6750 C   0  0  2  0  0  3  0  0  0  0  0  0
  162.5250  210.6310  148.4550 N   0  0  0  0  0  1  0  0  0  0  0  0
  161.2060  200.2030  147.8020 N   0  0  0  0  0  0  0  0  0  0  0  0
  161.2070  201.2670  148.2580 C   0  0  0  0  0  0  0  0  0  0  0  0
  1  9  1  0  0  0  0
  1 17  1  0  0  0  0
  3 14  1  1  0  0  0
  3  7  1  0  0  0  0
  4 17  1  0  0  0  0
  4 11  1  0  0  0  0
  5 13  1  0  0  0  0
  6 12  1  0  0  0  0
  7  2  1  0  0  0  0
  7 20  1  1  0  0  0
  9 10  1  0  0  0  0
  9  3  1  0  0  0  0
 10 28  1  6  0  0  0
 10  3  1  0  0  0  0
 11 15  1  0  0  0  0
 12 11  2  0  0  0  0
 13 19  1  0  0  0  0
 13  6  2  0  0  0  0
 15  8  2  0  0  0  0
 16  1  2  0  0  0  0
 17 18  2  0  0  0  0
 18  8  1  0  0  0  0
 18  2  1  0  0  0  0
 19  4  2  0  0  0  0
 20 21  1  0  0  0  0
 21 22  2  0  0  0  0
 21 23  1  0  0  0  0
 23 24  1  0  0  0  0
 24 26  1  0  0  0  0
 25 24  2  0  0  0  0
 28 27  1  6  0  0  0
 29 28  1  0  0  0  0
 30 31  3  0  0  0  0
 31  6  1  0  0  0  0
M  END
>  <MODEL>
5

>  <REMARK>
 VINA RESULT:      -6.7      1.426      1.621
  Name = 
  5 active torsions:
  status: ('A' for Active; 'I' for Inactive)
    1  A    between atoms: N_3  and  C_9
    2  A    between atoms: C_8  and  C_26
    3  A    between atoms: C_10  and  C_15
    4  A    between atoms: C_13  and  C_28
    5  A    between atoms: C_15  and  C_17
                            x       y       z     vdW  Elec       q    Type
                         _______ _______ _______ _____ _____    ______ ____

>  <TORSDO>
F 5

$$$$
=
 OpenBabel11052409443D

 31 34  0  0  1  0  0  0  0  0999 V2000
  160.9430  209.0060  152.3640 C   0  0  0  0  0  0  0  0  0  0  0  0
  161.8710  206.3840  150.9800 O   0  0  0  0  0  0  0  0  0  0  0  0
  161.3640  206.4510  153.3160 C   0  0  1  0  0  0  0  0  0  0  0  0
  161.5010  210.0790  150.1500 C   0  0  0  0  0  0  0  0  0  0  0  0
  160.7260  213.7150  150.4810 C   0  0  0  0  0  1  0  0  0  0  0  0
  161.6700  212.3500  148.5710 C   0  0  0  0  0  0  0  0  0  0  0  0
  160.9850  205.8780  151.9780 C   0  0  2  0  0  3  0  0  0  0  0  0
  162.3620  207.6570  149.0590 C   0  0  0  0  0  3  0  0  0  0  0  0
  161.0040  207.8750  153.2030 N   0  0  0  0  0  0  0  0  0  0  0  0
  160.4230  206.9340  154.2150 C   0  0  2  0  0  3  0  0  0  0  0  0
  161.9990  210.0180  148.8320 C   0  0  0  0  0  0  0  0  0  0  0  0
  162.0690  211.1490  148.0830 N   0  0  0  0  0  0  0  0  0  0  0  0
  161.1770  212.4250  149.8820 C   0  0  0  0  0  0  0  0  0  0  0  0
  162.7000  206.3210  153.7110 O   0  0  0  0  0  1  0  0  0  0  0  0
  162.4300  208.8140  148.2980 C   0  0  0  0  0  3  0  0  0  0  0  0
  160.4220  210.0610  152.8150 O   0  0  0  0  0  0  0  0  0  0  0  0
  161.4260  208.9020  150.9530 C   0  0  0  0  0  0  0  0  0  0  0  0
  161.8600  207.6560  150.3640 C   0  0  0  0  0  0  0  0  0  0  0  0
  161.1090  211.2920  150.6300 N   0  0  0  0  0  0  0  0  0  0  0  0
  161.0790  204.4270  152.0280 N   0  0  0  0  0  2  0  0  0  0  0  0
  160.9930  203.6150  150.8540 C   0  0  0  0  0  0  0  0  0  0  0  0
  160.8070  204.1380  149.7240 O   0  0  0  0  0  0  0  0  0  0  0  0
  161.0890  202.1340  150.9760 C   0  0  0  0  0  2  0  0  0  0  0  0
  160.6370  201.4850  149.7140 C   0  0  0  0  0  0  0  0  0  0  0  0
  159.2820  201.4080  149.4180 O   0  0  0  0  0  1  0  0  0  0  0  0
  161.4830  201.0340  148.8990 O   0  0  0  0  0  0  0  0  0  0  0  0
  159.9360  206.9340  156.7780 C   0  0  0  0  0  1  0  0  0  0  0  0
  160.9100  207.2490  155.6470 C   0  0  2  0  0  3  0  0  0  0  0  0
  161.3710  208.6240  155.7460 N   0  0  0  0  0  1  0  0  0  0  0  0
  161.8430  214.4530  147.0550 N   0  0  0  0  0  0  0  0  0  0  0  0
  161.7650  213.5160  147.7300 C   0  0  0  0  0  0  0  0  0  0  0  0
  1 16  2  0  0  0  0
  1  9  1  0  0  0  0
  2  7  1  0  0  0  0
  3 14  1  1  0  0  0
  3 10  1  0  0  0  0
  4 19  1  0  0  0  0
  4 17  1  0  0  0  0
  6 13  1  0  0  0  0
  7 20  1  1  0  0  0
  7  3  1  0  0  0  0
  8 18  1  0  0  0  0
  9  3  1  0  0  0  0
  9 10  1  0  0  0  0
 10 28  1  1  0  0  0
 11  4  2  0  0  0  0
 12  6  2  0  0  0  0
 12 11  1  0  0  0  0
 13  5  1  0  0  0  0
 13 19  2  0  0  0  0
 15 11  1  0  0  0  0
 15  8  2  0  0  0  0
 17  1  1  0  0  0  0
 18 17  2  0  0  0  0
 18  2  1  0  0  0  0
 21 23  1  0  0  0  0
 21 20  1  0  0  0  0
 22 21  2  0  0  0  0
 24 23  1  0  0  0  0
 25 24  1  0  0  0  0
 26 24  2  0  0  0  0
 28 29  1  0  0  0  0
 28 27  1  1  0  0  0
 30 31  3  0  0  0  0
 31  6  1  0  0  0  0
M  END
>  <MODEL>
6

>  <REMARK>
 VINA RESULT:      -5.9      2.681      7.887
  Name = 
  5 active torsions:
  status: ('A' for Active; 'I' for Inactive)
    1  A    between atoms: N_3  and  C_9
    2  A    between atoms: C_8  and  C_26
    3  A    between atoms: C_10  and  C_15
    4  A    between atoms: C_13  and  C_28
    5  A    between atoms: C_15  and  C_17
                            x       y       z     vdW  Elec       q    Type
                         _______ _______ _______ _____ _____    ______ ____

>  <TORSDO>
F 5

$$$$
=
 OpenBabel11052409443D

 31 34  0  0  1  0  0  0  0  0999 V2000
  160.8210  204.7490  151.1460 C   0  0  0  0  0  0  0  0  0  0  0  0
  161.5710  205.9780  148.3930 O   0  0  0  0  0  0  0  0  0  0  0  0
  161.2840  203.6200  148.6710 C   0  0  1  0  0  0  0  0  0  0  0  0
  161.1890  207.0900  152.0110 C   0  0  0  0  0  0  0  0  0  0  0  0
  160.5110  207.0080  155.6810 C   0  0  0  0  0  1  0  0  0  0  0  0
  161.2490  208.8700  154.1350 C   0  0  0  0  0  0  0  0  0  0  0  0
  160.7730  204.8630  147.9960 C   0  0  2  0  0  3  0  0  0  0  0  0
  161.9030  208.0390  149.4840 C   0  0  0  0  0  3  0  0  0  0  0  0
  160.9400  203.8240  150.0890 N   0  0  0  0  0  0  0  0  0  0  0  0
  160.4390  202.6850  149.2530 C   0  0  2  0  0  3  0  0  0  0  0  0
  161.5610  208.4380  151.8250 C   0  0  0  0  0  0  0  0  0  0  0  0
  161.5810  209.2860  152.8860 N   0  0  0  0  0  0  0  0  0  0  0  0
  160.8820  207.5300  154.3340 C   0  0  0  0  0  0  0  0  0  0  0  0
  162.6490  203.3390  148.5410 O   0  0  0  0  0  1  0  0  0  0  0  0
  161.9200  208.9010  150.5700 C   0  0  0  0  0  3  0  0  0  0  0  0
  160.3630  204.3460  152.2480 O   0  0  0  0  0  0  0  0  0  0  0  0
  161.1690  206.1840  150.9090 C   0  0  0  0  0  0  0  0  0  0  0  0
  161.5240  206.6990  149.6080 C   0  0  0  0  0  0  0  0  0  0  0  0
  160.8650  206.6840  153.2700 N   0  0  0  0  0  0  0  0  0  0  0  0
  160.8460  204.6960  146.5530 N   0  0  0  0  0  2  0  0  0  0  0  0
  162.0560  204.8990  145.8200 C   0  0  0  0  0  0  0  0  0  0  0  0
  163.1110  205.2580  146.4090 O   0  0  0  0  0  0  0  0  0  0  0  0
  162.0610  204.7190  144.3420 C   0  0  0  0  0  2  0  0  0  0  0  0
  161.3400  205.8440  143.6850 C   0  0  0  0  0  0  0  0  0  0  0  0
  161.5730  206.1320  142.3470 O   0  0  0  0  0  0  0  0  0  0  0  0
  160.4940  206.5150  144.3320 O   0  0  0  0  0  1  0  0  0  0  0  0
  161.5770  200.4450  148.5500 C   0  0  0  0  0  1  0  0  0  0  0  0
  161.0640  201.3360  149.6760 C   0  0  2  0  0  3  0  0  0  0  0  0
  160.1550  200.5930  150.5330 N   0  0  0  0  0  1  0  0  0  0  0  0
  161.3170  210.5730  156.0960 N   0  0  0  0  0  0  0  0  0  0  0  0
  161.2860  209.8150  155.2220 C   0  0  0  0  0  0  0  0  0  0  0  0
  1 16  2  0  0  0  0
  2 18  1  0  0  0  0
  3 14  1  6  0  0  0
  3 10  1  0  0  0  0
  3  9  1  0  0  0  0
  4 19  1  0  0  0  0
  6 13  1  0  0  0  0
  6 31  1  0  0  0  0
  7 20  1  6  0  0  0
  7  2  1  0  0  0  0
  7  3  1  0  0  0  0
  8 18  2  0  0  0  0
  8 15  1  0  0  0  0
  9  1  1  0  0  0  0
 10 28  1  1  0  0  0
 10  9  1  0  0  0  0
 11  4  1  0  0  0  0
 11 12  1  0  0  0  0
 12  6  2  0  0  0  0
 13  5  1  0  0  0  0
 15 11  2  0  0  0  0
 17  1  1  0  0  0  0
 17  4  2  0  0  0  0
 18 17  1  0  0  0  0
 19 13  2  0  0  0  0
 21 22  2  0  0  0  0
 21 20  1  0  0  0  0
 23 21  1  0  0  0  0
 24 26  1  0  0  0  0
 24 23  1  0  0  0  0
 25 24  2  0  0  0  0
 28 27  1  6  0  0  0
 28 29  1  0  0  0  0
 31 30  3  0  0  0  0
M  END
>  <MODEL>
7

>  <REMARK>
 VINA RESULT:      -5.2      3.321      8.678
  Name = 
  5 active torsions:
  status: ('A' for Active; 'I' for Inactive)
    1  A    between atoms: N_3  and  C_9
    2  A    between atoms: C_8  and  C_26
    3  A    between atoms: C_10  and  C_15
    4  A    between atoms: C_13  and  C_28
    5  A    between atoms: C_15  and  C_17
                            x       y       z     vdW  Elec       q    Type
                         _______ _______ _______ _____ _____    ______ ____

>  <TORSDO>
F 5

$$$$
=
 OpenBabel11052409443D

 31 34  0  0  1  0  0  0  0  0999 V2000
  161.6190  206.6270  148.7090 C   0  0  0  0  0  0  0  0  0  0  0  0
  161.2990  203.5980  149.3270 O   0  0  0  0  0  0  0  0  0  0  0  0
  161.4290  204.4080  147.0800 C   0  0  1  0  0  0  0  0  0  0  0  0
  161.2580  206.9160  151.1890 C   0  0  0  0  0  0  0  0  0  0  0  0
  161.4430  210.5770  151.8920 C   0  0  0  0  0  1  0  0  0  0  0  0
  161.0080  208.5840  153.3880 C   0  0  0  0  0  0  0  0  0  0  0  0
  162.0860  203.5620  148.1360 C   0  0  2  0  0  3  0  0  0  0  0  0
  160.9300  204.1700  151.5820 C   0  0  0  0  0  3  0  0  0  0  0  0
  161.5930  205.7840  147.5800 N   0  0  0  0  0  0  0  0  0  0  0  0
  162.1420  205.2860  146.2770 C   0  0  2  0  0  3  0  0  0  0  0  0
  160.9810  206.3980  152.4720 C   0  0  0  0  0  0  0  0  0  0  0  0
  160.8650  207.2420  153.5300 N   0  0  0  0  0  0  0  0  0  0  0  0
  161.2790  209.1110  152.1170 C   0  0  0  0  0  0  0  0  0  0  0  0
  160.0800  204.1520  146.8060 O   0  0  0  0  0  1  0  0  0  0  0  0
  160.8140  205.0360  152.6590 C   0  0  0  0  0  3  0  0  0  0  0  0
  161.9080  207.8420  148.5460 O   0  0  0  0  0  0  0  0  0  0  0  0
  161.3770  206.0440  150.0660 C   0  0  0  0  0  0  0  0  0  0  0  0
  161.2220  204.6270  150.2930 C   0  0  0  0  0  0  0  0  0  0  0  0
  161.3930  208.2650  151.0600 N   0  0  0  0  0  0  0  0  0  0  0  0
  162.1940  202.1910  147.6620 N   0  0  0  0  0  2  0  0  0  0  0  0
  161.2060  201.2010  147.9540 C   0  0  0  0  0  0  0  0  0  0  0  0
  160.2050  201.4830  148.6640 O   0  0  0  0  0  0  0  0  0  0  0  0
  161.3830  199.8130  147.4440 C   0  0  0  0  0  2  0  0  0  0  0  0
  161.0030  199.7420  146.0050 C   0  0  0  0  0  0  0  0  0  0  0  0
  160.4560  200.8520  145.3750 O   0  0  0  0  0  1  0  0  0  0  0  0
  161.2070  198.6860  145.3500 O   0  0  0  0  0  0  0  0  0  0  0  0
  159.9210  206.2030  145.2610 C   0  0  0  0  0  1  0  0  0  0  0  0
  161.4010  205.8950  145.0640 C   0  0  2  0  0  3  0  0  0  0  0  0
  161.5940  205.0780  143.8780 N   0  0  0  0  0  1  0  0  0  0  0  0
  160.7690  210.1100  155.4780 N   0  0  0  0  0  0  0  0  0  0  0  0
  160.8760  209.4300  154.5470 C   0  0  0  0  0  0  0  0  0  0  0  0
  1 17  1  0  0  0  0
  2 18  1  0  0  0  0
  3 14  1  6  0  0  0
  3  9  1  0  0  0  0
  3  7  1  0  0  0  0
  4 11  1  0  0  0  0
  5 13  1  0  0  0  0
  6 12  1  0  0  0  0
  6 31  1  0  0  0  0
  7 20  1  6  0  0  0
  7  2  1  0  0  0  0
  8 15  2  0  0  0  0
  9  1  1  0  0  0  0
 10 28  1  6  0  0  0
 10  3  1  0  0  0  0
 10  9  1  0  0  0  0
 11 15  1  0  0  0  0
 11 12  2  0  0  0  0
 13  6  2  0  0  0  0
 16  1  2  0  0  0  0
 17 18  2  0  0  0  0
 17  4  1  0  0  0  0
 18  8  1  0  0  0  0
 19  4  2  0  0  0  0
 19 13  1  0  0  0  0
 20 21  1  0  0  0  0
 21 22  2  0  0  0  0
 23 21  1  0  0  0  0
 24 23  1  0  0  0  0
 25 24  1  0  0  0  0
 26 24  2  0  0  0  0
 28 27  1  1  0  0  0
 29 28  1  0  0  0  0
 31 30  3  0  0  0  0
M  END
>  <MODEL>
8

>  <REMARK>
 VINA RESULT:      -5.2      3.282      8.433
  Name = 
  5 active torsions:
  status: ('A' for Active; 'I' for Inactive)
    1  A    between atoms: N_3  and  C_9
    2  A    between atoms: C_8  and  C_26
    3  A    between atoms: C_10  and  C_15
    4  A    between atoms: C_13  and  C_28
    5  A    between atoms: C_15  and  C_17
                            x       y       z     vdW  Elec       q    Type
                         _______ _______ _______ _____ _____    ______ ____

>  <TORSDO>
F 5

$$$$
=
 OpenBabel11052409443D

 31 34  0  0  1  0  0  0  0  0999 V2000
  160.6430  207.8630  152.4450 C   0  0  0  0  0  0  0  0  0  0  0  0
  162.0610  208.7050  149.8120 O   0  0  0  0  0  0  0  0  0  0  0  0
  162.0650  206.4340  150.5610 C   0  0  1  0  0  0  0  0  0  0  0  0
  160.3400  210.3450  152.7820 C   0  0  0  0  0  0  0  0  0  0  0  0
  158.5100  210.7840  156.0060 C   0  0  0  0  0  1  0  0  0  0  0  0
  159.4210  212.4500  154.3340 C   0  0  0  0  0  0  0  0  0  0  0  0
  161.6200  207.3880  149.4850 C   0  0  2  0  0  3  0  0  0  0  0  0
  161.6930  210.9520  150.4160 C   0  0  0  0  0  3  0  0  0  0  0  0
  161.2450  206.8110  151.7250 N   0  0  0  0  0  0  0  0  0  0  0  0
  161.2300  205.4570  151.0830 C   0  0  2  0  0  3  0  0  0  0  0  0
  160.5410  211.6850  152.3900 C   0  0  0  0  0  0  0  0  0  0  0  0
  160.0780  212.6940  153.1710 N   0  0  0  0  0  0  0  0  0  0  0  0
  159.2200  211.1220  154.7380 C   0  0  0  0  0  0  0  0  0  0  0  0
  163.4220  206.4460  150.9020 O   0  0  0  0  0  1  0  0  0  0  0  0
  161.2180  211.9800  151.2180 C   0  0  0  0  0  3  0  0  0  0  0  0
  159.9140  207.5760  153.4320 O   0  0  0  0  0  0  0  0  0  0  0  0
  160.8240  209.2720  151.9760 C   0  0  0  0  0  0  0  0  0  0  0  0
  161.5060  209.6070  150.7480 C   0  0  0  0  0  0  0  0  0  0  0  0
  159.6850  210.1130  153.9540 N   0  0  0  0  0  0  0  0  0  0  0  0
  162.1900  206.9810  148.2100 N   0  0  0  0  0  2  0  0  0  0  0  0
  161.4520  206.2210  147.2510 C   0  0  0  0  0  0  0  0  0  0  0  0
  160.2720  205.8530  147.4940 O   0  0  0  0  0  0  0  0  0  0  0  0
  162.0980  205.8290  145.9680 C   0  0  0  0  0  2  0  0  0  0  0  0
  161.4750  204.5850  145.4370 C   0  0  0  0  0  0  0  0  0  0  0  0
  160.4560  204.6650  144.4960 O   0  0  0  0  0  0  0  0  0  0  0  0
  161.8920  203.4590  145.8140 O   0  0  0  0  0  1  0  0  0  0  0  0
  161.9400  202.9670  151.4130 C   0  0  0  0  0  1  0  0  0  0  0  0
  161.8790  204.3800  151.9840 C   0  0  2  0  0  3  0  0  0  0  0  0
  161.2620  204.3680  153.2990 N   0  0  0  0  0  1  0  0  0  0  0  0
  158.5750  214.4530  155.7550 N   0  0  0  0  0  0  0  0  0  0  0  0
  158.9520  213.5610  155.1220 C   0  0  0  0  0  0  0  0  0  0  0  0
  1 16  2  0  0  0  0
  2 18  1  0  0  0  0
  3 14  1  1  0  0  0
  3 10  1  0  0  0  0
  3  9  1  0  0  0  0
  4 19  1  0  0  0  0
  6 13  1  0  0  0  0
  6 31  1  0  0  0  0
  7 20  1  6  0  0  0
  7  2  1  0  0  0  0
  7  3  1  0  0  0  0
  8 18  2  0  0  0  0
  8 15  1  0  0  0  0
  9  1  1  0  0  0  0
 10  9  1  0  0  0  0
 10 28  1  1  0  0  0
 11  4  1  0  0  0  0
 11 12  1  0  0  0  0
 12  6  2  0  0  0  0
 13  5  1  0  0  0  0
 15 11  2  0  0  0  0
 17  1  1  0  0  0  0
 17  4  2  0  0  0  0
 18 17  1  0  0  0  0
 19 13  2  0  0  0  0
 21 22  2  0  0  0  0
 21 20  1  0  0  0  0
 23 21  1  0  0  0  0
 24 26  1  0  0  0  0
 24 23  1  0  0  0  0
 25 24  2  0  0  0  0
 28 27  1  6  0  0  0
 28 29  1  0  0  0  0
 31 30  3  0  0  0  0
M  END
>  <MODEL>
9

>  <REMARK>
 VINA RESULT:      -4.6      2.555      8.720
  Name = 
  5 active torsions:
  status: ('A' for Active; 'I' for Inactive)
    1  A    between atoms: N_3  and  C_9
    2  A    between atoms: C_8  and  C_26
    3  A    between atoms: C_10  and  C_15
    4  A    between atoms: C_13  and  C_28
    5  A    between atoms: C_15  and  C_17
                            x       y       z     vdW  Elec       q    Type
                         _______ _______ _______ _____ _____    ______ ____

>  <TORSDO>
F 5

$$$$
