=
 OpenBabel11052411053D

 34 39  0  0  1  0  0  0  0  0999 V2000
  160.5760  206.8010  155.8030 N   0  0  0  0  0  0  0  0  0  0  0  0
  161.1070  208.5710  157.2580 N   0  0  0  0  0  0  0  0  0  0  0  0
  160.6490  207.3070  157.0590 C   0  0  0  0  0  3  0  0  0  0  0  0
  161.9540  210.7480  156.4870 C   0  0  0  0  0  1  0  0  0  0  0  0
  160.9430  207.5370  154.7140 C   0  0  0  0  0  0  0  0  0  0  0  0
  161.4760  209.3600  156.2120 C   0  0  0  0  0  0  0  0  0  0  0  0
  161.3680  208.8760  154.9020 C   0  0  0  0  0  0  0  0  0  0  0  0
  161.2530  204.8410  152.0840 C   0  0  0  0  0  3  0  0  0  0  0  0
  161.0880  205.5720  150.8990 C   0  0  0  0  0  0  0  0  0  0  0  0
  161.1940  205.4820  153.3250 C   0  0  0  0  0  3  0  0  0  0  0  0
  160.9030  206.9620  150.9700 C   0  0  0  0  0  3  0  0  0  0  0  0
  160.8450  207.6030  152.2100 C   0  0  0  0  0  3  0  0  0  0  0  0
  160.9580  206.8630  153.3980 C   0  0  0  0  0  0  0  0  0  0  0  0
  161.5570  205.6110  148.4290 N   0  0  0  0  0  2  0  0  0  0  0  0
  161.1310  204.8950  149.5920 C   0  0  0  0  0  0  0  0  0  0  0  0
  160.8060  203.6810  149.5000 O   0  0  0  0  0  0  0  0  0  0  0  0
  160.9120  205.8490  146.2030 O   0  0  0  0  0  0  0  0  0  0  0  0
  161.5680  204.9980  147.1130 C   0  0  1  0  0  3  0  0  0  0  0  0
  162.3150  205.8540  146.1650 C   0  0  0  0  0  2  0  0  0  0  0  0
  161.6130  209.7770  153.8140 N   0  0  0  0  0  2  0  0  0  0  0  0
  159.6450  210.5290  152.8920 C   0  0  2  0  0  3  0  0  0  0  0  0
  160.8630  210.9430  153.6120 N   0  0  0  0  0  0  0  0  0  0  0  0
  160.7600  211.1150  152.1520 C   0  0  0  0  0  2  0  0  0  0  0  0
  157.4820  213.5810  152.3890 N   0  0  0  0  0  0  0  0  0  0  0  0
  157.5380  211.3770  154.0090 O   0  0  0  0  0  0  0  0  0  0  0  0
  156.6670  212.4440  154.3990 C   0  0  2  0  0  3  0  0  0  0  0  0
  158.5490  212.6310  152.2820 C   0  0  0  0  0  3  0  0  0  0  0  0
  158.5650  211.5530  153.0690 C   0  0  0  0  0  0  0  0  0  0  0  0
  155.5180  214.4520  153.3530 N   0  0  0  0  0  1  0  0  0  0  0  0
  156.5680  213.4910  153.3140 C   0  0  0  0  0  0  0  0  0  0  0  0
  155.6960  211.4350  156.7710 C   0  0  0  0  0  1  0  0  0  0  0  0
  156.7270  212.4470  156.9550 N   0  0  0  0  0  0  0  0  0  0  0  0
  157.2050  213.0770  155.6900 C   0  0  2  0  0  3  0  0  0  0  0  0
  156.1360  213.7000  156.4610 C   0  0  0  0  0  2  0  0  0  0  0  0
  1  3  1  0  0  0  0
  3  2  2  0  0  0  0
  5  7  1  0  0  0  0
  5  1  2  0  0  0  0
  6  4  1  0  0  0  0
  6  2  1  0  0  0  0
  7  6  2  0  0  0  0
  8 10  1  0  0  0  0
  9 11  1  0  0  0  0
  9  8  2  0  0  0  0
 10 13  2  0  0  0  0
 11 12  2  0  0  0  0
 12 13  1  0  0  0  0
 13  5  1  0  0  0  0
 14 15  1  0  0  0  0
 15  9  1  0  0  0  0
 16 15  2  0  0  0  0
 17 18  1  0  0  0  0
 18 14  1  1  0  0  0
 19 17  1  0  0  0  0
 19 18  1  0  0  0  0
 20  7  1  0  0  0  0
 21 28  1  1  0  0  0
 21 22  1  0  0  0  0
 22 20  1  0  0  0  0
 23 21  1  0  0  0  0
 23 22  1  0  0  0  0
 24 30  2  0  0  0  0
 25 26  1  0  0  0  0
 26 30  1  6  0  0  0
 26 33  1  0  0  0  0
 27 24  1  0  0  0  0
 27 28  2  0  0  0  0
 28 25  1  0  0  0  0
 30 29  1  0  0  0  0
 31 32  1  0  0  0  0
 33 34  1  1  0  0  0
 33 32  1  0  0  0  0
 34 32  1  0  0  0  0
M  END
>  <MODEL>
1

>  <REMARK>
 VINA RESULT:      -8.0      0.000      0.000
  Name = 
  7 active torsions:
  status: ('A' for Active; 'I' for Inactive)
    1  A    between atoms: C_8  and  C_15
    2  A    between atoms: C_9  and  C_18
    3  A    between atoms: N_10  and  N_32
    4  A    between atoms: N_11  and  C_26
    5  A    between atoms: C_13  and  C_16
    6  A    between atoms: C_25  and  C_31
    7  A    between atoms: N_32  and  C_34
                            x       y       z     vdW  Elec       q    Type
                         _______ _______ _______ _____ _____    ______ ____

>  <TORSDO>
F 7

$$$$
=
 OpenBabel11052411053D

 34 39  0  0  1  0  0  0  0  0999 V2000
  160.6570  207.3760  154.9600 N   0  0  0  0  0  0  0  0  0  0  0  0
  160.6600  208.8280  156.8110 N   0  0  0  0  0  0  0  0  0  0  0  0
  160.5250  207.5770  156.2950 C   0  0  0  0  0  3  0  0  0  0  0  0
  161.0240  211.2530  156.6270 C   0  0  0  0  0  1  0  0  0  0  0  0
  160.9140  208.4080  154.1040 C   0  0  0  0  0  0  0  0  0  0  0  0
  160.9030  209.8990  156.0090 C   0  0  0  0  0  0  0  0  0  0  0  0
  161.0000  209.7240  154.6220 C   0  0  0  0  0  0  0  0  0  0  0  0
  161.1470  206.4660  150.8710 C   0  0  0  0  0  3  0  0  0  0  0  0
  161.7500  207.3990  150.0150 C   0  0  0  0  0  0  0  0  0  0  0  0
  160.8660  206.8010  152.1980 C   0  0  0  0  0  3  0  0  0  0  0  0
  162.1040  208.6620  150.5170 C   0  0  0  0  0  3  0  0  0  0  0  0
  161.8250  208.9960  151.8450 C   0  0  0  0  0  3  0  0  0  0  0  0
  161.1750  208.0800  152.6860 C   0  0  0  0  0  0  0  0  0  0  0  0
  161.4340  205.8910  148.0280 N   0  0  0  0  0  2  0  0  0  0  0  0
  162.0290  207.0540  148.6110 C   0  0  0  0  0  0  0  0  0  0  0  0
  162.7820  207.7900  147.9180 O   0  0  0  0  0  0  0  0  0  0  0  0
  162.9150  204.7400  146.6460 O   0  0  0  0  0  0  0  0  0  0  0  0
  161.7200  205.4850  146.6640 C   0  0  1  0  0  3  0  0  0  0  0  0
  161.7190  204.0090  146.5660 C   0  0  0  0  0  2  0  0  0  0  0  0
  161.1000  210.8860  153.7870 N   0  0  0  0  0  2  0  0  0  0  0  0
  159.9550  212.6010  152.7710 C   0  0  2  0  0  3  0  0  0  0  0  0
  160.2030  211.1490  152.7440 N   0  0  0  0  0  0  0  0  0  0  0  0
  158.9870  211.6890  153.3770 C   0  0  0  0  0  2  0  0  0  0  0  0
  157.6290  213.4640  149.9260 N   0  0  0  0  0  0  0  0  0  0  0  0
  160.2970  213.6620  150.4990 O   0  0  0  0  0  0  0  0  0  0  0  0
  159.9130  213.8560  149.1340 C   0  0  2  0  0  3  0  0  0  0  0  0
  158.1430  212.9570  151.1640 C   0  0  0  0  0  3  0  0  0  0  0  0
  159.4450  213.0660  151.4410 C   0  0  0  0  0  0  0  0  0  0  0  0
  157.8370  214.4510  147.7990 N   0  0  0  0  0  1  0  0  0  0  0  0
  158.4110  213.9370  148.9970 C   0  0  0  0  0  0  0  0  0  0  0  0
  162.4000  214.1900  147.9970 C   0  0  0  0  0  1  0  0  0  0  0  0
  161.8370  212.8660  147.7730 N   0  0  0  0  0  0  0  0  0  0  0  0
  160.4530  212.6870  148.2980 C   0  0  2  0  0  3  0  0  0  0  0  0
  160.6650  213.0810  146.9100 C   0  0  0  0  0  2  0  0  0  0  0  0
  1  3  1  0  0  0  0
  3  2  2  0  0  0  0
  5  7  1  0  0  0  0
  5  1  2  0  0  0  0
  6  4  1  0  0  0  0
  6  2  1  0  0  0  0
  7  6  2  0  0  0  0
  8 10  1  0  0  0  0
  9 11  1  0  0  0  0
  9  8  2  0  0  0  0
 10 13  2  0  0  0  0
 11 12  2  0  0  0  0
 12 13  1  0  0  0  0
 13  5  1  0  0  0  0
 14 15  1  0  0  0  0
 15  9  1  0  0  0  0
 16 15  2  0  0  0  0
 17 18  1  0  0  0  0
 18 14  1  1  0  0  0
 19 17  1  0  0  0  0
 19 18  1  0  0  0  0
 20  7  1  0  0  0  0
 21 28  1  6  0  0  0
 21 23  1  0  0  0  0
 22 21  1  0  0  0  0
 22 23  1  0  0  0  0
 22 20  1  0  0  0  0
 24 27  1  0  0  0  0
 25 28  1  0  0  0  0
 26 30  1  1  0  0  0
 26 25  1  0  0  0  0
 27 28  2  0  0  0  0
 29 30  1  0  0  0  0
 30 24  2  0  0  0  0
 32 31  1  0  0  0  0
 32 33  1  0  0  0  0
 33 34  1  6  0  0  0
 33 26  1  0  0  0  0
 34 32  1  0  0  0  0
M  END
>  <MODEL>
2

>  <REMARK>
 VINA RESULT:      -7.7      2.679      4.319
  Name = 
  7 active torsions:
  status: ('A' for Active; 'I' for Inactive)
    1  A    between atoms: C_8  and  C_15
    2  A    between atoms: C_9  and  C_18
    3  A    between atoms: N_10  and  N_32
    4  A    between atoms: N_11  and  C_26
    5  A    between atoms: C_13  and  C_16
    6  A    between atoms: C_25  and  C_31
    7  A    between atoms: N_32  and  C_34
                            x       y       z     vdW  Elec       q    Type
                         _______ _______ _______ _____ _____    ______ ____

>  <TORSDO>
F 7

$$$$
=
 OpenBabel11052411053D

 34 39  0  0  1  0  0  0  0  0999 V2000
  160.4880  206.8550  155.5900 N   0  0  0  0  0  0  0  0  0  0  0  0
  160.8460  208.6440  157.0760 N   0  0  0  0  0  0  0  0  0  0  0  0
  160.4660  207.3590  156.8500 C   0  0  0  0  0  3  0  0  0  0  0  0
  161.6190  210.8650  156.3580 C   0  0  0  0  0  1  0  0  0  0  0  0
  160.8750  207.6150  154.5250 C   0  0  0  0  0  0  0  0  0  0  0  0
  161.2290  209.4560  156.0540 C   0  0  0  0  0  0  0  0  0  0  0  0
  161.2190  208.9730  154.7390 C   0  0  0  0  0  0  0  0  0  0  0  0
  160.8780  207.0640  150.7860 C   0  0  0  0  0  3  0  0  0  0  0  0
  161.1310  205.6880  150.6970 C   0  0  0  0  0  0  0  0  0  0  0  0
  160.8070  207.6910  152.0340 C   0  0  0  0  0  3  0  0  0  0  0  0
  161.2720  204.9380  151.8750 C   0  0  0  0  0  3  0  0  0  0  0  0
  161.1990  205.5640  153.1230 C   0  0  0  0  0  3  0  0  0  0  0  0
  160.9980  206.9500  153.2110 C   0  0  0  0  0  0  0  0  0  0  0  0
  161.1660  205.8110  148.1860 N   0  0  0  0  0  2  0  0  0  0  0  0
  161.2260  205.0300  149.3830 C   0  0  0  0  0  0  0  0  0  0  0  0
  161.3720  203.7800  149.3120 O   0  0  0  0  0  0  0  0  0  0  0  0
  160.9880  206.1930  145.8950 O   0  0  0  0  0  0  0  0  0  0  0  0
  161.2050  205.2000  146.8690 C   0  0  1  0  0  3  0  0  0  0  0  0
  162.3160  205.7760  146.0790 C   0  0  0  0  0  2  0  0  0  0  0  0
  161.4760  209.8910  153.6680 N   0  0  0  0  0  2  0  0  0  0  0  0
  160.4320  211.8390  153.0320 C   0  0  2  0  0  3  0  0  0  0  0  0
  160.4650  210.3790  152.8290 N   0  0  0  0  0  0  0  0  0  0  0  0
  159.4590  210.9900  153.7150 C   0  0  0  0  0  2  0  0  0  0  0  0
  157.8130  213.1040  150.6260 N   0  0  0  0  0  0  0  0  0  0  0  0
  160.5220  213.2910  150.9610 O   0  0  0  0  0  0  0  0  0  0  0  0
  159.9970  213.7070  149.6960 C   0  0  2  0  0  3  0  0  0  0  0  0
  158.4600  212.4070  151.6980 C   0  0  0  0  0  3  0  0  0  0  0  0
  159.7810  212.5110  151.8610 C   0  0  0  0  0  0  0  0  0  0  0  0
  157.7860  214.4530  148.6970 N   0  0  0  0  0  1  0  0  0  0  0  0
  158.4870  213.7590  149.7230 C   0  0  0  0  0  0  0  0  0  0  0  0
  162.2080  214.4410  148.2260 C   0  0  0  0  0  1  0  0  0  0  0  0
  161.7180  213.1080  147.9030 N   0  0  0  0  0  0  0  0  0  0  0  0
  160.4670  212.7210  148.6170 C   0  0  2  0  0  3  0  0  0  0  0  0
  160.3980  213.3160  147.2870 C   0  0  0  0  0  2  0  0  0  0  0  0
  1  3  1  0  0  0  0
  3  2  2  0  0  0  0
  5  7  1  0  0  0  0
  5  1  2  0  0  0  0
  6  4  1  0  0  0  0
  6  2  1  0  0  0  0
  7  6  2  0  0  0  0
  8 10  1  0  0  0  0
  9  8  2  0  0  0  0
  9 11  1  0  0  0  0
 10 13  2  0  0  0  0
 11 12  2  0  0  0  0
 12 13  1  0  0  0  0
 13  5  1  0  0  0  0
 14 15  1  0  0  0  0
 15  9  1  0  0  0  0
 16 15  2  0  0  0  0
 17 19  1  0  0  0  0
 17 18  1  0  0  0  0
 18 14  1  1  0  0  0
 19 18  1  0  0  0  0
 20  7  1  0  0  0  0
 21 28  1  6  0  0  0
 21 23  1  0  0  0  0
 22 21  1  0  0  0  0
 22 20  1  0  0  0  0
 22 23  1  0  0  0  0
 24 27  1  0  0  0  0
 25 28  1  0  0  0  0
 26 30  1  1  0  0  0
 26 25  1  0  0  0  0
 27 28  2  0  0  0  0
 29 30  1  0  0  0  0
 30 24  2  0  0  0  0
 32 31  1  0  0  0  0
 32 33  1  0  0  0  0
 33 34  1  6  0  0  0
 33 26  1  0  0  0  0
 34 32  1  0  0  0  0
M  END
>  <MODEL>
3

>  <REMARK>
 VINA RESULT:      -7.7      2.272      3.970
  Name = 
  7 active torsions:
  status: ('A' for Active; 'I' for Inactive)
    1  A    between atoms: C_8  and  C_15
    2  A    between atoms: C_9  and  C_18
    3  A    between atoms: N_10  and  N_32
    4  A    between atoms: N_11  and  C_26
    5  A    between atoms: C_13  and  C_16
    6  A    between atoms: C_25  and  C_31
    7  A    between atoms: N_32  and  C_34
                            x       y       z     vdW  Elec       q    Type
                         _______ _______ _______ _____ _____    ______ ____

>  <TORSDO>
F 7

$$$$
=
 OpenBabel11052411053D

 34 39  0  0  1  0  0  0  0  0999 V2000
  160.8750  203.8630  146.1350 N   0  0  0  0  0  0  0  0  0  0  0  0
  160.9320  201.5270  146.4020 N   0  0  0  0  0  0  0  0  0  0  0  0
  160.7520  202.6180  145.6110 C   0  0  0  0  0  3  0  0  0  0  0  0
  161.3800  200.4220  148.5530 C   0  0  0  0  0  1  0  0  0  0  0  0
  161.1650  204.0580  147.4540 C   0  0  0  0  0  0  0  0  0  0  0  0
  161.2110  201.6540  147.7280 C   0  0  0  0  0  0  0  0  0  0  0  0
  161.2980  202.9290  148.3010 C   0  0  0  0  0  0  0  0  0  0  0  0
  160.6520  207.4230  149.0960 C   0  0  0  0  0  3  0  0  0  0  0  0
  161.8130  208.1120  148.7130 C   0  0  0  0  0  0  0  0  0  0  0  0
  160.4500  206.0990  148.6940 C   0  0  0  0  0  3  0  0  0  0  0  0
  162.7500  207.4710  147.8870 C   0  0  0  0  0  3  0  0  0  0  0  0
  162.5470  206.1480  147.4840 C   0  0  0  0  0  3  0  0  0  0  0  0
  161.4110  205.4420  147.9100 C   0  0  0  0  0  0  0  0  0  0  0  0
  161.9610  210.5700  148.2050 N   0  0  0  0  0  2  0  0  0  0  0  0
  162.0360  209.4990  149.1510 C   0  0  0  0  0  0  0  0  0  0  0  0
  162.2790  209.7460  150.3630 O   0  0  0  0  0  0  0  0  0  0  0  0
  163.3620  212.4050  147.8940 O   0  0  0  0  0  0  0  0  0  0  0  0
  162.2220  211.9470  148.5820 C   0  0  1  0  0  3  0  0  0  0  0  0
  162.1190  212.8230  147.3950 C   0  0  0  0  0  2  0  0  0  0  0  0
  161.4360  203.0350  149.7250 N   0  0  0  0  0  2  0  0  0  0  0  0
  161.7310  204.2280  151.6680 C   0  0  2  0  0  3  0  0  0  0  0  0
  160.8920  204.0930  150.4630 N   0  0  0  0  0  0  0  0  0  0  0  0
  160.4570  203.5160  151.7460 C   0  0  0  0  0  2  0  0  0  0  0  0
  162.1890  207.9150  152.3320 N   0  0  0  0  0  0  0  0  0  0  0  0
  160.5860  205.8780  153.2080 O   0  0  0  0  0  0  0  0  0  0  0  0
  160.5920  207.0780  153.9890 C   0  0  2  0  0  3  0  0  0  0  0  0
  162.3710  206.5850  151.8320 C   0  0  0  0  0  3  0  0  0  0  0  0
  161.5790  205.5980  152.2560 C   0  0  0  0  0  0  0  0  0  0  0  0
  161.1840  209.5320  153.7180 N   0  0  0  0  0  1  0  0  0  0  0  0
  161.3380  208.1850  153.2810 C   0  0  0  0  0  0  0  0  0  0  0  0
  159.0630  207.5300  156.2360 C   0  0  0  0  0  1  0  0  0  0  0  0
  160.3670  206.9530  156.5320 N   0  0  0  0  0  0  0  0  0  0  0  0
  161.2520  206.7840  155.3430 C   0  0  2  0  0  3  0  0  0  0  0  0
  161.3450  207.9880  156.1610 C   0  0  0  0  0  2  0  0  0  0  0  0
  1  5  1  0  0  0  0
  2  6  2  0  0  0  0
  3  1  2  0  0  0  0
  3  2  1  0  0  0  0
  5 13  1  0  0  0  0
  5  7  2  0  0  0  0
  6  7  1  0  0  0  0
  6  4  1  0  0  0  0
  7 20  1  0  0  0  0
  9  8  1  0  0  0  0
  9 15  1  0  0  0  0
 10  8  2  0  0  0  0
 11  9  2  0  0  0  0
 12 11  1  0  0  0  0
 12 13  2  0  0  0  0
 13 10  1  0  0  0  0
 14 15  1  0  0  0  0
 15 16  2  0  0  0  0
 17 18  1  0  0  0  0
 18 14  1  6  0  0  0
 19 17  1  0  0  0  0
 19 18  1  0  0  0  0
 20 22  1  0  0  0  0
 21 23  1  0  0  0  0
 21 28  1  1  0  0  0
 22 21  1  0  0  0  0
 22 23  1  0  0  0  0
 24 30  2  0  0  0  0
 26 25  1  6  0  0  0
 26 33  1  0  0  0  0
 27 28  2  0  0  0  0
 27 24  1  0  0  0  0
 28 25  1  0  0  0  0
 30 29  1  0  0  0  0
 30 26  1  0  0  0  0
 31 32  1  0  0  0  0
 33 34  1  1  0  0  0
 33 32  1  0  0  0  0
 34 32  1  0  0  0  0
M  END
>  <MODEL>
4

>  <REMARK>
 VINA RESULT:      -7.5      3.907      7.635
  Name = 
  7 active torsions:
  status: ('A' for Active; 'I' for Inactive)
    1  A    between atoms: C_8  and  C_15
    2  A    between atoms: C_9  and  C_18
    3  A    between atoms: N_10  and  N_32
    4  A    between atoms: N_11  and  C_26
    5  A    between atoms: C_13  and  C_16
    6  A    between atoms: C_25  and  C_31
    7  A    between atoms: N_32  and  C_34
                            x       y       z     vdW  Elec       q    Type
                         _______ _______ _______ _____ _____    ______ ____

>  <TORSDO>
F 7

$$$$
=
 OpenBabel11052411053D

 34 39  0  0  1  0  0  0  0  0999 V2000
  159.9110  211.3690  153.9620 N   0  0  0  0  0  0  0  0  0  0  0  0
  159.8510  209.4640  155.3410 N   0  0  0  0  0  0  0  0  0  0  0  0
  159.5450  210.7710  155.1240 C   0  0  0  0  0  3  0  0  0  0  0  0
  160.8670  207.3120  154.7200 C   0  0  0  0  0  1  0  0  0  0  0  0
  160.5960  210.6920  152.9950 C   0  0  0  0  0  0  0  0  0  0  0  0
  160.5430  208.7390  154.4220 C   0  0  0  0  0  0  0  0  0  0  0  0
  160.9700  209.3460  153.2330 C   0  0  0  0  0  0  0  0  0  0  0  0
  160.2420  213.1230  150.1240 C   0  0  0  0  0  3  0  0  0  0  0  0
  161.2080  212.6510  149.2230 C   0  0  0  0  0  0  0  0  0  0  0  0
  160.0530  212.4900  151.3550 C   0  0  0  0  0  3  0  0  0  0  0  0
  161.9560  211.5100  149.5560 C   0  0  0  0  0  3  0  0  0  0  0  0
  161.7660  210.8760  150.7860 C   0  0  0  0  0  3  0  0  0  0  0  0
  160.8360  211.3800  151.7090 C   0  0  0  0  0  0  0  0  0  0  0  0
  160.5430  213.0690  146.8350 N   0  0  0  0  0  2  0  0  0  0  0  0
  161.4210  213.3280  147.9330 C   0  0  0  0  0  0  0  0  0  0  0  0
  162.3710  214.1470  147.8000 O   0  0  0  0  0  0  0  0  0  0  0  0
  161.7570  212.9760  144.8490 O   0  0  0  0  0  0  0  0  0  0  0  0
  160.7440  213.6750  145.5320 C   0  0  1  0  0  3  0  0  0  0  0  0
  160.4360  212.6960  144.4670 C   0  0  0  0  0  2  0  0  0  0  0  0
  161.8300  208.6080  152.3540 N   0  0  0  0  0  2  0  0  0  0  0  0
  162.3480  206.6320  151.2990 C   0  0  2  0  0  3  0  0  0  0  0  0
  161.3440  207.7070  151.3980 N   0  0  0  0  0  0  0  0  0  0  0  0
  162.3300  207.7020  150.3040 C   0  0  0  0  0  2  0  0  0  0  0  0
  161.0480  203.1070  150.9360 N   0  0  0  0  0  0  0  0  0  0  0  0
  161.1340  205.4020  149.4500 O   0  0  0  0  0  0  0  0  0  0  0  0
  160.7930  204.1960  148.7580 C   0  0  2  0  0  3  0  0  0  0  0  0
  161.7000  204.2760  151.4470 C   0  0  0  0  0  3  0  0  0  0  0  0
  161.7300  205.3960  150.7200 C   0  0  0  0  0  0  0  0  0  0  0  0
  159.9080  201.8760  149.2850 N   0  0  0  0  0  1  0  0  0  0  0  0
  160.5680  203.0580  149.7250 C   0  0  0  0  0  0  0  0  0  0  0  0
  160.9920  205.7210  146.4720 C   0  0  0  0  0  1  0  0  0  0  0  0
  162.0640  204.7450  146.6080 N   0  0  0  0  0  0  0  0  0  0  0  0
  161.9310  203.8430  147.7890 C   0  0  2  0  0  3  0  0  0  0  0  0
  161.4130  203.4310  146.4900 C   0  0  0  0  0  2  0  0  0  0  0  0
  1  3  1  0  0  0  0
  3  2  2  0  0  0  0
  5  7  1  0  0  0  0
  5  1  2  0  0  0  0
  6  4  1  0  0  0  0
  6  2  1  0  0  0  0
  7  6  2  0  0  0  0
  8 10  1  0  0  0  0
  9 11  1  0  0  0  0
  9  8  2  0  0  0  0
 10 13  2  0  0  0  0
 11 12  2  0  0  0  0
 12 13  1  0  0  0  0
 13  5  1  0  0  0  0
 14 15  1  0  0  0  0
 15  9  1  0  0  0  0
 16 15  2  0  0  0  0
 17 18  1  0  0  0  0
 18 14  1  1  0  0  0
 19 17  1  0  0  0  0
 19 18  1  0  0  0  0
 20  7  1  0  0  0  0
 21 28  1  6  0  0  0
 21 22  1  0  0  0  0
 22 20  1  0  0  0  0
 23 21  1  0  0  0  0
 23 22  1  0  0  0  0
 24 27  1  0  0  0  0
 25 28  1  0  0  0  0
 26 25  1  1  0  0  0
 26 30  1  0  0  0  0
 28 27  2  0  0  0  0
 29 30  1  0  0  0  0
 30 24  2  0  0  0  0
 31 32  1  0  0  0  0
 32 33  1  0  0  0  0
 33 34  1  6  0  0  0
 33 26  1  0  0  0  0
 34 32  1  0  0  0  0
M  END
>  <MODEL>
5

>  <REMARK>
 VINA RESULT:      -7.5      3.471      8.334
  Name = 
  7 active torsions:
  status: ('A' for Active; 'I' for Inactive)
    1  A    between atoms: C_8  and  C_15
    2  A    between atoms: C_9  and  C_18
    3  A    between atoms: N_10  and  N_32
    4  A    between atoms: N_11  and  C_26
    5  A    between atoms: C_13  and  C_16
    6  A    between atoms: C_25  and  C_31
    7  A    between atoms: N_32  and  C_34
                            x       y       z     vdW  Elec       q    Type
                         _______ _______ _______ _____ _____    ______ ____

>  <TORSDO>
F 7

$$$$
=
 OpenBabel11052411053D

 34 39  0  0  1  0  0  0  0  0999 V2000
  162.4220  210.7110  154.3840 N   0  0  0  0  0  0  0  0  0  0  0  0
  161.7820  209.2740  156.1330 N   0  0  0  0  0  0  0  0  0  0  0  0
  162.4980  210.3400  155.6870 C   0  0  0  0  0  3  0  0  0  0  0  0
  160.2510  207.3730  155.8290 C   0  0  0  0  0  1  0  0  0  0  0  0
  161.6480  210.0290  153.4910 C   0  0  0  0  0  0  0  0  0  0  0  0
  161.0020  208.5450  155.2890 C   0  0  0  0  0  0  0  0  0  0  0  0
  160.9420  208.8820  153.9300 C   0  0  0  0  0  0  0  0  0  0  0  0
  162.2530  210.6270  149.8090 C   0  0  0  0  0  3  0  0  0  0  0  0
  161.3650  211.6780  149.5360 C   0  0  0  0  0  0  0  0  0  0  0  0
  162.3340  210.0850  151.0950 C   0  0  0  0  0  3  0  0  0  0  0  0
  160.5880  212.2070  150.5790 C   0  0  0  0  0  3  0  0  0  0  0  0
  160.6700  211.6660  151.8650 C   0  0  0  0  0  3  0  0  0  0  0  0
  161.5200  210.5800  152.1250 C   0  0  0  0  0  0  0  0  0  0  0  0
  159.9880  212.6000  147.6460 N   0  0  0  0  0  2  0  0  0  0  0  0
  161.2650  212.2380  148.1780 C   0  0  0  0  0  0  0  0  0  0  0  0
  162.3060  212.4100  147.4890 O   0  0  0  0  0  0  0  0  0  0  0  0
  159.8480  212.0290  145.3920 O   0  0  0  0  0  0  0  0  0  0  0  0
  159.8360  213.1090  146.2950 C   0  0  1  0  0  3  0  0  0  0  0  0
  158.5920  212.5800  145.6930 C   0  0  0  0  0  2  0  0  0  0  0  0
  160.2400  208.0070  153.0360 N   0  0  0  0  0  2  0  0  0  0  0  0
  160.6780  205.8920  152.2490 C   0  0  2  0  0  3  0  0  0  0  0  0
  160.8730  207.3290  151.9870 N   0  0  0  0  0  0  0  0  0  0  0  0
  161.9440  206.5280  152.6040 C   0  0  0  0  0  2  0  0  0  0  0  0
  161.4410  203.0750  149.8550 N   0  0  0  0  0  0  0  0  0  0  0  0
  160.4490  205.6230  149.7440 O   0  0  0  0  0  0  0  0  0  0  0  0
  160.8480  205.0290  148.5030 C   0  0  2  0  0  3  0  0  0  0  0  0
  161.3410  203.8660  151.0460 C   0  0  0  0  0  3  0  0  0  0  0  0
  160.8470  205.1050  150.9860 C   0  0  0  0  0  0  0  0  0  0  0  0
  161.2580  202.7190  147.5350 N   0  0  0  0  0  1  0  0  0  0  0  0
  161.1650  203.5630  148.6780 C   0  0  0  0  0  0  0  0  0  0  0  0
  160.6180  206.2030  146.0220 C   0  0  0  0  0  1  0  0  0  0  0  0
  161.8950  206.4710  146.6700 N   0  0  0  0  0  0  0  0  0  0  0  0
  162.0830  205.7720  147.9740 C   0  0  2  0  0  3  0  0  0  0  0  0
  162.5770  205.1700  146.7410 C   0  0  0  0  0  2  0  0  0  0  0  0
  1  3  1  0  0  0  0
  3  2  2  0  0  0  0
  5  7  1  0  0  0  0
  5  1  2  0  0  0  0
  6  4  1  0  0  0  0
  6  2  1  0  0  0  0
  7  6  2  0  0  0  0
  8 10  1  0  0  0  0
  9  8  2  0  0  0  0
  9 11  1  0  0  0  0
 10 13  2  0  0  0  0
 11 12  2  0  0  0  0
 12 13  1  0  0  0  0
 13  5  1  0  0  0  0
 14 15  1  0  0  0  0
 15  9  1  0  0  0  0
 16 15  2  0  0  0  0
 17 19  1  0  0  0  0
 17 18  1  0  0  0  0
 18 14  1  1  0  0  0
 19 18  1  0  0  0  0
 20  7  1  0  0  0  0
 21 28  1  6  0  0  0
 21 23  1  0  0  0  0
 22 21  1  0  0  0  0
 22 23  1  0  0  0  0
 22 20  1  0  0  0  0
 24 27  1  0  0  0  0
 25 28  1  0  0  0  0
 26 30  1  1  0  0  0
 26 25  1  0  0  0  0
 28 27  2  0  0  0  0
 29 30  1  0  0  0  0
 30 24  2  0  0  0  0
 31 32  1  0  0  0  0
 32 34  1  0  0  0  0
 32 33  1  0  0  0  0
 33 34  1  6  0  0  0
 33 26  1  0  0  0  0
M  END
>  <MODEL>
6

>  <REMARK>
 VINA RESULT:      -7.4      3.475      7.894
  Name = 
  7 active torsions:
  status: ('A' for Active; 'I' for Inactive)
    1  A    between atoms: C_8  and  C_15
    2  A    between atoms: C_9  and  C_18
    3  A    between atoms: N_10  and  N_32
    4  A    between atoms: N_11  and  C_26
    5  A    between atoms: C_13  and  C_16
    6  A    between atoms: C_25  and  C_31
    7  A    between atoms: N_32  and  C_34
                            x       y       z     vdW  Elec       q    Type
                         _______ _______ _______ _____ _____    ______ ____

>  <TORSDO>
F 7

$$$$
=
 OpenBabel11052411053D

 34 39  0  0  1  0  0  0  0  0999 V2000
  162.1830  210.6180  153.9300 N   0  0  0  0  0  0  0  0  0  0  0  0
  161.5400  209.0350  155.5470 N   0  0  0  0  0  0  0  0  0  0  0  0
  162.1600  210.2000  155.2210 C   0  0  0  0  0  3  0  0  0  0  0  0
  160.3070  206.9760  155.0080 C   0  0  0  0  0  1  0  0  0  0  0  0
  161.6060  209.8880  152.9330 C   0  0  0  0  0  0  0  0  0  0  0  0
  160.9580  208.2550  154.5960 C   0  0  0  0  0  0  0  0  0  0  0  0
  161.0070  208.6440  153.2510 C   0  0  0  0  0  0  0  0  0  0  0  0
  162.3310  210.4990  149.2740 C   0  0  0  0  0  3  0  0  0  0  0  0
  161.5700  211.6490  149.0160 C   0  0  0  0  0  0  0  0  0  0  0  0
  162.3320  209.9220  150.5470 C   0  0  0  0  0  3  0  0  0  0  0  0
  160.8410  212.2370  150.0620 C   0  0  0  0  0  3  0  0  0  0  0  0
  160.8420  211.6610  151.3340 C   0  0  0  0  0  3  0  0  0  0  0  0
  161.5620  210.4810  151.5790 C   0  0  0  0  0  0  0  0  0  0  0  0
  160.3240  212.3530  146.9500 N   0  0  0  0  0  2  0  0  0  0  0  0
  161.5540  212.2470  147.6710 C   0  0  0  0  0  0  0  0  0  0  0  0
  162.6230  212.6780  147.1600 O   0  0  0  0  0  0  0  0  0  0  0  0
  159.9330  211.8560  144.7070 O   0  0  0  0  0  0  0  0  0  0  0  0
  160.2680  212.8900  145.6020 C   0  0  1  0  0  3  0  0  0  0  0  0
  158.9020  212.7430  145.0560 C   0  0  0  0  0  2  0  0  0  0  0  0
  160.5260  207.7320  152.2540 N   0  0  0  0  0  2  0  0  0  0  0  0
  160.5470  206.0570  150.6780 C   0  0  2  0  0  3  0  0  0  0  0  0
  161.3760  207.0680  151.3600 N   0  0  0  0  0  0  0  0  0  0  0  0
  161.4050  205.6600  151.7920 C   0  0  0  0  0  2  0  0  0  0  0  0
  162.0820  206.2150  147.2330 N   0  0  0  0  0  0  0  0  0  0  0  0
  161.5960  204.3300  149.1550 O   0  0  0  0  0  0  0  0  0  0  0  0
  161.9400  203.8500  147.8510 C   0  0  2  0  0  3  0  0  0  0  0  0
  161.4090  206.5740  148.4460 C   0  0  0  0  0  3  0  0  0  0  0  0
  161.1830  205.6510  149.3840 C   0  0  0  0  0  0  0  0  0  0  0  0
  163.0850  204.6900  145.7470 N   0  0  0  0  0  1  0  0  0  0  0  0
  162.3920  204.9800  146.9570 C   0  0  0  0  0  0  0  0  0  0  0  0
  161.5390  201.2120  148.5360 C   0  0  0  0  0  1  0  0  0  0  0  0
  160.4780  201.7580  147.7020 N   0  0  0  0  0  0  0  0  0  0  0  0
  160.7140  203.1560  147.2400 C   0  0  2  0  0  3  0  0  0  0  0  0
  161.1060  202.0300  146.4000 C   0  0  0  0  0  2  0  0  0  0  0  0
  1  3  1  0  0  0  0
  3  2  2  0  0  0  0
  5  7  1  0  0  0  0
  5  1  2  0  0  0  0
  6  4  1  0  0  0  0
  6  2  1  0  0  0  0
  7  6  2  0  0  0  0
  8 10  1  0  0  0  0
  9  8  2  0  0  0  0
  9 11  1  0  0  0  0
 10 13  2  0  0  0  0
 11 12  2  0  0  0  0
 12 13  1  0  0  0  0
 13  5  1  0  0  0  0
 14 15  1  0  0  0  0
 15  9  1  0  0  0  0
 16 15  2  0  0  0  0
 17 19  1  0  0  0  0
 17 18  1  0  0  0  0
 18 14  1  1  0  0  0
 19 18  1  0  0  0  0
 20  7  1  0  0  0  0
 21 28  1  6  0  0  0
 21 22  1  0  0  0  0
 21 23  1  0  0  0  0
 22 23  1  0  0  0  0
 22 20  1  0  0  0  0
 24 27  1  0  0  0  0
 25 28  1  0  0  0  0
 26 30  1  6  0  0  0
 26 25  1  0  0  0  0
 27 28  2  0  0  0  0
 29 30  1  0  0  0  0
 30 24  2  0  0  0  0
 32 31  1  0  0  0  0
 33 34  1  6  0  0  0
 33 32  1  0  0  0  0
 33 26  1  0  0  0  0
 34 32  1  0  0  0  0
M  END
>  <MODEL>
7

>  <REMARK>
 VINA RESULT:      -7.4      3.649      8.342
  Name = 
  7 active torsions:
  status: ('A' for Active; 'I' for Inactive)
    1  A    between atoms: C_8  and  C_15
    2  A    between atoms: C_9  and  C_18
    3  A    between atoms: N_10  and  N_32
    4  A    between atoms: N_11  and  C_26
    5  A    between atoms: C_13  and  C_16
    6  A    between atoms: C_25  and  C_31
    7  A    between atoms: N_32  and  C_34
                            x       y       z     vdW  Elec       q    Type
                         _______ _______ _______ _____ _____    ______ ____

>  <TORSDO>
F 7

$$$$
=
 OpenBabel11052411053D

 34 39  0  0  1  0  0  0  0  0999 V2000
  161.2120  206.9230  154.5870 N   0  0  0  0  0  0  0  0  0  0  0  0
  161.3260  209.2090  155.1280 N   0  0  0  0  0  0  0  0  0  0  0  0
  161.3170  207.9060  155.5150 C   0  0  0  0  0  3  0  0  0  0  0  0
  161.2040  211.0040  153.4500 C   0  0  0  0  0  1  0  0  0  0  0  0
  161.1020  207.2060  153.2560 C   0  0  0  0  0  0  0  0  0  0  0  0
  161.2060  209.5560  153.8180 C   0  0  0  0  0  0  0  0  0  0  0  0
  161.0530  208.5600  152.8440 C   0  0  0  0  0  0  0  0  0  0  0  0
  160.9310  205.2460  150.0290 C   0  0  0  0  0  3  0  0  0  0  0  0
  161.0750  203.9270  150.4830 C   0  0  0  0  0  0  0  0  0  0  0  0
  160.9510  206.3120  150.9340 C   0  0  0  0  0  3  0  0  0  0  0  0
  161.2010  203.6860  151.8600 C   0  0  0  0  0  3  0  0  0  0  0  0
  161.2200  204.7510  152.7650 C   0  0  0  0  0  3  0  0  0  0  0  0
  161.1270  206.0740  152.3050 C   0  0  0  0  0  0  0  0  0  0  0  0
  161.3090  203.0460  148.1400 N   0  0  0  0  0  2  0  0  0  0  0  0
  161.0730  202.8050  149.5300 C   0  0  0  0  0  0  0  0  0  0  0  0
  160.8760  201.6300  149.9400 O   0  0  0  0  0  0  0  0  0  0  0  0
  159.9790  201.9230  146.5920 O   0  0  0  0  0  0  0  0  0  0  0  0
  161.2670  201.9780  147.1580 C   0  0  1  0  0  3  0  0  0  0  0  0
  160.9780  202.5350  145.8190 C   0  0  0  0  0  2  0  0  0  0  0  0
  160.7720  208.9560  151.4950 N   0  0  0  0  0  2  0  0  0  0  0  0
  161.6980  209.6660  149.5130 C   0  0  2  0  0  3  0  0  0  0  0  0
  161.3670  210.0710  150.8920 N   0  0  0  0  0  0  0  0  0  0  0  0
  162.7380  209.6620  150.5390 C   0  0  0  0  0  2  0  0  0  0  0  0
  163.1480  212.7470  147.8860 N   0  0  0  0  0  0  0  0  0  0  0  0
  160.9050  211.1960  147.6610 O   0  0  0  0  0  0  0  0  0  0  0  0
  160.8760  212.4730  147.0130 C   0  0  2  0  0  3  0  0  0  0  0  0
  162.9480  211.6320  148.7630 C   0  0  0  0  0  3  0  0  0  0  0  0
  161.8560  210.8730  148.6410 C   0  0  0  0  0  0  0  0  0  0  0  0
  162.5080  214.2240  146.1680 N   0  0  0  0  0  1  0  0  0  0  0  0
  162.2390  213.1230  147.0310 C   0  0  0  0  0  0  0  0  0  0  0  0
  158.3390  212.5750  145.9440 C   0  0  0  0  0  1  0  0  0  0  0  0
  158.4740  213.3310  147.1810 N   0  0  0  0  0  0  0  0  0  0  0  0
  159.8590  213.3700  147.7340 C   0  0  2  0  0  3  0  0  0  0  0  0
  159.3870  214.4410  146.8640 C   0  0  0  0  0  2  0  0  0  0  0  0
  1  3  1  0  0  0  0
  2  3  2  0  0  0  0
  4  6  1  0  0  0  0
  5  1  2  0  0  0  0
  6  2  1  0  0  0  0
  7  5  1  0  0  0  0
  7  6  2  0  0  0  0
  8  9  2  0  0  0  0
  8 10  1  0  0  0  0
  9 11  1  0  0  0  0
 10 13  2  0  0  0  0
 11 12  2  0  0  0  0
 13 12  1  0  0  0  0
 13  5  1  0  0  0  0
 14 15  1  0  0  0  0
 15 16  2  0  0  0  0
 15  9  1  0  0  0  0
 17 18  1  0  0  0  0
 18 14  1  1  0  0  0
 19 17  1  0  0  0  0
 19 18  1  0  0  0  0
 20  7  1  0  0  0  0
 21 28  1  6  0  0  0
 21 23  1  0  0  0  0
 21 22  1  0  0  0  0
 22 20  1  0  0  0  0
 23 22  1  0  0  0  0
 24 27  1  0  0  0  0
 25 28  1  0  0  0  0
 26 30  1  1  0  0  0
 26 25  1  0  0  0  0
 26 33  1  0  0  0  0
 28 27  2  0  0  0  0
 29 30  1  0  0  0  0
 30 24  2  0  0  0  0
 31 32  1  0  0  0  0
 32 33  1  0  0  0  0
 33 34  1  6  0  0  0
 34 32  1  0  0  0  0
M  END
>  <MODEL>
8

>  <REMARK>
 VINA RESULT:      -7.1      3.624      5.352
  Name = 
  7 active torsions:
  status: ('A' for Active; 'I' for Inactive)
    1  A    between atoms: C_8  and  C_15
    2  A    between atoms: C_9  and  C_18
    3  A    between atoms: N_10  and  N_32
    4  A    between atoms: N_11  and  C_26
    5  A    between atoms: C_13  and  C_16
    6  A    between atoms: C_25  and  C_31
    7  A    between atoms: N_32  and  C_34
                            x       y       z     vdW  Elec       q    Type
                         _______ _______ _______ _____ _____    ______ ____

>  <TORSDO>
F 7

$$$$
=
 OpenBabel11052411053D

 34 39  0  0  1  0  0  0  0  0999 V2000
  162.3780  209.9940  155.4350 N   0  0  0  0  0  0  0  0  0  0  0  0
  161.6070  211.8390  156.6740 N   0  0  0  0  0  0  0  0  0  0  0  0
  162.5660  210.9100  156.4190 C   0  0  0  0  0  3  0  0  0  0  0  0
  159.4140  212.8910  156.3100 C   0  0  0  0  0  1  0  0  0  0  0  0
  161.2350  209.9700  154.6910 C   0  0  0  0  0  0  0  0  0  0  0  0
  160.4400  211.8590  155.9750 C   0  0  0  0  0  0  0  0  0  0  0  0
  160.2050  210.8970  154.9840 C   0  0  0  0  0  0  0  0  0  0  0  0
  160.8650  206.7630  152.7260 C   0  0  0  0  0  3  0  0  0  0  0  0
  161.1380  207.1910  151.4180 C   0  0  0  0  0  0  0  0  0  0  0  0
  160.8870  207.6720  153.7870 C   0  0  0  0  0  3  0  0  0  0  0  0
  161.4720  208.5360  151.1930 C   0  0  0  0  0  3  0  0  0  0  0  0
  161.4950  209.4450  152.2530 C   0  0  0  0  0  3  0  0  0  0  0  0
  161.1710  209.0270  153.5540 C   0  0  0  0  0  0  0  0  0  0  0  0
  160.9230  206.7140  148.9590 N   0  0  0  0  0  2  0  0  0  0  0  0
  161.0970  206.2380  150.2970 C   0  0  0  0  0  0  0  0  0  0  0  0
  161.2290  205.0030  150.5140 O   0  0  0  0  0  0  0  0  0  0  0  0
  160.7980  206.5580  146.6380 O   0  0  0  0  0  0  0  0  0  0  0  0
  160.8270  205.8070  147.8290 C   0  0  1  0  0  3  0  0  0  0  0  0
  162.0200  205.9490  146.9660 C   0  0  0  0  0  2  0  0  0  0  0  0
  158.9080  210.8430  154.3730 N   0  0  0  0  0  2  0  0  0  0  0  0
  158.8470  212.6520  152.9550 C   0  0  2  0  0  3  0  0  0  0  0  0
  158.6860  211.1880  153.0340 N   0  0  0  0  0  0  0  0  0  0  0  0
  157.5080  212.0720  153.0300 C   0  0  0  0  0  2  0  0  0  0  0  0
  158.3860  213.7960  149.3880 N   0  0  0  0  0  0  0  0  0  0  0  0
  160.4530  213.2370  151.0900 O   0  0  0  0  0  0  0  0  0  0  0  0
  160.7740  213.3530  149.7000 C   0  0  2  0  0  3  0  0  0  0  0  0
  158.1240  213.3280  150.7170 C   0  0  0  0  0  3  0  0  0  0  0  0
  159.1370  213.0670  151.5450 C   0  0  0  0  0  0  0  0  0  0  0  0
  159.7940  214.3740  147.5920 N   0  0  0  0  0  1  0  0  0  0  0  0
  159.5960  213.8760  148.9110 C   0  0  0  0  0  0  0  0  0  0  0  0
  163.0890  213.2420  148.2100 C   0  0  0  0  0  1  0  0  0  0  0  0
  162.4920  211.9340  148.4460 N   0  0  0  0  0  0  0  0  0  0  0  0
  161.1880  211.9730  149.1700 C   0  0  2  0  0  3  0  0  0  0  0  0
  161.2160  211.9510  147.7120 C   0  0  0  0  0  2  0  0  0  0  0  0
  1  3  1  0  0  0  0
  3  2  2  0  0  0  0
  5  7  1  0  0  0  0
  5  1  2  0  0  0  0
  6  4  1  0  0  0  0
  6  2  1  0  0  0  0
  7  6  2  0  0  0  0
  8 10  1  0  0  0  0
  9  8  2  0  0  0  0
 11  9  1  0  0  0  0
 11 12  2  0  0  0  0
 12 13  1  0  0  0  0
 13 10  2  0  0  0  0
 13  5  1  0  0  0  0
 14 15  1  0  0  0  0
 15 16  2  0  0  0  0
 15  9  1  0  0  0  0
 17 19  1  0  0  0  0
 17 18  1  0  0  0  0
 18 14  1  1  0  0  0
 19 18  1  0  0  0  0
 20  7  1  0  0  0  0
 21 28  1  6  0  0  0
 21 23  1  0  0  0  0
 21 22  1  0  0  0  0
 22 20  1  0  0  0  0
 23 22  1  0  0  0  0
 24 27  1  0  0  0  0
 25 28  1  0  0  0  0
 26 30  1  6  0  0  0
 26 25  1  0  0  0  0
 27 28  2  0  0  0  0
 29 30  1  0  0  0  0
 30 24  2  0  0  0  0
 31 32  1  0  0  0  0
 32 33  1  0  0  0  0
 33 34  1  6  0  0  0
 33 26  1  0  0  0  0
 34 32  1  0  0  0  0
M  END
>  <MODEL>
9

>  <REMARK>
 VINA RESULT:      -6.9      2.622      4.530
  Name = 
  7 active torsions:
  status: ('A' for Active; 'I' for Inactive)
    1  A    between atoms: C_8  and  C_15
    2  A    between atoms: C_9  and  C_18
    3  A    between atoms: N_10  and  N_32
    4  A    between atoms: N_11  and  C_26
    5  A    between atoms: C_13  and  C_16
    6  A    between atoms: C_25  and  C_31
    7  A    between atoms: N_32  and  C_34
                            x       y       z     vdW  Elec       q    Type
                         _______ _______ _______ _____ _____    ______ ____

>  <TORSDO>
F 7

$$$$
