=
 OpenBabel11042422283D

 34 37  0  0  1  0  0  0  0  0999 V2000
  160.9360  209.0250  151.8180 C   0  0  2  0  0  3  0  0  0  0  0  0
  161.1850  208.0260  153.7240 N   0  0  0  0  0  2  0  0  0  0  0  0
  161.2760  209.4050  153.2460 C   0  0  2  0  0  3  0  0  0  0  0  0
  160.8340  207.6000  152.3710 C   0  0  2  0  0  3  0  0  0  0  0  0
  161.5590  206.2670  150.4360 N   0  0  0  0  0  2  0  0  0  0  0  0
  161.8500  206.5850  151.8370 C   0  0  2  0  0  3  0  0  0  0  0  0
  161.3160  205.0030  150.3760 C   0  0  0  0  0  0  0  0  0  0  0  0
  161.3830  204.3920  151.5960 C   0  0  0  0  0  0  0  0  0  0  0  0
  161.6950  205.2610  152.5390 C   0  0  0  0  0  2  0  0  0  0  0  0
  161.1370  203.0300  151.7270 C   0  0  0  0  0  3  0  0  0  0  0  0
  160.9990  204.2840  149.2220 C   0  0  0  0  0  0  0  0  0  0  0  0
  160.8280  202.3160  150.6050 N   0  0  0  0  0  0  0  0  0  0  0  0
  160.7540  202.9040  149.3710 C   0  0  0  0  0  3  0  0  0  0  0  0
  161.9830  204.8620  147.0290 C   0  0  0  0  0  1  0  0  0  0  0  0
  160.9310  204.9260  147.9820 O   0  0  0  0  0  0  0  0  0  0  0  0
  157.2800  212.3560  153.8290 O   0  0  0  0  0  0  0  0  0  0  0  0
  158.7580  212.4490  153.5620 S   0  0  0  0  0  0  0  0  0  0  0  0
  160.2040  210.3020  153.8790 C   0  0  1  0  0  3  0  0  0  0  0  0
  159.0790  213.6650  152.7440 O   0  0  0  0  0  0  0  0  0  0  0  0
  159.6870  212.4200  155.0600 C   0  0  0  0  0  2  0  0  0  0  0  0
  160.7620  211.3710  154.8320 C   0  0  0  0  0  2  0  0  0  0  0  0
  159.3750  210.9820  152.8010 C   0  0  0  0  0  2  0  0  0  0  0  0
  162.0800  209.3260  150.8280 C   0  0  0  0  0  2  0  0  0  0  0  0
  162.0410  210.7170  150.1980 C   0  0  0  0  0  2  0  0  0  0  0  0
  162.1080  210.6060  148.6870 C   0  0  0  0  0  2  0  0  0  0  0  0
  162.8650  211.6570  148.1660 O   0  0  0  0  0  0  0  0  0  0  0  0
  162.0260  212.7670  148.2400 C   0  0  0  0  0  2  0  0  0  0  0  0
  161.0870  212.7860  147.0430 C   0  0  1  0  0  3  0  0  0  0  0  0
  159.7080  213.5900  148.9620 C   0  0  0  0  0  1  0  0  0  0  0  0
  159.7180  213.2890  147.4750 C   0  0  0  0  0  2  0  0  0  0  0  0
  161.6190  213.6370  146.0340 O   0  0  0  0  0  0  0  0  0  0  0  0
  161.1580  212.7050  143.9860 O   0  0  0  0  0  0  0  0  0  0  0  0
  163.3640  213.1470  144.4250 O   0  0  0  0  0  1  0  0  0  0  0  0
  162.0200  213.1470  144.7900 C   0  0  0  0  0  0  0  0  0  0  0  0
  1 23  1  6  0  0  0
  1  4  1  0  0  0  0
  1  3  1  0  0  0  0
  3  2  1  1  0  0  0
  3 18  1  0  0  0  0
  4  2  1  1  0  0  0
  5  6  1  0  0  0  0
  6  4  1  0  0  0  0
  6  9  1  1  0  0  0
  7  5  1  0  0  0  0
  7  8  1  0  0  0  0
  8 10  2  0  0  0  0
  8  9  1  0  0  0  0
 11 13  1  0  0  0  0
 11  7  2  0  0  0  0
 12 10  1  0  0  0  0
 13 12  2  0  0  0  0
 14 15  1  0  0  0  0
 15 11  1  0  0  0  0
 17 16  2  0  0  0  0
 17 20  1  0  0  0  0
 18 22  1  6  0  0  0
 18 21  1  0  0  0  0
 19 17  2  0  0  0  0
 21 20  1  0  0  0  0
 22 17  1  0  0  0  0
 24 23  1  0  0  0  0
 25 24  1  0  0  0  0
 26 27  1  0  0  0  0
 26 25  1  0  0  0  0
 28 30  1  1  0  0  0
 28 27  1  0  0  0  0
 30 29  1  0  0  0  0
 31 28  1  0  0  0  0
 32 34  2  0  0  0  0
 33 34  1  0  0  0  0
 34 31  1  0  0  0  0
M  END
>  <MODEL>
1

>  <REMARK>
 VINA RESULT:      -7.2      0.000      0.000
  Name = 
  12 active torsions:
  status: ('A' for Active; 'I' for Inactive)
    1  A    between atoms: C_1  and  C_4
    2  A    between atoms: C_1  and  C_30
    3  A    between atoms: O_5  and  C_10
    4  A    between atoms: O_5  and  C_24
    5  A    between atoms: C_6  and  C_21
    6  A    between atoms: C_10  and  C_30
    7  A    between atoms: C_12  and  C_16
    8  A    between atoms: O_15  and  C_28
    9  A    between atoms: C_17  and  O_19
   10  A    between atoms: C_17  and  C_24
   11  A    between atoms: C_17  and  C_31
   12  A    between atoms: O_19  and  C_32
                            x       y       z     vdW  Elec       q    Type
                         _______ _______ _______ _____ _____    ______ ____

>  <TORSDO>
F 12

$$$$
=
 OpenBabel11042422283D

 34 37  0  0  1  0  0  0  0  0999 V2000
  160.9470  209.1240  151.9750 C   0  0  2  0  0  3  0  0  0  0  0  0
  161.0800  208.0710  153.8640 N   0  0  0  0  0  2  0  0  0  0  0  0
  161.2200  209.4600  153.4290 C   0  0  2  0  0  3  0  0  0  0  0  0
  160.7900  207.6880  152.4830 C   0  0  2  0  0  3  0  0  0  0  0  0
  161.5630  206.3600  150.5630 N   0  0  0  0  0  2  0  0  0  0  0  0
  161.8130  206.6680  151.9740 C   0  0  2  0  0  3  0  0  0  0  0  0
  161.3100  205.0990  150.4880 C   0  0  0  0  0  0  0  0  0  0  0  0
  161.3350  204.4800  151.7050 C   0  0  0  0  0  0  0  0  0  0  0  0
  161.6260  205.3400  152.6630 C   0  0  0  0  0  2  0  0  0  0  0  0
  161.0730  203.1190  151.8200 C   0  0  0  0  0  3  0  0  0  0  0  0
  161.0230  204.3900  149.3200 C   0  0  0  0  0  0  0  0  0  0  0  0
  160.7930  202.4150  150.6850 N   0  0  0  0  0  0  0  0  0  0  0  0
  160.7610  203.0110  149.4520 C   0  0  0  0  0  3  0  0  0  0  0  0
  161.8040  204.6300  146.9860 C   0  0  0  0  0  1  0  0  0  0  0  0
  160.9980  205.0400  148.0820 O   0  0  0  0  0  0  0  0  0  0  0  0
  157.2120  212.4130  153.9010 O   0  0  0  0  0  0  0  0  0  0  0  0
  158.6950  212.5050  153.6670 S   0  0  0  0  0  0  0  0  0  0  0  0
  160.1340  210.3610  154.0310 C   0  0  1  0  0  3  0  0  0  0  0  0
  159.0340  213.7160  152.8460 O   0  0  0  0  0  0  0  0  0  0  0  0
  159.5910  212.4870  155.1850 C   0  0  0  0  0  2  0  0  0  0  0  0
  160.6700  211.4370  154.9890 C   0  0  0  0  0  2  0  0  0  0  0  0
  159.3300  211.0330  152.9300 C   0  0  0  0  0  2  0  0  0  0  0  0
  162.1450  209.4280  151.0530 C   0  0  0  0  0  2  0  0  0  0  0  0
  162.0300  210.7220  150.2480 C   0  0  0  0  0  2  0  0  0  0  0  0
  162.1510  210.4250  148.7660 C   0  0  0  0  0  2  0  0  0  0  0  0
  162.5420  211.5760  148.0800 O   0  0  0  0  0  0  0  0  0  0  0  0
  161.5240  212.4970  148.3270 C   0  0  0  0  0  2  0  0  0  0  0  0
  161.1360  213.1960  147.0330 C   0  0  1  0  0  3  0  0  0  0  0  0
  162.2480  213.2230  144.7990 C   0  0  0  0  0  1  0  0  0  0  0  0
  162.3900  213.5850  146.2660 C   0  0  0  0  0  2  0  0  0  0  0  0
  160.3360  212.3230  146.2420 O   0  0  0  0  0  0  0  0  0  0  0  0
  158.5090  212.6580  144.8920 O   0  0  0  0  0  0  0  0  0  0  0  0
  158.1080  212.6150  147.1480 O   0  0  0  0  0  1  0  0  0  0  0  0
  158.9690  212.5380  146.0570 C   0  0  0  0  0  0  0  0  0  0  0  0
  1 23  1  6  0  0  0
  1  4  1  0  0  0  0
  1  3  1  0  0  0  0
  3  2  1  1  0  0  0
  3 18  1  0  0  0  0
  4  2  1  1  0  0  0
  5  6  1  0  0  0  0
  6  4  1  0  0  0  0
  6  9  1  1  0  0  0
  7  5  1  0  0  0  0
  7  8  1  0  0  0  0
  8 10  2  0  0  0  0
  8  9  1  0  0  0  0
 11 13  1  0  0  0  0
 11  7  2  0  0  0  0
 12 10  1  0  0  0  0
 13 12  2  0  0  0  0
 14 15  1  0  0  0  0
 15 11  1  0  0  0  0
 17 16  2  0  0  0  0
 17 20  1  0  0  0  0
 18 22  1  6  0  0  0
 18 21  1  0  0  0  0
 19 17  2  0  0  0  0
 21 20  1  0  0  0  0
 22 17  1  0  0  0  0
 24 23  1  0  0  0  0
 25 24  1  0  0  0  0
 26 27  1  0  0  0  0
 26 25  1  0  0  0  0
 28 30  1  6  0  0  0
 28 27  1  0  0  0  0
 29 30  1  0  0  0  0
 31 28  1  0  0  0  0
 32 34  2  0  0  0  0
 34 31  1  0  0  0  0
 34 33  1  0  0  0  0
M  END
>  <MODEL>
2

>  <REMARK>
 VINA RESULT:      -7.1      0.984      1.643
  Name = 
  12 active torsions:
  status: ('A' for Active; 'I' for Inactive)
    1  A    between atoms: C_1  and  C_4
    2  A    between atoms: C_1  and  C_30
    3  A    between atoms: O_5  and  C_10
    4  A    between atoms: O_5  and  C_24
    5  A    between atoms: C_6  and  C_21
    6  A    between atoms: C_10  and  C_30
    7  A    between atoms: C_12  and  C_16
    8  A    between atoms: O_15  and  C_28
    9  A    between atoms: C_17  and  O_19
   10  A    between atoms: C_17  and  C_24
   11  A    between atoms: C_17  and  C_31
   12  A    between atoms: O_19  and  C_32
                            x       y       z     vdW  Elec       q    Type
                         _______ _______ _______ _____ _____    ______ ____

>  <TORSDO>
F 12

$$$$
=
 OpenBabel11042422283D

 34 37  0  0  1  0  0  0  0  0999 V2000
  161.1150  207.1740  151.9960 C   0  0  2  0  0  3  0  0  0  0  0  0
  161.3080  205.8500  153.7000 N   0  0  0  0  0  2  0  0  0  0  0  0
  161.5030  207.2790  153.4590 C   0  0  2  0  0  3  0  0  0  0  0  0
  160.9060  205.6890  152.3040 C   0  0  2  0  0  3  0  0  0  0  0  0
  161.7170  204.8750  150.1290 N   0  0  0  0  0  2  0  0  0  0  0  0
  161.8310  204.7040  151.5800 C   0  0  2  0  0  3  0  0  0  0  0  0
  161.3010  203.7550  149.6460 C   0  0  0  0  0  0  0  0  0  0  0  0
  161.0870  202.8100  150.6080 C   0  0  0  0  0  0  0  0  0  0  0  0
  161.3740  203.2860  151.8060 C   0  0  0  0  0  2  0  0  0  0  0  0
  160.6240  201.5420  150.2740 C   0  0  0  0  0  3  0  0  0  0  0  0
  161.0630  203.4830  148.2980 C   0  0  0  0  0  0  0  0  0  0  0  0
  160.3900  201.2640  148.9580 N   0  0  0  0  0  0  0  0  0  0  0  0
  160.5960  202.1930  147.9740 C   0  0  0  0  0  3  0  0  0  0  0  0
  162.4950  204.5500  146.5870 C   0  0  0  0  0  1  0  0  0  0  0  0
  161.2840  204.4640  147.3260 O   0  0  0  0  0  0  0  0  0  0  0  0
  158.6500  211.1020  154.9620 O   0  0  0  0  0  0  0  0  0  0  0  0
  160.0200  210.5230  155.1870 S   0  0  0  0  0  0  0  0  0  0  0  0
  160.5140  208.1350  154.2610 C   0  0  1  0  0  3  0  0  0  0  0  0
  161.0060  211.5990  155.5380 O   0  0  0  0  0  0  0  0  0  0  0  0
  159.9900  209.2540  156.4110 C   0  0  0  0  0  2  0  0  0  0  0  0
  160.7330  208.0880  155.7820 C   0  0  0  0  0  2  0  0  0  0  0  0
  160.5650  209.5820  153.7970 C   0  0  0  0  0  2  0  0  0  0  0  0
  162.2660  207.5500  151.0410 C   0  0  0  0  0  2  0  0  0  0  0  0
  162.2470  208.9930  150.5400 C   0  0  0  0  0  2  0  0  0  0  0  0
  161.9800  209.0220  149.0480 C   0  0  0  0  0  2  0  0  0  0  0  0
  162.3770  210.2510  148.5170 O   0  0  0  0  0  0  0  0  0  0  0  0
  161.7940  211.2020  149.3530 C   0  0  0  0  0  2  0  0  0  0  0  0
  161.9350  212.5860  148.7380 C   0  0  1  0  0  3  0  0  0  0  0  0
  162.3690  213.5470  146.4760 C   0  0  0  0  0  1  0  0  0  0  0  0
  162.8020  212.5050  147.4910 C   0  0  0  0  0  2  0  0  0  0  0  0
  160.6470  213.0900  148.4010 O   0  0  0  0  0  0  0  0  0  0  0  0
  160.3020  214.3720  150.2750 O   0  0  0  0  0  1  0  0  0  0  0  0
  158.4290  213.4890  149.2920 O   0  0  0  0  0  0  0  0  0  0  0  0
  159.8080  213.6710  149.3540 C   0  0  0  0  0  0  0  0  0  0  0  0
  1 23  1  6  0  0  0
  1  4  1  0  0  0  0
  1  3  1  0  0  0  0
  3  2  1  1  0  0  0
  3 18  1  0  0  0  0
  4  2  1  1  0  0  0
  5  6  1  0  0  0  0
  6  9  1  6  0  0  0
  6  4  1  0  0  0  0
  7  5  1  0  0  0  0
  7  8  1  0  0  0  0
  8  9  1  0  0  0  0
 10  8  2  0  0  0  0
 11  7  2  0  0  0  0
 12 10  1  0  0  0  0
 13 11  1  0  0  0  0
 13 12  2  0  0  0  0
 14 15  1  0  0  0  0
 15 11  1  0  0  0  0
 16 17  2  0  0  0  0
 17 19  2  0  0  0  0
 17 20  1  0  0  0  0
 18 22  1  6  0  0  0
 18 21  1  0  0  0  0
 21 20  1  0  0  0  0
 22 17  1  0  0  0  0
 24 23  1  0  0  0  0
 25 24  1  0  0  0  0
 26 25  1  0  0  0  0
 26 27  1  0  0  0  0
 28 30  1  6  0  0  0
 28 27  1  0  0  0  0
 29 30  1  0  0  0  0
 31 28  1  0  0  0  0
 31 34  1  0  0  0  0
 33 34  2  0  0  0  0
 34 32  1  0  0  0  0
M  END
>  <MODEL>
3

>  <REMARK>
 VINA RESULT:      -6.9      1.934      2.838
  Name = 
  12 active torsions:
  status: ('A' for Active; 'I' for Inactive)
    1  A    between atoms: C_1  and  C_4
    2  A    between atoms: C_1  and  C_30
    3  A    between atoms: O_5  and  C_10
    4  A    between atoms: O_5  and  C_24
    5  A    between atoms: C_6  and  C_21
    6  A    between atoms: C_10  and  C_30
    7  A    between atoms: C_12  and  C_16
    8  A    between atoms: O_15  and  C_28
    9  A    between atoms: C_17  and  O_19
   10  A    between atoms: C_17  and  C_24
   11  A    between atoms: C_17  and  C_31
   12  A    between atoms: O_19  and  C_32
                            x       y       z     vdW  Elec       q    Type
                         _______ _______ _______ _____ _____    ______ ____

>  <TORSDO>
F 12

$$$$
=
 OpenBabel11042422283D

 34 37  0  0  1  0  0  0  0  0999 V2000
  162.2860  207.0960  150.6600 C   0  0  2  0  0  3  0  0  0  0  0  0
  160.9520  206.8040  152.3420 N   0  0  0  0  0  2  0  0  0  0  0  0
  161.0880  206.2320  151.0030 C   0  0  2  0  0  3  0  0  0  0  0  0
  162.1140  207.6500  152.0780 C   0  0  2  0  0  3  0  0  0  0  0  0
  162.4690  209.7480  153.3090 N   0  0  0  0  0  2  0  0  0  0  0  0
  161.7470  209.1330  152.1930 C   0  0  2  0  0  3  0  0  0  0  0  0
  161.5850  210.1850  154.1390 C   0  0  0  0  0  0  0  0  0  0  0  0
  160.3060  209.9250  153.7360 C   0  0  0  0  0  0  0  0  0  0  0  0
  160.2990  209.2920  152.5780 C   0  0  0  0  0  2  0  0  0  0  0  0
  159.2200  210.3120  154.5130 C   0  0  0  0  0  3  0  0  0  0  0  0
  161.8460  210.8470  155.3400 C   0  0  0  0  0  0  0  0  0  0  0  0
  159.4630  210.9620  155.6890 N   0  0  0  0  0  0  0  0  0  0  0  0
  160.7350  211.2350  156.1150 C   0  0  0  0  0  3  0  0  0  0  0  0
  163.6290  210.8330  157.0540 C   0  0  0  0  0  1  0  0  0  0  0  0
  163.1620  211.1020  155.7390 O   0  0  0  0  0  0  0  0  0  0  0  0
  161.8540  201.4780  149.6520 O   0  0  0  0  0  0  0  0  0  0  0  0
  160.7760  202.3580  150.2230 S   0  0  0  0  0  0  0  0  0  0  0  0
  161.4430  204.7400  151.0520 C   0  0  1  0  0  3  0  0  0  0  0  0
  159.4150  201.8680  149.8230 O   0  0  0  0  0  0  0  0  0  0  0  0
  160.9180  202.4990  151.9740 C   0  0  0  0  0  2  0  0  0  0  0  0
  160.8460  203.9900  152.2530 C   0  0  0  0  0  2  0  0  0  0  0  0
  161.0080  204.0480  149.7700 C   0  0  0  0  0  2  0  0  0  0  0  0
  162.0170  208.0550  149.4820 C   0  0  0  0  0  2  0  0  0  0  0  0
  161.3150  207.4240  148.2810 C   0  0  0  0  0  2  0  0  0  0  0  0
  162.3410  206.9060  147.2920 C   0  0  0  0  0  2  0  0  0  0  0  0
  162.5200  205.5320  147.4670 O   0  0  0  0  0  0  0  0  0  0  0  0
  162.5700  205.0150  146.1740 C   0  0  0  0  0  2  0  0  0  0  0  0
  161.2350  204.3740  145.8230 C   0  0  1  0  0  3  0  0  0  0  0  0
  161.4190  205.6470  143.6840 C   0  0  0  0  0  1  0  0  0  0  0  0
  160.4960  205.2480  144.8210 C   0  0  0  0  0  2  0  0  0  0  0  0
  161.4600  203.0830  145.2660 O   0  0  0  0  0  0  0  0  0  0  0  0
  160.7190  201.5300  146.7880 O   0  0  0  0  0  1  0  0  0  0  0  0
  159.8390  201.3800  144.6770 O   0  0  0  0  0  0  0  0  0  0  0  0
  160.6750  201.9820  145.6140 C   0  0  0  0  0  0  0  0  0  0  0  0
  1 23  1  6  0  0  0
  1  3  1  0  0  0  0
  1  4  1  0  0  0  0
  3 18  1  0  0  0  0
  3  2  1  1  0  0  0
  4  6  1  0  0  0  0
  4  2  1  6  0  0  0
  5  7  1  0  0  0  0
  6  9  1  1  0  0  0
  6  5  1  0  0  0  0
  7 11  1  0  0  0  0
  8  7  2  0  0  0  0
  8 10  1  0  0  0  0
  9  8  1  0  0  0  0
 10 12  2  0  0  0  0
 11 15  1  0  0  0  0
 11 13  2  0  0  0  0
 12 13  1  0  0  0  0
 15 14  1  0  0  0  0
 16 17  2  0  0  0  0
 17 20  1  0  0  0  0
 18 22  1  6  0  0  0
 18 21  1  0  0  0  0
 19 17  2  0  0  0  0
 20 21  1  0  0  0  0
 22 17  1  0  0  0  0
 24 23  1  0  0  0  0
 25 26  1  0  0  0  0
 25 24  1  0  0  0  0
 27 26  1  0  0  0  0
 28 30  1  6  0  0  0
 28 27  1  0  0  0  0
 29 30  1  0  0  0  0
 31 34  1  0  0  0  0
 31 28  1  0  0  0  0
 33 34  2  0  0  0  0
 34 32  1  0  0  0  0
M  END
>  <MODEL>
4

>  <REMARK>
 VINA RESULT:      -6.4      4.426      8.308
  Name = 
  12 active torsions:
  status: ('A' for Active; 'I' for Inactive)
    1  A    between atoms: C_1  and  C_4
    2  A    between atoms: C_1  and  C_30
    3  A    between atoms: O_5  and  C_10
    4  A    between atoms: O_5  and  C_24
    5  A    between atoms: C_6  and  C_21
    6  A    between atoms: C_10  and  C_30
    7  A    between atoms: C_12  and  C_16
    8  A    between atoms: O_15  and  C_28
    9  A    between atoms: C_17  and  O_19
   10  A    between atoms: C_17  and  C_24
   11  A    between atoms: C_17  and  C_31
   12  A    between atoms: O_19  and  C_32
                            x       y       z     vdW  Elec       q    Type
                         _______ _______ _______ _____ _____    ______ ____

>  <TORSDO>
F 12

$$$$
=
 OpenBabel11042422283D

 34 37  0  0  1  0  0  0  0  0999 V2000
  161.2680  206.4520  150.8120 C   0  0  2  0  0  3  0  0  0  0  0  0
  161.8920  206.9060  148.7870 N   0  0  0  0  0  2  0  0  0  0  0  0
  161.9210  205.7270  149.6500 C   0  0  2  0  0  3  0  0  0  0  0  0
  161.2430  207.6530  149.8630 C   0  0  2  0  0  3  0  0  0  0  0  0
  161.3680  209.6700  151.2640 N   0  0  0  0  0  2  0  0  0  0  0  0
  162.0860  208.8650  150.2720 C   0  0  2  0  0  3  0  0  0  0  0  0
  161.2000  210.8410  150.7530 C   0  0  0  0  0  0  0  0  0  0  0  0
  161.7070  210.9460  149.4890 C   0  0  0  0  0  0  0  0  0  0  0  0
  162.2580  209.8080  149.1090 C   0  0  0  0  0  2  0  0  0  0  0  0
  161.6050  212.1340  148.7740 C   0  0  0  0  0  3  0  0  0  0  0  0
  160.5640  211.9200  151.3700 C   0  0  0  0  0  0  0  0  0  0  0  0
  160.9870  213.1970  149.3690 N   0  0  0  0  0  0  0  0  0  0  0  0
  160.4710  213.1190  150.6340 C   0  0  0  0  0  3  0  0  0  0  0  0
  158.8500  211.0820  152.9430 C   0  0  0  0  0  1  0  0  0  0  0  0
  160.0480  211.7950  152.6630 O   0  0  0  0  0  0  0  0  0  0  0  0
  159.0650  201.6300  149.3750 O   0  0  0  0  0  0  0  0  0  0  0  0
  160.5050  202.0470  149.2480 S   0  0  0  0  0  0  0  0  0  0  0  0
  161.0410  204.5950  149.1030 C   0  0  1  0  0  3  0  0  0  0  0  0
  161.4240  200.9320  149.6560 O   0  0  0  0  0  0  0  0  0  0  0  0
  160.8700  202.6160  147.6190 C   0  0  0  0  0  2  0  0  0  0  0  0
  161.5810  203.9430  147.8210 C   0  0  0  0  0  2  0  0  0  0  0  0
  160.8390  203.5210  150.1590 C   0  0  0  0  0  2  0  0  0  0  0  0
  162.1800  206.5410  152.0520 C   0  0  0  0  0  2  0  0  0  0  0  0
  161.5590  206.0270  153.3500 C   0  0  0  0  0  2  0  0  0  0  0  0
  160.6560  207.0870  153.9510 C   0  0  0  0  0  2  0  0  0  0  0  0
  161.4250  208.0530  154.6020 O   0  0  0  0  0  0  0  0  0  0  0  0
  160.6740  208.4050  155.7230 C   0  0  0  0  0  2  0  0  0  0  0  0
  160.7750  209.9040  155.9620 C   0  0  1  0  0  3  0  0  0  0  0  0
  159.4410  211.9280  156.5570 C   0  0  0  0  0  1  0  0  0  0  0  0
  159.4800  210.4110  156.5770 C   0  0  0  0  0  2  0  0  0  0  0  0
  161.8650  210.1740  156.8370 O   0  0  0  0  0  0  0  0  0  0  0  0
  163.3160  210.7030  155.1370 O   0  0  0  0  0  0  0  0  0  0  0  0
  164.0140  211.2110  157.2600 O   0  0  0  0  0  1  0  0  0  0  0  0
  163.0740  210.6950  156.3720 C   0  0  0  0  0  0  0  0  0  0  0  0
  1 23  1  1  0  0  0
  3  2  1  6  0  0  0
  3  1  1  0  0  0  0
  4  2  1  6  0  0  0
  4  6  1  0  0  0  0
  4  1  1  0  0  0  0
  6  9  1  6  0  0  0
  6  5  1  0  0  0  0
  7  5  1  0  0  0  0
  7 11  1  0  0  0  0
  8  7  2  0  0  0  0
  9  8  1  0  0  0  0
 10 12  2  0  0  0  0
 10  8  1  0  0  0  0
 11 15  1  0  0  0  0
 12 13  1  0  0  0  0
 13 11  2  0  0  0  0
 15 14  1  0  0  0  0
 17 16  2  0  0  0  0
 17 19  2  0  0  0  0
 17 22  1  0  0  0  0
 18 21  1  6  0  0  0
 18  3  1  0  0  0  0
 18 22  1  0  0  0  0
 20 21  1  0  0  0  0
 20 17  1  0  0  0  0
 23 24  1  0  0  0  0
 24 25  1  0  0  0  0
 25 26  1  0  0  0  0
 26 27  1  0  0  0  0
 28 27  1  1  0  0  0
 28 30  1  0  0  0  0
 28 31  1  0  0  0  0
 29 30  1  0  0  0  0
 32 34  2  0  0  0  0
 34 31  1  0  0  0  0
 34 33  1  0  0  0  0
M  END
>  <MODEL>
5

>  <REMARK>
 VINA RESULT:      -5.9      3.840      8.725
  Name = 
  12 active torsions:
  status: ('A' for Active; 'I' for Inactive)
    1  A    between atoms: C_1  and  C_4
    2  A    between atoms: C_1  and  C_30
    3  A    between atoms: O_5  and  C_10
    4  A    between atoms: O_5  and  C_24
    5  A    between atoms: C_6  and  C_21
    6  A    between atoms: C_10  and  C_30
    7  A    between atoms: C_12  and  C_16
    8  A    between atoms: O_15  and  C_28
    9  A    between atoms: C_17  and  O_19
   10  A    between atoms: C_17  and  C_24
   11  A    between atoms: C_17  and  C_31
   12  A    between atoms: O_19  and  C_32
                            x       y       z     vdW  Elec       q    Type
                         _______ _______ _______ _____ _____    ______ ____

>  <TORSDO>
F 12

$$$$
=
 OpenBabel11042422283D

 34 37  0  0  1  0  0  0  0  0999 V2000
  161.4170  206.4770  150.2050 C   0  0  2  0  0  3  0  0  0  0  0  0
  162.0420  208.0340  148.8330 N   0  0  0  0  0  2  0  0  0  0  0  0
  162.1490  206.5760  148.8800 C   0  0  2  0  0  3  0  0  0  0  0  0
  161.3140  208.0020  150.1000 C   0  0  2  0  0  3  0  0  0  0  0  0
  161.7310  208.2920  152.5060 N   0  0  0  0  0  2  0  0  0  0  0  0
  162.0480  208.8120  151.1730 C   0  0  2  0  0  3  0  0  0  0  0  0
  161.1710  209.2480  153.1640 C   0  0  0  0  0  0  0  0  0  0  0  0
  161.0370  210.3900  152.4270 C   0  0  0  0  0  0  0  0  0  0  0  0
  161.5320  210.2270  151.2150 C   0  0  0  0  0  2  0  0  0  0  0  0
  160.4420  211.5240  152.9690 C   0  0  0  0  0  3  0  0  0  0  0  0
  160.7160  209.1790  154.4820 C   0  0  0  0  0  0  0  0  0  0  0  0
  159.9950  211.4680  154.2580 N   0  0  0  0  0  0  0  0  0  0  0  0
  160.1170  210.3360  155.0180 C   0  0  0  0  0  3  0  0  0  0  0  0
  159.7750  207.4010  155.9210 C   0  0  0  0  0  1  0  0  0  0  0  0
  160.8570  207.9990  155.2200 O   0  0  0  0  0  0  0  0  0  0  0  0
  161.0310  203.7840  144.8850 O   0  0  0  0  0  0  0  0  0  0  0  0
  161.4660  205.1810  145.2340 S   0  0  0  0  0  0  0  0  0  0  0  0
  161.3730  205.9090  147.7370 C   0  0  1  0  0  3  0  0  0  0  0  0
  162.2860  205.7790  144.1290 O   0  0  0  0  0  0  0  0  0  0  0  0
  160.0880  206.2040  145.6370 C   0  0  0  0  0  2  0  0  0  0  0  0
  160.4650  206.8680  146.9500 C   0  0  0  0  0  2  0  0  0  0  0  0
  162.3300  205.2280  146.7720 C   0  0  0  0  0  2  0  0  0  0  0  0
  162.2930  205.8970  151.3330 C   0  0  0  0  0  2  0  0  0  0  0  0
  161.5890  204.9000  152.2530 C   0  0  0  0  0  2  0  0  0  0  0  0
  160.6450  204.0280  151.4480 C   0  0  0  0  0  2  0  0  0  0  0  0
  161.3650  203.0310  150.7880 O   0  0  0  0  0  0  0  0  0  0  0  0
  160.9520  203.1180  149.4590 C   0  0  0  0  0  2  0  0  0  0  0  0
  161.0470  201.7500  148.7990 C   0  0  1  0  0  3  0  0  0  0  0  0
  158.6760  201.2360  149.3870 C   0  0  0  0  0  1  0  0  0  0  0  0
  160.1170  200.7750  149.5060 C   0  0  0  0  0  2  0  0  0  0  0  0
  160.6830  201.8580  147.4270 O   0  0  0  0  0  0  0  0  0  0  0  0
  161.5810  199.8240  146.8500 O   0  0  0  0  0  1  0  0  0  0  0  0
  160.2200  200.8090  145.2920 O   0  0  0  0  0  0  0  0  0  0  0  0
  160.8530  200.7990  146.5320 C   0  0  0  0  0  0  0  0  0  0  0  0
  1 23  1  1  0  0  0
  3  2  1  6  0  0  0
  3  1  1  0  0  0  0
  4  2  1  6  0  0  0
  4  1  1  0  0  0  0
  4  6  1  0  0  0  0
  5  7  1  0  0  0  0
  6  9  1  1  0  0  0
  6  5  1  0  0  0  0
  7 11  1  0  0  0  0
  8 10  1  0  0  0  0
  8  7  2  0  0  0  0
  9  8  1  0  0  0  0
 10 12  2  0  0  0  0
 11 13  2  0  0  0  0
 11 15  1  0  0  0  0
 12 13  1  0  0  0  0
 15 14  1  0  0  0  0
 16 17  2  0  0  0  0
 17 20  1  0  0  0  0
 17 22  1  0  0  0  0
 18 22  1  6  0  0  0
 18  3  1  0  0  0  0
 19 17  2  0  0  0  0
 20 21  1  0  0  0  0
 21 18  1  0  0  0  0
 23 24  1  0  0  0  0
 25 24  1  0  0  0  0
 26 25  1  0  0  0  0
 27 26  1  0  0  0  0
 28 27  1  1  0  0  0
 28 30  1  0  0  0  0
 29 30  1  0  0  0  0
 31 28  1  0  0  0  0
 33 34  2  0  0  0  0
 34 32  1  0  0  0  0
 34 31  1  0  0  0  0
M  END
>  <MODEL>
6

>  <REMARK>
 VINA RESULT:      -5.8      4.352      9.046
  Name = 
  12 active torsions:
  status: ('A' for Active; 'I' for Inactive)
    1  A    between atoms: C_1  and  C_4
    2  A    between atoms: C_1  and  C_30
    3  A    between atoms: O_5  and  C_10
    4  A    between atoms: O_5  and  C_24
    5  A    between atoms: C_6  and  C_21
    6  A    between atoms: C_10  and  C_30
    7  A    between atoms: C_12  and  C_16
    8  A    between atoms: O_15  and  C_28
    9  A    between atoms: C_17  and  O_19
   10  A    between atoms: C_17  and  C_24
   11  A    between atoms: C_17  and  C_31
   12  A    between atoms: O_19  and  C_32
                            x       y       z     vdW  Elec       q    Type
                         _______ _______ _______ _____ _____    ______ ____

>  <TORSDO>
F 12

$$$$
=
 OpenBabel11042422283D

 34 37  0  0  1  0  0  0  0  0999 V2000
  162.3340  208.8100  150.6090 C   0  0  2  0  0  3  0  0  0  0  0  0
  160.6300  207.6950  151.3510 N   0  0  0  0  0  2  0  0  0  0  0  0
  161.2120  207.9650  150.0360 C   0  0  2  0  0  3  0  0  0  0  0  0
  161.6990  208.4820  151.9630 C   0  0  2  0  0  3  0  0  0  0  0  0
  162.1290  210.1940  153.6750 N   0  0  0  0  0  2  0  0  0  0  0  0
  161.1230  209.6630  152.7520 C   0  0  2  0  0  3  0  0  0  0  0  0
  161.6540  210.0710  154.8670 C   0  0  0  0  0  0  0  0  0  0  0  0
  160.4190  209.4870  154.8870 C   0  0  0  0  0  0  0  0  0  0  0  0
  160.0150  209.2020  153.6640 C   0  0  0  0  0  2  0  0  0  0  0  0
  159.7550  209.2610  156.0880 C   0  0  0  0  0  3  0  0  0  0  0  0
  162.2900  210.4610  156.0470 C   0  0  0  0  0  0  0  0  0  0  0  0
  160.3680  209.6410  157.2480 N   0  0  0  0  0  0  0  0  0  0  0  0
  161.6040  210.2280  157.2550 C   0  0  0  0  0  3  0  0  0  0  0  0
  164.2720  211.4090  157.1840 C   0  0  0  0  0  1  0  0  0  0  0  0
  163.5560  211.0550  156.0080 O   0  0  0  0  0  0  0  0  0  0  0  0
  163.1660  204.8040  146.6890 O   0  0  0  0  0  0  0  0  0  0  0  0
  161.8310  205.3300  147.1410 S   0  0  0  0  0  0  0  0  0  0  0  0
  161.7320  206.6860  149.3670 C   0  0  1  0  0  3  0  0  0  0  0  0
  160.8500  205.3470  146.0050 O   0  0  0  0  0  0  0  0  0  0  0  0
  161.2090  204.4170  148.5140 C   0  0  0  0  0  2  0  0  0  0  0  0
  160.8070  205.4700  149.5330 C   0  0  0  0  0  2  0  0  0  0  0  0
  161.9780  206.9230  147.8860 C   0  0  0  0  0  2  0  0  0  0  0  0
  162.2850  210.2760  150.1340 C   0  0  0  0  0  2  0  0  0  0  0  0
  161.9930  210.4640  148.6460 C   0  0  0  0  0  2  0  0  0  0  0  0
  162.1430  211.9250  148.2670 C   0  0  0  0  0  2  0  0  0  0  0  0
  161.1430  212.2880  147.3630 O   0  0  0  0  0  0  0  0  0  0  0  0
  161.4110  213.6210  147.0560 C   0  0  0  0  0  2  0  0  0  0  0  0
  161.2740  213.8420  145.5570 C   0  0  1  0  0  3  0  0  0  0  0  0
  162.6830  212.9560  143.6970 C   0  0  0  0  0  1  0  0  0  0  0  0
  162.6530  213.8600  144.9150 C   0  0  0  0  0  2  0  0  0  0  0  0
  160.4910  212.7970  144.9910 O   0  0  0  0  0  0  0  0  0  0  0  0
  159.4380  213.0660  142.9670 O   0  0  0  0  0  0  0  0  0  0  0  0
  158.1270  213.3050  144.8320 O   0  0  0  0  0  1  0  0  0  0  0  0
  159.3540  213.0580  144.2230 C   0  0  0  0  0  0  0  0  0  0  0  0
  1 23  1  6  0  0  0
  1  4  1  0  0  0  0
  3  1  1  0  0  0  0
  3  2  1  1  0  0  0
  4  2  1  6  0  0  0
  4  6  1  0  0  0  0
  5  7  1  0  0  0  0
  6  9  1  1  0  0  0
  6  5  1  0  0  0  0
  7  8  2  0  0  0  0
  7 11  1  0  0  0  0
  8 10  1  0  0  0  0
  9  8  1  0  0  0  0
 10 12  2  0  0  0  0
 11 13  2  0  0  0  0
 12 13  1  0  0  0  0
 15 11  1  0  0  0  0
 15 14  1  0  0  0  0
 16 17  2  0  0  0  0
 17 22  1  0  0  0  0
 17 20  1  0  0  0  0
 18 22  1  6  0  0  0
 18 21  1  0  0  0  0
 18  3  1  0  0  0  0
 19 17  2  0  0  0  0
 20 21  1  0  0  0  0
 24 23  1  0  0  0  0
 25 24  1  0  0  0  0
 26 25  1  0  0  0  0
 27 26  1  0  0  0  0
 28 30  1  6  0  0  0
 28 27  1  0  0  0  0
 29 30  1  0  0  0  0
 31 28  1  0  0  0  0
 32 34  2  0  0  0  0
 34 33  1  0  0  0  0
 34 31  1  0  0  0  0
M  END
>  <MODEL>
7

>  <REMARK>
 VINA RESULT:      -5.8      3.037      6.669
  Name = 
  12 active torsions:
  status: ('A' for Active; 'I' for Inactive)
    1  A    between atoms: C_1  and  C_4
    2  A    between atoms: C_1  and  C_30
    3  A    between atoms: O_5  and  C_10
    4  A    between atoms: O_5  and  C_24
    5  A    between atoms: C_6  and  C_21
    6  A    between atoms: C_10  and  C_30
    7  A    between atoms: C_12  and  C_16
    8  A    between atoms: O_15  and  C_28
    9  A    between atoms: C_17  and  O_19
   10  A    between atoms: C_17  and  C_24
   11  A    between atoms: C_17  and  C_31
   12  A    between atoms: O_19  and  C_32
                            x       y       z     vdW  Elec       q    Type
                         _______ _______ _______ _____ _____    ______ ____

>  <TORSDO>
F 12

$$$$
=
 OpenBabel11042422283D

 34 37  0  0  1  0  0  0  0  0999 V2000
  161.7060  207.1440  150.9700 C   0  0  2  0  0  3  0  0  0  0  0  0
  160.4590  205.4250  151.3960 N   0  0  0  0  0  2  0  0  0  0  0  0
  160.8270  206.1780  150.1990 C   0  0  2  0  0  3  0  0  0  0  0  0
  161.3060  206.3110  152.1910 C   0  0  2  0  0  3  0  0  0  0  0  0
  160.6790  208.4780  153.1710 N   0  0  0  0  0  2  0  0  0  0  0  0
  160.4860  207.0290  153.2690 C   0  0  2  0  0  3  0  0  0  0  0  0
  161.1880  208.8700  154.2880 C   0  0  0  0  0  0  0  0  0  0  0  0
  161.3970  207.8440  155.1650 C   0  0  0  0  0  0  0  0  0  0  0  0
  161.0090  206.6950  154.6420 C   0  0  0  0  0  2  0  0  0  0  0  0
  161.9520  208.0760  156.4180 C   0  0  0  0  0  3  0  0  0  0  0  0
  161.5230  210.1840  154.6190 C   0  0  0  0  0  0  0  0  0  0  0  0
  162.2810  209.3570  156.7530 N   0  0  0  0  0  0  0  0  0  0  0  0
  162.0830  210.4040  155.8930 C   0  0  0  0  0  3  0  0  0  0  0  0
  160.0850  211.9490  153.6520 C   0  0  0  0  0  1  0  0  0  0  0  0
  161.3060  211.2230  153.7080 O   0  0  0  0  0  0  0  0  0  0  0  0
  163.4120  204.7320  146.1690 O   0  0  0  0  0  0  0  0  0  0  0  0
  162.0020  204.7520  146.6920 S   0  0  0  0  0  0  0  0  0  0  0  0
  161.6320  205.3240  149.2100 C   0  0  1  0  0  3  0  0  0  0  0  0
  161.0140  204.8570  145.5670 O   0  0  0  0  0  0  0  0  0  0  0  0
  161.6710  203.3500  147.7090 C   0  0  0  0  0  2  0  0  0  0  0  0
  161.0480  203.9230  148.9710 C   0  0  0  0  0  2  0  0  0  0  0  0
  161.7660  206.0400  147.8760 C   0  0  0  0  0  2  0  0  0  0  0  0
  161.2020  208.6000  150.9030 C   0  0  0  0  0  2  0  0  0  0  0  0
  162.1780  209.5950  150.2750 C   0  0  0  0  0  2  0  0  0  0  0  0
  161.9570  209.6630  148.7760 C   0  0  0  0  0  2  0  0  0  0  0  0
  162.4990  210.8460  148.2700 O   0  0  0  0  0  0  0  0  0  0  0  0
  161.5910  211.8370  148.6390 C   0  0  0  0  0  2  0  0  0  0  0  0
  161.3640  212.7890  147.4730 C   0  0  1  0  0  3  0  0  0  0  0  0
  162.4800  213.3310  145.3070 C   0  0  0  0  0  1  0  0  0  0  0  0
  162.6900  213.0850  146.7900 C   0  0  0  0  0  2  0  0  0  0  0  0
  160.4630  212.1960  146.5440 O   0  0  0  0  0  0  0  0  0  0  0  0
  158.4860  212.4090  145.3950 O   0  0  0  0  0  0  0  0  0  0  0  0
  158.4830  213.1520  147.5620 O   0  0  0  0  0  1  0  0  0  0  0  0
  159.1230  212.5820  146.4660 C   0  0  0  0  0  0  0  0  0  0  0  0
  1 23  1  1  0  0  0
  1  4  1  0  0  0  0
  3  1  1  0  0  0  0
  3  2  1  1  0  0  0
  4  2  1  6  0  0  0
  4  6  1  0  0  0  0
  5  6  1  0  0  0  0
  5  7  1  0  0  0  0
  6  9  1  1  0  0  0
  7 11  2  0  0  0  0
  7  8  1  0  0  0  0
  8 10  2  0  0  0  0
  9  8  1  0  0  0  0
 10 12  1  0  0  0  0
 11 13  1  0  0  0  0
 13 12  2  0  0  0  0
 14 15  1  0  0  0  0
 15 11  1  0  0  0  0
 16 17  2  0  0  0  0
 17 20  1  0  0  0  0
 17 22  1  0  0  0  0
 18 22  1  6  0  0  0
 18  3  1  0  0  0  0
 19 17  2  0  0  0  0
 20 21  1  0  0  0  0
 21 18  1  0  0  0  0
 24 23  1  0  0  0  0
 25 24  1  0  0  0  0
 26 27  1  0  0  0  0
 26 25  1  0  0  0  0
 28 30  1  6  0  0  0
 28 27  1  0  0  0  0
 29 30  1  0  0  0  0
 31 28  1  0  0  0  0
 32 34  2  0  0  0  0
 34 31  1  0  0  0  0
 34 33  1  0  0  0  0
M  END
>  <MODEL>
8

>  <REMARK>
 VINA RESULT:      -5.7      2.656      6.469
  Name = 
  12 active torsions:
  status: ('A' for Active; 'I' for Inactive)
    1  A    between atoms: C_1  and  C_4
    2  A    between atoms: C_1  and  C_30
    3  A    between atoms: O_5  and  C_10
    4  A    between atoms: O_5  and  C_24
    5  A    between atoms: C_6  and  C_21
    6  A    between atoms: C_10  and  C_30
    7  A    between atoms: C_12  and  C_16
    8  A    between atoms: O_15  and  C_28
    9  A    between atoms: C_17  and  O_19
   10  A    between atoms: C_17  and  C_24
   11  A    between atoms: C_17  and  C_31
   12  A    between atoms: O_19  and  C_32
                            x       y       z     vdW  Elec       q    Type
                         _______ _______ _______ _____ _____    ______ ____

>  <TORSDO>
F 12

$$$$
=
 OpenBabel11042422283D

 34 37  0  0  1  0  0  0  0  0999 V2000
  160.7790  208.7620  152.3180 C   0  0  2  0  0  3  0  0  0  0  0  0
  161.5940  210.7040  152.8300 N   0  0  0  0  0  2  0  0  0  0  0  0
  162.1020  209.4930  152.1880 C   0  0  2  0  0  3  0  0  0  0  0  0
  160.2890  210.0600  152.9670 C   0  0  2  0  0  3  0  0  0  0  0  0
  158.5980  210.6650  154.6470 N   0  0  0  0  0  2  0  0  0  0  0  0
  159.8740  209.9740  154.4390 C   0  0  2  0  0  3  0  0  0  0  0  0
  158.8140  211.6170  155.4890 C   0  0  0  0  0  0  0  0  0  0  0  0
  160.1180  211.6870  155.8860 C   0  0  0  0  0  0  0  0  0  0  0  0
  160.8370  210.7430  155.3070 C   0  0  0  0  0  2  0  0  0  0  0  0
  160.5410  212.6620  156.7830 C   0  0  0  0  0  3  0  0  0  0  0  0
  157.8610  212.5170  155.9690 C   0  0  0  0  0  0  0  0  0  0  0  0
  159.6170  213.5470  157.2600 N   0  0  0  0  0  0  0  0  0  0  0  0
  158.3030  213.4980  156.8790 C   0  0  0  0  0  3  0  0  0  0  0  0
  155.4680  212.0970  156.4330 C   0  0  0  0  0  1  0  0  0  0  0  0
  156.5290  212.4320  155.5490 O   0  0  0  0  0  0  0  0  0  0  0  0
  163.1310  211.7790  147.8610 O   0  0  0  0  0  0  0  0  0  0  0  0
  161.9750  211.1500  148.5900 S   0  0  0  0  0  0  0  0  0  0  0  0
  162.4880  209.7400  150.7240 C   0  0  1  0  0  3  0  0  0  0  0  0
  160.6790  211.8000  148.2030 O   0  0  0  0  0  0  0  0  0  0  0  0
  161.9210  209.4070  148.3330 C   0  0  0  0  0  2  0  0  0  0  0  0
  161.7810  208.8110  149.7230 C   0  0  0  0  0  2  0  0  0  0  0  0
  162.2130  211.1840  150.3390 C   0  0  0  0  0  2  0  0  0  0  0  0
  160.8700  207.5090  153.2110 C   0  0  0  0  0  2  0  0  0  0  0  0
  161.8660  206.4500  152.7410 C   0  0  0  0  0  2  0  0  0  0  0  0
  161.1960  205.0900  152.6960 C   0  0  0  0  0  2  0  0  0  0  0  0
  161.7400  204.3270  151.6610 O   0  0  0  0  0  0  0  0  0  0  0  0
  161.3730  204.9990  150.4960 C   0  0  0  0  0  2  0  0  0  0  0  0
  160.8040  204.0120  149.4870 C   0  0  1  0  0  3  0  0  0  0  0  0
  160.9650  205.8720  147.8300 C   0  0  0  0  0  1  0  0  0  0  0  0
  161.2470  204.4020  148.0850 C   0  0  0  0  0  2  0  0  0  0  0  0
  161.2660  202.7010  149.7930 O   0  0  0  0  0  0  0  0  0  0  0  0
  159.4310  201.3970  149.3380 O   0  0  0  0  0  1  0  0  0  0  0  0
  161.4460  200.6080  148.5840 O   0  0  0  0  0  0  0  0  0  0  0  0
  160.6750  201.5620  149.2430 C   0  0  0  0  0  0  0  0  0  0  0  0
  1  4  1  0  0  0  0
  1 23  1  1  0  0  0
  3  1  1  0  0  0  0
  3  2  1  1  0  0  0
  4  2  1  1  0  0  0
  4  6  1  0  0  0  0
  5  7  1  0  0  0  0
  6  5  1  0  0  0  0
  6  9  1  1  0  0  0
  7  8  2  0  0  0  0
  7 11  1  0  0  0  0
  8 10  1  0  0  0  0
  9  8  1  0  0  0  0
 10 12  2  0  0  0  0
 11 13  2  0  0  0  0
 13 12  1  0  0  0  0
 15 11  1  0  0  0  0
 15 14  1  0  0  0  0
 16 17  2  0  0  0  0
 17 22  1  0  0  0  0
 18 21  1  6  0  0  0
 18  3  1  0  0  0  0
 19 17  2  0  0  0  0
 20 17  1  0  0  0  0
 20 21  1  0  0  0  0
 22 18  1  0  0  0  0
 24 23  1  0  0  0  0
 25 24  1  0  0  0  0
 26 25  1  0  0  0  0
 27 26  1  0  0  0  0
 28 30  1  6  0  0  0
 28 31  1  0  0  0  0
 28 27  1  0  0  0  0
 29 30  1  0  0  0  0
 33 34  2  0  0  0  0
 34 32  1  0  0  0  0
 34 31  1  0  0  0  0
M  END
>  <MODEL>
9

>  <REMARK>
 VINA RESULT:      -5.6      3.049      8.581
  Name = 
  12 active torsions:
  status: ('A' for Active; 'I' for Inactive)
    1  A    between atoms: C_1  and  C_4
    2  A    between atoms: C_1  and  C_30
    3  A    between atoms: O_5  and  C_10
    4  A    between atoms: O_5  and  C_24
    5  A    between atoms: C_6  and  C_21
    6  A    between atoms: C_10  and  C_30
    7  A    between atoms: C_12  and  C_16
    8  A    between atoms: O_15  and  C_28
    9  A    between atoms: C_17  and  O_19
   10  A    between atoms: C_17  and  C_24
   11  A    between atoms: C_17  and  C_31
   12  A    between atoms: O_19  and  C_32
                            x       y       z     vdW  Elec       q    Type
                         _______ _______ _______ _____ _____    ______ ____

>  <TORSDO>
F 12

$$$$
