=
 OpenBabel11042422113D

 34 38  0  0  1  0  0  0  0  0999 V2000
  160.9370  205.7390  151.6650 C   0  0  0  0  0  2  0  0  0  0  0  0
  160.6930  204.3090  149.2060 C   0  0  0  0  0  3  0  0  0  0  0  0
  161.5090  207.7390  147.9330 N   0  0  0  0  0  0  0  0  0  0  0  0
  160.7980  203.5990  150.3370 C   0  0  0  0  0  0  0  0  0  0  0  0
  161.5110  207.8340  150.3310 C   0  0  0  0  0  0  0  0  0  0  0  0
  161.6870  208.4410  149.0800 C   0  0  0  0  0  3  0  0  0  0  0  0
  161.1520  206.4260  147.9350 C   0  0  0  0  0  0  0  0  0  0  0  0
  161.1770  206.4620  150.3660 C   0  0  0  0  0  0  0  0  0  0  0  0
  160.8760  203.5570  152.8410 C   0  0  0  0  0  1  0  0  0  0  0  0
  161.0030  205.7540  149.1610 C   0  0  0  0  0  0  0  0  0  0  0  0
  161.3400  204.2660  151.5820 C   0  0  2  0  0  3  0  0  0  0  0  0
  159.5290  210.0150  154.7370 C   0  0  1  0  0  3  0  0  0  0  0  0
  161.7230  210.4760  153.7470 O   0  0  0  0  0  0  0  0  0  0  0  0
  162.0260  207.9360  152.7740 C   0  0  0  0  0  2  0  0  0  0  0  0
  160.9040  208.1310  153.7750 C   0  0  0  0  0  2  0  0  0  0  0  0
  161.1870  210.7980  152.5130 N   0  0  2  0  0  0  0  0  0  0  0  0
  161.6870  208.6180  151.5290 N   0  0  0  0  0  0  0  0  0  0  0  0
  159.7200  210.7190  152.3790 C   0  0  0  0  0  2  0  0  0  0  0  0
  159.0460  211.0290  153.7030 C   0  0  0  0  0  2  0  0  0  0  0  0
  160.9480  209.5060  154.4440 C   0  0  2  0  0  3  0  0  0  0  0  0
  161.8670  210.0710  151.4340 C   0  0  2  0  0  3  0  0  0  0  0  0
  163.2270  210.3870  151.4210 O   0  0  0  0  0  1  0  0  0  0  0  0
  159.3440  210.4430  156.0700 O   0  0  0  0  0  0  0  0  0  0  0  0
  160.2210  209.7350  156.9080 C   0  0  0  0  0  1  0  0  0  0  0  0
  161.0020  205.7040  146.6270 C   0  0  2  0  0  3  0  0  0  0  0  0
  162.1860  204.8680  146.3650 N   0  0  0  0  0  2  0  0  0  0  0  0
  161.5350  205.9120  144.2680 C   0  0  0  0  0  1  0  0  0  0  0  0
  162.0210  206.1570  145.6810 C   0  0  1  0  0  3  0  0  0  0  0  0
  160.5030  202.2240  150.3780 O   0  0  0  0  0  0  0  0  0  0  0  0
  159.9660  201.4520  149.3330 C   0  0  0  0  0  0  0  0  0  0  0  0
  158.7680  201.0560  149.3640 O   0  0  0  0  0  0  0  0  0  0  0  0
  161.8240  200.2270  148.3390 C   0  0  0  0  0  2  0  0  0  0  0  0
  160.8290  201.0930  148.1960 C   0  0  0  0  0  0  0  0  0  0  0  0
  160.5920  201.6980  146.8560 C   0  0  0  0  0  1  0  0  0  0  0  0
  2  4  2  0  0  0  0
  3  7  2  0  0  0  0
  3  6  1  0  0  0  0
  4 29  1  0  0  0  0
  4 11  1  0  0  0  0
  5  8  1  0  0  0  0
  5 17  1  0  0  0  0
  6  5  2  0  0  0  0
  7 10  1  0  0  0  0
  8  1  1  0  0  0  0
 10  2  1  0  0  0  0
 10  8  2  0  0  0  0
 11  1  1  0  0  0  0
 11  9  1  1  0  0  0
 12 23  1  1  0  0  0
 13 20  1  0  0  0  0
 14 15  1  0  0  0  0
 16 18  1  1  0  0  0
 16 13  1  0  0  0  0
 17 14  1  0  0  0  0
 18 19  1  0  0  0  0
 19 12  1  0  0  0  0
 20 15  1  6  0  0  0
 20 12  1  0  0  0  0
 21 22  1  1  0  0  0
 21 17  1  0  0  0  0
 21 16  1  0  0  0  0
 23 24  1  0  0  0  0
 25  7  1  1  0  0  0
 26 25  1  0  0  0  0
 28 27  1  6  0  0  0
 28 26  1  0  0  0  0
 28 25  1  0  0  0  0
 30 31  2  0  0  0  0
 30 29  1  0  0  0  0
 33 32  2  0  0  0  0
 33 30  1  0  0  0  0
 34 33  1  0  0  0  0
M  END
>  <MODEL>
1

>  <REMARK>
 VINA RESULT:      -8.5      0.000      0.000
  Name = 
  6 active torsions:
  status: ('A' for Active; 'I' for Inactive)
    1  A    between atoms: C_4  and  O_23
    2  A    between atoms: C_5  and  O_24
    3  A    between atoms: C_7  and  N_21
    4  A    between atoms: C_10  and  C_12
    5  A    between atoms: C_11  and  C_14
    6  A    between atoms: C_14  and  O_23
                            x       y       z     vdW  Elec       q    Type
                         _______ _______ _______ _____ _____    ______ ____

>  <TORSDO>
F 6

$$$$
=
 OpenBabel11042422113D

 34 38  0  0  1  0  0  0  0  0999 V2000
  161.8510  208.8270  150.9060 C   0  0  0  0  0  2  0  0  0  0  0  0
  162.0380  206.2520  149.6870 C   0  0  0  0  0  3  0  0  0  0  0  0
  161.2540  205.2880  153.2230 N   0  0  0  0  0  0  0  0  0  0  0  0
  161.9400  207.3210  148.8840 C   0  0  0  0  0  0  0  0  0  0  0  0
  161.2880  207.6860  153.1140 C   0  0  0  0  0  0  0  0  0  0  0  0
  161.1020  206.4940  153.8280 C   0  0  0  0  0  3  0  0  0  0  0  0
  161.5920  205.1730  151.9110 C   0  0  0  0  0  0  0  0  0  0  0  0
  161.6020  207.5980  151.7390 C   0  0  0  0  0  0  0  0  0  0  0  0
  161.8980  209.8130  148.6300 C   0  0  0  0  0  1  0  0  0  0  0  0
  161.7490  206.3350  151.1340 C   0  0  0  0  0  0  0  0  0  0  0  0
  161.4250  208.6260  149.4500 C   0  0  2  0  0  3  0  0  0  0  0  0
  158.2210  211.6310  154.8800 C   0  0  1  0  0  3  0  0  0  0  0  0
  160.6690  211.6360  154.7580 O   0  0  0  0  0  0  0  0  0  0  0  0
  160.8850  208.9490  155.2310 C   0  0  0  0  0  2  0  0  0  0  0  0
  159.5230  209.5610  155.4990 C   0  0  0  0  0  2  0  0  0  0  0  0
  160.6820  211.3180  153.4120 N   0  0  2  0  0  0  0  0  0  0  0  0
  161.1410  208.9490  153.7950 N   0  0  0  0  0  0  0  0  0  0  0  0
  159.3740  211.1390  152.7530 C   0  0  0  0  0  2  0  0  0  0  0  0
  158.3230  212.0190  153.4070 C   0  0  0  0  0  2  0  0  0  0  0  0
  159.5450  211.0890  155.4390 C   0  0  2  0  0  3  0  0  0  0  0  0
  161.5800  210.1880  153.1430 C   0  0  2  0  0  3  0  0  0  0  0  0
  162.8830  210.5020  153.5350 O   0  0  0  0  0  1  0  0  0  0  0  0
  157.6350  212.6350  155.6840 O   0  0  0  0  0  0  0  0  0  0  0  0
  156.5600  212.0830  156.3990 C   0  0  0  0  0  1  0  0  0  0  0  0
  161.7120  203.8060  151.3000 C   0  0  2  0  0  3  0  0  0  0  0  0
  160.4490  203.4250  150.6450 N   0  0  0  0  0  2  0  0  0  0  0  0
  161.3140  201.4630  151.7920 C   0  0  0  0  0  1  0  0  0  0  0  0
  160.7990  202.8760  151.9620 C   0  0  1  0  0  3  0  0  0  0  0  0
  162.2150  207.2400  147.5070 O   0  0  0  0  0  0  0  0  0  0  0  0
  161.6810  206.3080  146.6000 C   0  0  0  0  0  0  0  0  0  0  0  0
  160.7100  206.6080  145.8530 O   0  0  0  0  0  0  0  0  0  0  0  0
  163.4270  204.7400  145.9410 C   0  0  0  0  0  2  0  0  0  0  0  0
  162.2630  204.9570  146.5410 C   0  0  0  0  0  0  0  0  0  0  0  0
  161.5500  203.8070  147.1600 C   0  0  0  0  0  1  0  0  0  0  0  0
  1  8  1  0  0  0  0
  2 10  1  0  0  0  0
  3  6  1  0  0  0  0
  4 11  1  0  0  0  0
  4  2  2  0  0  0  0
  5 17  1  0  0  0  0
  5  6  2  0  0  0  0
  7  3  2  0  0  0  0
  8  5  1  0  0  0  0
 10  8  2  0  0  0  0
 10  7  1  0  0  0  0
 11  9  1  6  0  0  0
 11  1  1  0  0  0  0
 12 20  1  0  0  0  0
 12 23  1  1  0  0  0
 13 20  1  0  0  0  0
 14 15  1  0  0  0  0
 16 18  1  1  0  0  0
 16 13  1  0  0  0  0
 17 14  1  0  0  0  0
 18 19  1  0  0  0  0
 19 12  1  0  0  0  0
 20 15  1  6  0  0  0
 21 16  1  0  0  0  0
 21 22  1  1  0  0  0
 21 17  1  0  0  0  0
 23 24  1  0  0  0  0
 25  7  1  1  0  0  0
 25 28  1  0  0  0  0
 26 25  1  0  0  0  0
 26 28  1  0  0  0  0
 28 27  1  6  0  0  0
 29  4  1  0  0  0  0
 30 29  1  0  0  0  0
 31 30  2  0  0  0  0
 32 33  2  0  0  0  0
 33 30  1  0  0  0  0
 33 34  1  0  0  0  0
M  END
>  <MODEL>
2

>  <REMARK>
 VINA RESULT:      -8.1      2.542      4.306
  Name = 
  6 active torsions:
  status: ('A' for Active; 'I' for Inactive)
    1  A    between atoms: C_4  and  O_23
    2  A    between atoms: C_5  and  O_24
    3  A    between atoms: C_7  and  N_21
    4  A    between atoms: C_10  and  C_12
    5  A    between atoms: C_11  and  C_14
    6  A    between atoms: C_14  and  O_23
                            x       y       z     vdW  Elec       q    Type
                         _______ _______ _______ _____ _____    ______ ____

>  <TORSDO>
F 6

$$$$
=
 OpenBabel11042422113D

 34 38  0  0  1  0  0  0  0  0999 V2000
  160.8250  207.2700  152.5050 C   0  0  0  0  0  2  0  0  0  0  0  0
  161.2430  205.4050  150.3840 C   0  0  0  0  0  3  0  0  0  0  0  0
  162.1660  208.6110  148.6770 N   0  0  0  0  0  0  0  0  0  0  0  0
  161.1120  204.9220  151.6270 C   0  0  0  0  0  0  0  0  0  0  0  0
  161.5940  209.1350  150.9480 C   0  0  0  0  0  0  0  0  0  0  0  0
  162.0320  209.5220  149.6740 C   0  0  0  0  0  3  0  0  0  0  0  0
  161.8840  207.2930  148.8570 C   0  0  0  0  0  0  0  0  0  0  0  0
  161.3310  207.7660  151.1760 C   0  0  0  0  0  0  0  0  0  0  0  0
  160.5960  205.3370  154.0430 C   0  0  0  0  0  1  0  0  0  0  0  0
  161.4820  206.8400  150.1260 C   0  0  0  0  0  0  0  0  0  0  0  0
  161.3100  205.8500  152.8050 C   0  0  2  0  0  3  0  0  0  0  0  0
  160.3700  210.4580  155.9330 C   0  0  1  0  0  3  0  0  0  0  0  0
  160.6930  212.0020  154.0570 O   0  0  0  0  0  0  0  0  0  0  0  0
  162.5780  210.4320  152.8440 C   0  0  0  0  0  2  0  0  0  0  0  0
  162.2290  210.0620  154.2740 C   0  0  0  0  0  2  0  0  0  0  0  0
  159.7610  211.3570  153.2620 N   0  0  2  0  0  0  0  0  0  0  0  0
  161.4420  210.1340  151.9780 N   0  0  0  0  0  0  0  0  0  0  0  0
  159.0900  210.1770  153.8410 C   0  0  0  0  0  2  0  0  0  0  0  0
  158.9670  210.3190  155.3470 C   0  0  0  0  0  2  0  0  0  0  0  0
  161.3540  211.1160  154.9550 C   0  0  2  0  0  3  0  0  0  0  0  0
  160.3100  211.0660  151.9320 C   0  0  2  0  0  3  0  0  0  0  0  0
  160.6880  212.2510  151.2970 O   0  0  0  0  0  1  0  0  0  0  0  0
  160.3840  211.0330  157.2230 O   0  0  0  0  0  0  0  0  0  0  0  0
  159.4750  212.1040  157.2600 C   0  0  0  0  0  1  0  0  0  0  0  0
  162.0840  206.3370  147.7160 C   0  0  2  0  0  3  0  0  0  0  0  0
  160.9900  206.4700  146.7390 N   0  0  0  0  0  2  0  0  0  0  0  0
  161.4860  204.1020  146.9830 C   0  0  0  0  0  1  0  0  0  0  0  0
  161.0050  205.3510  147.6900 C   0  0  1  0  0  3  0  0  0  0  0  0
  160.8850  203.5550  151.8700 O   0  0  0  0  0  0  0  0  0  0  0  0
  161.5040  202.4750  151.2180 C   0  0  0  0  0  0  0  0  0  0  0  0
  162.5950  201.9980  151.6370 O   0  0  0  0  0  0  0  0  0  0  0  0
  159.6010  202.1700  149.7260 C   0  0  0  0  0  2  0  0  0  0  0  0
  160.8690  201.9080  150.0180 C   0  0  0  0  0  0  0  0  0  0  0  0
  161.6480  201.0270  149.1040 C   0  0  0  0  0  1  0  0  0  0  0  0
  1 11  1  0  0  0  0
  2  4  2  0  0  0  0
  3  7  2  0  0  0  0
  3  6  1  0  0  0  0
  4 29  1  0  0  0  0
  4 11  1  0  0  0  0
  5  8  1  0  0  0  0
  5 17  1  0  0  0  0
  6  5  2  0  0  0  0
  7 10  1  0  0  0  0
  8  1  1  0  0  0  0
 10  2  1  0  0  0  0
 10  8  2  0  0  0  0
 11  9  1  1  0  0  0
 12 23  1  1  0  0  0
 13 20  1  0  0  0  0
 14 15  1  0  0  0  0
 16 18  1  1  0  0  0
 16 13  1  0  0  0  0
 17 14  1  0  0  0  0
 18 19  1  0  0  0  0
 19 12  1  0  0  0  0
 20 15  1  6  0  0  0
 20 12  1  0  0  0  0
 21 22  1  1  0  0  0
 21 17  1  0  0  0  0
 21 16  1  0  0  0  0
 23 24  1  0  0  0  0
 25  7  1  1  0  0  0
 26 28  1  0  0  0  0
 26 25  1  0  0  0  0
 28 27  1  6  0  0  0
 28 25  1  0  0  0  0
 30 31  2  0  0  0  0
 30 29  1  0  0  0  0
 32 33  2  0  0  0  0
 33 30  1  0  0  0  0
 34 33  1  0  0  0  0
M  END
>  <MODEL>
3

>  <REMARK>
 VINA RESULT:      -7.0      1.707      2.183
  Name = 
  6 active torsions:
  status: ('A' for Active; 'I' for Inactive)
    1  A    between atoms: C_4  and  O_23
    2  A    between atoms: C_5  and  O_24
    3  A    between atoms: C_7  and  N_21
    4  A    between atoms: C_10  and  C_12
    5  A    between atoms: C_11  and  C_14
    6  A    between atoms: C_14  and  O_23
                            x       y       z     vdW  Elec       q    Type
                         _______ _______ _______ _____ _____    ______ ____

>  <TORSDO>
F 6

$$$$
=
 OpenBabel11042422113D

 34 38  0  0  1  0  0  0  0  0999 V2000
  161.9910  210.4050  149.3510 C   0  0  0  0  0  2  0  0  0  0  0  0
  161.6820  209.1220  151.8820 C   0  0  0  0  0  3  0  0  0  0  0  0
  160.0650  212.4290  152.5830 N   0  0  0  0  0  0  0  0  0  0  0  0
  162.0170  208.3620  150.8300 C   0  0  0  0  0  0  0  0  0  0  0  0
  160.7660  212.4350  150.2870 C   0  0  0  0  0  0  0  0  0  0  0  0
  160.1430  213.0530  151.3800 C   0  0  0  0  0  3  0  0  0  0  0  0
  160.5810  211.1890  152.7900 C   0  0  0  0  0  0  0  0  0  0  0  0
  161.2780  211.1290  150.4620 C   0  0  0  0  0  0  0  0  0  0  0  0
  162.6970  208.2160  148.4230 C   0  0  0  0  0  1  0  0  0  0  0  0
  161.1800  210.5020  151.7180 C   0  0  0  0  0  0  0  0  0  0  0  0
  161.7860  208.8920  149.4320 C   0  0  2  0  0  3  0  0  0  0  0  0
  158.7630  213.5880  145.5170 C   0  0  1  0  0  3  0  0  0  0  0  0
  161.0180  214.1220  146.3150 O   0  0  0  0  0  0  0  0  0  0  0  0
  160.2250  214.4500  148.9130 C   0  0  0  0  0  2  0  0  0  0  0  0
  159.1120  214.3870  147.8840 C   0  0  0  0  0  2  0  0  0  0  0  0
  161.2970  212.8090  146.6500 N   0  0  2  0  0  0  0  0  0  0  0  0
  160.8500  213.1370  149.0300 N   0  0  0  0  0  0  0  0  0  0  0  0
  160.2330  211.8160  146.4070 C   0  0  0  0  0  2  0  0  0  0  0  0
  159.3830  212.2250  145.2180 C   0  0  0  0  0  2  0  0  0  0  0  0
  159.6370  214.4400  146.4480 C   0  0  2  0  0  3  0  0  0  0  0  0
  161.8230  212.7110  148.0170 C   0  0  2  0  0  3  0  0  0  0  0  0
  162.9980  213.4560  148.1370 O   0  0  0  0  0  1  0  0  0  0  0  0
  158.3330  214.2740  144.3590 O   0  0  0  0  0  0  0  0  0  0  0  0
  158.9170  213.6800  143.2280 C   0  0  0  0  0  1  0  0  0  0  0  0
  160.4320  210.5470  154.1400 C   0  0  2  0  0  3  0  0  0  0  0  0
  160.5980  211.5500  155.2050 N   0  0  0  0  0  2  0  0  0  0  0  0
  161.7350  209.5210  155.9120 C   0  0  0  0  0  1  0  0  0  0  0  0
  161.6910  210.6260  154.8780 C   0  0  1  0  0  3  0  0  0  0  0  0
  162.4950  207.0480  150.9880 O   0  0  0  0  0  0  0  0  0  0  0  0
  161.8930  206.0230  151.7380 C   0  0  0  0  0  0  0  0  0  0  0  0
  161.9490  206.0170  152.9980 O   0  0  0  0  0  0  0  0  0  0  0  0
  160.8740  203.8100  151.6530 C   0  0  0  0  0  2  0  0  0  0  0  0
  161.2000  204.9350  151.0290 C   0  0  0  0  0  0  0  0  0  0  0  0
  160.8480  205.0840  149.5900 C   0  0  0  0  0  1  0  0  0  0  0  0
  1 11  1  0  0  0  0
  1  8  1  0  0  0  0
  3  7  1  0  0  0  0
  4 29  1  0  0  0  0
  4  2  2  0  0  0  0
  5  8  2  0  0  0  0
  5  6  1  0  0  0  0
  6  3  2  0  0  0  0
  8 10  1  0  0  0  0
 10  2  1  0  0  0  0
 10  7  2  0  0  0  0
 11  9  1  6  0  0  0
 11  4  1  0  0  0  0
 12 23  1  6  0  0  0
 12 20  1  0  0  0  0
 13 20  1  0  0  0  0
 13 16  1  0  0  0  0
 14 17  1  0  0  0  0
 15 14  1  0  0  0  0
 16 18  1  1  0  0  0
 16 21  1  0  0  0  0
 17  5  1  0  0  0  0
 19 12  1  0  0  0  0
 19 18  1  0  0  0  0
 20 15  1  1  0  0  0
 21 22  1  6  0  0  0
 21 17  1  0  0  0  0
 24 23  1  0  0  0  0
 25  7  1  6  0  0  0
 25 28  1  0  0  0  0
 25 26  1  0  0  0  0
 28 26  1  0  0  0  0
 28 27  1  1  0  0  0
 29 30  1  0  0  0  0
 30 31  2  0  0  0  0
 33 32  2  0  0  0  0
 33 30  1  0  0  0  0
 34 33  1  0  0  0  0
M  END
>  <MODEL>
4

>  <REMARK>
 VINA RESULT:      -7.0      4.119      7.569
  Name = 
  6 active torsions:
  status: ('A' for Active; 'I' for Inactive)
    1  A    between atoms: C_4  and  O_23
    2  A    between atoms: C_5  and  O_24
    3  A    between atoms: C_7  and  N_21
    4  A    between atoms: C_10  and  C_12
    5  A    between atoms: C_11  and  C_14
    6  A    between atoms: C_14  and  O_23
                            x       y       z     vdW  Elec       q    Type
                         _______ _______ _______ _____ _____    ______ ____

>  <TORSDO>
F 6

$$$$
=
 OpenBabel11042422113D

 34 38  0  0  1  0  0  0  0  0999 V2000
  160.8360  208.8230  152.0430 C   0  0  0  0  0  2  0  0  0  0  0  0
  161.8840  209.2470  149.4210 C   0  0  0  0  0  3  0  0  0  0  0  0
  160.8850  212.7400  150.3380 N   0  0  0  0  0  0  0  0  0  0  0  0
  162.1530  208.0800  150.0230 C   0  0  0  0  0  0  0  0  0  0  0  0
  160.3910  211.3270  152.2140 C   0  0  0  0  0  0  0  0  0  0  0  0
  160.4290  212.5900  151.6080 C   0  0  0  0  0  3  0  0  0  0  0  0
  161.3200  211.6880  149.5960 C   0  0  0  0  0  0  0  0  0  0  0  0
  160.8730  210.2200  151.4810 C   0  0  0  0  0  0  0  0  0  0  0  0
  161.7770  206.5300  151.9550 C   0  0  0  0  0  1  0  0  0  0  0  0
  161.3450  210.4030  150.1670 C   0  0  0  0  0  0  0  0  0  0  0  0
  161.9940  207.9690  151.5230 C   0  0  2  0  0  3  0  0  0  0  0  0
  157.3860  213.1480  156.1830 C   0  0  1  0  0  3  0  0  0  0  0  0
  159.0580  211.3620  156.3270 O   0  0  0  0  0  0  0  0  0  0  0  0
  158.6220  210.4910  153.7690 C   0  0  0  0  0  2  0  0  0  0  0  0
  157.5900  211.4530  154.3260 C   0  0  0  0  0  2  0  0  0  0  0  0
  160.0640  212.1520  155.8000 N   0  0  2  0  0  0  0  0  0  0  0  0
  159.8790  211.2020  153.5570 N   0  0  0  0  0  0  0  0  0  0  0  0
  159.7060  213.5360  155.4350 C   0  0  0  0  0  2  0  0  0  0  0  0
  158.6030  214.0570  156.3370 C   0  0  0  0  0  2  0  0  0  0  0  0
  157.7710  211.7060  155.8230 C   0  0  2  0  0  3  0  0  0  0  0  0
  160.7570  211.4660  154.7020 C   0  0  2  0  0  3  0  0  0  0  0  0
  161.3240  210.2750  155.1590 O   0  0  0  0  0  1  0  0  0  0  0  0
  156.4780  213.2400  157.2610 O   0  0  0  0  0  0  0  0  0  0  0  0
  155.1650  213.1850  156.7640 C   0  0  0  0  0  1  0  0  0  0  0  0
  161.8400  211.9330  148.2080 C   0  0  2  0  0  3  0  0  0  0  0  0
  163.2180  212.4480  148.2610 N   0  0  0  0  0  2  0  0  0  0  0  0
  162.0320  213.6770  146.5310 C   0  0  0  0  0  1  0  0  0  0  0  0
  162.0950  213.3590  148.0090 C   0  0  1  0  0  3  0  0  0  0  0  0
  162.6670  206.9810  149.3110 O   0  0  0  0  0  0  0  0  0  0  0  0
  162.0760  206.3530  148.2010 C   0  0  0  0  0  0  0  0  0  0  0  0
  161.9560  206.9540  147.0980 O   0  0  0  0  0  0  0  0  0  0  0  0
  160.8340  204.6190  149.3820 C   0  0  0  0  0  2  0  0  0  0  0  0
  161.5790  204.9740  148.3430 C   0  0  0  0  0  0  0  0  0  0  0  0
  161.9050  203.9510  147.3110 C   0  0  0  0  0  1  0  0  0  0  0  0
  2  4  2  0  0  0  0
  2 10  1  0  0  0  0
  3  6  1  0  0  0  0
  4 11  1  0  0  0  0
  5 17  1  0  0  0  0
  6  5  2  0  0  0  0
  7 10  1  0  0  0  0
  7  3  2  0  0  0  0
  8  1  1  0  0  0  0
  8  5  1  0  0  0  0
 10  8  2  0  0  0  0
 11  9  1  6  0  0  0
 11  1  1  0  0  0  0
 12 19  1  0  0  0  0
 12 23  1  1  0  0  0
 14 15  1  0  0  0  0
 16 18  1  6  0  0  0
 16 13  1  0  0  0  0
 17 14  1  0  0  0  0
 17 21  1  0  0  0  0
 18 19  1  0  0  0  0
 20 15  1  6  0  0  0
 20 12  1  0  0  0  0
 20 13  1  0  0  0  0
 21 22  1  1  0  0  0
 21 16  1  0  0  0  0
 24 23  1  0  0  0  0
 25 26  1  0  0  0  0
 25  7  1  1  0  0  0
 28 27  1  6  0  0  0
 28 25  1  0  0  0  0
 28 26  1  0  0  0  0
 29  4  1  0  0  0  0
 30 33  1  0  0  0  0
 30 29  1  0  0  0  0
 31 30  2  0  0  0  0
 33 32  2  0  0  0  0
 34 33  1  0  0  0  0
M  END
>  <MODEL>
5

>  <REMARK>
 VINA RESULT:      -6.3      3.048      4.973
  Name = 
  6 active torsions:
  status: ('A' for Active; 'I' for Inactive)
    1  A    between atoms: C_4  and  O_23
    2  A    between atoms: C_5  and  O_24
    3  A    between atoms: C_7  and  N_21
    4  A    between atoms: C_10  and  C_12
    5  A    between atoms: C_11  and  C_14
    6  A    between atoms: C_14  and  O_23
                            x       y       z     vdW  Elec       q    Type
                         _______ _______ _______ _____ _____    ______ ____

>  <TORSDO>
F 6

$$$$
=
 OpenBabel11042422113D

 34 38  0  0  1  0  0  0  0  0999 V2000
  160.5370  205.5060  152.1510 C   0  0  0  0  0  2  0  0  0  0  0  0
  161.4640  204.8420  149.5330 C   0  0  0  0  0  3  0  0  0  0  0  0
  162.0180  208.5490  149.5430 N   0  0  0  0  0  0  0  0  0  0  0  0
  161.2890  203.8430  150.4090 C   0  0  0  0  0  0  0  0  0  0  0  0
  161.1440  207.9390  151.6940 C   0  0  0  0  0  0  0  0  0  0  0  0
  161.6390  208.8970  150.7990 C   0  0  0  0  0  3  0  0  0  0  0  0
  161.9390  207.2680  149.0920 C   0  0  0  0  0  0  0  0  0  0  0  0
  161.0860  206.5940  151.2660 C   0  0  0  0  0  0  0  0  0  0  0  0
  160.4720  203.0770  152.6500 C   0  0  0  0  0  1  0  0  0  0  0  0
  161.4900  206.2570  149.9600 C   0  0  0  0  0  0  0  0  0  0  0  0
  161.2130  204.1600  151.8860 C   0  0  2  0  0  3  0  0  0  0  0  0
  161.2080  211.4690  155.6480 C   0  0  1  0  0  3  0  0  0  0  0  0
  160.3510  209.1750  155.7600 O   0  0  0  0  0  0  0  0  0  0  0  0
  159.5220  209.1580  153.1520 C   0  0  0  0  0  2  0  0  0  0  0  0
  159.8890  210.5150  153.7200 C   0  0  0  0  0  2  0  0  0  0  0  0
  161.5350  208.6250  155.3030 N   0  0  2  0  0  0  0  0  0  0  0  0
  160.7290  208.3500  153.0130 N   0  0  0  0  0  0  0  0  0  0  0  0
  162.6320  209.5610  154.9920 C   0  0  0  0  0  2  0  0  0  0  0  0
  162.5550  210.7880  155.8820 C   0  0  0  0  0  2  0  0  0  0  0  0
  160.1120  210.4760  155.2330 C   0  0  2  0  0  3  0  0  0  0  0  0
  161.2930  207.6910  154.1960 C   0  0  2  0  0  3  0  0  0  0  0  0
  160.4560  206.6540  154.6140 O   0  0  0  0  0  1  0  0  0  0  0  0
  160.8250  212.3290  156.7000 O   0  0  0  0  0  0  0  0  0  0  0  0
  159.7420  213.1190  156.2790 C   0  0  0  0  0  1  0  0  0  0  0  0
  162.4060  206.9500  147.7000 C   0  0  2  0  0  3  0  0  0  0  0  0
  161.2670  206.9530  146.7660 N   0  0  0  0  0  2  0  0  0  0  0  0
  162.7070  205.0850  146.1770 C   0  0  0  0  0  1  0  0  0  0  0  0
  161.8260  205.6850  147.2510 C   0  0  1  0  0  3  0  0  0  0  0  0
  161.2640  202.4970  150.0010 O   0  0  0  0  0  0  0  0  0  0  0  0
  160.3680  201.9160  149.0870 C   0  0  0  0  0  0  0  0  0  0  0  0
  159.1550  201.7360  149.3860 O   0  0  0  0  0  0  0  0  0  0  0  0
  160.6950  202.2680  146.6970 C   0  0  0  0  0  2  0  0  0  0  0  0
  160.8670  201.5000  147.7660 C   0  0  0  0  0  0  0  0  0  0  0  0
  161.5810  200.2030  147.6100 C   0  0  0  0  0  1  0  0  0  0  0  0
  2 10  1  0  0  0  0
  2  4  2  0  0  0  0
  3  6  1  0  0  0  0
  4 11  1  0  0  0  0
  5 17  1  0  0  0  0
  6  5  2  0  0  0  0
  7  3  2  0  0  0  0
  7 10  1  0  0  0  0
  8  5  1  0  0  0  0
  8  1  1  0  0  0  0
 10  8  2  0  0  0  0
 11  1  1  0  0  0  0
 11  9  1  1  0  0  0
 12 19  1  0  0  0  0
 12 23  1  1  0  0  0
 14 15  1  0  0  0  0
 16 18  1  6  0  0  0
 16 13  1  0  0  0  0
 17 14  1  0  0  0  0
 17 21  1  0  0  0  0
 18 19  1  0  0  0  0
 20 15  1  6  0  0  0
 20 12  1  0  0  0  0
 20 13  1  0  0  0  0
 21 22  1  1  0  0  0
 21 16  1  0  0  0  0
 24 23  1  0  0  0  0
 25  7  1  1  0  0  0
 26 28  1  0  0  0  0
 26 25  1  0  0  0  0
 28 27  1  6  0  0  0
 28 25  1  0  0  0  0
 29  4  1  0  0  0  0
 30 31  2  0  0  0  0
 30 29  1  0  0  0  0
 32 33  2  0  0  0  0
 33 30  1  0  0  0  0
 34 33  1  0  0  0  0
M  END
>  <MODEL>
6

>  <REMARK>
 VINA RESULT:      -6.2      1.672      2.374
  Name = 
  6 active torsions:
  status: ('A' for Active; 'I' for Inactive)
    1  A    between atoms: C_4  and  O_23
    2  A    between atoms: C_5  and  O_24
    3  A    between atoms: C_7  and  N_21
    4  A    between atoms: C_10  and  C_12
    5  A    between atoms: C_11  and  C_14
    6  A    between atoms: C_14  and  O_23
                            x       y       z     vdW  Elec       q    Type
                         _______ _______ _______ _____ _____    ______ ____

>  <TORSDO>
F 6

$$$$
=
 OpenBabel11042422113D

 34 38  0  0  1  0  0  0  0  0999 V2000
  160.8600  206.7970  153.0280 C   0  0  0  0  0  2  0  0  0  0  0  0
  161.5370  206.1270  150.3370 C   0  0  0  0  0  3  0  0  0  0  0  0
  162.1140  209.8300  150.2930 N   0  0  0  0  0  0  0  0  0  0  0  0
  161.4370  205.1300  151.2250 C   0  0  0  0  0  0  0  0  0  0  0  0
  161.4380  209.2260  152.5150 C   0  0  0  0  0  0  0  0  0  0  0  0
  161.8540  210.1820  151.5780 C   0  0  0  0  0  3  0  0  0  0  0  0
  161.9850  208.5510  149.8510 C   0  0  0  0  0  0  0  0  0  0  0  0
  161.3320  207.8810  152.0950 C   0  0  0  0  0  0  0  0  0  0  0  0
  160.8260  204.3690  153.5330 C   0  0  0  0  0  1  0  0  0  0  0  0
  161.6120  207.5420  150.7580 C   0  0  0  0  0  0  0  0  0  0  0  0
  161.5010  205.4470  152.7030 C   0  0  2  0  0  3  0  0  0  0  0  0
  158.1030  211.2830  156.0850 C   0  0  1  0  0  3  0  0  0  0  0  0
  160.5030  210.8920  156.3940 O   0  0  0  0  0  0  0  0  0  0  0  0
  160.5410  208.6800  154.7830 C   0  0  0  0  0  2  0  0  0  0  0  0
  159.1670  209.1780  155.1910 C   0  0  0  0  0  2  0  0  0  0  0  0
  160.8470  211.6190  155.2670 N   0  0  2  0  0  0  0  0  0  0  0  0
  161.1490  209.6400  153.8670 N   0  0  0  0  0  0  0  0  0  0  0  0
  159.7420  212.2160  154.4930 C   0  0  0  0  0  2  0  0  0  0  0  0
  158.5790  212.5630  155.4040 C   0  0  0  0  0  2  0  0  0  0  0  0
  159.2330  210.2600  156.2710 C   0  0  2  0  0  3  0  0  0  0  0  0
  161.7610  210.8590  154.4060 C   0  0  2  0  0  3  0  0  0  0  0  0
  162.9300  210.5430  155.1020 O   0  0  0  0  0  1  0  0  0  0  0  0
  157.3540  211.5190  157.2590 O   0  0  0  0  0  0  0  0  0  0  0  0
  156.1280  212.1110  156.9130 C   0  0  0  0  0  1  0  0  0  0  0  0
  162.3190  208.2290  148.4230 C   0  0  2  0  0  3  0  0  0  0  0  0
  161.2220  208.6480  147.5340 N   0  0  0  0  0  2  0  0  0  0  0  0
  162.0340  206.4960  146.7480 C   0  0  0  0  0  1  0  0  0  0  0  0
  161.3840  207.2350  147.8980 C   0  0  1  0  0  3  0  0  0  0  0  0
  161.3660  203.7830  150.8220 O   0  0  0  0  0  0  0  0  0  0  0  0
  160.8830  203.3020  149.5930 C   0  0  0  0  0  0  0  0  0  0  0  0
  160.4630  204.0920  148.7030 O   0  0  0  0  0  0  0  0  0  0  0  0
  160.8500  200.9920  150.3690 C   0  0  0  0  0  2  0  0  0  0  0  0
  160.8580  201.8500  149.3570 C   0  0  0  0  0  0  0  0  0  0  0  0
  160.8360  201.3180  147.9670 C   0  0  0  0  0  1  0  0  0  0  0  0
  2 10  1  0  0  0  0
  2  4  2  0  0  0  0
  3  6  1  0  0  0  0
  4 11  1  0  0  0  0
  5 17  1  0  0  0  0
  6  5  2  0  0  0  0
  7  3  2  0  0  0  0
  7 10  1  0  0  0  0
  8  5  1  0  0  0  0
  8  1  1  0  0  0  0
 10  8  2  0  0  0  0
 11  1  1  0  0  0  0
 11  9  1  1  0  0  0
 12 20  1  0  0  0  0
 12 23  1  1  0  0  0
 14 15  1  0  0  0  0
 16 18  1  6  0  0  0
 16 13  1  0  0  0  0
 17 21  1  0  0  0  0
 17 14  1  0  0  0  0
 18 19  1  0  0  0  0
 19 12  1  0  0  0  0
 20 15  1  6  0  0  0
 20 13  1  0  0  0  0
 21 22  1  1  0  0  0
 21 16  1  0  0  0  0
 24 23  1  0  0  0  0
 25  7  1  1  0  0  0
 26 28  1  0  0  0  0
 26 25  1  0  0  0  0
 28 27  1  6  0  0  0
 28 25  1  0  0  0  0
 29  4  1  0  0  0  0
 30 29  1  0  0  0  0
 31 30  2  0  0  0  0
 33 30  1  0  0  0  0
 33 32  2  0  0  0  0
 34 33  1  0  0  0  0
M  END
>  <MODEL>
7

>  <REMARK>
 VINA RESULT:      -6.1      1.674      2.688
  Name = 
  6 active torsions:
  status: ('A' for Active; 'I' for Inactive)
    1  A    between atoms: C_4  and  O_23
    2  A    between atoms: C_5  and  O_24
    3  A    between atoms: C_7  and  N_21
    4  A    between atoms: C_10  and  C_12
    5  A    between atoms: C_11  and  C_14
    6  A    between atoms: C_14  and  O_23
                            x       y       z     vdW  Elec       q    Type
                         _______ _______ _______ _____ _____    ______ ____

>  <TORSDO>
F 6

$$$$
=
 OpenBabel11042422113D

 34 38  0  0  1  0  0  0  0  0999 V2000
  161.8160  208.4920  150.7940 C   0  0  0  0  0  2  0  0  0  0  0  0
  161.9150  206.0110  149.3840 C   0  0  0  0  0  3  0  0  0  0  0  0
  161.1940  204.8040  152.8580 N   0  0  0  0  0  0  0  0  0  0  0  0
  161.8220  207.1380  148.6650 C   0  0  0  0  0  0  0  0  0  0  0  0
  161.2800  207.2020  152.9250 C   0  0  0  0  0  0  0  0  0  0  0  0
  161.0850  205.9640  153.5540 C   0  0  0  0  0  3  0  0  0  0  0  0
  161.4980  204.7800  151.5330 C   0  0  0  0  0  0  0  0  0  0  0  0
  161.5590  207.2100  151.5400 C   0  0  0  0  0  0  0  0  0  0  0  0
  161.8300  209.6420  148.5960 C   0  0  0  0  0  1  0  0  0  0  0  0
  161.6630  205.9920  150.8400 C   0  0  0  0  0  0  0  0  0  0  0  0
  161.3510  208.4080  149.3390 C   0  0  2  0  0  3  0  0  0  0  0  0
  163.4100  210.7190  156.2710 C   0  0  1  0  0  3  0  0  0  0  0  0
  161.0500  210.5700  155.6250 O   0  0  0  0  0  0  0  0  0  0  0  0
  161.6030  209.6730  153.1000 C   0  0  0  0  0  2  0  0  0  0  0  0
  162.7810  210.2280  153.8770 C   0  0  0  0  0  2  0  0  0  0  0  0
  160.9520  209.2390  155.9890 N   0  0  2  0  0  0  0  0  0  0  0  0
  161.1780  208.4130  153.7010 N   0  0  0  0  0  0  0  0  0  0  0  0
  162.1680  208.6010  156.5280 C   0  0  0  0  0  2  0  0  0  0  0  0
  163.0260  209.6180  157.2570 C   0  0  0  0  0  2  0  0  0  0  0  0
  162.3540  210.9190  155.1740 C   0  0  2  0  0  3  0  0  0  0  0  0
  160.3530  208.4380  154.9140 C   0  0  2  0  0  3  0  0  0  0  0  0
  159.0730  208.9100  154.6160 O   0  0  0  0  0  1  0  0  0  0  0  0
  163.8100  211.9190  156.8980 O   0  0  0  0  0  0  0  0  0  0  0  0
  165.1770  211.8420  157.2120 C   0  0  0  0  0  1  0  0  0  0  0  0
  161.5730  203.4590  150.8210 C   0  0  2  0  0  3  0  0  0  0  0  0
  160.2620  203.1120  150.2480 N   0  0  0  0  0  2  0  0  0  0  0  0
  161.2270  201.0840  151.1790 C   0  0  0  0  0  1  0  0  0  0  0  0
  160.7220  202.4770  151.4890 C   0  0  1  0  0  3  0  0  0  0  0  0
  162.0620  207.1530  147.2790 O   0  0  0  0  0  0  0  0  0  0  0  0
  161.5520  206.2500  146.3310 C   0  0  0  0  0  0  0  0  0  0  0  0
  160.6040  206.5740  145.5640 O   0  0  0  0  0  0  0  0  0  0  0  0
  163.1600  204.6430  145.4510 C   0  0  0  0  0  2  0  0  0  0  0  0
  162.1320  204.8990  146.2500 C   0  0  0  0  0  0  0  0  0  0  0  0
  161.5710  203.7930  147.0730 C   0  0  0  0  0  1  0  0  0  0  0  0
  1  8  1  0  0  0  0
  2 10  1  0  0  0  0
  3  6  1  0  0  0  0
  4 11  1  0  0  0  0
  4  2  2  0  0  0  0
  5  6  2  0  0  0  0
  5 17  1  0  0  0  0
  7  3  2  0  0  0  0
  8  5  1  0  0  0  0
 10  7  1  0  0  0  0
 10  8  2  0  0  0  0
 11  9  1  6  0  0  0
 11  1  1  0  0  0  0
 12 23  1  1  0  0  0
 12 19  1  0  0  0  0
 13 16  1  0  0  0  0
 14 17  1  0  0  0  0
 14 15  1  0  0  0  0
 16 18  1  6  0  0  0
 17 21  1  0  0  0  0
 18 19  1  0  0  0  0
 20 15  1  6  0  0  0
 20 13  1  0  0  0  0
 20 12  1  0  0  0  0
 21 22  1  6  0  0  0
 21 16  1  0  0  0  0
 23 24  1  0  0  0  0
 25 28  1  0  0  0  0
 25  7  1  1  0  0  0
 26 25  1  0  0  0  0
 26 28  1  0  0  0  0
 28 27  1  6  0  0  0
 29  4  1  0  0  0  0
 30 29  1  0  0  0  0
 31 30  2  0  0  0  0
 32 33  2  0  0  0  0
 33 30  1  0  0  0  0
 33 34  1  0  0  0  0
M  END
>  <MODEL>
8

>  <REMARK>
 VINA RESULT:      -5.9      2.734      4.694
  Name = 
  6 active torsions:
  status: ('A' for Active; 'I' for Inactive)
    1  A    between atoms: C_4  and  O_23
    2  A    between atoms: C_5  and  O_24
    3  A    between atoms: C_7  and  N_21
    4  A    between atoms: C_10  and  C_12
    5  A    between atoms: C_11  and  C_14
    6  A    between atoms: C_14  and  O_23
                            x       y       z     vdW  Elec       q    Type
                         _______ _______ _______ _____ _____    ______ ____

>  <TORSDO>
F 6

$$$$
=
 OpenBabel11042422113D

 34 38  0  0  1  0  0  0  0  0999 V2000
  161.6630  210.8830  151.2740 C   0  0  0  0  0  2  0  0  0  0  0  0
  161.8670  209.4400  148.8190 C   0  0  0  0  0  3  0  0  0  0  0  0
  161.3560  206.6220  151.2370 N   0  0  0  0  0  0  0  0  0  0  0  0
  161.6750  210.7650  148.7540 C   0  0  0  0  0  0  0  0  0  0  0  0
  161.2910  208.6720  152.4850 C   0  0  0  0  0  0  0  0  0  0  0  0
  161.1990  207.2750  152.4170 C   0  0  0  0  0  3  0  0  0  0  0  0
  161.6100  207.2800  150.0740 C   0  0  0  0  0  0  0  0  0  0  0  0
  161.5170  209.3850  151.2860 C   0  0  0  0  0  0  0  0  0  0  0  0
  161.5210  212.9680  149.9370 C   0  0  0  0  0  1  0  0  0  0  0  0
  161.6710  208.6850  150.0740 C   0  0  0  0  0  0  0  0  0  0  0  0
  161.1490  211.4960  149.9700 C   0  0  2  0  0  3  0  0  0  0  0  0
  158.2700  211.2000  156.0310 C   0  0  1  0  0  3  0  0  0  0  0  0
  160.7150  211.0220  156.0680 O   0  0  0  0  0  0  0  0  0  0  0  0
  160.7380  208.5380  154.9180 C   0  0  0  0  0  2  0  0  0  0  0  0
  159.3890  209.0250  155.4140 C   0  0  0  0  0  2  0  0  0  0  0  0
  160.8510  211.5270  154.7870 N   0  0  2  0  0  0  0  0  0  0  0  0
  161.1410  209.3290  153.7600 N   0  0  0  0  0  0  0  0  0  0  0  0
  159.6100  211.8910  154.0760 C   0  0  0  0  0  2  0  0  0  0  0  0
  158.5450  212.3450  155.0580 C   0  0  0  0  0  2  0  0  0  0  0  0
  159.4980  210.3040  156.2470 C   0  0  2  0  0  3  0  0  0  0  0  0
  161.7100  210.6660  153.9660 C   0  0  2  0  0  3  0  0  0  0  0  0
  162.9800  210.5650  154.5380 O   0  0  0  0  0  1  0  0  0  0  0  0
  157.6580  211.6220  157.2320 O   0  0  0  0  0  0  0  0  0  0  0  0
  156.3280  211.9870  156.9680 C   0  0  0  0  0  1  0  0  0  0  0  0
  161.7430  206.4940  148.8000 C   0  0  2  0  0  3  0  0  0  0  0  0
  160.4230  206.3160  148.1710 N   0  0  0  0  0  2  0  0  0  0  0  0
  161.6430  204.2240  147.9480 C   0  0  0  0  0  1  0  0  0  0  0  0
  161.0430  205.2160  148.9210 C   0  0  1  0  0  3  0  0  0  0  0  0
  161.8610  211.4820  147.5580 O   0  0  0  0  0  0  0  0  0  0  0  0
  160.8980  212.2560  146.8880 C   0  0  0  0  0  0  0  0  0  0  0  0
  159.6660  212.0130  147.0080 O   0  0  0  0  0  0  0  0  0  0  0  0
  162.5880  213.3990  145.5540 C   0  0  0  0  0  2  0  0  0  0  0  0
  161.3470  213.3590  146.0230 C   0  0  0  0  0  0  0  0  0  0  0  0
  160.4070  214.4520  145.6540 C   0  0  0  0  0  1  0  0  0  0  0  0
  1  8  1  0  0  0  0
  2 10  1  0  0  0  0
  3  6  1  0  0  0  0
  4  2  2  0  0  0  0
  4 11  1  0  0  0  0
  5 17  1  0  0  0  0
  6  5  2  0  0  0  0
  7 10  1  0  0  0  0
  7  3  2  0  0  0  0
  8  5  1  0  0  0  0
 10  8  2  0  0  0  0
 11  9  1  6  0  0  0
 11  1  1  0  0  0  0
 12 20  1  0  0  0  0
 12 23  1  1  0  0  0
 13 20  1  0  0  0  0
 14 15  1  0  0  0  0
 16 18  1  6  0  0  0
 16 13  1  0  0  0  0
 17 21  1  0  0  0  0
 17 14  1  0  0  0  0
 18 19  1  0  0  0  0
 19 12  1  0  0  0  0
 20 15  1  6  0  0  0
 21 22  1  1  0  0  0
 21 16  1  0  0  0  0
 24 23  1  0  0  0  0
 25 28  1  0  0  0  0
 25  7  1  1  0  0  0
 26 25  1  0  0  0  0
 26 28  1  0  0  0  0
 28 27  1  6  0  0  0
 29  4  1  0  0  0  0
 30 31  2  0  0  0  0
 30 29  1  0  0  0  0
 32 33  2  0  0  0  0
 33 30  1  0  0  0  0
 34 33  1  0  0  0  0
M  END
>  <MODEL>
9

>  <REMARK>
 VINA RESULT:      -5.5      3.314      6.181
  Name = 
  6 active torsions:
  status: ('A' for Active; 'I' for Inactive)
    1  A    between atoms: C_4  and  O_23
    2  A    between atoms: C_5  and  O_24
    3  A    between atoms: C_7  and  N_21
    4  A    between atoms: C_10  and  C_12
    5  A    between atoms: C_11  and  C_14
    6  A    between atoms: C_14  and  O_23
                            x       y       z     vdW  Elec       q    Type
                         _______ _______ _______ _____ _____    ______ ____

>  <TORSDO>
F 6

$$$$
