=
 OpenBabel11052409353D

 44 49  0  0  1  0  0  0  0  0999 V2000
  162.0860  209.5250  148.7700 C   0  0  0  0  0  3  0  0  0  0  0  0
  161.9650  208.7420  149.8520 C   0  0  0  0  0  0  0  0  0  0  0  0
  161.4310  210.8660  148.6350 C   0  0  1  0  0  3  0  0  0  0  0  0
  162.3720  211.9480  149.1380 C   0  0  0  0  0  1  0  0  0  0  0  0
  161.1160  211.1020  147.2370 N   0  0  0  0  0  2  0  0  0  0  0  0
  160.3520  212.2770  147.1770 N   0  0  0  0  0  2  0  0  0  0  0  0
  160.0340  213.3110  144.8790 C   0  0  2  0  0  0  0  0  0  0  0  0
  162.2830  213.0970  145.9300 O   0  0  0  0  0  1  0  0  0  0  0  0
  158.6690  212.6390  144.8380 C   0  0  0  0  0  1  0  0  0  0  0  0
  160.8960  213.1010  146.1070 C   0  0  2  0  0  0  0  0  0  0  0  0
  160.2150  214.4430  145.8910 C   0  0  0  0  0  2  0  0  0  0  0  0
  160.7770  213.4600  143.6310 N   0  0  0  0  0  2  0  0  0  0  0  0
  160.6450  212.2350  142.8570 C   0  0  0  0  0  2  0  0  0  0  0  0
  162.8520  210.7180  140.0470 C   0  0  0  0  0  1  0  0  0  0  0  0
  161.9090  212.7660  140.8910 O   0  0  0  0  0  0  0  0  0  0  0  0
  161.6790  211.3880  140.7300 C   0  0  0  0  0  0  0  0  0  0  0  0
  160.2760  211.1280  140.2020 C   0  0  0  0  0  1  0  0  0  0  0  0
  161.9210  211.9880  142.0690 C   0  0  2  0  0  3  0  0  0  0  0  0
  161.1500  209.1770  151.0430 C   0  0  1  0  0  3  0  0  0  0  0  0
  160.6760  207.9740  151.8390 C   0  0  0  0  0  1  0  0  0  0  0  0
  161.9520  210.1260  151.9190 C   0  0  0  0  0  2  0  0  0  0  0  0
  161.5230  210.0350  153.3720 C   0  0  0  0  0  2  0  0  0  0  0  0
  160.7810  211.4300  155.1750 O   0  0  0  0  0  0  0  0  0  0  0  0
  159.3910  211.2920  153.2680 C   0  0  0  0  0  2  0  0  0  0  0  0
  159.6280  212.1790  155.4590 C   0  0  0  0  0  2  0  0  0  0  0  0
  160.8120  211.3140  153.7760 C   0  0  2  0  0  3  0  0  0  0  0  0
  158.6060  211.9300  154.3750 C   0  0  0  0  0  2  0  0  0  0  0  0
  162.7270  207.4480  149.8800 C   0  0  0  0  0  2  0  0  0  0  0  0
  161.7900  205.3000  148.9820 C   0  0  0  0  0  0  0  0  0  0  0  0
  162.2620  206.5290  148.7950 C   0  0  0  0  0  0  0  0  0  0  0  0
  161.5650  204.5900  150.1650 C   0  0  0  0  0  3  0  0  0  0  0  0
  161.0440  203.4360  147.6320 C   0  0  1  0  0  3  0  0  0  0  0  0
  161.8700  205.7800  144.4110 O   0  0  0  0  0  0  0  0  0  0  0  0
  160.8210  202.9430  146.2470 C   0  0  0  0  0  3  0  0  0  0  0  0
  161.6080  205.0520  145.4030 C   0  0  0  0  0  0  0  0  0  0  0  0
  161.0670  203.2710  150.0700 C   0  0  0  0  0  0  0  0  0  0  0  0
  160.7990  202.6910  148.7990 C   0  0  0  0  0  0  0  0  0  0  0  0
  161.0910  203.7140  145.2230 N   0  0  0  0  0  0  0  0  0  0  0  0
  162.3390  206.8250  147.3130 C   0  0  0  0  0  3  0  0  0  0  0  0
  161.8160  205.5270  146.7780 C   0  0  0  0  0  0  0  0  0  0  0  0
  161.5340  204.7270  147.7750 C   0  0  0  0  0  0  0  0  0  0  0  0
  160.3000  201.3950  148.7070 O   0  0  0  0  0  1  0  0  0  0  0  0
  160.8130  202.5020  151.3230 C   0  0  0  0  0  2  0  0  0  0  0  0
  160.8330  203.4310  152.5210 C   0  0  0  0  0  1  0  0  0  0  0  0
  1  2  2  0  0  0  0
  2 28  1  0  0  0  0
  2 19  1  0  0  0  0
  3  1  1  0  0  0  0
  3  4  1  6  0  0  0
  5  3  1  0  0  0  0
  6  5  1  0  0  0  0
  7  9  1  6  0  0  0
  7 11  1  0  0  0  0
  7 10  1  0  0  0  0
 10  8  1  6  0  0  0
 10  6  1  0  0  0  0
 11 10  1  0  0  0  0
 12  7  1  0  0  0  0
 13 12  1  0  0  0  0
 14 16  1  0  0  0  0
 15 18  1  0  0  0  0
 16 15  1  0  0  0  0
 16 18  1  0  0  0  0
 17 16  1  0  0  0  0
 18 13  1  1  0  0  0
 19 20  1  1  0  0  0
 19 21  1  0  0  0  0
 21 22  1  0  0  0  0
 23 25  1  0  0  0  0
 24 26  1  0  0  0  0
 24 27  1  0  0  0  0
 26 22  1  1  0  0  0
 26 23  1  0  0  0  0
 27 25  1  0  0  0  0
 29 31  2  0  0  0  0
 30 29  1  0  0  0  0
 30 28  1  0  0  0  0
 32 34  1  6  0  0  0
 32 41  1  0  0  0  0
 32 37  1  0  0  0  0
 33 35  2  0  0  0  0
 35 40  1  0  0  0  0
 36 31  1  0  0  0  0
 36 43  1  0  0  0  0
 37 36  2  0  0  0  0
 38 35  1  0  0  0  0
 38 34  2  0  0  0  0
 39 30  2  0  0  0  0
 40 39  1  0  0  0  0
 40 41  2  0  0  0  0
 41 29  1  0  0  0  0
 42 37  1  0  0  0  0
 43 44  1  0  0  0  0
M  END
>  <MODEL>
1

>  <REMARK>
 VINA RESULT:      -7.2      0.000      0.000
  Name = 
  14 active torsions:
  status: ('A' for Active; 'I' for Inactive)
    1  A    between atoms: C_2  and  N_31
    2  A    between atoms: C_7  and  C_14
    3  A    between atoms: C_8  and  C_19
    4  A    between atoms: N_12  and  N_38
    5  A    between atoms: N_12  and  C_40
    6  A    between atoms: C_13  and  C_22
    7  A    between atoms: C_14  and  N_38
    8  A    between atoms: C_15  and  C_41
    9  A    between atoms: C_16  and  C_20
   10  A    between atoms: C_16  and  C_30
   11  A    between atoms: C_19  and  C_30
   12  A    between atoms: C_20  and  C_36
   13  A    between atoms: N_31  and  C_41
   14  A    between atoms: C_34  and  C_36
                            x       y       z     vdW  Elec       q    Type
                         _______ _______ _______ _____ _____    ______ ____

>  <TORSDO>
F 14

$$$$
=
 OpenBabel11052409353D

 44 49  0  0  1  0  0  0  0  0999 V2000
  161.6790  209.6160  150.9710 C   0  0  0  0  0  3  0  0  0  0  0  0
  161.9410  209.8780  149.6820 C   0  0  0  0  0  0  0  0  0  0  0  0
  161.5060  210.6750  152.0160 C   0  0  1  0  0  3  0  0  0  0  0  0
  160.0440  210.7560  152.4250 C   0  0  0  0  0  1  0  0  0  0  0  0
  162.3180  210.3370  153.1720 N   0  0  0  0  0  2  0  0  0  0  0  0
  161.5800  209.4290  153.9460 N   0  0  0  0  0  2  0  0  0  0  0  0
  160.4690  209.5220  156.2290 C   0  0  2  0  0  0  0  0  0  0  0  0
  162.2930  211.0920  155.5860 O   0  0  0  0  0  1  0  0  0  0  0  0
  159.3240  208.7150  155.6310 C   0  0  0  0  0  1  0  0  0  0  0  0
  161.6300  209.8880  155.3280 C   0  0  2  0  0  0  0  0  0  0  0  0
  161.8110  208.8060  156.3800 C   0  0  0  0  0  2  0  0  0  0  0  0
  160.1630  210.5090  157.2610 N   0  0  0  0  0  2  0  0  0  0  0  0
  158.8680  211.1050  156.9700 C   0  0  0  0  0  2  0  0  0  0  0  0
  158.5520  213.7990  154.1930 C   0  0  0  0  0  1  0  0  0  0  0  0
  157.8790  213.2210  156.4310 O   0  0  0  0  0  0  0  0  0  0  0  0
  158.1680  212.6980  155.1580 C   0  0  0  0  0  0  0  0  0  0  0  0
  157.1150  211.6850  154.7330 C   0  0  0  0  0  1  0  0  0  0  0  0
  159.0660  212.4650  156.3200 C   0  0  2  0  0  3  0  0  0  0  0  0
  162.0680  211.2950  149.1840 C   0  0  1  0  0  3  0  0  0  0  0  0
  163.2620  211.4340  148.2550 C   0  0  0  0  0  1  0  0  0  0  0  0
  160.7880  211.7330  148.4900 C   0  0  0  0  0  2  0  0  0  0  0  0
  161.0700  212.7350  147.3860 C   0  0  0  0  0  2  0  0  0  0  0  0
  158.7190  212.9860  147.7830 O   0  0  0  0  0  0  0  0  0  0  0  0
  159.4480  213.0110  145.5340 C   0  0  0  0  0  2  0  0  0  0  0  0
  157.5670  213.0720  146.9850 C   0  0  0  0  0  2  0  0  0  0  0  0
  159.7760  213.4000  146.9560 C   0  0  2  0  0  3  0  0  0  0  0  0
  157.9570  212.8500  145.5420 C   0  0  0  0  0  2  0  0  0  0  0  0
  162.0280  208.7220  148.7260 C   0  0  0  0  0  2  0  0  0  0  0  0
  161.6370  206.2460  148.8430 C   0  0  0  0  0  0  0  0  0  0  0  0
  161.8120  207.4240  149.4360 C   0  0  0  0  0  0  0  0  0  0  0  0
  161.6560  205.9080  147.4870 C   0  0  0  0  0  3  0  0  0  0  0  0
  161.1540  203.9640  149.4850 C   0  0  0  0  0  0  0  0  0  0  0  0
  161.1230  205.3280  153.3180 O   0  0  0  0  0  0  0  0  0  0  0  0
  160.8960  203.0440  150.6240 C   0  0  0  0  0  3  0  0  0  0  0  0
  161.1360  204.8990  152.1350 C   0  0  0  0  0  0  0  0  0  0  0  0
  161.4170  204.5620  147.1300 C   0  0  0  0  0  0  0  0  0  0  0  0
  161.1710  203.5820  148.1320 C   0  0  0  0  0  0  0  0  0  0  0  0
  160.8920  203.5030  151.8510 N   0  0  0  0  0  0  0  0  0  0  0  0
  161.6700  207.2650  150.9350 C   0  0  0  0  0  2  0  0  0  0  0  0
  161.3970  205.7940  150.9990 C   0  0  0  0  0  0  0  0  0  0  0  0
  161.3930  205.2980  149.7870 C   0  0  0  0  0  0  0  0  0  0  0  0
  160.9450  202.2540  147.7800 O   0  0  0  0  0  1  0  0  0  0  0  0
  161.4430  204.1810  145.6880 C   0  0  0  0  0  2  0  0  0  0  0  0
  161.0400  205.3620  144.8260 C   0  0  0  0  0  1  0  0  0  0  0  0
  1  3  1  0  0  0  0
  2  1  2  0  0  0  0
  3  4  1  1  0  0  0
  3  5  1  0  0  0  0
  5  6  1  0  0  0  0
  6 10  1  0  0  0  0
  7  9  1  6  0  0  0
  7 11  1  0  0  0  0
  7 12  1  0  0  0  0
 10  8  1  1  0  0  0
 10  7  1  0  0  0  0
 10 11  1  0  0  0  0
 13 12  1  0  0  0  0
 14 16  1  0  0  0  0
 16 18  1  0  0  0  0
 16 15  1  0  0  0  0
 17 16  1  0  0  0  0
 18 15  1  0  0  0  0
 18 13  1  1  0  0  0
 19 20  1  6  0  0  0
 19  2  1  0  0  0  0
 21 19  1  0  0  0  0
 22 21  1  0  0  0  0
 24 27  1  0  0  0  0
 24 26  1  0  0  0  0
 25 23  1  0  0  0  0
 26 22  1  1  0  0  0
 26 23  1  0  0  0  0
 27 25  1  0  0  0  0
 28 30  1  0  0  0  0
 28  2  1  0  0  0  0
 29 30  2  0  0  0  0
 29 41  1  0  0  0  0
 30 39  1  0  0  0  0
 31 29  1  0  0  0  0
 32 41  1  0  0  0  0
 32 34  1  0  0  0  0
 34 38  2  0  0  0  0
 35 33  2  0  0  0  0
 36 31  2  0  0  0  0
 36 37  1  0  0  0  0
 37 32  2  0  0  0  0
 38 35  1  0  0  0  0
 39 40  1  0  0  0  0
 40 35  1  0  0  0  0
 41 40  2  0  0  0  0
 42 37  1  0  0  0  0
 43 36  1  0  0  0  0
 44 43  1  0  0  0  0
M  END
>  <MODEL>
2

>  <REMARK>
 VINA RESULT:      -7.2      3.388      8.350
  Name = 
  14 active torsions:
  status: ('A' for Active; 'I' for Inactive)
    1  A    between atoms: C_2  and  N_31
    2  A    between atoms: C_7  and  C_14
    3  A    between atoms: C_8  and  C_19
    4  A    between atoms: N_12  and  N_38
    5  A    between atoms: N_12  and  C_40
    6  A    between atoms: C_13  and  C_22
    7  A    between atoms: C_14  and  N_38
    8  A    between atoms: C_15  and  C_41
    9  A    between atoms: C_16  and  C_20
   10  A    between atoms: C_16  and  C_30
   11  A    between atoms: C_19  and  C_30
   12  A    between atoms: C_20  and  C_36
   13  A    between atoms: N_31  and  C_41
   14  A    between atoms: C_34  and  C_36
                            x       y       z     vdW  Elec       q    Type
                         _______ _______ _______ _____ _____    ______ ____

>  <TORSDO>
F 14

$$$$
=
 OpenBabel11052409353D

 44 49  0  0  1  0  0  0  0  0999 V2000
  161.1160  207.3590  151.7660 C   0  0  0  0  0  3  0  0  0  0  0  0
  161.5030  208.0880  150.7090 C   0  0  0  0  0  0  0  0  0  0  0  0
  160.6970  207.9520  153.0770 C   0  0  1  0  0  3  0  0  0  0  0  0
  160.2890  206.8430  154.0330 C   0  0  0  0  0  1  0  0  0  0  0  0
  161.8120  208.6950  153.6390 N   0  0  0  0  0  2  0  0  0  0  0  0
  161.6890  208.6330  155.0350 N   0  0  0  0  0  2  0  0  0  0  0  0
  160.4970  210.6260  156.0660 C   0  0  2  0  0  0  0  0  0  0  0  0
  162.7220  210.8440  154.9680 O   0  0  0  0  0  1  0  0  0  0  0  0
  159.2160  209.8030  156.0130 C   0  0  0  0  0  1  0  0  0  0  0  0
  161.7710  209.9960  155.5440 C   0  0  2  0  0  0  0  0  0  0  0  0
  161.5770  210.1570  157.0420 C   0  0  0  0  0  2  0  0  0  0  0  0
  160.4080  212.0700  155.8740 N   0  0  0  0  0  2  0  0  0  0  0  0
  159.0940  212.3920  155.3380 C   0  0  0  0  0  2  0  0  0  0  0  0
  159.6780  213.4510  151.6490 C   0  0  0  0  0  1  0  0  0  0  0  0
  158.0470  213.3740  153.4180 O   0  0  0  0  0  0  0  0  0  0  0  0
  159.1370  212.6960  152.8450 C   0  0  0  0  0  0  0  0  0  0  0  0
  158.8410  211.2100  152.7010 C   0  0  0  0  0  1  0  0  0  0  0  0
  159.2400  213.3570  154.1730 C   0  0  2  0  0  3  0  0  0  0  0  0
  161.5310  209.5940  150.7670 C   0  0  1  0  0  3  0  0  0  0  0  0
  162.7350  210.0800  151.5550 C   0  0  0  0  0  1  0  0  0  0  0  0
  161.5280  210.1810  149.3650 C   0  0  0  0  0  2  0  0  0  0  0  0
  162.2060  211.5390  149.3310 C   0  0  0  0  0  2  0  0  0  0  0  0
  160.9660  211.8690  147.3060 O   0  0  0  0  0  0  0  0  0  0  0  0
  162.2220  213.6990  148.1190 C   0  0  0  0  0  2  0  0  0  0  0  0
  160.8360  212.9010  146.3630 C   0  0  0  0  0  2  0  0  0  0  0  0
  161.3850  212.4990  148.4890 C   0  0  2  0  0  3  0  0  0  0  0  0
  161.8070  214.0050  146.7110 C   0  0  0  0  0  2  0  0  0  0  0  0
  161.8380  207.3670  149.4340 C   0  0  0  0  0  2  0  0  0  0  0  0
  161.4710  205.0380  148.5750 C   0  0  0  0  0  0  0  0  0  0  0  0
  161.6240  205.8940  149.5810 C   0  0  0  0  0  0  0  0  0  0  0  0
  161.5130  205.2520  147.1950 C   0  0  0  0  0  3  0  0  0  0  0  0
  161.0030  202.6840  148.2730 C   0  0  0  0  0  0  0  0  0  0  0  0
  160.9000  202.4530  152.3330 O   0  0  0  0  0  0  0  0  0  0  0  0
  160.7370  201.3930  148.9610 C   0  0  0  0  0  3  0  0  0  0  0  0
  160.9350  202.5170  151.0770 C   0  0  0  0  0  0  0  0  0  0  0  0
  161.2940  204.1490  146.3390 C   0  0  0  0  0  0  0  0  0  0  0  0
  161.0430  202.8560  146.8780 C   0  0  0  0  0  0  0  0  0  0  0  0
  160.7100  201.3390  150.2700 N   0  0  0  0  0  0  0  0  0  0  0  0
  161.4620  205.1660  150.8980 C   0  0  0  0  0  2  0  0  0  0  0  0
  161.2040  203.7840  150.3820 C   0  0  0  0  0  0  0  0  0  0  0  0
  161.2230  203.7970  149.0730 C   0  0  0  0  0  0  0  0  0  0  0  0
  160.8370  201.7680  146.0340 O   0  0  0  0  0  1  0  0  0  0  0  0
  161.3450  204.3570  144.8620 C   0  0  0  0  0  2  0  0  0  0  0  0
  161.2490  205.8360  144.5380 C   0  0  0  0  0  1  0  0  0  0  0  0
  1  3  1  0  0  0  0
  2 19  1  0  0  0  0
  2  1  2  0  0  0  0
  3  5  1  0  0  0  0
  3  4  1  1  0  0  0
  5  6  1  0  0  0  0
  6 10  1  0  0  0  0
  7  9  1  6  0  0  0
  7 11  1  0  0  0  0
 10  8  1  6  0  0  0
 10  7  1  0  0  0  0
 10 11  1  0  0  0  0
 12  7  1  0  0  0  0
 13 12  1  0  0  0  0
 14 16  1  0  0  0  0
 15 18  1  0  0  0  0
 16 15  1  0  0  0  0
 16 18  1  0  0  0  0
 17 16  1  0  0  0  0
 18 13  1  1  0  0  0
 19 20  1  6  0  0  0
 21 19  1  0  0  0  0
 22 21  1  0  0  0  0
 23 26  1  0  0  0  0
 24 26  1  0  0  0  0
 25 27  1  0  0  0  0
 25 23  1  0  0  0  0
 26 22  1  1  0  0  0
 27 24  1  0  0  0  0
 28 30  1  0  0  0  0
 28  2  1  0  0  0  0
 29 41  1  0  0  0  0
 29 30  2  0  0  0  0
 30 39  1  0  0  0  0
 31 29  1  0  0  0  0
 32 34  1  0  0  0  0
 32 41  1  0  0  0  0
 34 38  2  0  0  0  0
 35 33  2  0  0  0  0
 36 37  1  0  0  0  0
 36 31  2  0  0  0  0
 37 32  2  0  0  0  0
 38 35  1  0  0  0  0
 40 39  1  0  0  0  0
 40 35  1  0  0  0  0
 41 40  2  0  0  0  0
 42 37  1  0  0  0  0
 43 36  1  0  0  0  0
 44 43  1  0  0  0  0
M  END
>  <MODEL>
3

>  <REMARK>
 VINA RESULT:      -6.9      3.500      7.677
  Name = 
  14 active torsions:
  status: ('A' for Active; 'I' for Inactive)
    1  A    between atoms: C_2  and  N_31
    2  A    between atoms: C_7  and  C_14
    3  A    between atoms: C_8  and  C_19
    4  A    between atoms: N_12  and  N_38
    5  A    between atoms: N_12  and  C_40
    6  A    between atoms: C_13  and  C_22
    7  A    between atoms: C_14  and  N_38
    8  A    between atoms: C_15  and  C_41
    9  A    between atoms: C_16  and  C_20
   10  A    between atoms: C_16  and  C_30
   11  A    between atoms: C_19  and  C_30
   12  A    between atoms: C_20  and  C_36
   13  A    between atoms: N_31  and  C_41
   14  A    between atoms: C_34  and  C_36
                            x       y       z     vdW  Elec       q    Type
                         _______ _______ _______ _____ _____    ______ ____

>  <TORSDO>
F 14

$$$$
=
 OpenBabel11052409353D

 44 49  0  0  1  0  0  0  0  0999 V2000
  160.9140  211.6490  150.1310 C   0  0  0  0  0  3  0  0  0  0  0  0
  161.7300  211.6350  149.0660 C   0  0  0  0  0  0  0  0  0  0  0  0
  160.4070  212.9040  150.7730 C   0  0  1  0  0  3  0  0  0  0  0  0
  159.1110  213.3330  150.1050 C   0  0  0  0  0  1  0  0  0  0  0  0
  160.1700  212.6530  152.1840 N   0  0  0  0  0  2  0  0  0  0  0  0
  159.0820  213.4510  152.5700 N   0  0  0  0  0  2  0  0  0  0  0  0
  157.7750  212.9400  154.6870 C   0  0  2  0  0  0  0  0  0  0  0  0
  158.1000  211.2400  152.8950 O   0  0  0  0  0  1  0  0  0  0  0  0
  158.4470  214.1540  155.3160 C   0  0  0  0  0  1  0  0  0  0  0  0
  158.1280  212.5910  153.2560 C   0  0  2  0  0  0  0  0  0  0  0  0
  156.7750  213.2120  153.5620 C   0  0  0  0  0  2  0  0  0  0  0  0
  157.4680  211.7940  155.5370 N   0  0  0  0  0  2  0  0  0  0  0  0
  158.4980  211.6770  156.5570 C   0  0  0  0  0  2  0  0  0  0  0  0
  162.1510  210.7610  155.6120 C   0  0  0  0  0  1  0  0  0  0  0  0
  160.3540  210.2740  157.1370 O   0  0  0  0  0  0  0  0  0  0  0  0
  160.9770  211.2980  156.4030 C   0  0  0  0  0  0  0  0  0  0  0  0
  161.1770  212.5400  157.2600 C   0  0  0  0  0  1  0  0  0  0  0  0
  159.6250  210.7930  156.0450 C   0  0  2  0  0  3  0  0  0  0  0  0
  162.1920  212.9160  148.4190 C   0  0  1  0  0  3  0  0  0  0  0  0
  163.6880  212.8770  148.1580 C   0  0  0  0  0  1  0  0  0  0  0  0
  161.4230  213.1700  147.1330 C   0  0  0  0  0  2  0  0  0  0  0  0
  162.3410  213.1390  145.9240 C   0  0  0  0  0  2  0  0  0  0  0  0
  160.4130  212.3860  144.7140 O   0  0  0  0  0  0  0  0  0  0  0  0
  162.3590  212.8670  143.4620 C   0  0  0  0  0  2  0  0  0  0  0  0
  160.1280  212.0550  143.3800 C   0  0  0  0  0  2  0  0  0  0  0  0
  161.5170  213.2510  144.6540 C   0  0  2  0  0  3  0  0  0  0  0  0
  161.4080  212.1160  142.5790 C   0  0  0  0  0  2  0  0  0  0  0  0
  162.1120  210.3040  148.4840 C   0  0  0  0  0  2  0  0  0  0  0  0
  161.6660  207.9380  149.1880 C   0  0  0  0  0  0  0  0  0  0  0  0
  161.9230  209.2080  149.4830 C   0  0  0  0  0  0  0  0  0  0  0  0
  161.5560  207.3050  147.9470 C   0  0  0  0  0  3  0  0  0  0  0  0
  161.1790  205.8810  150.3660 C   0  0  0  0  0  0  0  0  0  0  0  0
  161.5200  208.0650  153.7810 O   0  0  0  0  0  0  0  0  0  0  0  0
  160.9950  205.2510  151.7000 C   0  0  0  0  0  3  0  0  0  0  0  0
  161.4170  207.3830  152.7280 C   0  0  0  0  0  0  0  0  0  0  0  0
  161.2510  205.9250  147.9230 C   0  0  0  0  0  0  0  0  0  0  0  0
  161.0660  205.2060  149.1370 C   0  0  0  0  0  0  0  0  0  0  0  0
  161.1110  205.9710  152.7880 N   0  0  0  0  0  0  0  0  0  0  0  0
  161.9090  209.3950  150.9860 C   0  0  0  0  0  2  0  0  0  0  0  0
  161.6030  207.9890  151.4020 C   0  0  0  0  0  0  0  0  0  0  0  0
  161.4790  207.2360  150.3390 C   0  0  0  0  0  0  0  0  0  0  0  0
  160.7740  203.8450  149.1130 O   0  0  0  0  0  1  0  0  0  0  0  0
  161.1400  205.2310  146.6070 C   0  0  0  0  0  2  0  0  0  0  0  0
  160.5440  206.1650  145.5710 C   0  0  0  0  0  1  0  0  0  0  0  0
  1  3  1  0  0  0  0
  2  1  2  0  0  0  0
  3  4  1  6  0  0  0
  3  5  1  0  0  0  0
  5  6  1  0  0  0  0
  6 10  1  0  0  0  0
  7  9  1  1  0  0  0
  7 12  1  0  0  0  0
 10  8  1  6  0  0  0
 10 11  1  0  0  0  0
 10  7  1  0  0  0  0
 11  7  1  0  0  0  0
 12 13  1  0  0  0  0
 14 16  1  0  0  0  0
 16 15  1  0  0  0  0
 16 17  1  0  0  0  0
 18 16  1  0  0  0  0
 18 13  1  1  0  0  0
 18 15  1  0  0  0  0
 19 20  1  6  0  0  0
 19  2  1  0  0  0  0
 21 19  1  0  0  0  0
 22 21  1  0  0  0  0
 24 26  1  0  0  0  0
 25 23  1  0  0  0  0
 26 23  1  0  0  0  0
 26 22  1  1  0  0  0
 27 25  1  0  0  0  0
 27 24  1  0  0  0  0
 28  2  1  0  0  0  0
 28 30  1  0  0  0  0
 29 30  2  0  0  0  0
 29 41  1  0  0  0  0
 30 39  1  0  0  0  0
 31 29  1  0  0  0  0
 32 34  1  0  0  0  0
 34 38  2  0  0  0  0
 35 38  1  0  0  0  0
 35 33  2  0  0  0  0
 36 31  2  0  0  0  0
 36 37  1  0  0  0  0
 37 32  2  0  0  0  0
 39 40  1  0  0  0  0
 40 35  1  0  0  0  0
 41 32  1  0  0  0  0
 41 40  2  0  0  0  0
 42 37  1  0  0  0  0
 43 36  1  0  0  0  0
 44 43  1  0  0  0  0
M  END
>  <MODEL>
4

>  <REMARK>
 VINA RESULT:      -6.7      2.840      8.734
  Name = 
  14 active torsions:
  status: ('A' for Active; 'I' for Inactive)
    1  A    between atoms: C_2  and  N_31
    2  A    between atoms: C_7  and  C_14
    3  A    between atoms: C_8  and  C_19
    4  A    between atoms: N_12  and  N_38
    5  A    between atoms: N_12  and  C_40
    6  A    between atoms: C_13  and  C_22
    7  A    between atoms: C_14  and  N_38
    8  A    between atoms: C_15  and  C_41
    9  A    between atoms: C_16  and  C_20
   10  A    between atoms: C_16  and  C_30
   11  A    between atoms: C_19  and  C_30
   12  A    between atoms: C_20  and  C_36
   13  A    between atoms: N_31  and  C_41
   14  A    between atoms: C_34  and  C_36
                            x       y       z     vdW  Elec       q    Type
                         _______ _______ _______ _____ _____    ______ ____

>  <TORSDO>
F 14

$$$$
=
 OpenBabel11052409353D

 44 49  0  0  1  0  0  0  0  0999 V2000
  162.3000  208.1880  149.7690 C   0  0  0  0  0  3  0  0  0  0  0  0
  161.9980  208.4070  151.0570 C   0  0  0  0  0  0  0  0  0  0  0  0
  161.9470  206.9310  149.0350 C   0  0  1  0  0  3  0  0  0  0  0  0
  160.4970  206.9940  148.5810 C   0  0  0  0  0  1  0  0  0  0  0  0
  162.8140  206.7970  147.8780 N   0  0  0  0  0  2  0  0  0  0  0  0
  161.9890  206.5900  146.7620 N   0  0  0  0  0  2  0  0  0  0  0  0
  161.3020  204.4810  145.5230 C   0  0  2  0  0  0  0  0  0  0  0  0
  163.4950  204.6700  146.6900 O   0  0  0  0  0  1  0  0  0  0  0  0
  159.8670  204.9880  145.5920 C   0  0  0  0  0  1  0  0  0  0  0  0
  162.3890  205.3320  146.1470 C   0  0  2  0  0  0  0  0  0  0  0  0
  162.2680  205.2650  144.6340 C   0  0  0  0  0  2  0  0  0  0  0  0
  161.5380  203.0420  145.5930 N   0  0  0  0  0  2  0  0  0  0  0  0
  160.6610  202.4720  146.6040 C   0  0  0  0  0  2  0  0  0  0  0  0
  161.0890  201.9870  150.4320 C   0  0  0  0  0  1  0  0  0  0  0  0
  161.4600  200.9620  148.2850 O   0  0  0  0  0  0  0  0  0  0  0  0
  160.5860  201.7830  149.0190 C   0  0  0  0  0  0  0  0  0  0  0  0
  159.1380  201.3630  148.8090 C   0  0  0  0  0  1  0  0  0  0  0  0
  161.4210  202.3220  147.9120 C   0  0  2  0  0  3  0  0  0  0  0  0
  161.2510  207.3810  151.8700 C   0  0  1  0  0  3  0  0  0  0  0  0
  162.1500  206.2050  152.2100 C   0  0  0  0  0  1  0  0  0  0  0  0
  160.6830  208.0110  153.1310 C   0  0  0  0  0  2  0  0  0  0  0  0
  161.1490  207.2780  154.3750 C   0  0  0  0  0  2  0  0  0  0  0  0
  159.7070  208.4290  155.9070 O   0  0  0  0  0  0  0  0  0  0  0  0
  161.6980  209.5260  155.2590 C   0  0  0  0  0  2  0  0  0  0  0  0
  159.6830  209.6990  156.5050 C   0  0  0  0  0  2  0  0  0  0  0  0
  161.0530  208.1990  155.5780 C   0  0  2  0  0  3  0  0  0  0  0  0
  160.8100  210.5280  155.9340 C   0  0  0  0  0  2  0  0  0  0  0  0
  162.3580  209.7380  151.6540 C   0  0  0  0  0  2  0  0  0  0  0  0
  160.7660  211.6460  151.3030 C   0  0  0  0  0  0  0  0  0  0  0  0
  161.7460  210.8570  150.8730 C   0  0  0  0  0  0  0  0  0  0  0  0
  160.1140  211.6810  152.5390 C   0  0  0  0  0  3  0  0  0  0  0  0
  159.3960  213.4450  150.4430 C   0  0  1  0  0  3  0  0  0  0  0  0
  161.4760  213.0160  146.9740 O   0  0  0  0  0  0  0  0  0  0  0  0
  159.1090  214.3070  149.2660 C   0  0  0  0  0  3  0  0  0  0  0  0
  160.8320  213.1560  148.0450 C   0  0  0  0  0  0  0  0  0  0  0  0
  159.0780  212.6250  152.7230 C   0  0  0  0  0  0  0  0  0  0  0  0
  158.7190  213.5160  151.6740 C   0  0  0  0  0  0  0  0  0  0  0  0
  159.7920  214.1540  148.1580 N   0  0  0  0  0  0  0  0  0  0  0  0
  162.0870  211.2060  149.4400 C   0  0  0  0  0  3  0  0  0  0  0  0
  161.1090  212.3180  149.2200 C   0  0  0  0  0  0  0  0  0  0  0  0
  160.4060  212.5020  150.3090 C   0  0  0  0  0  0  0  0  0  0  0  0
  157.7050  214.4520  151.8590 O   0  0  0  0  0  1  0  0  0  0  0  0
  158.3770  212.6820  154.0390 C   0  0  0  0  0  2  0  0  0  0  0  0
  157.4510  211.4900  154.1920 C   0  0  0  0  0  1  0  0  0  0  0  0
  1  2  2  0  0  0  0
  2 28  1  0  0  0  0
  2 19  1  0  0  0  0
  3  4  1  6  0  0  0
  3  1  1  0  0  0  0
  5  3  1  0  0  0  0
  6  5  1  0  0  0  0
  7  9  1  1  0  0  0
  7 12  1  0  0  0  0
  7 10  1  0  0  0  0
 10  8  1  1  0  0  0
 10  6  1  0  0  0  0
 11  7  1  0  0  0  0
 11 10  1  0  0  0  0
 12 13  1  0  0  0  0
 15 16  1  0  0  0  0
 16 14  1  0  0  0  0
 17 16  1  0  0  0  0
 18 13  1  6  0  0  0
 18 15  1  0  0  0  0
 18 16  1  0  0  0  0
 19 20  1  1  0  0  0
 19 21  1  0  0  0  0
 21 22  1  0  0  0  0
 23 25  1  0  0  0  0
 24 26  1  0  0  0  0
 24 27  1  0  0  0  0
 26 22  1  6  0  0  0
 26 23  1  0  0  0  0
 27 25  1  0  0  0  0
 29 31  2  0  0  0  0
 30 29  1  0  0  0  0
 30 28  1  0  0  0  0
 31 36  1  0  0  0  0
 32 34  1  6  0  0  0
 32 37  1  0  0  0  0
 33 35  2  0  0  0  0
 35 38  1  0  0  0  0
 35 40  1  0  0  0  0
 36 43  1  0  0  0  0
 37 42  1  0  0  0  0
 37 36  2  0  0  0  0
 38 34  2  0  0  0  0
 39 30  2  0  0  0  0
 40 39  1  0  0  0  0
 40 41  2  0  0  0  0
 41 32  1  0  0  0  0
 41 29  1  0  0  0  0
 43 44  1  0  0  0  0
M  END
>  <MODEL>
5

>  <REMARK>
 VINA RESULT:      -6.7      3.070      8.272
  Name = 
  14 active torsions:
  status: ('A' for Active; 'I' for Inactive)
    1  A    between atoms: C_2  and  N_31
    2  A    between atoms: C_7  and  C_14
    3  A    between atoms: C_8  and  C_19
    4  A    between atoms: N_12  and  N_38
    5  A    between atoms: N_12  and  C_40
    6  A    between atoms: C_13  and  C_22
    7  A    between atoms: C_14  and  N_38
    8  A    between atoms: C_15  and  C_41
    9  A    between atoms: C_16  and  C_20
   10  A    between atoms: C_16  and  C_30
   11  A    between atoms: C_19  and  C_30
   12  A    between atoms: C_20  and  C_36
   13  A    between atoms: N_31  and  C_41
   14  A    between atoms: C_34  and  C_36
                            x       y       z     vdW  Elec       q    Type
                         _______ _______ _______ _____ _____    ______ ____

>  <TORSDO>
F 14

$$$$
=
 OpenBabel11052409353D

 44 49  0  0  1  0  0  0  0  0999 V2000
  160.8560  209.2780  151.8800 C   0  0  0  0  0  3  0  0  0  0  0  0
  161.0280  207.9750  151.6150 C   0  0  0  0  0  0  0  0  0  0  0  0
  160.7100  209.8330  153.2640 C   0  0  1  0  0  3  0  0  0  0  0  0
  161.9790  210.5730  153.6550 C   0  0  0  0  0  1  0  0  0  0  0  0
  159.5830  210.7480  153.2930 N   0  0  0  0  0  2  0  0  0  0  0  0
  160.0780  212.0250  152.9890 N   0  0  0  0  0  2  0  0  0  0  0  0
  158.5400  213.9810  153.5000 C   0  0  2  0  0  0  0  0  0  0  0  0
  157.9440  212.2380  151.8230 O   0  0  0  0  0  1  0  0  0  0  0  0
  159.3240  214.1740  154.7910 C   0  0  0  0  0  1  0  0  0  0  0  0
  158.9480  212.8490  152.5810 C   0  0  2  0  0  0  0  0  0  0  0  0
  159.2760  214.2810  152.1940 C   0  0  0  0  0  2  0  0  0  0  0  0
  157.1110  214.2820  153.5000 N   0  0  0  0  0  2  0  0  0  0  0  0
  156.5750  214.0180  154.8260 C   0  0  0  0  0  2  0  0  0  0  0  0
  155.3760  210.3300  155.0160 C   0  0  0  0  0  1  0  0  0  0  0  0
  155.1980  212.4920  156.0600 O   0  0  0  0  0  0  0  0  0  0  0  0
  156.0740  211.6210  155.3880 C   0  0  0  0  0  0  0  0  0  0  0  0
  157.4200  211.5500  156.0940 C   0  0  0  0  0  1  0  0  0  0  0  0
  155.5780  212.8720  154.7550 C   0  0  2  0  0  3  0  0  0  0  0  0
  161.1030  206.9560  152.7230 C   0  0  1  0  0  3  0  0  0  0  0  0
  162.5450  206.7070  153.1290 C   0  0  0  0  0  1  0  0  0  0  0  0
  160.2740  207.4040  153.9160 C   0  0  0  0  0  2  0  0  0  0  0  0
  160.5990  206.5900  155.1550 C   0  0  0  0  0  2  0  0  0  0  0  0
  159.6780  208.5480  156.1890 O   0  0  0  0  0  0  0  0  0  0  0  0
  161.9570  208.0750  156.6000 C   0  0  0  0  0  2  0  0  0  0  0  0
  160.1780  209.6070  156.9630 C   0  0  0  0  0  2  0  0  0  0  0  0
  160.5830  207.4910  156.3770 C   0  0  2  0  0  3  0  0  0  0  0  0
  161.6810  209.4770  157.0530 C   0  0  0  0  0  2  0  0  0  0  0  0
  161.2220  207.5620  150.1840 C   0  0  0  0  0  2  0  0  0  0  0  0
  161.3180  205.4050  148.9050 C   0  0  0  0  0  0  0  0  0  0  0  0
  161.1850  206.0730  150.0470 C   0  0  0  0  0  0  0  0  0  0  0  0
  161.5630  205.8720  147.6100 C   0  0  0  0  0  3  0  0  0  0  0  0
  161.2250  203.1110  148.1420 C   0  0  0  0  0  0  0  0  0  0  0  0
  160.4740  202.1300  152.0180 O   0  0  0  0  0  0  0  0  0  0  0  0
  161.0220  201.6960  148.5490 C   0  0  0  0  0  3  0  0  0  0  0  0
  160.7100  202.4270  150.8190 C   0  0  0  0  0  0  0  0  0  0  0  0
  161.6400  204.9280  146.5610 C   0  0  0  0  0  0  0  0  0  0  0  0
  161.4760  203.5400  146.8260 C   0  0  0  0  0  0  0  0  0  0  0  0
  160.7820  201.4000  149.8030 N   0  0  0  0  0  0  0  0  0  0  0  0
  160.9020  205.1030  151.1740 C   0  0  0  0  0  2  0  0  0  0  0  0
  160.9210  203.8200  150.4010 C   0  0  0  0  0  0  0  0  0  0  0  0
  161.1580  204.0750  149.1390 C   0  0  0  0  0  0  0  0  0  0  0  0
  161.5610  202.6100  145.7940 O   0  0  0  0  0  1  0  0  0  0  0  0
  161.9100  205.4080  145.1750 C   0  0  0  0  0  2  0  0  0  0  0  0
  160.6230  205.8790  144.5240 C   0  0  0  0  0  1  0  0  0  0  0  0
  1  3  1  0  0  0  0
  2  1  2  0  0  0  0
  2 19  1  0  0  0  0
  3  5  1  0  0  0  0
  3  4  1  6  0  0  0
  6  5  1  0  0  0  0
  7 12  1  0  0  0  0
  7  9  1  1  0  0  0
 10  8  1  6  0  0  0
 10  6  1  0  0  0  0
 10  7  1  0  0  0  0
 11 10  1  0  0  0  0
 11  7  1  0  0  0  0
 12 13  1  0  0  0  0
 14 16  1  0  0  0  0
 16 15  1  0  0  0  0
 16 17  1  0  0  0  0
 18 13  1  1  0  0  0
 18 16  1  0  0  0  0
 18 15  1  0  0  0  0
 19 20  1  1  0  0  0
 19 21  1  0  0  0  0
 21 22  1  0  0  0  0
 23 26  1  0  0  0  0
 23 25  1  0  0  0  0
 24 27  1  0  0  0  0
 25 27  1  0  0  0  0
 26 22  1  6  0  0  0
 26 24  1  0  0  0  0
 28  2  1  0  0  0  0
 29 41  1  0  0  0  0
 29 30  2  0  0  0  0
 30 28  1  0  0  0  0
 30 39  1  0  0  0  0
 31 29  1  0  0  0  0
 32 34  1  0  0  0  0
 32 41  1  0  0  0  0
 34 38  2  0  0  0  0
 35 33  2  0  0  0  0
 36 37  1  0  0  0  0
 36 31  2  0  0  0  0
 37 32  2  0  0  0  0
 38 35  1  0  0  0  0
 40 35  1  0  0  0  0
 40 39  1  0  0  0  0
 41 40  2  0  0  0  0
 42 37  1  0  0  0  0
 43 36  1  0  0  0  0
 44 43  1  0  0  0  0
M  END
>  <MODEL>
6

>  <REMARK>
 VINA RESULT:      -6.6      4.495      7.501
  Name = 
  14 active torsions:
  status: ('A' for Active; 'I' for Inactive)
    1  A    between atoms: C_2  and  N_31
    2  A    between atoms: C_7  and  C_14
    3  A    between atoms: C_8  and  C_19
    4  A    between atoms: N_12  and  N_38
    5  A    between atoms: N_12  and  C_40
    6  A    between atoms: C_13  and  C_22
    7  A    between atoms: C_14  and  N_38
    8  A    between atoms: C_15  and  C_41
    9  A    between atoms: C_16  and  C_20
   10  A    between atoms: C_16  and  C_30
   11  A    between atoms: C_19  and  C_30
   12  A    between atoms: C_20  and  C_36
   13  A    between atoms: N_31  and  C_41
   14  A    between atoms: C_34  and  C_36
                            x       y       z     vdW  Elec       q    Type
                         _______ _______ _______ _____ _____    ______ ____

>  <TORSDO>
F 14

$$$$
=
 OpenBabel11052409353D

 44 49  0  0  1  0  0  0  0  0999 V2000
  162.2480  208.2780  149.9160 C   0  0  0  0  0  3  0  0  0  0  0  0
  162.3180  208.5450  151.2290 C   0  0  0  0  0  0  0  0  0  0  0  0
  161.8350  206.9510  149.3590 C   0  0  1  0  0  3  0  0  0  0  0  0
  160.4090  207.0360  148.8380 C   0  0  0  0  0  1  0  0  0  0  0  0
  162.7300  206.5920  148.2720 N   0  0  0  0  0  2  0  0  0  0  0  0
  161.9730  206.6040  147.0910 N   0  0  0  0  0  2  0  0  0  0  0  0
  161.4730  204.8930  145.2810 C   0  0  2  0  0  0  0  0  0  0  0  0
  163.4610  204.6960  146.7690 O   0  0  0  0  0  1  0  0  0  0  0  0
  160.0480  205.4300  145.2600 C   0  0  0  0  0  1  0  0  0  0  0  0
  162.4560  205.5170  146.2500 C   0  0  2  0  0  0  0  0  0  0  0  0
  162.5690  205.8270  144.7660 C   0  0  0  0  0  2  0  0  0  0  0  0
  161.6870  203.4710  145.0260 N   0  0  0  0  0  2  0  0  0  0  0  0
  160.8290  202.7010  145.9130 C   0  0  0  0  0  2  0  0  0  0  0  0
  160.9930  198.8690  145.3110 C   0  0  0  0  0  1  0  0  0  0  0  0
  159.5830  200.6600  146.0850 O   0  0  0  0  0  0  0  0  0  0  0  0
  160.9090  200.1930  146.0400 C   0  0  0  0  0  0  0  0  0  0  0  0
  161.5810  200.3260  147.3990 C   0  0  0  0  0  1  0  0  0  0  0  0
  160.4710  201.3780  145.2550 C   0  0  2  0  0  3  0  0  0  0  0  0
  161.9620  207.5020  152.2580 C   0  0  1  0  0  3  0  0  0  0  0  0
  160.4560  207.4190  152.4390 C   0  0  0  0  0  1  0  0  0  0  0  0
  162.5370  206.1510  151.8660 C   0  0  0  0  0  2  0  0  0  0  0  0
  161.5880  205.0210  152.2220 C   0  0  0  0  0  2  0  0  0  0  0  0
  161.1600  204.1070  150.0470 O   0  0  0  0  0  0  0  0  0  0  0  0
  161.2150  202.5980  151.8660 C   0  0  0  0  0  2  0  0  0  0  0  0
  160.8340  202.8410  149.5340 C   0  0  0  0  0  2  0  0  0  0  0  0
  161.8000  203.8560  151.2720 C   0  0  2  0  0  3  0  0  0  0  0  0
  160.6200  201.8880  150.6870 C   0  0  0  0  0  2  0  0  0  0  0  0
  162.6880  209.9390  151.6510 C   0  0  0  0  0  2  0  0  0  0  0  0
  161.1070  210.6580  153.4610 C   0  0  2  0  0  3  0  0  0  0  0  0
  161.5000  210.6670  152.1910 C   0  0  0  0  0  0  0  0  0  0  0  0
  161.6840  210.0470  154.5790 C   0  0  0  0  0  3  0  0  0  0  0  0
  159.2780  211.5270  154.7850 C   0  0  0  0  0  0  0  0  0  0  0  0
  157.8690  213.1150  151.3150 O   0  0  0  0  0  0  0  0  0  0  0  0
  158.0210  212.3190  154.7600 C   0  0  0  0  0  3  0  0  0  0  0  0
  158.3020  212.6300  152.3920 C   0  0  0  0  0  0  0  0  0  0  0  0
  161.0350  210.1850  155.8270 C   0  0  0  0  0  0  0  0  0  0  0  0
  159.8290  210.9330  155.9350 C   0  0  0  0  0  0  0  0  0  0  0  0
  157.5840  212.8240  153.6320 N   0  0  0  0  0  0  0  0  0  0  0  0
  160.5110  211.4560  151.3590 C   0  0  0  0  0  3  0  0  0  0  0  0
  159.5480  211.8510  152.4360 C   0  0  0  0  0  0  0  0  0  0  0  0
  159.9510  211.3640  153.5820 C   0  0  0  0  0  0  0  0  0  0  0  0
  159.1960  211.0760  157.1660 O   0  0  0  0  0  1  0  0  0  0  0  0
  161.6410  209.5470  157.0320 C   0  0  0  0  0  2  0  0  0  0  0  0
  161.1620  208.1140  157.1630 C   0  0  0  0  0  1  0  0  0  0  0  0
  1  2  2  0  0  0  0
  2 28  1  0  0  0  0
  2 19  1  0  0  0  0
  3  4  1  6  0  0  0
  3  1  1  0  0  0  0
  5  3  1  0  0  0  0
  6  5  1  0  0  0  0
  7  9  1  1  0  0  0
  7 10  1  0  0  0  0
 10  8  1  1  0  0  0
 10  6  1  0  0  0  0
 11  7  1  0  0  0  0
 11 10  1  0  0  0  0
 12  7  1  0  0  0  0
 12 13  1  0  0  0  0
 14 16  1  0  0  0  0
 16 15  1  0  0  0  0
 16 17  1  0  0  0  0
 18 13  1  1  0  0  0
 18 16  1  0  0  0  0
 18 15  1  0  0  0  0
 19 20  1  6  0  0  0
 21 22  1  0  0  0  0
 21 19  1  0  0  0  0
 23 26  1  0  0  0  0
 25 23  1  0  0  0  0
 25 27  1  0  0  0  0
 26 24  1  0  0  0  0
 26 22  1  1  0  0  0
 27 24  1  0  0  0  0
 28 30  1  0  0  0  0
 29 41  1  0  0  0  0
 29 31  1  6  0  0  0
 30 29  1  0  0  0  0
 31 36  2  0  0  0  0
 32 37  2  0  0  0  0
 33 35  2  0  0  0  0
 34 32  1  0  0  0  0
 35 40  1  0  0  0  0
 35 38  1  0  0  0  0
 36 37  1  0  0  0  0
 36 43  1  0  0  0  0
 37 42  1  0  0  0  0
 38 34  2  0  0  0  0
 39 30  2  0  0  0  0
 39 40  1  0  0  0  0
 40 41  2  0  0  0  0
 41 32  1  0  0  0  0
 43 44  1  0  0  0  0
M  END
>  <MODEL>
7

>  <REMARK>
 VINA RESULT:      -5.8      4.109      8.898
  Name = 
  14 active torsions:
  status: ('A' for Active; 'I' for Inactive)
    1  A    between atoms: C_2  and  N_31
    2  A    between atoms: C_7  and  C_14
    3  A    between atoms: C_8  and  C_19
    4  A    between atoms: N_12  and  N_38
    5  A    between atoms: N_12  and  C_40
    6  A    between atoms: C_13  and  C_22
    7  A    between atoms: C_14  and  N_38
    8  A    between atoms: C_15  and  C_41
    9  A    between atoms: C_16  and  C_20
   10  A    between atoms: C_16  and  C_30
   11  A    between atoms: C_19  and  C_30
   12  A    between atoms: C_20  and  C_36
   13  A    between atoms: N_31  and  C_41
   14  A    between atoms: C_34  and  C_36
                            x       y       z     vdW  Elec       q    Type
                         _______ _______ _______ _____ _____    ______ ____

>  <TORSDO>
F 14

$$$$
=
 OpenBabel11052409353D

 44 49  0  0  1  0  0  0  0  0999 V2000
  161.0840  207.3220  152.1300 C   0  0  0  0  0  3  0  0  0  0  0  0
  161.1070  208.4360  151.3840 C   0  0  0  0  0  0  0  0  0  0  0  0
  161.9900  206.1500  151.9030 C   0  0  1  0  0  3  0  0  0  0  0  0
  162.9800  206.0390  153.0510 C   0  0  0  0  0  1  0  0  0  0  0  0
  161.1910  204.9400  151.8270 N   0  0  0  0  0  2  0  0  0  0  0  0
  161.7990  204.1000  150.8830 N   0  0  0  0  0  2  0  0  0  0  0  0
  160.8140  202.4230  149.2480 C   0  0  2  0  0  0  0  0  0  0  0  0
  160.4070  204.8720  149.0320 O   0  0  0  0  0  1  0  0  0  0  0  0
  161.8520  201.4270  149.7470 C   0  0  0  0  0  1  0  0  0  0  0  0
  160.8120  203.8130  149.8500 C   0  0  2  0  0  0  0  0  0  0  0  0
  159.7180  202.8300  150.2340 C   0  0  0  0  0  2  0  0  0  0  0  0
  160.4090  202.3660  147.8460 N   0  0  0  0  0  2  0  0  0  0  0  0
  161.5630  202.6620  147.0120 C   0  0  0  0  0  2  0  0  0  0  0  0
  161.0990  205.8250  144.8090 C   0  0  0  0  0  1  0  0  0  0  0  0
  162.2350  203.7080  144.9630 O   0  0  0  0  0  0  0  0  0  0  0  0
  161.7580  204.8010  145.7080 C   0  0  0  0  0  0  0  0  0  0  0  0
  162.7980  205.2700  146.7150 C   0  0  0  0  0  1  0  0  0  0  0  0
  161.1230  203.4590  145.7940 C   0  0  2  0  0  3  0  0  0  0  0  0
  162.0810  208.5940  150.2450 C   0  0  1  0  0  3  0  0  0  0  0  0
  161.5060  208.0180  148.9620 C   0  0  0  0  0  1  0  0  0  0  0  0
  162.4550  210.0550  150.0630 C   0  0  0  0  0  2  0  0  0  0  0  0
  162.1420  210.5370  148.6580 C   0  0  0  0  0  2  0  0  0  0  0  0
  161.0110  212.2770  149.8580 O   0  0  0  0  0  0  0  0  0  0  0  0
  160.8930  212.3350  147.4980 C   0  0  0  0  0  2  0  0  0  0  0  0
  160.1740  213.3530  149.5200 C   0  0  0  0  0  2  0  0  0  0  0  0
  161.7490  212.0030  148.6960 C   0  0  2  0  0  3  0  0  0  0  0  0
  159.8720  213.2890  148.0410 C   0  0  0  0  0  2  0  0  0  0  0  0
  160.1850  209.5610  151.7610 C   0  0  0  0  0  2  0  0  0  0  0  0
  159.7230  210.8660  153.8540 C   0  0  2  0  0  3  0  0  0  0  0  0
  160.5170  210.0930  153.1190 C   0  0  0  0  0  0  0  0  0  0  0  0
  158.4270  211.3250  153.6030 C   0  0  0  0  0  3  0  0  0  0  0  0
  159.8140  212.0430  155.9660 C   0  0  0  0  0  0  0  0  0  0  0  0
  163.5860  210.5640  156.3270 O   0  0  0  0  0  0  0  0  0  0  0  0
  160.6470  212.3530  157.1570 C   0  0  0  0  0  3  0  0  0  0  0  0
  162.4180  211.0210  156.2230 C   0  0  0  0  0  0  0  0  0  0  0  0
  157.8160  212.1630  154.5630 C   0  0  0  0  0  0  0  0  0  0  0  0
  158.5080  212.5210  155.7540 C   0  0  0  0  0  0  0  0  0  0  0  0
  161.8600  211.8650  157.2550 N   0  0  0  0  0  0  0  0  0  0  0  0
  161.8420  209.9050  153.8260 C   0  0  0  0  0  3  0  0  0  0  0  0
  161.5780  210.7180  155.0560 C   0  0  0  0  0  0  0  0  0  0  0  0
  160.3720  211.2230  154.9950 C   0  0  0  0  0  0  0  0  0  0  0  0
  157.9020  213.3390  156.7030 O   0  0  0  0  0  1  0  0  0  0  0  0
  156.4290  212.6550  154.3160 C   0  0  0  0  0  2  0  0  0  0  0  0
  156.4660  213.9640  153.5510 C   0  0  0  0  0  1  0  0  0  0  0  0
  2 28  1  0  0  0  0
  2  1  2  0  0  0  0
  3  1  1  0  0  0  0
  3  4  1  1  0  0  0
  5  3  1  0  0  0  0
  6  5  1  0  0  0  0
  7  9  1  1  0  0  0
  7 10  1  0  0  0  0
  7 11  1  0  0  0  0
 10  8  1  6  0  0  0
 10 11  1  0  0  0  0
 10  6  1  0  0  0  0
 12  7  1  0  0  0  0
 13 12  1  0  0  0  0
 14 16  1  0  0  0  0
 15 16  1  0  0  0  0
 15 18  1  0  0  0  0
 16 18  1  0  0  0  0
 16 17  1  0  0  0  0
 18 13  1  1  0  0  0
 19 20  1  6  0  0  0
 19  2  1  0  0  0  0
 21 19  1  0  0  0  0
 22 21  1  0  0  0  0
 24 27  1  0  0  0  0
 24 26  1  0  0  0  0
 25 23  1  0  0  0  0
 26 22  1  6  0  0  0
 26 23  1  0  0  0  0
 27 25  1  0  0  0  0
 28 30  1  0  0  0  0
 29 31  1  6  0  0  0
 29 41  1  0  0  0  0
 30 39  2  0  0  0  0
 30 29  1  0  0  0  0
 31 36  2  0  0  0  0
 32 34  1  0  0  0  0
 34 38  2  0  0  0  0
 35 33  2  0  0  0  0
 35 38  1  0  0  0  0
 36 37  1  0  0  0  0
 37 32  2  0  0  0  0
 37 42  1  0  0  0  0
 39 40  1  0  0  0  0
 40 35  1  0  0  0  0
 41 40  2  0  0  0  0
 41 32  1  0  0  0  0
 43 36  1  0  0  0  0
 44 43  1  0  0  0  0
M  END
>  <MODEL>
8

>  <REMARK>
 VINA RESULT:      -5.7      3.926      9.252
  Name = 
  14 active torsions:
  status: ('A' for Active; 'I' for Inactive)
    1  A    between atoms: C_2  and  N_31
    2  A    between atoms: C_7  and  C_14
    3  A    between atoms: C_8  and  C_19
    4  A    between atoms: N_12  and  N_38
    5  A    between atoms: N_12  and  C_40
    6  A    between atoms: C_13  and  C_22
    7  A    between atoms: C_14  and  N_38
    8  A    between atoms: C_15  and  C_41
    9  A    between atoms: C_16  and  C_20
   10  A    between atoms: C_16  and  C_30
   11  A    between atoms: C_19  and  C_30
   12  A    between atoms: C_20  and  C_36
   13  A    between atoms: N_31  and  C_41
   14  A    between atoms: C_34  and  C_36
                            x       y       z     vdW  Elec       q    Type
                         _______ _______ _______ _____ _____    ______ ____

>  <TORSDO>
F 14

$$$$
=
 OpenBabel11052409353D

 44 49  0  0  1  0  0  0  0  0999 V2000
  160.8240  206.7010  151.6470 C   0  0  0  0  0  3  0  0  0  0  0  0
  161.0830  207.3620  150.5090 C   0  0  0  0  0  0  0  0  0  0  0  0
  161.7310  206.7110  152.8390 C   0  0  1  0  0  3  0  0  0  0  0  0
  163.0770  206.1120  152.4620 C   0  0  0  0  0  1  0  0  0  0  0  0
  161.9140  208.0800  153.2860 N   0  0  0  0  0  2  0  0  0  0  0  0
  161.3130  208.1880  154.5490 N   0  0  0  0  0  2  0  0  0  0  0  0
  160.8500  209.9480  156.3210 C   0  0  2  0  0  0  0  0  0  0  0  0
  161.6100  210.5540  154.0270 O   0  0  0  0  0  1  0  0  0  0  0  0
  160.0570  208.8870  157.0740 C   0  0  0  0  0  1  0  0  0  0  0  0
  161.4890  209.5610  155.0040 C   0  0  2  0  0  0  0  0  0  0  0  0
  162.3630  209.7450  156.2340 C   0  0  0  0  0  2  0  0  0  0  0  0
  160.4050  211.3370  156.3980 N   0  0  0  0  0  2  0  0  0  0  0  0
  159.0000  211.3600  156.7730 C   0  0  0  0  0  2  0  0  0  0  0  0
  155.8940  212.2930  154.6380 C   0  0  0  0  0  1  0  0  0  0  0  0
  158.2460  212.7070  154.9390 O   0  0  0  0  0  0  0  0  0  0  0  0
  157.0440  212.4280  155.6130 C   0  0  0  0  0  0  0  0  0  0  0  0
  156.8750  213.3340  156.8250 C   0  0  0  0  0  1  0  0  0  0  0  0
  158.1390  211.4260  155.5210 C   0  0  2  0  0  3  0  0  0  0  0  0
  162.3320  208.1920  150.3550 C   0  0  1  0  0  3  0  0  0  0  0  0
  163.1960  207.6600  149.2240 C   0  0  0  0  0  1  0  0  0  0  0  0
  161.9770  209.6520  150.1250 C   0  0  0  0  0  2  0  0  0  0  0  0
  162.3480  210.0980  148.7230 C   0  0  0  0  0  2  0  0  0  0  0  0
  161.5110  212.0990  149.7440 O   0  0  0  0  0  0  0  0  0  0  0  0
  161.2020  211.8610  147.4130 C   0  0  0  0  0  2  0  0  0  0  0  0
  160.7660  213.2100  149.3190 C   0  0  0  0  0  2  0  0  0  0  0  0
  162.1160  211.5920  148.5830 C   0  0  2  0  0  3  0  0  0  0  0  0
  160.3360  212.9890  147.8870 C   0  0  0  0  0  2  0  0  0  0  0  0
  160.0570  207.3170  149.4130 C   0  0  0  0  0  2  0  0  0  0  0  0
  160.6710  205.0400  148.5560 C   0  0  0  0  0  0  0  0  0  0  0  0
  160.4470  206.3350  148.3550 C   0  0  0  0  0  0  0  0  0  0  0  0
  160.5640  204.2770  149.7220 C   0  0  0  0  0  3  0  0  0  0  0  0
  161.4050  203.1220  147.2770 C   0  0  1  0  0  3  0  0  0  0  0  0
  161.6490  205.6610  144.1080 O   0  0  0  0  0  0  0  0  0  0  0  0
  161.8400  202.6390  145.9400 C   0  0  0  0  0  3  0  0  0  0  0  0
  161.5710  204.8700  145.0830 C   0  0  0  0  0  0  0  0  0  0  0  0
  160.8870  202.9030  149.6560 C   0  0  0  0  0  0  0  0  0  0  0  0
  161.3040  202.3190  148.4270 C   0  0  0  0  0  0  0  0  0  0  0  0
  161.9110  203.4730  144.9310 N   0  0  0  0  0  0  0  0  0  0  0  0
  160.7310  206.6820  146.9090 C   0  0  0  0  0  3  0  0  0  0  0  0
  161.1350  205.3290  146.4090 C   0  0  0  0  0  0  0  0  0  0  0  0
  161.0770  204.4660  147.3920 C   0  0  0  0  0  0  0  0  0  0  0  0
  161.6130  200.9630  148.3600 O   0  0  0  0  0  1  0  0  0  0  0  0
  160.7700  202.0720  150.8890 C   0  0  0  0  0  2  0  0  0  0  0  0
  160.8970  202.9440  152.1230 C   0  0  0  0  0  1  0  0  0  0  0  0
  1  3  1  0  0  0  0
  2  1  2  0  0  0  0
  3  4  1  6  0  0  0
  3  5  1  0  0  0  0
  5  6  1  0  0  0  0
  6 10  1  0  0  0  0
  7 12  1  0  0  0  0
  7  9  1  1  0  0  0
 10  8  1  6  0  0  0
 10 11  1  0  0  0  0
 10  7  1  0  0  0  0
 11  7  1  0  0  0  0
 12 13  1  0  0  0  0
 14 16  1  0  0  0  0
 15 18  1  0  0  0  0
 15 16  1  0  0  0  0
 16 17  1  0  0  0  0
 18 16  1  0  0  0  0
 18 13  1  1  0  0  0
 19 20  1  6  0  0  0
 19  2  1  0  0  0  0
 21 19  1  0  0  0  0
 22 21  1  0  0  0  0
 24 27  1  0  0  0  0
 24 26  1  0  0  0  0
 25 23  1  0  0  0  0
 26 22  1  1  0  0  0
 26 23  1  0  0  0  0
 27 25  1  0  0  0  0
 28  2  1  0  0  0  0
 29 31  2  0  0  0  0
 30 29  1  0  0  0  0
 30 28  1  0  0  0  0
 32 34  1  1  0  0  0
 32 41  1  0  0  0  0
 32 37  1  0  0  0  0
 33 35  2  0  0  0  0
 35 40  1  0  0  0  0
 36 31  1  0  0  0  0
 36 43  1  0  0  0  0
 37 36  2  0  0  0  0
 38 35  1  0  0  0  0
 38 34  2  0  0  0  0
 39 30  2  0  0  0  0
 40 39  1  0  0  0  0
 40 41  2  0  0  0  0
 41 29  1  0  0  0  0
 42 37  1  0  0  0  0
 43 44  1  0  0  0  0
M  END
>  <MODEL>
9

>  <REMARK>
 VINA RESULT:      -5.3      3.596      7.757
  Name = 
  14 active torsions:
  status: ('A' for Active; 'I' for Inactive)
    1  A    between atoms: C_2  and  N_31
    2  A    between atoms: C_7  and  C_14
    3  A    between atoms: C_8  and  C_19
    4  A    between atoms: N_12  and  N_38
    5  A    between atoms: N_12  and  C_40
    6  A    between atoms: C_13  and  C_22
    7  A    between atoms: C_14  and  N_38
    8  A    between atoms: C_15  and  C_41
    9  A    between atoms: C_16  and  C_20
   10  A    between atoms: C_16  and  C_30
   11  A    between atoms: C_19  and  C_30
   12  A    between atoms: C_20  and  C_36
   13  A    between atoms: N_31  and  C_41
   14  A    between atoms: C_34  and  C_36
                            x       y       z     vdW  Elec       q    Type
                         _______ _______ _______ _____ _____    ______ ____

>  <TORSDO>
F 14

$$$$
