=
 OpenBabel11042422083D

 50 54  0  0  1  0  0  0  0  0999 V2000
  161.0550  210.2890  151.2410 C   0  0  2  0  0  3  0  0  0  0  0  0
  161.8980  207.1150  151.2890 C   0  0  1  0  0  3  0  0  0  0  0  0
  162.5980  211.8120  149.3070 C   0  0  1  0  0  3  0  0  0  0  0  0
  162.3490  209.4520  149.2120 C   0  0  0  0  0  2  0  0  0  0  0  0
  162.3200  208.0120  156.7100 N   0  0  0  0  0  1  0  0  0  0  0  0
  161.9550  205.6790  153.9720 C   0  0  0  0  0  0  0  0  0  0  0  0
  159.2150  209.9290  152.7710 O   0  0  0  0  0  0  0  0  0  0  0  0
  160.4500  209.8030  152.5360 C   0  0  0  0  0  0  0  0  0  0  0  0
  163.3150  212.8890  148.5240 C   0  0  0  0  0  1  0  0  0  0  0  0
  159.2770  212.2240  151.1740 C   0  0  0  0  0  1  0  0  0  0  0  0
  160.5920  211.6560  150.7580 C   0  0  0  0  0  0  0  0  0  0  0  0
  161.3390  209.0770  153.4670 C   0  0  0  0  0  3  0  0  0  0  0  0
  161.3190  212.3510  149.8700 C   0  0  0  0  0  3  0  0  0  0  0  0
  162.1130  207.7110  155.3000 C   0  0  1  0  0  3  0  0  0  0  0  0
  161.0950  209.2740  150.0810 C   0  0  1  0  0  3  0  0  0  0  0  0
  161.4770  205.6740  151.5730 C   0  0  2  0  0  3  0  0  0  0  0  0
  163.1670  207.1610  150.7010 O   0  0  0  0  0  1  0  0  0  0  0  0
  162.2920  210.6820  148.4280 N   0  0  0  0  0  2  0  0  0  0  0  0
  161.7850  206.2580  155.1340 C   0  0  0  0  0  3  0  0  0  0  0  0
  161.0490  208.5890  154.6750 C   0  0  0  0  0  0  0  0  0  0  0  0
  162.1280  205.1150  152.8020 C   0  0  0  0  0  3  0  0  0  0  0  0
  160.8430  207.7940  150.4080 C   0  0  0  0  0  2  0  0  0  0  0  0
  159.1680  209.9740  155.3880 C   0  0  0  0  0  0  0  0  0  0  0  0
  159.7180  208.7930  155.2810 C   0  0  0  0  0  3  0  0  0  0  0  0
  157.6050  213.8630  155.3150 C   0  0  1  0  0  3  0  0  0  0  0  0
  157.9010  211.6370  154.2260 C   0  0  0  0  0  3  0  0  0  0  0  0
  158.6060  211.1520  155.4200 C   0  0  0  0  0  0  0  0  0  0  0  0
  158.4290  213.3340  156.4820 C   0  0  0  0  0  3  0  0  0  0  0  0
  157.4300  212.8850  154.1690 C   0  0  0  0  0  3  0  0  0  0  0  0
  158.8860  212.0790  156.5300 C   0  0  0  0  0  3  0  0  0  0  0  0
  153.9070  212.9600  156.3460 O   0  0  0  0  0  0  0  0  0  0  0  0
  154.4350  212.9730  155.0480 C   0  0  0  0  0  2  0  0  0  0  0  0
  155.9160  213.9710  157.2560 C   0  0  0  0  0  2  0  0  0  0  0  0
  155.0090  212.7290  157.1900 C   0  0  0  0  0  2  0  0  0  0  0  0
  155.1420  214.3080  154.8190 C   0  0  0  0  0  2  0  0  0  0  0  0
  156.2870  214.4530  155.8360 C   0  0  0  0  0  3  0  0  0  0  0  0
  161.6450  204.8160  150.4040 N   0  0  0  0  0  2  0  0  0  0  0  0
  159.6050  205.2450  149.3470 O   0  0  0  0  0  0  0  0  0  0  0  0
  160.6500  204.5460  149.4020 C   0  0  0  0  0  0  0  0  0  0  0  0
  160.9440  203.9250  147.0640 C   0  0  0  0  0  3  0  0  0  0  0  0
  161.0740  202.1180  148.7020 C   0  0  0  0  0  0  0  0  0  0  0  0
  160.8950  203.5030  148.3990 C   0  0  0  0  0  0  0  0  0  0  0  0
  161.2900  201.6570  146.3170 C   0  0  0  0  0  3  0  0  0  0  0  0
  161.2630  201.2200  147.6440 C   0  0  0  0  0  3  0  0  0  0  0  0
  161.1390  203.0140  146.0230 C   0  0  0  0  0  0  0  0  0  0  0  0
  162.0310  204.7600  144.5060 C   0  0  0  0  0  1  0  0  0  0  0  0
  161.1730  203.5140  144.6130 C   0  0  2  0  0  3  0  0  0  0  0  0
  159.8810  203.7870  144.1650 O   0  0  0  0  0  1  0  0  0  0  0  0
  161.0940  201.5580  149.9940 O   0  0  0  0  0  0  0  0  0  0  0  0
  160.2530  200.5180  150.4730 C   0  0  0  0  0  1  0  0  0  0  0  0
  1 11  1  6  0  0  0
  1  8  1  0  0  0  0
  2 17  1  6  0  0  0
  2 16  1  0  0  0  0
  3  9  1  6  0  0  0
  3 13  1  0  0  0  0
  6 19  2  0  0  0  0
  8  7  2  0  0  0  0
  8 12  1  0  0  0  0
 11 10  1  0  0  0  0
 12 20  2  0  0  0  0
 13 11  2  0  0  0  0
 14  5  1  1  0  0  0
 15  4  1  1  0  0  0
 15 22  1  0  0  0  0
 15  1  1  0  0  0  0
 16 37  1  6  0  0  0
 16 21  1  0  0  0  0
 18  4  1  0  0  0  0
 18  3  1  0  0  0  0
 19 14  1  0  0  0  0
 20 24  1  0  0  0  0
 20 14  1  0  0  0  0
 21  6  2  0  0  0  0
 22  2  1  0  0  0  0
 23 27  2  0  0  0  0
 24 23  2  0  0  0  0
 25 36  1  1  0  0  0
 25 28  1  0  0  0  0
 26 27  1  0  0  0  0
 27 30  1  0  0  0  0
 28 30  2  0  0  0  0
 29 26  2  0  0  0  0
 29 25  1  0  0  0  0
 31 34  1  0  0  0  0
 32 31  1  0  0  0  0
 34 33  1  0  0  0  0
 35 32  1  0  0  0  0
 35 36  1  0  0  0  0
 36 33  1  0  0  0  0
 38 39  2  0  0  0  0
 39 37  1  0  0  0  0
 40 42  1  0  0  0  0
 41 49  1  0  0  0  0
 42 41  2  0  0  0  0
 42 39  1  0  0  0  0
 43 44  2  0  0  0  0
 44 41  1  0  0  0  0
 45 43  1  0  0  0  0
 45 40  2  0  0  0  0
 47 46  1  1  0  0  0
 47 45  1  0  0  0  0
 48 47  1  0  0  0  0
 49 50  1  0  0  0  0
M  END
>  <MODEL>
1

>  <REMARK>
 VINA RESULT:       1.8      0.000      0.000
  Name = 
  6 active torsions:
  status: ('A' for Active; 'I' for Inactive)
    1  A    between atoms: C_5  and  C_46
    2  A    between atoms: C_10  and  C_45
    3  A    between atoms: O_12  and  C_27
    4  A    between atoms: N_13  and  C_33
    5  A    between atoms: C_28  and  C_44
    6  A    between atoms: C_36  and  C_43
                            x       y       z     vdW  Elec       q    Type
                         _______ _______ _______ _____ _____    ______ ____

>  <TORSDO>
F 6

$$$$
=
 OpenBabel11042422083D

 50 54  0  0  1  0  0  0  0  0999 V2000
  161.7720  207.8640  150.1290 C   0  0  2  0  0  3  0  0  0  0  0  0
  160.8740  210.6910  151.5380 C   0  0  1  0  0  3  0  0  0  0  0  0
  163.1750  206.1090  151.9710 C   0  0  1  0  0  3  0  0  0  0  0  0
  161.7610  207.8820  152.6770 C   0  0  0  0  0  2  0  0  0  0  0  0
  163.3620  212.8850  147.1370 N   0  0  0  0  0  1  0  0  0  0  0  0
  161.0390  213.2420  149.8860 C   0  0  0  0  0  0  0  0  0  0  0  0
  160.5870  208.3880  148.0860 O   0  0  0  0  0  0  0  0  0  0  0  0
  161.4460  208.7390  148.9430 C   0  0  0  0  0  0  0  0  0  0  0  0
  164.0490  205.0570  152.6160 C   0  0  0  0  0  1  0  0  0  0  0  0
  161.2880  205.7410  148.6560 C   0  0  0  0  0  1  0  0  0  0  0  0
  161.9340  206.3780  149.8400 C   0  0  0  0  0  0  0  0  0  0  0  0
  162.0900  210.0680  148.8850 C   0  0  0  0  0  3  0  0  0  0  0  0
  162.5910  205.5820  150.6970 C   0  0  0  0  0  3  0  0  0  0  0  0
  162.6020  212.3410  148.2550 C   0  0  1  0  0  3  0  0  0  0  0  0
  160.9320  208.0950  151.4020 C   0  0  1  0  0  3  0  0  0  0  0  0
  159.9000  211.8690  151.5590 C   0  0  2  0  0  3  0  0  0  0  0  0
  161.7360  210.7330  152.6400 O   0  0  0  0  0  1  0  0  0  0  0  0
  162.0860  206.4730  152.8800 N   0  0  0  0  0  2  0  0  0  0  0  0
  161.5560  213.3240  148.6850 C   0  0  0  0  0  3  0  0  0  0  0  0
  161.9890  210.9940  147.9300 C   0  0  0  0  0  0  0  0  0  0  0  0
  160.5300  213.1460  151.0890 C   0  0  0  0  0  3  0  0  0  0  0  0
  160.0880  209.3770  151.4860 C   0  0  0  0  0  2  0  0  0  0  0  0
  161.1950  211.5710  145.6930 C   0  0  0  0  0  0  0  0  0  0  0  0
  161.2080  210.7420  146.7020 C   0  0  0  0  0  3  0  0  0  0  0  0
  161.6120  214.3200  142.5550 C   0  0  1  0  0  3  0  0  0  0  0  0
  162.3740  212.2510  143.7250 C   0  0  0  0  0  3  0  0  0  0  0  0
  161.2550  212.3780  144.6680 C   0  0  0  0  0  0  0  0  0  0  0  0
  160.5320  214.4520  143.6210 C   0  0  0  0  0  3  0  0  0  0  0  0
  162.5450  213.1390  142.7430 C   0  0  0  0  0  3  0  0  0  0  0  0
  160.3650  213.5510  144.5930 C   0  0  0  0  0  3  0  0  0  0  0  0
  159.7410  212.2080  139.8000 O   0  0  0  0  0  0  0  0  0  0  0  0
  161.0930  212.1090  140.1550 C   0  0  0  0  0  2  0  0  0  0  0  0
  159.4440  214.1870  141.1700 C   0  0  0  0  0  2  0  0  0  0  0  0
  159.0930  212.7060  140.9450 C   0  0  0  0  0  2  0  0  0  0  0  0
  161.7080  213.5080  140.1390 C   0  0  0  0  0  2  0  0  0  0  0  0
  160.9760  214.3940  141.1600 C   0  0  0  0  0  3  0  0  0  0  0  0
  159.2390  212.0080  152.8530 N   0  0  0  0  0  2  0  0  0  0  0  0
  157.9410  213.8970  152.3930 O   0  0  0  0  0  0  0  0  0  0  0  0
  158.3780  213.0870  153.2520 C   0  0  0  0  0  0  0  0  0  0  0  0
  156.6450  213.6480  154.8700 C   0  0  0  0  0  3  0  0  0  0  0  0
  158.7800  212.8810  155.7750 C   0  0  0  0  0  0  0  0  0  0  0  0
  157.9530  213.1960  154.6530 C   0  0  0  0  0  0  0  0  0  0  0  0
  156.9590  213.5360  157.2600 C   0  0  0  0  0  3  0  0  0  0  0  0
  158.2600  213.0660  157.0630 C   0  0  0  0  0  3  0  0  0  0  0  0
  156.1430  213.8210  156.1630 C   0  0  0  0  0  0  0  0  0  0  0  0
  153.9480  213.3730  157.2230 C   0  0  0  0  0  1  0  0  0  0  0  0
  154.7430  214.3170  156.3420 C   0  0  2  0  0  3  0  0  0  0  0  0
  154.1150  214.4520  155.1040 O   0  0  0  0  0  1  0  0  0  0  0  0
  160.0920  212.3760  155.7080 O   0  0  0  0  0  0  0  0  0  0  0  0
  160.5310  211.1110  156.1810 C   0  0  0  0  0  1  0  0  0  0  0  0
  1  8  1  6  0  0  0
  1 15  1  0  0  0  0
  2 16  1  0  0  0  0
  2 17  1  1  0  0  0
  3  9  1  1  0  0  0
  3 18  1  0  0  0  0
  4 18  1  0  0  0  0
  6 21  2  0  0  0  0
  7  8  2  0  0  0  0
 10 11  1  0  0  0  0
 11  1  1  0  0  0  0
 11 13  2  0  0  0  0
 12  8  1  0  0  0  0
 13  3  1  0  0  0  0
 14  5  1  6  0  0  0
 14 19  1  0  0  0  0
 15 22  1  6  0  0  0
 15  4  1  0  0  0  0
 16 37  1  1  0  0  0
 19  6  2  0  0  0  0
 20 14  1  0  0  0  0
 20 12  2  0  0  0  0
 21 16  1  0  0  0  0
 22  2  1  0  0  0  0
 23 24  2  0  0  0  0
 24 20  1  0  0  0  0
 25 36  1  6  0  0  0
 25 29  1  0  0  0  0
 25 28  1  0  0  0  0
 26 27  1  0  0  0  0
 27 23  2  0  0  0  0
 28 30  2  0  0  0  0
 29 26  2  0  0  0  0
 30 27  1  0  0  0  0
 31 32  1  0  0  0  0
 31 34  1  0  0  0  0
 34 33  1  0  0  0  0
 35 32  1  0  0  0  0
 35 36  1  0  0  0  0
 36 33  1  0  0  0  0
 37 39  1  0  0  0  0
 38 39  2  0  0  0  0
 39 42  1  0  0  0  0
 40 45  1  0  0  0  0
 41 44  2  0  0  0  0
 42 40  2  0  0  0  0
 42 41  1  0  0  0  0
 44 43  1  0  0  0  0
 45 47  1  0  0  0  0
 45 43  2  0  0  0  0
 47 46  1  1  0  0  0
 48 47  1  0  0  0  0
 49 41  1  0  0  0  0
 49 50  1  0  0  0  0
M  END
>  <MODEL>
2

>  <REMARK>
 VINA RESULT:       3.9      3.988     11.220
  Name = 
  6 active torsions:
  status: ('A' for Active; 'I' for Inactive)
    1  A    between atoms: C_5  and  C_46
    2  A    between atoms: C_10  and  C_45
    3  A    between atoms: O_12  and  C_27
    4  A    between atoms: N_13  and  C_33
    5  A    between atoms: C_28  and  C_44
    6  A    between atoms: C_36  and  C_43
                            x       y       z     vdW  Elec       q    Type
                         _______ _______ _______ _____ _____    ______ ____

>  <TORSDO>
F 6

$$$$
