=
 OpenBabel11042421143D

 32 34  0  0  1  0  0  0  0  0999 V2000
  160.5890  206.4300  151.5010 O   0  0  0  0  0  0  0  0  0  0  0  0
  161.0540  205.2500  150.8840 C   0  0  2  0  0  0  0  0  0  0  0  0
  161.7280  207.0740  152.0070 C   0  0  2  0  0  3  0  0  0  0  0  0
  162.7530  206.0410  152.3970 C   0  0  0  0  0  2  0  0  0  0  0  0
  162.3550  204.8460  151.5860 C   0  0  0  0  0  2  0  0  0  0  0  0
  160.4010  210.1780  155.0560 N   0  0  0  0  0  0  0  0  0  0  0  0
  160.3640  207.7980  155.3430 C   0  0  0  0  0  0  0  0  0  0  0  0
  161.9100  210.1290  151.4100 S   0  0  0  0  0  1  0  0  0  0  0  0
  161.3930  208.0210  153.1280 C   0  0  0  0  0  0  0  0  0  0  0  0
  161.2230  210.3480  154.0670 C   0  0  0  0  0  3  0  0  0  0  0  0
  161.4370  209.3760  152.9720 C   0  0  0  0  0  0  0  0  0  0  0  0
  159.5340  209.0220  155.1900 C   0  0  0  0  0  2  0  0  0  0  0  0
  161.1480  207.3850  154.3960 N   0  0  0  0  0  0  0  0  0  0  0  0
  160.2330  206.8630  156.8170 Cl  0  0  0  0  0  0  0  0  0  0  0  0
  161.3150  205.1000  146.3530 C   0  0  0  0  0  0  0  0  0  0  0  0
  161.1060  206.8420  148.9460 C   0  0  0  0  0  3  0  0  0  0  0  0
  161.9480  204.4690  148.7140 C   0  0  0  0  0  3  0  0  0  0  0  0
  161.9690  204.3010  147.3960 C   0  0  0  0  0  3  0  0  0  0  0  0
  160.9590  207.2120  147.6780 C   0  0  0  0  0  3  0  0  0  0  0  0
  160.9160  206.3630  146.4850 C   0  0  0  0  0  3  0  0  0  0  0  0
  161.2610  205.5010  149.4410 N   0  0  0  0  0  0  0  0  0  0  0  0
  161.2020  204.4870  144.9980 C   0  0  0  0  0  2  0  0  0  0  0  0
  159.9190  202.3240  144.6770 C   0  0  0  0  0  0  0  0  0  0  0  0
  161.0830  203.0390  145.0990 N   0  0  0  0  0  2  0  0  0  0  0  0
  159.8940  200.9390  144.7640 O   0  0  0  0  0  1  0  0  0  0  0  0
  158.9120  202.9380  144.2340 O   0  0  0  0  0  0  0  0  0  0  0  0
  159.9960  204.1580  151.1050 C   0  0  0  0  0  2  0  0  0  0  0  0
  160.5440  202.8890  151.7460 C   0  0  0  0  0  2  0  0  0  0  0  0
  161.3790  200.7180  148.9280 O   0  0  0  0  0  0  0  0  0  0  0  0
  160.6750  201.3580  149.7500 C   0  0  0  0  0  0  0  0  0  0  0  0
  161.3080  202.1330  150.7670 N   0  0  0  0  0  2  0  0  0  0  0  0
  159.2550  201.2980  149.6600 N   0  0  0  0  0  1  0  0  0  0  0  0
  1  3  1  0  0  0  0
  2 27  1  1  0  0  0
  2  1  1  0  0  0  0
  2  5  1  0  0  0  0
  3  4  1  0  0  0  0
  3  9  1  1  0  0  0
  5  4  1  0  0  0  0
  6 12  1  0  0  0  0
  7 14  1  0  0  0  0
  8 11  1  0  0  0  0
  9 13  1  0  0  0  0
 10  6  2  0  0  0  0
 11  9  2  0  0  0  0
 11 10  1  0  0  0  0
 12  7  1  0  0  0  0
 13  7  2  0  0  0  0
 15 20  2  0  0  0  0
 15 18  1  0  0  0  0
 16 21  1  0  0  0  0
 17 21  1  0  0  0  0
 18 17  2  0  0  0  0
 19 16  2  0  0  0  0
 20 19  1  0  0  0  0
 21  2  1  0  0  0  0
 22 24  1  0  0  0  0
 22 15  1  0  0  0  0
 23 25  1  0  0  0  0
 23 24  1  0  0  0  0
 26 23  2  0  0  0  0
 27 28  1  0  0  0  0
 29 30  2  0  0  0  0
 30 31  1  0  0  0  0
 31 28  1  0  0  0  0
 32 30  1  0  0  0  0
M  END
>  <MODEL>
1

>  <REMARK>
 VINA RESULT:      -7.0      0.000      0.000
  Name = 
  7 active torsions:
  status: ('A' for Active; 'I' for Inactive)
    1  A    between atoms: C_2  and  C_13
    2  A    between atoms: C_2  and  N_32
    3  A    between atoms: C_6  and  C_17
    4  A    between atoms: C_7  and  C_12
    5  A    between atoms: C_11  and  C_13
    6  A    between atoms: C_11  and  N_26
    7  A    between atoms: C_17  and  N_18
                            x       y       z     vdW  Elec       q    Type
                         _______ _______ _______ _____ _____    ______ ____

>  <TORSDO>
F 7

$$$$
=
 OpenBabel11042421143D

 32 34  0  0  1  0  0  0  0  0999 V2000
  159.9170  209.3420  152.5560 O   0  0  0  0  0  0  0  0  0  0  0  0
  161.0360  208.4870  152.6380 C   0  0  2  0  0  0  0  0  0  0  0  0
  160.4330  210.6400  152.4280 C   0  0  2  0  0  3  0  0  0  0  0  0
  161.7480  210.7280  153.1590 C   0  0  0  0  0  2  0  0  0  0  0  0
  162.1940  209.2990  153.2280 C   0  0  0  0  0  2  0  0  0  0  0  0
  157.2560  213.7840  153.2690 N   0  0  0  0  0  0  0  0  0  0  0  0
  157.6850  211.8150  154.5680 C   0  0  0  0  0  0  0  0  0  0  0  0
  160.0960  213.1460  150.6040 S   0  0  0  0  0  1  0  0  0  0  0  0
  159.4470  211.6890  152.8670 C   0  0  0  0  0  0  0  0  0  0  0  0
  158.3440  213.9300  152.5780 C   0  0  0  0  0  3  0  0  0  0  0  0
  159.2200  212.8210  152.1400 C   0  0  0  0  0  0  0  0  0  0  0  0
  156.7220  212.4930  153.6620 C   0  0  0  0  0  2  0  0  0  0  0  0
  158.8650  211.4580  154.1620 N   0  0  0  0  0  0  0  0  0  0  0  0
  157.1900  211.4390  156.2040 Cl  0  0  0  0  0  0  0  0  0  0  0  0
  161.2110  206.3350  148.6430 C   0  0  0  0  0  0  0  0  0  0  0  0
  161.9480  208.8660  150.3320 C   0  0  0  0  0  3  0  0  0  0  0  0
  161.3890  206.5400  151.1530 C   0  0  0  0  0  3  0  0  0  0  0  0
  161.3260  205.8440  150.0220 C   0  0  0  0  0  3  0  0  0  0  0  0
  162.0320  208.6850  149.0180 C   0  0  0  0  0  3  0  0  0  0  0  0
  161.5500  207.5510  148.2260 C   0  0  0  0  0  3  0  0  0  0  0  0
  161.3570  207.9700  151.2900 N   0  0  0  0  0  0  0  0  0  0  0  0
  160.7970  205.3470  147.6040 C   0  0  0  0  0  2  0  0  0  0  0  0
  161.1960  205.0420  145.1190 C   0  0  0  0  0  0  0  0  0  0  0  0
  161.0380  205.8770  146.2690 N   0  0  0  0  0  2  0  0  0  0  0  0
  161.3800  205.6210  143.8710 O   0  0  0  0  0  0  0  0  0  0  0  0
  161.1770  203.7870  145.2270 O   0  0  0  0  0  1  0  0  0  0  0  0
  160.6790  207.3390  153.5950 C   0  0  0  0  0  2  0  0  0  0  0  0
  161.2030  207.5330  155.0130 C   0  0  0  0  0  2  0  0  0  0  0  0
  159.9590  210.1330  157.2600 O   0  0  0  0  0  0  0  0  0  0  0  0
  160.7800  209.4140  156.6340 C   0  0  0  0  0  0  0  0  0  0  0  0
  160.3000  208.3960  155.7570 N   0  0  0  0  0  2  0  0  0  0  0  0
  162.1770  209.6210  156.8120 N   0  0  0  0  0  1  0  0  0  0  0  0
  1  2  1  0  0  0  0
  2  5  1  0  0  0  0
  2 27  1  1  0  0  0
  3  1  1  0  0  0  0
  3  9  1  1  0  0  0
  3  4  1  0  0  0  0
  4  5  1  0  0  0  0
  6 12  1  0  0  0  0
  7 14  1  0  0  0  0
  8 11  1  0  0  0  0
  9 13  1  0  0  0  0
 10  6  2  0  0  0  0
 11 10  1  0  0  0  0
 11  9  2  0  0  0  0
 12  7  1  0  0  0  0
 13  7  2  0  0  0  0
 15 18  1  0  0  0  0
 16 21  1  0  0  0  0
 17 21  1  0  0  0  0
 18 17  2  0  0  0  0
 19 16  2  0  0  0  0
 20 15  2  0  0  0  0
 20 19  1  0  0  0  0
 21  2  1  0  0  0  0
 22 15  1  0  0  0  0
 23 26  1  0  0  0  0
 23 24  1  0  0  0  0
 24 22  1  0  0  0  0
 25 23  2  0  0  0  0
 27 28  1  0  0  0  0
 28 31  1  0  0  0  0
 30 32  1  0  0  0  0
 30 29  2  0  0  0  0
 31 30  1  0  0  0  0
M  END
>  <MODEL>
2

>  <REMARK>
 VINA RESULT:      -6.9      2.989      5.325
  Name = 
  7 active torsions:
  status: ('A' for Active; 'I' for Inactive)
    1  A    between atoms: C_2  and  C_13
    2  A    between atoms: C_2  and  N_32
    3  A    between atoms: C_6  and  C_17
    4  A    between atoms: C_7  and  C_12
    5  A    between atoms: C_11  and  C_13
    6  A    between atoms: C_11  and  N_26
    7  A    between atoms: C_17  and  N_18
                            x       y       z     vdW  Elec       q    Type
                         _______ _______ _______ _____ _____    ______ ____

>  <TORSDO>
F 7

$$$$
=
 OpenBabel11042421143D

 32 34  0  0  1  0  0  0  0  0999 V2000
  160.1140  209.3970  152.4530 O   0  0  0  0  0  0  0  0  0  0  0  0
  160.9570  208.3810  152.9510 C   0  0  2  0  0  0  0  0  0  0  0  0
  160.9650  210.3830  151.9320 C   0  0  2  0  0  3  0  0  0  0  0  0
  162.2480  210.4020  152.7210 C   0  0  0  0  0  2  0  0  0  0  0  0
  162.2880  209.0360  153.3360 C   0  0  0  0  0  2  0  0  0  0  0  0
  158.7720  214.3110  151.2580 N   0  0  0  0  0  0  0  0  0  0  0  0
  158.5770  212.8860  153.1760 C   0  0  0  0  0  0  0  0  0  0  0  0
  161.4190  212.0830  149.3580 S   0  0  0  0  0  1  0  0  0  0  0  0
  160.2970  211.7310  151.8640 C   0  0  0  0  0  0  0  0  0  0  0  0
  159.8830  213.9250  150.7100 C   0  0  0  0  0  3  0  0  0  0  0  0
  160.4270  212.5520  150.7830 C   0  0  0  0  0  0  0  0  0  0  0  0
  157.8810  213.4190  151.9770 C   0  0  0  0  0  2  0  0  0  0  0  0
  159.6240  212.1260  153.0730 N   0  0  0  0  0  0  0  0  0  0  0  0
  157.9340  213.2490  154.7630 Cl  0  0  0  0  0  0  0  0  0  0  0  0
  161.0230  204.6100  150.4220 C   0  0  0  0  0  0  0  0  0  0  0  0
  161.1110  207.7380  150.5310 C   0  0  0  0  0  3  0  0  0  0  0  0
  161.6740  206.0880  152.3630 C   0  0  0  0  0  3  0  0  0  0  0  0
  161.6240  204.9230  151.7240 C   0  0  0  0  0  3  0  0  0  0  0  0
  160.9570  206.9430  149.4770 C   0  0  0  0  0  3  0  0  0  0  0  0
  160.7740  205.4900  149.4560 C   0  0  0  0  0  3  0  0  0  0  0  0
  161.1350  207.3420  151.9130 N   0  0  0  0  0  0  0  0  0  0  0  0
  160.7900  203.1700  150.1110 C   0  0  0  0  0  2  0  0  0  0  0  0
  160.9670  201.6750  148.0700 C   0  0  0  0  0  0  0  0  0  0  0  0
  160.7560  202.9550  148.6700 N   0  0  0  0  0  2  0  0  0  0  0  0
  160.8770  201.5400  146.6920 O   0  0  0  0  0  0  0  0  0  0  0  0
  161.2390  200.6700  148.7790 O   0  0  0  0  0  1  0  0  0  0  0  0
  160.2940  207.7960  154.2070 C   0  0  0  0  0  2  0  0  0  0  0  0
  160.8640  208.3350  155.5130 C   0  0  0  0  0  2  0  0  0  0  0  0
  159.0580  211.0640  157.1390 O   0  0  0  0  0  0  0  0  0  0  0  0
  159.9710  210.4680  156.5130 C   0  0  0  0  0  0  0  0  0  0  0  0
  159.8380  209.0760  156.2290 N   0  0  0  0  0  2  0  0  0  0  0  0
  161.1290  211.1870  156.1000 N   0  0  0  0  0  1  0  0  0  0  0  0
  1  2  1  0  0  0  0
  2  5  1  0  0  0  0
  2 27  1  1  0  0  0
  3  9  1  1  0  0  0
  3  1  1  0  0  0  0
  3  4  1  0  0  0  0
  4  5  1  0  0  0  0
  6 12  1  0  0  0  0
  7 14  1  0  0  0  0
  8 11  1  0  0  0  0
  9 13  1  0  0  0  0
 10 11  1  0  0  0  0
 10  6  2  0  0  0  0
 11  9  2  0  0  0  0
 12  7  1  0  0  0  0
 13  7  2  0  0  0  0
 15 18  1  0  0  0  0
 16 21  1  0  0  0  0
 18 17  2  0  0  0  0
 19 16  2  0  0  0  0
 20 19  1  0  0  0  0
 20 15  2  0  0  0  0
 21 17  1  0  0  0  0
 21  2  1  0  0  0  0
 22 15  1  0  0  0  0
 23 24  1  0  0  0  0
 23 26  1  0  0  0  0
 24 22  1  0  0  0  0
 25 23  2  0  0  0  0
 27 28  1  0  0  0  0
 28 31  1  0  0  0  0
 30 29  2  0  0  0  0
 31 30  1  0  0  0  0
 32 30  1  0  0  0  0
M  END
>  <MODEL>
3

>  <REMARK>
 VINA RESULT:      -6.9      3.072      5.826
  Name = 
  7 active torsions:
  status: ('A' for Active; 'I' for Inactive)
    1  A    between atoms: C_2  and  C_13
    2  A    between atoms: C_2  and  N_32
    3  A    between atoms: C_6  and  C_17
    4  A    between atoms: C_7  and  C_12
    5  A    between atoms: C_11  and  C_13
    6  A    between atoms: C_11  and  N_26
    7  A    between atoms: C_17  and  N_18
                            x       y       z     vdW  Elec       q    Type
                         _______ _______ _______ _____ _____    ______ ____

>  <TORSDO>
F 7

$$$$
=
 OpenBabel11042421143D

 32 34  0  0  1  0  0  0  0  0999 V2000
  160.4890  208.6630  152.2430 O   0  0  0  0  0  0  0  0  0  0  0  0
  161.5970  207.8410  151.9480 C   0  0  2  0  0  0  0  0  0  0  0  0
  160.8370  209.9500  151.8050 C   0  0  2  0  0  3  0  0  0  0  0  0
  162.3260  210.1370  151.9420 C   0  0  0  0  0  2  0  0  0  0  0  0
  162.8450  208.7310  151.9540 C   0  0  0  0  0  2  0  0  0  0  0  0
  158.1470  213.2080  153.4890 N   0  0  0  0  0  0  0  0  0  0  0  0
  158.6880  211.1250  154.5460 C   0  0  0  0  0  0  0  0  0  0  0  0
  160.3160  212.6000  150.2480 S   0  0  0  0  0  1  0  0  0  0  0  0
  160.0440  211.0200  152.5050 C   0  0  0  0  0  0  0  0  0  0  0  0
  159.0760  213.3390  152.5920 C   0  0  0  0  0  3  0  0  0  0  0  0
  159.7560  212.2150  151.9130 C   0  0  0  0  0  0  0  0  0  0  0  0
  157.6110  211.9260  153.9070 C   0  0  0  0  0  2  0  0  0  0  0  0
  159.7280  210.7300  153.8780 N   0  0  0  0  0  0  0  0  0  0  0  0
  158.5170  210.6590  156.2240 Cl  0  0  0  0  0  0  0  0  0  0  0  0
  161.8840  206.1830  147.7300 C   0  0  0  0  0  0  0  0  0  0  0  0
  160.5900  205.9990  150.5750 C   0  0  0  0  0  3  0  0  0  0  0  0
  161.6960  207.9920  149.4810 C   0  0  0  0  0  3  0  0  0  0  0  0
  161.9070  207.5580  148.2420 C   0  0  0  0  0  3  0  0  0  0  0  0
  160.5340  205.1270  149.5740 C   0  0  0  0  0  3  0  0  0  0  0  0
  161.2610  205.1570  148.3020 C   0  0  0  0  0  3  0  0  0  0  0  0
  161.3900  207.1920  150.6350 N   0  0  0  0  0  0  0  0  0  0  0  0
  162.5070  205.9450  146.3950 C   0  0  0  0  0  2  0  0  0  0  0  0
  160.6380  205.0200  144.9530 C   0  0  0  0  0  0  0  0  0  0  0  0
  161.8400  204.8480  145.7070 N   0  0  0  0  0  2  0  0  0  0  0  0
  160.0840  203.9350  144.2880 O   0  0  0  0  0  0  0  0  0  0  0  0
  160.0730  206.1440  144.8900 O   0  0  0  0  0  1  0  0  0  0  0  0
  161.7140  206.7930  153.0650 C   0  0  0  0  0  2  0  0  0  0  0  0
  160.8340  207.0820  154.2750 C   0  0  0  0  0  2  0  0  0  0  0  0
  161.8060  208.9520  157.2610 O   0  0  0  0  0  0  0  0  0  0  0  0
  161.2090  208.1070  156.5460 C   0  0  0  0  0  0  0  0  0  0  0  0
  161.4960  208.0360  155.1500 N   0  0  0  0  0  2  0  0  0  0  0  0
  160.2510  207.2330  157.1360 N   0  0  0  0  0  1  0  0  0  0  0  0
  2  5  1  0  0  0  0
  2  1  1  0  0  0  0
  2 27  1  1  0  0  0
  3  4  1  0  0  0  0
  3  1  1  0  0  0  0
  3  9  1  1  0  0  0
  4  5  1  0  0  0  0
  6 12  1  0  0  0  0
  7 14  1  0  0  0  0
  8 11  1  0  0  0  0
  9 13  1  0  0  0  0
 10  6  2  0  0  0  0
 11  9  2  0  0  0  0
 11 10  1  0  0  0  0
 12  7  1  0  0  0  0
 13  7  2  0  0  0  0
 15 18  1  0  0  0  0
 15 20  2  0  0  0  0
 16 21  1  0  0  0  0
 17 21  1  0  0  0  0
 18 17  2  0  0  0  0
 19 16  2  0  0  0  0
 20 19  1  0  0  0  0
 21  2  1  0  0  0  0
 22 15  1  0  0  0  0
 23 24  1  0  0  0  0
 24 22  1  0  0  0  0
 25 23  2  0  0  0  0
 26 23  1  0  0  0  0
 27 28  1  0  0  0  0
 28 31  1  0  0  0  0
 30 32  1  0  0  0  0
 30 29  2  0  0  0  0
 31 30  1  0  0  0  0
M  END
>  <MODEL>
4

>  <REMARK>
 VINA RESULT:      -6.5      2.632      4.616
  Name = 
  7 active torsions:
  status: ('A' for Active; 'I' for Inactive)
    1  A    between atoms: C_2  and  C_13
    2  A    between atoms: C_2  and  N_32
    3  A    between atoms: C_6  and  C_17
    4  A    between atoms: C_7  and  C_12
    5  A    between atoms: C_11  and  C_13
    6  A    between atoms: C_11  and  N_26
    7  A    between atoms: C_17  and  N_18
                            x       y       z     vdW  Elec       q    Type
                         _______ _______ _______ _____ _____    ______ ____

>  <TORSDO>
F 7

$$$$
=
 OpenBabel11042421143D

 32 34  0  0  1  0  0  0  0  0999 V2000
  160.6250  207.4880  151.5930 O   0  0  0  0  0  0  0  0  0  0  0  0
  161.3890  206.3050  151.6770 C   0  0  2  0  0  0  0  0  0  0  0  0
  161.4460  208.4310  150.9560 C   0  0  2  0  0  3  0  0  0  0  0  0
  162.8850  208.1560  151.3040 C   0  0  0  0  0  2  0  0  0  0  0  0
  162.8660  206.7120  151.7070 C   0  0  0  0  0  2  0  0  0  0  0  0
  159.9420  212.7000  151.4180 N   0  0  0  0  0  0  0  0  0  0  0  0
  159.6730  210.9190  153.0010 C   0  0  0  0  0  0  0  0  0  0  0  0
  161.9580  210.5870  148.7630 S   0  0  0  0  0  1  0  0  0  0  0  0
  161.0280  209.8450  151.2620 C   0  0  0  0  0  0  0  0  0  0  0  0
  160.9100  212.2830  150.6620 C   0  0  0  0  0  3  0  0  0  0  0  0
  161.2030  210.8630  150.3710 C   0  0  0  0  0  0  0  0  0  0  0  0
  158.9750  211.8150  152.0430 C   0  0  0  0  0  2  0  0  0  0  0  0
  160.5510  210.0500  152.6040 N   0  0  0  0  0  0  0  0  0  0  0  0
  159.2540  211.0010  154.6990 Cl  0  0  0  0  0  0  0  0  0  0  0  0
  161.1410  204.1950  147.6640 C   0  0  0  0  0  0  0  0  0  0  0  0
  160.6980  204.0740  150.7610 C   0  0  0  0  0  3  0  0  0  0  0  0
  160.8350  206.1150  149.2740 C   0  0  0  0  0  3  0  0  0  0  0  0
  160.8620  205.5810  148.0560 C   0  0  0  0  0  3  0  0  0  0  0  0
  160.6720  203.0840  149.8740 C   0  0  0  0  0  3  0  0  0  0  0  0
  161.0230  203.1300  148.4530 C   0  0  0  0  0  3  0  0  0  0  0  0
  161.0800  205.4400  150.5180 N   0  0  0  0  0  0  0  0  0  0  0  0
  161.4630  203.9480  146.2280 C   0  0  0  0  0  2  0  0  0  0  0  0
  160.1740  202.1640  144.9700 C   0  0  0  0  0  0  0  0  0  0  0  0
  161.2060  202.5580  145.8770 N   0  0  0  0  0  2  0  0  0  0  0  0
  160.0160  200.8230  144.6500 O   0  0  0  0  0  1  0  0  0  0  0  0
  159.4020  203.0200  144.4630 O   0  0  0  0  0  0  0  0  0  0  0  0
  161.0270  205.6060  152.9960 C   0  0  0  0  0  2  0  0  0  0  0  0
  161.5430  206.3250  154.2370 C   0  0  0  0  0  2  0  0  0  0  0  0
  159.6500  208.3390  156.6280 O   0  0  0  0  0  0  0  0  0  0  0  0
  160.6410  207.8230  156.0510 C   0  0  0  0  0  0  0  0  0  0  0  0
  160.4350  206.9530  154.9390 N   0  0  0  0  0  2  0  0  0  0  0  0
  161.9560  208.1090  156.5160 N   0  0  0  0  0  1  0  0  0  0  0  0
  1  2  1  0  0  0  0
  2  5  1  0  0  0  0
  2 27  1  1  0  0  0
  3  9  1  1  0  0  0
  3  4  1  0  0  0  0
  3  1  1  0  0  0  0
  4  5  1  0  0  0  0
  6 12  1  0  0  0  0
  7 14  1  0  0  0  0
  8 11  1  0  0  0  0
  9 13  1  0  0  0  0
 10  6  2  0  0  0  0
 11 10  1  0  0  0  0
 11  9  2  0  0  0  0
 12  7  1  0  0  0  0
 13  7  2  0  0  0  0
 15 18  1  0  0  0  0
 15 20  2  0  0  0  0
 17 21  1  0  0  0  0
 18 17  2  0  0  0  0
 19 16  2  0  0  0  0
 20 19  1  0  0  0  0
 21 16  1  0  0  0  0
 21  2  1  0  0  0  0
 22 15  1  0  0  0  0
 23 24  1  0  0  0  0
 24 22  1  0  0  0  0
 25 23  1  0  0  0  0
 26 23  2  0  0  0  0
 27 28  1  0  0  0  0
 28 31  1  0  0  0  0
 30 32  1  0  0  0  0
 30 29  2  0  0  0  0
 31 30  1  0  0  0  0
M  END
>  <MODEL>
5

>  <REMARK>
 VINA RESULT:      -6.3      2.278      4.230
  Name = 
  7 active torsions:
  status: ('A' for Active; 'I' for Inactive)
    1  A    between atoms: C_2  and  C_13
    2  A    between atoms: C_2  and  N_32
    3  A    between atoms: C_6  and  C_17
    4  A    between atoms: C_7  and  C_12
    5  A    between atoms: C_11  and  C_13
    6  A    between atoms: C_11  and  N_26
    7  A    between atoms: C_17  and  N_18
                            x       y       z     vdW  Elec       q    Type
                         _______ _______ _______ _____ _____    ______ ____

>  <TORSDO>
F 7

$$$$
=
 OpenBabel11042421143D

 32 34  0  0  1  0  0  0  0  0999 V2000
  160.4070  208.3020  151.8540 O   0  0  0  0  0  0  0  0  0  0  0  0
  161.1790  207.1550  152.1370 C   0  0  2  0  0  0  0  0  0  0  0  0
  161.2540  209.1730  151.1530 C   0  0  2  0  0  3  0  0  0  0  0  0
  162.6720  208.9740  151.6220 C   0  0  0  0  0  2  0  0  0  0  0  0
  162.6460  207.5940  152.2050 C   0  0  0  0  0  2  0  0  0  0  0  0
  159.6920  213.4400  150.9560 N   0  0  0  0  0  0  0  0  0  0  0  0
  159.2600  211.8470  152.6960 C   0  0  0  0  0  0  0  0  0  0  0  0
  161.9920  211.0720  148.7930 S   0  0  0  0  0  1  0  0  0  0  0  0
  160.8000  210.6050  151.2470 C   0  0  0  0  0  0  0  0  0  0  0  0
  160.7380  212.9570  150.3610 C   0  0  0  0  0  3  0  0  0  0  0  0
  161.0660  211.5170  150.2690 C   0  0  0  0  0  0  0  0  0  0  0  0
  158.6670  212.6170  151.5720 C   0  0  0  0  0  2  0  0  0  0  0  0
  160.1800  210.9540  152.4980 N   0  0  0  0  0  0  0  0  0  0  0  0
  158.6600  212.1160  154.3180 Cl  0  0  0  0  0  0  0  0  0  0  0  0
  161.2590  204.5050  148.4510 C   0  0  0  0  0  0  0  0  0  0  0  0
  160.4960  204.8350  151.4700 C   0  0  0  0  0  3  0  0  0  0  0  0
  160.8660  206.6410  149.7380 C   0  0  0  0  0  3  0  0  0  0  0  0
  160.9960  205.9390  148.6160 C   0  0  0  0  0  3  0  0  0  0  0  0
  160.5220  203.7310  150.7310 C   0  0  0  0  0  3  0  0  0  0  0  0
  161.0180  203.5660  149.3620 C   0  0  0  0  0  3  0  0  0  0  0  0
  160.9550  206.1420  151.0830 N   0  0  0  0  0  0  0  0  0  0  0  0
  161.7160  204.0490  147.1060 C   0  0  0  0  0  2  0  0  0  0  0  0
  161.0430  205.0510  144.8760 C   0  0  0  0  0  0  0  0  0  0  0  0
  161.6800  205.1490  146.1520 N   0  0  0  0  0  2  0  0  0  0  0  0
  161.0120  206.1560  144.0370 O   0  0  0  0  0  0  0  0  0  0  0  0
  160.5150  203.9700  144.5020 O   0  0  0  0  0  1  0  0  0  0  0  0
  160.7410  206.6240  153.5100 C   0  0  0  0  0  2  0  0  0  0  0  0
  161.3620  207.3690  154.6860 C   0  0  0  0  0  2  0  0  0  0  0  0
  159.8510  209.9580  156.7760 O   0  0  0  0  0  0  0  0  0  0  0  0
  160.7260  209.1780  156.3190 C   0  0  0  0  0  0  0  0  0  0  0  0
  160.3930  208.2940  155.2500 N   0  0  0  0  0  2  0  0  0  0  0  0
  162.0360  209.1840  156.8760 N   0  0  0  0  0  1  0  0  0  0  0  0
  1  2  1  0  0  0  0
  2  5  1  0  0  0  0
  2 27  1  1  0  0  0
  3  9  1  1  0  0  0
  3  4  1  0  0  0  0
  3  1  1  0  0  0  0
  4  5  1  0  0  0  0
  6 12  1  0  0  0  0
  7 14  1  0  0  0  0
  8 11  1  0  0  0  0
  9 13  1  0  0  0  0
 10  6  2  0  0  0  0
 11 10  1  0  0  0  0
 11  9  2  0  0  0  0
 12  7  1  0  0  0  0
 13  7  2  0  0  0  0
 15 18  1  0  0  0  0
 15 20  2  0  0  0  0
 17 21  1  0  0  0  0
 18 17  2  0  0  0  0
 19 16  2  0  0  0  0
 20 19  1  0  0  0  0
 21 16  1  0  0  0  0
 21  2  1  0  0  0  0
 22 15  1  0  0  0  0
 23 24  1  0  0  0  0
 24 22  1  0  0  0  0
 25 23  2  0  0  0  0
 26 23  1  0  0  0  0
 27 28  1  0  0  0  0
 28 31  1  0  0  0  0
 30 29  2  0  0  0  0
 30 32  1  0  0  0  0
 31 30  1  0  0  0  0
M  END
>  <MODEL>
6

>  <REMARK>
 VINA RESULT:      -5.9      2.766      5.039
  Name = 
  7 active torsions:
  status: ('A' for Active; 'I' for Inactive)
    1  A    between atoms: C_2  and  C_13
    2  A    between atoms: C_2  and  N_32
    3  A    between atoms: C_6  and  C_17
    4  A    between atoms: C_7  and  C_12
    5  A    between atoms: C_11  and  C_13
    6  A    between atoms: C_11  and  N_26
    7  A    between atoms: C_17  and  N_18
                            x       y       z     vdW  Elec       q    Type
                         _______ _______ _______ _____ _____    ______ ____

>  <TORSDO>
F 7

$$$$
=
 OpenBabel11042421143D

 32 34  0  0  1  0  0  0  0  0999 V2000
  160.9710  205.7870  148.4200 O   0  0  0  0  0  0  0  0  0  0  0  0
  161.6950  206.7640  149.1350 C   0  0  2  0  0  0  0  0  0  0  0  0
  161.9170  204.8440  147.9910 C   0  0  2  0  0  3  0  0  0  0  0  0
  163.2340  205.5340  147.7490 C   0  0  0  0  0  2  0  0  0  0  0  0
  163.1220  206.7780  148.5790 C   0  0  0  0  0  2  0  0  0  0  0  0
  160.0420  202.3660  144.6690 N   0  0  0  0  0  0  0  0  0  0  0  0
  160.8740  204.6060  144.4740 C   0  0  0  0  0  0  0  0  0  0  0  0
  160.9400  201.9250  148.4870 S   0  0  0  0  0  1  0  0  0  0  0  0
  161.4370  204.0620  146.7980 C   0  0  0  0  0  0  0  0  0  0  0  0
  160.6040  201.9310  145.7540 C   0  0  0  0  0  3  0  0  0  0  0  0
  160.9850  202.7790  146.9050 C   0  0  0  0  0  0  0  0  0  0  0  0
  159.6590  203.7510  144.4640 C   0  0  0  0  0  2  0  0  0  0  0  0
  161.6100  204.7290  145.5350 N   0  0  0  0  0  0  0  0  0  0  0  0
  161.2870  205.5120  143.0340 Cl  0  0  0  0  0  0  0  0  0  0  0  0
  161.0840  206.5930  153.6320 C   0  0  0  0  0  0  0  0  0  0  0  0
  161.6450  205.0490  150.9660 C   0  0  0  0  0  3  0  0  0  0  0  0
  162.0330  207.4970  151.4740 C   0  0  0  0  0  3  0  0  0  0  0  0
  161.7810  207.5620  152.7780 C   0  0  0  0  0  3  0  0  0  0  0  0
  161.3280  204.5640  152.1620 C   0  0  0  0  0  3  0  0  0  0  0  0
  160.9270  205.3000  153.3630 C   0  0  0  0  0  3  0  0  0  0  0  0
  161.6690  206.4340  150.5770 N   0  0  0  0  0  0  0  0  0  0  0  0
  160.6240  207.0740  154.9670 C   0  0  0  0  0  2  0  0  0  0  0  0
  161.5520  209.1810  156.0300 C   0  0  0  0  0  0  0  0  0  0  0  0
  160.7370  208.5240  155.0570 N   0  0  0  0  0  2  0  0  0  0  0  0
  161.6430  210.5650  156.0270 O   0  0  0  0  0  0  0  0  0  0  0  0
  162.1830  208.5160  156.8950 O   0  0  0  0  0  1  0  0  0  0  0  0
  161.0320  208.1250  148.8720 C   0  0  0  0  0  2  0  0  0  0  0  0
  161.9790  209.1700  148.2950 C   0  0  0  0  0  2  0  0  0  0  0  0
  161.5630  212.6330  149.3850 O   0  0  0  0  0  0  0  0  0  0  0  0
  161.5550  211.6310  148.6250 C   0  0  0  0  0  0  0  0  0  0  0  0
  161.9650  210.3600  149.1290 N   0  0  0  0  0  2  0  0  0  0  0  0
  161.1400  211.7760  147.2700 N   0  0  0  0  0  1  0  0  0  0  0  0
  1  2  1  0  0  0  0
  2 27  1  6  0  0  0
  2 21  1  0  0  0  0
  3  9  1  6  0  0  0
  3  1  1  0  0  0  0
  4  3  1  0  0  0  0
  4  5  1  0  0  0  0
  5  2  1  0  0  0  0
  6 10  2  0  0  0  0
  7 13  2  0  0  0  0
  9 11  2  0  0  0  0
 10 11  1  0  0  0  0
 11  8  1  0  0  0  0
 12  7  1  0  0  0  0
 12  6  1  0  0  0  0
 13  9  1  0  0  0  0
 14  7  1  0  0  0  0
 15 22  1  0  0  0  0
 16 19  2  0  0  0  0
 17 18  2  0  0  0  0
 18 15  1  0  0  0  0
 19 20  1  0  0  0  0
 20 15  2  0  0  0  0
 21 16  1  0  0  0  0
 21 17  1  0  0  0  0
 22 24  1  0  0  0  0
 23 26  1  0  0  0  0
 24 23  1  0  0  0  0
 25 23  2  0  0  0  0
 28 27  1  0  0  0  0
 28 31  1  0  0  0  0
 30 31  1  0  0  0  0
 30 29  2  0  0  0  0
 32 30  1  0  0  0  0
M  END
>  <MODEL>
7

>  <REMARK>
 VINA RESULT:      -5.7      4.090      9.179
  Name = 
  7 active torsions:
  status: ('A' for Active; 'I' for Inactive)
    1  A    between atoms: C_2  and  C_13
    2  A    between atoms: C_2  and  N_32
    3  A    between atoms: C_6  and  C_17
    4  A    between atoms: C_7  and  C_12
    5  A    between atoms: C_11  and  C_13
    6  A    between atoms: C_11  and  N_26
    7  A    between atoms: C_17  and  N_18
                            x       y       z     vdW  Elec       q    Type
                         _______ _______ _______ _____ _____    ______ ____

>  <TORSDO>
F 7

$$$$
=
 OpenBabel11042421143D

 32 34  0  0  1  0  0  0  0  0999 V2000
  160.0880  209.3190  153.1670 O   0  0  0  0  0  0  0  0  0  0  0  0
  161.4360  208.9160  153.0530 C   0  0  2  0  0  0  0  0  0  0  0  0
  160.1160  210.7070  153.3630 C   0  0  2  0  0  3  0  0  0  0  0  0
  161.3710  211.0800  154.1090 C   0  0  0  0  0  2  0  0  0  0  0  0
  162.2840  209.9240  153.8360 C   0  0  0  0  0  2  0  0  0  0  0  0
  156.6260  212.3020  155.8050 N   0  0  0  0  0  0  0  0  0  0  0  0
  157.3250  213.0820  153.6480 C   0  0  0  0  0  0  0  0  0  0  0  0
  159.3800  209.4950  156.1390 S   0  0  0  0  0  1  0  0  0  0  0  0
  158.8650  211.2120  154.0300 C   0  0  0  0  0  0  0  0  0  0  0  0
  157.1800  211.1320  155.8940 C   0  0  0  0  0  3  0  0  0  0  0  0
  158.4540  210.7510  155.2460 C   0  0  0  0  0  0  0  0  0  0  0  0
  157.2190  213.4180  155.0910 C   0  0  0  0  0  2  0  0  0  0  0  0
  158.0830  212.1160  153.2290 N   0  0  0  0  0  0  0  0  0  0  0  0
  156.4480  214.0510  152.4840 Cl  0  0  0  0  0  0  0  0  0  0  0  0
  162.0650  207.9320  148.6650 C   0  0  0  0  0  0  0  0  0  0  0  0
  161.9570  210.1120  150.9100 C   0  0  0  0  0  3  0  0  0  0  0  0
  162.3570  207.6270  151.1540 C   0  0  0  0  0  3  0  0  0  0  0  0
  162.4630  207.2280  149.8900 C   0  0  0  0  0  3  0  0  0  0  0  0
  161.9950  210.2720  149.5910 C   0  0  0  0  0  3  0  0  0  0  0  0
  161.9000  209.2470  148.5490 C   0  0  0  0  0  3  0  0  0  0  0  0
  161.8140  208.8710  151.6240 N   0  0  0  0  0  0  0  0  0  0  0  0
  161.9600  207.1190  147.4180 C   0  0  0  0  0  2  0  0  0  0  0  0
  162.0420  204.6040  147.1020 C   0  0  0  0  0  0  0  0  0  0  0  0
  161.4980  205.7710  147.7230 N   0  0  0  0  0  2  0  0  0  0  0  0
  161.5810  203.3500  147.4750 O   0  0  0  0  0  1  0  0  0  0  0  0
  162.9320  204.7030  146.2160 O   0  0  0  0  0  0  0  0  0  0  0  0
  161.5670  207.5290  153.6990 C   0  0  0  0  0  2  0  0  0  0  0  0
  160.5820  206.5010  153.1580 C   0  0  0  0  0  2  0  0  0  0  0  0
  161.6320  203.1850  152.0370 O   0  0  0  0  0  0  0  0  0  0  0  0
  161.0770  204.3130  152.0110 C   0  0  0  0  0  0  0  0  0  0  0  0
  161.2050  205.1880  153.1310 N   0  0  0  0  0  2  0  0  0  0  0  0
  160.3220  204.7020  150.8680 N   0  0  0  0  0  1  0  0  0  0  0  0
  1  3  1  0  0  0  0
  2  1  1  0  0  0  0
  2 27  1  1  0  0  0
  2  5  1  0  0  0  0
  3  9  1  1  0  0  0
  3  4  1  0  0  0  0
  5  4  1  0  0  0  0
  6 10  2  0  0  0  0
  7 12  1  0  0  0  0
  9 11  2  0  0  0  0
 11 10  1  0  0  0  0
 11  8  1  0  0  0  0
 12  6  1  0  0  0  0
 13  7  2  0  0  0  0
 13  9  1  0  0  0  0
 14  7  1  0  0  0  0
 15 18  1  0  0  0  0
 16 21  1  0  0  0  0
 17 21  1  0  0  0  0
 18 17  2  0  0  0  0
 19 16  2  0  0  0  0
 20 15  2  0  0  0  0
 20 19  1  0  0  0  0
 21  2  1  0  0  0  0
 22 24  1  0  0  0  0
 22 15  1  0  0  0  0
 23 25  1  0  0  0  0
 23 24  1  0  0  0  0
 26 23  2  0  0  0  0
 28 27  1  0  0  0  0
 30 29  2  0  0  0  0
 30 31  1  0  0  0  0
 31 28  1  0  0  0  0
 32 30  1  0  0  0  0
M  END
>  <MODEL>
8

>  <REMARK>
 VINA RESULT:      -5.6      3.230      4.592
  Name = 
  7 active torsions:
  status: ('A' for Active; 'I' for Inactive)
    1  A    between atoms: C_2  and  C_13
    2  A    between atoms: C_2  and  N_32
    3  A    between atoms: C_6  and  C_17
    4  A    between atoms: C_7  and  C_12
    5  A    between atoms: C_11  and  C_13
    6  A    between atoms: C_11  and  N_26
    7  A    between atoms: C_17  and  N_18
                            x       y       z     vdW  Elec       q    Type
                         _______ _______ _______ _____ _____    ______ ____

>  <TORSDO>
F 7

$$$$
=
 OpenBabel11042421143D

 32 34  0  0  1  0  0  0  0  0999 V2000
  162.1570  208.5300  152.9640 O   0  0  0  0  0  0  0  0  0  0  0  0
  161.6210  208.1240  151.7240 C   0  0  2  0  0  0  0  0  0  0  0  0
  161.0900  209.0950  153.6790 C   0  0  2  0  0  3  0  0  0  0  0  0
  160.1270  209.7350  152.7130 C   0  0  0  0  0  2  0  0  0  0  0  0
  160.4210  209.0300  151.4230 C   0  0  0  0  0  2  0  0  0  0  0  0
  162.3080  211.6220  157.2590 N   0  0  0  0  0  0  0  0  0  0  0  0
  163.7450  210.8780  155.4900 C   0  0  0  0  0  0  0  0  0  0  0  0
  159.0170  209.9720  155.8370 S   0  0  0  0  0  1  0  0  0  0  0  0
  161.5620  210.0420  154.7500 C   0  0  0  0  0  0  0  0  0  0  0  0
  161.1200  211.4940  156.7540 C   0  0  0  0  0  3  0  0  0  0  0  0
  160.7380  210.4840  155.7430 C   0  0  0  0  0  0  0  0  0  0  0  0
  163.4170  210.7450  156.9330 C   0  0  0  0  0  2  0  0  0  0  0  0
  162.9030  210.5310  154.5660 N   0  0  0  0  0  0  0  0  0  0  0  0
  165.3290  211.4650  155.0300 Cl  0  0  0  0  0  0  0  0  0  0  0  0
  160.8620  203.6950  151.0700 C   0  0  0  0  0  0  0  0  0  0  0  0
  161.2060  206.0620  153.0910 C   0  0  0  0  0  3  0  0  0  0  0  0
  160.5600  206.1660  150.6480 C   0  0  0  0  0  3  0  0  0  0  0  0
  160.4050  204.8820  150.3380 C   0  0  0  0  0  3  0  0  0  0  0  0
  161.1750  204.7550  153.3320 C   0  0  0  0  0  3  0  0  0  0  0  0
  161.1580  203.6540  152.3660 C   0  0  0  0  0  3  0  0  0  0  0  0
  161.2290  206.7000  151.8020 N   0  0  0  0  0  0  0  0  0  0  0  0
  160.8750  202.4020  150.3260 C   0  0  0  0  0  2  0  0  0  0  0  0
  161.0400  201.6440  147.9120 C   0  0  0  0  0  0  0  0  0  0  0  0
  160.7260  202.6330  148.8950 N   0  0  0  0  0  2  0  0  0  0  0  0
  160.8310  201.9210  146.5680 O   0  0  0  0  0  0  0  0  0  0  0  0
  161.5120  200.5260  148.2520 O   0  0  0  0  0  1  0  0  0  0  0  0
  162.7020  208.3390  150.6540 C   0  0  0  0  0  2  0  0  0  0  0  0
  162.1560  208.4190  149.2340 C   0  0  0  0  0  2  0  0  0  0  0  0
  162.7000  205.7860  146.7590 O   0  0  0  0  0  0  0  0  0  0  0  0
  162.0880  206.6340  147.4570 C   0  0  0  0  0  0  0  0  0  0  0  0
  162.8120  207.4260  148.3980 N   0  0  0  0  0  2  0  0  0  0  0  0
  160.6810  206.7920  147.3040 N   0  0  0  0  0  1  0  0  0  0  0  0
  1  3  1  0  0  0  0
  2 27  1  6  0  0  0
  2 21  1  0  0  0  0
  2  1  1  0  0  0  0
  3  9  1  1  0  0  0
  4  3  1  0  0  0  0
  5  2  1  0  0  0  0
  5  4  1  0  0  0  0
  7 12  1  0  0  0  0
  9 11  2  0  0  0  0
 10  6  2  0  0  0  0
 11  8  1  0  0  0  0
 11 10  1  0  0  0  0
 12  6  1  0  0  0  0
 13  9  1  0  0  0  0
 13  7  2  0  0  0  0
 14  7  1  0  0  0  0
 15 20  2  0  0  0  0
 16 19  2  0  0  0  0
 17 21  1  0  0  0  0
 18 17  2  0  0  0  0
 18 15  1  0  0  0  0
 20 19  1  0  0  0  0
 21 16  1  0  0  0  0
 22 15  1  0  0  0  0
 23 26  1  0  0  0  0
 23 24  1  0  0  0  0
 24 22  1  0  0  0  0
 25 23  2  0  0  0  0
 28 27  1  0  0  0  0
 29 30  2  0  0  0  0
 30 31  1  0  0  0  0
 31 28  1  0  0  0  0
 32 30  1  0  0  0  0
M  END
>  <MODEL>
9

>  <REMARK>
 VINA RESULT:      -5.5      2.680      4.624
  Name = 
  7 active torsions:
  status: ('A' for Active; 'I' for Inactive)
    1  A    between atoms: C_2  and  C_13
    2  A    between atoms: C_2  and  N_32
    3  A    between atoms: C_6  and  C_17
    4  A    between atoms: C_7  and  C_12
    5  A    between atoms: C_11  and  C_13
    6  A    between atoms: C_11  and  N_26
    7  A    between atoms: C_17  and  N_18
                            x       y       z     vdW  Elec       q    Type
                         _______ _______ _______ _____ _____    ______ ____

>  <TORSDO>
F 7

$$$$
