=
 OpenBabel11052411333D

 58 62  0  0  1  0  0  0  0  0999 V2000
  160.4630  204.8680  151.0690 C   0  0  2  0  0  3  0  0  0  0  0  0
  160.6040  206.8220  146.8170 C   0  0  0  0  0  1  0  0  0  0  0  0
  163.0960  208.3870  150.2820 O   0  0  0  0  0  1  0  0  0  0  0  0
  161.0520  205.2700  148.7070 C   0  0  2  0  0  3  0  0  0  0  0  0
  161.7440  202.9790  151.7670 O   0  0  0  0  0  0  0  0  0  0  0  0
  161.6890  206.1830  147.6510 C   0  0  2  0  0  3  0  0  0  0  0  0
  160.9920  203.4640  150.9360 C   0  0  0  0  0  0  0  0  0  0  0  0
  161.3020  205.7440  150.1460 C   0  0  1  0  0  3  0  0  0  0  0  0
  162.0390  208.0550  149.4260 C   0  0  1  0  0  0  0  0  0  0  0  0
  160.8770  202.8810  149.5500 C   0  0  1  0  0  3  0  0  0  0  0  0
  161.5330  203.8210  148.5350 C   0  0  0  0  0  2  0  0  0  0  0  0
  162.6330  207.2310  148.2390 C   0  0  0  0  0  2  0  0  0  0  0  0
  161.0050  207.2370  150.2350 C   0  0  0  0  0  2  0  0  0  0  0  0
  160.6120  200.4330  150.2480 C   0  0  0  0  0  1  0  0  0  0  0  0
  161.3490  201.4310  149.3680 C   0  0  1  0  0  3  0  0  0  0  0  0
  161.3590  200.9750  147.9270 C   0  0  0  0  0  2  0  0  0  0  0  0
  160.3920  201.8220  147.1070 C   0  0  0  0  0  2  0  0  0  0  0  0
  159.8660  201.0470  144.7840 C   0  0  0  0  0  1  0  0  0  0  0  0
  160.7850  201.9030  145.6360 C   0  0  0  0  0  3  0  0  0  0  0  0
  160.7750  203.3330  145.1220 C   0  0  0  0  0  1  0  0  0  0  0  0
  161.3870  209.2370  148.9680 O   0  0  0  0  0  0  0  0  0  0  0  0
  162.3560  210.1940  148.6090 C   0  0  0  0  0  2  0  0  0  0  0  0
  160.9740  212.0850  150.1430 S   0  0  0  0  0  1  0  0  0  0  0  0
  161.7800  211.6110  148.5770 C   0  0  2  0  0  3  0  0  0  0  0  0
  160.8120  211.6870  147.5010 N   0  0  0  0  0  2  0  0  0  0  0  0
  159.6320  213.3340  146.1340 C   0  0  0  0  0  2  0  0  0  0  0  0
  162.1670  213.0850  146.0190 C   0  0  0  0  0  2  0  0  0  0  0  0
  161.8400  213.5940  144.6180 C   0  0  0  0  0  2  0  0  0  0  0  0
  159.6060  212.5980  144.7820 C   0  0  0  0  0  2  0  0  0  0  0  0
  160.8530  212.7080  143.9920 N   0  0  1  0  0  0  0  0  0  0  0  0
  160.9180  213.0120  146.9020 C   0  0  2  0  0  3  0  0  0  0  0  0
  159.8800  212.1730  141.8390 C   0  0  0  0  0  2  0  0  0  0  0  0
  162.3190  211.8230  141.9910 F   0  0  0  0  0  0  0  0  0  0  0  0
  160.4940  213.2750  142.6970 C   0  0  2  0  0  3  0  0  0  0  0  0
  161.2920  212.6330  141.5670 C   0  0  2  0  0  0  0  0  0  0  0  0
  161.5080  213.5610  140.3850 C   0  0  0  0  0  2  0  0  0  0  0  0
  160.4460  213.3260  139.3300 C   0  0  0  0  0  2  0  0  0  0  0  0
  160.8050  212.1660  138.5320 N   0  0  0  0  0  2  0  0  0  0  0  0
  162.8260  211.1950  137.5790 C   0  0  0  0  0  1  0  0  0  0  0  0
  162.0610  212.4720  137.8660 C   0  0  0  0  0  2  0  0  0  0  0  0
  160.2640  205.4040  152.5000 C   0  0  0  0  0  2  0  0  0  0  0  0
  161.4760  206.0570  153.1390 C   0  0  0  0  0  2  0  0  0  0  0  0
  161.0790  206.5570  154.5040 C   0  0  0  0  0  2  0  0  0  0  0  0
  161.1250  208.0500  154.6100 C   0  0  0  0  0  0  0  0  0  0  0  0
  160.9730  208.7520  153.5760 O   0  0  0  0  0  0  0  0  0  0  0  0
  161.2830  208.6710  155.8870 N   0  0  0  0  0  2  0  0  0  0  0  0
  161.2530  210.1130  156.0520 C   0  0  0  0  0  2  0  0  0  0  0  0
  159.8390  210.5900  156.3350 C   0  0  0  0  0  2  0  0  0  0  0  0
  158.5790  212.4320  155.0830 N   0  0  0  0  0  0  0  0  0  0  0  0
  155.6910  211.6900  156.0880 C   0  0  0  0  0  1  0  0  0  0  0  0
  157.6490  211.4280  154.5610 C   0  0  0  0  0  2  0  0  0  0  0  0
  156.0310  213.4020  154.3180 C   0  0  1  0  0  3  0  0  0  0  0  0
  160.5090  212.8680  156.3570 O   0  0  0  0  0  0  0  0  0  0  0  0
  157.2890  214.0290  153.7150 C   0  0  0  0  0  2  0  0  0  0  0  0
  154.9560  213.5400  153.4470 O   0  0  0  0  0  1  0  0  0  0  0  0
  158.4560  213.8370  154.6780 C   0  0  0  0  0  2  0  0  0  0  0  0
  156.2060  211.9170  154.6860 C   0  0  2  0  0  3  0  0  0  0  0  0
  159.6840  212.0180  155.9180 C   0  0  0  0  0  0  0  0  0  0  0  0
  1 41  1  1  0  0  0
  4 11  1  1  0  0  0
  4  8  1  0  0  0  0
  6  2  1  1  0  0  0
  6 12  1  0  0  0  0
  6  4  1  0  0  0  0
  7  1  1  0  0  0  0
  7  5  2  0  0  0  0
  8 13  1  6  0  0  0
  8  1  1  0  0  0  0
  9 13  1  0  0  0  0
  9  3  1  1  0  0  0
 10 15  1  1  0  0  0
 10  7  1  0  0  0  0
 11 10  1  0  0  0  0
 12  9  1  0  0  0  0
 15 14  1  1  0  0  0
 16 15  1  0  0  0  0
 17 16  1  0  0  0  0
 18 19  1  0  0  0  0
 19 17  1  0  0  0  0
 20 19  1  0  0  0  0
 21  9  1  0  0  0  0
 22 21  1  0  0  0  0
 24 22  1  0  0  0  0
 24 23  1  1  0  0  0
 25 24  1  0  0  0  0
 26 31  1  0  0  0  0
 27 31  1  0  0  0  0
 28 27  1  0  0  0  0
 29 26  1  0  0  0  0
 30 28  1  1  0  0  0
 30 29  1  0  0  0  0
 31 25  1  6  0  0  0
 34 32  1  6  0  0  0
 34 30  1  0  0  0  0
 35 32  1  0  0  0  0
 35 33  1  1  0  0  0
 35 34  1  0  0  0  0
 36 35  1  0  0  0  0
 37 36  1  0  0  0  0
 38 37  1  0  0  0  0
 39 40  1  0  0  0  0
 40 38  1  0  0  0  0
 41 42  1  0  0  0  0
 42 43  1  0  0  0  0
 43 44  1  0  0  0  0
 44 46  1  0  0  0  0
 45 44  2  0  0  0  0
 46 47  1  0  0  0  0
 47 48  1  0  0  0  0
 49 58  1  0  0  0  0
 51 57  1  0  0  0  0
 51 49  1  0  0  0  0
 52 55  1  6  0  0  0
 52 57  1  0  0  0  0
 54 52  1  0  0  0  0
 54 56  1  0  0  0  0
 56 49  1  0  0  0  0
 57 50  1  1  0  0  0
 58 48  1  0  0  0  0
 58 53  2  0  0  0  0
M  END
>  <MODEL>
1

>  <REMARK>
 VINA RESULT:      -7.1      0.000      0.000
  Name = 
  21 active torsions:
  status: ('A' for Active; 'I' for Inactive)
    1  A    between atoms: C_2  and  C_39
    2  A    between atoms: C_2  and  C_56
    3  A    between atoms: C_3  and  C_23
    4  A    between atoms: C_5  and  C_15
    5  A    between atoms: C_8  and  C_18
    6  A    between atoms: C_15  and  C_45
    7  A    between atoms: C_16  and  C_17
    8  A    between atoms: C_16  and  N_27
    9  A    between atoms: C_17  and  C_51
   10  A    between atoms: C_18  and  C_36
   11  A    between atoms: C_23  and  C_45
   12  A    between atoms: C_24  and  N_32
   13  A    between atoms: O_29  and  C_42
   14  A    between atoms: O_29  and  C_46
   15  A    between atoms: N_32  and  C_39
   16  A    between atoms: C_35  and  N_49
   17  A    between atoms: C_36  and  C_58
   18  A    between atoms: C_44  and  C_58
   19  A    between atoms: C_46  and  C_50
   20  A    between atoms: C_50  and  N_57
   21  A    between atoms: C_54  and  N_57
                            x       y       z     vdW  Elec       q    Type
                         _______ _______ _______ _____ _____    ______ ____

>  <TORSDO>
F 21

$$$$
=
 OpenBabel11052411333D

 58 62  0  0  1  0  0  0  0  0999 V2000
  161.4010  211.4770  149.2230 C   0  0  2  0  0  3  0  0  0  0  0  0
  157.1280  213.3880  149.2740 C   0  0  0  0  0  1  0  0  0  0  0  0
  159.9910  213.7740  152.7830 O   0  0  0  0  0  1  0  0  0  0  0  0
  159.5510  213.0600  148.8240 C   0  0  2  0  0  3  0  0  0  0  0  0
  163.3530  212.4750  148.2770 O   0  0  0  0  0  0  0  0  0  0  0  0
  158.4960  214.0160  149.3980 C   0  0  2  0  0  3  0  0  0  0  0  0
  162.1830  212.1550  148.1280 C   0  0  0  0  0  0  0  0  0  0  0  0
  160.5430  212.5520  149.8810 C   0  0  1  0  0  3  0  0  0  0  0  0
  159.0970  213.2860  151.8230 C   0  0  1  0  0  0  0  0  0  0  0  0
  161.3360  212.7690  147.0420 C   0  0  1  0  0  3  0  0  0  0  0  0
  160.3070  213.7190  147.6610 C   0  0  0  0  0  2  0  0  0  0  0  0
  158.7840  214.4530  150.8340 C   0  0  0  0  0  2  0  0  0  0  0  0
  159.7660  212.0890  151.1080 C   0  0  0  0  0  2  0  0  0  0  0  0
  163.3940  212.7410  145.5220 C   0  0  0  0  0  1  0  0  0  0  0  0
  162.0810  213.4250  145.8710 C   0  0  1  0  0  3  0  0  0  0  0  0
  161.2270  213.6110  144.6380 C   0  0  0  0  0  2  0  0  0  0  0  0
  161.8540  212.8780  143.4570 C   0  0  0  0  0  2  0  0  0  0  0  0
  159.4800  212.5230  142.7390 C   0  0  0  0  0  1  0  0  0  0  0  0
  160.8770  211.9320  142.7670 C   0  0  0  0  0  3  0  0  0  0  0  0
  161.3180  211.5910  141.3530 C   0  0  0  0  0  1  0  0  0  0  0  0
  157.9140  212.8020  152.4540 O   0  0  0  0  0  0  0  0  0  0  0  0
  157.2650  213.8690  153.1070 C   0  0  0  0  0  2  0  0  0  0  0  0
  154.4960  214.0160  152.7200 S   0  0  0  0  0  1  0  0  0  0  0  0
  155.9210  213.4450  153.7030 C   0  0  2  0  0  3  0  0  0  0  0  0
  155.8240  213.9890  155.0430 N   0  0  0  0  0  2  0  0  0  0  0  0
  157.0400  213.2050  157.0140 C   0  0  0  0  0  2  0  0  0  0  0  0
  156.2360  211.5840  155.2180 C   0  0  0  0  0  2  0  0  0  0  0  0
  157.4620  210.8590  155.7670 C   0  0  0  0  0  2  0  0  0  0  0  0
  158.4430  213.0120  156.4090 C   0  0  0  0  0  2  0  0  0  0  0  0
  158.6330  211.7380  155.6790 N   0  0  1  0  0  0  0  0  0  0  0  0
  155.9540  212.8810  155.9820 C   0  0  2  0  0  3  0  0  0  0  0  0
  161.0300  211.4280  155.5410 C   0  0  0  0  0  2  0  0  0  0  0  0
  159.7010  209.8630  154.1710 F   0  0  0  0  0  0  0  0  0  0  0  0
  159.7600  211.0510  156.2970 C   0  0  2  0  0  3  0  0  0  0  0  0
  160.4120  210.0670  155.3300 C   0  0  2  0  0  0  0  0  0  0  0  0
  161.0650  208.8870  156.0270 C   0  0  0  0  0  2  0  0  0  0  0  0
  160.5050  207.5850  155.4920 C   0  0  0  0  0  2  0  0  0  0  0  0
  161.5000  206.9380  154.6540 N   0  0  0  0  0  2  0  0  0  0  0  0
  161.6130  205.6590  152.5840 C   0  0  0  0  0  1  0  0  0  0  0  0
  160.9130  206.7740  153.3340 C   0  0  0  0  0  2  0  0  0  0  0  0
  162.1930  210.5720  150.1860 C   0  0  0  0  0  2  0  0  0  0  0  0
  161.5170  209.2710  150.5820 C   0  0  0  0  0  2  0  0  0  0  0  0
  162.3380  208.1300  150.0430 C   0  0  0  0  0  2  0  0  0  0  0  0
  162.1070  207.8890  148.5830 C   0  0  0  0  0  0  0  0  0  0  0  0
  162.8130  208.4940  147.7340 O   0  0  0  0  0  0  0  0  0  0  0  0
  161.1320  206.9340  148.1610 N   0  0  0  0  0  2  0  0  0  0  0  0
  160.9280  206.6080  146.7610 C   0  0  0  0  0  2  0  0  0  0  0  0
  162.0020  205.6510  146.2730 C   0  0  0  0  0  2  0  0  0  0  0  0
  161.3980  203.2880  147.0470 N   0  0  0  0  0  0  0  0  0  0  0  0
  160.1100  204.0920  149.8030 C   0  0  0  0  0  1  0  0  0  0  0  0
  162.0520  203.5510  148.3310 C   0  0  0  0  0  2  0  0  0  0  0  0
  160.5100  201.7080  149.2230 C   0  0  1  0  0  3  0  0  0  0  0  0
  160.8720  204.0820  144.8950 O   0  0  0  0  0  0  0  0  0  0  0  0
  161.0130  201.0250  147.9490 C   0  0  0  0  0  2  0  0  0  0  0  0
  160.6960  200.8780  150.3230 O   0  0  0  0  0  1  0  0  0  0  0  0
  160.8230  201.9680  146.7660 C   0  0  0  0  0  2  0  0  0  0  0  0
  161.1770  203.0700  149.4870 C   0  0  2  0  0  3  0  0  0  0  0  0
  161.4110  204.3010  146.0160 C   0  0  0  0  0  0  0  0  0  0  0  0
  1  8  1  0  0  0  0
  1 41  1  1  0  0  0
  4 11  1  6  0  0  0
  4  6  1  0  0  0  0
  4  8  1  0  0  0  0
  6  2  1  1  0  0  0
  6 12  1  0  0  0  0
  7  5  2  0  0  0  0
  7  1  1  0  0  0  0
  8 13  1  1  0  0  0
  9 21  1  0  0  0  0
  9  3  1  1  0  0  0
 10 15  1  6  0  0  0
 10 11  1  0  0  0  0
 10  7  1  0  0  0  0
 12  9  1  0  0  0  0
 13  9  1  0  0  0  0
 15 14  1  6  0  0  0
 16 15  1  0  0  0  0
 17 16  1  0  0  0  0
 18 19  1  0  0  0  0
 19 17  1  0  0  0  0
 20 19  1  0  0  0  0
 21 22  1  0  0  0  0
 22 24  1  0  0  0  0
 24 23  1  6  0  0  0
 24 25  1  0  0  0  0
 27 28  1  0  0  0  0
 27 31  1  0  0  0  0
 29 26  1  0  0  0  0
 30 28  1  1  0  0  0
 30 34  1  0  0  0  0
 30 29  1  0  0  0  0
 31 25  1  6  0  0  0
 31 26  1  0  0  0  0
 34 32  1  6  0  0  0
 35 33  1  6  0  0  0
 35 32  1  0  0  0  0
 35 36  1  0  0  0  0
 35 34  1  0  0  0  0
 37 36  1  0  0  0  0
 38 37  1  0  0  0  0
 39 40  1  0  0  0  0
 40 38  1  0  0  0  0
 41 42  1  0  0  0  0
 43 42  1  0  0  0  0
 44 43  1  0  0  0  0
 45 44  2  0  0  0  0
 46 44  1  0  0  0  0
 47 46  1  0  0  0  0
 48 47  1  0  0  0  0
 49 51  1  0  0  0  0
 51 57  1  0  0  0  0
 52 57  1  0  0  0  0
 52 55  1  1  0  0  0
 53 58  2  0  0  0  0
 54 52  1  0  0  0  0
 56 49  1  0  0  0  0
 56 54  1  0  0  0  0
 57 50  1  6  0  0  0
 58 48  1  0  0  0  0
 58 49  1  0  0  0  0
M  END
>  <MODEL>
2

>  <REMARK>
 VINA RESULT:      -6.2      3.174     11.137
  Name = 
  21 active torsions:
  status: ('A' for Active; 'I' for Inactive)
    1  A    between atoms: C_2  and  C_39
    2  A    between atoms: C_2  and  C_56
    3  A    between atoms: C_3  and  C_23
    4  A    between atoms: C_5  and  C_15
    5  A    between atoms: C_8  and  C_18
    6  A    between atoms: C_15  and  C_45
    7  A    between atoms: C_16  and  C_17
    8  A    between atoms: C_16  and  N_27
    9  A    between atoms: C_17  and  C_51
   10  A    between atoms: C_18  and  C_36
   11  A    between atoms: C_23  and  C_45
   12  A    between atoms: C_24  and  N_32
   13  A    between atoms: O_29  and  C_42
   14  A    between atoms: O_29  and  C_46
   15  A    between atoms: N_32  and  C_39
   16  A    between atoms: C_35  and  N_49
   17  A    between atoms: C_36  and  C_58
   18  A    between atoms: C_44  and  C_58
   19  A    between atoms: C_46  and  C_50
   20  A    between atoms: C_50  and  N_57
   21  A    between atoms: C_54  and  N_57
                            x       y       z     vdW  Elec       q    Type
                         _______ _______ _______ _____ _____    ______ ____

>  <TORSDO>
F 21

$$$$
=
 OpenBabel11052411333D

 58 62  0  0  1  0  0  0  0  0999 V2000
  161.3940  212.0480  148.8970 C   0  0  2  0  0  3  0  0  0  0  0  0
  156.7950  212.8780  148.6210 C   0  0  0  0  0  1  0  0  0  0  0  0
  159.2960  214.2740  152.1500 O   0  0  0  0  0  1  0  0  0  0  0  0
  159.2470  213.0970  148.2790 C   0  0  2  0  0  3  0  0  0  0  0  0
  163.1040  213.3870  147.9070 O   0  0  0  0  0  0  0  0  0  0  0  0
  157.9680  213.8240  148.7160 C   0  0  2  0  0  3  0  0  0  0  0  0
  162.0520  212.7840  147.7590 C   0  0  0  0  0  0  0  0  0  0  0  0
  160.2740  212.9450  149.4110 C   0  0  1  0  0  3  0  0  0  0  0  0
  158.5940  213.4960  151.2220 C   0  0  1  0  0  0  0  0  0  0  0  0
  161.1440  213.0700  146.5900 C   0  0  1  0  0  3  0  0  0  0  0  0
  159.8890  213.8020  147.0740 C   0  0  0  0  0  2  0  0  0  0  0  0
  158.0690  214.4530  150.1060 C   0  0  0  0  0  2  0  0  0  0  0  0
  159.5620  212.4300  150.6580 C   0  0  0  0  0  2  0  0  0  0  0  0
  162.9450  213.0070  144.7740 C   0  0  0  0  0  1  0  0  0  0  0  0
  161.7760  213.7690  145.3780 C   0  0  1  0  0  3  0  0  0  0  0  0
  160.7760  214.1530  144.3120 C   0  0  0  0  0  2  0  0  0  0  0  0
  160.9040  213.2130  143.1170 C   0  0  0  0  0  2  0  0  0  0  0  0
  159.8110  212.4520  140.9950 C   0  0  0  0  0  1  0  0  0  0  0  0
  159.9950  213.6100  141.9580 C   0  0  0  0  0  3  0  0  0  0  0  0
  158.6380  214.0950  142.4410 C   0  0  0  0  0  1  0  0  0  0  0  0
  157.5250  212.8060  151.8660 O   0  0  0  0  0  0  0  0  0  0  0  0
  157.9170  212.4590  153.1740 C   0  0  0  0  0  2  0  0  0  0  0  0
  155.2060  213.0930  153.4720 S   0  0  0  0  0  1  0  0  0  0  0  0
  156.8530  212.8290  154.2100 C   0  0  2  0  0  3  0  0  0  0  0  0
  157.2730  214.0420  154.8830 N   0  0  0  0  0  2  0  0  0  0  0  0
  158.8860  214.1290  156.7180 C   0  0  0  0  0  2  0  0  0  0  0  0
  157.1910  212.2350  156.5300 C   0  0  0  0  0  2  0  0  0  0  0  0
  158.3430  211.5510  157.2610 C   0  0  0  0  0  2  0  0  0  0  0  0
  159.9230  213.1070  156.2170 C   0  0  0  0  0  2  0  0  0  0  0  0
  159.5740  211.6920  156.4770 N   0  0  1  0  0  0  0  0  0  0  0  0
  157.4720  213.7210  156.2910 C   0  0  2  0  0  3  0  0  0  0  0  0
  161.9760  211.7490  156.7850 C   0  0  0  0  0  2  0  0  0  0  0  0
  161.1870  210.1650  155.0640 F   0  0  0  0  0  0  0  0  0  0  0  0
  160.6690  211.1130  157.2470 C   0  0  2  0  0  3  0  0  0  0  0  0
  161.6340  210.3440  156.3520 C   0  0  2  0  0  0  0  0  0  0  0  0
  162.3340  209.2020  157.0690 C   0  0  0  0  0  2  0  0  0  0  0  0
  161.5110  207.9340  156.9650 C   0  0  0  0  0  2  0  0  0  0  0  0
  161.7150  207.3290  155.6600 N   0  0  0  0  0  2  0  0  0  0  0  0
  159.3100  207.4430  156.0330 C   0  0  0  0  0  1  0  0  0  0  0  0
  160.4250  206.8370  155.2040 C   0  0  0  0  0  2  0  0  0  0  0  0
  162.3230  211.4550  149.9730 C   0  0  0  0  0  2  0  0  0  0  0  0
  161.6360  210.7390  151.1220 C   0  0  0  0  0  2  0  0  0  0  0  0
  162.6060  209.7440  151.7050 C   0  0  0  0  0  2  0  0  0  0  0  0
  161.9900  208.3980  151.9300 C   0  0  0  0  0  0  0  0  0  0  0  0
  160.7760  208.3150  152.2510 O   0  0  0  0  0  0  0  0  0  0  0  0
  162.7630  207.2140  151.7220 N   0  0  0  0  0  2  0  0  0  0  0  0
  162.1900  205.8870  151.8480 C   0  0  0  0  0  2  0  0  0  0  0  0
  161.3390  205.5530  150.6340 C   0  0  0  0  0  2  0  0  0  0  0  0
  160.9630  203.5040  149.1490 N   0  0  0  0  0  0  0  0  0  0  0  0
  162.7390  204.4390  146.7260 C   0  0  0  0  0  1  0  0  0  0  0  0
  160.6130  204.3870  148.0340 C   0  0  0  0  0  2  0  0  0  0  0  0
  161.3130  202.4090  146.5610 C   0  0  1  0  0  3  0  0  0  0  0  0
  161.5560  203.3230  151.4190 O   0  0  0  0  0  0  0  0  0  0  0  0
  160.4440  201.6710  147.5810 C   0  0  0  0  0  2  0  0  0  0  0  0
  160.9050  202.1040  145.2670 O   0  0  0  0  0  1  0  0  0  0  0  0
  160.8950  202.0470  148.9890 C   0  0  0  0  0  2  0  0  0  0  0  0
  161.3140  203.9370  146.7530 C   0  0  2  0  0  3  0  0  0  0  0  0
  161.2750  204.0720  150.4410 C   0  0  0  0  0  0  0  0  0  0  0  0
  1  8  1  0  0  0  0
  1 41  1  1  0  0  0
  4 11  1  6  0  0  0
  4  6  1  0  0  0  0
  4  8  1  0  0  0  0
  6  2  1  1  0  0  0
  6 12  1  0  0  0  0
  7  5  2  0  0  0  0
  7  1  1  0  0  0  0
  8 13  1  1  0  0  0
  9 21  1  0  0  0  0
  9  3  1  1  0  0  0
 10 15  1  6  0  0  0
 10 11  1  0  0  0  0
 10  7  1  0  0  0  0
 12  9  1  0  0  0  0
 13  9  1  0  0  0  0
 15 14  1  6  0  0  0
 16 15  1  0  0  0  0
 17 16  1  0  0  0  0
 18 19  1  0  0  0  0
 19 20  1  0  0  0  0
 19 17  1  0  0  0  0
 21 22  1  0  0  0  0
 22 24  1  0  0  0  0
 24 23  1  6  0  0  0
 24 25  1  0  0  0  0
 27 28  1  0  0  0  0
 29 26  1  0  0  0  0
 30 29  1  1  0  0  0
 30 34  1  0  0  0  0
 30 28  1  0  0  0  0
 31 25  1  6  0  0  0
 31 27  1  0  0  0  0
 31 26  1  0  0  0  0
 34 32  1  6  0  0  0
 35 33  1  6  0  0  0
 35 32  1  0  0  0  0
 35 36  1  0  0  0  0
 35 34  1  0  0  0  0
 37 36  1  0  0  0  0
 38 37  1  0  0  0  0
 40 38  1  0  0  0  0
 40 39  1  0  0  0  0
 41 42  1  0  0  0  0
 42 43  1  0  0  0  0
 43 44  1  0  0  0  0
 44 45  2  0  0  0  0
 46 47  1  0  0  0  0
 46 44  1  0  0  0  0
 48 47  1  0  0  0  0
 49 58  1  0  0  0  0
 51 49  1  0  0  0  0
 52 55  1  6  0  0  0
 52 57  1  0  0  0  0
 52 54  1  0  0  0  0
 54 56  1  0  0  0  0
 56 49  1  0  0  0  0
 57 50  1  1  0  0  0
 57 51  1  0  0  0  0
 58 48  1  0  0  0  0
 58 53  2  0  0  0  0
M  END
>  <MODEL>
3

>  <REMARK>
 VINA RESULT:      -5.0      3.587     11.339
  Name = 
  21 active torsions:
  status: ('A' for Active; 'I' for Inactive)
    1  A    between atoms: C_2  and  C_39
    2  A    between atoms: C_2  and  C_56
    3  A    between atoms: C_3  and  C_23
    4  A    between atoms: C_5  and  C_15
    5  A    between atoms: C_8  and  C_18
    6  A    between atoms: C_15  and  C_45
    7  A    between atoms: C_16  and  C_17
    8  A    between atoms: C_16  and  N_27
    9  A    between atoms: C_17  and  C_51
   10  A    between atoms: C_18  and  C_36
   11  A    between atoms: C_23  and  C_45
   12  A    between atoms: C_24  and  N_32
   13  A    between atoms: O_29  and  C_42
   14  A    between atoms: O_29  and  C_46
   15  A    between atoms: N_32  and  C_39
   16  A    between atoms: C_35  and  N_49
   17  A    between atoms: C_36  and  C_58
   18  A    between atoms: C_44  and  C_58
   19  A    between atoms: C_46  and  C_50
   20  A    between atoms: C_50  and  N_57
   21  A    between atoms: C_54  and  N_57
                            x       y       z     vdW  Elec       q    Type
                         _______ _______ _______ _____ _____    ______ ____

>  <TORSDO>
F 21

$$$$
